0:0:0
     RDKit          3D

 47 49  0  0  1  0  0  0  0  0999 V2000
    7.2803   -4.6738    1.0092 C   0  0  0  0  0  0  0  0  0  0  0  0
    6.1421   -3.8266    1.6090 C   0  0  2  0  0  0  0  0  0  0  0  0
    5.3141   -4.6396    2.6308 C   0  0  0  0  0  0  0  0  0  0  0  0
    4.4666   -5.7148    1.9406 C   0  0  1  0  0  0  0  0  0  0  0  0
    3.5240   -6.3006    2.8466 O   0  0  0  0  0  0  0  0  0  0  0  0
    2.2506   -6.3786    2.1945 C   0  0  0  0  0  0  0  0  0  0  0  0
    2.0207   -7.8431    1.7966 C   0  0  0  0  0  0  0  0  0  0  0  0
    1.1946   -5.8801    3.1886 C   0  0  0  0  0  0  0  0  0  0  0  0
    2.3802   -5.4821    0.9853 C   0  0  0  0  0  0  0  0  0  0  0  0
    3.6415   -5.1008    0.8513 C   0  0  0  0  0  0  0  0  0  0  0  0
    4.3092   -4.1818   -0.1594 C   0  0  1  0  0  0  0  0  0  0  0  0
    3.3335   -3.4586   -1.1169 C   0  0  0  0  0  0  0  0  0  0  0  0
    4.0677   -2.5856   -2.1704 C   0  0  0  0  0  0  0  0  0  0  0  0
    4.9021   -3.4417   -3.1499 C   0  0  0  0  0  0  0  0  0  0  0  0
    3.0219   -1.8218   -3.0009 C   0  0  0  0  0  0  0  0  0  0  0  0
    4.9615   -1.5710   -1.4207 C   0  0  0  0  0  0  0  0  0  0  0  0
    5.9499   -2.2534   -0.4595 C   0  0  1  0  0  0  0  0  0  0  0  0
    6.6919   -1.2416    0.1886 O   0  0  0  0  0  0  0  0  0  0  0  0
    5.2112   -3.1501    0.5643 C   0  0  2  0  0  0  0  0  0  0  0  0
    6.9097   -5.4763    0.3691 H   0  0  0  0  0  0  0  0  0  0  0  0
    7.8702   -5.1347    1.8027 H   0  0  0  0  0  0  0  0  0  0  0  0
    7.9633   -4.0621    0.4214 H   0  0  0  0  0  0  0  0  0  0  0  0
    6.6160   -3.0196    2.1610 H   0  0  0  0  0  0  0  0  0  0  0  0
    5.9558   -5.0964    3.3874 H   0  0  0  0  0  0  0  0  0  0  0  0
    4.6471   -3.9611    3.1679 H   0  0  0  0  0  0  0  0  0  0  0  0
    5.0884   -6.4998    1.5048 H   0  0  0  0  0  0  0  0  0  0  0  0
    1.0671   -7.9823    1.2836 H   0  0  0  0  0  0  0  0  0  0  0  0
    2.0295   -8.4916    2.6760 H   0  0  0  0  0  0  0  0  0  0  0  0
    2.8147   -8.1895    1.1330 H   0  0  0  0  0  0  0  0  0  0  0  0
    0.1930   -5.9237    2.7637 H   0  0  0  0  0  0  0  0  0  0  0  0
    1.3907   -4.8512    3.4961 H   0  0  0  0  0  0  0  0  0  0  0  0
    1.1953   -6.4947    4.0913 H   0  0  0  0  0  0  0  0  0  0  0  0
    1.5616   -5.2076    0.3359 H   0  0  0  0  0  0  0  0  0  0  0  0
    4.9385   -4.8457   -0.7502 H   0  0  0  0  0  0  0  0  0  0  0  0
    2.6961   -4.1866   -1.6175 H   0  0  0  0  0  0  0  0  0  0  0  0
    2.6564   -2.8313   -0.5320 H   0  0  0  0  0  0  0  0  0  0  0  0
    5.3700   -2.8185   -3.9093 H   0  0  0  0  0  0  0  0  0  0  0  0
    4.2799   -4.1769   -3.6637 H   0  0  0  0  0  0  0  0  0  0  0  0
    5.7034   -3.9910   -2.6583 H   0  0  0  0  0  0  0  0  0  0  0  0
    3.4881   -1.1649   -3.7393 H   0  0  0  0  0  0  0  0  0  0  0  0
    2.4059   -1.1978   -2.3535 H   0  0  0  0  0  0  0  0  0  0  0  0
    2.3598   -2.5080   -3.5338 H   0  0  0  0  0  0  0  0  0  0  0  0
    5.4917   -0.9388   -2.1336 H   0  0  0  0  0  0  0  0  0  0  0  0
    4.3228   -0.8975   -0.8489 H   0  0  0  0  0  0  0  0  0  0  0  0
    6.6590   -2.8471   -1.0313 H   0  0  0  0  0  0  0  0  0  0  0  0
    6.1283   -0.7877    0.7952 H   0  0  0  0  0  0  0  0  0  0  0  0
    4.5452   -2.4981    1.1321 H   0  0  0  0  0  0  0  0  0  0  0  0
  1  2  1  0
  1 20  1  0
  1 21  1  0
  1 22  1  0
  2 19  1  0
  2  3  1  0
  2 23  1  1
  3  4  1  0
  3 24  1  0
  3 25  1  0
  4 10  1  0
  4  5  1  0
  4 26  1  6
  5  6  1  0
  6  7  1  0
  6  8  1  0
  6  9  1  0
  7 27  1  0
  7 28  1  0
  7 29  1  0
  8 30  1  0
  8 31  1  0
  8 32  1  0
  9 10  2  0
  9 33  1  0
 10 11  1  0
 11 19  1  0
 11 12  1  0
 11 34  1  6
 12 13  1  0
 12 35  1  0
 12 36  1  0
 13 14  1  0
 13 15  1  0
 13 16  1  0
 14 37  1  0
 14 38  1  0
 14 39  1  0
 15 40  1  0
 15 41  1  0
 15 42  1  0
 16 17  1  0
 16 43  1  0
 16 44  1  0
 17 18  1  0
 17 19  1  0
 17 45  1  6
 18 46  1  0
 19 47  1  1
M  END
>  <i_m_ct_stereo_status>  (1) 
1

>  <s_m_source_file>  (1) 
/var/tmp/pbs.5076255.sched01/tmpcm5es6vs/0d3z1so5d.sdf

>  <i_m_source_file_index>  (1) 
1

>  <i_lp_mmshare_version>  (1) 
48012

>  <i_f3d_flags>  (1) 
0

>  <s_epik_input>  (1) 
W0NIMl0xQyhbQ0gzXSkoW0NIM10pW0NIMl1bQ0BASF0oW09IXSlbQ0BIXShbQ0BIXShbQ0gzXSlbQ0gyXTIpW0NASF0xQyhbQ0BASF0yMyk9W0NIXUMoTzMpKFtDSDNdKVtDSDNd

>  <s_epik_cmdline>  (1) 
J2VwaWtfcHl0aG9uJywgJy1waHQnLCAnMi4wJywgJy1waCcsICc3LjAnLCAnLXRuJywgJzgnLCAnLW1hJywgJzIwMCcsICctaW1hZScsICc8aW5maWxlLm1hZT4nLCAnLW9tYWUnLCAnPG91dGZpbGUubWFlPic=

>  <r_lp_tautomer_probability>  (1) 
1

>  <r_epik_Ionization_Penalty>  (1) 
6.51852e-07

>  <r_epik_Ionization_Penalty_Charging>  (1) 
0

>  <r_epik_Ionization_Penalty_Neutral>  (1) 
6.51852e-07

>  <r_epik_State_Penalty>  (1) 
-0

>  <r_epik_Charging_Adjusted_Penalty>  (1) 
0

>  <i_epik_Tot_Q>  (1) 
0

>  <i_epik_Tot_abs_Q>  (1) 
0

>  <s_lp_Force_Field>  (1) 
OPLS3e

>  <r_lp_Energy>  (1) 
14.845

>  <b_lp_Chiralities_Consistent>  (1) 
1

>  <s_lp_Variant>  (1) 
0:0-1

>  <s_i_glide_gridfile>  (1) 
pfpi4k_grid

>  <i_i_glide_lignum>  (1) 
1

>  <i_i_glide_rotatable_bonds>  (1) 
1

>  <r_i_docking_score>  (1) 
-3.51454

>  <r_i_glide_ligand_efficiency>  (1) 
-0.184976

>  <r_i_glide_ligand_efficiency_sa>  (1) 
-0.49359

>  <r_i_glide_ligand_efficiency_ln>  (1) 
-0.891012

>  <r_i_glide_gscore>  (1) 
-3.51454

>  <r_i_glide_lipo>  (1) 
-0.511905

>  <r_i_glide_hbond>  (1) 
-0.0411563

>  <r_i_glide_metal>  (1) 
-0

>  <r_i_glide_rewards>  (1) 
-1.60634

>  <r_i_glide_evdw>  (1) 
-24.3718

>  <r_i_glide_ecoul>  (1) 
-0.91032

>  <r_i_glide_erotb>  (1) 
0

>  <r_i_glide_esite>  (1) 
0

>  <r_i_glide_emodel>  (1) 
-30.651

>  <r_i_glide_energy>  (1) 
-25.2821

>  <r_i_glide_einternal>  (1) 
0.0424891

>  <r_i_glide_intrahb_reward>  (1) 
-0

>  <i_i_glide_confnum>  (1) 
1

>  <i_i_glide_posenum>  (1) 
27

>  <r_i_glide_eff_state_penalty>  (1) 
0

>  <ligand_id>  (1) 
0

>  <original_smiles>  (1) 
CC1CC2OC(C)(C)C=C2C2CC(C)(C)CC(O)C12

>  <smiles>  (1) 
[H]OC1([H])C([H])([H])C(C([H])([H])[H])(C([H])([H])[H])C([H])([H])C2([H])C3=C([H])C(C([H])([H])[H])(C([H])([H])[H])OC3([H])C([H])([H])C([H])(C([H])([H])[H])C12[H]

$$$$
0:0:1
     RDKit          3D

 47 49  0  0  1  0  0  0  0  0999 V2000
    8.4572   -2.5178    0.3735 C   0  0  0  0  0  0  0  0  0  0  0  0
    7.8165   -3.6285   -0.4633 C   0  0  2  0  0  0  0  0  0  0  0  0
    7.2712   -3.0429   -1.7704 C   0  0  0  0  0  0  0  0  0  0  0  0
    5.9974   -2.2409   -1.5253 C   0  0  1  0  0  0  0  0  0  0  0  0
    5.3764   -1.9740   -2.7720 O   0  0  0  0  0  0  0  0  0  0  0  0
    3.9800   -2.2253   -2.6650 C   0  0  0  0  0  0  0  0  0  0  0  0
    3.3521   -0.8462   -2.5842 C   0  0  0  0  0  0  0  0  0  0  0  0
    3.5092   -2.9759   -3.9049 C   0  0  0  0  0  0  0  0  0  0  0  0
    3.8293   -3.0190   -1.3962 C   0  0  0  0  0  0  0  0  0  0  0  0
    4.9942   -3.0332   -0.7559 C   0  0  0  0  0  0  0  0  0  0  0  0
    5.4291   -3.7087    0.5244 C   0  0  1  0  0  0  0  0  0  0  0  0
    4.3581   -4.6433    1.1218 C   0  0  0  0  0  0  0  0  0  0  0  0
    4.8293   -5.3175    2.4382 C   0  0  0  0  0  0  0  0  0  0  0  0
    5.0043   -4.2714    3.5589 C   0  0  0  0  0  0  0  0  0  0  0  0
    3.7558   -6.3174    2.8971 C   0  0  0  0  0  0  0  0  0  0  0  0
    6.1543   -6.0736    2.1790 C   0  0  0  0  0  0  0  0  0  0  0  0
    7.2410   -5.1767    1.5684 C   0  0  1  0  0  0  0  0  0  0  0  0
    8.3650   -5.9778    1.2759 O   0  0  0  0  0  0  0  0  0  0  0  0
    6.7441   -4.4923    0.2860 C   0  0  2  0  0  0  0  0  0  0  0  0
    7.7207   -1.8570    0.8212 H   0  0  0  0  0  0  0  0  0  0  0  0
    9.1321   -1.8984   -0.2181 H   0  0  0  0  0  0  0  0  0  0  0  0
    9.0483   -2.9872    1.1597 H   0  0  0  0  0  0  0  0  0  0  0  0
    8.6449   -4.2786   -0.7394 H   0  0  0  0  0  0  0  0  0  0  0  0
    8.0221   -2.4247   -2.2698 H   0  0  0  0  0  0  0  0  0  0  0  0
    7.0397   -3.8337   -2.4824 H   0  0  0  0  0  0  0  0  0  0  0  0
    6.1861   -1.3142   -0.9839 H   0  0  0  0  0  0  0  0  0  0  0  0
    2.2742   -0.9202   -2.4348 H   0  0  0  0  0  0  0  0  0  0  0  0
    3.5267   -0.2380   -3.4737 H   0  0  0  0  0  0  0  0  0  0  0  0
    3.7995   -0.3166   -1.7439 H   0  0  0  0  0  0  0  0  0  0  0  0
    2.4395   -3.1847   -3.8716 H   0  0  0  0  0  0  0  0  0  0  0  0
    4.0494   -3.9155   -4.0276 H   0  0  0  0  0  0  0  0  0  0  0  0
    3.6958   -2.3435   -4.7650 H   0  0  0  0  0  0  0  0  0  0  0  0
    2.9148   -3.5067   -1.0967 H   0  0  0  0  0  0  0  0  0  0  0  0
    5.6157   -2.8854    1.2199 H   0  0  0  0  0  0  0  0  0  0  0  0
    3.4299   -4.0927    1.2899 H   0  0  0  0  0  0  0  0  0  0  0  0
    4.1207   -5.4165    0.3890 H   0  0  0  0  0  0  0  0  0  0  0  0
    5.2977   -4.7405    4.5013 H   0  0  0  0  0  0  0  0  0  0  0  0
    4.0775   -3.7192    3.7358 H   0  0  0  0  0  0  0  0  0  0  0  0
    5.7701   -3.5318    3.3252 H   0  0  0  0  0  0  0  0  0  0  0  0
    4.0524   -6.8195    3.8214 H   0  0  0  0  0  0  0  0  0  0  0  0
    3.5835   -7.0849    2.1425 H   0  0  0  0  0  0  0  0  0  0  0  0
    2.8051   -5.8111    3.0833 H   0  0  0  0  0  0  0  0  0  0  0  0
    6.5127   -6.5330    3.0999 H   0  0  0  0  0  0  0  0  0  0  0  0
    5.9599   -6.8993    1.4923 H   0  0  0  0  0  0  0  0  0  0  0  0
    7.5428   -4.4270    2.2833 H   0  0  0  0  0  0  0  0  0  0  0  0
    8.6863   -6.3837    2.0661 H   0  0  0  0  0  0  0  0  0  0  0  0
    6.4718   -5.3335   -0.3313 H   0  0  0  0  0  0  0  0  0  0  0  0
  1  2  1  0
  1 20  1  0
  1 21  1  0
  1 22  1  0
  2 19  1  0
  2  3  1  0
  2 23  1  6
  3  4  1  0
  3 24  1  0
  3 25  1  0
  4 10  1  0
  4  5  1  0
  4 26  1  1
  5  6  1  0
  6  7  1  0
  6  8  1  0
  6  9  1  0
  7 27  1  0
  7 28  1  0
  7 29  1  0
  8 30  1  0
  8 31  1  0
  8 32  1  0
  9 10  2  0
  9 33  1  0
 10 11  1  0
 11 19  1  0
 11 12  1  0
 11 34  1  1
 12 13  1  0
 12 35  1  0
 12 36  1  0
 13 14  1  0
 13 15  1  0
 13 16  1  0
 14 37  1  0
 14 38  1  0
 14 39  1  0
 15 40  1  0
 15 41  1  0
 15 42  1  0
 16 17  1  0
 16 43  1  0
 16 44  1  0
 17 18  1  0
 17 19  1  0
 17 45  1  1
 18 46  1  0
 19 47  1  6
M  END
>  <i_m_ct_stereo_status>  (2) 
1

>  <s_m_source_file>  (2) 
/var/tmp/pbs.5076255.sched01/tmpcm5es6vs/0d3z1so5d.sdf

>  <i_m_source_file_index>  (2) 
1

>  <i_lp_mmshare_version>  (2) 
48012

>  <i_f3d_flags>  (2) 
0

>  <s_epik_input>  (2) 
W0NIMl0xQyhbQ0gzXSkoW0NIM10pW0NIMl1bQ0BASF0oW09IXSlbQ0BIXShbQ0BIXShbQ0gzXSlbQ0gyXTIpW0NASF0xQyhbQ0BASF0yMyk9W0NIXUMoTzMpKFtDSDNdKVtDSDNd

>  <s_epik_cmdline>  (2) 
J2VwaWtfcHl0aG9uJywgJy1waHQnLCAnMi4wJywgJy1waCcsICc3LjAnLCAnLXRuJywgJzgnLCAnLW1hJywgJzIwMCcsICctaW1hZScsICc8aW5maWxlLm1hZT4nLCAnLW9tYWUnLCAnPG91dGZpbGUubWFlPic=

>  <r_lp_tautomer_probability>  (2) 
1

>  <r_epik_Ionization_Penalty>  (2) 
6.51852e-07

>  <r_epik_Ionization_Penalty_Charging>  (2) 
0

>  <r_epik_Ionization_Penalty_Neutral>  (2) 
6.51852e-07

>  <r_epik_State_Penalty>  (2) 
-0

>  <r_epik_Charging_Adjusted_Penalty>  (2) 
0

>  <i_epik_Tot_Q>  (2) 
0

>  <i_epik_Tot_abs_Q>  (2) 
0

>  <s_lp_Force_Field>  (2) 
OPLS3e

>  <r_lp_Energy>  (2) 
14.845

>  <b_lp_Chiralities_Consistent>  (2) 
1

>  <s_lp_Variant>  (2) 
0:0-1

>  <s_i_glide_gridfile>  (2) 
pfpi4k_grid

>  <i_i_glide_lignum>  (2) 
1

>  <i_i_glide_rotatable_bonds>  (2) 
1

>  <r_i_docking_score>  (2) 
-3.51129

>  <r_i_glide_ligand_efficiency>  (2) 
-0.184805

>  <r_i_glide_ligand_efficiency_sa>  (2) 
-0.493133

>  <r_i_glide_ligand_efficiency_ln>  (2) 
-0.890186

>  <r_i_glide_gscore>  (2) 
-3.51129

>  <r_i_glide_lipo>  (2) 
-0.778366

>  <r_i_glide_hbond>  (2) 
0

>  <r_i_glide_metal>  (2) 
-0

>  <r_i_glide_rewards>  (2) 
-1.60634

>  <r_i_glide_evdw>  (2) 
-19.1698

>  <r_i_glide_ecoul>  (2) 
-1.12059

>  <r_i_glide_erotb>  (2) 
0

>  <r_i_glide_esite>  (2) 
0

>  <r_i_glide_emodel>  (2) 
-25.3254

>  <r_i_glide_energy>  (2) 
-20.2903

>  <r_i_glide_einternal>  (2) 
0.363275

>  <r_i_glide_intrahb_reward>  (2) 
-0

>  <i_i_glide_confnum>  (2) 
1

>  <i_i_glide_posenum>  (2) 
12

>  <r_i_glide_eff_state_penalty>  (2) 
0

>  <ligand_id>  (2) 
0

>  <original_smiles>  (2) 
CC1CC2OC(C)(C)C=C2C2CC(C)(C)CC(O)C12

>  <smiles>  (2) 
[H]OC1([H])C([H])([H])C(C([H])([H])[H])(C([H])([H])[H])C([H])([H])C2([H])C3=C([H])C(C([H])([H])[H])(C([H])([H])[H])OC3([H])C([H])([H])C([H])(C([H])([H])[H])C12[H]

$$$$
0:0:2
     RDKit          3D

 47 49  0  0  1  0  0  0  0  0999 V2000
    5.4808   -5.6947    1.4510 C   0  0  0  0  0  0  0  0  0  0  0  0
    5.8329   -4.2577    1.8783 C   0  0  2  0  0  0  0  0  0  0  0  0
    5.1609   -3.8841    3.2192 C   0  0  0  0  0  0  0  0  0  0  0  0
    3.6438   -3.7210    3.0736 C   0  0  1  0  0  0  0  0  0  0  0  0
    3.0658   -3.1437    4.2486 O   0  0  0  0  0  0  0  0  0  0  0  0
    2.1573   -2.1096    3.8508 C   0  0  0  0  0  0  0  0  0  0  0  0
    0.7376   -2.6634    4.0293 C   0  0  0  0  0  0  0  0  0  0  0  0
    2.4126   -0.8925    4.7464 C   0  0  0  0  0  0  0  0  0  0  0  0
    2.4837   -1.8414    2.4008 C   0  0  0  0  0  0  0  0  0  0  0  0
    3.3364   -2.7595    1.9655 C   0  0  0  0  0  0  0  0  0  0  0  0
    4.0145   -2.9482    0.6166 C   0  0  1  0  0  0  0  0  0  0  0  0
    3.7557   -1.8078   -0.3901 C   0  0  0  0  0  0  0  0  0  0  0  0
    4.4203   -2.0485   -1.7731 C   0  0  0  0  0  0  0  0  0  0  0  0
    3.7820   -3.2404   -2.5107 C   0  0  0  0  0  0  0  0  0  0  0  0
    4.2097   -0.8033   -2.6568 C   0  0  0  0  0  0  0  0  0  0  0  0
    5.9295   -2.2870   -1.5491 C   0  0  0  0  0  0  0  0  0  0  0  0
    6.2277   -3.4225   -0.5537 C   0  0  1  0  0  0  0  0  0  0  0  0
    7.6323   -3.5132   -0.3933 O   0  0  0  0  0  0  0  0  0  0  0  0
    5.5366   -3.1709    0.8063 C   0  0  2  0  0  0  0  0  0  0  0  0
    4.4291   -5.8056    1.1840 H   0  0  0  0  0  0  0  0  0  0  0  0
    5.6916   -6.3912    2.2626 H   0  0  0  0  0  0  0  0  0  0  0  0
    6.0776   -6.0150    0.5982 H   0  0  0  0  0  0  0  0  0  0  0  0
    6.9082   -4.2549    2.0610 H   0  0  0  0  0  0  0  0  0  0  0  0
    5.3885   -4.6229    3.9903 H   0  0  0  0  0  0  0  0  0  0  0  0
    5.5809   -2.9380    3.5707 H   0  0  0  0  0  0  0  0  0  0  0  0
    3.1594   -4.6737    2.8525 H   0  0  0  0  0  0  0  0  0  0  0  0
   -0.0193   -1.9321    3.7374 H   0  0  0  0  0  0  0  0  0  0  0  0
    0.5542   -2.9514    5.0672 H   0  0  0  0  0  0  0  0  0  0  0  0
    0.6052   -3.5549    3.4134 H   0  0  0  0  0  0  0  0  0  0  0  0
    1.7402   -0.0658    4.5061 H   0  0  0  0  0  0  0  0  0  0  0  0
    3.4384   -0.5355    4.6432 H   0  0  0  0  0  0  0  0  0  0  0  0
    2.2599   -1.1488    5.7966 H   0  0  0  0  0  0  0  0  0  0  0  0
    2.0769   -1.0183    1.8271 H   0  0  0  0  0  0  0  0  0  0  0  0
    3.5740   -3.8583    0.2149 H   0  0  0  0  0  0  0  0  0  0  0  0
    2.6813   -1.6885   -0.5191 H   0  0  0  0  0  0  0  0  0  0  0  0
    4.1228   -0.8692    0.0324 H   0  0  0  0  0  0  0  0  0  0  0  0
    4.2238   -3.3875   -3.4996 H   0  0  0  0  0  0  0  0  0  0  0  0
    2.7065   -3.1000   -2.6420 H   0  0  0  0  0  0  0  0  0  0  0  0
    3.9165   -4.1710   -1.9618 H   0  0  0  0  0  0  0  0  0  0  0  0
    4.6627   -0.9226   -3.6430 H   0  0  0  0  0  0  0  0  0  0  0  0
    4.6325    0.0909   -2.1978 H   0  0  0  0  0  0  0  0  0  0  0  0
    3.1460   -0.6128   -2.8134 H   0  0  0  0  0  0  0  0  0  0  0  0
    6.4237   -2.4907   -2.4998 H   0  0  0  0  0  0  0  0  0  0  0  0
    6.3563   -1.3702   -1.1557 H   0  0  0  0  0  0  0  0  0  0  0  0
    5.8828   -4.3625   -0.9802 H   0  0  0  0  0  0  0  0  0  0  0  0
    7.9410   -2.7595    0.0828 H   0  0  0  0  0  0  0  0  0  0  0  0
    5.9460   -2.2384    1.1968 H   0  0  0  0  0  0  0  0  0  0  0  0
  1  2  1  0
  1 20  1  0
  1 21  1  0
  1 22  1  0
  2 19  1  0
  2  3  1  0
  2 23  1  1
  3  4  1  0
  3 24  1  0
  3 25  1  0
  4 10  1  0
  4  5  1  0
  4 26  1  6
  5  6  1  0
  6  7  1  0
  6  8  1  0
  6  9  1  0
  7 27  1  0
  7 28  1  0
  7 29  1  0
  8 30  1  0
  8 31  1  0
  8 32  1  0
  9 10  2  0
  9 33  1  0
 10 11  1  0
 11 19  1  0
 11 12  1  0
 11 34  1  6
 12 13  1  0
 12 35  1  0
 12 36  1  0
 13 14  1  0
 13 15  1  0
 13 16  1  0
 14 37  1  0
 14 38  1  0
 14 39  1  0
 15 40  1  0
 15 41  1  0
 15 42  1  0
 16 17  1  0
 16 43  1  0
 16 44  1  0
 17 18  1  0
 17 19  1  0
 17 45  1  6
 18 46  1  0
 19 47  1  1
M  END
>  <i_m_ct_stereo_status>  (3) 
1

>  <s_m_source_file>  (3) 
/var/tmp/pbs.5076255.sched01/tmpcm5es6vs/0d3z1so5d.sdf

>  <i_m_source_file_index>  (3) 
1

>  <i_lp_mmshare_version>  (3) 
48012

>  <i_f3d_flags>  (3) 
0

>  <s_epik_input>  (3) 
W0NIMl0xQyhbQ0gzXSkoW0NIM10pW0NIMl1bQ0BASF0oW09IXSlbQ0BIXShbQ0BIXShbQ0gzXSlbQ0gyXTIpW0NASF0xQyhbQ0BASF0yMyk9W0NIXUMoTzMpKFtDSDNdKVtDSDNd

>  <s_epik_cmdline>  (3) 
J2VwaWtfcHl0aG9uJywgJy1waHQnLCAnMi4wJywgJy1waCcsICc3LjAnLCAnLXRuJywgJzgnLCAnLW1hJywgJzIwMCcsICctaW1hZScsICc8aW5maWxlLm1hZT4nLCAnLW9tYWUnLCAnPG91dGZpbGUubWFlPic=

>  <r_lp_tautomer_probability>  (3) 
1

>  <r_epik_Ionization_Penalty>  (3) 
6.51852e-07

>  <r_epik_Ionization_Penalty_Charging>  (3) 
0

>  <r_epik_Ionization_Penalty_Neutral>  (3) 
6.51852e-07

>  <r_epik_State_Penalty>  (3) 
-0

>  <r_epik_Charging_Adjusted_Penalty>  (3) 
0

>  <i_epik_Tot_Q>  (3) 
0

>  <i_epik_Tot_abs_Q>  (3) 
0

>  <s_lp_Force_Field>  (3) 
OPLS3e

>  <r_lp_Energy>  (3) 
14.845

>  <b_lp_Chiralities_Consistent>  (3) 
1

>  <s_lp_Variant>  (3) 
0:0-1

>  <s_i_glide_gridfile>  (3) 
pfpi4k_grid

>  <i_i_glide_lignum>  (3) 
1

>  <i_i_glide_rotatable_bonds>  (3) 
1

>  <r_i_docking_score>  (3) 
-3.1266

>  <r_i_glide_ligand_efficiency>  (3) 
-0.164558

>  <r_i_glide_ligand_efficiency_sa>  (3) 
-0.439106

>  <r_i_glide_ligand_efficiency_ln>  (3) 
-0.792659

>  <r_i_glide_gscore>  (3) 
-3.1266

>  <r_i_glide_lipo>  (3) 
-0.371298

>  <r_i_glide_hbond>  (3) 
0

>  <r_i_glide_metal>  (3) 
-0

>  <r_i_glide_rewards>  (3) 
-1.60634

>  <r_i_glide_evdw>  (3) 
-20.48

>  <r_i_glide_ecoul>  (3) 
-0.833029

>  <r_i_glide_erotb>  (3) 
0

>  <r_i_glide_esite>  (3) 
0

>  <r_i_glide_emodel>  (3) 
-26.0789

>  <r_i_glide_energy>  (3) 
-21.313

>  <r_i_glide_einternal>  (3) 
0.0563477

>  <r_i_glide_intrahb_reward>  (3) 
-0

>  <i_i_glide_confnum>  (3) 
2

>  <i_i_glide_posenum>  (3) 
11

>  <r_i_glide_eff_state_penalty>  (3) 
0

>  <ligand_id>  (3) 
0

>  <original_smiles>  (3) 
CC1CC2OC(C)(C)C=C2C2CC(C)(C)CC(O)C12

>  <smiles>  (3) 
[H]OC1([H])C([H])([H])C(C([H])([H])[H])(C([H])([H])[H])C([H])([H])C2([H])C3=C([H])C(C([H])([H])[H])(C([H])([H])[H])OC3([H])C([H])([H])C([H])(C([H])([H])[H])C12[H]

$$$$
2:0:0
     RDKit          3D

 22 23  0  0  1  0  0  0  0  0999 V2000
   -7.2821  -10.2128   -6.0666 C   0  0  0  0  0  0  0  0  0  0  0  0
   -6.1214   -9.7971   -6.6067 C   0  0  0  0  0  0  0  0  0  0  0  0
   -4.9728  -10.7471   -6.8582 C   0  0  0  0  0  0  0  0  0  0  0  0
   -5.8820   -8.3478   -7.0015 C   0  0  2  0  0  0  0  0  0  0  0  0
   -5.5478   -7.4654   -5.7679 C   0  0  0  0  0  0  0  0  0  0  0  0
   -6.6146   -6.4323   -5.7968 C   0  0  0  0  0  0  0  0  0  0  0  0
   -6.6730   -5.0315   -4.3999 Br  0  0  0  0  0  0  0  0  0  0  0  0
   -7.5078   -6.5129   -6.8236 C   0  0  0  0  0  0  0  0  0  0  0  0
   -7.0944   -7.6674   -7.6406 C   0  0  1  0  0  0  0  0  0  0  0  0
   -7.3932   -7.7943   -9.1318 C   0  0  0  0  0  0  0  0  0  0  0  0
   -8.1636   -8.4968   -8.1545 O   0  0  0  0  0  0  0  0  0  0  0  0
   -7.4532  -11.2411   -5.8035 H   0  0  0  0  0  0  0  0  0  0  0  0
   -8.0801   -9.5086   -5.8848 H   0  0  0  0  0  0  0  0  0  0  0  0
   -4.7335  -10.7657   -7.9204 H   0  0  0  0  0  0  0  0  0  0  0  0
   -5.2359  -11.7564   -6.5490 H   0  0  0  0  0  0  0  0  0  0  0  0
   -4.0836  -10.4366   -6.3089 H   0  0  0  0  0  0  0  0  0  0  0  0
   -5.0553   -8.2812   -7.7153 H   0  0  0  0  0  0  0  0  0  0  0  0
   -5.6012   -8.0229   -4.8191 H   0  0  0  0  0  0  0  0  0  0  0  0
   -4.5642   -6.9823   -5.8536 H   0  0  0  0  0  0  0  0  0  0  0  0
   -8.3368   -5.8960   -7.0172 H   0  0  0  0  0  0  0  0  0  0  0  0
   -7.9646   -7.0528   -9.6721 H   0  0  0  0  0  0  0  0  0  0  0  0
   -6.7174   -8.4203   -9.7078 H   0  0  0  0  0  0  0  0  0  0  0  0
  1  2  2  0
  1 12  1  0
  1 13  1  0
  2  3  1  0
  2  4  1  0
  3 14  1  0
  3 15  1  0
  3 16  1  0
  4  9  1  0
  4  5  1  0
  4 17  1  6
  5  6  1  0
  5 18  1  0
  5 19  1  0
  6  7  1  0
  6  8  2  0
  8  9  1  0
  8 20  1  0
  9 11  1  1
  9 10  1  0
 10 11  1  0
 10 21  1  0
 10 22  1  0
M  END
>  <i_m_ct_stereo_status>  (4) 
1

>  <s_m_source_file>  (4) 
/var/tmp/pbs.5076255.sched01/tmpcm5es6vs/0d3z1so5d.sdf

>  <i_m_source_file_index>  (4) 
4

>  <i_lp_mmshare_version>  (4) 
48012

>  <i_f3d_flags>  (4) 
0

>  <s_epik_input>  (4) 
TzFbQ0gyXVtDQF0xMltDQEhdKEMoPVtDSDJdKVtDSDNdKVtDSDJdQyhCcik9W0NIXTI=

>  <s_epik_cmdline>  (4) 
J2VwaWtfcHl0aG9uJywgJy1waHQnLCAnMi4wJywgJy1waCcsICc3LjAnLCAnLXRuJywgJzgnLCAnLW1hJywgJzIwMCcsICctaW1hZScsICc8aW5maWxlLm1hZT4nLCAnLW9tYWUnLCAnPG91dGZpbGUubWFlPic=

>  <r_lp_tautomer_probability>  (4) 
1

>  <r_epik_Ionization_Penalty>  (4) 
1.63922e-13

>  <r_epik_Ionization_Penalty_Charging>  (4) 
0

>  <r_epik_Ionization_Penalty_Neutral>  (4) 
1.63922e-13

>  <r_epik_State_Penalty>  (4) 
-0

>  <r_epik_Charging_Adjusted_Penalty>  (4) 
0

>  <i_epik_Tot_Q>  (4) 
0

>  <i_epik_Tot_abs_Q>  (4) 
0

>  <s_lp_Force_Field>  (4) 
OPLS3e

>  <r_lp_Energy>  (4) 
1.45935

>  <b_lp_Chiralities_Consistent>  (4) 
1

>  <s_lp_Variant>  (4) 
2:0-1

>  <s_i_glide_gridfile>  (4) 
pfpi4k_grid

>  <i_i_glide_lignum>  (4) 
4

>  <i_i_glide_rotatable_bonds>  (4) 
1

>  <r_i_docking_score>  (4) 
-5.30177

>  <r_i_glide_ligand_efficiency>  (4) 
-0.481979

>  <r_i_glide_ligand_efficiency_sa>  (4) 
-1.07191

>  <r_i_glide_ligand_efficiency_ln>  (4) 
-1.56031

>  <r_i_glide_gscore>  (4) 
-5.30177

>  <r_i_glide_lipo>  (4) 
-2.07121

>  <r_i_glide_hbond>  (4) 
0

>  <r_i_glide_metal>  (4) 
-0

>  <r_i_glide_rewards>  (4) 
-2.35448

>  <r_i_glide_evdw>  (4) 
-19.3708

>  <r_i_glide_ecoul>  (4) 
0.616353

>  <r_i_glide_erotb>  (4) 
0

>  <r_i_glide_esite>  (4) 
0

>  <r_i_glide_emodel>  (4) 
-23.4437

>  <r_i_glide_energy>  (4) 
-18.7545

>  <r_i_glide_einternal>  (4) 
2.38826

>  <r_i_glide_intrahb_reward>  (4) 
-0

>  <i_i_glide_confnum>  (4) 
2

>  <i_i_glide_posenum>  (4) 
30

>  <r_i_glide_eff_state_penalty>  (4) 
0

>  <ligand_id>  (4) 
2

>  <original_smiles>  (4) 
C=C(C)C1CC(Br)=CC12CO2

>  <smiles>  (4) 
[H]C([H])=C(C([H])([H])[H])C1([H])C([H])([H])C(Br)=C([H])C12OC2([H])[H]

$$$$
2:0:1
     RDKit          3D

 22 23  0  0  1  0  0  0  0  0999 V2000
   -6.6081   -8.6891   -8.8241 C   0  0  0  0  0  0  0  0  0  0  0  0
   -7.1143   -9.3960   -7.7937 C   0  0  0  0  0  0  0  0  0  0  0  0
   -8.0909  -10.5307   -7.9976 C   0  0  0  0  0  0  0  0  0  0  0  0
   -6.7391   -9.0990   -6.3514 C   0  0  2  0  0  0  0  0  0  0  0  0
   -6.9392   -7.6018   -6.0064 C   0  0  0  0  0  0  0  0  0  0  0  0
   -5.5817   -7.1614   -5.6064 C   0  0  0  0  0  0  0  0  0  0  0  0
   -5.3658   -5.2780   -5.0784 Br  0  0  0  0  0  0  0  0  0  0  0  0
   -4.6183   -8.1214   -5.6357 C   0  0  0  0  0  0  0  0  0  0  0  0
   -5.2750   -9.3779   -6.0560 C   0  0  1  0  0  0  0  0  0  0  0  0
   -4.7467  -10.7542   -5.7041 C   0  0  0  0  0  0  0  0  0  0  0  0
   -4.5893  -10.1944   -7.0135 O   0  0  0  0  0  0  0  0  0  0  0  0
   -6.8899   -8.8972   -9.8426 H   0  0  0  0  0  0  0  0  0  0  0  0
   -5.9021   -7.8910   -8.6496 H   0  0  0  0  0  0  0  0  0  0  0  0
   -7.6738  -11.4600   -7.6087 H   0  0  0  0  0  0  0  0  0  0  0  0
   -8.3105  -10.6652   -9.0547 H   0  0  0  0  0  0  0  0  0  0  0  0
   -9.0242  -10.3240   -7.4735 H   0  0  0  0  0  0  0  0  0  0  0  0
   -7.3310   -9.7032   -5.6606 H   0  0  0  0  0  0  0  0  0  0  0  0
   -7.2680   -6.9911   -6.8449 H   0  0  0  0  0  0  0  0  0  0  0  0
   -7.5906   -7.4460   -5.1563 H   0  0  0  0  0  0  0  0  0  0  0  0
   -3.5853   -8.0181   -5.3917 H   0  0  0  0  0  0  0  0  0  0  0  0
   -3.8204  -10.8742   -5.1512 H   0  0  0  0  0  0  0  0  0  0  0  0
   -5.4606  -11.5670   -5.6677 H   0  0  0  0  0  0  0  0  0  0  0  0
  1  2  2  0
  1 12  1  0
  1 13  1  0
  2  3  1  0
  2  4  1  0
  3 14  1  0
  3 15  1  0
  3 16  1  0
  4  9  1  0
  4  5  1  0
  4 17  1  1
  5  6  1  0
  5 18  1  0
  5 19  1  0
  6  7  1  0
  6  8  2  0
  8  9  1  0
  8 20  1  0
  9 11  1  6
  9 10  1  0
 10 11  1  0
 10 21  1  0
 10 22  1  0
M  END
>  <i_m_ct_stereo_status>  (5) 
1

>  <s_m_source_file>  (5) 
/var/tmp/pbs.5076255.sched01/tmpcm5es6vs/0d3z1so5d.sdf

>  <i_m_source_file_index>  (5) 
4

>  <i_lp_mmshare_version>  (5) 
48012

>  <i_f3d_flags>  (5) 
0

>  <s_epik_input>  (5) 
TzFbQ0gyXVtDQF0xMltDQEhdKEMoPVtDSDJdKVtDSDNdKVtDSDJdQyhCcik9W0NIXTI=

>  <s_epik_cmdline>  (5) 
J2VwaWtfcHl0aG9uJywgJy1waHQnLCAnMi4wJywgJy1waCcsICc3LjAnLCAnLXRuJywgJzgnLCAnLW1hJywgJzIwMCcsICctaW1hZScsICc8aW5maWxlLm1hZT4nLCAnLW9tYWUnLCAnPG91dGZpbGUubWFlPic=

>  <r_lp_tautomer_probability>  (5) 
1

>  <r_epik_Ionization_Penalty>  (5) 
1.63922e-13

>  <r_epik_Ionization_Penalty_Charging>  (5) 
0

>  <r_epik_Ionization_Penalty_Neutral>  (5) 
1.63922e-13

>  <r_epik_State_Penalty>  (5) 
-0

>  <r_epik_Charging_Adjusted_Penalty>  (5) 
0

>  <i_epik_Tot_Q>  (5) 
0

>  <i_epik_Tot_abs_Q>  (5) 
0

>  <s_lp_Force_Field>  (5) 
OPLS3e

>  <r_lp_Energy>  (5) 
1.45935

>  <b_lp_Chiralities_Consistent>  (5) 
1

>  <s_lp_Variant>  (5) 
2:0-1

>  <s_i_glide_gridfile>  (5) 
pfpi4k_grid

>  <i_i_glide_lignum>  (5) 
4

>  <i_i_glide_rotatable_bonds>  (5) 
1

>  <r_i_docking_score>  (5) 
-4.91239

>  <r_i_glide_ligand_efficiency>  (5) 
-0.446581

>  <r_i_glide_ligand_efficiency_sa>  (5) 
-0.993187

>  <r_i_glide_ligand_efficiency_ln>  (5) 
-1.44572

>  <r_i_glide_gscore>  (5) 
-4.91239

>  <r_i_glide_lipo>  (5) 
-1.65018

>  <r_i_glide_hbond>  (5) 
0

>  <r_i_glide_metal>  (5) 
-0

>  <r_i_glide_rewards>  (5) 
-2.1902

>  <r_i_glide_evdw>  (5) 
-16.3237

>  <r_i_glide_ecoul>  (5) 
-1.70547

>  <r_i_glide_erotb>  (5) 
0

>  <r_i_glide_esite>  (5) 
0

>  <r_i_glide_emodel>  (5) 
-22.5164

>  <r_i_glide_energy>  (5) 
-18.0292

>  <r_i_glide_einternal>  (5) 
1.7133

>  <r_i_glide_intrahb_reward>  (5) 
-0

>  <i_i_glide_confnum>  (5) 
1

>  <i_i_glide_posenum>  (5) 
4

>  <r_i_glide_eff_state_penalty>  (5) 
0

>  <ligand_id>  (5) 
2

>  <original_smiles>  (5) 
C=C(C)C1CC(Br)=CC12CO2

>  <smiles>  (5) 
[H]C([H])=C(C([H])([H])[H])C1([H])C([H])([H])C(Br)=C([H])C12OC2([H])[H]

$$$$
2:0:2
     RDKit          3D

 22 23  0  0  1  0  0  0  0  0999 V2000
   -8.5263   -9.8373   -7.9069 C   0  0  0  0  0  0  0  0  0  0  0  0
   -7.5620   -8.9207   -7.7019 C   0  0  0  0  0  0  0  0  0  0  0  0
   -6.9808   -8.1033   -8.8459 C   0  0  0  0  0  0  0  0  0  0  0  0
   -7.0086   -8.6599   -6.3115 C   0  0  2  0  0  0  0  0  0  0  0  0
   -7.1542   -7.1681   -5.8871 C   0  0  0  0  0  0  0  0  0  0  0  0
   -5.7484   -6.7669   -5.6292 C   0  0  0  0  0  0  0  0  0  0  0  0
   -5.3731   -4.9104   -5.1239 Br  0  0  0  0  0  0  0  0  0  0  0  0
   -4.8112   -7.7562   -5.7934 C   0  0  0  0  0  0  0  0  0  0  0  0
   -5.5330   -8.9800   -6.1840 C   0  0  1  0  0  0  0  0  0  0  0  0
   -5.0062  -10.3741   -5.9150 C   0  0  0  0  0  0  0  0  0  0  0  0
   -4.9542   -9.7766   -7.2238 O   0  0  0  0  0  0  0  0  0  0  0  0
   -8.9130  -10.0159   -8.8951 H   0  0  0  0  0  0  0  0  0  0  0  0
   -8.9323  -10.4111   -7.0884 H   0  0  0  0  0  0  0  0  0  0  0  0
   -7.1523   -7.0393   -8.6982 H   0  0  0  0  0  0  0  0  0  0  0  0
   -7.4186   -8.3814   -9.8034 H   0  0  0  0  0  0  0  0  0  0  0  0
   -5.9029   -8.2481   -8.9138 H   0  0  0  0  0  0  0  0  0  0  0  0
   -7.5141   -9.2818   -5.5743 H   0  0  0  0  0  0  0  0  0  0  0  0
   -7.5732   -6.5236   -6.6485 H   0  0  0  0  0  0  0  0  0  0  0  0
   -7.7097   -7.0551   -4.9659 H   0  0  0  0  0  0  0  0  0  0  0  0
   -3.7523   -7.6710   -5.6667 H   0  0  0  0  0  0  0  0  0  0  0  0
   -4.0271  -10.5341   -5.4775 H   0  0  0  0  0  0  0  0  0  0  0  0
   -5.7294  -11.1748   -5.8396 H   0  0  0  0  0  0  0  0  0  0  0  0
  1  2  2  0
  1 12  1  0
  1 13  1  0
  2  3  1  0
  2  4  1  0
  3 14  1  0
  3 15  1  0
  3 16  1  0
  4  9  1  0
  4  5  1  0
  4 17  1  1
  5  6  1  0
  5 18  1  0
  5 19  1  0
  6  7  1  0
  6  8  2  0
  8  9  1  0
  8 20  1  0
  9 11  1  6
  9 10  1  0
 10 11  1  0
 10 21  1  0
 10 22  1  0
M  END
>  <i_m_ct_stereo_status>  (6) 
1

>  <s_m_source_file>  (6) 
/var/tmp/pbs.5076255.sched01/tmpcm5es6vs/0d3z1so5d.sdf

>  <i_m_source_file_index>  (6) 
4

>  <i_lp_mmshare_version>  (6) 
48012

>  <i_f3d_flags>  (6) 
0

>  <s_epik_input>  (6) 
TzFbQ0gyXVtDQF0xMltDQEhdKEMoPVtDSDJdKVtDSDNdKVtDSDJdQyhCcik9W0NIXTI=

>  <s_epik_cmdline>  (6) 
J2VwaWtfcHl0aG9uJywgJy1waHQnLCAnMi4wJywgJy1waCcsICc3LjAnLCAnLXRuJywgJzgnLCAnLW1hJywgJzIwMCcsICctaW1hZScsICc8aW5maWxlLm1hZT4nLCAnLW9tYWUnLCAnPG91dGZpbGUubWFlPic=

>  <r_lp_tautomer_probability>  (6) 
1

>  <r_epik_Ionization_Penalty>  (6) 
1.63922e-13

>  <r_epik_Ionization_Penalty_Charging>  (6) 
0

>  <r_epik_Ionization_Penalty_Neutral>  (6) 
1.63922e-13

>  <r_epik_State_Penalty>  (6) 
-0

>  <r_epik_Charging_Adjusted_Penalty>  (6) 
0

>  <i_epik_Tot_Q>  (6) 
0

>  <i_epik_Tot_abs_Q>  (6) 
0

>  <s_lp_Force_Field>  (6) 
OPLS3e

>  <r_lp_Energy>  (6) 
1.45935

>  <b_lp_Chiralities_Consistent>  (6) 
1

>  <s_lp_Variant>  (6) 
2:0-1

>  <s_i_glide_gridfile>  (6) 
pfpi4k_grid

>  <i_i_glide_lignum>  (6) 
4

>  <i_i_glide_rotatable_bonds>  (6) 
1

>  <r_i_docking_score>  (6) 
-4.74398

>  <r_i_glide_ligand_efficiency>  (6) 
-0.431271

>  <r_i_glide_ligand_efficiency_sa>  (6) 
-0.959137

>  <r_i_glide_ligand_efficiency_ln>  (6) 
-1.39615

>  <r_i_glide_gscore>  (6) 
-4.74398

>  <r_i_glide_lipo>  (6) 
-1.80675

>  <r_i_glide_hbond>  (6) 
0

>  <r_i_glide_metal>  (6) 
-0

>  <r_i_glide_rewards>  (6) 
-1.94259

>  <r_i_glide_evdw>  (6) 
-16.4608

>  <r_i_glide_ecoul>  (6) 
-1.14401

>  <r_i_glide_erotb>  (6) 
0

>  <r_i_glide_esite>  (6) 
0

>  <r_i_glide_emodel>  (6) 
-22.8425

>  <r_i_glide_energy>  (6) 
-17.6048

>  <r_i_glide_einternal>  (6) 
0.00556813

>  <r_i_glide_intrahb_reward>  (6) 
-0

>  <i_i_glide_confnum>  (6) 
1

>  <i_i_glide_posenum>  (6) 
38

>  <r_i_glide_eff_state_penalty>  (6) 
0

>  <ligand_id>  (6) 
2

>  <original_smiles>  (6) 
C=C(C)C1CC(Br)=CC12CO2

>  <smiles>  (6) 
[H]C([H])=C(C([H])([H])[H])C1([H])C([H])([H])C(Br)=C([H])C12OC2([H])[H]

$$$$
3:0:0
     RDKit          3D

 53 56  0  0  1  0  0  0  0  0999 V2000
    3.8553   -2.2117   -2.9926 C   0  0  0  0  0  0  0  0  0  0  0  0
    3.9181   -3.2877   -1.8703 C   0  0  2  0  0  0  0  0  0  0  0  0
    2.7310   -3.1571   -0.9188 C   0  0  0  0  0  0  0  0  0  0  0  0
    3.0370   -2.5923    0.5183 C   0  0  0  0  0  0  0  0  0  0  0  0
    4.3189   -3.1594    1.2459 C   0  0  1  0  0  0  0  0  0  0  0  0
    4.0754   -3.6086    2.7185 C   0  0  1  0  0  0  0  0  0  0  0  0
    3.3593   -2.4848    3.5056 C   0  0  0  0  0  0  0  0  0  0  0  0
    3.4537   -5.0303    2.9076 C   0  0  1  0  0  0  0  0  0  0  0  0
    2.7143   -5.2003    4.2484 C   0  0  0  0  0  0  0  0  0  0  0  0
    2.5973   -5.5265    1.7280 C   0  0  0  0  0  0  0  0  0  0  0  0
    1.3959   -5.7475    1.8908 O   0  0  0  0  0  0  0  0  0  0  0  0
    3.1870   -5.6886    0.4989 O   0  0  0  0  0  0  0  0  0  0  0  0
    4.5746   -5.5620    0.2931 C   0  0  2  0  0  0  0  0  0  0  0  0
    5.3532   -6.3057    1.2255 O   0  0  0  0  0  0  0  0  0  0  0  0
    6.4756   -5.5605    1.6435 C   0  0  1  0  0  0  0  0  0  0  0  0
    7.6204   -6.4074    1.6908 O   0  0  0  0  0  0  0  0  0  0  0  0
    6.5809   -4.5135    0.5394 C   0  0  2  0  0  0  0  0  0  0  0  0
    7.6175   -3.3826    0.5208 C   0  0  1  0  0  0  0  0  0  0  0  0
    8.9970   -3.7968    0.9966 C   0  0  0  0  0  0  0  0  0  0  0  0
    7.7179   -2.9438   -0.9614 C   0  0  0  0  0  0  0  0  0  0  0  0
    6.4806   -3.2272   -1.8607 C   0  0  0  0  0  0  0  0  0  0  0  0
    5.1838   -3.2279   -1.0466 C   0  0  2  0  0  0  0  0  0  0  0  0
    5.1410   -4.0852    0.2888 C   0  0  2  0  0  0  0  0  0  0  0  0
    4.0579   -1.2005   -2.6345 H   0  0  0  0  0  0  0  0  0  0  0  0
    2.8810   -2.1875   -3.4780 H   0  0  0  0  0  0  0  0  0  0  0  0
    4.5640   -2.4362   -3.7848 H   0  0  0  0  0  0  0  0  0  0  0  0
    3.8671   -4.2570   -2.3627 H   0  0  0  0  0  0  0  0  0  0  0  0
    2.0948   -2.4779   -1.4520 H   0  0  0  0  0  0  0  0  0  0  0  0
    2.1552   -4.0790   -0.8721 H   0  0  0  0  0  0  0  0  0  0  0  0
    3.1432   -1.5063    0.4577 H   0  0  0  0  0  0  0  0  0  0  0  0
    2.1589   -2.7271    1.1491 H   0  0  0  0  0  0  0  0  0  0  0  0
    4.9599   -2.2818    1.3841 H   0  0  0  0  0  0  0  0  0  0  0  0
    5.0559   -3.6406    3.1898 H   0  0  0  0  0  0  0  0  0  0  0  0
    2.2910   -2.4206    3.2887 H   0  0  0  0  0  0  0  0  0  0  0  0
    3.8016   -1.5123    3.2762 H   0  0  0  0  0  0  0  0  0  0  0  0
    3.4646   -2.6225    4.5826 H   0  0  0  0  0  0  0  0  0  0  0  0
    4.2653   -5.7392    3.0065 H   0  0  0  0  0  0  0  0  0  0  0  0
    2.4384   -6.2456    4.4018 H   0  0  0  0  0  0  0  0  0  0  0  0
    1.7987   -4.6040    4.2830 H   0  0  0  0  0  0  0  0  0  0  0  0
    3.3537   -4.9018    5.0800 H   0  0  0  0  0  0  0  0  0  0  0  0
    4.7611   -6.0001   -0.6858 H   0  0  0  0  0  0  0  0  0  0  0  0
    6.3724   -5.1502    2.6453 H   0  0  0  0  0  0  0  0  0  0  0  0
    7.5254   -7.0237    2.3769 H   0  0  0  0  0  0  0  0  0  0  0  0
    6.9001   -5.1481   -0.2683 H   0  0  0  0  0  0  0  0  0  0  0  0
    7.2393   -2.5516    1.1195 H   0  0  0  0  0  0  0  0  0  0  0  0
    9.3947   -4.5928    0.3595 H   0  0  0  0  0  0  0  0  0  0  0  0
    8.9924   -4.1461    2.0401 H   0  0  0  0  0  0  0  0  0  0  0  0
    9.6512   -2.9225    0.9352 H   0  0  0  0  0  0  0  0  0  0  0  0
    7.8957   -1.8804   -0.9298 H   0  0  0  0  0  0  0  0  0  0  0  0
    8.6208   -3.3641   -1.4140 H   0  0  0  0  0  0  0  0  0  0  0  0
    6.4585   -2.4712   -2.6478 H   0  0  0  0  0  0  0  0  0  0  0  0
    6.4621   -4.1710   -2.4051 H   0  0  0  0  0  0  0  0  0  0  0  0
    5.2259   -2.1846   -0.7153 H   0  0  0  0  0  0  0  0  0  0  0  0
  1  2  1  0
  1 24  1  0
  1 25  1  0
  1 26  1  0
  2 22  1  0
  2  3  1  0
  2 27  1  6
  3  4  1  0
  3 28  1  0
  3 29  1  0
  4  5  1  0
  4 30  1  0
  4 31  1  0
  5 23  1  0
  5  6  1  0
  5 32  1  1
  6  7  1  0
  6  8  1  0
  6 33  1  1
  7 34  1  0
  7 35  1  0
  7 36  1  0
  8  9  1  0
  8 10  1  0
  8 37  1  1
  9 38  1  0
  9 39  1  0
  9 40  1  0
 10 11  2  0
 10 12  1  0
 12 13  1  0
 23 13  1  6
 13 14  1  0
 13 41  1  6
 14 15  1  0
 15 16  1  0
 15 17  1  0
 15 42  1  1
 16 43  1  0
 17 23  1  0
 17 18  1  0
 17 44  1  6
 18 19  1  0
 18 20  1  0
 18 45  1  1
 19 46  1  0
 19 47  1  0
 19 48  1  0
 20 21  1  0
 20 49  1  0
 20 50  1  0
 21 22  1  0
 21 51  1  0
 21 52  1  0
 22 23  1  0
 22 53  1  1
M  END
>  <i_m_ct_stereo_status>  (7) 
1

>  <s_m_source_file>  (7) 
/var/tmp/pbs.5076255.sched01/tmpcm5es6vs/0d3z1so5d.sdf

>  <i_m_source_file_index>  (7) 
5

>  <i_lp_mmshare_version>  (7) 
48012

>  <i_f3d_flags>  (7) 
0

>  <s_epik_input>  (7) 
W0NAQF0xMjNbQ0BIXTRbQ0gyXVtDSDJdW0NAQEhdKFtDSDNdKVtDQEBIXTNbQ0gyXVtDSDJdW0NASF0oW0NIM10pW0NASF0yW0NASF0oW09IXSlPW0NASF0xT0MoPU8pW0NASF0oW0NIM10pW0NAQEhdNFtDSDNd

>  <s_epik_cmdline>  (7) 
J2VwaWtfcHl0aG9uJywgJy1waHQnLCAnMi4wJywgJy1waCcsICc3LjAnLCAnLXRuJywgJzgnLCAnLW1hJywgJzIwMCcsICctaW1hZScsICc8aW5maWxlLm1hZT4nLCAnLW9tYWUnLCAnPG91dGZpbGUubWFlPic=

>  <r_lp_tautomer_probability>  (7) 
1

>  <r_epik_Ionization_Penalty>  (7) 
2.74705e-07

>  <r_epik_Ionization_Penalty_Charging>  (7) 
0

>  <r_epik_Ionization_Penalty_Neutral>  (7) 
2.74705e-07

>  <r_epik_State_Penalty>  (7) 
-0

>  <r_epik_Charging_Adjusted_Penalty>  (7) 
0

>  <i_epik_Tot_Q>  (7) 
0

>  <i_epik_Tot_abs_Q>  (7) 
0

>  <s_epik_Chemistry_Notes>  (7) 
This compound has an ester and may undergo hydrolysis at high or low pH. This compound contains an acetal/aminal-like group ( X-CH(R)-Y where X, Y are N, S, or O) that may be acid/base labile, releasing an aldehyde.

>  <s_lp_Force_Field>  (7) 
OPLS3e

>  <r_lp_Energy>  (7) 
80.8348

>  <b_lp_Chiralities_Consistent>  (7) 
1

>  <s_lp_Variant>  (7) 
3:0-1

>  <s_i_glide_gridfile>  (7) 
pfpi4k_grid

>  <i_i_glide_lignum>  (7) 
5

>  <i_i_glide_rotatable_bonds>  (7) 
1

>  <r_i_docking_score>  (7) 
-3.39143

>  <r_i_glide_ligand_efficiency>  (7) 
-0.147454

>  <r_i_glide_ligand_efficiency_sa>  (7) 
-0.419339

>  <r_i_glide_ligand_efficiency_ln>  (7) 
-0.82008

>  <r_i_glide_gscore>  (7) 
-3.39143

>  <r_i_glide_lipo>  (7) 
-0.616776

>  <r_i_glide_hbond>  (7) 
-0.0720398

>  <r_i_glide_metal>  (7) 
-0

>  <r_i_glide_rewards>  (7) 
-1.40353

>  <r_i_glide_evdw>  (7) 
-20.7662

>  <r_i_glide_ecoul>  (7) 
-1.6402

>  <r_i_glide_erotb>  (7) 
0

>  <r_i_glide_esite>  (7) 
-0.0147445

>  <r_i_glide_emodel>  (7) 
-26.399

>  <r_i_glide_energy>  (7) 
-22.4064

>  <r_i_glide_einternal>  (7) 
0.223167

>  <r_i_glide_intrahb_reward>  (7) 
-0

>  <i_i_glide_confnum>  (7) 
1

>  <i_i_glide_posenum>  (7) 
7

>  <r_i_glide_eff_state_penalty>  (7) 
0

>  <ligand_id>  (7) 
3

>  <original_smiles>  (7) 
CC1CCC2C(C)C(C)C(=O)OC3OC(O)C4C(C)CCC1C324

>  <smiles>  (7) 
[H]OC1([H])OC2([H])OC(=O)C([H])(C([H])([H])[H])C([H])(C([H])([H])[H])C3([H])C([H])([H])C([H])([H])C([H])(C([H])([H])[H])C4([H])C([H])([H])C([H])([H])C([H])(C([H])([H])[H])C1([H])C243

$$$$
3:0:1
     RDKit          3D

 53 56  0  0  1  0  0  0  0  0999 V2000
    1.8870   -6.7113    2.2070 C   0  0  0  0  0  0  0  0  0  0  0  0
    2.5756   -5.5404    1.4790 C   0  0  2  0  0  0  0  0  0  0  0  0
    3.7043   -6.0479    0.5570 C   0  0  0  0  0  0  0  0  0  0  0  0
    5.1668   -5.6916    0.9334 C   0  0  0  0  0  0  0  0  0  0  0  0
    5.4419   -4.2613    1.5243 C   0  0  1  0  0  0  0  0  0  0  0  0
    6.6825   -3.5744    0.8783 C   0  0  1  0  0  0  0  0  0  0  0  0
    7.8984   -4.5395    0.8682 C   0  0  0  0  0  0  0  0  0  0  0  0
    6.4349   -2.8296   -0.4734 C   0  0  1  0  0  0  0  0  0  0  0  0
    7.7110   -2.6738   -1.3307 C   0  0  0  0  0  0  0  0  0  0  0  0
    5.2474   -3.3645   -1.3082 C   0  0  0  0  0  0  0  0  0  0  0  0
    5.4372   -3.7955   -2.4465 O   0  0  0  0  0  0  0  0  0  0  0  0
    3.9842   -3.3594   -0.7701 O   0  0  0  0  0  0  0  0  0  0  0  0
    3.6681   -2.6997    0.4400 C   0  0  2  0  0  0  0  0  0  0  0  0
    4.1911   -1.3893    0.5248 O   0  0  0  0  0  0  0  0  0  0  0  0
    4.6934   -1.1335    1.8083 C   0  0  1  0  0  0  0  0  0  0  0  0
    4.3168    0.1441    2.2554 O   0  0  0  0  0  0  0  0  0  0  0  0
    4.0326   -2.2001    2.6359 C   0  0  2  0  0  0  0  0  0  0  0  0
    4.3555   -2.4337    4.1199 C   0  0  1  0  0  0  0  0  0  0  0  0
    4.6236   -1.1864    4.9839 C   0  0  0  0  0  0  0  0  0  0  0  0
    3.1282   -3.2159    4.6810 C   0  0  0  0  0  0  0  0  0  0  0  0
    2.2689   -3.9650    3.6066 C   0  0  0  0  0  0  0  0  0  0  0  0
    3.1468   -4.4884    2.4391 C   0  0  2  0  0  0  0  0  0  0  0  0
    4.1095   -3.4472    1.7477 C   0  0  2  0  0  0  0  0  0  0  0  0
    2.5547   -7.1936    2.9258 H   0  0  0  0  0  0  0  0  0  0  0  0
    1.5499   -7.4761    1.5048 H   0  0  0  0  0  0  0  0  0  0  0  0
    1.0033   -6.3792    2.7486 H   0  0  0  0  0  0  0  0  0  0  0  0
    1.8221   -5.0626    0.8520 H   0  0  0  0  0  0  0  0  0  0  0  0
    3.6623   -7.1311    0.4709 H   0  0  0  0  0  0  0  0  0  0  0  0
    3.4947   -5.6794   -0.4428 H   0  0  0  0  0  0  0  0  0  0  0  0
    5.5346   -6.4356    1.6409 H   0  0  0  0  0  0  0  0  0  0  0  0
    5.7579   -5.8521    0.0313 H   0  0  0  0  0  0  0  0  0  0  0  0
    5.7980   -4.4722    2.5329 H   0  0  0  0  0  0  0  0  0  0  0  0
    6.9974   -2.8128    1.5871 H   0  0  0  0  0  0  0  0  0  0  0  0
    7.8445   -5.2911    0.0802 H   0  0  0  0  0  0  0  0  0  0  0  0
    7.9850   -5.0767    1.8131 H   0  0  0  0  0  0  0  0  0  0  0  0
    8.8387   -4.0040    0.7350 H   0  0  0  0  0  0  0  0  0  0  0  0
    6.1901   -1.8010   -0.2365 H   0  0  0  0  0  0  0  0  0  0  0  0
    7.5183   -2.0364   -2.1926 H   0  0  0  0  0  0  0  0  0  0  0  0
    8.0662   -3.6245   -1.7296 H   0  0  0  0  0  0  0  0  0  0  0  0
    8.5267   -2.2299   -0.7562 H   0  0  0  0  0  0  0  0  0  0  0  0
    2.5791   -2.5783    0.4399 H   0  0  0  0  0  0  0  0  0  0  0  0
    5.7748   -1.1739    1.8431 H   0  0  0  0  0  0  0  0  0  0  0  0
    3.3727    0.2084    2.2372 H   0  0  0  0  0  0  0  0  0  0  0  0
    2.9969   -1.8458    2.6301 H   0  0  0  0  0  0  0  0  0  0  0  0
    5.2386   -3.0661    4.1868 H   0  0  0  0  0  0  0  0  0  0  0  0
    3.7741   -0.5048    5.0002 H   0  0  0  0  0  0  0  0  0  0  0  0
    5.4974   -0.6313    4.6408 H   0  0  0  0  0  0  0  0  0  0  0  0
    4.8151   -1.4867    6.0127 H   0  0  0  0  0  0  0  0  0  0  0  0
    3.4838   -3.9339    5.4164 H   0  0  0  0  0  0  0  0  0  0  0  0
    2.4741   -2.5369    5.2279 H   0  0  0  0  0  0  0  0  0  0  0  0
    1.7589   -4.7900    4.1062 H   0  0  0  0  0  0  0  0  0  0  0  0
    1.4807   -3.3161    3.2117 H   0  0  0  0  0  0  0  0  0  0  0  0
    3.8111   -5.1015    3.0493 H   0  0  0  0  0  0  0  0  0  0  0  0
  1  2  1  0
  1 24  1  0
  1 25  1  0
  1 26  1  0
  2 22  1  0
  2  3  1  0
  2 27  1  6
  3  4  1  0
  3 28  1  0
  3 29  1  0
  4  5  1  0
  4 30  1  0
  4 31  1  0
  5 23  1  0
  5  6  1  0
  5 32  1  1
  6  7  1  0
  6  8  1  0
  6 33  1  1
  7 34  1  0
  7 35  1  0
  7 36  1  0
  8  9  1  0
  8 10  1  0
  8 37  1  1
  9 38  1  0
  9 39  1  0
  9 40  1  0
 10 11  2  0
 10 12  1  0
 12 13  1  0
 23 13  1  6
 13 14  1  0
 13 41  1  1
 14 15  1  0
 15 16  1  0
 15 17  1  0
 15 42  1  6
 16 43  1  0
 17 23  1  0
 17 18  1  0
 17 44  1  1
 18 19  1  0
 18 20  1  0
 18 45  1  6
 19 46  1  0
 19 47  1  0
 19 48  1  0
 20 21  1  0
 20 49  1  0
 20 50  1  0
 21 22  1  0
 21 51  1  0
 21 52  1  0
 22 23  1  0
 22 53  1  1
M  END
>  <i_m_ct_stereo_status>  (8) 
1

>  <s_m_source_file>  (8) 
/var/tmp/pbs.5076255.sched01/tmpcm5es6vs/0d3z1so5d.sdf

>  <i_m_source_file_index>  (8) 
5

>  <i_lp_mmshare_version>  (8) 
48012

>  <i_f3d_flags>  (8) 
0

>  <s_epik_input>  (8) 
W0NAQF0xMjNbQ0BIXTRbQ0gyXVtDSDJdW0NAQEhdKFtDSDNdKVtDQEBIXTNbQ0gyXVtDSDJdW0NASF0oW0NIM10pW0NASF0yW0NASF0oW09IXSlPW0NASF0xT0MoPU8pW0NASF0oW0NIM10pW0NAQEhdNFtDSDNd

>  <s_epik_cmdline>  (8) 
J2VwaWtfcHl0aG9uJywgJy1waHQnLCAnMi4wJywgJy1waCcsICc3LjAnLCAnLXRuJywgJzgnLCAnLW1hJywgJzIwMCcsICctaW1hZScsICc8aW5maWxlLm1hZT4nLCAnLW9tYWUnLCAnPG91dGZpbGUubWFlPic=

>  <r_lp_tautomer_probability>  (8) 
1

>  <r_epik_Ionization_Penalty>  (8) 
2.74705e-07

>  <r_epik_Ionization_Penalty_Charging>  (8) 
0

>  <r_epik_Ionization_Penalty_Neutral>  (8) 
2.74705e-07

>  <r_epik_State_Penalty>  (8) 
-0

>  <r_epik_Charging_Adjusted_Penalty>  (8) 
0

>  <i_epik_Tot_Q>  (8) 
0

>  <i_epik_Tot_abs_Q>  (8) 
0

>  <s_epik_Chemistry_Notes>  (8) 
This compound has an ester and may undergo hydrolysis at high or low pH. This compound contains an acetal/aminal-like group ( X-CH(R)-Y where X, Y are N, S, or O) that may be acid/base labile, releasing an aldehyde.

>  <s_lp_Force_Field>  (8) 
OPLS3e

>  <r_lp_Energy>  (8) 
80.8348

>  <b_lp_Chiralities_Consistent>  (8) 
1

>  <s_lp_Variant>  (8) 
3:0-1

>  <s_i_glide_gridfile>  (8) 
pfpi4k_grid

>  <i_i_glide_lignum>  (8) 
5

>  <i_i_glide_rotatable_bonds>  (8) 
1

>  <r_i_docking_score>  (8) 
-3.13991

>  <r_i_glide_ligand_efficiency>  (8) 
-0.136518

>  <r_i_glide_ligand_efficiency_sa>  (8) 
-0.388239

>  <r_i_glide_ligand_efficiency_ln>  (8) 
-0.75926

>  <r_i_glide_gscore>  (8) 
-3.13991

>  <r_i_glide_lipo>  (8) 
-0.465174

>  <r_i_glide_hbond>  (8) 
0

>  <r_i_glide_metal>  (8) 
-0

>  <r_i_glide_rewards>  (8) 
-1.42512

>  <r_i_glide_evdw>  (8) 
-24.4783

>  <r_i_glide_ecoul>  (8) 
-0.0540606

>  <r_i_glide_erotb>  (8) 
0

>  <r_i_glide_esite>  (8) 
-0.0175993

>  <r_i_glide_emodel>  (8) 
-28.7764

>  <r_i_glide_energy>  (8) 
-24.5324

>  <r_i_glide_einternal>  (8) 
0.0482242

>  <r_i_glide_intrahb_reward>  (8) 
-0

>  <i_i_glide_confnum>  (8) 
1

>  <i_i_glide_posenum>  (8) 
14

>  <r_i_glide_eff_state_penalty>  (8) 
0

>  <ligand_id>  (8) 
3

>  <original_smiles>  (8) 
CC1CCC2C(C)C(C)C(=O)OC3OC(O)C4C(C)CCC1C324

>  <smiles>  (8) 
[H]OC1([H])OC2([H])OC(=O)C([H])(C([H])([H])[H])C([H])(C([H])([H])[H])C3([H])C([H])([H])C([H])([H])C([H])(C([H])([H])[H])C4([H])C([H])([H])C([H])([H])C([H])(C([H])([H])[H])C1([H])C243

$$$$
3:0:2
     RDKit          3D

 53 56  0  0  1  0  0  0  0  0999 V2000
    1.6581   -6.6522    2.2567 C   0  0  0  0  0  0  0  0  0  0  0  0
    2.3289   -5.5130    1.4594 C   0  0  2  0  0  0  0  0  0  0  0  0
    3.5123   -6.0535    0.6343 C   0  0  0  0  0  0  0  0  0  0  0  0
    4.9390   -5.5927    1.0276 C   0  0  0  0  0  0  0  0  0  0  0  0
    5.1322   -4.1033    1.4943 C   0  0  1  0  0  0  0  0  0  0  0  0
    6.3666   -3.4137    0.8376 C   0  0  1  0  0  0  0  0  0  0  0  0
    7.6137   -4.3259    0.9448 C   0  0  0  0  0  0  0  0  0  0  0  0
    6.1459   -2.7962   -0.5803 C   0  0  1  0  0  0  0  0  0  0  0  0
    7.4453   -2.6649   -1.3992 C   0  0  0  0  0  0  0  0  0  0  0  0
    5.0143   -3.4305   -1.4183 C   0  0  0  0  0  0  0  0  0  0  0  0
    5.2698   -3.8815   -2.5339 O   0  0  0  0  0  0  0  0  0  0  0  0
    3.7409   -3.4731   -0.9134 O   0  0  0  0  0  0  0  0  0  0  0  0
    3.3484   -2.7154    0.2099 C   0  0  2  0  0  0  0  0  0  0  0  0
    3.8259   -1.3838    0.1856 O   0  0  0  0  0  0  0  0  0  0  0  0
    4.2364   -0.9711    1.4572 C   0  0  1  0  0  0  0  0  0  0  0  0
    3.7543    0.3183    1.7197 O   0  0  0  0  0  0  0  0  0  0  0  0
    3.5852   -2.0028    2.3562 C   0  0  2  0  0  0  0  0  0  0  0  0
    3.8504   -2.1048    3.8708 C   0  0  1  0  0  0  0  0  0  0  0  0
    4.0317   -0.7711    4.6161 C   0  0  0  0  0  0  0  0  0  0  0  0
    2.6396   -2.8942    4.4480 C   0  0  0  0  0  0  0  0  0  0  0  0
    1.8601   -3.7668    3.4096 C   0  0  0  0  0  0  0  0  0  0  0  0
    2.8132   -4.3488    2.3328 C   0  0  2  0  0  0  0  0  0  0  0  0
    3.7592   -3.3253    1.5876 C   0  0  2  0  0  0  0  0  0  0  0  0
    2.3089   -7.0415    3.0426 H   0  0  0  0  0  0  0  0  0  0  0  0
    1.3844   -7.4893    1.6111 H   0  0  0  0  0  0  0  0  0  0  0  0
    0.7357   -6.3164    2.7269 H   0  0  0  0  0  0  0  0  0  0  0  0
    1.5909   -5.1422    0.7487 H   0  0  0  0  0  0  0  0  0  0  0  0
    3.5240   -7.1462    0.6340 H   0  0  0  0  0  0  0  0  0  0  0  0
    3.3261   -5.7889   -0.3959 H   0  0  0  0  0  0  0  0  0  0  0  0
    5.2983   -6.2488    1.8220 H   0  0  0  0  0  0  0  0  0  0  0  0
    5.5813   -5.8132    0.1733 H   0  0  0  0  0  0  0  0  0  0  0  0
    5.4503   -4.2097    2.5331 H   0  0  0  0  0  0  0  0  0  0  0  0
    6.6184   -2.5798    1.4921 H   0  0  0  0  0  0  0  0  0  0  0  0
    7.6224   -5.1382    0.2164 H   0  0  0  0  0  0  0  0  0  0  0  0
    7.6818   -4.7759    1.9380 H   0  0  0  0  0  0  0  0  0  0  0  0
    8.5347   -3.7608    0.8053 H   0  0  0  0  0  0  0  0  0  0  0  0
    5.8537   -1.7641   -0.4455 H   0  0  0  0  0  0  0  0  0  0  0  0
    7.2561   -2.1245   -2.3239 H   0  0  0  0  0  0  0  0  0  0  0  0
    7.8443   -3.6404   -1.6894 H   0  0  0  0  0  0  0  0  0  0  0  0
    8.2159   -2.1468   -0.8324 H   0  0  0  0  0  0  0  0  0  0  0  0
    2.2575   -2.6264    0.1584 H   0  0  0  0  0  0  0  0  0  0  0  0
    5.3176   -0.9426    1.5733 H   0  0  0  0  0  0  0  0  0  0  0  0
    4.1817    0.9237    1.1321 H   0  0  0  0  0  0  0  0  0  0  0  0
    2.5328   -1.6940    2.2826 H   0  0  0  0  0  0  0  0  0  0  0  0
    4.7538   -2.6908    4.0240 H   0  0  0  0  0  0  0  0  0  0  0  0
    3.1434   -0.1480    4.5161 H   0  0  0  0  0  0  0  0  0  0  0  0
    4.8901   -0.2073    4.2493 H   0  0  0  0  0  0  0  0  0  0  0  0
    4.1830   -0.9673    5.6760 H   0  0  0  0  0  0  0  0  0  0  0  0
    2.9947   -3.5282    5.2554 H   0  0  0  0  0  0  0  0  0  0  0  0
    1.9465   -2.1936    4.9044 H   0  0  0  0  0  0  0  0  0  0  0  0
    1.3653   -4.5673    3.9606 H   0  0  0  0  0  0  0  0  0  0  0  0
    1.0629   -3.1923    2.9278 H   0  0  0  0  0  0  0  0  0  0  0  0
    3.4722   -4.8773    3.0261 H   0  0  0  0  0  0  0  0  0  0  0  0
  1  2  1  0
  1 24  1  0
  1 25  1  0
  1 26  1  0
  2 22  1  0
  2  3  1  0
  2 27  1  6
  3  4  1  0
  3 28  1  0
  3 29  1  0
  4  5  1  0
  4 30  1  0
  4 31  1  0
  5 23  1  0
  5  6  1  0
  5 32  1  1
  6  7  1  0
  6  8  1  0
  6 33  1  1
  7 34  1  0
  7 35  1  0
  7 36  1  0
  8  9  1  0
  8 10  1  0
  8 37  1  1
  9 38  1  0
  9 39  1  0
  9 40  1  0
 10 11  2  0
 10 12  1  0
 12 13  1  0
 23 13  1  6
 13 14  1  0
 13 41  1  1
 14 15  1  0
 15 16  1  0
 15 17  1  0
 15 42  1  6
 16 43  1  0
 17 23  1  0
 17 18  1  0
 17 44  1  1
 18 19  1  0
 18 20  1  0
 18 45  1  6
 19 46  1  0
 19 47  1  0
 19 48  1  0
 20 21  1  0
 20 49  1  0
 20 50  1  0
 21 22  1  0
 21 51  1  0
 21 52  1  0
 22 23  1  0
 22 53  1  1
M  END
>  <i_m_ct_stereo_status>  (9) 
1

>  <s_m_source_file>  (9) 
/var/tmp/pbs.5076255.sched01/tmpcm5es6vs/0d3z1so5d.sdf

>  <i_m_source_file_index>  (9) 
5

>  <i_lp_mmshare_version>  (9) 
48012

>  <i_f3d_flags>  (9) 
0

>  <s_epik_input>  (9) 
W0NAQF0xMjNbQ0BIXTRbQ0gyXVtDSDJdW0NAQEhdKFtDSDNdKVtDQEBIXTNbQ0gyXVtDSDJdW0NASF0oW0NIM10pW0NASF0yW0NASF0oW09IXSlPW0NASF0xT0MoPU8pW0NASF0oW0NIM10pW0NAQEhdNFtDSDNd

>  <s_epik_cmdline>  (9) 
J2VwaWtfcHl0aG9uJywgJy1waHQnLCAnMi4wJywgJy1waCcsICc3LjAnLCAnLXRuJywgJzgnLCAnLW1hJywgJzIwMCcsICctaW1hZScsICc8aW5maWxlLm1hZT4nLCAnLW9tYWUnLCAnPG91dGZpbGUubWFlPic=

>  <r_lp_tautomer_probability>  (9) 
1

>  <r_epik_Ionization_Penalty>  (9) 
2.74705e-07

>  <r_epik_Ionization_Penalty_Charging>  (9) 
0

>  <r_epik_Ionization_Penalty_Neutral>  (9) 
2.74705e-07

>  <r_epik_State_Penalty>  (9) 
-0

>  <r_epik_Charging_Adjusted_Penalty>  (9) 
0

>  <i_epik_Tot_Q>  (9) 
0

>  <i_epik_Tot_abs_Q>  (9) 
0

>  <s_epik_Chemistry_Notes>  (9) 
This compound has an ester and may undergo hydrolysis at high or low pH. This compound contains an acetal/aminal-like group ( X-CH(R)-Y where X, Y are N, S, or O) that may be acid/base labile, releasing an aldehyde.

>  <s_lp_Force_Field>  (9) 
OPLS3e

>  <r_lp_Energy>  (9) 
80.8348

>  <b_lp_Chiralities_Consistent>  (9) 
1

>  <s_lp_Variant>  (9) 
3:0-1

>  <s_i_glide_gridfile>  (9) 
pfpi4k_grid

>  <i_i_glide_lignum>  (9) 
5

>  <i_i_glide_rotatable_bonds>  (9) 
1

>  <r_i_docking_score>  (9) 
-2.90726

>  <r_i_glide_ligand_efficiency>  (9) 
-0.126402

>  <r_i_glide_ligand_efficiency_sa>  (9) 
-0.359472

>  <r_i_glide_ligand_efficiency_ln>  (9) 
-0.703001

>  <r_i_glide_gscore>  (9) 
-2.90726

>  <r_i_glide_lipo>  (9) 
-0.355864

>  <r_i_glide_hbond>  (9) 
0

>  <r_i_glide_metal>  (9) 
-0

>  <r_i_glide_rewards>  (9) 
-1.34689

>  <r_i_glide_evdw>  (9) 
-25.0738

>  <r_i_glide_ecoul>  (9) 
0.525882

>  <r_i_glide_erotb>  (9) 
0

>  <r_i_glide_esite>  (9) 
-0.0296916

>  <r_i_glide_emodel>  (9) 
-28.2893

>  <r_i_glide_energy>  (9) 
-24.5479

>  <r_i_glide_einternal>  (9) 
0.225233

>  <r_i_glide_intrahb_reward>  (9) 
-0

>  <i_i_glide_confnum>  (9) 
1

>  <i_i_glide_posenum>  (9) 
1

>  <r_i_glide_eff_state_penalty>  (9) 
0

>  <ligand_id>  (9) 
3

>  <original_smiles>  (9) 
CC1CCC2C(C)C(C)C(=O)OC3OC(O)C4C(C)CCC1C324

>  <smiles>  (9) 
[H]OC1([H])OC2([H])OC(=O)C([H])(C([H])([H])[H])C([H])(C([H])([H])[H])C3([H])C([H])([H])C([H])([H])C([H])(C([H])([H])[H])C4([H])C([H])([H])C([H])([H])C([H])(C([H])([H])[H])C1([H])C243

$$$$
5:0:0
     RDKit          3D

 82 88  0  0  1  0  0  0  0  0999 V2000
   -1.4260   -4.0595   10.0292 C   0  0  0  0  0  0  0  0  0  0  0  0
   -1.7881   -4.2426    8.6572 O   0  0  0  0  0  0  0  0  0  0  0  0
   -0.9363   -4.6958    7.7124 C   0  0  0  0  0  0  0  0  0  0  0  0
   -1.3242   -4.8938    6.5845 O   0  0  0  0  0  0  0  0  0  0  0  0
    0.5416   -4.8878    8.0925 C   0  0  2  0  0  0  0  0  0  0  0  0
    1.3305   -3.5690    8.0649 C   0  0  0  0  0  0  0  0  0  0  0  0
    1.8396   -3.2420    6.6674 C   0  0  0  0  0  0  0  0  0  0  0  0
    2.6355   -4.3913    6.0027 C   0  0  1  0  0  0  0  0  0  0  0  0
    3.9239   -4.6531    6.8244 C   0  0  0  0  0  0  0  0  0  0  0  0
    1.8351   -5.5434    6.0872 O   0  0  0  0  0  0  0  0  0  0  0  0
    1.2566   -5.9453    7.3010 C   0  0  1  0  0  0  0  0  0  0  0  0
    1.9638   -7.1027    7.9472 C   0  0  0  0  0  0  0  0  0  0  0  0
    0.7195   -7.3425    7.0884 C   0  0  2  0  0  0  0  0  0  0  0  0
    0.9451   -8.2776    5.9236 C   0  0  1  0  0  0  0  0  0  0  0  0
   -0.1865   -8.4190    4.8726 C   0  0  0  0  0  0  0  0  0  0  0  0
   -0.7402   -7.2749    4.3995 C   0  0  0  0  0  0  0  0  0  0  0  0
    0.1878   -6.2208    3.7743 C   0  0  0  0  0  0  0  0  0  0  0  0
    1.6562   -6.7246    3.7356 C   0  0  2  0  0  0  0  0  0  0  0  0
    1.7905   -8.0306    4.6172 C   0  0  2  0  0  0  0  0  0  0  0  0
    0.8997   -9.1786    4.0292 C   0  0  0  0  0  0  0  0  0  0  0  0
    1.1182  -10.6725    4.3934 C   0  0  0  0  0  0  0  0  0  0  0  0
    0.4922   -9.2357    2.5422 C   0  0  0  0  0  0  0  0  0  0  0  0
    2.8462   -5.6496    3.5759 C   0  0  1  0  0  0  0  0  0  0  0  0
    4.1638   -6.4245    3.7861 C   0  0  0  0  0  0  0  0  0  0  0  0
    2.7854   -5.2834    2.0524 C   0  0  0  0  0  0  0  0  0  0  0  0
    3.7095   -4.1793    1.5317 C   0  0  0  0  0  0  0  0  0  0  0  0
    3.4381   -2.9345    2.3672 C   0  0  2  0  0  0  0  0  0  0  0  0
    4.0295   -1.5562    2.0101 C   0  0  0  0  0  0  0  0  0  0  0  0
    5.4273   -1.5844    1.3514 C   0  0  0  0  0  0  0  0  0  0  0  0
    3.0800   -0.7318    1.1138 C   0  0  0  0  0  0  0  0  0  0  0  0
    4.1009   -0.9070    3.2893 O   0  0  0  0  0  0  0  0  0  0  0  0
    3.4653   -1.6791    4.2772 C   0  0  1  0  0  0  0  0  0  0  0  0
    2.0702   -1.3493    4.3077 O   0  0  0  0  0  0  0  0  0  0  0  0
    3.7456   -3.1466    3.8465 C   0  0  2  0  0  0  0  0  0  0  0  0
    5.2530   -3.3844    4.1436 C   0  0  0  0  0  0  0  0  0  0  0  0
    2.7615   -4.2677    4.4129 C   0  0  2  0  0  0  0  0  0  0  0  0
   -2.2627   -3.6447   10.5818 H   0  0  0  0  0  0  0  0  0  0  0  0
   -0.5826   -3.3716   10.1132 H   0  0  0  0  0  0  0  0  0  0  0  0
   -1.1693   -5.0297   10.4661 H   0  0  0  0  0  0  0  0  0  0  0  0
    0.6048   -5.2664    9.1167 H   0  0  0  0  0  0  0  0  0  0  0  0
    0.7175   -2.7201    8.3531 H   0  0  0  0  0  0  0  0  0  0  0  0
    2.1515   -3.5821    8.7773 H   0  0  0  0  0  0  0  0  0  0  0  0
    0.9795   -2.9912    6.0463 H   0  0  0  0  0  0  0  0  0  0  0  0
    2.4524   -2.3415    6.7090 H   0  0  0  0  0  0  0  0  0  0  0  0
    4.5456   -3.7496    6.8962 H   0  0  0  0  0  0  0  0  0  0  0  0
    4.5260   -5.4799    6.4468 H   0  0  0  0  0  0  0  0  0  0  0  0
    3.6899   -4.9244    7.8649 H   0  0  0  0  0  0  0  0  0  0  0  0
    2.9196   -7.4350    7.5346 H   0  0  0  0  0  0  0  0  0  0  0  0
    1.8619   -7.2314    9.0206 H   0  0  0  0  0  0  0  0  0  0  0  0
   -0.1546   -7.5837    7.6883 H   0  0  0  0  0  0  0  0  0  0  0  0
    1.2276   -9.1932    6.4195 H   0  0  0  0  0  0  0  0  0  0  0  0
   -1.6563   -6.9006    4.8386 H   0  0  0  0  0  0  0  0  0  0  0  0
   -0.1650   -5.9827    2.7779 H   0  0  0  0  0  0  0  0  0  0  0  0
    0.0770   -5.3136    4.3783 H   0  0  0  0  0  0  0  0  0  0  0  0
    1.6912   -7.1534    2.7479 H   0  0  0  0  0  0  0  0  0  0  0  0
    2.8085   -8.4004    4.7573 H   0  0  0  0  0  0  0  0  0  0  0  0
    1.9539  -11.0479    3.7836 H   0  0  0  0  0  0  0  0  0  0  0  0
    0.2438  -11.2679    4.1668 H   0  0  0  0  0  0  0  0  0  0  0  0
    1.4019  -10.9042    5.4153 H   0  0  0  0  0  0  0  0  0  0  0  0
    1.3918   -9.4232    1.9218 H   0  0  0  0  0  0  0  0  0  0  0  0
    0.0237   -8.3392    2.1384 H   0  0  0  0  0  0  0  0  0  0  0  0
   -0.2050  -10.0408    2.3385 H   0  0  0  0  0  0  0  0  0  0  0  0
    5.0396   -5.8572    3.4757 H   0  0  0  0  0  0  0  0  0  0  0  0
    4.1710   -7.3311    3.1726 H   0  0  0  0  0  0  0  0  0  0  0  0
    4.3133   -6.7572    4.8108 H   0  0  0  0  0  0  0  0  0  0  0  0
    2.9924   -6.1580    1.4342 H   0  0  0  0  0  0  0  0  0  0  0  0
    1.7637   -4.9771    1.8129 H   0  0  0  0  0  0  0  0  0  0  0  0
    4.7507   -4.4982    1.5597 H   0  0  0  0  0  0  0  0  0  0  0  0
    3.4813   -3.9731    0.4986 H   0  0  0  0  0  0  0  0  0  0  0  0
    2.3561   -2.8004    2.2795 H   0  0  0  0  0  0  0  0  0  0  0  0
    5.4063   -2.1139    0.4062 H   0  0  0  0  0  0  0  0  0  0  0  0
    6.1808   -2.0600    1.9889 H   0  0  0  0  0  0  0  0  0  0  0  0
    5.7810   -0.5689    1.1550 H   0  0  0  0  0  0  0  0  0  0  0  0
    2.9537   -1.2026    0.1325 H   0  0  0  0  0  0  0  0  0  0  0  0
    3.4789    0.2735    0.9403 H   0  0  0  0  0  0  0  0  0  0  0  0
    2.0870   -0.6094    1.5512 H   0  0  0  0  0  0  0  0  0  0  0  0
    3.8642   -1.4105    5.2495 H   0  0  0  0  0  0  0  0  0  0  0  0
    1.7124   -1.5305    3.4642 H   0  0  0  0  0  0  0  0  0  0  0  0
    5.4544   -4.0599    4.9623 H   0  0  0  0  0  0  0  0  0  0  0  0
    5.7514   -2.4614    4.3890 H   0  0  0  0  0  0  0  0  0  0  0  0
    5.7886   -3.7980    3.3080 H   0  0  0  0  0  0  0  0  0  0  0  0
    1.7677   -3.9082    4.1595 H   0  0  0  0  0  0  0  0  0  0  0  0
  1  2  1  0
  1 37  1  0
  1 38  1  0
  1 39  1  0
  2  3  1  0
  3  4  2  0
  3  5  1  0
  5 11  1  0
  5  6  1  0
  5 40  1  1
  6  7  1  0
  6 41  1  0
  6 42  1  0
  7  8  1  0
  7 43  1  0
  7 44  1  0
  8 36  1  0
  8  9  1  1
  8 10  1  0
  9 45  1  0
  9 46  1  0
  9 47  1  0
 10 11  1  0
 11 13  1  0
 11 12  1  1
 12 13  1  0
 12 48  1  0
 12 49  1  0
 13 14  1  0
 13 50  1  1
 14 19  1  0
 14 15  1  0
 14 51  1  1
 15 20  1  0
 15 16  2  0
 16 17  1  0
 16 52  1  0
 17 18  1  0
 17 53  1  0
 17 54  1  0
 18 19  1  0
 18 23  1  0
 18 55  1  6
 19 20  1  0
 19 56  1  1
 20 21  1  0
 20 22  1  0
 21 57  1  0
 21 58  1  0
 21 59  1  0
 22 60  1  0
 22 61  1  0
 22 62  1  0
 23 36  1  0
 23 24  1  6
 23 25  1  0
 24 63  1  0
 24 64  1  0
 24 65  1  0
 25 26  1  0
 25 66  1  0
 25 67  1  0
 26 27  1  0
 26 68  1  0
 26 69  1  0
 27 34  1  0
 27 28  1  0
 27 70  1  1
 28 29  1  0
 28 30  1  0
 28 31  1  0
 29 71  1  0
 29 72  1  0
 29 73  1  0
 30 74  1  0
 30 75  1  0
 30 76  1  0
 31 32  1  0
 32 33  1  0
 32 34  1  0
 32 77  1  1
 33 78  1  0
 34 35  1  6
 34 36  1  0
 35 79  1  0
 35 80  1  0
 35 81  1  0
 36 82  1  6
M  END
>  <i_m_ct_stereo_status>  (10) 
1

>  <s_m_source_file>  (10) 
/var/tmp/pbs.5076255.sched01/tmpcm5es6vs/0d3z1so5d.sdf

>  <i_m_source_file_index>  (10) 
7

>  <i_lp_mmshare_version>  (10) 
48012

>  <i_f3d_flags>  (10) 
0

>  <s_epik_input>  (10) 
W0NIM11PQyg9TylbQ0BASF0xW0NIMl1bQ0gyXVtDQF0oTzIpKFtDSDNdKVtDQEBIXShbQ0BAXTMoW0NIM10pW0NASF0oW0NIMl1bQ0gyXTQpQyhbQ0gzXSkoW0NIM10pT1tDQEhdM1tPSF0pW0NAQF00KFtDSDNdKVtDQEBIXShbQ0BASF01QzYoW0NIM10pW0NIM10pW0NIMl1bQ0hdPUM2W0NAQEhdNVtDQEhdKFtDQF0xMjcpW0NIMl03

>  <s_epik_cmdline>  (10) 
J2VwaWtfcHl0aG9uJywgJy1waHQnLCAnMi4wJywgJy1waCcsICc3LjAnLCAnLXRuJywgJzgnLCAnLW1hJywgJzIwMCcsICctaW1hZScsICc8aW5maWxlLm1hZT4nLCAnLW9tYWUnLCAnPG91dGZpbGUubWFlPic=

>  <r_lp_tautomer_probability>  (10) 
1

>  <r_epik_Ionization_Penalty>  (10) 
2.73578e-08

>  <r_epik_Ionization_Penalty_Charging>  (10) 
0

>  <r_epik_Ionization_Penalty_Neutral>  (10) 
2.73578e-08

>  <r_epik_State_Penalty>  (10) 
-0

>  <r_epik_Charging_Adjusted_Penalty>  (10) 
0

>  <i_epik_Tot_Q>  (10) 
0

>  <i_epik_Tot_abs_Q>  (10) 
0

>  <s_epik_Chemistry_Notes>  (10) 
This compound has an ester and may undergo hydrolysis at high or low pH. This compound contains an acetal/aminal-like group ( X-CH(R)-Y where X, Y are N, S, or O) that may be acid/base labile, releasing an aldehyde.

>  <s_lp_Force_Field>  (10) 
OPLS3e

>  <r_lp_Energy>  (10) 
147.747

>  <b_lp_Chiralities_Consistent>  (10) 
1

>  <s_lp_Variant>  (10) 
5:0-1

>  <s_i_glide_gridfile>  (10) 
pfpi4k_grid

>  <i_i_glide_lignum>  (10) 
7

>  <i_i_glide_rotatable_bonds>  (10) 
3

>  <r_i_docking_score>  (10) 
-1.32643

>  <r_i_glide_ligand_efficiency>  (10) 
-0.0368454

>  <r_i_glide_ligand_efficiency_sa>  (10) 
-0.121661

>  <r_i_glide_ligand_efficiency_ln>  (10) 
-0.289392

>  <r_i_glide_gscore>  (10) 
-1.32643

>  <r_i_glide_lipo>  (10) 
-0.156896

>  <r_i_glide_hbond>  (10) 
-0.00592862

>  <r_i_glide_metal>  (10) 
-0

>  <r_i_glide_rewards>  (10) 
-0.00893204

>  <r_i_glide_evdw>  (10) 
-23.5541

>  <r_i_glide_ecoul>  (10) 
-0.387074

>  <r_i_glide_erotb>  (10) 
0.0820592

>  <r_i_glide_esite>  (10) 
-0.000968929

>  <r_i_glide_emodel>  (10) 
-22.6553

>  <r_i_glide_energy>  (10) 
-23.9412

>  <r_i_glide_einternal>  (10) 
5.69228

>  <r_i_glide_intrahb_reward>  (10) 
-0

>  <i_i_glide_confnum>  (10) 
3

>  <i_i_glide_posenum>  (10) 
34

>  <r_i_glide_eff_state_penalty>  (10) 
0

>  <ligand_id>  (10) 
5

>  <original_smiles>  (10) 
COC(=O)C1CCC2(C)OC13CC3C1C3=CCC(C1C3(C)C)C1(C)CCC3C(C)(C)OC(O)C3(C)C21

>  <smiles>  (10) 
[H]OC1([H])OC(C([H])([H])[H])(C([H])([H])[H])C2([H])C([H])([H])C([H])([H])C3(C([H])([H])[H])C4([H])C([H])([H])C([H])=C5C([H])(C6([H])C([H])([H])C67OC(C([H])([H])[H])(C([H])([H])C([H])([H])C7([H])C(=O)OC([H])([H])[H])C3([H])C12C([H])([H])[H])C4([H])C5(C([H])([H])[H])C([H])([H])[H]

$$$$
5:0:1
     RDKit          3D

 82 88  0  0  1  0  0  0  0  0999 V2000
    0.4888   -2.7406    9.2130 C   0  0  0  0  0  0  0  0  0  0  0  0
   -0.2100   -3.1749    8.0682 O   0  0  0  0  0  0  0  0  0  0  0  0
    0.3198   -3.9965    7.1258 C   0  0  0  0  0  0  0  0  0  0  0  0
   -0.3283   -4.3856    6.1794 O   0  0  0  0  0  0  0  0  0  0  0  0
    1.8136   -4.3995    7.3024 C   0  0  2  0  0  0  0  0  0  0  0  0
    2.7570   -3.2390    6.9383 C   0  0  0  0  0  0  0  0  0  0  0  0
    3.0576   -3.1988    5.4376 C   0  0  0  0  0  0  0  0  0  0  0  0
    3.5471   -4.5449    4.8394 C   0  0  1  0  0  0  0  0  0  0  0  0
    4.9138   -4.9063    5.4706 C   0  0  0  0  0  0  0  0  0  0  0  0
    2.6135   -5.5179    5.2193 O   0  0  0  0  0  0  0  0  0  0  0  0
    2.2059   -5.6708    6.5469 C   0  0  1  0  0  0  0  0  0  0  0  0
    2.8646   -6.8329    7.2493 C   0  0  0  0  0  0  0  0  0  0  0  0
    1.4578   -6.9790    6.6641 C   0  0  2  0  0  0  0  0  0  0  0  0
    1.3180   -8.0659    5.6052 C   0  0  1  0  0  0  0  0  0  0  0  0
    0.0049   -8.1523    4.7997 C   0  0  0  0  0  0  0  0  0  0  0  0
   -0.4491   -6.9962    4.2548 C   0  0  0  0  0  0  0  0  0  0  0  0
    0.4817   -6.1804    3.3414 C   0  0  0  0  0  0  0  0  0  0  0  0
    1.8420   -6.9249    3.1354 C   0  0  2  0  0  0  0  0  0  0  0  0
    1.9564   -8.1382    4.1590 C   0  0  2  0  0  0  0  0  0  0  0  0
    0.7914   -9.1653    3.9115 C   0  0  0  0  0  0  0  0  0  0  0  0
    0.9189  -10.6295    4.4212 C   0  0  0  0  0  0  0  0  0  0  0  0
    0.1603   -9.3422    2.5102 C   0  0  0  0  0  0  0  0  0  0  0  0
    3.1176   -6.0870    2.6289 C   0  0  1  0  0  0  0  0  0  0  0  0
    4.3396   -7.0316    2.7199 C   0  0  0  0  0  0  0  0  0  0  0  0
    2.8289   -5.8905    1.0941 C   0  0  0  0  0  0  0  0  0  0  0  0
    3.7928   -5.0187    0.2875 C   0  0  0  0  0  0  0  0  0  0  0  0
    3.8533   -3.6555    0.9574 C   0  0  2  0  0  0  0  0  0  0  0  0
    4.5541   -2.4511    0.2976 C   0  0  0  0  0  0  0  0  0  0  0  0
    5.7905   -2.7855   -0.5595 C   0  0  0  0  0  0  0  0  0  0  0  0
    3.5782   -1.5912   -0.5238 C   0  0  0  0  0  0  0  0  0  0  0  0
    4.9608   -1.6817    1.4400 O   0  0  0  0  0  0  0  0  0  0  0  0
    4.4013   -2.1960    2.6227 C   0  0  1  0  0  0  0  0  0  0  0  0
    3.1053   -1.6539    2.8348 O   0  0  0  0  0  0  0  0  0  0  0  0
    4.3859   -3.7382    2.3865 C   0  0  2  0  0  0  0  0  0  0  0  0
    5.8788   -4.1876    2.4402 C   0  0  0  0  0  0  0  0  0  0  0  0
    3.3912   -4.6202    3.2589 C   0  0  2  0  0  0  0  0  0  0  0  0
   -0.2046   -2.1718    9.8412 H   0  0  0  0  0  0  0  0  0  0  0  0
    1.3517   -2.1548    8.9206 H   0  0  0  0  0  0  0  0  0  0  0  0
    0.7811   -3.6139    9.8290 H   0  0  0  0  0  0  0  0  0  0  0  0
    1.9529   -4.6138    8.3586 H   0  0  0  0  0  0  0  0  0  0  0  0
    2.3287   -2.2878    7.2200 H   0  0  0  0  0  0  0  0  0  0  0  0
    3.7021   -3.3242    7.4792 H   0  0  0  0  0  0  0  0  0  0  0  0
    2.1439   -2.9010    4.9326 H   0  0  0  0  0  0  0  0  0  0  0  0
    3.7960   -2.4285    5.2284 H   0  0  0  0  0  0  0  0  0  0  0  0
    5.6456   -4.1092    5.3040 H   0  0  0  0  0  0  0  0  0  0  0  0
    5.3195   -5.8550    5.1264 H   0  0  0  0  0  0  0  0  0  0  0  0
    4.8336   -5.0058    6.5570 H   0  0  0  0  0  0  0  0  0  0  0  0
    3.6643   -7.3623    6.7404 H   0  0  0  0  0  0  0  0  0  0  0  0
    2.9511   -6.8237    8.3319 H   0  0  0  0  0  0  0  0  0  0  0  0
    0.6741   -7.0009    7.4145 H   0  0  0  0  0  0  0  0  0  0  0  0
    1.5760   -8.9460    6.1818 H   0  0  0  0  0  0  0  0  0  0  0  0
   -1.2047   -6.4377    4.7825 H   0  0  0  0  0  0  0  0  0  0  0  0
   -0.0202   -6.0114    2.3890 H   0  0  0  0  0  0  0  0  0  0  0  0
    0.6111   -5.2121    3.8187 H   0  0  0  0  0  0  0  0  0  0  0  0
    1.6352   -7.4690    2.2256 H   0  0  0  0  0  0  0  0  0  0  0  0
    2.9318   -8.6265    4.1808 H   0  0  0  0  0  0  0  0  0  0  0  0
    1.5723  -11.1957    3.7526 H   0  0  0  0  0  0  0  0  0  0  0  0
   -0.0572  -11.1108    4.4216 H   0  0  0  0  0  0  0  0  0  0  0  0
    1.3344  -10.7815    5.4192 H   0  0  0  0  0  0  0  0  0  0  0  0
    0.8954   -9.7369    1.8087 H   0  0  0  0  0  0  0  0  0  0  0  0
   -0.2546   -8.4308    2.0720 H   0  0  0  0  0  0  0  0  0  0  0  0
   -0.6729  -10.0390    2.5504 H   0  0  0  0  0  0  0  0  0  0  0  0
    5.2078   -6.6546    2.1971 H   0  0  0  0  0  0  0  0  0  0  0  0
    4.1042   -7.9914    2.2563 H   0  0  0  0  0  0  0  0  0  0  0  0
    4.6223   -7.2566    3.7458 H   0  0  0  0  0  0  0  0  0  0  0  0
    2.8037   -6.8556    0.5888 H   0  0  0  0  0  0  0  0  0  0  0  0
    1.8306   -5.4565    0.9845 H   0  0  0  0  0  0  0  0  0  0  0  0
    4.7630   -5.5043    0.1778 H   0  0  0  0  0  0  0  0  0  0  0  0
    3.3959   -4.8949   -0.7126 H   0  0  0  0  0  0  0  0  0  0  0  0
    2.8010   -3.3652    1.0268 H   0  0  0  0  0  0  0  0  0  0  0  0
    5.5185   -3.4170   -1.4068 H   0  0  0  0  0  0  0  0  0  0  0  0
    6.5702   -3.2947    0.0014 H   0  0  0  0  0  0  0  0  0  0  0  0
    6.2288   -1.8711   -0.9614 H   0  0  0  0  0  0  0  0  0  0  0  0
    3.1759   -2.1416   -1.3781 H   0  0  0  0  0  0  0  0  0  0  0  0
    4.0720   -0.6974   -0.9108 H   0  0  0  0  0  0  0  0  0  0  0  0
    2.7384   -1.2568    0.0872 H   0  0  0  0  0  0  0  0  0  0  0  0
    5.0144   -1.8969    3.4687 H   0  0  0  0  0  0  0  0  0  0  0  0
    2.5770   -1.8412    2.0879 H   0  0  0  0  0  0  0  0  0  0  0  0
    6.1406   -4.7686    3.3119 H   0  0  0  0  0  0  0  0  0  0  0  0
    6.5493   -3.3388    2.4191 H   0  0  0  0  0  0  0  0  0  0  0  0
    6.1812   -4.7998    1.6031 H   0  0  0  0  0  0  0  0  0  0  0  0
    2.4221   -4.1370    3.1108 H   0  0  0  0  0  0  0  0  0  0  0  0
  1  2  1  0
  1 37  1  0
  1 38  1  0
  1 39  1  0
  2  3  1  0
  3  4  2  0
  3  5  1  0
  5 11  1  0
  5  6  1  0
  5 40  1  1
  6  7  1  0
  6 41  1  0
  6 42  1  0
  7  8  1  0
  7 43  1  0
  7 44  1  0
  8 36  1  0
  8  9  1  6
  8 10  1  0
  9 45  1  0
  9 46  1  0
  9 47  1  0
 10 11  1  0
 11 13  1  0
 11 12  1  1
 12 13  1  0
 12 48  1  0
 12 49  1  0
 13 14  1  0
 13 50  1  1
 14 19  1  0
 14 15  1  0
 14 51  1  1
 15 20  1  0
 15 16  2  0
 16 17  1  0
 16 52  1  0
 17 18  1  0
 17 53  1  0
 17 54  1  0
 18 19  1  0
 18 23  1  0
 18 55  1  6
 19 20  1  0
 19 56  1  1
 20 21  1  0
 20 22  1  0
 21 57  1  0
 21 58  1  0
 21 59  1  0
 22 60  1  0
 22 61  1  0
 22 62  1  0
 23 36  1  0
 23 24  1  6
 23 25  1  0
 24 63  1  0
 24 64  1  0
 24 65  1  0
 25 26  1  0
 25 66  1  0
 25 67  1  0
 26 27  1  0
 26 68  1  0
 26 69  1  0
 27 34  1  0
 27 28  1  0
 27 70  1  1
 28 29  1  0
 28 30  1  0
 28 31  1  0
 29 71  1  0
 29 72  1  0
 29 73  1  0
 30 74  1  0
 30 75  1  0
 30 76  1  0
 31 32  1  0
 32 33  1  0
 32 34  1  0
 32 77  1  1
 33 78  1  0
 34 35  1  6
 34 36  1  0
 35 79  1  0
 35 80  1  0
 35 81  1  0
 36 82  1  1
M  END
>  <i_m_ct_stereo_status>  (11) 
1

>  <s_m_source_file>  (11) 
/var/tmp/pbs.5076255.sched01/tmpcm5es6vs/0d3z1so5d.sdf

>  <i_m_source_file_index>  (11) 
7

>  <i_lp_mmshare_version>  (11) 
48012

>  <i_f3d_flags>  (11) 
0

>  <s_epik_input>  (11) 
W0NIM11PQyg9TylbQ0BASF0xW0NIMl1bQ0gyXVtDQF0oTzIpKFtDSDNdKVtDQEBIXShbQ0BAXTMoW0NIM10pW0NASF0oW0NIMl1bQ0gyXTQpQyhbQ0gzXSkoW0NIM10pT1tDQEhdM1tPSF0pW0NAQF00KFtDSDNdKVtDQEBIXShbQ0BASF01QzYoW0NIM10pW0NIM10pW0NIMl1bQ0hdPUM2W0NAQEhdNVtDQEhdKFtDQF0xMjcpW0NIMl03

>  <s_epik_cmdline>  (11) 
J2VwaWtfcHl0aG9uJywgJy1waHQnLCAnMi4wJywgJy1waCcsICc3LjAnLCAnLXRuJywgJzgnLCAnLW1hJywgJzIwMCcsICctaW1hZScsICc8aW5maWxlLm1hZT4nLCAnLW9tYWUnLCAnPG91dGZpbGUubWFlPic=

>  <r_lp_tautomer_probability>  (11) 
1

>  <r_epik_Ionization_Penalty>  (11) 
2.73578e-08

>  <r_epik_Ionization_Penalty_Charging>  (11) 
0

>  <r_epik_Ionization_Penalty_Neutral>  (11) 
2.73578e-08

>  <r_epik_State_Penalty>  (11) 
-0

>  <r_epik_Charging_Adjusted_Penalty>  (11) 
0

>  <i_epik_Tot_Q>  (11) 
0

>  <i_epik_Tot_abs_Q>  (11) 
0

>  <s_epik_Chemistry_Notes>  (11) 
This compound has an ester and may undergo hydrolysis at high or low pH. This compound contains an acetal/aminal-like group ( X-CH(R)-Y where X, Y are N, S, or O) that may be acid/base labile, releasing an aldehyde.

>  <s_lp_Force_Field>  (11) 
OPLS3e

>  <r_lp_Energy>  (11) 
147.747

>  <b_lp_Chiralities_Consistent>  (11) 
1

>  <s_lp_Variant>  (11) 
5:0-1

>  <s_i_glide_gridfile>  (11) 
pfpi4k_grid

>  <i_i_glide_lignum>  (11) 
7

>  <i_i_glide_rotatable_bonds>  (11) 
3

>  <r_i_docking_score>  (11) 
-1.26167

>  <r_i_glide_ligand_efficiency>  (11) 
-0.0350464

>  <r_i_glide_ligand_efficiency_sa>  (11) 
-0.115721

>  <r_i_glide_ligand_efficiency_ln>  (11) 
-0.275262

>  <r_i_glide_gscore>  (11) 
-1.26167

>  <r_i_glide_lipo>  (11) 
-0.0398712

>  <r_i_glide_hbond>  (11) 
-0.0463759

>  <r_i_glide_metal>  (11) 
-0

>  <r_i_glide_rewards>  (11) 
-0.0367837

>  <r_i_glide_evdw>  (11) 
-20.9818

>  <r_i_glide_ecoul>  (11) 
-1.08356

>  <r_i_glide_erotb>  (11) 
0.0820592

>  <r_i_glide_esite>  (11) 
-0.00907278

>  <r_i_glide_emodel>  (11) 
-20.6887

>  <r_i_glide_energy>  (11) 
-22.0654

>  <r_i_glide_einternal>  (11) 
5.54272

>  <r_i_glide_intrahb_reward>  (11) 
-0

>  <i_i_glide_confnum>  (11) 
1

>  <i_i_glide_posenum>  (11) 
40

>  <r_i_glide_eff_state_penalty>  (11) 
0

>  <ligand_id>  (11) 
5

>  <original_smiles>  (11) 
COC(=O)C1CCC2(C)OC13CC3C1C3=CCC(C1C3(C)C)C1(C)CCC3C(C)(C)OC(O)C3(C)C21

>  <smiles>  (11) 
[H]OC1([H])OC(C([H])([H])[H])(C([H])([H])[H])C2([H])C([H])([H])C([H])([H])C3(C([H])([H])[H])C4([H])C([H])([H])C([H])=C5C([H])(C6([H])C([H])([H])C67OC(C([H])([H])[H])(C([H])([H])C([H])([H])C7([H])C(=O)OC([H])([H])[H])C3([H])C12C([H])([H])[H])C4([H])C5(C([H])([H])[H])C([H])([H])[H]

$$$$
5:0:2
     RDKit          3D

 82 88  0  0  1  0  0  0  0  0999 V2000
   -2.1595   -4.5809    7.6765 C   0  0  0  0  0  0  0  0  0  0  0  0
   -0.7556   -4.6600    7.8460 O   0  0  0  0  0  0  0  0  0  0  0  0
    0.0442   -4.0713    6.9437 C   0  0  0  0  0  0  0  0  0  0  0  0
   -0.3378   -3.4075    5.9915 O   0  0  0  0  0  0  0  0  0  0  0  0
    1.5277   -4.3405    7.2406 C   0  0  2  0  0  0  0  0  0  0  0  0
    2.4747   -3.1819    6.8768 C   0  0  0  0  0  0  0  0  0  0  0  0
    2.8261   -3.1712    5.3832 C   0  0  0  0  0  0  0  0  0  0  0  0
    3.3526   -4.5272    4.8412 C   0  0  1  0  0  0  0  0  0  0  0  0
    4.7136   -4.8475    5.5135 C   0  0  0  0  0  0  0  0  0  0  0  0
    2.4176   -5.4961    5.2377 O   0  0  0  0  0  0  0  0  0  0  0  0
    2.0048   -5.6213    6.5716 C   0  0  1  0  0  0  0  0  0  0  0  0
    2.6529   -6.7605    7.3156 C   0  0  0  0  0  0  0  0  0  0  0  0
    1.2795   -6.9402    6.6943 C   0  0  2  0  0  0  0  0  0  0  0  0
    1.1932   -8.0665    5.6626 C   0  0  1  0  0  0  0  0  0  0  0  0
   -0.0899   -8.2001    4.8214 C   0  0  0  0  0  0  0  0  0  0  0  0
   -0.5566   -7.0709    4.2399 C   0  0  0  0  0  0  0  0  0  0  0  0
    0.3779   -6.2731    3.3166 C   0  0  0  0  0  0  0  0  0  0  0  0
    1.7563   -6.9935    3.1689 C   0  0  2  0  0  0  0  0  0  0  0  0
    1.8589   -8.1675    4.2352 C   0  0  2  0  0  0  0  0  0  0  0  0
    0.7267   -9.2337    3.9884 C   0  0  0  0  0  0  0  0  0  0  0  0
    0.8598  -10.6742    4.5533 C   0  0  0  0  0  0  0  0  0  0  0  0
    0.1251   -9.4706    2.5876 C   0  0  0  0  0  0  0  0  0  0  0  0
    3.0325   -6.1612    2.6659 C   0  0  1  0  0  0  0  0  0  0  0  0
    4.2586   -7.0857    2.8196 C   0  0  0  0  0  0  0  0  0  0  0  0
    2.7819   -6.0292    1.1223 C   0  0  0  0  0  0  0  0  0  0  0  0
    3.7483   -5.1686    0.3062 C   0  0  0  0  0  0  0  0  0  0  0  0
    3.7710   -3.7851    0.9279 C   0  0  2  0  0  0  0  0  0  0  0  0
    4.4686   -2.5958    0.2440 C   0  0  0  0  0  0  0  0  0  0  0  0
    5.7303   -2.9368   -0.5791 C   0  0  0  0  0  0  0  0  0  0  0  0
    3.4978   -1.7871   -0.6374 C   0  0  0  0  0  0  0  0  0  0  0  0
    4.8283   -1.7776    1.3667 O   0  0  0  0  0  0  0  0  0  0  0  0
    4.2480   -2.2574    2.5498 C   0  0  1  0  0  0  0  0  0  0  0  0
    2.9433   -1.7300    2.7090 O   0  0  0  0  0  0  0  0  0  0  0  0
    4.2708   -3.8036    2.3720 C   0  0  2  0  0  0  0  0  0  0  0  0
    5.7679   -4.2298    2.4735 C   0  0  0  0  0  0  0  0  0  0  0  0
    3.2515   -4.6690    3.2559 C   0  0  2  0  0  0  0  0  0  0  0  0
   -2.6680   -5.0485    8.5204 H   0  0  0  0  0  0  0  0  0  0  0  0
   -2.4618   -5.0820    6.7602 H   0  0  0  0  0  0  0  0  0  0  0  0
   -2.4788   -3.5450    7.6219 H   0  0  0  0  0  0  0  0  0  0  0  0
    1.5962   -4.4814    8.3193 H   0  0  0  0  0  0  0  0  0  0  0  0
    2.0270   -2.2222    7.1344 H   0  0  0  0  0  0  0  0  0  0  0  0
    3.3825   -3.2415    7.4771 H   0  0  0  0  0  0  0  0  0  0  0  0
    1.9342   -2.8801    4.8350 H   0  0  0  0  0  0  0  0  0  0  0  0
    3.5588   -2.3886    5.2043 H   0  0  0  0  0  0  0  0  0  0  0  0
    5.4453   -4.0534    5.3290 H   0  0  0  0  0  0  0  0  0  0  0  0
    5.1372   -5.8004    5.1974 H   0  0  0  0  0  0  0  0  0  0  0  0
    4.6205   -4.9158    6.6016 H   0  0  0  0  0  0  0  0  0  0  0  0
    3.4782   -7.2688    6.8151 H   0  0  0  0  0  0  0  0  0  0  0  0
    2.7194   -6.7098    8.4041 H   0  0  0  0  0  0  0  0  0  0  0  0
    0.4785   -6.9835    7.4263 H   0  0  0  0  0  0  0  0  0  0  0  0
    1.4444   -8.9281    6.2638 H   0  0  0  0  0  0  0  0  0  0  0  0
   -1.2951   -6.4756    4.7627 H   0  0  0  0  0  0  0  0  0  0  0  0
   -0.1095   -6.1542    2.3498 H   0  0  0  0  0  0  0  0  0  0  0  0
    0.4782   -5.2859    3.7625 H   0  0  0  0  0  0  0  0  0  0  0  0
    1.5777   -7.5746    2.2734 H   0  0  0  0  0  0  0  0  0  0  0  0
    2.8364   -8.6553    4.2926 H   0  0  0  0  0  0  0  0  0  0  0  0
    1.5423  -11.2546    3.9187 H   0  0  0  0  0  0  0  0  0  0  0  0
   -0.0969  -11.1856    4.5337 H   0  0  0  0  0  0  0  0  0  0  0  0
    1.2542  -10.7926    5.5613 H   0  0  0  0  0  0  0  0  0  0  0  0
    0.8863   -9.8849    1.9120 H   0  0  0  0  0  0  0  0  0  0  0  0
   -0.2899   -8.5881    2.0992 H   0  0  0  0  0  0  0  0  0  0  0  0
   -0.6904  -10.1882    2.6256 H   0  0  0  0  0  0  0  0  0  0  0  0
    5.1338   -6.7146    2.2991 H   0  0  0  0  0  0  0  0  0  0  0  0
    4.0570   -8.0649    2.3763 H   0  0  0  0  0  0  0  0  0  0  0  0
    4.5315   -7.2788    3.8560 H   0  0  0  0  0  0  0  0  0  0  0  0
    2.7944   -7.0135    0.6566 H   0  0  0  0  0  0  0  0  0  0  0  0
    1.7834   -5.6230    0.9634 H   0  0  0  0  0  0  0  0  0  0  0  0
    4.7289   -5.6412    0.2299 H   0  0  0  0  0  0  0  0  0  0  0  0
    3.3745   -5.0670   -0.7186 H   0  0  0  0  0  0  0  0  0  0  0  0
    2.7144   -3.5121    0.9602 H   0  0  0  0  0  0  0  0  0  0  0  0
    5.4892   -3.5997   -1.4103 H   0  0  0  0  0  0  0  0  0  0  0  0
    6.5043   -3.4147    0.0190 H   0  0  0  0  0  0  0  0  0  0  0  0
    6.1658   -2.0289   -1.0006 H   0  0  0  0  0  0  0  0  0  0  0  0
    3.1282   -2.3710   -1.4854 H   0  0  0  0  0  0  0  0  0  0  0  0
    3.9797   -0.8946   -1.0425 H   0  0  0  0  0  0  0  0  0  0  0  0
    2.6352   -1.4520   -0.0607 H   0  0  0  0  0  0  0  0  0  0  0  0
    4.8324   -1.9181    3.4008 H   0  0  0  0  0  0  0  0  0  0  0  0
    2.4460   -1.9184    1.9304 H   0  0  0  0  0  0  0  0  0  0  0  0
    6.0237   -4.7658    3.3753 H   0  0  0  0  0  0  0  0  0  0  0  0
    6.4192   -3.3684    2.4440 H   0  0  0  0  0  0  0  0  0  0  0  0
    6.0992   -4.8684    1.6662 H   0  0  0  0  0  0  0  0  0  0  0  0
    2.2840   -4.2057    3.0632 H   0  0  0  0  0  0  0  0  0  0  0  0
  1  2  1  0
  1 37  1  0
  1 38  1  0
  1 39  1  0
  2  3  1  0
  3  4  2  0
  3  5  1  0
  5 11  1  0
  5  6  1  0
  5 40  1  1
  6  7  1  0
  6 41  1  0
  6 42  1  0
  7  8  1  0
  7 43  1  0
  7 44  1  0
  8 36  1  0
  8  9  1  1
  8 10  1  0
  9 45  1  0
  9 46  1  0
  9 47  1  0
 10 11  1  0
 11 13  1  0
 11 12  1  1
 12 13  1  0
 12 48  1  0
 12 49  1  0
 13 14  1  0
 13 50  1  1
 14 19  1  0
 14 15  1  0
 14 51  1  1
 15 20  1  0
 15 16  2  0
 16 17  1  0
 16 52  1  0
 17 18  1  0
 17 53  1  0
 17 54  1  0
 18 19  1  0
 18 23  1  0
 18 55  1  6
 19 20  1  0
 19 56  1  1
 20 21  1  0
 20 22  1  0
 21 57  1  0
 21 58  1  0
 21 59  1  0
 22 60  1  0
 22 61  1  0
 22 62  1  0
 23 36  1  0
 23 24  1  6
 23 25  1  0
 24 63  1  0
 24 64  1  0
 24 65  1  0
 25 26  1  0
 25 66  1  0
 25 67  1  0
 26 27  1  0
 26 68  1  0
 26 69  1  0
 27 34  1  0
 27 28  1  0
 27 70  1  1
 28 29  1  0
 28 30  1  0
 28 31  1  0
 29 71  1  0
 29 72  1  0
 29 73  1  0
 30 74  1  0
 30 75  1  0
 30 76  1  0
 31 32  1  0
 32 33  1  0
 32 34  1  0
 32 77  1  1
 33 78  1  0
 34 35  1  6
 34 36  1  0
 35 79  1  0
 35 80  1  0
 35 81  1  0
 36 82  1  6
M  END
>  <i_m_ct_stereo_status>  (12) 
1

>  <s_m_source_file>  (12) 
/var/tmp/pbs.5076255.sched01/tmpcm5es6vs/0d3z1so5d.sdf

>  <i_m_source_file_index>  (12) 
7

>  <i_lp_mmshare_version>  (12) 
48012

>  <i_f3d_flags>  (12) 
0

>  <s_epik_input>  (12) 
W0NIM11PQyg9TylbQ0BASF0xW0NIMl1bQ0gyXVtDQF0oTzIpKFtDSDNdKVtDQEBIXShbQ0BAXTMoW0NIM10pW0NASF0oW0NIMl1bQ0gyXTQpQyhbQ0gzXSkoW0NIM10pT1tDQEhdM1tPSF0pW0NAQF00KFtDSDNdKVtDQEBIXShbQ0BASF01QzYoW0NIM10pW0NIM10pW0NIMl1bQ0hdPUM2W0NAQEhdNVtDQEhdKFtDQF0xMjcpW0NIMl03

>  <s_epik_cmdline>  (12) 
J2VwaWtfcHl0aG9uJywgJy1waHQnLCAnMi4wJywgJy1waCcsICc3LjAnLCAnLXRuJywgJzgnLCAnLW1hJywgJzIwMCcsICctaW1hZScsICc8aW5maWxlLm1hZT4nLCAnLW9tYWUnLCAnPG91dGZpbGUubWFlPic=

>  <r_lp_tautomer_probability>  (12) 
1

>  <r_epik_Ionization_Penalty>  (12) 
2.73578e-08

>  <r_epik_Ionization_Penalty_Charging>  (12) 
0

>  <r_epik_Ionization_Penalty_Neutral>  (12) 
2.73578e-08

>  <r_epik_State_Penalty>  (12) 
-0

>  <r_epik_Charging_Adjusted_Penalty>  (12) 
0

>  <i_epik_Tot_Q>  (12) 
0

>  <i_epik_Tot_abs_Q>  (12) 
0

>  <s_epik_Chemistry_Notes>  (12) 
This compound has an ester and may undergo hydrolysis at high or low pH. This compound contains an acetal/aminal-like group ( X-CH(R)-Y where X, Y are N, S, or O) that may be acid/base labile, releasing an aldehyde.

>  <s_lp_Force_Field>  (12) 
OPLS3e

>  <r_lp_Energy>  (12) 
147.747

>  <b_lp_Chiralities_Consistent>  (12) 
1

>  <s_lp_Variant>  (12) 
5:0-1

>  <s_i_glide_gridfile>  (12) 
pfpi4k_grid

>  <i_i_glide_lignum>  (12) 
7

>  <i_i_glide_rotatable_bonds>  (12) 
3

>  <r_i_docking_score>  (12) 
-1.25814

>  <r_i_glide_ligand_efficiency>  (12) 
-0.0349483

>  <r_i_glide_ligand_efficiency_sa>  (12) 
-0.115397

>  <r_i_glide_ligand_efficiency_ln>  (12) 
-0.274492

>  <r_i_glide_gscore>  (12) 
-1.25814

>  <r_i_glide_lipo>  (12) 
-0.0521657

>  <r_i_glide_hbond>  (12) 
0

>  <r_i_glide_metal>  (12) 
-0

>  <r_i_glide_rewards>  (12) 
-0.0216162

>  <r_i_glide_evdw>  (12) 
-23.339

>  <r_i_glide_ecoul>  (12) 
-0.591582

>  <r_i_glide_erotb>  (12) 
0.0820592

>  <r_i_glide_esite>  (12) 
-0.0107288

>  <r_i_glide_emodel>  (12) 
-24.9443

>  <r_i_glide_energy>  (12) 
-23.9306

>  <r_i_glide_einternal>  (12) 
0.829428

>  <r_i_glide_intrahb_reward>  (12) 
-0

>  <i_i_glide_confnum>  (12) 
4

>  <i_i_glide_posenum>  (12) 
38

>  <r_i_glide_eff_state_penalty>  (12) 
0

>  <ligand_id>  (12) 
5

>  <original_smiles>  (12) 
COC(=O)C1CCC2(C)OC13CC3C1C3=CCC(C1C3(C)C)C1(C)CCC3C(C)(C)OC(O)C3(C)C21

>  <smiles>  (12) 
[H]OC1([H])OC(C([H])([H])[H])(C([H])([H])[H])C2([H])C([H])([H])C([H])([H])C3(C([H])([H])[H])C4([H])C([H])([H])C([H])=C5C([H])(C6([H])C([H])([H])C67OC(C([H])([H])[H])(C([H])([H])C([H])([H])C7([H])C(=O)OC([H])([H])[H])C3([H])C12C([H])([H])[H])C4([H])C5(C([H])([H])[H])C([H])([H])[H]

$$$$
6:0:0
     RDKit          3D

 44 48  0  0  1  0  0  0  0  0999 V2000
    0.6369    6.4757    4.0239 C   0  0  0  0  0  0  0  0  0  0  0  0
    0.4232    5.1244    4.3749 O   0  0  0  0  0  0  0  0  0  0  0  0
   -0.5864    4.4075    3.8702 C   0  0  0  0  0  0  0  0  0  0  0  0
   -1.5497    4.8978    3.2776 O   0  0  0  0  0  0  0  0  0  0  0  0
   -0.4396    3.0151    4.1050 N   0  0  0  0  0  0  0  0  0  0  0  0
   -1.1304    2.1059    3.1362 C   0  0  0  0  0  0  0  0  0  0  0  0
   -0.0750    1.2352    2.4132 C   0  0  0  0  0  0  0  0  0  0  0  0
    1.2022    0.9078    3.2461 C   0  0  1  0  0  0  0  0  0  0  0  0
    1.6915    2.0783    3.8828 O   0  0  0  0  0  0  0  0  0  0  0  0
    0.7126    2.3551    4.8687 C   0  0  1  0  0  0  0  0  0  0  0  0
    1.3649    3.1707    6.0101 C   0  0  0  0  0  0  0  0  0  0  0  0
    0.2310    0.9543    5.4063 C   0  0  0  0  0  0  0  0  0  0  0  0
    1.0480    0.0737    4.4984 C   0  0  1  0  0  0  0  0  0  0  0  0
    0.8568   -1.3831    4.0306 C   0  0  0  0  0  0  0  0  0  0  0  0
    1.8577   -1.3508    2.8850 C   0  0  0  0  0  0  0  0  0  0  0  0
    2.1126   -0.0275    2.5044 C   0  0  0  0  0  0  0  0  0  0  0  0
    3.0854    0.2985    1.5430 C   0  0  0  0  0  0  0  0  0  0  0  0
    3.8052   -0.7495    0.9317 C   0  0  0  0  0  0  0  0  0  0  0  0
    3.5424   -2.0962    1.2872 C   0  0  0  0  0  0  0  0  0  0  0  0
    4.1342   -3.2616    0.8214 N   0  0  0  0  0  0  0  0  0  0  0  0
    3.5646   -4.2544    1.4719 N   0  0  0  0  0  0  0  0  0  0  0  0
    2.6445   -3.7200    2.3322 N   0  0  0  0  0  0  0  0  0  0  0  0
    1.8328   -4.5265    3.2220 C   0  0  0  0  0  0  0  0  0  0  0  0
    2.5893   -2.3861    2.2530 C   0  0  0  0  0  0  0  0  0  0  0  0
    1.4975    6.8402    4.5800 H   0  0  0  0  0  0  0  0  0  0  0  0
   -0.2028    7.1248    4.2658 H   0  0  0  0  0  0  0  0  0  0  0  0
    0.8708    6.5451    2.9636 H   0  0  0  0  0  0  0  0  0  0  0  0
   -1.8643    1.4823    3.6509 H   0  0  0  0  0  0  0  0  0  0  0  0
   -1.7228    2.6318    2.3858 H   0  0  0  0  0  0  0  0  0  0  0  0
   -0.5358    0.3217    2.0533 H   0  0  0  0  0  0  0  0  0  0  0  0
    0.2429    1.7649    1.5169 H   0  0  0  0  0  0  0  0  0  0  0  0
    0.5950    3.6023    6.6460 H   0  0  0  0  0  0  0  0  0  0  0  0
    2.0169    3.9499    5.6147 H   0  0  0  0  0  0  0  0  0  0  0  0
    2.0151    2.5323    6.6152 H   0  0  0  0  0  0  0  0  0  0  0  0
    0.5178    0.8111    6.4462 H   0  0  0  0  0  0  0  0  0  0  0  0
   -0.8393    0.7927    5.3394 H   0  0  0  0  0  0  0  0  0  0  0  0
    2.0244    0.0492    4.9953 H   0  0  0  0  0  0  0  0  0  0  0  0
    1.0860   -2.1201    4.7991 H   0  0  0  0  0  0  0  0  0  0  0  0
   -0.1541   -1.5418    3.6584 H   0  0  0  0  0  0  0  0  0  0  0  0
    3.2724    1.3336    1.2888 H   0  0  0  0  0  0  0  0  0  0  0  0
    4.5523   -0.5339    0.1901 H   0  0  0  0  0  0  0  0  0  0  0  0
    0.7736   -4.3110    3.0726 H   0  0  0  0  0  0  0  0  0  0  0  0
    2.1103   -4.3453    4.2643 H   0  0  0  0  0  0  0  0  0  0  0  0
    2.0064   -5.5847    3.0005 H   0  0  0  0  0  0  0  0  0  0  0  0
  1  2  1  0
  1 25  1  0
  1 26  1  0
  1 27  1  0
  2  3  1  0
  3  4  2  0
  3  5  1  0
  5 10  1  0
  5  6  1  0
  6  7  1  0
  6 28  1  0
  6 29  1  0
  8  7  1  6
  7 30  1  0
  7 31  1  0
  8 13  1  0
  8 16  1  0
  8  9  1  0
  9 10  1  0
 10 11  1  1
 10 12  1  0
 11 32  1  0
 11 33  1  0
 11 34  1  0
 12 13  1  0
 12 35  1  0
 12 36  1  0
 13 14  1  0
 13 37  1  1
 14 15  1  0
 14 38  1  0
 14 39  1  0
 15 24  1  0
 15 16  2  0
 16 17  1  0
 17 18  2  0
 17 40  1  0
 18 19  1  0
 18 41  1  0
 19 24  2  0
 19 20  1  0
 20 21  2  0
 21 22  1  0
 22 23  1  0
 22 24  1  0
 23 42  1  0
 23 43  1  0
 23 44  1  0
M  END
>  <i_m_ct_stereo_status>  (13) 
1

>  <s_m_source_file>  (13) 
/var/tmp/pbs.5076255.sched01/tmpcm5es6vs/0d3z1so5d.sdf

>  <i_m_source_file_index>  (13) 
8

>  <i_lp_mmshare_version>  (13) 
48012

>  <i_f3d_flags>  (13) 
0

>  <s_epik_input>  (13) 
W0NIM11PQyg9TylOKFtDSDJdW0NIMl0xKVtDQEBdKE8yKShbQ0gzXSlbQ0gyXVtDQEhdKFtDQEBdMTIzKVtDSDJdYzRjM1tjSF1bY0hdYzVjNG4obm41KVtDSDNd

>  <s_epik_cmdline>  (13) 
J2VwaWtfcHl0aG9uJywgJy1waHQnLCAnMi4wJywgJy1waCcsICc3LjAnLCAnLXRuJywgJzgnLCAnLW1hJywgJzIwMCcsICctaW1hZScsICc8aW5maWxlLm1hZT4nLCAnLW9tYWUnLCAnPG91dGZpbGUubWFlPic=

>  <r_lp_tautomer_probability>  (13) 
1

>  <r_epik_Ionization_Penalty>  (13) 
1.78135e-05

>  <r_epik_Ionization_Penalty_Charging>  (13) 
0

>  <r_epik_Ionization_Penalty_Neutral>  (13) 
1.78135e-05

>  <r_epik_State_Penalty>  (13) 
-0

>  <r_epik_Charging_Adjusted_Penalty>  (13) 
0

>  <i_epik_Tot_Q>  (13) 
0

>  <i_epik_Tot_abs_Q>  (13) 
0

>  <s_epik_Chemistry_Notes>  (13) 
This compound has an ester and may undergo hydrolysis at high or low pH.

>  <s_lp_Force_Field>  (13) 
OPLS3e

>  <r_lp_Energy>  (13) 
63.9698

>  <b_lp_Chiralities_Consistent>  (13) 
1

>  <s_lp_Variant>  (13) 
6:0-1

>  <s_i_glide_gridfile>  (13) 
pfpi4k_grid

>  <i_i_glide_lignum>  (13) 
8

>  <i_i_glide_rotatable_bonds>  (13) 
2

>  <r_i_docking_score>  (13) 
-2.92188

>  <r_i_glide_ligand_efficiency>  (13) 
-0.121745

>  <r_i_glide_ligand_efficiency_sa>  (13) 
-0.351174

>  <r_i_glide_ligand_efficiency_ln>  (13) 
-0.699341

>  <r_i_glide_gscore>  (13) 
-2.92188

>  <r_i_glide_lipo>  (13) 
-0.0800855

>  <r_i_glide_hbond>  (13) 
-0.16

>  <r_i_glide_metal>  (13) 
-0

>  <r_i_glide_rewards>  (13) 
-1.17023

>  <r_i_glide_evdw>  (13) 
-20.6641

>  <r_i_glide_ecoul>  (13) 
-3.31737

>  <r_i_glide_erotb>  (13) 
0.174178

>  <r_i_glide_esite>  (13) 
-0.154934

>  <r_i_glide_emodel>  (13) 
-27.1098

>  <r_i_glide_energy>  (13) 
-23.9815

>  <r_i_glide_einternal>  (13) 
1.55258

>  <r_i_glide_intrahb_reward>  (13) 
-0

>  <i_i_glide_confnum>  (13) 
3

>  <i_i_glide_posenum>  (13) 
12

>  <r_i_glide_eff_state_penalty>  (13) 
0

>  <ligand_id>  (13) 
6

>  <original_smiles>  (13) 
COC(=O)N1CCC23OC1(C)CC2Cc1c3ccc2nnn(C)c12

>  <smiles>  (13) 
[H]c1c2c(c3c(nnn3C([H])([H])[H])c1[H])C([H])([H])C1([H])C([H])([H])C3(C([H])([H])[H])OC21C([H])([H])C([H])([H])N3C(=O)OC([H])([H])[H]

$$$$
6:0:1
     RDKit          3D

 44 48  0  0  1  0  0  0  0  0999 V2000
   -4.2214    4.7806    2.0283 C   0  0  0  0  0  0  0  0  0  0  0  0
   -3.3034    3.8124    2.5198 O   0  0  0  0  0  0  0  0  0  0  0  0
   -2.1087    4.1957    3.0089 C   0  0  0  0  0  0  0  0  0  0  0  0
   -1.6902    5.3396    2.8826 O   0  0  0  0  0  0  0  0  0  0  0  0
   -1.4307    3.1738    3.7255 N   0  0  0  0  0  0  0  0  0  0  0  0
   -1.7852    1.7644    3.4116 C   0  0  0  0  0  0  0  0  0  0  0  0
   -0.5381    1.0083    2.9257 C   0  0  0  0  0  0  0  0  0  0  0  0
    0.8049    1.5094    3.5276 C   0  0  1  0  0  0  0  0  0  0  0  0
    0.8864    2.9255    3.4692 O   0  0  0  0  0  0  0  0  0  0  0  0
   -0.0804    3.3469    4.4193 C   0  0  1  0  0  0  0  0  0  0  0  0
    0.2593    4.7770    4.8807 C   0  0  0  0  0  0  0  0  0  0  0  0
   -0.0147    2.3132    5.6081 C   0  0  0  0  0  0  0  0  0  0  0  0
    1.0003    1.3685    5.0214 C   0  0  1  0  0  0  0  0  0  0  0  0
    1.3027   -0.1225    5.2880 C   0  0  0  0  0  0  0  0  0  0  0  0
    2.1684   -0.3707    4.0566 C   0  0  0  0  0  0  0  0  0  0  0  0
    1.9325    0.6237    3.0967 C   0  0  0  0  0  0  0  0  0  0  0  0
    2.6625    0.6975    1.9025 C   0  0  0  0  0  0  0  0  0  0  0  0
    3.6690   -0.2663    1.6844 C   0  0  0  0  0  0  0  0  0  0  0  0
    3.9180   -1.2871    2.6329 C   0  0  0  0  0  0  0  0  0  0  0  0
    4.8529   -2.3123    2.6013 N   0  0  0  0  0  0  0  0  0  0  0  0
    4.6969   -2.9895    3.7207 N   0  0  0  0  0  0  0  0  0  0  0  0
    3.6950   -2.3844    4.4341 N   0  0  0  0  0  0  0  0  0  0  0  0
    3.2472   -2.8458    5.7326 C   0  0  0  0  0  0  0  0  0  0  0  0
    3.1733   -1.3321    3.8041 C   0  0  0  0  0  0  0  0  0  0  0  0
   -5.1203    4.2726    1.6782 H   0  0  0  0  0  0  0  0  0  0  0  0
   -3.8139    5.3818    1.2180 H   0  0  0  0  0  0  0  0  0  0  0  0
   -4.5050    5.4856    2.8061 H   0  0  0  0  0  0  0  0  0  0  0  0
   -2.2529    1.2876    4.2769 H   0  0  0  0  0  0  0  0  0  0  0  0
   -2.5156    1.7086    2.6135 H   0  0  0  0  0  0  0  0  0  0  0  0
   -0.6718   -0.0522    3.1107 H   0  0  0  0  0  0  0  0  0  0  0  0
   -0.4811    1.1253    1.8434 H   0  0  0  0  0  0  0  0  0  0  0  0
   -0.5669    5.2021    5.4495 H   0  0  0  0  0  0  0  0  0  0  0  0
    0.4991    5.4057    4.0226 H   0  0  0  0  0  0  0  0  0  0  0  0
    1.1504    4.7538    5.5075 H   0  0  0  0  0  0  0  0  0  0  0  0
    0.3586    2.7836    6.5136 H   0  0  0  0  0  0  0  0  0  0  0  0
   -0.9655    1.8505    5.8513 H   0  0  0  0  0  0  0  0  0  0  0  0
    1.9478    1.8578    5.2633 H   0  0  0  0  0  0  0  0  0  0  0  0
    1.8146   -0.3069    6.2356 H   0  0  0  0  0  0  0  0  0  0  0  0
    0.3888   -0.7124    5.2280 H   0  0  0  0  0  0  0  0  0  0  0  0
    2.4596    1.4837    1.1902 H   0  0  0  0  0  0  0  0  0  0  0  0
    4.2600   -0.2328    0.7871 H   0  0  0  0  0  0  0  0  0  0  0  0
    2.1705   -3.0421    5.7333 H   0  0  0  0  0  0  0  0  0  0  0  0
    3.5041   -2.1242    6.5144 H   0  0  0  0  0  0  0  0  0  0  0  0
    3.7598   -3.7811    5.9615 H   0  0  0  0  0  0  0  0  0  0  0  0
  1  2  1  0
  1 25  1  0
  1 26  1  0
  1 27  1  0
  2  3  1  0
  3  4  2  0
  3  5  1  0
  5 10  1  0
  5  6  1  0
  6  7  1  0
  6 28  1  0
  6 29  1  0
  8  7  1  1
  7 30  1  0
  7 31  1  0
  8 13  1  0
  8 16  1  0
  8  9  1  0
  9 10  1  0
 10 11  1  1
 10 12  1  0
 11 32  1  0
 11 33  1  0
 11 34  1  0
 12 13  1  0
 12 35  1  0
 12 36  1  0
 13 14  1  0
 13 37  1  6
 14 15  1  0
 14 38  1  0
 14 39  1  0
 15 24  1  0
 15 16  2  0
 16 17  1  0
 17 18  2  0
 17 40  1  0
 18 19  1  0
 18 41  1  0
 19 24  2  0
 19 20  1  0
 20 21  2  0
 21 22  1  0
 22 23  1  0
 22 24  1  0
 23 42  1  0
 23 43  1  0
 23 44  1  0
M  END
>  <i_m_ct_stereo_status>  (14) 
1

>  <s_m_source_file>  (14) 
/var/tmp/pbs.5076255.sched01/tmpcm5es6vs/0d3z1so5d.sdf

>  <i_m_source_file_index>  (14) 
8

>  <i_lp_mmshare_version>  (14) 
48012

>  <i_f3d_flags>  (14) 
0

>  <s_epik_input>  (14) 
W0NIM11PQyg9TylOKFtDSDJdW0NIMl0xKVtDQEBdKE8yKShbQ0gzXSlbQ0gyXVtDQEhdKFtDQEBdMTIzKVtDSDJdYzRjM1tjSF1bY0hdYzVjNG4obm41KVtDSDNd

>  <s_epik_cmdline>  (14) 
J2VwaWtfcHl0aG9uJywgJy1waHQnLCAnMi4wJywgJy1waCcsICc3LjAnLCAnLXRuJywgJzgnLCAnLW1hJywgJzIwMCcsICctaW1hZScsICc8aW5maWxlLm1hZT4nLCAnLW9tYWUnLCAnPG91dGZpbGUubWFlPic=

>  <r_lp_tautomer_probability>  (14) 
1

>  <r_epik_Ionization_Penalty>  (14) 
1.78135e-05

>  <r_epik_Ionization_Penalty_Charging>  (14) 
0

>  <r_epik_Ionization_Penalty_Neutral>  (14) 
1.78135e-05

>  <r_epik_State_Penalty>  (14) 
-0

>  <r_epik_Charging_Adjusted_Penalty>  (14) 
0

>  <i_epik_Tot_Q>  (14) 
0

>  <i_epik_Tot_abs_Q>  (14) 
0

>  <s_epik_Chemistry_Notes>  (14) 
This compound has an ester and may undergo hydrolysis at high or low pH.

>  <s_lp_Force_Field>  (14) 
OPLS3e

>  <r_lp_Energy>  (14) 
63.9698

>  <b_lp_Chiralities_Consistent>  (14) 
1

>  <s_lp_Variant>  (14) 
6:0-1

>  <s_i_glide_gridfile>  (14) 
pfpi4k_grid

>  <i_i_glide_lignum>  (14) 
8

>  <i_i_glide_rotatable_bonds>  (14) 
2

>  <r_i_docking_score>  (14) 
-2.41008

>  <r_i_glide_ligand_efficiency>  (14) 
-0.10042

>  <r_i_glide_ligand_efficiency_sa>  (14) 
-0.289661

>  <r_i_glide_ligand_efficiency_ln>  (14) 
-0.576842

>  <r_i_glide_gscore>  (14) 
-2.41008

>  <r_i_glide_lipo>  (14) 
-0.0459889

>  <r_i_glide_hbond>  (14) 
-0.16

>  <r_i_glide_metal>  (14) 
-0

>  <r_i_glide_rewards>  (14) 
-1.17023

>  <r_i_glide_evdw>  (14) 
-15.8556

>  <r_i_glide_ecoul>  (14) 
-1.51995

>  <r_i_glide_erotb>  (14) 
0.174178

>  <r_i_glide_esite>  (14) 
-0.187259

>  <r_i_glide_emodel>  (14) 
-20.0751

>  <r_i_glide_energy>  (14) 
-17.3755

>  <r_i_glide_einternal>  (14) 
0.87529

>  <r_i_glide_intrahb_reward>  (14) 
-0

>  <i_i_glide_confnum>  (14) 
1

>  <i_i_glide_posenum>  (14) 
8

>  <r_i_glide_eff_state_penalty>  (14) 
0

>  <ligand_id>  (14) 
6

>  <original_smiles>  (14) 
COC(=O)N1CCC23OC1(C)CC2Cc1c3ccc2nnn(C)c12

>  <smiles>  (14) 
[H]c1c2c(c3c(nnn3C([H])([H])[H])c1[H])C([H])([H])C1([H])C([H])([H])C3(C([H])([H])[H])OC21C([H])([H])C([H])([H])N3C(=O)OC([H])([H])[H]

$$$$
6:0:2
     RDKit          3D

 44 48  0  0  1  0  0  0  0  0999 V2000
    2.5945   -4.6071    9.5893 C   0  0  0  0  0  0  0  0  0  0  0  0
    1.7978   -3.9145    8.6418 O   0  0  0  0  0  0  0  0  0  0  0  0
    2.2447   -3.7103    7.3858 C   0  0  0  0  0  0  0  0  0  0  0  0
    3.3367   -4.1068    6.9789 O   0  0  0  0  0  0  0  0  0  0  0  0
    1.2889   -3.0167    6.5903 N   0  0  0  0  0  0  0  0  0  0  0  0
    0.1865   -2.2623    7.2783 C   0  0  0  0  0  0  0  0  0  0  0  0
    0.2868   -0.7711    6.9073 C   0  0  0  0  0  0  0  0  0  0  0  0
    0.8678   -0.4729    5.4948 C   0  0  1  0  0  0  0  0  0  0  0  0
    2.0393   -1.2405    5.2709 O   0  0  0  0  0  0  0  0  0  0  0  0
    1.5466   -2.5661    5.1519 C   0  0  1  0  0  0  0  0  0  0  0  0
    2.5647   -3.4021    4.3513 C   0  0  0  0  0  0  0  0  0  0  0  0
    0.1681   -2.4531    4.3957 C   0  0  0  0  0  0  0  0  0  0  0  0
    0.0866   -0.9518    4.2902 C   0  0  1  0  0  0  0  0  0  0  0  0
   -1.1097    0.0122    4.1463 C   0  0  0  0  0  0  0  0  0  0  0  0
   -0.3717    1.2918    4.5030 C   0  0  0  0  0  0  0  0  0  0  0  0
    0.8098    0.9980    5.2000 C   0  0  0  0  0  0  0  0  0  0  0  0
    1.7332    1.9929    5.5661 C   0  0  0  0  0  0  0  0  0  0  0  0
    1.4405    3.3292    5.2135 C   0  0  0  0  0  0  0  0  0  0  0  0
    0.2426    3.6464    4.5240 C   0  0  0  0  0  0  0  0  0  0  0  0
   -0.2294    4.8801    4.0989 N   0  0  0  0  0  0  0  0  0  0  0  0
   -1.3553    4.6458    3.4605 N   0  0  0  0  0  0  0  0  0  0  0  0
   -1.6005    3.3056    3.5200 N   0  0  0  0  0  0  0  0  0  0  0  0
   -2.7850    2.7069    2.9487 C   0  0  0  0  0  0  0  0  0  0  0  0
   -0.6398    2.6381    4.1685 C   0  0  0  0  0  0  0  0  0  0  0  0
    2.0576   -4.6542   10.5360 H   0  0  0  0  0  0  0  0  0  0  0  0
    3.5450   -4.1014    9.7674 H   0  0  0  0  0  0  0  0  0  0  0  0
    2.7907   -5.6287    9.2640 H   0  0  0  0  0  0  0  0  0  0  0  0
   -0.7717   -2.6890    6.9879 H   0  0  0  0  0  0  0  0  0  0  0  0
    0.1684   -2.3090    8.3645 H   0  0  0  0  0  0  0  0  0  0  0  0
   -0.6811   -0.2966    7.0305 H   0  0  0  0  0  0  0  0  0  0  0  0
    0.9445   -0.2921    7.6305 H   0  0  0  0  0  0  0  0  0  0  0  0
    2.3221   -4.4607    4.4146 H   0  0  0  0  0  0  0  0  0  0  0  0
    3.5750   -3.2205    4.7131 H   0  0  0  0  0  0  0  0  0  0  0  0
    2.5507   -3.0945    3.3052 H   0  0  0  0  0  0  0  0  0  0  0  0
    0.2197   -2.9095    3.4098 H   0  0  0  0  0  0  0  0  0  0  0  0
   -0.6629   -2.9102    4.9210 H   0  0  0  0  0  0  0  0  0  0  0  0
    0.6908   -0.7361    3.4021 H   0  0  0  0  0  0  0  0  0  0  0  0
   -1.5448    0.0338    3.1491 H   0  0  0  0  0  0  0  0  0  0  0  0
   -1.8833   -0.2070    4.8817 H   0  0  0  0  0  0  0  0  0  0  0  0
    2.6419    1.7384    6.0997 H   0  0  0  0  0  0  0  0  0  0  0  0
    2.1285    4.1178    5.4653 H   0  0  0  0  0  0  0  0  0  0  0  0
   -3.3247    2.1442    3.7054 H   0  0  0  0  0  0  0  0  0  0  0  0
   -2.5188    2.0735    2.0980 H   0  0  0  0  0  0  0  0  0  0  0  0
   -3.4451    3.5004    2.5848 H   0  0  0  0  0  0  0  0  0  0  0  0
  1  2  1  0
  1 25  1  0
  1 26  1  0
  1 27  1  0
  2  3  1  0
  3  4  2  0
  3  5  1  0
  5 10  1  0
  5  6  1  0
  6  7  1  0
  6 28  1  0
  6 29  1  0
  8  7  1  1
  7 30  1  0
  7 31  1  0
  8 13  1  0
  8 16  1  0
  8  9  1  0
  9 10  1  0
 10 11  1  6
 10 12  1  0
 11 32  1  0
 11 33  1  0
 11 34  1  0
 12 13  1  0
 12 35  1  0
 12 36  1  0
 13 14  1  0
 13 37  1  6
 14 15  1  0
 14 38  1  0
 14 39  1  0
 15 24  1  0
 15 16  2  0
 16 17  1  0
 17 18  2  0
 17 40  1  0
 18 19  1  0
 18 41  1  0
 19 24  2  0
 19 20  1  0
 20 21  2  0
 21 22  1  0
 22 23  1  0
 22 24  1  0
 23 42  1  0
 23 43  1  0
 23 44  1  0
M  END
>  <i_m_ct_stereo_status>  (15) 
1

>  <s_m_source_file>  (15) 
/var/tmp/pbs.5076255.sched01/tmpcm5es6vs/0d3z1so5d.sdf

>  <i_m_source_file_index>  (15) 
8

>  <i_lp_mmshare_version>  (15) 
48012

>  <i_f3d_flags>  (15) 
0

>  <s_epik_input>  (15) 
W0NIM11PQyg9TylOKFtDSDJdW0NIMl0xKVtDQEBdKE8yKShbQ0gzXSlbQ0gyXVtDQEhdKFtDQEBdMTIzKVtDSDJdYzRjM1tjSF1bY0hdYzVjNG4obm41KVtDSDNd

>  <s_epik_cmdline>  (15) 
J2VwaWtfcHl0aG9uJywgJy1waHQnLCAnMi4wJywgJy1waCcsICc3LjAnLCAnLXRuJywgJzgnLCAnLW1hJywgJzIwMCcsICctaW1hZScsICc8aW5maWxlLm1hZT4nLCAnLW9tYWUnLCAnPG91dGZpbGUubWFlPic=

>  <r_lp_tautomer_probability>  (15) 
1

>  <r_epik_Ionization_Penalty>  (15) 
1.78135e-05

>  <r_epik_Ionization_Penalty_Charging>  (15) 
0

>  <r_epik_Ionization_Penalty_Neutral>  (15) 
1.78135e-05

>  <r_epik_State_Penalty>  (15) 
-0

>  <r_epik_Charging_Adjusted_Penalty>  (15) 
0

>  <i_epik_Tot_Q>  (15) 
0

>  <i_epik_Tot_abs_Q>  (15) 
0

>  <s_epik_Chemistry_Notes>  (15) 
This compound has an ester and may undergo hydrolysis at high or low pH.

>  <s_lp_Force_Field>  (15) 
OPLS3e

>  <r_lp_Energy>  (15) 
63.9698

>  <b_lp_Chiralities_Consistent>  (15) 
1

>  <s_lp_Variant>  (15) 
6:0-1

>  <s_i_glide_gridfile>  (15) 
pfpi4k_grid

>  <i_i_glide_lignum>  (15) 
8

>  <i_i_glide_rotatable_bonds>  (15) 
2

>  <r_i_docking_score>  (15) 
-2.25775

>  <r_i_glide_ligand_efficiency>  (15) 
-0.0940729

>  <r_i_glide_ligand_efficiency_sa>  (15) 
-0.271353

>  <r_i_glide_ligand_efficiency_ln>  (15) 
-0.540383

>  <r_i_glide_gscore>  (15) 
-2.25775

>  <r_i_glide_lipo>  (15) 
-0.0772594

>  <r_i_glide_hbond>  (15) 
0

>  <r_i_glide_metal>  (15) 
-0

>  <r_i_glide_rewards>  (15) 
-1.17118

>  <r_i_glide_evdw>  (15) 
-16.1426

>  <r_i_glide_ecoul>  (15) 
-0.820669

>  <r_i_glide_erotb>  (15) 
0.174178

>  <r_i_glide_esite>  (15) 
-0.253261

>  <r_i_glide_emodel>  (15) 
-20.0159

>  <r_i_glide_energy>  (15) 
-16.9633

>  <r_i_glide_einternal>  (15) 
0.000644532

>  <r_i_glide_intrahb_reward>  (15) 
-0

>  <i_i_glide_confnum>  (15) 
3

>  <i_i_glide_posenum>  (15) 
1

>  <r_i_glide_eff_state_penalty>  (15) 
0

>  <ligand_id>  (15) 
6

>  <original_smiles>  (15) 
COC(=O)N1CCC23OC1(C)CC2Cc1c3ccc2nnn(C)c12

>  <smiles>  (15) 
[H]c1c2c(c3c(nnn3C([H])([H])[H])c1[H])C([H])([H])C1([H])C([H])([H])C3(C([H])([H])[H])OC21C([H])([H])C([H])([H])N3C(=O)OC([H])([H])[H]

$$$$
7:0:0
     RDKit          3D

 26 28  0  0  1  0  0  0  0  0999 V2000
    1.8970   -7.4671    1.6752 C   0  0  0  0  0  0  0  0  0  0  0  0
    1.1786   -6.4634    1.1313 N   0  0  0  0  0  0  0  0  0  0  0  0
    1.8104   -5.4589    0.5066 N   0  0  0  0  0  0  0  0  0  0  0  0
    3.1681   -5.5440    0.5019 C   0  0  0  0  0  0  0  0  0  0  0  0
    3.8706   -6.6285    1.0870 C   0  0  0  0  0  0  0  0  0  0  0  0
    3.2271   -7.6330    1.6873 N   0  0  0  0  0  0  0  0  0  0  0  0
    5.2320   -6.4748    0.9268 N   0  0  0  0  0  0  0  0  0  0  0  0
    5.2849   -5.3109    0.2789 C   0  0  0  0  0  0  0  0  0  0  0  0
    4.1198   -4.6997   -0.0343 N   0  0  0  0  0  0  0  0  0  0  0  0
    3.9062   -3.4493   -0.7539 C   0  0  2  0  0  0  0  0  0  0  0  0
    4.6255   -3.4592   -2.1203 C   0  0  0  0  0  0  0  0  0  0  0  0
    4.4088   -2.1095   -2.8123 C   0  0  0  0  0  0  0  0  0  0  0  0
    4.8395   -0.9795   -1.8792 C   0  0  0  0  0  0  0  0  0  0  0  0
    4.1447   -1.1195   -0.5177 C   0  0  0  0  0  0  0  0  0  0  0  0
    4.4277   -2.4084    0.0246 O   0  0  0  0  0  0  0  0  0  0  0  0
    1.3114   -8.2390    2.1429 H   0  0  0  0  0  0  0  0  0  0  0  0
    6.2267   -4.8870   -0.0185 H   0  0  0  0  0  0  0  0  0  0  0  0
    2.8290   -3.2916   -0.8740 H   0  0  0  0  0  0  0  0  0  0  0  0
    5.6926   -3.6442   -1.9743 H   0  0  0  0  0  0  0  0  0  0  0  0
    4.2263   -4.2573   -2.7364 H   0  0  0  0  0  0  0  0  0  0  0  0
    4.9882   -2.0661   -3.7346 H   0  0  0  0  0  0  0  0  0  0  0  0
    3.3599   -1.9834   -3.0831 H   0  0  0  0  0  0  0  0  0  0  0  0
    5.9144   -1.0273   -1.7247 H   0  0  0  0  0  0  0  0  0  0  0  0
    4.6130   -0.0084   -2.3218 H   0  0  0  0  0  0  0  0  0  0  0  0
    4.5078   -0.3534    0.1679 H   0  0  0  0  0  0  0  0  0  0  0  0
    3.0667   -0.9686   -0.6115 H   0  0  0  0  0  0  0  0  0  0  0  0
  1  6  2  0
  1  2  1  0
  1 16  1  0
  2  3  2  0
  3  4  1  0
  4  9  1  0
  4  5  2  0
  5  6  1  0
  5  7  1  0
  7  8  2  0
  8  9  1  0
  8 17  1  0
  9 10  1  0
 10 15  1  0
 10 11  1  0
 10 18  1  6
 11 12  1  0
 11 19  1  0
 11 20  1  0
 12 13  1  0
 12 21  1  0
 12 22  1  0
 13 14  1  0
 13 23  1  0
 13 24  1  0
 14 15  1  0
 14 25  1  0
 14 26  1  0
M  END
>  <i_m_ct_stereo_status>  (16) 
1

>  <s_m_source_file>  (16) 
/var/tmp/pbs.5076255.sched01/tmpcm5es6vs/0d3z1so5d.sdf

>  <i_m_source_file_index>  (16) 
9

>  <i_lp_mmshare_version>  (16) 
48012

>  <i_f3d_flags>  (16) 
0

>  <s_epik_input>  (16) 
bjFuW2NIXW5jKGMxMiluW2NIXW4yW0NAQEhdM1tDSDJdW0NIMl1bQ0gyXVtDSDJdTzM=

>  <s_epik_cmdline>  (16) 
J2VwaWtfcHl0aG9uJywgJy1waHQnLCAnMi4wJywgJy1waCcsICc3LjAnLCAnLXRuJywgJzgnLCAnLW1hJywgJzIwMCcsICctaW1hZScsICc8aW5maWxlLm1hZT4nLCAnLW9tYWUnLCAnPG91dGZpbGUubWFlPic=

>  <r_lp_tautomer_probability>  (16) 
1

>  <r_epik_Ionization_Penalty>  (16) 
2.20281e-08

>  <r_epik_Ionization_Penalty_Charging>  (16) 
2.20043e-08

>  <r_epik_Ionization_Penalty_Neutral>  (16) 
2.38278e-11

>  <r_epik_State_Penalty>  (16) 
-0

>  <r_epik_Charging_Adjusted_Penalty>  (16) 
2.20043e-08

>  <i_epik_Tot_Q>  (16) 
0

>  <i_epik_Tot_abs_Q>  (16) 
0

>  <s_epik_Chemistry_Notes>  (16) 
This compound contains an acetal/aminal-like group ( X-CH(R)-Y where X, Y are N, S, or O) that may be acid/base labile, releasing an aldehyde.

>  <s_lp_Force_Field>  (16) 
OPLS3e

>  <r_lp_Energy>  (16) 
22.4339

>  <b_lp_Chiralities_Consistent>  (16) 
1

>  <s_lp_Variant>  (16) 
7:0-1

>  <s_i_glide_gridfile>  (16) 
pfpi4k_grid

>  <i_i_glide_lignum>  (16) 
9

>  <i_i_glide_rotatable_bonds>  (16) 
1

>  <r_i_docking_score>  (16) 
-3.82181

>  <r_i_glide_ligand_efficiency>  (16) 
-0.254788

>  <r_i_glide_ligand_efficiency_sa>  (16) 
-0.62836

>  <r_i_glide_ligand_efficiency_ln>  (16) 
-1.03068

>  <r_i_glide_gscore>  (16) 
-3.82181

>  <r_i_glide_lipo>  (16) 
-0.0867826

>  <r_i_glide_hbond>  (16) 
0

>  <r_i_glide_metal>  (16) 
-0

>  <r_i_glide_rewards>  (16) 
-2.27837

>  <r_i_glide_evdw>  (16) 
-20.7241

>  <r_i_glide_ecoul>  (16) 
-3.89043

>  <r_i_glide_erotb>  (16) 
0.391152

>  <r_i_glide_esite>  (16) 
-0.22804

>  <r_i_glide_emodel>  (16) 
-30.6215

>  <r_i_glide_energy>  (16) 
-24.6145

>  <r_i_glide_einternal>  (16) 
0.0278038

>  <r_i_glide_intrahb_reward>  (16) 
-0

>  <i_i_glide_confnum>  (16) 
1

>  <i_i_glide_posenum>  (16) 
1

>  <r_i_glide_eff_state_penalty>  (16) 
0

>  <ligand_id>  (16) 
7

>  <original_smiles>  (16) 
c1nnc2c(n1)ncn2C1CCCCO1

>  <smiles>  (16) 
[H]c1nnc2c(n1)nc([H])n2C1([H])OC([H])([H])C([H])([H])C([H])([H])C1([H])[H]

$$$$
7:0:1
     RDKit          3D

 26 28  0  0  1  0  0  0  0  0999 V2000
    2.5475   -7.0062    1.5541 C   0  0  0  0  0  0  0  0  0  0  0  0
    1.7029   -6.1026    1.0163 N   0  0  0  0  0  0  0  0  0  0  0  0
    2.2058   -5.0542    0.3444 N   0  0  0  0  0  0  0  0  0  0  0  0
    3.5605   -5.0011    0.2730 C   0  0  0  0  0  0  0  0  0  0  0  0
    4.3975   -5.9888    0.8553 C   0  0  0  0  0  0  0  0  0  0  0  0
    3.8907   -7.0309    1.5194 N   0  0  0  0  0  0  0  0  0  0  0  0
    5.7303   -5.6935    0.6359 N   0  0  0  0  0  0  0  0  0  0  0  0
    5.6352   -4.5598   -0.0618 C   0  0  0  0  0  0  0  0  0  0  0  0
    4.4014   -4.0773   -0.3280 N   0  0  0  0  0  0  0  0  0  0  0  0
    4.0137   -2.8791   -1.0624 C   0  0  2  0  0  0  0  0  0  0  0  0
    3.3650   -3.2375   -2.4158 C   0  0  0  0  0  0  0  0  0  0  0  0
    3.0128   -1.9611   -3.1821 C   0  0  0  0  0  0  0  0  0  0  0  0
    4.2438   -1.0723   -3.2974 C   0  0  0  0  0  0  0  0  0  0  0  0
    4.8646   -0.8594   -1.9081 C   0  0  0  0  0  0  0  0  0  0  0  0
    5.1585   -2.1146   -1.3044 O   0  0  0  0  0  0  0  0  0  0  0  0
    2.0715   -7.8214    2.0805 H   0  0  0  0  0  0  0  0  0  0  0  0
    6.5234   -4.0562   -0.4093 H   0  0  0  0  0  0  0  0  0  0  0  0
    3.3285   -2.3106   -0.4283 H   0  0  0  0  0  0  0  0  0  0  0  0
    4.0572   -3.8563   -2.9883 H   0  0  0  0  0  0  0  0  0  0  0  0
    2.4612   -3.8194   -2.2364 H   0  0  0  0  0  0  0  0  0  0  0  0
    2.6353   -2.2101   -4.1765 H   0  0  0  0  0  0  0  0  0  0  0  0
    2.2151   -1.4249   -2.6671 H   0  0  0  0  0  0  0  0  0  0  0  0
    4.9822   -1.5526   -3.9395 H   0  0  0  0  0  0  0  0  0  0  0  0
    3.9933   -0.1147   -3.7564 H   0  0  0  0  0  0  0  0  0  0  0  0
    5.7875   -0.2929   -1.9971 H   0  0  0  0  0  0  0  0  0  0  0  0
    4.2109   -0.2692   -1.2647 H   0  0  0  0  0  0  0  0  0  0  0  0
  1  6  2  0
  1  2  1  0
  1 16  1  0
  2  3  2  0
  3  4  1  0
  4  9  1  0
  4  5  2  0
  5  6  1  0
  5  7  1  0
  7  8  2  0
  8  9  1  0
  8 17  1  0
  9 10  1  0
 10 15  1  0
 10 11  1  0
 10 18  1  1
 11 12  1  0
 11 19  1  0
 11 20  1  0
 12 13  1  0
 12 21  1  0
 12 22  1  0
 13 14  1  0
 13 23  1  0
 13 24  1  0
 14 15  1  0
 14 25  1  0
 14 26  1  0
M  END
>  <i_m_ct_stereo_status>  (17) 
1

>  <s_m_source_file>  (17) 
/var/tmp/pbs.5076255.sched01/tmpcm5es6vs/0d3z1so5d.sdf

>  <i_m_source_file_index>  (17) 
9

>  <i_lp_mmshare_version>  (17) 
48012

>  <i_f3d_flags>  (17) 
0

>  <s_epik_input>  (17) 
bjFuW2NIXW5jKGMxMiluW2NIXW4yW0NAQEhdM1tDSDJdW0NIMl1bQ0gyXVtDSDJdTzM=

>  <s_epik_cmdline>  (17) 
J2VwaWtfcHl0aG9uJywgJy1waHQnLCAnMi4wJywgJy1waCcsICc3LjAnLCAnLXRuJywgJzgnLCAnLW1hJywgJzIwMCcsICctaW1hZScsICc8aW5maWxlLm1hZT4nLCAnLW9tYWUnLCAnPG91dGZpbGUubWFlPic=

>  <r_lp_tautomer_probability>  (17) 
1

>  <r_epik_Ionization_Penalty>  (17) 
2.20281e-08

>  <r_epik_Ionization_Penalty_Charging>  (17) 
2.20043e-08

>  <r_epik_Ionization_Penalty_Neutral>  (17) 
2.38278e-11

>  <r_epik_State_Penalty>  (17) 
-0

>  <r_epik_Charging_Adjusted_Penalty>  (17) 
2.20043e-08

>  <i_epik_Tot_Q>  (17) 
0

>  <i_epik_Tot_abs_Q>  (17) 
0

>  <s_epik_Chemistry_Notes>  (17) 
This compound contains an acetal/aminal-like group ( X-CH(R)-Y where X, Y are N, S, or O) that may be acid/base labile, releasing an aldehyde.

>  <s_lp_Force_Field>  (17) 
OPLS3e

>  <r_lp_Energy>  (17) 
22.4339

>  <b_lp_Chiralities_Consistent>  (17) 
1

>  <s_lp_Variant>  (17) 
7:0-1

>  <s_i_glide_gridfile>  (17) 
pfpi4k_grid

>  <i_i_glide_lignum>  (17) 
9

>  <i_i_glide_rotatable_bonds>  (17) 
1

>  <r_i_docking_score>  (17) 
-3.66105

>  <r_i_glide_ligand_efficiency>  (17) 
-0.24407

>  <r_i_glide_ligand_efficiency_sa>  (17) 
-0.601928

>  <r_i_glide_ligand_efficiency_ln>  (17) 
-0.987324

>  <r_i_glide_gscore>  (17) 
-3.66105

>  <r_i_glide_lipo>  (17) 
-0.184438

>  <r_i_glide_hbond>  (17) 
0

>  <r_i_glide_metal>  (17) 
-0

>  <r_i_glide_rewards>  (17) 
-2.20875

>  <r_i_glide_evdw>  (17) 
-20.3183

>  <r_i_glide_ecoul>  (17) 
-3.24774

>  <r_i_glide_erotb>  (17) 
0.391152

>  <r_i_glide_esite>  (17) 
-0.155933

>  <r_i_glide_emodel>  (17) 
-29.0022

>  <r_i_glide_energy>  (17) 
-23.5661

>  <r_i_glide_einternal>  (17) 
0.657597

>  <r_i_glide_intrahb_reward>  (17) 
-0

>  <i_i_glide_confnum>  (17) 
1

>  <i_i_glide_posenum>  (17) 
37

>  <r_i_glide_eff_state_penalty>  (17) 
0

>  <ligand_id>  (17) 
7

>  <original_smiles>  (17) 
c1nnc2c(n1)ncn2C1CCCCO1

>  <smiles>  (17) 
[H]c1nnc2c(n1)nc([H])n2C1([H])OC([H])([H])C([H])([H])C([H])([H])C1([H])[H]

$$$$
7:0:2
     RDKit          3D

 26 28  0  0  1  0  0  0  0  0999 V2000
    3.3984   -4.4717    0.3841 C   0  0  0  0  0  0  0  0  0  0  0  0
    2.2198   -5.0570    0.0840 N   0  0  0  0  0  0  0  0  0  0  0  0
    1.6485   -5.8919    0.9670 N   0  0  0  0  0  0  0  0  0  0  0  0
    2.3355   -6.0505    2.1342 C   0  0  0  0  0  0  0  0  0  0  0  0
    3.5706   -5.3969    2.3954 C   0  0  0  0  0  0  0  0  0  0  0  0
    4.1348   -4.5800    1.5016 N   0  0  0  0  0  0  0  0  0  0  0  0
    4.0575   -5.7330    3.6463 N   0  0  0  0  0  0  0  0  0  0  0  0
    3.1088   -6.5670    4.0802 C   0  0  0  0  0  0  0  0  0  0  0  0
    2.0606   -6.8087    3.2628 N   0  0  0  0  0  0  0  0  0  0  0  0
    0.9312   -7.6910    3.5095 C   0  0  2  0  0  0  0  0  0  0  0  0
    1.0486   -8.9677    2.6528 C   0  0  0  0  0  0  0  0  0  0  0  0
   -0.1833   -9.8468    2.8805 C   0  0  0  0  0  0  0  0  0  0  0  0
   -1.4552   -9.0346    2.6306 C   0  0  0  0  0  0  0  0  0  0  0  0
   -1.4240   -7.7498    3.4711 C   0  0  0  0  0  0  0  0  0  0  0  0
   -0.2446   -7.0068    3.1729 O   0  0  0  0  0  0  0  0  0  0  0  0
    3.7952   -3.8095   -0.3719 H   0  0  0  0  0  0  0  0  0  0  0  0
    3.1860   -7.0391    5.0443 H   0  0  0  0  0  0  0  0  0  0  0  0
    0.9109   -7.9261    4.5753 H   0  0  0  0  0  0  0  0  0  0  0  0
    1.1358   -8.6905    1.6018 H   0  0  0  0  0  0  0  0  0  0  0  0
    1.9565   -9.5045    2.9329 H   0  0  0  0  0  0  0  0  0  0  0  0
   -0.1569  -10.7013    2.2045 H   0  0  0  0  0  0  0  0  0  0  0  0
   -0.1866  -10.2450    3.8961 H   0  0  0  0  0  0  0  0  0  0  0  0
   -1.5362   -8.7829    1.5734 H   0  0  0  0  0  0  0  0  0  0  0  0
   -2.3339   -9.6272    2.8840 H   0  0  0  0  0  0  0  0  0  0  0  0
   -2.2949   -7.1386    3.2431 H   0  0  0  0  0  0  0  0  0  0  0  0
   -1.4721   -7.9791    4.5377 H   0  0  0  0  0  0  0  0  0  0  0  0
  1  6  2  0
  1  2  1  0
  1 16  1  0
  2  3  2  0
  3  4  1  0
  4  9  1  0
  4  5  2  0
  5  6  1  0
  5  7  1  0
  7  8  2  0
  8  9  1  0
  8 17  1  0
  9 10  1  0
 10 15  1  0
 10 11  1  0
 10 18  1  1
 11 12  1  0
 11 19  1  0
 11 20  1  0
 12 13  1  0
 12 21  1  0
 12 22  1  0
 13 14  1  0
 13 23  1  0
 13 24  1  0
 14 15  1  0
 14 25  1  0
 14 26  1  0
M  END
>  <i_m_ct_stereo_status>  (18) 
1

>  <s_m_source_file>  (18) 
/var/tmp/pbs.5076255.sched01/tmpcm5es6vs/0d3z1so5d.sdf

>  <i_m_source_file_index>  (18) 
9

>  <i_lp_mmshare_version>  (18) 
48012

>  <i_f3d_flags>  (18) 
0

>  <s_epik_input>  (18) 
bjFuW2NIXW5jKGMxMiluW2NIXW4yW0NAQEhdM1tDSDJdW0NIMl1bQ0gyXVtDSDJdTzM=

>  <s_epik_cmdline>  (18) 
J2VwaWtfcHl0aG9uJywgJy1waHQnLCAnMi4wJywgJy1waCcsICc3LjAnLCAnLXRuJywgJzgnLCAnLW1hJywgJzIwMCcsICctaW1hZScsICc8aW5maWxlLm1hZT4nLCAnLW9tYWUnLCAnPG91dGZpbGUubWFlPic=

>  <r_lp_tautomer_probability>  (18) 
1

>  <r_epik_Ionization_Penalty>  (18) 
2.20281e-08

>  <r_epik_Ionization_Penalty_Charging>  (18) 
2.20043e-08

>  <r_epik_Ionization_Penalty_Neutral>  (18) 
2.38278e-11

>  <r_epik_State_Penalty>  (18) 
-0

>  <r_epik_Charging_Adjusted_Penalty>  (18) 
2.20043e-08

>  <i_epik_Tot_Q>  (18) 
0

>  <i_epik_Tot_abs_Q>  (18) 
0

>  <s_epik_Chemistry_Notes>  (18) 
This compound contains an acetal/aminal-like group ( X-CH(R)-Y where X, Y are N, S, or O) that may be acid/base labile, releasing an aldehyde.

>  <s_lp_Force_Field>  (18) 
OPLS3e

>  <r_lp_Energy>  (18) 
22.4339

>  <b_lp_Chiralities_Consistent>  (18) 
1

>  <s_lp_Variant>  (18) 
7:0-1

>  <s_i_glide_gridfile>  (18) 
pfpi4k_grid

>  <i_i_glide_lignum>  (18) 
9

>  <i_i_glide_rotatable_bonds>  (18) 
1

>  <r_i_docking_score>  (18) 
-3.28789

>  <r_i_glide_ligand_efficiency>  (18) 
-0.219193

>  <r_i_glide_ligand_efficiency_sa>  (18) 
-0.540575

>  <r_i_glide_ligand_efficiency_ln>  (18) 
-0.88669

>  <r_i_glide_gscore>  (18) 
-3.28789

>  <r_i_glide_lipo>  (18) 
-0.0944059

>  <r_i_glide_hbond>  (18) 
-0.0443563

>  <r_i_glide_metal>  (18) 
-0

>  <r_i_glide_rewards>  (18) 
-2.00989

>  <r_i_glide_evdw>  (18) 
-18.2302

>  <r_i_glide_ecoul>  (18) 
-2.84016

>  <r_i_glide_erotb>  (18) 
0.391152

>  <r_i_glide_esite>  (18) 
-0.192858

>  <r_i_glide_emodel>  (18) 
-26.2451

>  <r_i_glide_energy>  (18) 
-21.0704

>  <r_i_glide_einternal>  (18) 
0.0318278

>  <r_i_glide_intrahb_reward>  (18) 
-0

>  <i_i_glide_confnum>  (18) 
2

>  <i_i_glide_posenum>  (18) 
2

>  <r_i_glide_eff_state_penalty>  (18) 
0

>  <ligand_id>  (18) 
7

>  <original_smiles>  (18) 
c1nnc2c(n1)ncn2C1CCCCO1

>  <smiles>  (18) 
[H]c1nnc2c(n1)nc([H])n2C1([H])OC([H])([H])C([H])([H])C([H])([H])C1([H])[H]

$$$$
8:0:0
     RDKit          3D

 58 63  0  0  1  0  0  0  0  0999 V2000
    1.4982   -3.8438   -1.6590 C   0  0  0  0  0  0  0  0  0  0  0  0
    2.6045   -3.2835   -1.1710 C   0  0  0  0  0  0  0  0  0  0  0  0
    2.9714   -3.1260    0.3174 C   0  0  2  0  0  0  0  0  0  0  0  0
    4.1089   -2.2677    0.0264 C   0  0  1  0  0  0  0  0  0  0  0  0
    5.1758   -1.4849    0.7987 C   0  0  1  0  0  0  0  0  0  0  0  0
    4.5990   -0.1825    1.3172 C   0  0  0  0  0  0  0  0  0  0  0  0
    3.5796   -0.5120    2.4245 C   0  0  0  0  0  0  0  0  0  0  0  0
    4.0762   -1.5311    3.4953 C   0  0  0  0  0  0  0  0  0  0  0  0
    3.6145   -3.0448    3.4965 C   0  0  0  0  0  0  0  0  0  0  0  0
    4.0553   -3.5822    4.8947 C   0  0  0  0  0  0  0  0  0  0  0  0
    2.0711   -3.0821    3.6182 C   0  0  0  0  0  0  0  0  0  0  0  0
    4.2345   -4.0447    2.3872 C   0  0  2  0  0  0  0  0  0  0  0  0
    5.8123   -4.1112    2.4396 C   0  0  0  0  0  0  0  0  0  0  0  0
    6.8632   -3.9862    1.2709 C   0  0  0  0  0  0  0  0  0  0  0  0
    6.9756   -2.6734    0.4247 C   0  0  2  0  0  0  0  0  0  0  0  0
    6.6647   -1.5040    1.2361 C   0  0  0  0  0  0  0  0  0  0  0  0
    5.9239   -1.9700   -0.5067 C   0  0  1  0  0  0  0  0  0  0  0  0
    4.8518   -2.8888   -1.0991 C   0  0  1  0  0  0  0  0  0  0  0  0
    5.1161   -4.4087   -1.0648 C   0  0  0  0  0  0  0  0  0  0  0  0
    4.3650   -5.2087    0.0332 C   0  0  0  0  0  0  0  0  0  0  0  0
    3.4751   -4.4024    1.0301 C   0  0  2  0  0  0  0  0  0  0  0  0
    2.2593   -5.3185    1.3179 C   0  0  0  0  0  0  0  0  0  0  0  0
    3.7069   -2.7094   -2.1016 C   0  0  1  0  0  0  0  0  0  0  0  0
    3.7942   -3.3672   -3.3655 O   0  0  0  0  0  0  0  0  0  0  0  0
    1.4036   -3.7343   -2.7136 H   0  0  0  0  0  0  0  0  0  0  0  0
    0.7381   -4.3281   -1.0937 H   0  0  0  0  0  0  0  0  0  0  0  0
    2.1494   -2.6099    0.7998 H   0  0  0  0  0  0  0  0  0  0  0  0
    3.6266   -1.3560   -0.3336 H   0  0  0  0  0  0  0  0  0  0  0  0
    5.3863    0.4155    1.7685 H   0  0  0  0  0  0  0  0  0  0  0  0
    4.1775    0.4544    0.5400 H   0  0  0  0  0  0  0  0  0  0  0  0
    3.3498    0.4228    2.9304 H   0  0  0  0  0  0  0  0  0  0  0  0
    2.6392   -0.8339    1.9929 H   0  0  0  0  0  0  0  0  0  0  0  0
    5.1524   -1.4560    3.6295 H   0  0  0  0  0  0  0  0  0  0  0  0
    3.7170   -1.1156    4.4387 H   0  0  0  0  0  0  0  0  0  0  0  0
    3.7713   -4.6246    5.0411 H   0  0  0  0  0  0  0  0  0  0  0  0
    3.5861   -3.0270    5.7093 H   0  0  0  0  0  0  0  0  0  0  0  0
    5.1267   -3.5118    5.0700 H   0  0  0  0  0  0  0  0  0  0  0  0
    1.7171   -4.0909    3.8257 H   0  0  0  0  0  0  0  0  0  0  0  0
    1.5439   -2.7059    2.7497 H   0  0  0  0  0  0  0  0  0  0  0  0
    1.7242   -2.4661    4.4497 H   0  0  0  0  0  0  0  0  0  0  0  0
    4.0431   -4.9825    2.8965 H   0  0  0  0  0  0  0  0  0  0  0  0
    6.1193   -3.3978    3.1874 H   0  0  0  0  0  0  0  0  0  0  0  0
    6.0515   -5.0701    2.8979 H   0  0  0  0  0  0  0  0  0  0  0  0
    7.8285   -4.0571    1.7725 H   0  0  0  0  0  0  0  0  0  0  0  0
    6.9571   -4.9062    0.7046 H   0  0  0  0  0  0  0  0  0  0  0  0
    7.9594   -2.5541   -0.0250 H   0  0  0  0  0  0  0  0  0  0  0  0
    7.2505   -0.6490    0.8936 H   0  0  0  0  0  0  0  0  0  0  0  0
    6.7659   -1.6000    2.3094 H   0  0  0  0  0  0  0  0  0  0  0  0
    6.2730   -1.1591   -1.1443 H   0  0  0  0  0  0  0  0  0  0  0  0
    4.8837   -4.9006   -2.0001 H   0  0  0  0  0  0  0  0  0  0  0  0
    6.1705   -4.5603   -1.0750 H   0  0  0  0  0  0  0  0  0  0  0  0
    3.7561   -5.9502   -0.4856 H   0  0  0  0  0  0  0  0  0  0  0  0
    5.0546   -5.8412    0.5785 H   0  0  0  0  0  0  0  0  0  0  0  0
    2.5277   -6.1756    1.9307 H   0  0  0  0  0  0  0  0  0  0  0  0
    1.8369   -5.7171    0.4006 H   0  0  0  0  0  0  0  0  0  0  0  0
    1.4585   -4.7847    1.8031 H   0  0  0  0  0  0  0  0  0  0  0  0
    3.4926   -1.6551   -2.3420 H   0  0  0  0  0  0  0  0  0  0  0  0
    3.6442   -4.2968   -3.2151 H   0  0  0  0  0  0  0  0  0  0  0  0
  1  2  2  0
  1 25  1  0
  1 26  1  0
  2 23  1  0
  2  3  1  0
  3 21  1  0
  3  4  1  0
  3 27  1  1
  4 18  1  0
  4  5  1  0
  4 28  1  6
  5 16  1  0
  5 17  1  0
  5  6  1  6
  6  7  1  0
  6 29  1  0
  6 30  1  0
  7  8  1  0
  7 31  1  0
  7 32  1  0
  8  9  1  0
  8 33  1  0
  8 34  1  0
  9 10  1  0
  9 11  1  0
  9 12  1  0
 10 35  1  0
 10 36  1  0
 10 37  1  0
 11 38  1  0
 11 39  1  0
 11 40  1  0
 12 21  1  0
 12 13  1  0
 12 41  1  1
 13 14  1  0
 13 42  1  0
 13 43  1  0
 14 15  1  0
 14 44  1  0
 14 45  1  0
 15 16  1  0
 15 17  1  0
 15 46  1  6
 16 47  1  0
 16 48  1  0
 17 18  1  0
 17 49  1  6
 18 19  1  1
 18 23  1  0
 19 20  1  0
 19 50  1  0
 19 51  1  0
 20 21  1  0
 20 52  1  0
 20 53  1  0
 21 22  1  1
 22 54  1  0
 22 55  1  0
 22 56  1  0
 23 24  1  0
 23 57  1  6
 24 58  1  0
M  END
>  <i_m_ct_stereo_status>  (19) 
1

>  <s_m_source_file>  (19) 
/var/tmp/pbs.5076255.sched01/tmpcm5es6vs/0d3z1so5d.sdf

>  <i_m_source_file_index>  (19) 
10

>  <i_lp_mmshare_version>  (19) 
48012

>  <i_f3d_flags>  (19) 
0

>  <s_epik_input>  (19) 
W09IXVtDQEhdMUMoPVtDSDJdKVtDQEhdMltDQEBdKFtDSDNdKShbQ0gyXVtDSDJdMylbQ0hdKEMoW0NIM10pKFtDSDNdKVtDSDJdW0NIMl1bQ0gyXTQpW0NIMl1bQ0gyXVtDQEhdKFtDSDJdNSlbQ0BIXTZbQ0BAXTEzW0NAQEhdMkM0NTY=

>  <s_epik_cmdline>  (19) 
J2VwaWtfcHl0aG9uJywgJy1waHQnLCAnMi4wJywgJy1waCcsICc3LjAnLCAnLXRuJywgJzgnLCAnLW1hJywgJzIwMCcsICctaW1hZScsICc8aW5maWxlLm1hZT4nLCAnLW9tYWUnLCAnPG91dGZpbGUubWFlPic=

>  <r_lp_tautomer_probability>  (19) 
1

>  <r_epik_Ionization_Penalty>  (19) 
3.7283e-07

>  <r_epik_Ionization_Penalty_Charging>  (19) 
0

>  <r_epik_Ionization_Penalty_Neutral>  (19) 
3.7283e-07

>  <r_epik_State_Penalty>  (19) 
-0

>  <r_epik_Charging_Adjusted_Penalty>  (19) 
0

>  <i_epik_Tot_Q>  (19) 
0

>  <i_epik_Tot_abs_Q>  (19) 
0

>  <s_lp_Force_Field>  (19) 
OPLS3e

>  <r_lp_Energy>  (19) 
230.477

>  <b_lp_Chiralities_Consistent>  (19) 
1

>  <s_lp_Variant>  (19) 
8:0-1

>  <s_i_glide_gridfile>  (19) 
pfpi4k_grid

>  <i_i_glide_lignum>  (19) 
10

>  <i_i_glide_rotatable_bonds>  (19) 
1

>  <r_i_docking_score>  (19) 
-3.46231

>  <r_i_glide_ligand_efficiency>  (19) 
-0.144263

>  <r_i_glide_ligand_efficiency_sa>  (19) 
-0.416126

>  <r_i_glide_ligand_efficiency_ln>  (19) 
-0.828689

>  <r_i_glide_gscore>  (19) 
-3.46231

>  <r_i_glide_lipo>  (19) 
-0.521993

>  <r_i_glide_hbond>  (19) 
-0.32

>  <r_i_glide_metal>  (19) 
-0

>  <r_i_glide_rewards>  (19) 
-1.18285

>  <r_i_glide_evdw>  (19) 
-18.107

>  <r_i_glide_ecoul>  (19) 
-3.54744

>  <r_i_glide_erotb>  (19) 
0

>  <r_i_glide_esite>  (19) 
0

>  <r_i_glide_emodel>  (19) 
-24.476

>  <r_i_glide_energy>  (19) 
-21.6545

>  <r_i_glide_einternal>  (19) 
0.262397

>  <r_i_glide_intrahb_reward>  (19) 
-0

>  <i_i_glide_confnum>  (19) 
1

>  <i_i_glide_posenum>  (19) 
19

>  <r_i_glide_eff_state_penalty>  (19) 
0

>  <ligand_id>  (19) 
8

>  <original_smiles>  (19) 
C=C1C2C3C45CCCC(C)(C)C6CCC(C4)C5C3(CCC26C)C1O

>  <smiles>  (19) 
[H]OC1([H])C(=C([H])[H])C2([H])C3([H])C14C([H])([H])C([H])([H])C2(C([H])([H])[H])C1([H])C([H])([H])C([H])([H])C2([H])C([H])([H])C3(C([H])([H])C([H])([H])C([H])([H])C1(C([H])([H])[H])C([H])([H])[H])C24[H]

$$$$
8:0:1
     RDKit          3D

 58 63  0  0  1  0  0  0  0  0999 V2000
    4.4375   -0.5939    0.8729 C   0  0  0  0  0  0  0  0  0  0  0  0
    4.9926   -1.7336    1.2846 C   0  0  0  0  0  0  0  0  0  0  0  0
    4.2315   -2.9519    1.8851 C   0  0  2  0  0  0  0  0  0  0  0  0
    5.4294   -3.6600    2.3519 C   0  0  1  0  0  0  0  0  0  0  0  0
    5.7927   -4.9677    3.1200 C   0  0  1  0  0  0  0  0  0  0  0  0
    5.6256   -4.7458    4.6238 C   0  0  0  0  0  0  0  0  0  0  0  0
    4.1081   -4.6131    4.9095 C   0  0  0  0  0  0  0  0  0  0  0  0
    3.2224   -5.7162    4.2517 C   0  0  0  0  0  0  0  0  0  0  0  0
    2.3565   -5.4265    2.9687 C   0  0  0  0  0  0  0  0  0  0  0  0
    1.3817   -6.6433    2.8630 C   0  0  0  0  0  0  0  0  0  0  0  0
    1.4104   -4.2660    3.2983 C   0  0  0  0  0  0  0  0  0  0  0  0
    3.1018   -5.2995    1.5421 C   0  0  2  0  0  0  0  0  0  0  0  0
    3.9335   -6.6016    1.2169 C   0  0  0  0  0  0  0  0  0  0  0  0
    5.3905   -6.7044    0.6989 C   0  0  0  0  0  0  0  0  0  0  0  0
    6.6002   -6.2358    1.5396 C   0  0  2  0  0  0  0  0  0  0  0  0
    6.3223   -6.4370    2.9632 C   0  0  0  0  0  0  0  0  0  0  0  0
    6.9634   -4.8030    2.0412 C   0  0  1  0  0  0  0  0  0  0  0  0
    6.4105   -3.6085    1.2132 C   0  0  1  0  0  0  0  0  0  0  0  0
    5.9319   -3.9156   -0.2248 C   0  0  0  0  0  0  0  0  0  0  0  0
    4.3990   -4.0349   -0.4093 C   0  0  0  0  0  0  0  0  0  0  0  0
    3.5342   -3.8865    0.8833 C   0  0  2  0  0  0  0  0  0  0  0  0
    2.2893   -3.1123    0.3795 C   0  0  0  0  0  0  0  0  0  0  0  0
    6.5047   -2.0694    1.2406 C   0  0  1  0  0  0  0  0  0  0  0  0
    7.2158   -1.4139    0.2119 O   0  0  0  0  0  0  0  0  0  0  0  0
    5.0423    0.2077    0.4604 H   0  0  0  0  0  0  0  0  0  0  0  0
    3.3649   -0.4371    0.9255 H   0  0  0  0  0  0  0  0  0  0  0  0
    3.6191   -2.5816    2.6945 H   0  0  0  0  0  0  0  0  0  0  0  0
    5.7869   -2.9929    3.1500 H   0  0  0  0  0  0  0  0  0  0  0  0
    6.0016   -5.5936    5.2066 H   0  0  0  0  0  0  0  0  0  0  0  0
    6.1691   -3.8815    5.0109 H   0  0  0  0  0  0  0  0  0  0  0  0
    3.9709   -4.6644    5.9923 H   0  0  0  0  0  0  0  0  0  0  0  0
    3.7568   -3.6211    4.6381 H   0  0  0  0  0  0  0  0  0  0  0  0
    3.7860   -6.6402    4.1419 H   0  0  0  0  0  0  0  0  0  0  0  0
    2.5082   -5.9781    5.0330 H   0  0  0  0  0  0  0  0  0  0  0  0
    0.7016   -6.5656    2.0137 H   0  0  0  0  0  0  0  0  0  0  0  0
    0.7493   -6.7374    3.7466 H   0  0  0  0  0  0  0  0  0  0  0  0
    1.8873   -7.6036    2.7702 H   0  0  0  0  0  0  0  0  0  0  0  0
    0.7035   -4.1722    2.4909 H   0  0  0  0  0  0  0  0  0  0  0  0
    1.8718   -3.2989    3.4482 H   0  0  0  0  0  0  0  0  0  0  0  0
    0.8311   -4.4585    4.2009 H   0  0  0  0  0  0  0  0  0  0  0  0
    2.2635   -5.4991    0.8825 H   0  0  0  0  0  0  0  0  0  0  0  0
    3.8406   -7.3201    2.0239 H   0  0  0  0  0  0  0  0  0  0  0  0
    3.3885   -7.1008    0.4210 H   0  0  0  0  0  0  0  0  0  0  0  0
    5.5385   -7.7827    0.6173 H   0  0  0  0  0  0  0  0  0  0  0  0
    5.4360   -6.4334   -0.3374 H   0  0  0  0  0  0  0  0  0  0  0  0
    7.5275   -6.7270    1.2417 H   0  0  0  0  0  0  0  0  0  0  0  0
    7.2352   -6.6360    3.5351 H   0  0  0  0  0  0  0  0  0  0  0  0
    5.6217   -7.2338    3.1839 H   0  0  0  0  0  0  0  0  0  0  0  0
    7.9900   -4.7203    2.4180 H   0  0  0  0  0  0  0  0  0  0  0  0
    6.2319   -3.1675   -0.9569 H   0  0  0  0  0  0  0  0  0  0  0  0
    6.4736   -4.7468   -0.6420 H   0  0  0  0  0  0  0  0  0  0  0  0
    4.1459   -3.2639   -1.1335 H   0  0  0  0  0  0  0  0  0  0  0  0
    4.1154   -4.9373   -0.9454 H   0  0  0  0  0  0  0  0  0  0  0  0
    1.7012   -3.7350   -0.2784 H   0  0  0  0  0  0  0  0  0  0  0  0
    2.5741   -2.2467   -0.2262 H   0  0  0  0  0  0  0  0  0  0  0  0
    1.7141   -2.6922    1.1892 H   0  0  0  0  0  0  0  0  0  0  0  0
    6.9622   -1.6702    2.1319 H   0  0  0  0  0  0  0  0  0  0  0  0
    7.4857   -0.5742    0.5733 H   0  0  0  0  0  0  0  0  0  0  0  0
  1  2  2  0
  1 25  1  0
  1 26  1  0
  2 23  1  0
  2  3  1  0
  3 21  1  0
  3  4  1  0
  3 27  1  1
  4 18  1  0
  4  5  1  0
  4 28  1  1
  5 16  1  0
  5 17  1  0
  5  6  1  1
  6  7  1  0
  6 29  1  0
  6 30  1  0
  7  8  1  0
  7 31  1  0
  7 32  1  0
  8  9  1  0
  8 33  1  0
  8 34  1  0
  9 10  1  0
  9 11  1  0
  9 12  1  0
 10 35  1  0
 10 36  1  0
 10 37  1  0
 11 38  1  0
 11 39  1  0
 11 40  1  0
 12 21  1  0
 12 13  1  0
 12 41  1  6
 13 14  1  0
 13 42  1  0
 13 43  1  0
 14 15  1  0
 14 44  1  0
 14 45  1  0
 15 16  1  0
 15 17  1  0
 15 46  1  6
 16 47  1  0
 16 48  1  0
 17 18  1  0
 17 49  1  1
 18 19  1  6
 18 23  1  0
 19 20  1  0
 19 50  1  0
 19 51  1  0
 20 21  1  0
 20 52  1  0
 20 53  1  0
 21 22  1  6
 22 54  1  0
 22 55  1  0
 22 56  1  0
 23 24  1  0
 23 57  1  1
 24 58  1  0
M  END
>  <i_m_ct_stereo_status>  (20) 
1

>  <s_m_source_file>  (20) 
/var/tmp/pbs.5076255.sched01/tmpcm5es6vs/0d3z1so5d.sdf

>  <i_m_source_file_index>  (20) 
10

>  <i_lp_mmshare_version>  (20) 
48012

>  <i_f3d_flags>  (20) 
0

>  <s_epik_input>  (20) 
W09IXVtDQEhdMUMoPVtDSDJdKVtDQEhdMltDQEBdKFtDSDNdKShbQ0gyXVtDSDJdMylbQ0hdKEMoW0NIM10pKFtDSDNdKVtDSDJdW0NIMl1bQ0gyXTQpW0NIMl1bQ0gyXVtDQEhdKFtDSDJdNSlbQ0BIXTZbQ0BAXTEzW0NAQEhdMkM0NTY=

>  <s_epik_cmdline>  (20) 
J2VwaWtfcHl0aG9uJywgJy1waHQnLCAnMi4wJywgJy1waCcsICc3LjAnLCAnLXRuJywgJzgnLCAnLW1hJywgJzIwMCcsICctaW1hZScsICc8aW5maWxlLm1hZT4nLCAnLW9tYWUnLCAnPG91dGZpbGUubWFlPic=

>  <r_lp_tautomer_probability>  (20) 
1

>  <r_epik_Ionization_Penalty>  (20) 
3.7283e-07

>  <r_epik_Ionization_Penalty_Charging>  (20) 
0

>  <r_epik_Ionization_Penalty_Neutral>  (20) 
3.7283e-07

>  <r_epik_State_Penalty>  (20) 
-0

>  <r_epik_Charging_Adjusted_Penalty>  (20) 
0

>  <i_epik_Tot_Q>  (20) 
0

>  <i_epik_Tot_abs_Q>  (20) 
0

>  <s_lp_Force_Field>  (20) 
OPLS3e

>  <r_lp_Energy>  (20) 
230.477

>  <b_lp_Chiralities_Consistent>  (20) 
1

>  <s_lp_Variant>  (20) 
8:0-1

>  <s_i_glide_gridfile>  (20) 
pfpi4k_grid

>  <i_i_glide_lignum>  (20) 
10

>  <i_i_glide_rotatable_bonds>  (20) 
1

>  <r_i_docking_score>  (20) 
-3.14446

>  <r_i_glide_ligand_efficiency>  (20) 
-0.131019

>  <r_i_glide_ligand_efficiency_sa>  (20) 
-0.377924

>  <r_i_glide_ligand_efficiency_ln>  (20) 
-0.752613

>  <r_i_glide_gscore>  (20) 
-3.14446

>  <r_i_glide_lipo>  (20) 
-0.739912

>  <r_i_glide_hbond>  (20) 
-0.225283

>  <r_i_glide_metal>  (20) 
-0

>  <r_i_glide_rewards>  (20) 
-1.18285

>  <r_i_glide_evdw>  (20) 
-9.35645

>  <r_i_glide_ecoul>  (20) 
-3.52394

>  <r_i_glide_erotb>  (20) 
0

>  <r_i_glide_esite>  (20) 
0

>  <r_i_glide_emodel>  (20) 
-15.8352

>  <r_i_glide_energy>  (20) 
-12.8804

>  <r_i_glide_einternal>  (20) 
0.386842

>  <r_i_glide_intrahb_reward>  (20) 
-0

>  <i_i_glide_confnum>  (20) 
1

>  <i_i_glide_posenum>  (20) 
17

>  <r_i_glide_eff_state_penalty>  (20) 
0

>  <ligand_id>  (20) 
8

>  <original_smiles>  (20) 
C=C1C2C3C45CCCC(C)(C)C6CCC(C4)C5C3(CCC26C)C1O

>  <smiles>  (20) 
[H]OC1([H])C(=C([H])[H])C2([H])C3([H])C14C([H])([H])C([H])([H])C2(C([H])([H])[H])C1([H])C([H])([H])C([H])([H])C2([H])C([H])([H])C3(C([H])([H])C([H])([H])C([H])([H])C1(C([H])([H])[H])C([H])([H])[H])C24[H]

$$$$
8:0:2
     RDKit          3D

 58 63  0  0  1  0  0  0  0  0999 V2000
    1.5664   -3.6209   -1.9128 C   0  0  0  0  0  0  0  0  0  0  0  0
    2.5965   -3.0546   -1.2520 C   0  0  0  0  0  0  0  0  0  0  0  0
    2.8776   -3.2145    0.2617 C   0  0  2  0  0  0  0  0  0  0  0  0
    3.8345   -2.1042    0.2969 C   0  0  1  0  0  0  0  0  0  0  0  0
    4.7203   -1.3710    1.3293 C   0  0  1  0  0  0  0  0  0  0  0  0
    3.8894   -0.3625    2.1255 C   0  0  0  0  0  0  0  0  0  0  0  0
    2.9217   -1.1619    3.0327 C   0  0  0  0  0  0  0  0  0  0  0  0
    3.5751   -2.3259    3.8489 C   0  0  0  0  0  0  0  0  0  0  0  0
    3.4088   -3.8440    3.4383 C   0  0  0  0  0  0  0  0  0  0  0  0
    3.9103   -4.6411    4.6852 C   0  0  0  0  0  0  0  0  0  0  0  0
    1.8997   -4.1880    3.4265 C   0  0  0  0  0  0  0  0  0  0  0  0
    4.2425   -4.3853    2.1614 C   0  0  2  0  0  0  0  0  0  0  0  0
    5.8086   -4.1860    2.3073 C   0  0  0  0  0  0  0  0  0  0  0  0
    6.8183   -3.5833    1.2578 C   0  0  0  0  0  0  0  0  0  0  0  0
    6.7160   -2.0821    0.8065 C   0  0  2  0  0  0  0  0  0  0  0  0
    6.1672   -1.2731    1.8828 C   0  0  0  0  0  0  0  0  0  0  0  0
    5.5868   -1.3571   -0.0084 C   0  0  1  0  0  0  0  0  0  0  0  0
    4.7223   -2.2807   -0.8979 C   0  0  1  0  0  0  0  0  0  0  0  0
    5.2839   -3.6942   -1.2235 C   0  0  0  0  0  0  0  0  0  0  0  0
    4.6754   -4.8633   -0.3769 C   0  0  0  0  0  0  0  0  0  0  0  0
    3.5914   -4.5036    0.7048 C   0  0  2  0  0  0  0  0  0  0  0  0
    2.5536   -5.6627    0.6718 C   0  0  0  0  0  0  0  0  0  0  0  0
    3.5824   -2.0741   -1.9040 C   0  0  1  0  0  0  0  0  0  0  0  0
    3.8283   -2.3242   -3.2772 O   0  0  0  0  0  0  0  0  0  0  0  0
    1.4370   -3.4169   -2.9589 H   0  0  0  0  0  0  0  0  0  0  0  0
    0.8877   -4.2947   -1.4245 H   0  0  0  0  0  0  0  0  0  0  0  0
    1.9651   -2.9892    0.8063 H   0  0  0  0  0  0  0  0  0  0  0  0
    3.1785   -1.2457    0.1390 H   0  0  0  0  0  0  0  0  0  0  0  0
    4.5192    0.2537    2.7682 H   0  0  0  0  0  0  0  0  0  0  0  0
    3.3488    0.3582    1.5015 H   0  0  0  0  0  0  0  0  0  0  0  0
    2.4854   -0.4535    3.7419 H   0  0  0  0  0  0  0  0  0  0  0  0
    2.0753   -1.5278    2.4527 H   0  0  0  0  0  0  0  0  0  0  0  0
    4.6151   -2.0946    4.0642 H   0  0  0  0  0  0  0  0  0  0  0  0
    3.1218   -2.2356    4.8356 H   0  0  0  0  0  0  0  0  0  0  0  0
    3.8279   -5.7185    4.5413 H   0  0  0  0  0  0  0  0  0  0  0  0
    3.3237   -4.4107    5.5752 H   0  0  0  0  0  0  0  0  0  0  0  0
    4.9446   -4.4291    4.9497 H   0  0  0  0  0  0  0  0  0  0  0  0
    1.7406   -5.2611    3.3449 H   0  0  0  0  0  0  0  0  0  0  0  0
    1.3452   -3.6957    2.6405 H   0  0  0  0  0  0  0  0  0  0  0  0
    1.4178   -3.8834    4.3543 H   0  0  0  0  0  0  0  0  0  0  0  0
    4.2238   -5.4485    2.3993 H   0  0  0  0  0  0  0  0  0  0  0  0
    5.9766   -3.6725    3.2447 H   0  0  0  0  0  0  0  0  0  0  0  0
    6.2167   -5.1715    2.5168 H   0  0  0  0  0  0  0  0  0  0  0  0
    7.7810   -3.6328    1.7528 H   0  0  0  0  0  0  0  0  0  0  0  0
    7.0850   -4.2926    0.4809 H   0  0  0  0  0  0  0  0  0  0  0  0
    7.6726   -1.6989    0.4678 H   0  0  0  0  0  0  0  0  0  0  0  0
    6.5523   -0.2526    1.8479 H   0  0  0  0  0  0  0  0  0  0  0  0
    6.3019   -1.6466    2.8827 H   0  0  0  0  0  0  0  0  0  0  0  0
    5.8125   -0.3627   -0.3976 H   0  0  0  0  0  0  0  0  0  0  0  0
    5.1101   -3.9884   -2.2542 H   0  0  0  0  0  0  0  0  0  0  0  0
    6.3660   -3.6874   -1.2600 H   0  0  0  0  0  0  0  0  0  0  0  0
    4.2139   -5.5249   -1.1064 H   0  0  0  0  0  0  0  0  0  0  0  0
    5.4398   -5.5166    0.0410 H   0  0  0  0  0  0  0  0  0  0  0  0
    2.9565   -6.5967    1.0696 H   0  0  0  0  0  0  0  0  0  0  0  0
    2.2398   -5.8768   -0.3449 H   0  0  0  0  0  0  0  0  0  0  0  0
    1.6297   -5.4324    1.1926 H   0  0  0  0  0  0  0  0  0  0  0  0
    3.1686   -1.0676   -1.8829 H   0  0  0  0  0  0  0  0  0  0  0  0
    3.0121   -2.1660   -3.7417 H   0  0  0  0  0  0  0  0  0  0  0  0
  1  2  2  0
  1 25  1  0
  1 26  1  0
  2 23  1  0
  2  3  1  0
  3 21  1  0
  3  4  1  0
  3 27  1  1
  4 18  1  0
  4  5  1  0
  4 28  1  6
  5 16  1  0
  5 17  1  0
  5  6  1  6
  6  7  1  0
  6 29  1  0
  6 30  1  0
  7  8  1  0
  7 31  1  0
  7 32  1  0
  8  9  1  0
  8 33  1  0
  8 34  1  0
  9 10  1  0
  9 11  1  0
  9 12  1  0
 10 35  1  0
 10 36  1  0
 10 37  1  0
 11 38  1  0
 11 39  1  0
 11 40  1  0
 12 21  1  0
 12 13  1  0
 12 41  1  1
 13 14  1  0
 13 42  1  0
 13 43  1  0
 14 15  1  0
 14 44  1  0
 14 45  1  0
 15 16  1  0
 15 17  1  0
 15 46  1  6
 16 47  1  0
 16 48  1  0
 17 18  1  0
 17 49  1  6
 18 19  1  1
 18 23  1  0
 19 20  1  0
 19 50  1  0
 19 51  1  0
 20 21  1  0
 20 52  1  0
 20 53  1  0
 21 22  1  1
 22 54  1  0
 22 55  1  0
 22 56  1  0
 23 24  1  0
 23 57  1  6
 24 58  1  0
M  END
>  <i_m_ct_stereo_status>  (21) 
1

>  <s_m_source_file>  (21) 
/var/tmp/pbs.5076255.sched01/tmpcm5es6vs/0d3z1so5d.sdf

>  <i_m_source_file_index>  (21) 
10

>  <i_lp_mmshare_version>  (21) 
48012

>  <i_f3d_flags>  (21) 
0

>  <s_epik_input>  (21) 
W09IXVtDQEhdMUMoPVtDSDJdKVtDQEhdMltDQEBdKFtDSDNdKShbQ0gyXVtDSDJdMylbQ0hdKEMoW0NIM10pKFtDSDNdKVtDSDJdW0NIMl1bQ0gyXTQpW0NIMl1bQ0gyXVtDQEhdKFtDSDJdNSlbQ0BIXTZbQ0BAXTEzW0NAQEhdMkM0NTY=

>  <s_epik_cmdline>  (21) 
J2VwaWtfcHl0aG9uJywgJy1waHQnLCAnMi4wJywgJy1waCcsICc3LjAnLCAnLXRuJywgJzgnLCAnLW1hJywgJzIwMCcsICctaW1hZScsICc8aW5maWxlLm1hZT4nLCAnLW9tYWUnLCAnPG91dGZpbGUubWFlPic=

>  <r_lp_tautomer_probability>  (21) 
1

>  <r_epik_Ionization_Penalty>  (21) 
3.7283e-07

>  <r_epik_Ionization_Penalty_Charging>  (21) 
0

>  <r_epik_Ionization_Penalty_Neutral>  (21) 
3.7283e-07

>  <r_epik_State_Penalty>  (21) 
-0

>  <r_epik_Charging_Adjusted_Penalty>  (21) 
0

>  <i_epik_Tot_Q>  (21) 
0

>  <i_epik_Tot_abs_Q>  (21) 
0

>  <s_lp_Force_Field>  (21) 
OPLS3e

>  <r_lp_Energy>  (21) 
230.477

>  <b_lp_Chiralities_Consistent>  (21) 
1

>  <s_lp_Variant>  (21) 
8:0-1

>  <s_i_glide_gridfile>  (21) 
pfpi4k_grid

>  <i_i_glide_lignum>  (21) 
10

>  <i_i_glide_rotatable_bonds>  (21) 
1

>  <r_i_docking_score>  (21) 
-2.88282

>  <r_i_glide_ligand_efficiency>  (21) 
-0.120118

>  <r_i_glide_ligand_efficiency_sa>  (21) 
-0.346479

>  <r_i_glide_ligand_efficiency_ln>  (21) 
-0.689991

>  <r_i_glide_gscore>  (21) 
-2.88282

>  <r_i_glide_lipo>  (21) 
-0.444376

>  <r_i_glide_hbond>  (21) 
0

>  <r_i_glide_metal>  (21) 
-0

>  <r_i_glide_rewards>  (21) 
-1.18285

>  <r_i_glide_evdw>  (21) 
-19.4232

>  <r_i_glide_ecoul>  (21) 
-1.89624

>  <r_i_glide_erotb>  (21) 
0

>  <r_i_glide_esite>  (21) 
0

>  <r_i_glide_emodel>  (21) 
-24.1563

>  <r_i_glide_energy>  (21) 
-21.3194

>  <r_i_glide_einternal>  (21) 
0.30782

>  <r_i_glide_intrahb_reward>  (21) 
-0

>  <i_i_glide_confnum>  (21) 
1

>  <i_i_glide_posenum>  (21) 
1

>  <r_i_glide_eff_state_penalty>  (21) 
0

>  <ligand_id>  (21) 
8

>  <original_smiles>  (21) 
C=C1C2C3C45CCCC(C)(C)C6CCC(C4)C5C3(CCC26C)C1O

>  <smiles>  (21) 
[H]OC1([H])C(=C([H])[H])C2([H])C3([H])C14C([H])([H])C([H])([H])C2(C([H])([H])[H])C1([H])C([H])([H])C([H])([H])C2([H])C([H])([H])C3(C([H])([H])C([H])([H])C([H])([H])C1(C([H])([H])[H])C([H])([H])[H])C24[H]

$$$$
10:0:0
     RDKit          3D

 32 34  0  0  1  0  0  0  0  0999 V2000
    5.4643   -1.4024    2.5203 C   0  0  0  0  0  0  0  0  0  0  0  0
    4.7541   -2.5442    1.7579 C   0  0  2  0  0  0  0  0  0  0  0  0
    5.6067   -3.8237    1.5233 C   0  0  2  0  0  0  0  0  0  0  0  0
    5.6794   -4.8170    2.6930 C   0  0  0  0  0  0  0  0  0  0  0  0
    6.8969   -3.3935    1.0914 O   0  0  0  0  0  0  0  0  0  0  0  0
    6.8122   -2.8924   -0.1387 C   0  0  0  0  0  0  0  0  0  0  0  0
    7.6998   -2.3794   -0.8195 O   0  0  0  0  0  0  0  0  0  0  0  0
    5.3604   -3.0993   -0.5637 C   0  0  1  0  0  0  0  0  0  0  0  0
    5.1797   -3.1371   -2.0990 C   0  0  0  0  0  0  0  0  0  0  0  0
    5.0428   -4.3796    0.1918 C   0  0  2  0  0  0  0  0  0  0  0  0
    3.5084   -4.5106    0.1622 C   0  0  0  0  0  0  0  0  0  0  0  0
    3.0316   -3.0532    0.0653 C   0  0  0  0  0  0  0  0  0  0  0  0
    4.3394   -2.2657    0.2753 C   0  0  1  0  0  0  0  0  0  0  0  0
    4.2103   -0.7811   -0.0996 C   0  0  0  0  0  0  0  0  0  0  0  0
    6.3354   -1.0121    1.9914 H   0  0  0  0  0  0  0  0  0  0  0  0
    5.8047   -1.7519    3.4951 H   0  0  0  0  0  0  0  0  0  0  0  0
    4.7841   -0.5648    2.6929 H   0  0  0  0  0  0  0  0  0  0  0  0
    3.8727   -2.8012    2.3505 H   0  0  0  0  0  0  0  0  0  0  0  0
    4.6883   -5.1459    3.0099 H   0  0  0  0  0  0  0  0  0  0  0  0
    6.1651   -4.3698    3.5589 H   0  0  0  0  0  0  0  0  0  0  0  0
    6.2491   -5.7045    2.4172 H   0  0  0  0  0  0  0  0  0  0  0  0
    4.2660   -3.6490   -2.3942 H   0  0  0  0  0  0  0  0  0  0  0  0
    6.0049   -3.6592   -2.5831 H   0  0  0  0  0  0  0  0  0  0  0  0
    5.1466   -2.1319   -2.5121 H   0  0  0  0  0  0  0  0  0  0  0  0
    5.5615   -5.2721   -0.1712 H   0  0  0  0  0  0  0  0  0  0  0  0
    3.1760   -5.0576   -0.7181 H   0  0  0  0  0  0  0  0  0  0  0  0
    3.1241   -5.0193    1.0478 H   0  0  0  0  0  0  0  0  0  0  0  0
    2.6088   -2.8525   -0.9227 H   0  0  0  0  0  0  0  0  0  0  0  0
    2.2606   -2.8093    0.7988 H   0  0  0  0  0  0  0  0  0  0  0  0
    3.8326   -0.6670   -1.1167 H   0  0  0  0  0  0  0  0  0  0  0  0
    5.1648   -0.2568   -0.0375 H   0  0  0  0  0  0  0  0  0  0  0  0
    3.5012   -0.2776    0.5605 H   0  0  0  0  0  0  0  0  0  0  0  0
  1  2  1  0
  1 15  1  0
  1 16  1  0
  1 17  1  0
  2 13  1  0
  2  3  1  0
  2 18  1  1
  3 10  1  0
  3  4  1  1
  3  5  1  0
  4 19  1  0
  4 20  1  0
  4 21  1  0
  5  6  1  0
  6  7  2  0
  6  8  1  0
  8 13  1  0
  8  9  1  6
  8 10  1  0
  9 22  1  0
  9 23  1  0
  9 24  1  0
 10 11  1  0
 10 25  1  6
 11 12  1  0
 11 26  1  0
 11 27  1  0
 12 13  1  0
 12 28  1  0
 12 29  1  0
 13 14  1  6
 14 30  1  0
 14 31  1  0
 14 32  1  0
M  END
>  <i_m_ct_stereo_status>  (22) 
1

>  <s_m_source_file>  (22) 
/var/tmp/pbs.5076255.sched01/tmpcm5es6vs/0d3z1so5d.sdf

>  <i_m_source_file_index>  (22) 
12

>  <i_lp_mmshare_version>  (22) 
48012

>  <i_f3d_flags>  (22) 
0

>  <s_epik_input>  (22) 
W0NIM11bQ0BIXTFbQ0BdKFtDSDNdKShbQ0gyXVtDSDJdMilbQ0BdKEMoTzMpPU8pKFtDSDNdKVtDQEhdMltDQF0xM1tDSDNd

>  <s_epik_cmdline>  (22) 
J2VwaWtfcHl0aG9uJywgJy1waHQnLCAnMi4wJywgJy1waCcsICc3LjAnLCAnLXRuJywgJzgnLCAnLW1hJywgJzIwMCcsICctaW1hZScsICc8aW5maWxlLm1hZT4nLCAnLW9tYWUnLCAnPG91dGZpbGUubWFlPic=

>  <r_lp_tautomer_probability>  (22) 
1

>  <r_epik_Ionization_Penalty>  (22) 
0

>  <r_epik_Ionization_Penalty_Charging>  (22) 
0

>  <r_epik_Ionization_Penalty_Neutral>  (22) 
0

>  <r_epik_State_Penalty>  (22) 
-0

>  <r_epik_Charging_Adjusted_Penalty>  (22) 
0

>  <i_epik_Tot_Q>  (22) 
0

>  <i_epik_Tot_abs_Q>  (22) 
0

>  <s_epik_Chemistry_Notes>  (22) 
This compound has an ester and may undergo hydrolysis at high or low pH.

>  <s_lp_Force_Field>  (22) 
OPLS3e

>  <r_lp_Energy>  (22) 
39.575

>  <b_lp_Chiralities_Consistent>  (22) 
1

>  <s_lp_Variant>  (22) 
10:0-1

>  <s_i_glide_gridfile>  (22) 
pfpi4k_grid

>  <i_i_glide_lignum>  (22) 
12

>  <i_i_glide_rotatable_bonds>  (22) 
0

>  <r_i_docking_score>  (22) 
-3.95372

>  <r_i_glide_ligand_efficiency>  (22) 
-0.282409

>  <r_i_glide_ligand_efficiency_sa>  (22) 
-0.680645

>  <r_i_glide_ligand_efficiency_ln>  (22) 
-1.08647

>  <r_i_glide_gscore>  (22) 
-3.95372

>  <r_i_glide_lipo>  (22) 
-0.42833

>  <r_i_glide_hbond>  (22) 
-0.16

>  <r_i_glide_metal>  (22) 
-0

>  <r_i_glide_rewards>  (22) 
-2.16951

>  <r_i_glide_evdw>  (22) 
-17.3985

>  <r_i_glide_ecoul>  (22) 
-2.17303

>  <r_i_glide_erotb>  (22) 
0

>  <r_i_glide_esite>  (22) 
0

>  <r_i_glide_emodel>  (22) 
-24.4214

>  <r_i_glide_energy>  (22) 
-19.5715

>  <r_i_glide_einternal>  (22) 
0

>  <r_i_glide_intrahb_reward>  (22) 
-0

>  <i_i_glide_confnum>  (22) 
2

>  <i_i_glide_posenum>  (22) 
14

>  <r_i_glide_eff_state_penalty>  (22) 
0

>  <ligand_id>  (22) 
10

>  <original_smiles>  (22) 
CC1C2(C)OC(=O)C3(C)C2CCC13C

>  <smiles>  (22) 
[H]C([H])([H])C1([H])C2(C([H])([H])[H])OC(=O)C3(C([H])([H])[H])C2([H])C([H])([H])C([H])([H])C13C([H])([H])[H]

$$$$
10:0:1
     RDKit          3D

 32 34  0  0  1  0  0  0  0  0999 V2000
    4.8814   -5.5433   -0.1594 C   0  0  0  0  0  0  0  0  0  0  0  0
    4.4208   -4.0729   -0.2638 C   0  0  2  0  0  0  0  0  0  0  0  0
    5.1985   -3.1881   -1.2816 C   0  0  2  0  0  0  0  0  0  0  0  0
    4.7709   -3.2907   -2.7511 C   0  0  0  0  0  0  0  0  0  0  0  0
    6.5861   -3.4545   -1.1317 O   0  0  0  0  0  0  0  0  0  0  0  0
    7.0106   -2.9893    0.0302 C   0  0  0  0  0  0  0  0  0  0  0  0
    8.1448   -3.0611    0.4936 O   0  0  0  0  0  0  0  0  0  0  0  0
    5.8085   -2.2652    0.6428 C   0  0  1  0  0  0  0  0  0  0  0  0
    6.1973   -1.1709    1.6565 C   0  0  0  0  0  0  0  0  0  0  0  0
    5.1450   -1.7828   -0.6354 C   0  0  2  0  0  0  0  0  0  0  0  0
    3.7356   -1.3276   -0.2232 C   0  0  0  0  0  0  0  0  0  0  0  0
    3.4244   -2.2015    1.0027 C   0  0  0  0  0  0  0  0  0  0  0  0
    4.6066   -3.1923    1.0126 C   0  0  1  0  0  0  0  0  0  0  0  0
    4.7176   -3.9671    2.3414 C   0  0  0  0  0  0  0  0  0  0  0  0
    5.9117   -5.6514    0.1815 H   0  0  0  0  0  0  0  0  0  0  0  0
    4.8064   -6.0278   -1.1299 H   0  0  0  0  0  0  0  0  0  0  0  0
    4.2415   -6.1064    0.5228 H   0  0  0  0  0  0  0  0  0  0  0  0
    3.3669   -4.1032   -0.5511 H   0  0  0  0  0  0  0  0  0  0  0  0
    3.7120   -3.0632   -2.8806 H   0  0  0  0  0  0  0  0  0  0  0  0
    4.9426   -4.2966   -3.1322 H   0  0  0  0  0  0  0  0  0  0  0  0
    5.3425   -2.5999   -3.3711 H   0  0  0  0  0  0  0  0  0  0  0  0
    5.4279   -0.4074    1.7677 H   0  0  0  0  0  0  0  0  0  0  0  0
    7.1058   -0.6633    1.3439 H   0  0  0  0  0  0  0  0  0  0  0  0
    6.3732   -1.5982    2.6409 H   0  0  0  0  0  0  0  0  0  0  0  0
    5.7012   -1.0213   -1.1852 H   0  0  0  0  0  0  0  0  0  0  0  0
    3.7243   -0.2736    0.0573 H   0  0  0  0  0  0  0  0  0  0  0  0
    3.0189   -1.4767   -1.0272 H   0  0  0  0  0  0  0  0  0  0  0  0
    3.4094   -1.5937    1.9102 H   0  0  0  0  0  0  0  0  0  0  0  0
    2.4503   -2.6919    0.9231 H   0  0  0  0  0  0  0  0  0  0  0  0
    4.7586   -3.2870    3.1933 H   0  0  0  0  0  0  0  0  0  0  0  0
    5.6132   -4.5909    2.3767 H   0  0  0  0  0  0  0  0  0  0  0  0
    3.8501   -4.6152    2.4869 H   0  0  0  0  0  0  0  0  0  0  0  0
  1  2  1  0
  1 15  1  0
  1 16  1  0
  1 17  1  0
  2 13  1  0
  2  3  1  0
  2 18  1  6
  3 10  1  0
  3  4  1  6
  3  5  1  0
  4 19  1  0
  4 20  1  0
  4 21  1  0
  5  6  1  0
  6  7  2  0
  6  8  1  0
  8 13  1  0
  8  9  1  1
  8 10  1  0
  9 22  1  0
  9 23  1  0
  9 24  1  0
 10 11  1  0
 10 25  1  6
 11 12  1  0
 11 26  1  0
 11 27  1  0
 12 13  1  0
 12 28  1  0
 12 29  1  0
 13 14  1  1
 14 30  1  0
 14 31  1  0
 14 32  1  0
M  END
>  <i_m_ct_stereo_status>  (23) 
1

>  <s_m_source_file>  (23) 
/var/tmp/pbs.5076255.sched01/tmpcm5es6vs/0d3z1so5d.sdf

>  <i_m_source_file_index>  (23) 
12

>  <i_lp_mmshare_version>  (23) 
48012

>  <i_f3d_flags>  (23) 
0

>  <s_epik_input>  (23) 
W0NIM11bQ0BIXTFbQ0BdKFtDSDNdKShbQ0gyXVtDSDJdMilbQ0BdKEMoTzMpPU8pKFtDSDNdKVtDQEhdMltDQF0xM1tDSDNd

>  <s_epik_cmdline>  (23) 
J2VwaWtfcHl0aG9uJywgJy1waHQnLCAnMi4wJywgJy1waCcsICc3LjAnLCAnLXRuJywgJzgnLCAnLW1hJywgJzIwMCcsICctaW1hZScsICc8aW5maWxlLm1hZT4nLCAnLW9tYWUnLCAnPG91dGZpbGUubWFlPic=

>  <r_lp_tautomer_probability>  (23) 
1

>  <r_epik_Ionization_Penalty>  (23) 
0

>  <r_epik_Ionization_Penalty_Charging>  (23) 
0

>  <r_epik_Ionization_Penalty_Neutral>  (23) 
0

>  <r_epik_State_Penalty>  (23) 
-0

>  <r_epik_Charging_Adjusted_Penalty>  (23) 
0

>  <i_epik_Tot_Q>  (23) 
0

>  <i_epik_Tot_abs_Q>  (23) 
0

>  <s_epik_Chemistry_Notes>  (23) 
This compound has an ester and may undergo hydrolysis at high or low pH.

>  <s_lp_Force_Field>  (23) 
OPLS3e

>  <r_lp_Energy>  (23) 
39.575

>  <b_lp_Chiralities_Consistent>  (23) 
1

>  <s_lp_Variant>  (23) 
10:0-1

>  <s_i_glide_gridfile>  (23) 
pfpi4k_grid

>  <i_i_glide_lignum>  (23) 
12

>  <i_i_glide_rotatable_bonds>  (23) 
0

>  <r_i_docking_score>  (23) 
-3.71526

>  <r_i_glide_ligand_efficiency>  (23) 
-0.265376

>  <r_i_glide_ligand_efficiency_sa>  (23) 
-0.639593

>  <r_i_glide_ligand_efficiency_ln>  (23) 
-1.02094

>  <r_i_glide_gscore>  (23) 
-3.71526

>  <r_i_glide_lipo>  (23) 
-0.431419

>  <r_i_glide_hbond>  (23) 
0

>  <r_i_glide_metal>  (23) 
-0

>  <r_i_glide_rewards>  (23) 
-2.22009

>  <r_i_glide_evdw>  (23) 
-18.4415

>  <r_i_glide_ecoul>  (23) 
-0.944508

>  <r_i_glide_erotb>  (23) 
0

>  <r_i_glide_esite>  (23) 
0

>  <r_i_glide_emodel>  (23) 
-23.9054

>  <r_i_glide_energy>  (23) 
-19.386

>  <r_i_glide_einternal>  (23) 
0

>  <r_i_glide_intrahb_reward>  (23) 
-0

>  <i_i_glide_confnum>  (23) 
1

>  <i_i_glide_posenum>  (23) 
1

>  <r_i_glide_eff_state_penalty>  (23) 
0

>  <ligand_id>  (23) 
10

>  <original_smiles>  (23) 
CC1C2(C)OC(=O)C3(C)C2CCC13C

>  <smiles>  (23) 
[H]C([H])([H])C1([H])C2(C([H])([H])[H])OC(=O)C3(C([H])([H])[H])C2([H])C([H])([H])C([H])([H])C13C([H])([H])[H]

$$$$
10:0:2
     RDKit          3D

 32 34  0  0  1  0  0  0  0  0999 V2000
    4.6211   -4.1938   -0.9615 C   0  0  0  0  0  0  0  0  0  0  0  0
    4.0006   -2.9588   -0.2677 C   0  0  2  0  0  0  0  0  0  0  0  0
    4.5029   -1.5874   -0.7985 C   0  0  2  0  0  0  0  0  0  0  0  0
    3.8517   -1.0632   -2.0828 C   0  0  0  0  0  0  0  0  0  0  0  0
    5.9132   -1.6959   -0.9522 O   0  0  0  0  0  0  0  0  0  0  0  0
    6.4865   -1.7368    0.2412 C   0  0  0  0  0  0  0  0  0  0  0  0
    7.6877   -1.8216    0.4802 O   0  0  0  0  0  0  0  0  0  0  0  0
    5.3463   -1.5791    1.2567 C   0  0  1  0  0  0  0  0  0  0  0  0
    5.7988   -1.0298    2.6276 C   0  0  0  0  0  0  0  0  0  0  0  0
    4.4270   -0.6754    0.4568 C   0  0  2  0  0  0  0  0  0  0  0  0
    3.0744   -0.7006    1.1949 C   0  0  0  0  0  0  0  0  0  0  0  0
    3.0621   -2.0892    1.8534 C   0  0  0  0  0  0  0  0  0  0  0  0
    4.3177   -2.7570    1.2514 C   0  0  1  0  0  0  0  0  0  0  0  0
    4.7374   -4.0293    2.0154 C   0  0  0  0  0  0  0  0  0  0  0  0
    5.7006   -4.2742   -0.8198 H   0  0  0  0  0  0  0  0  0  0  0  0
    4.4327   -4.1656   -2.0354 H   0  0  0  0  0  0  0  0  0  0  0  0
    4.1745   -5.1124   -0.5820 H   0  0  0  0  0  0  0  0  0  0  0  0
    2.9213   -3.0216   -0.4224 H   0  0  0  0  0  0  0  0  0  0  0  0
    2.7698   -0.9799   -1.9747 H   0  0  0  0  0  0  0  0  0  0  0  0
    4.0556   -1.7211   -2.9244 H   0  0  0  0  0  0  0  0  0  0  0  0
    4.2333   -0.0716   -2.3339 H   0  0  0  0  0  0  0  0  0  0  0  0
    4.9890   -0.5515    3.1800 H   0  0  0  0  0  0  0  0  0  0  0  0
    6.5919   -0.2893    2.5281 H   0  0  0  0  0  0  0  0  0  0  0  0
    6.1827   -1.8345    3.2508 H   0  0  0  0  0  0  0  0  0  0  0  0
    4.8020    0.3381    0.3095 H   0  0  0  0  0  0  0  0  0  0  0  0
    3.0067    0.0843    1.9486 H   0  0  0  0  0  0  0  0  0  0  0  0
    2.2506   -0.5556    0.4993 H   0  0  0  0  0  0  0  0  0  0  0  0
    3.1429   -1.9984    2.9376 H   0  0  0  0  0  0  0  0  0  0  0  0
    2.1455   -2.6430    1.6425 H   0  0  0  0  0  0  0  0  0  0  0  0
    4.8561   -3.8286    3.0805 H   0  0  0  0  0  0  0  0  0  0  0  0
    5.6844   -4.4316    1.6503 H   0  0  0  0  0  0  0  0  0  0  0  0
    3.9796   -4.8078    1.9166 H   0  0  0  0  0  0  0  0  0  0  0  0
  1  2  1  0
  1 15  1  0
  1 16  1  0
  1 17  1  0
  2 13  1  0
  2  3  1  0
  2 18  1  1
  3 10  1  0
  3  4  1  6
  3  5  1  0
  4 19  1  0
  4 20  1  0
  4 21  1  0
  5  6  1  0
  6  7  2  0
  6  8  1  0
  8 13  1  0
  8  9  1  1
  8 10  1  0
  9 22  1  0
  9 23  1  0
  9 24  1  0
 10 11  1  0
 10 25  1  6
 11 12  1  0
 11 26  1  0
 11 27  1  0
 12 13  1  0
 12 28  1  0
 12 29  1  0
 13 14  1  1
 14 30  1  0
 14 31  1  0
 14 32  1  0
M  END
>  <i_m_ct_stereo_status>  (24) 
1

>  <s_m_source_file>  (24) 
/var/tmp/pbs.5076255.sched01/tmpcm5es6vs/0d3z1so5d.sdf

>  <i_m_source_file_index>  (24) 
12

>  <i_lp_mmshare_version>  (24) 
48012

>  <i_f3d_flags>  (24) 
0

>  <s_epik_input>  (24) 
W0NIM11bQ0BIXTFbQ0BdKFtDSDNdKShbQ0gyXVtDSDJdMilbQ0BdKEMoTzMpPU8pKFtDSDNdKVtDQEhdMltDQF0xM1tDSDNd

>  <s_epik_cmdline>  (24) 
J2VwaWtfcHl0aG9uJywgJy1waHQnLCAnMi4wJywgJy1waCcsICc3LjAnLCAnLXRuJywgJzgnLCAnLW1hJywgJzIwMCcsICctaW1hZScsICc8aW5maWxlLm1hZT4nLCAnLW9tYWUnLCAnPG91dGZpbGUubWFlPic=

>  <r_lp_tautomer_probability>  (24) 
1

>  <r_epik_Ionization_Penalty>  (24) 
0

>  <r_epik_Ionization_Penalty_Charging>  (24) 
0

>  <r_epik_Ionization_Penalty_Neutral>  (24) 
0

>  <r_epik_State_Penalty>  (24) 
-0

>  <r_epik_Charging_Adjusted_Penalty>  (24) 
0

>  <i_epik_Tot_Q>  (24) 
0

>  <i_epik_Tot_abs_Q>  (24) 
0

>  <s_epik_Chemistry_Notes>  (24) 
This compound has an ester and may undergo hydrolysis at high or low pH.

>  <s_lp_Force_Field>  (24) 
OPLS3e

>  <r_lp_Energy>  (24) 
39.575

>  <b_lp_Chiralities_Consistent>  (24) 
1

>  <s_lp_Variant>  (24) 
10:0-1

>  <s_i_glide_gridfile>  (24) 
pfpi4k_grid

>  <i_i_glide_lignum>  (24) 
12

>  <i_i_glide_rotatable_bonds>  (24) 
0

>  <r_i_docking_score>  (24) 
-3.64493

>  <r_i_glide_ligand_efficiency>  (24) 
-0.260352

>  <r_i_glide_ligand_efficiency_sa>  (24) 
-0.627487

>  <r_i_glide_ligand_efficiency_ln>  (24) 
-1.00162

>  <r_i_glide_gscore>  (24) 
-3.64493

>  <r_i_glide_lipo>  (24) 
-0.319942

>  <r_i_glide_hbond>  (24) 
-0.0531258

>  <r_i_glide_metal>  (24) 
-0

>  <r_i_glide_rewards>  (24) 
-2.08452

>  <r_i_glide_evdw>  (24) 
-16.7509

>  <r_i_glide_ecoul>  (24) 
-2.32561

>  <r_i_glide_erotb>  (24) 
0

>  <r_i_glide_esite>  (24) 
-0.000958543

>  <r_i_glide_emodel>  (24) 
-23.514

>  <r_i_glide_energy>  (24) 
-19.0765

>  <r_i_glide_einternal>  (24) 
0

>  <r_i_glide_intrahb_reward>  (24) 
-0

>  <i_i_glide_confnum>  (24) 
1

>  <i_i_glide_posenum>  (24) 
7

>  <r_i_glide_eff_state_penalty>  (24) 
0

>  <ligand_id>  (24) 
10

>  <original_smiles>  (24) 
CC1C2(C)OC(=O)C3(C)C2CCC13C

>  <smiles>  (24) 
[H]C([H])([H])C1([H])C2(C([H])([H])[H])OC(=O)C3(C([H])([H])[H])C2([H])C([H])([H])C([H])([H])C13C([H])([H])[H]

$$$$
11:0:0
     RDKit          3D

 44 49  0  0  1  0  0  0  0  0999 V2000
    0.3234    5.3699    3.4793 C   0  0  0  0  0  0  0  0  0  0  0  0
    0.2435    4.2529    4.4959 C   0  0  0  0  0  0  0  0  0  0  0  0
   -0.7250    3.9550    5.3579 C   0  0  0  0  0  0  0  0  0  0  0  0
   -1.7482    2.9279    4.8588 C   0  0  1  0  0  0  0  0  0  0  0  0
   -2.5001    3.4164    3.7553 O   0  0  0  0  0  0  0  0  0  0  0  0
   -1.3430    1.3856    4.6237 C   0  0  2  0  0  0  0  0  0  0  0  0
   -0.9591    0.8137    6.0029 C   0  0  0  0  0  0  0  0  0  0  0  0
   -1.8096    0.5431    6.8488 O   0  0  0  0  0  0  0  0  0  0  0  0
    0.5420    0.5579    6.2758 C   0  0  0  0  0  0  0  0  0  0  0  0
    1.4470    0.7037    5.0285 C   0  0  1  0  0  0  0  0  0  0  0  0
    0.7310   -0.0937    3.9079 C   0  0  0  0  0  0  0  0  0  0  0  0
    1.7593   -0.5552    2.8083 C   0  0  0  0  0  0  0  0  0  0  0  0
    0.1006   -1.4822    4.2912 C   0  0  0  0  0  0  0  0  0  0  0  0
   -0.3044    0.9782    3.4992 C   0  0  1  0  0  0  0  0  0  0  0  0
   -0.5322    0.9771    2.0889 O   0  0  0  0  0  0  0  0  0  0  0  0
    0.1690    2.1243    2.6376 C   0  0  2  0  0  0  0  0  0  0  0  0
    1.6503    2.3561    2.9663 C   0  0  0  0  0  0  0  0  0  0  0  0
    1.9214    2.1883    4.5202 C   0  0  2  0  0  0  0  0  0  0  0  0
    3.4602    2.2933    4.7328 C   0  0  0  0  0  0  0  0  0  0  0  0
    1.3005    3.4895    5.1912 C   0  0  1  0  0  0  0  0  0  0  0  0
    1.6521    3.9676    6.4457 O   0  0  0  0  0  0  0  0  0  0  0  0
    0.2943    3.4744    6.3400 C   0  0  1  0  0  0  0  0  0  0  0  0
    1.1906    5.3089    2.8511 H   0  0  0  0  0  0  0  0  0  0  0  0
    0.3159    6.3626    3.9363 H   0  0  0  0  0  0  0  0  0  0  0  0
   -0.5398    5.3294    2.8066 H   0  0  0  0  0  0  0  0  0  0  0  0
   -2.5288    2.8655    5.6329 H   0  0  0  0  0  0  0  0  0  0  0  0
   -1.9984    3.2841    2.9618 H   0  0  0  0  0  0  0  0  0  0  0  0
   -2.2372    0.8487    4.3633 H   0  0  0  0  0  0  0  0  0  0  0  0
    0.9239    1.1081    7.1321 H   0  0  0  0  0  0  0  0  0  0  0  0
    0.6098   -0.4806    6.6157 H   0  0  0  0  0  0  0  0  0  0  0  0
    2.3456    0.1718    5.2818 H   0  0  0  0  0  0  0  0  0  0  0  0
    1.9124   -1.6326    2.7899 H   0  0  0  0  0  0  0  0  0  0  0  0
    2.7631   -0.1715    2.9930 H   0  0  0  0  0  0  0  0  0  0  0  0
    1.4686   -0.2926    1.7940 H   0  0  0  0  0  0  0  0  0  0  0  0
   -0.1592   -2.0494    3.4002 H   0  0  0  0  0  0  0  0  0  0  0  0
   -0.8169   -1.4680    4.8681 H   0  0  0  0  0  0  0  0  0  0  0  0
    0.8196   -2.0944    4.8383 H   0  0  0  0  0  0  0  0  0  0  0  0
   -0.4408    3.0072    2.4842 H   0  0  0  0  0  0  0  0  0  0  0  0
    2.2786    1.7613    2.3376 H   0  0  0  0  0  0  0  0  0  0  0  0
    1.9185    3.3538    2.6190 H   0  0  0  0  0  0  0  0  0  0  0  0
    3.8406    3.2615    4.3849 H   0  0  0  0  0  0  0  0  0  0  0  0
    3.9589    1.5066    4.1785 H   0  0  0  0  0  0  0  0  0  0  0  0
    3.6951    2.1934    5.7933 H   0  0  0  0  0  0  0  0  0  0  0  0
    0.0848    2.8628    7.2064 H   0  0  0  0  0  0  0  0  0  0  0  0
  1  2  1  0
  1 23  1  0
  1 24  1  0
  1 25  1  0
  2 20  1  0
  2  3  2  0
  3 22  1  0
  3  4  1  0
  4  5  1  0
  4  6  1  0
  4 26  1  1
  5 27  1  0
  6 14  1  0
  6  7  1  0
  6 28  1  6
  7  8  2  0
  7  9  1  0
  9 10  1  0
  9 29  1  0
  9 30  1  0
 10 18  1  0
 10 11  1  0
 10 31  1  1
 11 12  1  0
 11 13  1  0
 11 14  1  0
 12 32  1  0
 12 33  1  0
 12 34  1  0
 13 35  1  0
 13 36  1  0
 13 37  1  0
 14 16  1  0
 14 15  1  6
 15 16  1  0
 16 17  1  0
 16 38  1  1
 17 18  1  0
 17 39  1  0
 17 40  1  0
 18 19  1  6
 18 20  1  0
 19 41  1  0
 19 42  1  0
 19 43  1  0
 20 22  1  0
 20 21  1  1
 21 22  1  0
 22 44  1  1
M  END
>  <i_m_ct_stereo_status>  (25) 
1

>  <s_m_source_file>  (25) 
/var/tmp/pbs.5076255.sched01/tmpcm5es6vs/0d3z1so5d.sdf

>  <i_m_source_file_index>  (25) 
13

>  <i_lp_mmshare_version>  (25) 
48012

>  <i_f3d_flags>  (25) 
2

>  <s_epik_input>  (25) 
QzEyM1tDQEBIXTRbQ0BIXShbT0hdKUM1W0NIXTZDKE82KShDPTVbQ0gzXSlbQ0BdKFtDSDNdKShbQ0gyXVtDQEBIXTNPMilbQ0BASF0oW0NIMl1DND1PKUMxKFtDSDNdKVtDSDNd

>  <s_epik_cmdline>  (25) 
J2VwaWtfcHl0aG9uJywgJy1waHQnLCAnMi4wJywgJy1waCcsICc3LjAnLCAnLXRuJywgJzgnLCAnLW1hJywgJzIwMCcsICctaW1hZScsICc8aW5maWxlLm1hZT4nLCAnLW9tYWUnLCAnPG91dGZpbGUubWFlPic=

>  <r_lp_tautomer_probability>  (25) 
1

>  <r_epik_Ionization_Penalty>  (25) 
1.30873e-05

>  <r_epik_Ionization_Penalty_Charging>  (25) 
0

>  <r_epik_Ionization_Penalty_Neutral>  (25) 
1.30873e-05

>  <r_epik_State_Penalty>  (25) 
-0

>  <r_epik_Charging_Adjusted_Penalty>  (25) 
0

>  <i_epik_Tot_Q>  (25) 
0

>  <i_epik_Tot_abs_Q>  (25) 
0

>  <s_lp_Force_Field>  (25) 
OPLS3e

>  <r_lp_Energy>  (25) 
114.989

>  <b_lp_Chiralities_Consistent>  (25) 
0

>  <s_lp_Variant>  (25) 
11:0-1

>  <s_i_glide_gridfile>  (25) 
pfpi4k_grid

>  <i_i_glide_lignum>  (25) 
13

>  <i_i_glide_rotatable_bonds>  (25) 
1

>  <r_i_docking_score>  (25) 
-3.3704

>  <r_i_glide_ligand_efficiency>  (25) 
-0.1532

>  <r_i_glide_ligand_efficiency_sa>  (25) 
-0.429272

>  <r_i_glide_ligand_efficiency_ln>  (25) 
-0.823848

>  <r_i_glide_gscore>  (25) 
-3.3704

>  <r_i_glide_lipo>  (25) 
0

>  <r_i_glide_hbond>  (25) 
-0.16

>  <r_i_glide_metal>  (25) 
-0

>  <r_i_glide_rewards>  (25) 
-1.34751

>  <r_i_glide_evdw>  (25) 
-20.1156

>  <r_i_glide_ecoul>  (25) 
-5.48996

>  <r_i_glide_erotb>  (25) 
0

>  <r_i_glide_esite>  (25) 
-0.0336132

>  <r_i_glide_emodel>  (25) 
-31.0174

>  <r_i_glide_energy>  (25) 
-25.6055

>  <r_i_glide_einternal>  (25) 
0.00438391

>  <r_i_glide_intrahb_reward>  (25) 
-0

>  <i_i_glide_confnum>  (25) 
1

>  <i_i_glide_posenum>  (25) 
25

>  <r_i_glide_eff_state_penalty>  (25) 
0

>  <ligand_id>  (25) 
11

>  <original_smiles>  (25) 
CC1=C2C(O)C3C(=O)CC4C(C)(C)C35OC5CC4(C)C13OC23

>  <smiles>  (25) 
[H]OC1([H])C2=C(C([H])([H])[H])C3(OC23[H])C2(C([H])([H])[H])C([H])([H])C3([H])OC34C1([H])C(=O)C([H])([H])C2([H])C4(C([H])([H])[H])C([H])([H])[H]

$$$$
11:0:1
     RDKit          3D

 44 49  0  0  1  0  0  0  0  0999 V2000
   -2.5073    2.9646    3.6697 C   0  0  0  0  0  0  0  0  0  0  0  0
   -1.4727    3.1081    4.7735 C   0  0  0  0  0  0  0  0  0  0  0  0
   -1.5152    2.8569    6.0871 C   0  0  0  0  0  0  0  0  0  0  0  0
   -1.2452    1.4159    6.6136 C   0  0  1  0  0  0  0  0  0  0  0  0
   -2.1727    0.4929    6.1036 O   0  0  0  0  0  0  0  0  0  0  0  0
    0.2266    0.8392    6.5321 C   0  0  2  0  0  0  0  0  0  0  0  0
    1.0893    1.6966    7.4832 C   0  0  0  0  0  0  0  0  0  0  0  0
    0.9833    1.6024    8.6976 O   0  0  0  0  0  0  0  0  0  0  0  0
    2.0939    2.6895    6.8363 C   0  0  0  0  0  0  0  0  0  0  0  0
    2.2508    2.5213    5.3034 C   0  0  1  0  0  0  0  0  0  0  0  0
    2.4486    0.9938    5.0735 C   0  0  0  0  0  0  0  0  0  0  0  0
    3.2146    0.7333    3.7230 C   0  0  0  0  0  0  0  0  0  0  0  0
    3.3651    0.2106    6.0752 C   0  0  0  0  0  0  0  0  0  0  0  0
    0.9477    0.5817    5.1354 C   0  0  1  0  0  0  0  0  0  0  0  0
    0.6432   -0.4394    4.2065 O   0  0  0  0  0  0  0  0  0  0  0  0
    0.0895    0.8626    3.9258 C   0  0  2  0  0  0  0  0  0  0  0  0
    0.6771    2.1013    3.2289 C   0  0  0  0  0  0  0  0  0  0  0  0
    1.1543    3.1880    4.2838 C   0  0  2  0  0  0  0  0  0  0  0  0
    1.8686    4.3120    3.4926 C   0  0  0  0  0  0  0  0  0  0  0  0
   -0.1952    3.8205    4.8497 C   0  0  1  0  0  0  0  0  0  0  0  0
   -0.2936    5.0671    5.4644 O   0  0  0  0  0  0  0  0  0  0  0  0
   -0.5157    3.9395    6.3384 C   0  0  1  0  0  0  0  0  0  0  0  0
   -2.0663    3.1036    2.6975 H   0  0  0  0  0  0  0  0  0  0  0  0
   -3.3007    3.6961    3.7578 H   0  0  0  0  0  0  0  0  0  0  0  0
   -2.9606    1.9890    3.6917 H   0  0  0  0  0  0  0  0  0  0  0  0
   -1.5006    1.4491    7.6742 H   0  0  0  0  0  0  0  0  0  0  0  0
   -2.1106    0.4817    5.1594 H   0  0  0  0  0  0  0  0  0  0  0  0
    0.2175   -0.1430    7.0104 H   0  0  0  0  0  0  0  0  0  0  0  0
    1.9124    3.7203    7.1182 H   0  0  0  0  0  0  0  0  0  0  0  0
    3.0533    2.4800    7.3047 H   0  0  0  0  0  0  0  0  0  0  0  0
    3.2048    2.9953    5.0883 H   0  0  0  0  0  0  0  0  0  0  0  0
    4.2162    0.3268    3.8677 H   0  0  0  0  0  0  0  0  0  0  0  0
    3.4050    1.6513    3.1678 H   0  0  0  0  0  0  0  0  0  0  0  0
    2.7148    0.0284    3.0602 H   0  0  0  0  0  0  0  0  0  0  0  0
    3.6023   -0.7853    5.7012 H   0  0  0  0  0  0  0  0  0  0  0  0
    2.9691    0.0286    7.0700 H   0  0  0  0  0  0  0  0  0  0  0  0
    4.3189    0.7259    6.2062 H   0  0  0  0  0  0  0  0  0  0  0  0
   -0.9945    0.7895    3.9312 H   0  0  0  0  0  0  0  0  0  0  0  0
    1.4278    1.8126    2.5051 H   0  0  0  0  0  0  0  0  0  0  0  0
   -0.0688    2.5156    2.5565 H   0  0  0  0  0  0  0  0  0  0  0  0
    1.1953    4.7829    2.7698 H   0  0  0  0  0  0  0  0  0  0  0  0
    2.7305    3.9154    2.9443 H   0  0  0  0  0  0  0  0  0  0  0  0
    2.2190    5.0931    4.1729 H   0  0  0  0  0  0  0  0  0  0  0  0
    0.0141    4.1084    7.2551 H   0  0  0  0  0  0  0  0  0  0  0  0
  1  2  1  0
  1 23  1  0
  1 24  1  0
  1 25  1  0
  2 20  1  0
  2  3  2  0
  3 22  1  0
  3  4  1  0
  4  5  1  0
  4  6  1  0
  4 26  1  1
  5 27  1  0
  6 14  1  0
  6  7  1  0
  6 28  1  1
  7  8  2  0
  7  9  1  0
  9 10  1  0
  9 29  1  0
  9 30  1  0
 10 18  1  0
 10 11  1  0
 10 31  1  6
 11 12  1  0
 11 13  1  0
 11 14  1  0
 12 32  1  0
 12 33  1  0
 12 34  1  0
 13 35  1  0
 13 36  1  0
 13 37  1  0
 14 16  1  0
 14 15  1  1
 15 16  1  0
 16 17  1  0
 16 38  1  1
 17 18  1  0
 17 39  1  0
 17 40  1  0
 18 19  1  6
 18 20  1  0
 19 41  1  0
 19 42  1  0
 19 43  1  0
 20 22  1  0
 20 21  1  6
 21 22  1  0
 22 44  1  1
M  END
>  <i_m_ct_stereo_status>  (26) 
1

>  <s_m_source_file>  (26) 
/var/tmp/pbs.5076255.sched01/tmpcm5es6vs/0d3z1so5d.sdf

>  <i_m_source_file_index>  (26) 
13

>  <i_lp_mmshare_version>  (26) 
48012

>  <i_f3d_flags>  (26) 
2

>  <s_epik_input>  (26) 
QzEyM1tDQEBIXTRbQ0BIXShbT0hdKUM1W0NIXTZDKE82KShDPTVbQ0gzXSlbQ0BdKFtDSDNdKShbQ0gyXVtDQEBIXTNPMilbQ0BASF0oW0NIMl1DND1PKUMxKFtDSDNdKVtDSDNd

>  <s_epik_cmdline>  (26) 
J2VwaWtfcHl0aG9uJywgJy1waHQnLCAnMi4wJywgJy1waCcsICc3LjAnLCAnLXRuJywgJzgnLCAnLW1hJywgJzIwMCcsICctaW1hZScsICc8aW5maWxlLm1hZT4nLCAnLW9tYWUnLCAnPG91dGZpbGUubWFlPic=

>  <r_lp_tautomer_probability>  (26) 
1

>  <r_epik_Ionization_Penalty>  (26) 
1.30873e-05

>  <r_epik_Ionization_Penalty_Charging>  (26) 
0

>  <r_epik_Ionization_Penalty_Neutral>  (26) 
1.30873e-05

>  <r_epik_State_Penalty>  (26) 
-0

>  <r_epik_Charging_Adjusted_Penalty>  (26) 
0

>  <i_epik_Tot_Q>  (26) 
0

>  <i_epik_Tot_abs_Q>  (26) 
0

>  <s_lp_Force_Field>  (26) 
OPLS3e

>  <r_lp_Energy>  (26) 
114.989

>  <b_lp_Chiralities_Consistent>  (26) 
0

>  <s_lp_Variant>  (26) 
11:0-1

>  <s_i_glide_gridfile>  (26) 
pfpi4k_grid

>  <i_i_glide_lignum>  (26) 
13

>  <i_i_glide_rotatable_bonds>  (26) 
1

>  <r_i_docking_score>  (26) 
-2.99045

>  <r_i_glide_ligand_efficiency>  (26) 
-0.13593

>  <r_i_glide_ligand_efficiency_sa>  (26) 
-0.38088

>  <r_i_glide_ligand_efficiency_ln>  (26) 
-0.730975

>  <r_i_glide_gscore>  (26) 
-2.99045

>  <r_i_glide_lipo>  (26) 
-0.0349942

>  <r_i_glide_hbond>  (26) 
-0.139977

>  <r_i_glide_metal>  (26) 
-0

>  <r_i_glide_rewards>  (26) 
-1.34751

>  <r_i_glide_evdw>  (26) 
-17.3887

>  <r_i_glide_ecoul>  (26) 
-3.99016

>  <r_i_glide_erotb>  (26) 
0

>  <r_i_glide_esite>  (26) 
-6.85309e-06

>  <r_i_glide_emodel>  (26) 
-26.1124

>  <r_i_glide_energy>  (26) 
-21.3789

>  <r_i_glide_einternal>  (26) 
0.144262

>  <r_i_glide_intrahb_reward>  (26) 
-0

>  <i_i_glide_confnum>  (26) 
2

>  <i_i_glide_posenum>  (26) 
30

>  <r_i_glide_eff_state_penalty>  (26) 
0

>  <ligand_id>  (26) 
11

>  <original_smiles>  (26) 
CC1=C2C(O)C3C(=O)CC4C(C)(C)C35OC5CC4(C)C13OC23

>  <smiles>  (26) 
[H]OC1([H])C2=C(C([H])([H])[H])C3(OC23[H])C2(C([H])([H])[H])C([H])([H])C3([H])OC34C1([H])C(=O)C([H])([H])C2([H])C4(C([H])([H])[H])C([H])([H])[H]

$$$$
11:0:2
     RDKit          3D

 44 49  0  0  1  0  0  0  0  0999 V2000
   -2.1800    2.9496    3.6775 C   0  0  0  0  0  0  0  0  0  0  0  0
   -0.9763    2.7507    4.5864 C   0  0  0  0  0  0  0  0  0  0  0  0
   -0.9276    2.3508    5.8411 C   0  0  0  0  0  0  0  0  0  0  0  0
   -0.6924    0.8362    6.0450 C   0  0  1  0  0  0  0  0  0  0  0  0
   -1.7944    0.0713    5.5668 O   0  0  0  0  0  0  0  0  0  0  0  0
    0.6909    0.1403    5.6091 C   0  0  2  0  0  0  0  0  0  0  0  0
    1.7781    0.7289    6.5384 C   0  0  0  0  0  0  0  0  0  0  0  0
    1.8444    0.4099    7.7188 O   0  0  0  0  0  0  0  0  0  0  0  0
    2.7774    1.7341    5.9176 C   0  0  0  0  0  0  0  0  0  0  0  0
    2.6806    1.8476    4.3782 C   0  0  1  0  0  0  0  0  0  0  0  0
    2.6634    0.3799    3.8586 C   0  0  0  0  0  0  0  0  0  0  0  0
    3.1785    0.3046    2.3786 C   0  0  0  0  0  0  0  0  0  0  0  0
    3.6313   -0.6525    4.5397 C   0  0  0  0  0  0  0  0  0  0  0  0
    1.1665    0.0895    4.1054 C   0  0  1  0  0  0  0  0  0  0  0  0
    0.6329   -0.7351    3.0801 O   0  0  0  0  0  0  0  0  0  0  0  0
    0.1678    0.6335    3.1084 C   0  0  2  0  0  0  0  0  0  0  0  0
    0.7730    1.9352    2.5482 C   0  0  0  0  0  0  0  0  0  0  0  0
    1.5141    2.7739    3.6772 C   0  0  2  0  0  0  0  0  0  0  0  0
    2.2221    3.9602    2.9862 C   0  0  0  0  0  0  0  0  0  0  0  0
    0.3675    3.3993    4.5454 C   0  0  1  0  0  0  0  0  0  0  0  0
    0.5130    4.4927    5.4135 O   0  0  0  0  0  0  0  0  0  0  0  0
    0.2708    3.2481    6.0686 C   0  0  1  0  0  0  0  0  0  0  0  0
   -1.9115    3.2320    2.6697 H   0  0  0  0  0  0  0  0  0  0  0  0
   -2.8551    3.7052    4.0562 H   0  0  0  0  0  0  0  0  0  0  0  0
   -2.7518    2.0217    3.6060 H   0  0  0  0  0  0  0  0  0  0  0  0
   -0.7553    0.6473    7.1129 H   0  0  0  0  0  0  0  0  0  0  0  0
   -1.8551    0.1891    4.6253 H   0  0  0  0  0  0  0  0  0  0  0  0
    0.6425   -0.9031    5.9115 H   0  0  0  0  0  0  0  0  0  0  0  0
    2.7608    2.7056    6.3982 H   0  0  0  0  0  0  0  0  0  0  0  0
    3.7694    1.3602    6.1666 H   0  0  0  0  0  0  0  0  0  0  0  0
    3.6269    2.2741    4.0743 H   0  0  0  0  0  0  0  0  0  0  0  0
    4.1379   -0.2042    2.2800 H   0  0  0  0  0  0  0  0  0  0  0  0
    3.3878    1.2862    1.9566 H   0  0  0  0  0  0  0  0  0  0  0  0
    2.5093   -0.2242    1.6944 H   0  0  0  0  0  0  0  0  0  0  0  0
    3.6955   -1.5744    3.9581 H   0  0  0  0  0  0  0  0  0  0  0  0
    3.3782   -0.9895    5.5370 H   0  0  0  0  0  0  0  0  0  0  0  0
    4.6443   -0.2506    4.5878 H   0  0  0  0  0  0  0  0  0  0  0  0
   -0.8938    0.6365    3.2871 H   0  0  0  0  0  0  0  0  0  0  0  0
    1.3598    1.7331    1.6719 H   0  0  0  0  0  0  0  0  0  0  0  0
   -0.0333    2.5172    2.1024 H   0  0  0  0  0  0  0  0  0  0  0  0
    1.4942    4.6135    2.4842 H   0  0  0  0  0  0  0  0  0  0  0  0
    2.9347    3.6059    2.2447 H   0  0  0  0  0  0  0  0  0  0  0  0
    2.7493    4.5721    3.7199 H   0  0  0  0  0  0  0  0  0  0  0  0
    0.9414    3.1614    6.9149 H   0  0  0  0  0  0  0  0  0  0  0  0
  1  2  1  0
  1 23  1  0
  1 24  1  0
  1 25  1  0
  2 20  1  0
  2  3  2  0
  3 22  1  0
  3  4  1  0
  4  5  1  0
  4  6  1  0
  4 26  1  1
  5 27  1  0
  6 14  1  0
  6  7  1  0
  6 28  1  1
  7  8  2  0
  7  9  1  0
  9 10  1  0
  9 29  1  0
  9 30  1  0
 10 18  1  0
 10 11  1  0
 10 31  1  6
 11 12  1  0
 11 13  1  0
 11 14  1  0
 12 32  1  0
 12 33  1  0
 12 34  1  0
 13 35  1  0
 13 36  1  0
 13 37  1  0
 14 16  1  0
 14 15  1  6
 15 16  1  0
 16 17  1  0
 16 38  1  1
 17 18  1  0
 17 39  1  0
 17 40  1  0
 18 19  1  6
 18 20  1  0
 19 41  1  0
 19 42  1  0
 19 43  1  0
 20 22  1  0
 20 21  1  1
 21 22  1  0
 22 44  1  1
M  END
>  <i_m_ct_stereo_status>  (27) 
1

>  <s_m_source_file>  (27) 
/var/tmp/pbs.5076255.sched01/tmpcm5es6vs/0d3z1so5d.sdf

>  <i_m_source_file_index>  (27) 
13

>  <i_lp_mmshare_version>  (27) 
48012

>  <i_f3d_flags>  (27) 
2

>  <s_epik_input>  (27) 
QzEyM1tDQEBIXTRbQ0BIXShbT0hdKUM1W0NIXTZDKE82KShDPTVbQ0gzXSlbQ0BdKFtDSDNdKShbQ0gyXVtDQEBIXTNPMilbQ0BASF0oW0NIMl1DND1PKUMxKFtDSDNdKVtDSDNd

>  <s_epik_cmdline>  (27) 
J2VwaWtfcHl0aG9uJywgJy1waHQnLCAnMi4wJywgJy1waCcsICc3LjAnLCAnLXRuJywgJzgnLCAnLW1hJywgJzIwMCcsICctaW1hZScsICc8aW5maWxlLm1hZT4nLCAnLW9tYWUnLCAnPG91dGZpbGUubWFlPic=

>  <r_lp_tautomer_probability>  (27) 
1

>  <r_epik_Ionization_Penalty>  (27) 
1.30873e-05

>  <r_epik_Ionization_Penalty_Charging>  (27) 
0

>  <r_epik_Ionization_Penalty_Neutral>  (27) 
1.30873e-05

>  <r_epik_State_Penalty>  (27) 
-0

>  <r_epik_Charging_Adjusted_Penalty>  (27) 
0

>  <i_epik_Tot_Q>  (27) 
0

>  <i_epik_Tot_abs_Q>  (27) 
0

>  <s_lp_Force_Field>  (27) 
OPLS3e

>  <r_lp_Energy>  (27) 
114.989

>  <b_lp_Chiralities_Consistent>  (27) 
0

>  <s_lp_Variant>  (27) 
11:0-1

>  <s_i_glide_gridfile>  (27) 
pfpi4k_grid

>  <i_i_glide_lignum>  (27) 
13

>  <i_i_glide_rotatable_bonds>  (27) 
1

>  <r_i_docking_score>  (27) 
-2.76882

>  <r_i_glide_ligand_efficiency>  (27) 
-0.125855

>  <r_i_glide_ligand_efficiency_sa>  (27) 
-0.352652

>  <r_i_glide_ligand_efficiency_ln>  (27) 
-0.6768

>  <r_i_glide_gscore>  (27) 
-2.76882

>  <r_i_glide_lipo>  (27) 
-0.0536939

>  <r_i_glide_hbond>  (27) 
0

>  <r_i_glide_metal>  (27) 
-0

>  <r_i_glide_rewards>  (27) 
-1.34751

>  <r_i_glide_evdw>  (27) 
-20.168

>  <r_i_glide_ecoul>  (27) 
-2.39475

>  <r_i_glide_erotb>  (27) 
0

>  <r_i_glide_esite>  (27) 
0

>  <r_i_glide_emodel>  (27) 
-26.9178

>  <r_i_glide_energy>  (27) 
-22.5628

>  <r_i_glide_einternal>  (27) 
0.115096

>  <r_i_glide_intrahb_reward>  (27) 
-0

>  <i_i_glide_confnum>  (27) 
1

>  <i_i_glide_posenum>  (27) 
33

>  <r_i_glide_eff_state_penalty>  (27) 
0

>  <ligand_id>  (27) 
11

>  <original_smiles>  (27) 
CC1=C2C(O)C3C(=O)CC4C(C)(C)C35OC5CC4(C)C13OC23

>  <smiles>  (27) 
[H]OC1([H])C2=C(C([H])([H])[H])C3(OC23[H])C2(C([H])([H])[H])C([H])([H])C3([H])OC34C1([H])C(=O)C([H])([H])C2([H])C4(C([H])([H])[H])C([H])([H])[H]

$$$$
11:1:0
     RDKit          3D

 44 49  0  0  1  0  0  0  0  0999 V2000
    4.2360   -0.8084   -1.8945 C   0  0  0  0  0  0  0  0  0  0  0  0
    4.8665   -1.1767   -0.5846 C   0  0  0  0  0  0  0  0  0  0  0  0
    6.1781   -1.3676   -0.2167 C   0  0  0  0  0  0  0  0  0  0  0  0
    6.7752   -2.7638   -0.2768 C   0  0  1  0  0  0  0  0  0  0  0  0
    7.9540   -2.8637    0.4885 O   0  0  0  0  0  0  0  0  0  0  0  0
    5.8278   -4.0075   -0.0800 C   0  0  2  0  0  0  0  0  0  0  0  0
    4.7711   -4.0009   -1.1986 C   0  0  0  0  0  0  0  0  0  0  0  0
    5.0849   -4.1756   -2.3579 O   0  0  0  0  0  0  0  0  0  0  0  0
    3.3356   -3.6564   -0.7352 C   0  0  0  0  0  0  0  0  0  0  0  0
    3.1952   -3.6230    0.8024 C   0  0  1  0  0  0  0  0  0  0  0  0
    3.8118   -4.9785    1.3237 C   0  0  0  0  0  0  0  0  0  0  0  0
    3.0518   -5.3644    2.6451 C   0  0  0  0  0  0  0  0  0  0  0  0
    3.5910   -6.2679    0.4799 C   0  0  0  0  0  0  0  0  0  0  0  0
    5.2710   -4.4610    1.3265 C   0  0  1  0  0  0  0  0  0  0  0  0
    6.4121   -4.6900    2.1200 O   0  0  0  0  0  0  0  0  0  0  0  0
    5.3856   -3.9865    2.8058 C   0  0  1  0  0  0  0  0  0  0  0  0
    4.6617   -2.6420    2.8280 C   0  0  0  0  0  0  0  0  0  0  0  0
    3.7179   -2.2669    1.5994 C   0  0  2  0  0  0  0  0  0  0  0  0
    2.4433   -1.6127    2.1787 C   0  0  0  0  0  0  0  0  0  0  0  0
    4.4078   -1.0753    0.8079 C   0  0  2  0  0  0  0  0  0  0  0  0
    4.8072    0.1293    1.3978 O   0  0  0  0  0  0  0  0  0  0  0  0
    5.8650   -0.8084    1.1078 C   0  0  2  0  0  0  0  0  0  0  0  0
    3.1575   -0.7954   -1.7812 H   0  0  0  0  0  0  0  0  0  0  0  0
    4.4779   -1.5303   -2.6753 H   0  0  0  0  0  0  0  0  0  0  0  0
    4.5308    0.1746   -2.2526 H   0  0  0  0  0  0  0  0  0  0  0  0
    7.1487   -2.8310   -1.2995 H   0  0  0  0  0  0  0  0  0  0  0  0
    7.7011   -3.0345    1.3855 H   0  0  0  0  0  0  0  0  0  0  0  0
    6.4387   -4.8501   -0.3671 H   0  0  0  0  0  0  0  0  0  0  0  0
    2.9734   -2.7275   -1.1659 H   0  0  0  0  0  0  0  0  0  0  0  0
    2.6604   -4.4105   -1.1392 H   0  0  0  0  0  0  0  0  0  0  0  0
    2.1197   -3.6936    0.9566 H   0  0  0  0  0  0  0  0  0  0  0  0
    3.5495   -6.1562    3.2065 H   0  0  0  0  0  0  0  0  0  0  0  0
    2.0588   -5.7521    2.4128 H   0  0  0  0  0  0  0  0  0  0  0  0
    2.8511   -4.5423    3.3274 H   0  0  0  0  0  0  0  0  0  0  0  0
    3.7639   -7.1693    1.0686 H   0  0  0  0  0  0  0  0  0  0  0  0
    4.2273   -6.3864   -0.3913 H   0  0  0  0  0  0  0  0  0  0  0  0
    2.5567   -6.3164    0.1374 H   0  0  0  0  0  0  0  0  0  0  0  0
    5.1421   -4.5827    3.6785 H   0  0  0  0  0  0  0  0  0  0  0  0
    3.9739   -2.7527    3.6651 H   0  0  0  0  0  0  0  0  0  0  0  0
    5.2877   -1.8768    3.2598 H   0  0  0  0  0  0  0  0  0  0  0  0
    2.6952   -0.7479    2.7970 H   0  0  0  0  0  0  0  0  0  0  0  0
    1.8791   -2.3178    2.7972 H   0  0  0  0  0  0  0  0  0  0  0  0
    1.7882   -1.2650    1.3729 H   0  0  0  0  0  0  0  0  0  0  0  0
    6.5336   -0.9847    1.9594 H   0  0  0  0  0  0  0  0  0  0  0  0
  1  2  1  0
  1 23  1  0
  1 24  1  0
  1 25  1  0
  2 20  1  0
  2  3  2  0
  3 22  1  0
  3  4  1  0
  4  5  1  0
  4  6  1  0
  4 26  1  6
  5 27  1  0
  6 14  1  0
  6  7  1  0
  6 28  1  6
  7  8  2  0
  7  9  1  0
  9 10  1  0
  9 29  1  0
  9 30  1  0
 10 18  1  0
 10 11  1  0
 10 31  1  6
 11 12  1  0
 11 13  1  0
 11 14  1  0
 12 32  1  0
 12 33  1  0
 12 34  1  0
 13 35  1  0
 13 36  1  0
 13 37  1  0
 14 16  1  0
 14 15  1  1
 15 16  1  0
 16 17  1  0
 16 38  1  1
 17 18  1  0
 17 39  1  0
 17 40  1  0
 18 19  1  1
 18 20  1  0
 19 41  1  0
 19 42  1  0
 19 43  1  0
 20 22  1  0
 20 21  1  6
 21 22  1  0
 22 44  1  1
M  END
>  <i_m_ct_stereo_status>  (28) 
1

>  <s_m_source_file>  (28) 
/var/tmp/pbs.5076255.sched01/tmpcm5es6vs/0d3z1so5d.sdf

>  <i_m_source_file_index>  (28) 
14

>  <i_lp_mmshare_version>  (28) 
48012

>  <i_f3d_flags>  (28) 
0

>  <s_epik_input>  (28) 
QzEyM1tDQEBIXTRbQ0BIXShbT0hdKUM1W0NIXTZDKE82KShDPTVbQ0gzXSlbQ0BdKFtDSDNdKShbQ0gyXVtDQEBIXTNPMilbQ0BASF0oW0NIMl1DND1PKUMxKFtDSDNdKVtDSDNd

>  <s_epik_cmdline>  (28) 
J2VwaWtfcHl0aG9uJywgJy1waHQnLCAnMi4wJywgJy1waCcsICc3LjAnLCAnLXRuJywgJzgnLCAnLW1hJywgJzIwMCcsICctaW1hZScsICc8aW5maWxlLm1hZT4nLCAnLW9tYWUnLCAnPG91dGZpbGUubWFlPic=

>  <r_lp_tautomer_probability>  (28) 
1

>  <r_epik_Ionization_Penalty>  (28) 
1.30873e-05

>  <r_epik_Ionization_Penalty_Charging>  (28) 
0

>  <r_epik_Ionization_Penalty_Neutral>  (28) 
1.30873e-05

>  <r_epik_State_Penalty>  (28) 
-0

>  <r_epik_Charging_Adjusted_Penalty>  (28) 
0

>  <i_epik_Tot_Q>  (28) 
0

>  <i_epik_Tot_abs_Q>  (28) 
0

>  <s_lp_Force_Field>  (28) 
OPLS3e

>  <r_lp_Energy>  (28) 
151.36

>  <b_lp_Chiralities_Consistent>  (28) 
1

>  <s_lp_Variant>  (28) 
11:0-2

>  <s_i_glide_gridfile>  (28) 
pfpi4k_grid

>  <i_i_glide_lignum>  (28) 
14

>  <i_i_glide_rotatable_bonds>  (28) 
1

>  <r_i_docking_score>  (28) 
-3.62447

>  <r_i_glide_ligand_efficiency>  (28) 
-0.164749

>  <r_i_glide_ligand_efficiency_sa>  (28) 
-0.461632

>  <r_i_glide_ligand_efficiency_ln>  (28) 
-0.885952

>  <r_i_glide_gscore>  (28) 
-3.62447

>  <r_i_glide_lipo>  (28) 
-0.379139

>  <r_i_glide_hbond>  (28) 
-0.134697

>  <r_i_glide_metal>  (28) 
-0

>  <r_i_glide_rewards>  (28) 
-1.84751

>  <r_i_glide_evdw>  (28) 
-21.6911

>  <r_i_glide_ecoul>  (28) 
-1.1065

>  <r_i_glide_erotb>  (28) 
0

>  <r_i_glide_esite>  (28) 
-0.0125922

>  <r_i_glide_emodel>  (28) 
-30.3983

>  <r_i_glide_energy>  (28) 
-22.7976

>  <r_i_glide_einternal>  (28) 
0.00784966

>  <r_i_glide_intrahb_reward>  (28) 
-0.5

>  <i_i_glide_confnum>  (28) 
1

>  <i_i_glide_posenum>  (28) 
1

>  <r_i_glide_eff_state_penalty>  (28) 
0

>  <ligand_id>  (28) 
11

>  <original_smiles>  (28) 
CC1=C2C(O)C3C(=O)CC4C(C)(C)C35OC5CC4(C)C13OC23

>  <smiles>  (28) 
[H]OC1([H])C2=C(C([H])([H])[H])C3(OC23[H])C2(C([H])([H])[H])C([H])([H])C3([H])OC34C1([H])C(=O)C([H])([H])C2([H])C4(C([H])([H])[H])C([H])([H])[H]

$$$$
11:1:1
     RDKit          3D

 44 49  0  0  1  0  0  0  0  0999 V2000
    3.8986   -3.0684   -2.4906 C   0  0  0  0  0  0  0  0  0  0  0  0
    4.7607   -3.2519   -1.2851 C   0  0  0  0  0  0  0  0  0  0  0  0
    5.5142   -4.3289   -0.8367 C   0  0  0  0  0  0  0  0  0  0  0  0
    4.9608   -5.3249    0.1629 C   0  0  1  0  0  0  0  0  0  0  0  0
    5.9772   -6.0779    0.8106 O   0  0  0  0  0  0  0  0  0  0  0  0
    3.8442   -4.8418    1.1507 C   0  0  2  0  0  0  0  0  0  0  0  0
    2.6314   -4.3319    0.3498 C   0  0  0  0  0  0  0  0  0  0  0  0
    1.8434   -5.0691   -0.1983 O   0  0  0  0  0  0  0  0  0  0  0  0
    2.4780   -2.7971    0.3650 C   0  0  0  0  0  0  0  0  0  0  0  0
    3.3508   -2.0743    1.3857 C   0  0  1  0  0  0  0  0  0  0  0  0
    3.1434   -2.8459    2.7457 C   0  0  0  0  0  0  0  0  0  0  0  0
    3.3632   -1.8098    3.9102 C   0  0  0  0  0  0  0  0  0  0  0  0
    1.7202   -3.3743    3.1147 C   0  0  0  0  0  0  0  0  0  0  0  0
    4.1678   -3.9624    2.4240 C   0  0  1  0  0  0  0  0  0  0  0  0
    5.0873   -4.7097    3.1775 O   0  0  0  0  0  0  0  0  0  0  0  0
    5.4399   -3.3425    3.0801 C   0  0  1  0  0  0  0  0  0  0  0  0
    5.9042   -2.2791    2.0856 C   0  0  0  0  0  0  0  0  0  0  0  0
    4.9145   -1.7977    0.9562 C   0  0  2  0  0  0  0  0  0  0  0  0
    5.0564   -0.2627    0.8485 C   0  0  0  0  0  0  0  0  0  0  0  0
    5.4948   -2.3137   -0.4170 C   0  0  2  0  0  0  0  0  0  0  0  0
    6.7842   -2.0570   -0.8543 O   0  0  0  0  0  0  0  0  0  0  0  0
    6.5530   -3.3929   -0.3735 C   0  0  2  0  0  0  0  0  0  0  0  0
    3.4332   -2.0929   -2.4540 H   0  0  0  0  0  0  0  0  0  0  0  0
    3.0940   -3.8105   -2.4840 H   0  0  0  0  0  0  0  0  0  0  0  0
    4.4394   -3.1666   -3.4326 H   0  0  0  0  0  0  0  0  0  0  0  0
    4.4790   -6.0481   -0.4960 H   0  0  0  0  0  0  0  0  0  0  0  0
    5.5484   -6.8145    1.1997 H   0  0  0  0  0  0  0  0  0  0  0  0
    3.4479   -5.7543    1.5613 H   0  0  0  0  0  0  0  0  0  0  0  0
    2.5841   -2.3509   -0.6158 H   0  0  0  0  0  0  0  0  0  0  0  0
    1.4410   -2.6005    0.6184 H   0  0  0  0  0  0  0  0  0  0  0  0
    2.8678   -1.1036    1.4954 H   0  0  0  0  0  0  0  0  0  0  0  0
    3.4778   -2.2869    4.8853 H   0  0  0  0  0  0  0  0  0  0  0  0
    2.4973   -1.1535    4.0016 H   0  0  0  0  0  0  0  0  0  0  0  0
    4.1930   -1.1197    3.7733 H   0  0  0  0  0  0  0  0  0  0  0  0
    1.6390   -3.5922    4.1789 H   0  0  0  0  0  0  0  0  0  0  0  0
    1.4197   -4.2931    2.6230 H   0  0  0  0  0  0  0  0  0  0  0  0
    0.9598   -2.6249    2.8966 H   0  0  0  0  0  0  0  0  0  0  0  0
    5.4984   -2.9826    4.1037 H   0  0  0  0  0  0  0  0  0  0  0  0
    6.0405   -1.4007    2.7163 H   0  0  0  0  0  0  0  0  0  0  0  0
    6.9395   -2.4346    1.8346 H   0  0  0  0  0  0  0  0  0  0  0  0
    6.0962    0.0272    0.6495 H   0  0  0  0  0  0  0  0  0  0  0  0
    4.7321    0.2217    1.7773 H   0  0  0  0  0  0  0  0  0  0  0  0
    4.4397    0.1236    0.0291 H   0  0  0  0  0  0  0  0  0  0  0  0
    7.2885   -3.7333    0.3784 H   0  0  0  0  0  0  0  0  0  0  0  0
  1  2  1  0
  1 23  1  0
  1 24  1  0
  1 25  1  0
  2 20  1  0
  2  3  2  0
  3 22  1  0
  3  4  1  0
  4  5  1  0
  4  6  1  0
  4 26  1  6
  5 27  1  0
  6 14  1  0
  6  7  1  0
  6 28  1  1
  7  8  2  0
  7  9  1  0
  9 10  1  0
  9 29  1  0
  9 30  1  0
 10 18  1  0
 10 11  1  0
 10 31  1  1
 11 12  1  0
 11 13  1  0
 11 14  1  0
 12 32  1  0
 12 33  1  0
 12 34  1  0
 13 35  1  0
 13 36  1  0
 13 37  1  0
 14 16  1  0
 14 15  1  1
 15 16  1  0
 16 17  1  0
 16 38  1  1
 17 18  1  0
 17 39  1  0
 17 40  1  0
 18 19  1  6
 18 20  1  0
 19 41  1  0
 19 42  1  0
 19 43  1  0
 20 22  1  0
 20 21  1  6
 21 22  1  0
 22 44  1  1
M  END
>  <i_m_ct_stereo_status>  (29) 
1

>  <s_m_source_file>  (29) 
/var/tmp/pbs.5076255.sched01/tmpcm5es6vs/0d3z1so5d.sdf

>  <i_m_source_file_index>  (29) 
14

>  <i_lp_mmshare_version>  (29) 
48012

>  <i_f3d_flags>  (29) 
0

>  <s_epik_input>  (29) 
QzEyM1tDQEBIXTRbQ0BIXShbT0hdKUM1W0NIXTZDKE82KShDPTVbQ0gzXSlbQ0BdKFtDSDNdKShbQ0gyXVtDQEBIXTNPMilbQ0BASF0oW0NIMl1DND1PKUMxKFtDSDNdKVtDSDNd

>  <s_epik_cmdline>  (29) 
J2VwaWtfcHl0aG9uJywgJy1waHQnLCAnMi4wJywgJy1waCcsICc3LjAnLCAnLXRuJywgJzgnLCAnLW1hJywgJzIwMCcsICctaW1hZScsICc8aW5maWxlLm1hZT4nLCAnLW9tYWUnLCAnPG91dGZpbGUubWFlPic=

>  <r_lp_tautomer_probability>  (29) 
1

>  <r_epik_Ionization_Penalty>  (29) 
1.30873e-05

>  <r_epik_Ionization_Penalty_Charging>  (29) 
0

>  <r_epik_Ionization_Penalty_Neutral>  (29) 
1.30873e-05

>  <r_epik_State_Penalty>  (29) 
-0

>  <r_epik_Charging_Adjusted_Penalty>  (29) 
0

>  <i_epik_Tot_Q>  (29) 
0

>  <i_epik_Tot_abs_Q>  (29) 
0

>  <s_lp_Force_Field>  (29) 
OPLS3e

>  <r_lp_Energy>  (29) 
151.36

>  <b_lp_Chiralities_Consistent>  (29) 
1

>  <s_lp_Variant>  (29) 
11:0-2

>  <s_i_glide_gridfile>  (29) 
pfpi4k_grid

>  <i_i_glide_lignum>  (29) 
14

>  <i_i_glide_rotatable_bonds>  (29) 
1

>  <r_i_docking_score>  (29) 
-3.50047

>  <r_i_glide_ligand_efficiency>  (29) 
-0.159112

>  <r_i_glide_ligand_efficiency_sa>  (29) 
-0.445839

>  <r_i_glide_ligand_efficiency_ln>  (29) 
-0.855644

>  <r_i_glide_gscore>  (29) 
-3.50047

>  <r_i_glide_lipo>  (29) 
-0.532048

>  <r_i_glide_hbond>  (29) 
-0.207832

>  <r_i_glide_metal>  (29) 
-0

>  <r_i_glide_rewards>  (29) 
-1.34751

>  <r_i_glide_evdw>  (29) 
-14.8951

>  <r_i_glide_ecoul>  (29) 
-4.22038

>  <r_i_glide_erotb>  (29) 
0

>  <r_i_glide_esite>  (29) 
-0.0352708

>  <r_i_glide_emodel>  (29) 
-21.6475

>  <r_i_glide_energy>  (29) 
-19.1155

>  <r_i_glide_einternal>  (29) 
0.461085

>  <r_i_glide_intrahb_reward>  (29) 
-0

>  <i_i_glide_confnum>  (29) 
1

>  <i_i_glide_posenum>  (29) 
10

>  <r_i_glide_eff_state_penalty>  (29) 
0

>  <ligand_id>  (29) 
11

>  <original_smiles>  (29) 
CC1=C2C(O)C3C(=O)CC4C(C)(C)C35OC5CC4(C)C13OC23

>  <smiles>  (29) 
[H]OC1([H])C2=C(C([H])([H])[H])C3(OC23[H])C2(C([H])([H])[H])C([H])([H])C3([H])OC34C1([H])C(=O)C([H])([H])C2([H])C4(C([H])([H])[H])C([H])([H])[H]

$$$$
11:1:2
     RDKit          3D

 44 49  0  0  1  0  0  0  0  0999 V2000
    3.8997   -3.0671   -2.4892 C   0  0  0  0  0  0  0  0  0  0  0  0
    4.7599   -3.2413   -1.2833 C   0  0  0  0  0  0  0  0  0  0  0  0
    5.5140   -4.3180   -0.8375 C   0  0  0  0  0  0  0  0  0  0  0  0
    4.9446   -5.3063    0.1547 C   0  0  1  0  0  0  0  0  0  0  0  0
    5.9814   -6.0400    0.7930 O   0  0  0  0  0  0  0  0  0  0  0  0
    3.8445   -4.8331    1.1570 C   0  0  2  0  0  0  0  0  0  0  0  0
    2.6353   -4.3227    0.3593 C   0  0  0  0  0  0  0  0  0  0  0  0
    1.8435   -5.0624   -0.1970 O   0  0  0  0  0  0  0  0  0  0  0  0
    2.4791   -2.7966    0.3672 C   0  0  0  0  0  0  0  0  0  0  0  0
    3.3492   -2.0699    1.3877 C   0  0  1  0  0  0  0  0  0  0  0  0
    3.1469   -2.8409    2.7489 C   0  0  0  0  0  0  0  0  0  0  0  0
    3.3607   -1.8021    3.9107 C   0  0  0  0  0  0  0  0  0  0  0  0
    1.7205   -3.3704    3.1169 C   0  0  0  0  0  0  0  0  0  0  0  0
    4.1653   -3.9507    2.4225 C   0  0  1  0  0  0  0  0  0  0  0  0
    5.0919   -4.7063    3.1869 O   0  0  0  0  0  0  0  0  0  0  0  0
    5.4242   -3.3229    3.0865 C   0  0  1  0  0  0  0  0  0  0  0  0
    5.9006   -2.2728    2.0898 C   0  0  0  0  0  0  0  0  0  0  0  0
    4.9148   -1.7913    0.9574 C   0  0  2  0  0  0  0  0  0  0  0  0
    5.0524   -0.2650    0.8483 C   0  0  0  0  0  0  0  0  0  0  0  0
    5.4939   -2.3054   -0.4138 C   0  0  2  0  0  0  0  0  0  0  0  0
    6.7833   -2.0473   -0.8509 O   0  0  0  0  0  0  0  0  0  0  0  0
    6.5533   -3.3841   -0.3702 C   0  0  2  0  0  0  0  0  0  0  0  0
    3.4326   -2.0937   -2.4538 H   0  0  0  0  0  0  0  0  0  0  0  0
    3.0974   -3.8115   -2.4808 H   0  0  0  0  0  0  0  0  0  0  0  0
    4.4440   -3.1681   -3.4287 H   0  0  0  0  0  0  0  0  0  0  0  0
    4.4762   -6.0379   -0.4960 H   0  0  0  0  0  0  0  0  0  0  0  0
    6.6179   -6.3261    0.1581 H   0  0  0  0  0  0  0  0  0  0  0  0
    3.4601   -5.7524    1.5654 H   0  0  0  0  0  0  0  0  0  0  0  0
    2.5833   -2.3518   -0.6154 H   0  0  0  0  0  0  0  0  0  0  0  0
    1.4422   -2.6011    0.6204 H   0  0  0  0  0  0  0  0  0  0  0  0
    2.8647   -1.1000    1.4946 H   0  0  0  0  0  0  0  0  0  0  0  0
    3.4757   -2.2791    4.8857 H   0  0  0  0  0  0  0  0  0  0  0  0
    2.4943   -1.1478    4.0005 H   0  0  0  0  0  0  0  0  0  0  0  0
    4.1901   -1.1120    3.7729 H   0  0  0  0  0  0  0  0  0  0  0  0
    1.6396   -3.5866    4.1812 H   0  0  0  0  0  0  0  0  0  0  0  0
    1.4210   -4.2902    2.6267 H   0  0  0  0  0  0  0  0  0  0  0  0
    0.9589   -2.6219    2.8976 H   0  0  0  0  0  0  0  0  0  0  0  0
    5.4994   -2.9698    4.1057 H   0  0  0  0  0  0  0  0  0  0  0  0
    6.0391   -1.3885    2.7179 H   0  0  0  0  0  0  0  0  0  0  0  0
    6.9407   -2.4241    1.8360 H   0  0  0  0  0  0  0  0  0  0  0  0
    6.0930    0.0336    0.6492 H   0  0  0  0  0  0  0  0  0  0  0  0
    4.7275    0.2284    1.7768 H   0  0  0  0  0  0  0  0  0  0  0  0
    4.4363    0.1276    0.0276 H   0  0  0  0  0  0  0  0  0  0  0  0
    7.2876   -3.7243    0.3846 H   0  0  0  0  0  0  0  0  0  0  0  0
  1  2  1  0
  1 23  1  0
  1 24  1  0
  1 25  1  0
  2 20  1  0
  2  3  2  0
  3 22  1  0
  3  4  1  0
  4  5  1  0
  4  6  1  0
  4 26  1  6
  5 27  1  0
  6 14  1  0
  6  7  1  0
  6 28  1  1
  7  8  2  0
  7  9  1  0
  9 10  1  0
  9 29  1  0
  9 30  1  0
 10 18  1  0
 10 11  1  0
 10 31  1  1
 11 12  1  0
 11 13  1  0
 11 14  1  0
 12 32  1  0
 12 33  1  0
 12 34  1  0
 13 35  1  0
 13 36  1  0
 13 37  1  0
 14 16  1  0
 14 15  1  1
 15 16  1  0
 16 17  1  0
 16 38  1  1
 17 18  1  0
 17 39  1  0
 17 40  1  0
 18 19  1  6
 18 20  1  0
 19 41  1  0
 19 42  1  0
 19 43  1  0
 20 22  1  0
 20 21  1  6
 21 22  1  0
 22 44  1  1
M  END
>  <i_m_ct_stereo_status>  (30) 
1

>  <s_m_source_file>  (30) 
/var/tmp/pbs.5076255.sched01/tmpcm5es6vs/0d3z1so5d.sdf

>  <i_m_source_file_index>  (30) 
14

>  <i_lp_mmshare_version>  (30) 
48012

>  <i_f3d_flags>  (30) 
0

>  <s_epik_input>  (30) 
QzEyM1tDQEBIXTRbQ0BIXShbT0hdKUM1W0NIXTZDKE82KShDPTVbQ0gzXSlbQ0BdKFtDSDNdKShbQ0gyXVtDQEBIXTNPMilbQ0BASF0oW0NIMl1DND1PKUMxKFtDSDNdKVtDSDNd

>  <s_epik_cmdline>  (30) 
J2VwaWtfcHl0aG9uJywgJy1waHQnLCAnMi4wJywgJy1waCcsICc3LjAnLCAnLXRuJywgJzgnLCAnLW1hJywgJzIwMCcsICctaW1hZScsICc8aW5maWxlLm1hZT4nLCAnLW9tYWUnLCAnPG91dGZpbGUubWFlPic=

>  <r_lp_tautomer_probability>  (30) 
1

>  <r_epik_Ionization_Penalty>  (30) 
1.30873e-05

>  <r_epik_Ionization_Penalty_Charging>  (30) 
0

>  <r_epik_Ionization_Penalty_Neutral>  (30) 
1.30873e-05

>  <r_epik_State_Penalty>  (30) 
-0

>  <r_epik_Charging_Adjusted_Penalty>  (30) 
0

>  <i_epik_Tot_Q>  (30) 
0

>  <i_epik_Tot_abs_Q>  (30) 
0

>  <s_lp_Force_Field>  (30) 
OPLS3e

>  <r_lp_Energy>  (30) 
151.36

>  <b_lp_Chiralities_Consistent>  (30) 
1

>  <s_lp_Variant>  (30) 
11:0-2

>  <s_i_glide_gridfile>  (30) 
pfpi4k_grid

>  <i_i_glide_lignum>  (30) 
14

>  <i_i_glide_rotatable_bonds>  (30) 
1

>  <r_i_docking_score>  (30) 
-3.42024

>  <r_i_glide_ligand_efficiency>  (30) 
-0.155465

>  <r_i_glide_ligand_efficiency_sa>  (30) 
-0.43562

>  <r_i_glide_ligand_efficiency_ln>  (30) 
-0.836031

>  <r_i_glide_gscore>  (30) 
-3.42024

>  <r_i_glide_lipo>  (30) 
-0.531574

>  <r_i_glide_hbond>  (30) 
-0.207769

>  <r_i_glide_metal>  (30) 
-0

>  <r_i_glide_rewards>  (30) 
-1.34751

>  <r_i_glide_evdw>  (30) 
-15.1855

>  <r_i_glide_ecoul>  (30) 
-3.59544

>  <r_i_glide_erotb>  (30) 
0

>  <r_i_glide_esite>  (30) 
-0.034794

>  <r_i_glide_emodel>  (30) 
-21.092

>  <r_i_glide_energy>  (30) 
-18.7809

>  <r_i_glide_einternal>  (30) 
0.403662

>  <r_i_glide_intrahb_reward>  (30) 
-0

>  <i_i_glide_confnum>  (30) 
1

>  <i_i_glide_posenum>  (30) 
14

>  <r_i_glide_eff_state_penalty>  (30) 
0

>  <ligand_id>  (30) 
11

>  <original_smiles>  (30) 
CC1=C2C(O)C3C(=O)CC4C(C)(C)C35OC5CC4(C)C13OC23

>  <smiles>  (30) 
[H]OC1([H])C2=C(C([H])([H])[H])C3(OC23[H])C2(C([H])([H])[H])C([H])([H])C3([H])OC34C1([H])C(=O)C([H])([H])C2([H])C4(C([H])([H])[H])C([H])([H])[H]

$$$$
12:0:0
     RDKit          3D

 87 93  0  0  1  0  0  0  0  0999 V2000
    5.1115   -8.6359    1.2212 C   0  0  0  0  0  0  0  0  0  0  0  0
    4.5538   -9.1904    2.5498 C   0  0  2  0  0  0  0  0  0  0  0  0
    3.1484   -9.7663    2.2463 C   0  0  1  0  0  0  0  0  0  0  0  0
    3.0596  -11.1302    2.5563 O   0  0  0  0  0  0  0  0  0  0  0  0
    2.0435   -8.9290    2.8685 C   0  0  1  0  0  0  0  0  0  0  0  0
    0.7399   -9.3198    2.4866 O   0  0  0  0  0  0  0  0  0  0  0  0
    2.1996   -8.5492    4.3726 C   0  0  1  0  0  0  0  0  0  0  0  0
    1.9355   -9.7032    5.4485 C   0  0  0  0  0  0  0  0  0  0  0  0
    0.6885  -10.5439    5.0765 C   0  0  0  0  0  0  0  0  0  0  0  0
    3.0919  -10.7309    5.6676 C   0  0  0  0  0  0  0  0  0  0  0  0
    1.5814   -9.0073    6.7841 C   0  0  1  0  0  0  0  0  0  0  0  0
    1.6802   -9.8555    7.9167 O   0  0  0  0  0  0  0  0  0  0  0  0
    2.3737   -7.7187    7.0334 C   0  0  0  0  0  0  0  0  0  0  0  0
    3.6572   -7.5311    6.1905 C   0  0  1  0  0  0  0  0  0  0  0  0
    4.7145   -8.2875    6.7448 O   0  0  0  0  0  0  0  0  0  0  0  0
    3.4744   -7.5915    4.5866 C   0  0  1  0  0  0  0  0  0  0  0  0
    4.7119   -8.2965    3.8674 C   0  0  2  0  0  0  0  0  0  0  0  0
    6.0961   -7.5815    4.0251 C   0  0  0  0  0  0  0  0  0  0  0  0
    6.0343   -6.0895    4.0403 C   0  0  2  0  0  0  0  0  0  0  0  0
    5.5410   -5.5611    5.2874 O   0  0  0  0  0  0  0  0  0  0  0  0
    4.7325   -5.2535    4.1158 C   0  0  1  0  0  0  0  0  0  0  0  0
    4.7780   -3.7264    3.8744 C   0  0  1  0  0  0  0  0  0  0  0  0
    4.7780   -3.1879    2.4233 C   0  0  2  0  0  0  0  0  0  0  0  0
    3.5373   -2.5339    1.7845 C   0  0  0  0  0  0  0  0  0  0  0  0
    3.3359   -3.9095    1.1383 C   0  0  2  0  0  0  0  0  0  0  0  0
    2.3995   -4.9667    1.7218 C   0  0  1  0  0  0  0  0  0  0  0  0
    2.4969   -6.1268    0.9289 O   0  0  0  0  0  0  0  0  0  0  0  0
    2.2203   -5.2532    3.2778 C   0  0  2  0  0  0  0  0  0  0  0  0
    1.0710   -6.0707    3.1874 O   0  0  0  0  0  0  0  0  0  0  0  0
    1.6620   -3.9581    4.0454 C   0  0  1  0  0  0  0  0  0  0  0  0
    0.4488   -4.2037    4.7465 O   0  0  0  0  0  0  0  0  0  0  0  0
    2.5246   -3.2750    5.1556 C   0  0  0  0  0  0  0  0  0  0  0  0
    3.9928   -2.8582    4.9048 C   0  0  1  0  0  0  0  0  0  0  0  0
    4.7265   -2.7971    6.2697 C   0  0  0  0  0  0  0  0  0  0  0  0
    4.0286   -1.4920    4.5327 O   0  0  0  0  0  0  0  0  0  0  0  0
    3.3528   -5.9949    4.1505 C   0  0  1  0  0  0  0  0  0  0  0  0
    4.8805   -4.0201    1.1040 C   0  0  0  0  0  0  0  0  0  0  0  0
    5.6089   -3.3490   -0.0676 C   0  0  0  0  0  0  0  0  0  0  0  0
    5.4824   -5.4127    1.1154 C   0  0  0  0  0  0  0  0  0  0  0  0
    4.4229   -7.9325    0.7592 H   0  0  0  0  0  0  0  0  0  0  0  0
    5.2057   -9.4697    0.5127 H   0  0  0  0  0  0  0  0  0  0  0  0
    6.0940   -8.1945    1.2941 H   0  0  0  0  0  0  0  0  0  0  0  0
    5.1981  -10.0485    2.7221 H   0  0  0  0  0  0  0  0  0  0  0  0
    2.9710   -9.7605    1.1715 H   0  0  0  0  0  0  0  0  0  0  0  0
    3.4432  -11.6293    1.8410 H   0  0  0  0  0  0  0  0  0  0  0  0
    2.1559   -8.0063    2.3302 H   0  0  0  0  0  0  0  0  0  0  0  0
    0.7021   -9.4801    1.5630 H   0  0  0  0  0  0  0  0  0  0  0  0
    1.3303   -7.9334    4.5683 H   0  0  0  0  0  0  0  0  0  0  0  0
    0.3660  -11.1911    5.8921 H   0  0  0  0  0  0  0  0  0  0  0  0
    0.8674  -11.1990    4.2249 H   0  0  0  0  0  0  0  0  0  0  0  0
   -0.1712   -9.9064    4.8485 H   0  0  0  0  0  0  0  0  0  0  0  0
    2.7021  -11.7083    5.9582 H   0  0  0  0  0  0  0  0  0  0  0  0
    3.7616  -10.4675    6.4833 H   0  0  0  0  0  0  0  0  0  0  0  0
    3.7148  -10.9065    4.8041 H   0  0  0  0  0  0  0  0  0  0  0  0
    0.5281   -8.7138    6.7428 H   0  0  0  0  0  0  0  0  0  0  0  0
    1.4315  -10.7807    7.6954 H   0  0  0  0  0  0  0  0  0  0  0  0
    1.7156   -6.8759    6.8009 H   0  0  0  0  0  0  0  0  0  0  0  0
    2.5943   -7.5997    8.0947 H   0  0  0  0  0  0  0  0  0  0  0  0
    3.9777   -6.5499    6.5287 H   0  0  0  0  0  0  0  0  0  0  0  0
    4.4824   -9.1876    6.7172 H   0  0  0  0  0  0  0  0  0  0  0  0
    4.8980   -9.1376    4.5320 H   0  0  0  0  0  0  0  0  0  0  0  0
    6.5956   -7.9046    4.9325 H   0  0  0  0  0  0  0  0  0  0  0  0
    6.7840   -7.8564    3.2355 H   0  0  0  0  0  0  0  0  0  0  0  0
    6.9575   -5.5820    3.7542 H   0  0  0  0  0  0  0  0  0  0  0  0
    5.7950   -3.4946    4.1573 H   0  0  0  0  0  0  0  0  0  0  0  0
    5.5520   -2.4116    2.3395 H   0  0  0  0  0  0  0  0  0  0  0  0
    2.7637   -2.1864    2.4559 H   0  0  0  0  0  0  0  0  0  0  0  0
    3.7643   -1.7472    1.0815 H   0  0  0  0  0  0  0  0  0  0  0  0
    3.0230   -3.6904    0.0926 H   0  0  0  0  0  0  0  0  0  0  0  0
    1.4194   -4.6293    1.4254 H   0  0  0  0  0  0  0  0  0  0  0  0
    3.1009   -6.7116    1.3232 H   0  0  0  0  0  0  0  0  0  0  0  0
    0.8884   -6.4270    4.0290 H   0  0  0  0  0  0  0  0  0  0  0  0
    1.3081   -3.2449    3.3161 H   0  0  0  0  0  0  0  0  0  0  0  0
    0.6185   -4.7739    5.4679 H   0  0  0  0  0  0  0  0  0  0  0  0
    1.9842   -2.3907    5.5010 H   0  0  0  0  0  0  0  0  0  0  0  0
    2.5178   -3.9121    6.0415 H   0  0  0  0  0  0  0  0  0  0  0  0
    4.7503   -3.7673    6.7696 H   0  0  0  0  0  0  0  0  0  0  0  0
    4.2345   -2.0993    6.9533 H   0  0  0  0  0  0  0  0  0  0  0  0
    5.7632   -2.4599    6.1668 H   0  0  0  0  0  0  0  0  0  0  0  0
    3.6201   -1.3936    3.6903 H   0  0  0  0  0  0  0  0  0  0  0  0
    2.9221   -5.6781    5.0731 H   0  0  0  0  0  0  0  0  0  0  0  0
    5.4072   -3.8742   -1.0085 H   0  0  0  0  0  0  0  0  0  0  0  0
    6.6854   -3.3461    0.0787 H   0  0  0  0  0  0  0  0  0  0  0  0
    5.3122   -2.3119   -0.2366 H   0  0  0  0  0  0  0  0  0  0  0  0
    5.4365   -5.8794    0.1321 H   0  0  0  0  0  0  0  0  0  0  0  0
    4.9092   -6.0677    1.7696 H   0  0  0  0  0  0  0  0  0  0  0  0
    6.5163   -5.4110    1.4510 H   0  0  0  0  0  0  0  0  0  0  0  0
  1  2  1  0
  1 40  1  0
  1 41  1  0
  1 42  1  0
  2 17  1  0
  2  3  1  0
  2 43  1  1
  3  4  1  0
  3  5  1  0
  3 44  1  6
  4 45  1  0
  5  6  1  0
  5  7  1  0
  5 46  1  6
  6 47  1  0
  7 16  1  0
  7  8  1  0
  7 48  1  1
  8  9  1  0
  8 10  1  0
  8 11  1  0
  9 49  1  0
  9 50  1  0
  9 51  1  0
 10 52  1  0
 10 53  1  0
 10 54  1  0
 11 12  1  0
 11 13  1  0
 11 55  1  6
 12 56  1  0
 13 14  1  0
 13 57  1  0
 13 58  1  0
 14 15  1  0
 16 14  1  1
 14 59  1  6
 15 60  1  0
 16 36  1  0
 16 17  1  0
 17 18  1  0
 17 61  1  1
 18 19  1  0
 18 62  1  0
 18 63  1  0
 19 21  1  0
 19 20  1  0
 19 64  1  6
 21 20  1  1
 21 36  1  0
 21 22  1  0
 22 33  1  0
 22 23  1  0
 22 65  1  1
 23 37  1  0
 23 24  1  0
 23 66  1  1
 24 25  1  0
 24 67  1  0
 24 68  1  0
 25 26  1  0
 25 37  1  0
 25 69  1  6
 26 27  1  0
 26 28  1  0
 26 70  1  6
 27 71  1  0
 28 29  1  6
 28 30  1  0
 28 36  1  0
 29 72  1  0
 30 31  1  0
 30 32  1  0
 30 73  1  6
 31 74  1  0
 32 33  1  0
 32 75  1  0
 32 76  1  0
 33 34  1  0
 33 35  1  6
 34 77  1  0
 34 78  1  0
 34 79  1  0
 35 80  1  0
 36 81  1  1
 37 38  1  0
 37 39  1  0
 38 82  1  0
 38 83  1  0
 38 84  1  0
 39 85  1  0
 39 86  1  0
 39 87  1  0
M  END
>  <i_m_ct_stereo_status>  (31) 
1

>  <s_m_source_file>  (31) 
/var/tmp/pbs.5076255.sched01/tmpcm5es6vs/0d3z1so5d.sdf

>  <i_m_source_file_index>  (31) 
15

>  <i_lp_mmshare_version>  (31) 
48012

>  <i_f3d_flags>  (31) 
0

>  <s_epik_input>  (31) 
W09IXVtDQEBIXTFbQ0gyXVtDQEhdKFtPSF0pQyhbQ0gzXSkoW0NIM10pW0NAQEhdKFtDQEBdMTIzKVtDQEhdKFtPSF0pW0NASF0oW09IXSlbQ0BASF0oW0NIM10pW0NASF0yW0NIMl1bQ0BIXTRbQ0BAXTUoTzQpW0NASF02W0NAQEhdN1tDSDJdW0NAQEhdKEM3KFtDSDNdKVtDSDNdKVtDQEBIXShbT0hdKVtDQEBdKFtPSF0pKFtDQEBIXTM1KVtDQEBIXShbT0hdKVtDSDJdW0NAXTYoW0NIM10pW09IXQ==

>  <s_epik_cmdline>  (31) 
J2VwaWtfcHl0aG9uJywgJy1waHQnLCAnMi4wJywgJy1waCcsICc3LjAnLCAnLXRuJywgJzgnLCAnLW1hJywgJzIwMCcsICctaW1hZScsICc8aW5maWxlLm1hZT4nLCAnLW9tYWUnLCAnPG91dGZpbGUubWFlPic=

>  <r_lp_tautomer_probability>  (31) 
1

>  <r_epik_Ionization_Penalty>  (31) 
3.00939e-06

>  <r_epik_Ionization_Penalty_Charging>  (31) 
0

>  <r_epik_Ionization_Penalty_Neutral>  (31) 
3.00939e-06

>  <r_epik_State_Penalty>  (31) 
-0

>  <r_epik_Charging_Adjusted_Penalty>  (31) 
0

>  <i_epik_Tot_Q>  (31) 
0

>  <i_epik_Tot_abs_Q>  (31) 
0

>  <s_lp_Force_Field>  (31) 
OPLS3e

>  <r_lp_Energy>  (31) 
189.789

>  <b_lp_Chiralities_Consistent>  (31) 
1

>  <s_lp_Variant>  (31) 
12:0-1

>  <s_i_glide_gridfile>  (31) 
pfpi4k_grid

>  <i_i_glide_lignum>  (31) 
15

>  <i_i_glide_rotatable_bonds>  (31) 
8

>  <r_i_docking_score>  (31) 
-2.97682

>  <r_i_glide_ligand_efficiency>  (31) 
-0.0763286

>  <r_i_glide_ligand_efficiency_sa>  (31) 
-0.258847

>  <r_i_glide_ligand_efficiency_ln>  (31) 
-0.638314

>  <r_i_glide_gscore>  (31) 
-2.97682

>  <r_i_glide_lipo>  (31) 
-0.228298

>  <r_i_glide_hbond>  (31) 
-0.144

>  <r_i_glide_metal>  (31) 
-0

>  <r_i_glide_rewards>  (31) 
0

>  <r_i_glide_evdw>  (31) 
-17.5037

>  <r_i_glide_ecoul>  (31) 
-11.5289

>  <r_i_glide_erotb>  (31) 
0

>  <r_i_glide_esite>  (31) 
0

>  <r_i_glide_emodel>  (31) 
-33.4727

>  <r_i_glide_energy>  (31) 
-29.0326

>  <r_i_glide_einternal>  (31) 
2.62852

>  <r_i_glide_intrahb_reward>  (31) 
-0

>  <i_i_glide_confnum>  (31) 
2

>  <i_i_glide_posenum>  (31) 
11

>  <r_i_glide_eff_state_penalty>  (31) 
0

>  <ligand_id>  (31) 
12

>  <original_smiles>  (31) 
CC1C(O)C(O)C2C(C)(C)C(O)CC(O)C23C1CC1OC12C1C4CC(C(O)C(O)(C(O)CC1(C)O)C23)C4(C)C

>  <smiles>  (31) 
[H]OC1([H])C([H])(O[H])C2([H])C(C([H])([H])[H])(C([H])([H])[H])C([H])(O[H])C([H])([H])C([H])(O[H])C23C([H])(C([H])([H])C2([H])OC24C2([H])C5([H])C([H])([H])C([H])(C([H])(O[H])C(O[H])(C([H])(O[H])C([H])([H])C2(O[H])C([H])([H])[H])C43[H])C5(C([H])([H])[H])C([H])([H])[H])C1([H])C([H])([H])[H]

$$$$
12:0:1
     RDKit          3D

 87 93  0  0  1  0  0  0  0  0999 V2000
    5.0293   -8.5401    1.1665 C   0  0  0  0  0  0  0  0  0  0  0  0
    4.3273   -8.8546    2.4991 C   0  0  2  0  0  0  0  0  0  0  0  0
    2.8959   -9.3421    2.1565 C   0  0  1  0  0  0  0  0  0  0  0  0
    2.6345  -10.6408    2.6347 O   0  0  0  0  0  0  0  0  0  0  0  0
    1.8588   -8.3105    2.5686 C   0  0  1  0  0  0  0  0  0  0  0  0
    0.5483   -8.5593    2.0887 O   0  0  0  0  0  0  0  0  0  0  0  0
    1.9397   -7.7511    4.0207 C   0  0  1  0  0  0  0  0  0  0  0  0
    1.4839   -8.7217    5.2087 C   0  0  0  0  0  0  0  0  0  0  0  0
    0.1886   -9.4781    4.8493 C   0  0  0  0  0  0  0  0  0  0  0  0
    2.4885   -9.8225    5.6605 C   0  0  0  0  0  0  0  0  0  0  0  0
    1.1088   -7.8182    6.4171 C   0  0  1  0  0  0  0  0  0  0  0  0
    0.9819   -8.5393    7.6331 O   0  0  0  0  0  0  0  0  0  0  0  0
    2.0248   -6.6012    6.5831 C   0  0  0  0  0  0  0  0  0  0  0  0
    3.3666   -6.6598    5.8282 C   0  0  1  0  0  0  0  0  0  0  0  0
    4.2931   -7.4379    6.5617 O   0  0  0  0  0  0  0  0  0  0  0  0
    3.2800   -6.8969    4.2282 C   0  0  1  0  0  0  0  0  0  0  0  0
    4.4833   -7.8319    3.7153 C   0  0  2  0  0  0  0  0  0  0  0  0
    5.9092   -7.2385    3.8980 C   0  0  0  0  0  0  0  0  0  0  0  0
    6.0223   -5.7471    3.7371 C   0  0  2  0  0  0  0  0  0  0  0  0
    5.5104   -5.0186    4.8312 O   0  0  0  0  0  0  0  0  0  0  0  0
    4.8172   -4.7959    3.6019 C   0  0  1  0  0  0  0  0  0  0  0  0
    5.0271   -3.3258    3.1653 C   0  0  1  0  0  0  0  0  0  0  0  0
    5.2147   -2.9619    1.6599 C   0  0  2  0  0  0  0  0  0  0  0  0
    4.0945   -2.2971    0.8606 C   0  0  0  0  0  0  0  0  0  0  0  0
    3.7965   -3.6926    0.3440 C   0  0  2  0  0  0  0  0  0  0  0  0
    2.7140   -4.5806    0.9999 C   0  0  1  0  0  0  0  0  0  0  0  0
    2.7970   -5.8447    0.3909 O   0  0  0  0  0  0  0  0  0  0  0  0
    2.3849   -4.6457    2.5571 C   0  0  2  0  0  0  0  0  0  0  0  0
    1.1590   -5.3618    2.4893 O   0  0  0  0  0  0  0  0  0  0  0  0
    1.9337   -3.2158    3.1023 C   0  0  1  0  0  0  0  0  0  0  0  0
    0.6925   -3.2443    3.7889 O   0  0  0  0  0  0  0  0  0  0  0  0
    2.7724   -2.4748    4.1911 C   0  0  0  0  0  0  0  0  0  0  0  0
    4.2874   -2.2494    4.0264 C   0  0  1  0  0  0  0  0  0  0  0  0
    4.9169   -2.0929    5.4283 C   0  0  0  0  0  0  0  0  0  0  0  0
    4.4998   -0.9469    3.4967 O   0  0  0  0  0  0  0  0  0  0  0  0
    3.3716   -5.3769    3.6006 C   0  0  1  0  0  0  0  0  0  0  0  0
    5.3067   -3.9701    0.4909 C   0  0  0  0  0  0  0  0  0  0  0  0
    6.1875   -3.5280   -0.7045 C   0  0  0  0  0  0  0  0  0  0  0  0
    5.7595   -5.4024    0.7058 C   0  0  0  0  0  0  0  0  0  0  0  0
    4.4555   -7.8303    0.5749 H   0  0  0  0  0  0  0  0  0  0  0  0
    5.0876   -9.4528    0.5691 H   0  0  0  0  0  0  0  0  0  0  0  0
    6.0520   -8.1834    1.2679 H   0  0  0  0  0  0  0  0  0  0  0  0
    4.8749   -9.7438    2.8279 H   0  0  0  0  0  0  0  0  0  0  0  0
    2.8036   -9.4587    1.0751 H   0  0  0  0  0  0  0  0  0  0  0  0
    3.1353  -11.2628    2.1243 H   0  0  0  0  0  0  0  0  0  0  0  0
    2.1530   -7.5002    1.9324 H   0  0  0  0  0  0  0  0  0  0  0  0
    0.5859   -9.0479    1.2590 H   0  0  0  0  0  0  0  0  0  0  0  0
    1.1283   -7.0358    4.0785 H   0  0  0  0  0  0  0  0  0  0  0  0
   -0.1845   -9.9901    5.7351 H   0  0  0  0  0  0  0  0  0  0  0  0
    0.3490  -10.2474    4.0950 H   0  0  0  0  0  0  0  0  0  0  0  0
   -0.5984   -8.8146    4.4971 H   0  0  0  0  0  0  0  0  0  0  0  0
    1.9622  -10.7035    6.0331 H   0  0  0  0  0  0  0  0  0  0  0  0
    3.1292   -9.5330    6.4836 H   0  0  0  0  0  0  0  0  0  0  0  0
    3.1430  -10.1804    4.8806 H   0  0  0  0  0  0  0  0  0  0  0  0
    0.1113   -7.4139    6.2492 H   0  0  0  0  0  0  0  0  0  0  0  0
    1.6837   -9.1676    7.6953 H   0  0  0  0  0  0  0  0  0  0  0  0
    1.4770   -5.7474    6.1896 H   0  0  0  0  0  0  0  0  0  0  0  0
    2.1763   -6.3731    7.6375 H   0  0  0  0  0  0  0  0  0  0  0  0
    3.7636   -5.6809    6.0707 H   0  0  0  0  0  0  0  0  0  0  0  0
    4.0319   -8.3381    6.5140 H   0  0  0  0  0  0  0  0  0  0  0  0
    4.5201   -8.5857    4.4804 H   0  0  0  0  0  0  0  0  0  0  0  0
    6.3217   -7.4897    4.8877 H   0  0  0  0  0  0  0  0  0  0  0  0
    6.6301   -7.6779    3.2114 H   0  0  0  0  0  0  0  0  0  0  0  0
    6.9996   -5.4011    3.4397 H   0  0  0  0  0  0  0  0  0  0  0  0
    6.0388   -3.1545    3.4954 H   0  0  0  0  0  0  0  0  0  0  0  0
    6.0648   -2.2964    1.5699 H   0  0  0  0  0  0  0  0  0  0  0  0
    3.3237   -1.7844    1.4054 H   0  0  0  0  0  0  0  0  0  0  0  0
    4.4595   -1.6154    0.0786 H   0  0  0  0  0  0  0  0  0  0  0  0
    3.5929   -3.5948   -0.7180 H   0  0  0  0  0  0  0  0  0  0  0  0
    1.8244   -4.1642    0.5430 H   0  0  0  0  0  0  0  0  0  0  0  0
    2.9862   -5.7211   -0.5329 H   0  0  0  0  0  0  0  0  0  0  0  0
    1.3630   -6.2559    2.2839 H   0  0  0  0  0  0  0  0  0  0  0  0
    1.6871   -2.5634    2.2686 H   0  0  0  0  0  0  0  0  0  0  0  0
    0.4135   -2.3536    3.8987 H   0  0  0  0  0  0  0  0  0  0  0  0
    2.3188   -1.5040    4.3870 H   0  0  0  0  0  0  0  0  0  0  0  0
    2.6338   -2.9922    5.1449 H   0  0  0  0  0  0  0  0  0  0  0  0
    4.7978   -2.9858    6.0393 H   0  0  0  0  0  0  0  0  0  0  0  0
    4.4570   -1.2667    5.9744 H   0  0  0  0  0  0  0  0  0  0  0  0
    5.9823   -1.8744    5.3829 H   0  0  0  0  0  0  0  0  0  0  0  0
    4.0917   -0.8931    2.6493 H   0  0  0  0  0  0  0  0  0  0  0  0
    2.8940   -4.9016    4.4461 H   0  0  0  0  0  0  0  0  0  0  0  0
    5.9825   -4.1420   -1.5880 H   0  0  0  0  0  0  0  0  0  0  0  0
    7.2539   -3.6213   -0.4726 H   0  0  0  0  0  0  0  0  0  0  0  0
    6.0264   -2.4951   -1.0159 H   0  0  0  0  0  0  0  0  0  0  0  0
    5.7397   -5.9775   -0.2240 H   0  0  0  0  0  0  0  0  0  0  0  0
    5.0876   -5.9111    1.3723 H   0  0  0  0  0  0  0  0  0  0  0  0
    6.7701   -5.4602    1.1140 H   0  0  0  0  0  0  0  0  0  0  0  0
  1  2  1  0
  1 40  1  0
  1 41  1  0
  1 42  1  0
  2 17  1  0
  2  3  1  0
  2 43  1  1
  3  4  1  0
  3  5  1  0
  3 44  1  6
  4 45  1  0
  5  6  1  0
  5  7  1  0
  5 46  1  6
  6 47  1  0
  7 16  1  0
  7  8  1  0
  7 48  1  6
  8  9  1  0
  8 10  1  0
  8 11  1  0
  9 49  1  0
  9 50  1  0
  9 51  1  0
 10 52  1  0
 10 53  1  0
 10 54  1  0
 11 12  1  0
 11 13  1  0
 11 55  1  6
 12 56  1  0
 13 14  1  0
 13 57  1  0
 13 58  1  0
 14 15  1  0
 16 14  1  1
 14 59  1  6
 15 60  1  0
 16 36  1  0
 16 17  1  0
 17 18  1  0
 17 61  1  1
 18 19  1  0
 18 62  1  0
 18 63  1  0
 19 21  1  0
 19 20  1  0
 19 64  1  6
 21 20  1  1
 21 36  1  0
 21 22  1  0
 22 33  1  0
 22 23  1  0
 22 65  1  1
 23 37  1  0
 23 24  1  0
 23 66  1  1
 24 25  1  0
 24 67  1  0
 24 68  1  0
 25 26  1  0
 25 37  1  0
 25 69  1  6
 26 27  1  0
 26 28  1  0
 26 70  1  6
 27 71  1  0
 28 29  1  6
 28 30  1  0
 28 36  1  0
 29 72  1  0
 30 31  1  0
 30 32  1  0
 30 73  1  6
 31 74  1  0
 32 33  1  0
 32 75  1  0
 32 76  1  0
 33 34  1  0
 33 35  1  6
 34 77  1  0
 34 78  1  0
 34 79  1  0
 35 80  1  0
 36 81  1  1
 37 38  1  0
 37 39  1  0
 38 82  1  0
 38 83  1  0
 38 84  1  0
 39 85  1  0
 39 86  1  0
 39 87  1  0
M  END
>  <i_m_ct_stereo_status>  (32) 
1

>  <s_m_source_file>  (32) 
/var/tmp/pbs.5076255.sched01/tmpcm5es6vs/0d3z1so5d.sdf

>  <i_m_source_file_index>  (32) 
15

>  <i_lp_mmshare_version>  (32) 
48012

>  <i_f3d_flags>  (32) 
0

>  <s_epik_input>  (32) 
W09IXVtDQEBIXTFbQ0gyXVtDQEhdKFtPSF0pQyhbQ0gzXSkoW0NIM10pW0NAQEhdKFtDQEBdMTIzKVtDQEhdKFtPSF0pW0NASF0oW09IXSlbQ0BASF0oW0NIM10pW0NASF0yW0NIMl1bQ0BIXTRbQ0BAXTUoTzQpW0NASF02W0NAQEhdN1tDSDJdW0NAQEhdKEM3KFtDSDNdKVtDSDNdKVtDQEBIXShbT0hdKVtDQEBdKFtPSF0pKFtDQEBIXTM1KVtDQEBIXShbT0hdKVtDSDJdW0NAXTYoW0NIM10pW09IXQ==

>  <s_epik_cmdline>  (32) 
J2VwaWtfcHl0aG9uJywgJy1waHQnLCAnMi4wJywgJy1waCcsICc3LjAnLCAnLXRuJywgJzgnLCAnLW1hJywgJzIwMCcsICctaW1hZScsICc8aW5maWxlLm1hZT4nLCAnLW9tYWUnLCAnPG91dGZpbGUubWFlPic=

>  <r_lp_tautomer_probability>  (32) 
1

>  <r_epik_Ionization_Penalty>  (32) 
3.00939e-06

>  <r_epik_Ionization_Penalty_Charging>  (32) 
0

>  <r_epik_Ionization_Penalty_Neutral>  (32) 
3.00939e-06

>  <r_epik_State_Penalty>  (32) 
-0

>  <r_epik_Charging_Adjusted_Penalty>  (32) 
0

>  <i_epik_Tot_Q>  (32) 
0

>  <i_epik_Tot_abs_Q>  (32) 
0

>  <s_lp_Force_Field>  (32) 
OPLS3e

>  <r_lp_Energy>  (32) 
189.789

>  <b_lp_Chiralities_Consistent>  (32) 
1

>  <s_lp_Variant>  (32) 
12:0-1

>  <s_i_glide_gridfile>  (32) 
pfpi4k_grid

>  <i_i_glide_lignum>  (32) 
15

>  <i_i_glide_rotatable_bonds>  (32) 
8

>  <r_i_docking_score>  (32) 
-2.56446

>  <r_i_glide_ligand_efficiency>  (32) 
-0.0657554

>  <r_i_glide_ligand_efficiency_sa>  (32) 
-0.222991

>  <r_i_glide_ligand_efficiency_ln>  (32) 
-0.549893

>  <r_i_glide_gscore>  (32) 
-2.56446

>  <r_i_glide_lipo>  (32) 
-0.38352

>  <r_i_glide_hbond>  (32) 
0

>  <r_i_glide_metal>  (32) 
-0

>  <r_i_glide_rewards>  (32) 
0

>  <r_i_glide_evdw>  (32) 
-20.6133

>  <r_i_glide_ecoul>  (32) 
-7.66851

>  <r_i_glide_erotb>  (32) 
0

>  <r_i_glide_esite>  (32) 
0

>  <r_i_glide_emodel>  (32) 
-32.2072

>  <r_i_glide_energy>  (32) 
-28.2818

>  <r_i_glide_einternal>  (32) 
2.43675

>  <r_i_glide_intrahb_reward>  (32) 
-0

>  <i_i_glide_confnum>  (32) 
1

>  <i_i_glide_posenum>  (32) 
19

>  <r_i_glide_eff_state_penalty>  (32) 
0

>  <ligand_id>  (32) 
12

>  <original_smiles>  (32) 
CC1C(O)C(O)C2C(C)(C)C(O)CC(O)C23C1CC1OC12C1C4CC(C(O)C(O)(C(O)CC1(C)O)C23)C4(C)C

>  <smiles>  (32) 
[H]OC1([H])C([H])(O[H])C2([H])C(C([H])([H])[H])(C([H])([H])[H])C([H])(O[H])C([H])([H])C([H])(O[H])C23C([H])(C([H])([H])C2([H])OC24C2([H])C5([H])C([H])([H])C([H])(C([H])(O[H])C(O[H])(C([H])(O[H])C([H])([H])C2(O[H])C([H])([H])[H])C43[H])C5(C([H])([H])[H])C([H])([H])[H])C1([H])C([H])([H])[H]

$$$$
12:0:2
     RDKit          3D

 87 93  0  0  1  0  0  0  0  0999 V2000
   -2.1177    3.5027    4.6434 C   0  0  0  0  0  0  0  0  0  0  0  0
   -0.8602    2.9365    3.9609 C   0  0  2  0  0  0  0  0  0  0  0  0
   -1.1372    1.4508    3.6318 C   0  0  1  0  0  0  0  0  0  0  0  0
   -1.0149    1.1193    2.2667 O   0  0  0  0  0  0  0  0  0  0  0  0
   -0.3543    0.5168    4.5355 C   0  0  1  0  0  0  0  0  0  0  0  0
   -0.7406   -0.8399    4.3812 O   0  0  0  0  0  0  0  0  0  0  0  0
    1.1700    0.7719    4.6339 C   0  0  1  0  0  0  0  0  0  0  0  0
    2.0597    0.3835    3.3542 C   0  0  0  0  0  0  0  0  0  0  0  0
    1.6450   -0.9866    2.7457 C   0  0  0  0  0  0  0  0  0  0  0  0
    2.0628    1.3757    2.1473 C   0  0  0  0  0  0  0  0  0  0  0  0
    3.5070    0.1701    3.8766 C   0  0  1  0  0  0  0  0  0  0  0  0
    4.4412    0.1478    2.8228 O   0  0  0  0  0  0  0  0  0  0  0  0
    3.9179    1.1667    4.9666 C   0  0  0  0  0  0  0  0  0  0  0  0
    3.0335    2.4221    5.1123 C   0  0  1  0  0  0  0  0  0  0  0  0
    3.3892    3.3928    4.1510 O   0  0  0  0  0  0  0  0  0  0  0  0
    1.4584    2.1716    5.3554 C   0  0  1  0  0  0  0  0  0  0  0  0
    0.5616    3.2672    4.5908 C   0  0  2  0  0  0  0  0  0  0  0  0
    0.7588    4.7315    5.0688 C   0  0  0  0  0  0  0  0  0  0  0  0
    1.0301    4.9040    6.5455 C   0  0  2  0  0  0  0  0  0  0  0  0
    2.3317    4.5368    6.9286 O   0  0  0  0  0  0  0  0  0  0  0  0
    1.3021    3.7480    7.5140 C   0  0  1  0  0  0  0  0  0  0  0  0
    1.2917    3.9896    9.0473 C   0  0  1  0  0  0  0  0  0  0  0  0
   -0.0612    4.0273    9.8267 C   0  0  2  0  0  0  0  0  0  0  0  0
   -0.5049    2.8685   10.7224 C   0  0  0  0  0  0  0  0  0  0  0  0
   -1.3748    2.4435    9.5513 C   0  0  2  0  0  0  0  0  0  0  0  0
   -0.8855    1.3733    8.5398 C   0  0  1  0  0  0  0  0  0  0  0  0
   -1.8828    1.3264    7.5351 O   0  0  0  0  0  0  0  0  0  0  0  0
    0.6085    1.2413    8.0147 C   0  0  2  0  0  0  0  0  0  0  0  0
    0.4686   -0.0199    7.3904 O   0  0  0  0  0  0  0  0  0  0  0  0
    1.5977    0.8971    9.2237 C   0  0  1  0  0  0  0  0  0  0  0  0
    2.3438   -0.2818    8.9782 O   0  0  0  0  0  0  0  0  0  0  0  0
    2.7538    1.8747    9.5981 C   0  0  0  0  0  0  0  0  0  0  0  0
    2.4947    3.3794    9.8361 C   0  0  1  0  0  0  0  0  0  0  0  0
    3.8015    4.1613    9.5716 C   0  0  0  0  0  0  0  0  0  0  0  0
    2.3451    3.6057   11.2307 O   0  0  0  0  0  0  0  0  0  0  0  0
    1.2906    2.2787    6.9916 C   0  0  1  0  0  0  0  0  0  0  0  0
   -1.4701    3.9453    9.2044 C   0  0  0  0  0  0  0  0  0  0  0  0
   -2.5810    4.7262    9.9586 C   0  0  0  0  0  0  0  0  0  0  0  0
   -1.7309    4.3454    7.7755 C   0  0  0  0  0  0  0  0  0  0  0  0
   -2.4184    2.9074    5.5016 H   0  0  0  0  0  0  0  0  0  0  0  0
   -2.9534    3.4587    3.9428 H   0  0  0  0  0  0  0  0  0  0  0  0
   -2.0244    4.5438    4.9441 H   0  0  0  0  0  0  0  0  0  0  0  0
   -0.8685    3.4728    3.0064 H   0  0  0  0  0  0  0  0  0  0  0  0
   -2.1832    1.2426    3.8418 H   0  0  0  0  0  0  0  0  0  0  0  0
   -0.5606    1.8044    1.8024 H   0  0  0  0  0  0  0  0  0  0  0  0
   -0.7552    0.7549    5.4999 H   0  0  0  0  0  0  0  0  0  0  0  0
   -0.4584   -1.1031    3.5198 H   0  0  0  0  0  0  0  0  0  0  0  0
    1.5113    0.0022    5.3155 H   0  0  0  0  0  0  0  0  0  0  0  0
    2.3749   -1.3269    2.0086 H   0  0  0  0  0  0  0  0  0  0  0  0
    0.6947   -0.9236    2.2118 H   0  0  0  0  0  0  0  0  0  0  0  0
    1.5789   -1.7599    3.5097 H   0  0  0  0  0  0  0  0  0  0  0  0
    2.2135    0.8445    1.2052 H   0  0  0  0  0  0  0  0  0  0  0  0
    2.8606    2.1069    2.1755 H   0  0  0  0  0  0  0  0  0  0  0  0
    1.1560    1.9504    2.0219 H   0  0  0  0  0  0  0  0  0  0  0  0
    3.5686   -0.8158    4.3312 H   0  0  0  0  0  0  0  0  0  0  0  0
    4.4541    0.9996    2.4451 H   0  0  0  0  0  0  0  0  0  0  0  0
    3.8550    0.6355    5.9101 H   0  0  0  0  0  0  0  0  0  0  0  0
    4.9632    1.4360    4.8719 H   0  0  0  0  0  0  0  0  0  0  0  0
    3.5014    2.8936    5.9688 H   0  0  0  0  0  0  0  0  0  0  0  0
    3.3232    3.0176    3.2912 H   0  0  0  0  0  0  0  0  0  0  0  0
    1.0654    3.3403    3.6427 H   0  0  0  0  0  0  0  0  0  0  0  0
    1.5773    5.2280    4.5333 H   0  0  0  0  0  0  0  0  0  0  0  0
   -0.0967    5.3645    4.8445 H   0  0  0  0  0  0  0  0  0  0  0  0
    0.7378    5.8623    6.9508 H   0  0  0  0  0  0  0  0  0  0  0  0
    1.5384    5.0471    9.0837 H   0  0  0  0  0  0  0  0  0  0  0  0
   -0.0604    4.8950   10.4794 H   0  0  0  0  0  0  0  0  0  0  0  0
    0.2413    2.1792   11.0779 H   0  0  0  0  0  0  0  0  0  0  0  0
   -1.1050    3.1850   11.5895 H   0  0  0  0  0  0  0  0  0  0  0  0
   -2.3361    2.1401    9.9569 H   0  0  0  0  0  0  0  0  0  0  0  0
   -1.0321    0.4390    9.0825 H   0  0  0  0  0  0  0  0  0  0  0  0
   -1.8064    2.1211    7.0356 H   0  0  0  0  0  0  0  0  0  0  0  0
    1.3465   -0.3434    7.2455 H   0  0  0  0  0  0  0  0  0  0  0  0
    1.0263    0.6035   10.1027 H   0  0  0  0  0  0  0  0  0  0  0  0
    2.7394   -0.5347    9.7988 H   0  0  0  0  0  0  0  0  0  0  0  0
    3.2660    1.4929   10.4787 H   0  0  0  0  0  0  0  0  0  0  0  0
    3.5327    1.8056    8.8359 H   0  0  0  0  0  0  0  0  0  0  0  0
    4.1401    4.0632    8.5428 H   0  0  0  0  0  0  0  0  0  0  0  0
    4.6073    3.7944   10.2100 H   0  0  0  0  0  0  0  0  0  0  0  0
    3.6910    5.2260    9.7827 H   0  0  0  0  0  0  0  0  0  0  0  0
    1.5449    3.1997   11.5225 H   0  0  0  0  0  0  0  0  0  0  0  0
    2.2802    1.9065    7.2092 H   0  0  0  0  0  0  0  0  0  0  0  0
   -3.5767    4.4176    9.6220 H   0  0  0  0  0  0  0  0  0  0  0  0
   -2.4917    5.8048    9.7869 H   0  0  0  0  0  0  0  0  0  0  0  0
   -2.5690    4.5827   11.0399 H   0  0  0  0  0  0  0  0  0  0  0  0
   -2.7807    4.2196    7.4993 H   0  0  0  0  0  0  0  0  0  0  0  0
   -1.1714    3.7256    7.0937 H   0  0  0  0  0  0  0  0  0  0  0  0
   -1.4468    5.3835    7.6062 H   0  0  0  0  0  0  0  0  0  0  0  0
  1  2  1  0
  1 40  1  0
  1 41  1  0
  1 42  1  0
  2 17  1  0
  2  3  1  0
  2 43  1  6
  3  4  1  0
  3  5  1  0
  3 44  1  1
  4 45  1  0
  5  6  1  0
  5  7  1  0
  5 46  1  1
  6 47  1  0
  7 16  1  0
  7  8  1  0
  7 48  1  1
  8  9  1  0
  8 10  1  0
  8 11  1  0
  9 49  1  0
  9 50  1  0
  9 51  1  0
 10 52  1  0
 10 53  1  0
 10 54  1  0
 11 12  1  0
 11 13  1  0
 11 55  1  1
 12 56  1  0
 13 14  1  0
 13 57  1  0
 13 58  1  0
 14 15  1  0
 16 14  1  1
 14 59  1  1
 15 60  1  0
 16 36  1  0
 16 17  1  0
 17 18  1  0
 17 61  1  6
 18 19  1  0
 18 62  1  0
 18 63  1  0
 19 21  1  0
 19 20  1  0
 19 64  1  1
 21 20  1  6
 21 36  1  0
 21 22  1  0
 22 33  1  0
 22 23  1  0
 22 65  1  6
 23 37  1  0
 23 24  1  0
 23 66  1  1
 24 25  1  0
 24 67  1  0
 24 68  1  0
 25 26  1  0
 25 37  1  0
 25 69  1  1
 26 27  1  0
 26 28  1  0
 26 70  1  1
 27 71  1  0
 28 29  1  6
 28 30  1  0
 28 36  1  0
 29 72  1  0
 30 31  1  0
 30 32  1  0
 30 73  1  1
 31 74  1  0
 32 33  1  0
 32 75  1  0
 32 76  1  0
 33 34  1  0
 33 35  1  1
 34 77  1  0
 34 78  1  0
 34 79  1  0
 35 80  1  0
 36 81  1  1
 37 38  1  0
 37 39  1  0
 38 82  1  0
 38 83  1  0
 38 84  1  0
 39 85  1  0
 39 86  1  0
 39 87  1  0
M  END
>  <i_m_ct_stereo_status>  (33) 
1

>  <s_m_source_file>  (33) 
/var/tmp/pbs.5076255.sched01/tmpcm5es6vs/0d3z1so5d.sdf

>  <i_m_source_file_index>  (33) 
15

>  <i_lp_mmshare_version>  (33) 
48012

>  <i_f3d_flags>  (33) 
0

>  <s_epik_input>  (33) 
W09IXVtDQEBIXTFbQ0gyXVtDQEhdKFtPSF0pQyhbQ0gzXSkoW0NIM10pW0NAQEhdKFtDQEBdMTIzKVtDQEhdKFtPSF0pW0NASF0oW09IXSlbQ0BASF0oW0NIM10pW0NASF0yW0NIMl1bQ0BIXTRbQ0BAXTUoTzQpW0NASF02W0NAQEhdN1tDSDJdW0NAQEhdKEM3KFtDSDNdKVtDSDNdKVtDQEBIXShbT0hdKVtDQEBdKFtPSF0pKFtDQEBIXTM1KVtDQEBIXShbT0hdKVtDSDJdW0NAXTYoW0NIM10pW09IXQ==

>  <s_epik_cmdline>  (33) 
J2VwaWtfcHl0aG9uJywgJy1waHQnLCAnMi4wJywgJy1waCcsICc3LjAnLCAnLXRuJywgJzgnLCAnLW1hJywgJzIwMCcsICctaW1hZScsICc8aW5maWxlLm1hZT4nLCAnLW9tYWUnLCAnPG91dGZpbGUubWFlPic=

>  <r_lp_tautomer_probability>  (33) 
1

>  <r_epik_Ionization_Penalty>  (33) 
3.00939e-06

>  <r_epik_Ionization_Penalty_Charging>  (33) 
0

>  <r_epik_Ionization_Penalty_Neutral>  (33) 
3.00939e-06

>  <r_epik_State_Penalty>  (33) 
-0

>  <r_epik_Charging_Adjusted_Penalty>  (33) 
0

>  <i_epik_Tot_Q>  (33) 
0

>  <i_epik_Tot_abs_Q>  (33) 
0

>  <s_lp_Force_Field>  (33) 
OPLS3e

>  <r_lp_Energy>  (33) 
189.789

>  <b_lp_Chiralities_Consistent>  (33) 
1

>  <s_lp_Variant>  (33) 
12:0-1

>  <s_i_glide_gridfile>  (33) 
pfpi4k_grid

>  <i_i_glide_lignum>  (33) 
15

>  <i_i_glide_rotatable_bonds>  (33) 
8

>  <r_i_docking_score>  (33) 
-2.44376

>  <r_i_glide_ligand_efficiency>  (33) 
-0.0626604

>  <r_i_glide_ligand_efficiency_sa>  (33) 
-0.212495

>  <r_i_glide_ligand_efficiency_ln>  (33) 
-0.524011

>  <r_i_glide_gscore>  (33) 
-2.44376

>  <r_i_glide_lipo>  (33) 
-0.0154039

>  <r_i_glide_hbond>  (33) 
-0.317318

>  <r_i_glide_metal>  (33) 
-0

>  <r_i_glide_rewards>  (33) 
0

>  <r_i_glide_evdw>  (33) 
-21.8529

>  <r_i_glide_ecoul>  (33) 
-6.78926

>  <r_i_glide_erotb>  (33) 
0

>  <r_i_glide_esite>  (33) 
0

>  <r_i_glide_emodel>  (33) 
-32.4392

>  <r_i_glide_energy>  (33) 
-28.6421

>  <r_i_glide_einternal>  (33) 
1.59527

>  <r_i_glide_intrahb_reward>  (33) 
-0

>  <i_i_glide_confnum>  (33) 
2

>  <i_i_glide_posenum>  (33) 
21

>  <r_i_glide_eff_state_penalty>  (33) 
0

>  <ligand_id>  (33) 
12

>  <original_smiles>  (33) 
CC1C(O)C(O)C2C(C)(C)C(O)CC(O)C23C1CC1OC12C1C4CC(C(O)C(O)(C(O)CC1(C)O)C23)C4(C)C

>  <smiles>  (33) 
[H]OC1([H])C([H])(O[H])C2([H])C(C([H])([H])[H])(C([H])([H])[H])C([H])(O[H])C([H])([H])C([H])(O[H])C23C([H])(C([H])([H])C2([H])OC24C2([H])C5([H])C([H])([H])C([H])(C([H])(O[H])C(O[H])(C([H])(O[H])C([H])([H])C2(O[H])C([H])([H])[H])C43[H])C5(C([H])([H])[H])C([H])([H])[H])C1([H])C([H])([H])[H]

$$$$
13:0:0
     RDKit          3D

 40 44  0  0  1  0  0  0  0  0999 V2000
    4.7394   -6.6417    1.4784 C   0  0  0  0  0  0  0  0  0  0  0  0
    4.9454   -5.3182    0.8773 N   0  0  0  0  0  0  0  0  0  0  0  0
    6.2403   -4.8996    0.6759 C   0  0  0  0  0  0  0  0  0  0  0  0
    7.2688   -5.5003    0.8624 O   0  0  0  0  0  0  0  0  0  0  0  0
    6.1689   -3.6608    0.2119 N   0  0  0  0  0  0  0  0  0  0  0  0
    4.8190   -3.1899    0.0419 C   0  0  2  0  0  0  0  0  0  0  0  0
    4.0729   -4.4331    0.4512 C   0  0  0  0  0  0  0  0  0  0  0  0
    2.8099   -4.5117    0.3084 O   0  0  0  0  0  0  0  0  0  0  0  0
    4.4624   -2.8904   -1.3675 C   0  0  0  0  0  0  0  0  0  0  0  0
    4.6337   -3.7334   -2.4743 C   0  0  0  0  0  0  0  0  0  0  0  0
    4.1928   -3.2685   -3.7232 C   0  0  0  0  0  0  0  0  0  0  0  0
    3.6034   -1.9876   -3.8408 C   0  0  0  0  0  0  0  0  0  0  0  0
    3.4318   -1.1632   -2.7104 C   0  0  0  0  0  0  0  0  0  0  0  0
    3.8571   -1.6464   -1.4716 C   0  0  0  0  0  0  0  0  0  0  0  0
    3.7411   -0.9526   -0.1426 C   0  0  0  0  0  0  0  0  0  0  0  0
    4.5166   -1.8707    0.8067 C   0  0  2  0  0  0  0  0  0  0  0  0
    5.7903   -1.1057    1.2036 C   0  0  0  0  0  0  0  0  0  0  0  0
    6.6146   -0.7434    0.3155 O   0  0  0  0  0  0  0  0  0  0  0  0
    5.8376   -0.9316    2.5090 N   0  0  0  0  0  0  0  0  0  0  0  0
    4.7118   -1.4933    3.1550 C   0  0  0  0  0  0  0  0  0  0  0  0
    4.3521   -1.5342    4.5106 C   0  0  0  0  0  0  0  0  0  0  0  0
    3.1248   -2.1458    4.8798 C   0  0  0  0  0  0  0  0  0  0  0  0
    2.2785   -2.6871    3.8925 C   0  0  0  0  0  0  0  0  0  0  0  0
    0.7766   -3.4224    4.3278 Cl  0  0  0  0  0  0  0  0  0  0  0  0
    2.6482   -2.6102    2.5424 C   0  0  0  0  0  0  0  0  0  0  0  0
    3.8899   -2.0325    2.1843 C   0  0  0  0  0  0  0  0  0  0  0  0
    5.5744   -7.3227    1.3004 H   0  0  0  0  0  0  0  0  0  0  0  0
    3.8582   -7.1024    1.0468 H   0  0  0  0  0  0  0  0  0  0  0  0
    4.6218   -6.5744    2.5614 H   0  0  0  0  0  0  0  0  0  0  0  0
    6.9535   -3.0199    0.1838 H   0  0  0  0  0  0  0  0  0  0  0  0
    5.0575   -4.7220   -2.3549 H   0  0  0  0  0  0  0  0  0  0  0  0
    4.3082   -3.8984   -4.5888 H   0  0  0  0  0  0  0  0  0  0  0  0
    3.2721   -1.6341   -4.7999 H   0  0  0  0  0  0  0  0  0  0  0  0
    2.9803   -0.1879   -2.7868 H   0  0  0  0  0  0  0  0  0  0  0  0
    4.1671    0.0545   -0.1890 H   0  0  0  0  0  0  0  0  0  0  0  0
    2.7083   -0.8756    0.1755 H   0  0  0  0  0  0  0  0  0  0  0  0
    6.5455   -0.4511    3.0613 H   0  0  0  0  0  0  0  0  0  0  0  0
    4.9656   -1.1098    5.2889 H   0  0  0  0  0  0  0  0  0  0  0  0
    2.8096   -2.1899    5.9109 H   0  0  0  0  0  0  0  0  0  0  0  0
    1.9621   -3.0041    1.8172 H   0  0  0  0  0  0  0  0  0  0  0  0
  1  2  1  0
  1 27  1  0
  1 28  1  0
  1 29  1  0
  2  7  1  0
  2  3  1  0
  3  4  2  0
  3  5  1  0
  6  5  1  6
  5 30  1  0
  6 16  1  0
  6  7  1  0
  6  9  1  0
  7  8  2  0
  9 14  1  0
  9 10  2  0
 10 11  1  0
 10 31  1  0
 11 12  2  0
 11 32  1  0
 12 13  1  0
 12 33  1  0
 13 14  2  0
 13 34  1  0
 14 15  1  0
 16 15  1  6
 15 35  1  0
 15 36  1  0
 16 26  1  0
 16 17  1  0
 17 18  2  0
 17 19  1  0
 19 20  1  0
 19 37  1  0
 20 26  2  0
 20 21  1  0
 21 22  2  0
 21 38  1  0
 22 23  1  0
 22 39  1  0
 23 24  1  0
 23 25  2  0
 25 26  1  0
 25 40  1  0
M  END
>  <i_m_ct_stereo_status>  (34) 
1

>  <s_m_source_file>  (34) 
/var/tmp/pbs.5076255.sched01/tmpcm5es6vs/0d3z1so5d.sdf

>  <i_m_source_file_index>  (34) 
16

>  <i_lp_mmshare_version>  (34) 
48012

>  <i_f3d_flags>  (34) 
0

>  <s_epik_input>  (34) 
Tz1DMU4oW0NIM10pQyg9TylbTkhdW0NAXTEyW0NAXTMoYzRjKFtOSF1DMz1PKVtjSF1bY0hdYyhDbClbY0hdNClbQ0gyXWM1YzJbY0hdW2NIXVtjSF1bY0hdNQ==

>  <s_epik_cmdline>  (34) 
J2VwaWtfcHl0aG9uJywgJy1waHQnLCAnMi4wJywgJy1waCcsICc3LjAnLCAnLXRuJywgJzgnLCAnLW1hJywgJzIwMCcsICctaW1hZScsICc8aW5maWxlLm1hZT4nLCAnLW9tYWUnLCAnPG91dGZpbGUubWFlPic=

>  <r_lp_tautomer_probability>  (34) 
1

>  <r_epik_Ionization_Penalty>  (34) 
0.000463401

>  <r_epik_Ionization_Penalty_Charging>  (34) 
0

>  <r_epik_Ionization_Penalty_Neutral>  (34) 
0.000463401

>  <r_epik_State_Penalty>  (34) 
0.000277992

>  <r_epik_Charging_Adjusted_Penalty>  (34) 
0.000277992

>  <i_epik_Tot_Q>  (34) 
0

>  <i_epik_Tot_abs_Q>  (34) 
0

>  <s_lp_Force_Field>  (34) 
OPLS3e

>  <r_lp_Energy>  (34) 
19.9017

>  <b_lp_Chiralities_Consistent>  (34) 
1

>  <s_lp_Variant>  (34) 
13:0-1

>  <s_i_glide_gridfile>  (34) 
pfpi4k_grid

>  <i_i_glide_lignum>  (34) 
16

>  <i_i_glide_rotatable_bonds>  (34) 
0

>  <r_i_docking_score>  (34) 
-3.40767

>  <r_i_glide_ligand_efficiency>  (34) 
-0.131064

>  <r_i_glide_ligand_efficiency_sa>  (34) 
-0.388277

>  <r_i_glide_ligand_efficiency_ln>  (34) 
-0.80028

>  <r_i_glide_gscore>  (34) 
-3.40767

>  <r_i_glide_lipo>  (34) 
-0.483858

>  <r_i_glide_hbond>  (34) 
-0.015462

>  <r_i_glide_metal>  (34) 
-0

>  <r_i_glide_rewards>  (34) 
-1.36447

>  <r_i_glide_evdw>  (34) 
-29.6632

>  <r_i_glide_ecoul>  (34) 
-0.404759

>  <r_i_glide_erotb>  (34) 
0

>  <r_i_glide_esite>  (34) 
0

>  <r_i_glide_emodel>  (34) 
-35.4521

>  <r_i_glide_energy>  (34) 
-30.068

>  <r_i_glide_einternal>  (34) 
0

>  <r_i_glide_intrahb_reward>  (34) 
-0

>  <i_i_glide_confnum>  (34) 
2

>  <i_i_glide_posenum>  (34) 
24

>  <r_i_glide_eff_state_penalty>  (34) 
0

>  <ligand_id>  (34) 
13

>  <original_smiles>  (34) 
CN1C(=O)NC2(C1=O)c1ccccc1CC21C(=O)Nc2ccc(Cl)cc21

>  <smiles>  (34) 
[H]c1c([H])c([H])c2c(c1[H])C([H])([H])C1(C(=O)N([H])c3c([H])c([H])c(Cl)c([H])c31)C21C(=O)N(C([H])([H])[H])C(=O)N1[H]

$$$$
13:0:1
     RDKit          3D

 40 44  0  0  1  0  0  0  0  0999 V2000
    2.4174   -1.7506    2.0921 C   0  0  0  0  0  0  0  0  0  0  0  0
    3.0316   -3.0620    2.3116 N   0  0  0  0  0  0  0  0  0  0  0  0
    3.7380   -3.2908    3.4473 C   0  0  0  0  0  0  0  0  0  0  0  0
    3.8903   -2.5484    4.3780 O   0  0  0  0  0  0  0  0  0  0  0  0
    4.2583   -4.5137    3.3535 N   0  0  0  0  0  0  0  0  0  0  0  0
    3.8993   -5.1928    2.1438 C   0  0  2  0  0  0  0  0  0  0  0  0
    2.9981   -4.1335    1.5456 C   0  0  0  0  0  0  0  0  0  0  0  0
    2.3054   -4.3506    0.5319 O   0  0  0  0  0  0  0  0  0  0  0  0
    3.0804   -6.4178    2.3567 C   0  0  0  0  0  0  0  0  0  0  0  0
    1.9099   -6.5201    3.1271 C   0  0  0  0  0  0  0  0  0  0  0  0
    1.2725   -7.7727    3.1715 C   0  0  0  0  0  0  0  0  0  0  0  0
    1.8096   -8.8739    2.4619 C   0  0  0  0  0  0  0  0  0  0  0  0
    2.9761   -8.7398    1.6797 C   0  0  0  0  0  0  0  0  0  0  0  0
    3.5884   -7.4853    1.6288 C   0  0  0  0  0  0  0  0  0  0  0  0
    4.8101   -7.1130    0.8331 C   0  0  0  0  0  0  0  0  0  0  0  0
    5.1164   -5.6787    1.2948 C   0  0  2  0  0  0  0  0  0  0  0  0
    6.4202   -5.7427    2.1215 C   0  0  0  0  0  0  0  0  0  0  0  0
    6.5152   -6.4342    3.1436 O   0  0  0  0  0  0  0  0  0  0  0  0
    7.3583   -4.9630    1.5833 N   0  0  0  0  0  0  0  0  0  0  0  0
    6.8811   -4.3268    0.4274 C   0  0  0  0  0  0  0  0  0  0  0  0
    7.5305   -3.4434   -0.4531 C   0  0  0  0  0  0  0  0  0  0  0  0
    6.8195   -2.9663   -1.5843 C   0  0  0  0  0  0  0  0  0  0  0  0
    5.4929   -3.3836   -1.8282 C   0  0  0  0  0  0  0  0  0  0  0  0
    4.6227   -2.8199   -3.2112 Cl  0  0  0  0  0  0  0  0  0  0  0  0
    4.8813   -4.2867   -0.9468 C   0  0  0  0  0  0  0  0  0  0  0  0
    5.5798   -4.7367    0.1957 C   0  0  0  0  0  0  0  0  0  0  0  0
    2.2184   -1.2437    3.0363 H   0  0  0  0  0  0  0  0  0  0  0  0
    1.4694   -1.8531    1.5726 H   0  0  0  0  0  0  0  0  0  0  0  0
    3.0788   -1.0934    1.5242 H   0  0  0  0  0  0  0  0  0  0  0  0
    4.9935   -4.8568    3.9575 H   0  0  0  0  0  0  0  0  0  0  0  0
    1.5127   -5.6589    3.6475 H   0  0  0  0  0  0  0  0  0  0  0  0
    0.3785   -7.8893    3.7614 H   0  0  0  0  0  0  0  0  0  0  0  0
    1.3201   -9.8314    2.5144 H   0  0  0  0  0  0  0  0  0  0  0  0
    3.3954   -9.5729    1.1362 H   0  0  0  0  0  0  0  0  0  0  0  0
    5.6313   -7.8050    1.0382 H   0  0  0  0  0  0  0  0  0  0  0  0
    4.6050   -7.1259   -0.2336 H   0  0  0  0  0  0  0  0  0  0  0  0
    8.3050   -4.8489    1.9210 H   0  0  0  0  0  0  0  0  0  0  0  0
    8.5511   -3.1306   -0.3124 H   0  0  0  0  0  0  0  0  0  0  0  0
    7.2841   -2.3050   -2.2977 H   0  0  0  0  0  0  0  0  0  0  0  0
    3.8814   -4.6129   -1.1788 H   0  0  0  0  0  0  0  0  0  0  0  0
  1  2  1  0
  1 27  1  0
  1 28  1  0
  1 29  1  0
  2  7  1  0
  2  3  1  0
  3  4  2  0
  3  5  1  0
  6  5  1  1
  5 30  1  0
  6 16  1  0
  6  7  1  0
  6  9  1  0
  7  8  2  0
  9 14  1  0
  9 10  2  0
 10 11  1  0
 10 31  1  0
 11 12  2  0
 11 32  1  0
 12 13  1  0
 12 33  1  0
 13 14  2  0
 13 34  1  0
 14 15  1  0
 16 15  1  6
 15 35  1  0
 15 36  1  0
 16 26  1  0
 16 17  1  0
 17 18  2  0
 17 19  1  0
 19 20  1  0
 19 37  1  0
 20 26  2  0
 20 21  1  0
 21 22  2  0
 21 38  1  0
 22 23  1  0
 22 39  1  0
 23 24  1  0
 23 25  2  0
 25 26  1  0
 25 40  1  0
M  END
>  <i_m_ct_stereo_status>  (35) 
1

>  <s_m_source_file>  (35) 
/var/tmp/pbs.5076255.sched01/tmpcm5es6vs/0d3z1so5d.sdf

>  <i_m_source_file_index>  (35) 
16

>  <i_lp_mmshare_version>  (35) 
48012

>  <i_f3d_flags>  (35) 
0

>  <s_epik_input>  (35) 
Tz1DMU4oW0NIM10pQyg9TylbTkhdW0NAXTEyW0NAXTMoYzRjKFtOSF1DMz1PKVtjSF1bY0hdYyhDbClbY0hdNClbQ0gyXWM1YzJbY0hdW2NIXVtjSF1bY0hdNQ==

>  <s_epik_cmdline>  (35) 
J2VwaWtfcHl0aG9uJywgJy1waHQnLCAnMi4wJywgJy1waCcsICc3LjAnLCAnLXRuJywgJzgnLCAnLW1hJywgJzIwMCcsICctaW1hZScsICc8aW5maWxlLm1hZT4nLCAnLW9tYWUnLCAnPG91dGZpbGUubWFlPic=

>  <r_lp_tautomer_probability>  (35) 
1

>  <r_epik_Ionization_Penalty>  (35) 
0.000463401

>  <r_epik_Ionization_Penalty_Charging>  (35) 
0

>  <r_epik_Ionization_Penalty_Neutral>  (35) 
0.000463401

>  <r_epik_State_Penalty>  (35) 
0.000277992

>  <r_epik_Charging_Adjusted_Penalty>  (35) 
0.000277992

>  <i_epik_Tot_Q>  (35) 
0

>  <i_epik_Tot_abs_Q>  (35) 
0

>  <s_lp_Force_Field>  (35) 
OPLS3e

>  <r_lp_Energy>  (35) 
19.9017

>  <b_lp_Chiralities_Consistent>  (35) 
1

>  <s_lp_Variant>  (35) 
13:0-1

>  <s_i_glide_gridfile>  (35) 
pfpi4k_grid

>  <i_i_glide_lignum>  (35) 
16

>  <i_i_glide_rotatable_bonds>  (35) 
0

>  <r_i_docking_score>  (35) 
-3.40193

>  <r_i_glide_ligand_efficiency>  (35) 
-0.130843

>  <r_i_glide_ligand_efficiency_sa>  (35) 
-0.387623

>  <r_i_glide_ligand_efficiency_ln>  (35) 
-0.798931

>  <r_i_glide_gscore>  (35) 
-3.40193

>  <r_i_glide_lipo>  (35) 
-0.874488

>  <r_i_glide_hbond>  (35) 
-0.00186978

>  <r_i_glide_metal>  (35) 
-0

>  <r_i_glide_rewards>  (35) 
-0.961379

>  <r_i_glide_evdw>  (35) 
-26.8471

>  <r_i_glide_ecoul>  (35) 
-1.4526

>  <r_i_glide_erotb>  (35) 
0

>  <r_i_glide_esite>  (35) 
-0.00394628

>  <r_i_glide_emodel>  (35) 
-33.8939

>  <r_i_glide_energy>  (35) 
-28.2997

>  <r_i_glide_einternal>  (35) 
0

>  <r_i_glide_intrahb_reward>  (35) 
-0

>  <i_i_glide_confnum>  (35) 
2

>  <i_i_glide_posenum>  (35) 
2

>  <r_i_glide_eff_state_penalty>  (35) 
0

>  <ligand_id>  (35) 
13

>  <original_smiles>  (35) 
CN1C(=O)NC2(C1=O)c1ccccc1CC21C(=O)Nc2ccc(Cl)cc21

>  <smiles>  (35) 
[H]c1c([H])c([H])c2c(c1[H])C([H])([H])C1(C(=O)N([H])c3c([H])c([H])c(Cl)c([H])c31)C21C(=O)N(C([H])([H])[H])C(=O)N1[H]

$$$$
13:0:2
     RDKit          3D

 40 44  0  0  1  0  0  0  0  0999 V2000
    6.0511   -6.7540    1.2170 C   0  0  0  0  0  0  0  0  0  0  0  0
    5.8868   -5.3940    0.6899 N   0  0  0  0  0  0  0  0  0  0  0  0
    7.0292   -4.6557    0.4739 C   0  0  0  0  0  0  0  0  0  0  0  0
    8.1865   -4.9853    0.5679 O   0  0  0  0  0  0  0  0  0  0  0  0
    6.6268   -3.4577    0.0702 N   0  0  0  0  0  0  0  0  0  0  0  0
    5.1965   -3.3353   -0.0272 C   0  0  2  0  0  0  0  0  0  0  0  0
    4.7947   -4.7387    0.3391 C   0  0  0  0  0  0  0  0  0  0  0  0
    3.5840   -5.1121    0.2333 O   0  0  0  0  0  0  0  0  0  0  0  0
    4.7041   -3.0734   -1.4035 C   0  0  0  0  0  0  0  0  0  0  0  0
    5.0175   -3.7982   -2.5607 C   0  0  0  0  0  0  0  0  0  0  0  0
    4.4185   -3.4024   -3.7662 C   0  0  0  0  0  0  0  0  0  0  0  0
    3.5282   -2.3045   -3.7926 C   0  0  0  0  0  0  0  0  0  0  0  0
    3.2171   -1.6001   -2.6118 C   0  0  0  0  0  0  0  0  0  0  0  0
    3.8090   -2.0165   -1.4173 C   0  0  0  0  0  0  0  0  0  0  0  0
    3.5914   -1.4329   -0.0498 C   0  0  0  0  0  0  0  0  0  0  0  0
    4.6139   -2.1696    0.8196 C   0  0  2  0  0  0  0  0  0  0  0  0
    5.6750   -1.1273    1.2021 C   0  0  0  0  0  0  0  0  0  0  0  0
    6.3249   -0.5394    0.2991 O   0  0  0  0  0  0  0  0  0  0  0  0
    5.7476   -1.0062    2.5214 N   0  0  0  0  0  0  0  0  0  0  0  0
    4.8245   -1.8600    3.1732 C   0  0  0  0  0  0  0  0  0  0  0  0
    4.5482   -2.0526    4.5381 C   0  0  0  0  0  0  0  0  0  0  0  0
    3.5307   -2.9693    4.9165 C   0  0  0  0  0  0  0  0  0  0  0  0
    2.7997   -3.6619    3.9312 C   0  0  0  0  0  0  0  0  0  0  0  0
    1.5462   -4.7691    4.3702 Cl  0  0  0  0  0  0  0  0  0  0  0  0
    3.0759   -3.4327    2.5766 C   0  0  0  0  0  0  0  0  0  0  0  0
    4.1154   -2.5453    2.2068 C   0  0  0  0  0  0  0  0  0  0  0  0
    7.0201   -7.1965    0.9703 H   0  0  0  0  0  0  0  0  0  0  0  0
    5.2929   -7.4004    0.7917 H   0  0  0  0  0  0  0  0  0  0  0  0
    5.9726   -6.7702    2.3049 H   0  0  0  0  0  0  0  0  0  0  0  0
    7.2212   -2.6380    0.0490 H   0  0  0  0  0  0  0  0  0  0  0  0
    5.6835   -4.6448   -2.5125 H   0  0  0  0  0  0  0  0  0  0  0  0
    4.6495   -3.9400   -4.6701 H   0  0  0  0  0  0  0  0  0  0  0  0
    3.0746   -2.0026   -4.7205 H   0  0  0  0  0  0  0  0  0  0  0  0
    2.5371   -0.7640   -2.6153 H   0  0  0  0  0  0  0  0  0  0  0  0
    3.7393   -0.3499   -0.0540 H   0  0  0  0  0  0  0  0  0  0  0  0
    2.5959   -1.6369    0.3117 H   0  0  0  0  0  0  0  0  0  0  0  0
    6.3308   -0.3900    3.0797 H   0  0  0  0  0  0  0  0  0  0  0  0
    5.0725   -1.5241    5.3169 H   0  0  0  0  0  0  0  0  0  0  0  0
    3.2876   -3.1371    5.9548 H   0  0  0  0  0  0  0  0  0  0  0  0
    2.4749   -3.9551    1.8571 H   0  0  0  0  0  0  0  0  0  0  0  0
  1  2  1  0
  1 27  1  0
  1 28  1  0
  1 29  1  0
  2  7  1  0
  2  3  1  0
  3  4  2  0
  3  5  1  0
  6  5  1  6
  5 30  1  0
  6 16  1  0
  6  7  1  0
  6  9  1  0
  7  8  2  0
  9 14  1  0
  9 10  2  0
 10 11  1  0
 10 31  1  0
 11 12  2  0
 11 32  1  0
 12 13  1  0
 12 33  1  0
 13 14  2  0
 13 34  1  0
 14 15  1  0
 16 15  1  6
 15 35  1  0
 15 36  1  0
 16 26  1  0
 16 17  1  0
 17 18  2  0
 17 19  1  0
 19 20  1  0
 19 37  1  0
 20 26  2  0
 20 21  1  0
 21 22  2  0
 21 38  1  0
 22 23  1  0
 22 39  1  0
 23 24  1  0
 23 25  2  0
 25 26  1  0
 25 40  1  0
M  END
>  <i_m_ct_stereo_status>  (36) 
1

>  <s_m_source_file>  (36) 
/var/tmp/pbs.5076255.sched01/tmpcm5es6vs/0d3z1so5d.sdf

>  <i_m_source_file_index>  (36) 
16

>  <i_lp_mmshare_version>  (36) 
48012

>  <i_f3d_flags>  (36) 
0

>  <s_epik_input>  (36) 
Tz1DMU4oW0NIM10pQyg9TylbTkhdW0NAXTEyW0NAXTMoYzRjKFtOSF1DMz1PKVtjSF1bY0hdYyhDbClbY0hdNClbQ0gyXWM1YzJbY0hdW2NIXVtjSF1bY0hdNQ==

>  <s_epik_cmdline>  (36) 
J2VwaWtfcHl0aG9uJywgJy1waHQnLCAnMi4wJywgJy1waCcsICc3LjAnLCAnLXRuJywgJzgnLCAnLW1hJywgJzIwMCcsICctaW1hZScsICc8aW5maWxlLm1hZT4nLCAnLW9tYWUnLCAnPG91dGZpbGUubWFlPic=

>  <r_lp_tautomer_probability>  (36) 
1

>  <r_epik_Ionization_Penalty>  (36) 
0.000463401

>  <r_epik_Ionization_Penalty_Charging>  (36) 
0

>  <r_epik_Ionization_Penalty_Neutral>  (36) 
0.000463401

>  <r_epik_State_Penalty>  (36) 
0.000277992

>  <r_epik_Charging_Adjusted_Penalty>  (36) 
0.000277992

>  <i_epik_Tot_Q>  (36) 
0

>  <i_epik_Tot_abs_Q>  (36) 
0

>  <s_lp_Force_Field>  (36) 
OPLS3e

>  <r_lp_Energy>  (36) 
19.9017

>  <b_lp_Chiralities_Consistent>  (36) 
1

>  <s_lp_Variant>  (36) 
13:0-1

>  <s_i_glide_gridfile>  (36) 
pfpi4k_grid

>  <i_i_glide_lignum>  (36) 
16

>  <i_i_glide_rotatable_bonds>  (36) 
0

>  <r_i_docking_score>  (36) 
-3.36977

>  <r_i_glide_ligand_efficiency>  (36) 
-0.129607

>  <r_i_glide_ligand_efficiency_sa>  (36) 
-0.383959

>  <r_i_glide_ligand_efficiency_ln>  (36) 
-0.79138

>  <r_i_glide_gscore>  (36) 
-3.36977

>  <r_i_glide_lipo>  (36) 
-0.545115

>  <r_i_glide_hbond>  (36) 
-0.000679793

>  <r_i_glide_metal>  (36) 
-0

>  <r_i_glide_rewards>  (36) 
-1.48204

>  <r_i_glide_evdw>  (36) 
-28.8743

>  <r_i_glide_ecoul>  (36) 
0.678523

>  <r_i_glide_erotb>  (36) 
0

>  <r_i_glide_esite>  (36) 
0

>  <r_i_glide_emodel>  (36) 
-33.0816

>  <r_i_glide_energy>  (36) 
-28.1957

>  <r_i_glide_einternal>  (36) 
0

>  <r_i_glide_intrahb_reward>  (36) 
-0

>  <i_i_glide_confnum>  (36) 
2

>  <i_i_glide_posenum>  (36) 
36

>  <r_i_glide_eff_state_penalty>  (36) 
0

>  <ligand_id>  (36) 
13

>  <original_smiles>  (36) 
CN1C(=O)NC2(C1=O)c1ccccc1CC21C(=O)Nc2ccc(Cl)cc21

>  <smiles>  (36) 
[H]c1c([H])c([H])c2c(c1[H])C([H])([H])C1(C(=O)N([H])c3c([H])c([H])c(Cl)c([H])c31)C21C(=O)N(C([H])([H])[H])C(=O)N1[H]

$$$$
14:0:0
     RDKit          3D

 31 33  0  0  1  0  0  0  0  0999 V2000
    2.0183    6.0272    3.2947 O   0  0  0  0  0  0  0  0  0  0  0  0
    2.3867    4.6679    3.1881 C   0  0  0  0  0  0  0  0  0  0  0  0
    1.1898    3.7568    3.5176 C   0  0  2  0  0  0  0  0  0  0  0  0
    1.0559    3.6110    4.9373 O   0  0  0  0  0  0  0  0  0  0  0  0
    0.7347    2.2892    5.2738 C   0  0  1  0  0  0  0  0  0  0  0  0
   -0.4506    2.2448    6.1952 N   0  0  0  0  0  0  0  0  0  0  0  0
   -1.1395    1.0803    6.3893 N   0  0  0  0  0  0  0  0  0  0  0  0
   -2.1328    1.3151    7.2003 N   0  0  0  0  0  0  0  0  0  0  0  0
   -2.0248    2.6236    7.6399 C   0  0  0  0  0  0  0  0  0  0  0  0
   -2.7851    3.3735    8.5635 C   0  0  0  0  0  0  0  0  0  0  0  0
   -2.4227    4.7113    8.8668 C   0  0  0  0  0  0  0  0  0  0  0  0
   -1.3101    5.3094    8.2358 C   0  0  0  0  0  0  0  0  0  0  0  0
   -0.5624    4.5732    7.3027 C   0  0  0  0  0  0  0  0  0  0  0  0
   -0.9231    3.2413    7.0168 C   0  0  0  0  0  0  0  0  0  0  0  0
    0.4833    1.5444    3.9511 C   0  0  1  0  0  0  0  0  0  0  0  0
   -0.8654    1.5988    3.5009 O   0  0  0  0  0  0  0  0  0  0  0  0
    1.3822    2.3242    3.0229 C   0  0  1  0  0  0  0  0  0  0  0  0
    0.9873    2.1433    1.6867 O   0  0  0  0  0  0  0  0  0  0  0  0
    1.3222    6.2087    2.6718 H   0  0  0  0  0  0  0  0  0  0  0  0
    2.7235    4.4985    2.1632 H   0  0  0  0  0  0  0  0  0  0  0  0
    3.2350    4.4532    3.8415 H   0  0  0  0  0  0  0  0  0  0  0  0
    0.2614    4.1627    3.1109 H   0  0  0  0  0  0  0  0  0  0  0  0
    1.5594    1.8868    5.8652 H   0  0  0  0  0  0  0  0  0  0  0  0
   -3.6277    2.9077    9.0508 H   0  0  0  0  0  0  0  0  0  0  0  0
   -3.0079    5.2606    9.5883 H   0  0  0  0  0  0  0  0  0  0  0  0
   -1.0336    6.3351    8.4694 H   0  0  0  0  0  0  0  0  0  0  0  0
    0.2847    5.0233    6.8142 H   0  0  0  0  0  0  0  0  0  0  0  0
    0.7973    0.5094    4.0634 H   0  0  0  0  0  0  0  0  0  0  0  0
   -0.8528    1.5215    2.5526 H   0  0  0  0  0  0  0  0  0  0  0  0
    2.4187    2.0221    3.1639 H   0  0  0  0  0  0  0  0  0  0  0  0
    0.6404    2.9942    1.3448 H   0  0  0  0  0  0  0  0  0  0  0  0
  1  2  1  0
  1 19  1  0
  2  3  1  0
  2 20  1  0
  2 21  1  0
  3 17  1  0
  3  4  1  0
  3 22  1  6
  4  5  1  0
  5  6  1  0
  5 15  1  0
  5 23  1  1
  6 14  1  0
  6  7  1  0
  7  8  2  0
  8  9  1  0
  9 14  2  0
  9 10  1  0
 10 11  2  0
 10 24  1  0
 11 12  1  0
 11 25  1  0
 12 13  2  0
 12 26  1  0
 13 14  1  0
 13 27  1  0
 15 16  1  0
 15 17  1  0
 15 28  1  1
 16 29  1  0
 17 18  1  0
 17 30  1  6
 18 31  1  0
M  END
>  <i_m_ct_stereo_status>  (37) 
1

>  <s_m_source_file>  (37) 
/var/tmp/pbs.5076255.sched01/tmpcm5es6vs/0d3z1so5d.sdf

>  <i_m_source_file_index>  (37) 
17

>  <i_lp_mmshare_version>  (37) 
48012

>  <i_f3d_flags>  (37) 
0

>  <s_epik_input>  (37) 
W09IXVtDSDJdW0NAQEhdMU9bQ0BIXShbQ0BASF0oW09IXSlbQ0BIXTFbT0hdKW4obm4yKWMoYzIzKVtjSF1bY0hdW2NIXVtjSF0z

>  <s_epik_cmdline>  (37) 
J2VwaWtfcHl0aG9uJywgJy1waHQnLCAnMi4wJywgJy1waCcsICc3LjAnLCAnLXRuJywgJzgnLCAnLW1hJywgJzIwMCcsICctaW1hZScsICc8aW5maWxlLm1hZT4nLCAnLW9tYWUnLCAnPG91dGZpbGUubWFlPic=

>  <r_lp_tautomer_probability>  (37) 
1

>  <r_epik_Ionization_Penalty>  (37) 
4.95133e-05

>  <r_epik_Ionization_Penalty_Charging>  (37) 
0

>  <r_epik_Ionization_Penalty_Neutral>  (37) 
4.95133e-05

>  <r_epik_State_Penalty>  (37) 
-0

>  <r_epik_Charging_Adjusted_Penalty>  (37) 
0

>  <i_epik_Tot_Q>  (37) 
0

>  <i_epik_Tot_abs_Q>  (37) 
0

>  <s_epik_Chemistry_Notes>  (37) 
This compound contains an acetal/aminal-like group ( X-CH(R)-Y where X, Y are N, S, or O) that may be acid/base labile, releasing an aldehyde.

>  <s_lp_Force_Field>  (37) 
OPLS3e

>  <r_lp_Energy>  (37) 
12.9393

>  <b_lp_Chiralities_Consistent>  (37) 
1

>  <s_lp_Variant>  (37) 
14:0-1

>  <s_i_glide_gridfile>  (37) 
pfpi4k_grid

>  <i_i_glide_lignum>  (37) 
17

>  <i_i_glide_rotatable_bonds>  (37) 
5

>  <r_i_docking_score>  (37) 
-3.55969

>  <r_i_glide_ligand_efficiency>  (37) 
-0.197761

>  <r_i_glide_ligand_efficiency_sa>  (37) 
-0.51828

>  <r_i_glide_ligand_efficiency_ln>  (37) 
-0.915001

>  <r_i_glide_gscore>  (37) 
-3.55969

>  <r_i_glide_lipo>  (37) 
-0.133601

>  <r_i_glide_hbond>  (37) 
0

>  <r_i_glide_metal>  (37) 
-0

>  <r_i_glide_rewards>  (37) 
-1.6961

>  <r_i_glide_evdw>  (37) 
-14.5098

>  <r_i_glide_ecoul>  (37) 
-9.56881

>  <r_i_glide_erotb>  (37) 
0.555274

>  <r_i_glide_esite>  (37) 
-0.124456

>  <r_i_glide_emodel>  (37) 
-28.9561

>  <r_i_glide_energy>  (37) 
-24.0786

>  <r_i_glide_einternal>  (37) 
3.08145

>  <r_i_glide_intrahb_reward>  (37) 
-0

>  <i_i_glide_confnum>  (37) 
1

>  <i_i_glide_posenum>  (37) 
15

>  <r_i_glide_eff_state_penalty>  (37) 
0

>  <ligand_id>  (37) 
14

>  <original_smiles>  (37) 
OCC1OC(n2nnc3ccccc32)C(O)C1O

>  <smiles>  (37) 
[H]OC([H])([H])C1([H])OC([H])(n2nnc3c([H])c([H])c([H])c([H])c32)C([H])(O[H])C1([H])O[H]

$$$$
14:0:1
     RDKit          3D

 31 33  0  0  1  0  0  0  0  0999 V2000
   -2.1920    4.7941    2.6311 O   0  0  0  0  0  0  0  0  0  0  0  0
   -2.8881    3.5680    2.8142 C   0  0  0  0  0  0  0  0  0  0  0  0
   -2.0674    2.6216    3.6995 C   0  0  2  0  0  0  0  0  0  0  0  0
   -1.7347    3.2652    4.9296 O   0  0  0  0  0  0  0  0  0  0  0  0
   -0.4223    2.9323    5.2892 C   0  0  1  0  0  0  0  0  0  0  0  0
   -0.3770    2.5423    6.7334 N   0  0  0  0  0  0  0  0  0  0  0  0
    0.7476    1.9754    7.2604 N   0  0  0  0  0  0  0  0  0  0  0  0
    0.5240    1.7067    8.5105 N   0  0  0  0  0  0  0  0  0  0  0  0
   -0.7281    2.1949    8.8405 C   0  0  0  0  0  0  0  0  0  0  0  0
   -1.4521    2.2195   10.0557 C   0  0  0  0  0  0  0  0  0  0  0  0
   -2.7370    2.8090   10.1067 C   0  0  0  0  0  0  0  0  0  0  0  0
   -3.3215    3.3622    8.9511 C   0  0  0  0  0  0  0  0  0  0  0  0
   -2.6106    3.3370    7.7400 C   0  0  0  0  0  0  0  0  0  0  0  0
   -1.3322    2.7559    7.6978 C   0  0  0  0  0  0  0  0  0  0  0  0
    0.0272    1.7872    4.3591 C   0  0  1  0  0  0  0  0  0  0  0  0
   -0.2905    0.4915    4.8533 O   0  0  0  0  0  0  0  0  0  0  0  0
   -0.7508    2.1204    3.1017 C   0  0  1  0  0  0  0  0  0  0  0  0
   -0.8694    0.9930    2.2516 O   0  0  0  0  0  0  0  0  0  0  0  0
   -1.4219    4.6330    2.0931 H   0  0  0  0  0  0  0  0  0  0  0  0
   -3.8781    3.7453    3.2347 H   0  0  0  0  0  0  0  0  0  0  0  0
   -3.0644    3.1037    1.8446 H   0  0  0  0  0  0  0  0  0  0  0  0
   -2.6745    1.7580    3.9669 H   0  0  0  0  0  0  0  0  0  0  0  0
    0.2050    3.8249    5.2129 H   0  0  0  0  0  0  0  0  0  0  0  0
   -1.0176    1.7866   10.9488 H   0  0  0  0  0  0  0  0  0  0  0  0
   -3.2686    2.8275   11.0502 H   0  0  0  0  0  0  0  0  0  0  0  0
   -4.3057    3.8097    8.9982 H   0  0  0  0  0  0  0  0  0  0  0  0
   -3.0487    3.7511    6.8600 H   0  0  0  0  0  0  0  0  0  0  0  0
    1.1025    1.8584    4.2041 H   0  0  0  0  0  0  0  0  0  0  0  0
   -0.0929   -0.1361    4.1670 H   0  0  0  0  0  0  0  0  0  0  0  0
   -0.2476    2.9263    2.5732 H   0  0  0  0  0  0  0  0  0  0  0  0
   -0.9852    1.2849    1.3538 H   0  0  0  0  0  0  0  0  0  0  0  0
  1  2  1  0
  1 19  1  0
  2  3  1  0
  2 20  1  0
  2 21  1  0
  3 17  1  0
  3  4  1  0
  3 22  1  1
  4  5  1  0
  5  6  1  0
  5 15  1  0
  5 23  1  1
  6 14  1  0
  6  7  1  0
  7  8  2  0
  8  9  1  0
  9 14  2  0
  9 10  1  0
 10 11  2  0
 10 24  1  0
 11 12  1  0
 11 25  1  0
 12 13  2  0
 12 26  1  0
 13 14  1  0
 13 27  1  0
 15 16  1  0
 15 17  1  0
 15 28  1  6
 16 29  1  0
 17 18  1  0
 17 30  1  6
 18 31  1  0
M  END
>  <i_m_ct_stereo_status>  (38) 
1

>  <s_m_source_file>  (38) 
/var/tmp/pbs.5076255.sched01/tmpcm5es6vs/0d3z1so5d.sdf

>  <i_m_source_file_index>  (38) 
17

>  <i_lp_mmshare_version>  (38) 
48012

>  <i_f3d_flags>  (38) 
0

>  <s_epik_input>  (38) 
W09IXVtDSDJdW0NAQEhdMU9bQ0BIXShbQ0BASF0oW09IXSlbQ0BIXTFbT0hdKW4obm4yKWMoYzIzKVtjSF1bY0hdW2NIXVtjSF0z

>  <s_epik_cmdline>  (38) 
J2VwaWtfcHl0aG9uJywgJy1waHQnLCAnMi4wJywgJy1waCcsICc3LjAnLCAnLXRuJywgJzgnLCAnLW1hJywgJzIwMCcsICctaW1hZScsICc8aW5maWxlLm1hZT4nLCAnLW9tYWUnLCAnPG91dGZpbGUubWFlPic=

>  <r_lp_tautomer_probability>  (38) 
1

>  <r_epik_Ionization_Penalty>  (38) 
4.95133e-05

>  <r_epik_Ionization_Penalty_Charging>  (38) 
0

>  <r_epik_Ionization_Penalty_Neutral>  (38) 
4.95133e-05

>  <r_epik_State_Penalty>  (38) 
-0

>  <r_epik_Charging_Adjusted_Penalty>  (38) 
0

>  <i_epik_Tot_Q>  (38) 
0

>  <i_epik_Tot_abs_Q>  (38) 
0

>  <s_epik_Chemistry_Notes>  (38) 
This compound contains an acetal/aminal-like group ( X-CH(R)-Y where X, Y are N, S, or O) that may be acid/base labile, releasing an aldehyde.

>  <s_lp_Force_Field>  (38) 
OPLS3e

>  <r_lp_Energy>  (38) 
12.9393

>  <b_lp_Chiralities_Consistent>  (38) 
1

>  <s_lp_Variant>  (38) 
14:0-1

>  <s_i_glide_gridfile>  (38) 
pfpi4k_grid

>  <i_i_glide_lignum>  (38) 
17

>  <i_i_glide_rotatable_bonds>  (38) 
5

>  <r_i_docking_score>  (38) 
-3.42877

>  <r_i_glide_ligand_efficiency>  (38) 
-0.190487

>  <r_i_glide_ligand_efficiency_sa>  (38) 
-0.499217

>  <r_i_glide_ligand_efficiency_ln>  (38) 
-0.881347

>  <r_i_glide_gscore>  (38) 
-3.42877

>  <r_i_glide_lipo>  (38) 
-0.135909

>  <r_i_glide_hbond>  (38) 
0

>  <r_i_glide_metal>  (38) 
-0

>  <r_i_glide_rewards>  (38) 
-1.6961

>  <r_i_glide_evdw>  (38) 
-16.8974

>  <r_i_glide_ecoul>  (38) 
-8.64985

>  <r_i_glide_erotb>  (38) 
0.555274

>  <r_i_glide_esite>  (38) 
-0.00968599

>  <r_i_glide_emodel>  (38) 
-29.4898

>  <r_i_glide_energy>  (38) 
-25.5472

>  <r_i_glide_einternal>  (38) 
5.50894

>  <r_i_glide_intrahb_reward>  (38) 
-0

>  <i_i_glide_confnum>  (38) 
1

>  <i_i_glide_posenum>  (38) 
18

>  <r_i_glide_eff_state_penalty>  (38) 
0

>  <ligand_id>  (38) 
14

>  <original_smiles>  (38) 
OCC1OC(n2nnc3ccccc32)C(O)C1O

>  <smiles>  (38) 
[H]OC([H])([H])C1([H])OC([H])(n2nnc3c([H])c([H])c([H])c([H])c32)C([H])(O[H])C1([H])O[H]

$$$$
14:0:2
     RDKit          3D

 31 33  0  0  1  0  0  0  0  0999 V2000
    2.2086    5.0574    2.4907 O   0  0  0  0  0  0  0  0  0  0  0  0
    2.4208    3.8146    3.1240 C   0  0  0  0  0  0  0  0  0  0  0  0
    1.0699    3.1637    3.4765 C   0  0  2  0  0  0  0  0  0  0  0  0
    0.9461    2.9960    4.8878 O   0  0  0  0  0  0  0  0  0  0  0  0
    0.3568    1.7598    5.1866 C   0  0  1  0  0  0  0  0  0  0  0  0
   -0.7745    1.9446    6.1567 N   0  0  0  0  0  0  0  0  0  0  0  0
   -1.6460    0.9240    6.3953 N   0  0  0  0  0  0  0  0  0  0  0  0
   -2.5309    1.3329    7.2531 N   0  0  0  0  0  0  0  0  0  0  0  0
   -2.1883    2.6042    7.6579 C   0  0  0  0  0  0  0  0  0  0  0  0
   -2.7729    3.4856    8.5942 C   0  0  0  0  0  0  0  0  0  0  0  0
   -2.1918    4.7500    8.8386 C   0  0  0  0  0  0  0  0  0  0  0  0
   -1.0265    5.1490    8.1420 C   0  0  0  0  0  0  0  0  0  0  0  0
   -0.4466    4.2767    7.2034 C   0  0  0  0  0  0  0  0  0  0  0  0
   -1.0315    3.0254    6.9711 C   0  0  0  0  0  0  0  0  0  0  0  0
   -0.0944    1.1413    3.8523 C   0  0  1  0  0  0  0  0  0  0  0  0
   -1.4045    1.5231    3.4756 O   0  0  0  0  0  0  0  0  0  0  0  0
    0.9157    1.7518    2.9108 C   0  0  1  0  0  0  0  0  0  0  0  0
    0.4560    1.7425    1.5731 O   0  0  0  0  0  0  0  0  0  0  0  0
    1.5602    4.9355    1.8015 H   0  0  0  0  0  0  0  0  0  0  0  0
    3.0108    3.1878    2.4532 H   0  0  0  0  0  0  0  0  0  0  0  0
    3.0311    3.9634    4.0153 H   0  0  0  0  0  0  0  0  0  0  0  0
    0.2266    3.7794    3.1570 H   0  0  0  0  0  0  0  0  0  0  0  0
    1.0908    1.1514    5.7201 H   0  0  0  0  0  0  0  0  0  0  0  0
   -3.6608    3.1706    9.1309 H   0  0  0  0  0  0  0  0  0  0  0  0
   -2.6446    5.4070    9.5730 H   0  0  0  0  0  0  0  0  0  0  0  0
   -0.5772    6.1129    8.3308 H   0  0  0  0  0  0  0  0  0  0  0  0
    0.4361    4.5740    6.6710 H   0  0  0  0  0  0  0  0  0  0  0  0
   -0.0281    0.0536    3.9150 H   0  0  0  0  0  0  0  0  0  0  0  0
   -1.3765    2.4124    3.1505 H   0  0  0  0  0  0  0  0  0  0  0  0
    1.8553    1.2085    2.9984 H   0  0  0  0  0  0  0  0  0  0  0  0
    0.2632    2.6392    1.2959 H   0  0  0  0  0  0  0  0  0  0  0  0
  1  2  1  0
  1 19  1  0
  2  3  1  0
  2 20  1  0
  2 21  1  0
  3 17  1  0
  3  4  1  0
  3 22  1  6
  4  5  1  0
  5  6  1  0
  5 15  1  0
  5 23  1  1
  6 14  1  0
  6  7  1  0
  7  8  2  0
  8  9  1  0
  9 14  2  0
  9 10  1  0
 10 11  2  0
 10 24  1  0
 11 12  1  0
 11 25  1  0
 12 13  2  0
 12 26  1  0
 13 14  1  0
 13 27  1  0
 15 16  1  0
 15 17  1  0
 15 28  1  1
 16 29  1  0
 17 18  1  0
 17 30  1  6
 18 31  1  0
M  END
>  <i_m_ct_stereo_status>  (39) 
1

>  <s_m_source_file>  (39) 
/var/tmp/pbs.5076255.sched01/tmpcm5es6vs/0d3z1so5d.sdf

>  <i_m_source_file_index>  (39) 
17

>  <i_lp_mmshare_version>  (39) 
48012

>  <i_f3d_flags>  (39) 
0

>  <s_epik_input>  (39) 
W09IXVtDSDJdW0NAQEhdMU9bQ0BIXShbQ0BASF0oW09IXSlbQ0BIXTFbT0hdKW4obm4yKWMoYzIzKVtjSF1bY0hdW2NIXVtjSF0z

>  <s_epik_cmdline>  (39) 
J2VwaWtfcHl0aG9uJywgJy1waHQnLCAnMi4wJywgJy1waCcsICc3LjAnLCAnLXRuJywgJzgnLCAnLW1hJywgJzIwMCcsICctaW1hZScsICc8aW5maWxlLm1hZT4nLCAnLW9tYWUnLCAnPG91dGZpbGUubWFlPic=

>  <r_lp_tautomer_probability>  (39) 
1

>  <r_epik_Ionization_Penalty>  (39) 
4.95133e-05

>  <r_epik_Ionization_Penalty_Charging>  (39) 
0

>  <r_epik_Ionization_Penalty_Neutral>  (39) 
4.95133e-05

>  <r_epik_State_Penalty>  (39) 
-0

>  <r_epik_Charging_Adjusted_Penalty>  (39) 
0

>  <i_epik_Tot_Q>  (39) 
0

>  <i_epik_Tot_abs_Q>  (39) 
0

>  <s_epik_Chemistry_Notes>  (39) 
This compound contains an acetal/aminal-like group ( X-CH(R)-Y where X, Y are N, S, or O) that may be acid/base labile, releasing an aldehyde.

>  <s_lp_Force_Field>  (39) 
OPLS3e

>  <r_lp_Energy>  (39) 
12.9393

>  <b_lp_Chiralities_Consistent>  (39) 
1

>  <s_lp_Variant>  (39) 
14:0-1

>  <s_i_glide_gridfile>  (39) 
pfpi4k_grid

>  <i_i_glide_lignum>  (39) 
17

>  <i_i_glide_rotatable_bonds>  (39) 
5

>  <r_i_docking_score>  (39) 
-3.41536

>  <r_i_glide_ligand_efficiency>  (39) 
-0.189742

>  <r_i_glide_ligand_efficiency_sa>  (39) 
-0.497265

>  <r_i_glide_ligand_efficiency_ln>  (39) 
-0.8779

>  <r_i_glide_gscore>  (39) 
-3.41536

>  <r_i_glide_lipo>  (39) 
-0.125694

>  <r_i_glide_hbond>  (39) 
0

>  <r_i_glide_metal>  (39) 
-0

>  <r_i_glide_rewards>  (39) 
-1.6961

>  <r_i_glide_evdw>  (39) 
-15.8826

>  <r_i_glide_ecoul>  (39) 
-7.98011

>  <r_i_glide_erotb>  (39) 
0.555274

>  <r_i_glide_esite>  (39) 
-0.15769

>  <r_i_glide_emodel>  (39) 
-28.1643

>  <r_i_glide_energy>  (39) 
-23.8627

>  <r_i_glide_einternal>  (39) 
4.19535

>  <r_i_glide_intrahb_reward>  (39) 
-0

>  <i_i_glide_confnum>  (39) 
4

>  <i_i_glide_posenum>  (39) 
17

>  <r_i_glide_eff_state_penalty>  (39) 
0

>  <ligand_id>  (39) 
14

>  <original_smiles>  (39) 
OCC1OC(n2nnc3ccccc32)C(O)C1O

>  <smiles>  (39) 
[H]OC([H])([H])C1([H])OC([H])(n2nnc3c([H])c([H])c([H])c([H])c32)C([H])(O[H])C1([H])O[H]

$$$$
15:0:0
     RDKit          3D

 88 96  0  0  1  0  0  0  0  0999 V2000
    4.7754   -1.4438    6.7527 C   0  0  0  0  0  0  0  0  0  0  0  0
    5.4434   -2.1623    5.7133 O   0  0  0  0  0  0  0  0  0  0  0  0
    4.6542   -2.9772    4.8129 C   0  0  1  0  0  0  0  0  0  0  0  0
    3.2029   -2.8750    5.3416 C   0  0  0  0  0  0  0  0  0  0  0  0
    2.0540   -2.9281    4.3255 C   0  0  2  0  0  0  0  0  0  0  0  0
    1.9581   -4.3258    3.6136 C   0  0  1  0  0  0  0  0  0  0  0  0
    2.2581   -3.9220    2.0828 C   0  0  1  0  0  0  0  0  0  0  0  0
    2.2076   -2.3491    1.8908 C   0  0  2  0  0  0  0  0  0  0  0  0
    3.1271   -1.6637    0.7653 C   0  0  2  0  0  0  0  0  0  0  0  0
    3.0185   -2.2720   -0.4502 O   0  0  0  0  0  0  0  0  0  0  0  0
    4.0794   -3.2081   -0.4845 C   0  0  2  0  0  0  0  0  0  0  0  0
    3.5280   -4.4840   -0.1500 C   0  0  0  0  0  0  0  0  0  0  0  0
    3.4857   -4.5265    1.4117 C   0  0  2  0  0  0  0  0  0  0  0  0
    3.2667   -6.0165    1.3040 C   0  0  0  0  0  0  0  0  0  0  0  0
    4.8212   -3.8959    2.0808 C   0  0  2  0  0  0  0  0  0  0  0  0
    5.7159   -5.1899    2.4300 C   0  0  0  0  0  0  0  0  0  0  0  0
    5.2587   -6.3369    3.5207 C   0  0  2  0  0  0  0  0  0  0  0  0
    4.5166   -7.7241    3.2962 C   0  0  0  0  0  0  0  0  0  0  0  0
    3.0614   -7.9483    3.3314 O   0  0  0  0  0  0  0  0  0  0  0  0
    1.9536   -7.2313    3.8298 C   0  0  2  0  0  0  0  0  0  0  0  0
    1.1340   -8.0963    4.8015 C   0  0  0  0  0  0  0  0  0  0  0  0
    0.4987   -9.2810    4.0634 C   0  0  0  0  0  0  0  0  0  0  0  0
   -0.2782   -8.7732    2.8424 C   0  0  1  0  0  0  0  0  0  0  0  0
   -1.5036   -7.9868    3.2992 C   0  0  0  0  0  0  0  0  0  0  0  0
    0.6138   -7.8743    1.9708 C   0  0  0  0  0  0  0  0  0  0  0  0
    1.1244   -6.7965    2.7537 O   0  0  0  0  0  0  0  0  0  0  0  0
    2.2325   -5.7525    4.5197 C   0  0  2  0  0  0  0  0  0  0  0  0
    1.1744   -5.5780    5.6757 C   0  0  0  0  0  0  0  0  0  0  0  0
    3.5802   -5.9886    5.3266 C   0  0  0  0  0  0  0  0  0  0  0  0
    4.9007   -5.8890    4.7970 O   0  0  0  0  0  0  0  0  0  0  0  0
    5.0013   -2.7574    3.2938 C   0  0  0  0  0  0  0  0  0  0  0  0
    5.8103   -1.6341    3.1912 C   0  0  0  0  0  0  0  0  0  0  0  0
    5.4686   -0.4566    3.7276 C   0  0  0  0  0  0  0  0  0  0  0  0
    5.4529   -0.5226    3.5526 C   0  0  0  0  0  0  0  0  0  0  0  0
    6.0724    1.0049    4.1951 O   0  0  0  0  0  0  0  0  0  0  0  0
    3.8762    0.0943    2.9772 C   0  0  0  0  0  0  0  0  0  0  0  0
    2.9190   -0.5418    3.7638 C   0  0  0  0  0  0  0  0  0  0  0  0
    1.9798   -1.6888    3.3103 C   0  0  2  0  0  0  0  0  0  0  0  0
    0.5590   -1.0651    3.3717 C   0  0  0  0  0  0  0  0  0  0  0  0
    5.0005   -2.9962    0.7279 C   0  0  1  0  0  0  0  0  0  0  0  0
    6.2837   -3.1097    0.2487 O   0  0  0  0  0  0  0  0  0  0  0  0
    4.5324   -1.6965    0.9182 O   0  0  0  0  0  0  0  0  0  0  0  0
    5.5162   -0.9370    7.3692 H   0  0  0  0  0  0  0  0  0  0  0  0
    4.2084   -2.1137    7.4010 H   0  0  0  0  0  0  0  0  0  0  0  0
    4.0989   -0.6828    6.3634 H   0  0  0  0  0  0  0  0  0  0  0  0
    5.1535   -3.8689    5.0565 H   0  0  0  0  0  0  0  0  0  0  0  0
    3.0491   -3.5765    6.1414 H   0  0  0  0  0  0  0  0  0  0  0  0
    3.0859   -1.9938    5.9644 H   0  0  0  0  0  0  0  0  0  0  0  0
    1.1722   -2.8483    4.9643 H   0  0  0  0  0  0  0  0  0  0  0  0
    0.8748   -4.4197    3.5070 H   0  0  0  0  0  0  0  0  0  0  0  0
    1.4131   -4.3117    1.5061 H   0  0  0  0  0  0  0  0  0  0  0  0
    1.2476   -2.2297    1.3838 H   0  0  0  0  0  0  0  0  0  0  0  0
    2.7963   -0.6393    0.5936 H   0  0  0  0  0  0  0  0  0  0  0  0
    4.5839   -3.1796   -1.4545 H   0  0  0  0  0  0  0  0  0  0  0  0
    2.5551   -4.6235   -0.6337 H   0  0  0  0  0  0  0  0  0  0  0  0
    4.2201   -5.1880   -0.6329 H   0  0  0  0  0  0  0  0  0  0  0  0
    4.0834   -6.6397    0.9341 H   0  0  0  0  0  0  0  0  0  0  0  0
    2.3296   -6.3389    0.8434 H   0  0  0  0  0  0  0  0  0  0  0  0
    3.1809   -6.1071    2.3146 H   0  0  0  0  0  0  0  0  0  0  0  0
    5.9929   -5.6937    1.5039 H   0  0  0  0  0  0  0  0  0  0  0  0
    6.6709   -4.7950    2.7797 H   0  0  0  0  0  0  0  0  0  0  0  0
    6.2544   -6.7245    3.7441 H   0  0  0  0  0  0  0  0  0  0  0  0
    4.8910   -8.1812    2.3803 H   0  0  0  0  0  0  0  0  0  0  0  0
    4.8778   -8.3951    4.0775 H   0  0  0  0  0  0  0  0  0  0  0  0
    1.7684   -8.4535    5.6126 H   0  0  0  0  0  0  0  0  0  0  0  0
    0.3558   -7.4883    5.2625 H   0  0  0  0  0  0  0  0  0  0  0  0
    1.2774   -9.9721    3.7409 H   0  0  0  0  0  0  0  0  0  0  0  0
   -0.1587   -9.8391    4.7301 H   0  0  0  0  0  0  0  0  0  0  0  0
   -0.6507   -9.6134    2.2564 H   0  0  0  0  0  0  0  0  0  0  0  0
   -1.2313   -7.0865    3.8508 H   0  0  0  0  0  0  0  0  0  0  0  0
   -2.1418   -8.5913    3.9442 H   0  0  0  0  0  0  0  0  0  0  0  0
   -2.1093   -7.6755    2.4475 H   0  0  0  0  0  0  0  0  0  0  0  0
    1.4344   -8.4452    1.5362 H   0  0  0  0  0  0  0  0  0  0  0  0
    0.0369   -7.4678    1.1401 H   0  0  0  0  0  0  0  0  0  0  0  0
    1.2724   -6.3239    6.4653 H   0  0  0  0  0  0  0  0  0  0  0  0
    0.1523   -5.6347    5.2970 H   0  0  0  0  0  0  0  0  0  0  0  0
    1.2354   -4.6374    6.2128 H   0  0  0  0  0  0  0  0  0  0  0  0
    3.6210   -5.4550    6.2696 H   0  0  0  0  0  0  0  0  0  0  0  0
    3.5576   -7.0003    5.7310 H   0  0  0  0  0  0  0  0  0  0  0  0
    6.2678   -0.2720    4.8204 H   0  0  0  0  0  0  0  0  0  0  0  0
    4.3465   -0.1078    4.3886 H   0  0  0  0  0  0  0  0  0  0  0  0
    5.7641    0.6851    2.8198 H   0  0  0  0  0  0  0  0  0  0  0  0
    3.9854    0.1565    2.0785 H   0  0  0  0  0  0  0  0  0  0  0  0
    2.9778   -0.4258    4.8353 H   0  0  0  0  0  0  0  0  0  0  0  0
   -0.2128   -1.8068    3.1611 H   0  0  0  0  0  0  0  0  0  0  0  0
    0.4422   -0.2635    2.6405 H   0  0  0  0  0  0  0  0  0  0  0  0
    0.3374   -0.6498    4.3564 H   0  0  0  0  0  0  0  0  0  0  0  0
    6.2726   -2.8632   -0.6786 H   0  0  0  0  0  0  0  0  0  0  0  0
  1  2  1  0
  1 43  1  0
  1 44  1  0
  1 45  1  0
  2  3  1  0
  3 31  1  0
  3  4  1  0
  3 46  1  1
  4  5  1  0
  4 47  1  0
  4 48  1  0
  5 38  1  0
  5  6  1  0
  5 49  1  1
  6 27  1  0
  6  7  1  0
  6 50  1  6
  7 13  1  0
  7  8  1  0
  7 51  1  6
  8 38  1  0
  8  9  1  0
  8 52  1  6
  9 42  1  0
  9 10  1  0
  9 53  1  6
 10 11  1  0
 11 40  1  0
 11 12  1  0
 11 54  1  6
 12 13  1  0
 12 55  1  0
 12 56  1  0
 13 14  1  6
 13 15  1  0
 14 57  1  0
 14 58  1  0
 14 59  1  0
 15 16  1  1
 15 31  1  0
 15 40  1  0
 16 17  1  0
 16 60  1  0
 16 61  1  0
 17 30  1  0
 17 18  1  0
 17 62  1  1
 18 19  1  0
 18 63  1  0
 18 64  1  0
 20 19  1  6
 20 26  1  0
 20 21  1  0
 20 27  1  0
 21 22  1  0
 21 65  1  0
 21 66  1  0
 22 23  1  0
 22 67  1  0
 22 68  1  0
 23 24  1  0
 23 25  1  0
 23 69  1  6
 24 70  1  0
 24 71  1  0
 24 72  1  0
 25 26  1  0
 25 73  1  0
 25 74  1  0
 27 28  1  1
 27 29  1  0
 28 75  1  0
 28 76  1  0
 28 77  1  0
 29 30  1  0
 29 78  1  0
 29 79  1  0
 31 32  2  3
 32 33  1  0
 32 34  1  0
 33 80  1  0
 33 81  1  0
 33 82  1  0
 34 35  2  0
 34 36  1  0
 36 37  2  3
 36 83  1  0
 37 38  1  0
 37 84  1  0
 38 39  1  6
 39 85  1  0
 39 86  1  0
 39 87  1  0
 40 41  1  6
 40 42  1  0
 41 88  1  0
M  END
>  <i_m_ct_stereo_status>  (40) 
1

>  <s_m_source_file>  (40) 
/var/tmp/pbs.5076255.sched01/tmpcm5es6vs/0d3z1so5d.sdf

>  <i_m_source_file_index>  (40) 
18

>  <i_lp_mmshare_version>  (40) 
48012

>  <i_f3d_flags>  (40) 
0

>  <s_epik_input>  (40) 
W0NIM11PW0NIXShbQ0gyXTEpL0MyPUMoL1tDSDNdKUMoPU8pL1tDSF09W0NIXVxbQ0BAXShbQ0gzXSkoW0NASF0zW0NAQEhdNE9bQ0BIXShbQ0gyXTUpW0NAXTYoTzQpW09IXSlbQ0BIXTFbQ0hdKFtDQEBIXTNbQ0BAXTUoW0NAXTI2NylbQ0gzXSlbQ0BAXTgoW0NIM10pW0NAXTkoW0NIMl1bQ0gyXVtDQEBIXShbQ0gzXSlbQ0gyXU85KU9bQ0gyXVtDQEBIXShbQ0gyXTcpT1tDSDJdOA==

>  <s_epik_cmdline>  (40) 
J2VwaWtfcHl0aG9uJywgJy1waHQnLCAnMi4wJywgJy1waCcsICc3LjAnLCAnLXRuJywgJzgnLCAnLW1hJywgJzIwMCcsICctaW1hZScsICc8aW5maWxlLm1hZT4nLCAnLW9tYWUnLCAnPG91dGZpbGUubWFlPic=

>  <r_lp_tautomer_probability>  (40) 
1

>  <r_epik_Ionization_Penalty>  (40) 
3.04159e-06

>  <r_epik_Ionization_Penalty_Charging>  (40) 
0

>  <r_epik_Ionization_Penalty_Neutral>  (40) 
3.04159e-06

>  <r_epik_State_Penalty>  (40) 
-0

>  <r_epik_Charging_Adjusted_Penalty>  (40) 
0

>  <i_epik_Tot_Q>  (40) 
0

>  <i_epik_Tot_abs_Q>  (40) 
0

>  <s_epik_Chemistry_Notes>  (40) 
This compound contains an acetal/aminal-like group ( X-CH(R)-Y where X, Y are N, S, or O) that may be acid/base labile, releasing an aldehyde.

>  <s_lp_Force_Field>  (40) 
OPLS3e

>  <r_lp_Energy>  (40) 
379.368

>  <b_lp_Chiralities_Consistent>  (40) 
1

>  <s_lp_Variant>  (40) 
15:0-1

>  <s_i_glide_gridfile>  (40) 
pfpi4k_grid

>  <i_i_glide_lignum>  (40) 
18

>  <i_i_glide_rotatable_bonds>  (40) 
2

>  <r_i_docking_score>  (40) 
45.3229

>  <r_i_glide_ligand_efficiency>  (40) 
1.07912

>  <r_i_glide_ligand_efficiency_sa>  (40) 
3.75104

>  <r_i_glide_ligand_efficiency_ln>  (40) 
9.5665

>  <r_i_glide_gscore>  (40) 
45.3229

>  <r_i_glide_lipo>  (40) 
-0.34867

>  <r_i_glide_hbond>  (40) 
-0.00205548

>  <r_i_glide_metal>  (40) 
-0

>  <r_i_glide_rewards>  (40) 
-0.213344

>  <r_i_glide_evdw>  (40) 
-0.112446

>  <r_i_glide_ecoul>  (40) 
-1.42294

>  <r_i_glide_erotb>  (40) 
0

>  <r_i_glide_esite>  (40) 
-0.0655635

>  <r_i_glide_emodel>  (40) 
199.531

>  <r_i_glide_energy>  (40) 
-1.53538

>  <r_i_glide_einternal>  (40) 
27.1195

>  <r_i_glide_intrahb_reward>  (40) 
-0

>  <i_i_glide_confnum>  (40) 
1

>  <i_i_glide_posenum>  (40) 
1

>  <r_i_glide_eff_state_penalty>  (40) 
0

>  <ligand_id>  (40) 
15

>  <original_smiles>  (40) 
COC1CC2C3C4C5C6OC7CC4(C)C(CC4COC8(CCC(C)CO8)C3(C)CO4)(C1=C(C)C(=O)C=CC25C)C7(O)O6

>  <smiles>  (40) 
[H]OC12OC3([H])OC1([H])C([H])([H])C1(C([H])([H])[H])C4([H])C3([H])C3(C([H])([H])[H])C([H])=C([H])C(=O)C(C([H])([H])[H])=C5C([H])(OC([H])([H])[H])C([H])([H])C3([H])C4([H])C3(C([H])([H])[H])C([H])([H])OC([H])(C([H])([H])OC34OC([H])([H])C([H])(C([H])([H])[H])C([H])([H])C4([H])[H])C([H])([H])C521

$$$$
15:0:1
     RDKit          3D

 88 96  0  0  1  0  0  0  0  0999 V2000
   -0.1739   -2.5027    5.0569 C   0  0  0  0  0  0  0  0  0  0  0  0
    0.5942   -3.5707    5.6258 O   0  0  0  0  0  0  0  0  0  0  0  0
    1.8136   -3.9639    4.9605 C   0  0  1  0  0  0  0  0  0  0  0  0
    2.7309   -2.7180    5.0132 C   0  0  0  0  0  0  0  0  0  0  0  0
    4.2422   -2.9287    5.1323 C   0  0  2  0  0  0  0  0  0  0  0  0
    4.8445   -3.6108    3.8487 C   0  0  1  0  0  0  0  0  0  0  0  0
    5.3865   -5.0009    4.4593 C   0  0  1  0  0  0  0  0  0  0  0  0
    5.3874   -4.9640    6.0459 C   0  0  2  0  0  0  0  0  0  0  0  0
    5.1650   -6.3332    6.8562 C   0  0  2  0  0  0  0  0  0  0  0  0
    5.9783   -7.3410    6.4316 O   0  0  0  0  0  0  0  0  0  0  0  0
    5.1984   -8.0477    5.4890 C   0  0  2  0  0  0  0  0  0  0  0  0
    5.6010   -7.6059    4.1891 C   0  0  0  0  0  0  0  0  0  0  0  0
    4.7911   -6.2977    3.9320 C   0  0  2  0  0  0  0  0  0  0  0  0
    5.1750   -6.4246    2.4723 C   0  0  0  0  0  0  0  0  0  0  0  0
    3.2567   -6.4124    4.4247 C   0  0  2  0  0  0  0  0  0  0  0  0
    2.4448   -6.7514    3.0777 C   0  0  0  0  0  0  0  0  0  0  0  0
    2.3417   -5.7191    1.7961 C   0  0  2  0  0  0  0  0  0  0  0  0
    3.2186   -5.6386    0.4770 C   0  0  0  0  0  0  0  0  0  0  0  0
    4.4323   -4.8342    0.2862 O   0  0  0  0  0  0  0  0  0  0  0  0
    5.0072   -3.7363    0.9476 C   0  0  2  0  0  0  0  0  0  0  0  0
    5.2506   -2.5728   -0.0303 C   0  0  0  0  0  0  0  0  0  0  0  0
    6.2962   -2.9479   -1.0841 C   0  0  0  0  0  0  0  0  0  0  0  0
    7.5519   -3.4767   -0.3958 C   0  0  1  0  0  0  0  0  0  0  0  0
    8.2557   -2.3395    0.3498 C   0  0  0  0  0  0  0  0  0  0  0  0
    7.2006   -4.6021    0.6028 C   0  0  0  0  0  0  0  0  0  0  0  0
    6.2501   -4.1198    1.5443 O   0  0  0  0  0  0  0  0  0  0  0  0
    4.2604   -3.1632    2.3054 C   0  0  2  0  0  0  0  0  0  0  0  0
    4.4993   -1.6060    2.3379 C   0  0  0  0  0  0  0  0  0  0  0  0
    2.7178   -3.2591    1.9253 C   0  0  0  0  0  0  0  0  0  0  0  0
    1.8988   -4.4159    2.0702 O   0  0  0  0  0  0  0  0  0  0  0  0
    2.3365   -5.3893    5.3766 C   0  0  0  0  0  0  0  0  0  0  0  0
    1.6079   -5.8029    6.4900 C   0  0  0  0  0  0  0  0  0  0  0  0
    1.4836   -5.0507    7.5859 C   0  0  0  0  0  0  0  0  0  0  0  0
    1.6057   -5.1982    7.5357 C   0  0  0  0  0  0  0  0  0  0  0  0
    0.5837   -4.8341    8.9650 O   0  0  0  0  0  0  0  0  0  0  0  0
    3.1752   -4.7362    8.2670 C   0  0  0  0  0  0  0  0  0  0  0  0
    3.5984   -3.6219    7.5591 C   0  0  0  0  0  0  0  0  0  0  0  0
    4.7436   -3.6004    6.5082 C   0  0  2  0  0  0  0  0  0  0  0  0
    5.8360   -2.6972    7.1461 C   0  0  0  0  0  0  0  0  0  0  0  0
    3.7543   -7.5310    5.5057 C   0  0  1  0  0  0  0  0  0  0  0  0
    2.9526   -8.6540    5.4354 O   0  0  0  0  0  0  0  0  0  0  0  0
    3.9168   -6.9832    6.7766 O   0  0  0  0  0  0  0  0  0  0  0  0
   -1.0908   -2.3775    5.6422 H   0  0  0  0  0  0  0  0  0  0  0  0
   -0.4704   -2.7287    4.0321 H   0  0  0  0  0  0  0  0  0  0  0  0
    0.3525   -1.5542    5.0806 H   0  0  0  0  0  0  0  0  0  0  0  0
    1.3585   -4.1342    4.0328 H   0  0  0  0  0  0  0  0  0  0  0  0
    2.4879   -2.0412    4.2172 H   0  0  0  0  0  0  0  0  0  0  0  0
    2.4000   -2.0454    5.8070 H   0  0  0  0  0  0  0  0  0  0  0  0
    4.6185   -1.9070    5.1441 H   0  0  0  0  0  0  0  0  0  0  0  0
    5.8129   -3.1094    3.8015 H   0  0  0  0  0  0  0  0  0  0  0  0
    6.4452   -5.0492    4.1719 H   0  0  0  0  0  0  0  0  0  0  0  0
    6.4449   -4.8478    6.2587 H   0  0  0  0  0  0  0  0  0  0  0  0
    5.4336   -6.1867    7.9078 H   0  0  0  0  0  0  0  0  0  0  0  0
    5.3030   -9.1277    5.6404 H   0  0  0  0  0  0  0  0  0  0  0  0
    6.6829   -7.4825    4.1397 H   0  0  0  0  0  0  0  0  0  0  0  0
    5.3537   -8.4597    3.5424 H   0  0  0  0  0  0  0  0  0  0  0  0
    4.7528   -7.2409    1.8861 H   0  0  0  0  0  0  0  0  0  0  0  0
    6.2419   -6.3193    2.2439 H   0  0  0  0  0  0  0  0  0  0  0  0
    4.7085   -5.5439    2.2442 H   0  0  0  0  0  0  0  0  0  0  0  0
    2.7654   -7.7268    2.7054 H   0  0  0  0  0  0  0  0  0  0  0  0
    1.4150   -6.9530    3.3958 H   0  0  0  0  0  0  0  0  0  0  0  0
    1.4228   -6.1219    1.3636 H   0  0  0  0  0  0  0  0  0  0  0  0
    3.4482   -6.6487    0.1422 H   0  0  0  0  0  0  0  0  0  0  0  0
    2.5529   -5.2608   -0.3020 H   0  0  0  0  0  0  0  0  0  0  0  0
    4.3183   -2.2807   -0.5075 H   0  0  0  0  0  0  0  0  0  0  0  0
    5.5892   -1.6862    0.5282 H   0  0  0  0  0  0  0  0  0  0  0  0
    5.8864   -3.7203   -1.7313 H   0  0  0  0  0  0  0  0  0  0  0  0
    6.5345   -2.0925   -1.7169 H   0  0  0  0  0  0  0  0  0  0  0  0
    8.2649   -3.8442   -1.1325 H   0  0  0  0  0  0  0  0  0  0  0  0
    7.6420   -1.9423    1.1651 H   0  0  0  0  0  0  0  0  0  0  0  0
    8.4955   -1.5218   -0.3166 H   0  0  0  0  0  0  0  0  0  0  0  0
    9.1961   -2.6833    0.7988 H   0  0  0  0  0  0  0  0  0  0  0  0
    6.8076   -5.4704    0.0863 H   0  0  0  0  0  0  0  0  0  0  0  0
    8.0970   -4.9243    1.1290 H   0  0  0  0  0  0  0  0  0  0  0  0
    4.0524   -1.0847    1.4919 H   0  0  0  0  0  0  0  0  0  0  0  0
    5.5632   -1.3564    2.3595 H   0  0  0  0  0  0  0  0  0  0  0  0
    4.0661   -1.0923    3.1954 H   0  0  0  0  0  0  0  0  0  0  0  0
    2.1248   -2.4509    2.3222 H   0  0  0  0  0  0  0  0  0  0  0  0
    2.6154   -3.0207    0.8771 H   0  0  0  0  0  0  0  0  0  0  0  0
    0.2106   -4.5630    7.5953 H   0  0  0  0  0  0  0  0  0  0  0  0
    2.0210   -3.8417    7.8743 H   0  0  0  0  0  0  0  0  0  0  0  0
    1.6255   -5.8407    8.8430 H   0  0  0  0  0  0  0  0  0  0  0  0
    3.5561   -5.5297    8.4621 H   0  0  0  0  0  0  0  0  0  0  0  0
    2.9572   -2.7540    7.5241 H   0  0  0  0  0  0  0  0  0  0  0  0
    6.6657   -2.5236    6.4592 H   0  0  0  0  0  0  0  0  0  0  0  0
    6.2464   -3.1556    8.0448 H   0  0  0  0  0  0  0  0  0  0  0  0
    5.4432   -1.7230    7.4257 H   0  0  0  0  0  0  0  0  0  0  0  0
    3.3471   -9.3319    5.9768 H   0  0  0  0  0  0  0  0  0  0  0  0
  1  2  1  0
  1 43  1  0
  1 44  1  0
  1 45  1  0
  2  3  1  0
  3 31  1  0
  3  4  1  0
  3 46  1  6
  4  5  1  0
  4 47  1  0
  4 48  1  0
  5 38  1  0
  5  6  1  0
  5 49  1  1
  6 27  1  0
  6  7  1  0
  6 50  1  6
  7 13  1  0
  7  8  1  0
  7 51  1  6
  8 38  1  0
  8  9  1  0
  8 52  1  1
  9 42  1  0
  9 10  1  0
  9 53  1  1
 10 11  1  0
 11 40  1  0
 11 12  1  0
 11 54  1  6
 12 13  1  0
 12 55  1  0
 12 56  1  0
 13 14  1  6
 13 15  1  0
 14 57  1  0
 14 58  1  0
 14 59  1  0
 15 16  1  6
 15 31  1  0
 15 40  1  0
 16 17  1  0
 16 60  1  0
 16 61  1  0
 17 30  1  0
 17 18  1  0
 17 62  1  6
 18 19  1  0
 18 63  1  0
 18 64  1  0
 20 19  1  6
 20 26  1  0
 20 21  1  0
 20 27  1  0
 21 22  1  0
 21 65  1  0
 21 66  1  0
 22 23  1  0
 22 67  1  0
 22 68  1  0
 23 24  1  0
 23 25  1  0
 23 69  1  6
 24 70  1  0
 24 71  1  0
 24 72  1  0
 25 26  1  0
 25 73  1  0
 25 74  1  0
 27 28  1  6
 27 29  1  0
 28 75  1  0
 28 76  1  0
 28 77  1  0
 29 30  1  0
 29 78  1  0
 29 79  1  0
 31 32  2  3
 32 33  1  0
 32 34  1  0
 33 80  1  0
 33 81  1  0
 33 82  1  0
 34 35  2  0
 34 36  1  0
 36 37  2  3
 36 83  1  0
 37 38  1  0
 37 84  1  0
 38 39  1  1
 39 85  1  0
 39 86  1  0
 39 87  1  0
 40 41  1  1
 40 42  1  0
 41 88  1  0
M  END
>  <i_m_ct_stereo_status>  (41) 
1

>  <s_m_source_file>  (41) 
/var/tmp/pbs.5076255.sched01/tmpcm5es6vs/0d3z1so5d.sdf

>  <i_m_source_file_index>  (41) 
18

>  <i_lp_mmshare_version>  (41) 
48012

>  <i_f3d_flags>  (41) 
0

>  <s_epik_input>  (41) 
W0NIM11PW0NIXShbQ0gyXTEpL0MyPUMoL1tDSDNdKUMoPU8pL1tDSF09W0NIXVxbQ0BAXShbQ0gzXSkoW0NASF0zW0NAQEhdNE9bQ0BIXShbQ0gyXTUpW0NAXTYoTzQpW09IXSlbQ0BIXTFbQ0hdKFtDQEBIXTNbQ0BAXTUoW0NAXTI2NylbQ0gzXSlbQ0BAXTgoW0NIM10pW0NAXTkoW0NIMl1bQ0gyXVtDQEBIXShbQ0gzXSlbQ0gyXU85KU9bQ0gyXVtDQEBIXShbQ0gyXTcpT1tDSDJdOA==

>  <s_epik_cmdline>  (41) 
J2VwaWtfcHl0aG9uJywgJy1waHQnLCAnMi4wJywgJy1waCcsICc3LjAnLCAnLXRuJywgJzgnLCAnLW1hJywgJzIwMCcsICctaW1hZScsICc8aW5maWxlLm1hZT4nLCAnLW9tYWUnLCAnPG91dGZpbGUubWFlPic=

>  <r_lp_tautomer_probability>  (41) 
1

>  <r_epik_Ionization_Penalty>  (41) 
3.04159e-06

>  <r_epik_Ionization_Penalty_Charging>  (41) 
0

>  <r_epik_Ionization_Penalty_Neutral>  (41) 
3.04159e-06

>  <r_epik_State_Penalty>  (41) 
-0

>  <r_epik_Charging_Adjusted_Penalty>  (41) 
0

>  <i_epik_Tot_Q>  (41) 
0

>  <i_epik_Tot_abs_Q>  (41) 
0

>  <s_epik_Chemistry_Notes>  (41) 
This compound contains an acetal/aminal-like group ( X-CH(R)-Y where X, Y are N, S, or O) that may be acid/base labile, releasing an aldehyde.

>  <s_lp_Force_Field>  (41) 
OPLS3e

>  <r_lp_Energy>  (41) 
379.368

>  <b_lp_Chiralities_Consistent>  (41) 
1

>  <s_lp_Variant>  (41) 
15:0-1

>  <s_i_glide_gridfile>  (41) 
pfpi4k_grid

>  <i_i_glide_lignum>  (41) 
18

>  <i_i_glide_rotatable_bonds>  (41) 
2

>  <r_i_docking_score>  (41) 
49.7039

>  <r_i_glide_ligand_efficiency>  (41) 
1.18343

>  <r_i_glide_ligand_efficiency_sa>  (41) 
4.11362

>  <r_i_glide_ligand_efficiency_ln>  (41) 
10.4912

>  <r_i_glide_gscore>  (41) 
49.7039

>  <r_i_glide_lipo>  (41) 
-0.58886

>  <r_i_glide_hbond>  (41) 
-0.000423291

>  <r_i_glide_metal>  (41) 
-0

>  <r_i_glide_rewards>  (41) 
-0.0481746

>  <r_i_glide_evdw>  (41) 
-20.2724

>  <r_i_glide_ecoul>  (41) 
-0.651928

>  <r_i_glide_erotb>  (41) 
0

>  <r_i_glide_esite>  (41) 
-3.98684e-05

>  <r_i_glide_emodel>  (41) 
186.77

>  <r_i_glide_energy>  (41) 
-20.9243

>  <r_i_glide_einternal>  (41) 
0.629241

>  <r_i_glide_intrahb_reward>  (41) 
-0

>  <i_i_glide_confnum>  (41) 
2

>  <i_i_glide_posenum>  (41) 
4

>  <r_i_glide_eff_state_penalty>  (41) 
0

>  <ligand_id>  (41) 
15

>  <original_smiles>  (41) 
COC1CC2C3C4C5C6OC7CC4(C)C(CC4COC8(CCC(C)CO8)C3(C)CO4)(C1=C(C)C(=O)C=CC25C)C7(O)O6

>  <smiles>  (41) 
[H]OC12OC3([H])OC1([H])C([H])([H])C1(C([H])([H])[H])C4([H])C3([H])C3(C([H])([H])[H])C([H])=C([H])C(=O)C(C([H])([H])[H])=C5C([H])(OC([H])([H])[H])C([H])([H])C3([H])C4([H])C3(C([H])([H])[H])C([H])([H])OC([H])(C([H])([H])OC34OC([H])([H])C([H])(C([H])([H])[H])C([H])([H])C4([H])[H])C([H])([H])C521

$$$$
15:0:2
     RDKit          3D

 88 96  0  0  1  0  0  0  0  0999 V2000
    7.8309   -5.3590    5.6472 C   0  0  0  0  0  0  0  0  0  0  0  0
    6.7235   -6.2598    5.5198 O   0  0  0  0  0  0  0  0  0  0  0  0
    5.7687   -6.0224    4.4633 C   0  0  1  0  0  0  0  0  0  0  0  0
    6.5389   -6.2849    3.1465 C   0  0  0  0  0  0  0  0  0  0  0  0
    5.7739   -6.8722    1.9579 C   0  0  2  0  0  0  0  0  0  0  0  0
    4.6916   -5.8741    1.4031 C   0  0  1  0  0  0  0  0  0  0  0  0
    3.3344   -6.6968    1.6864 C   0  0  1  0  0  0  0  0  0  0  0  0
    3.6515   -8.2029    2.0730 C   0  0  2  0  0  0  0  0  0  0  0  0
    2.6507   -8.9802    3.0604 C   0  0  2  0  0  0  0  0  0  0  0  0
    1.3454   -8.8809    2.6810 O   0  0  0  0  0  0  0  0  0  0  0  0
    0.8473   -7.7851    3.4209 C   0  0  2  0  0  0  0  0  0  0  0  0
    0.8537   -6.6487    2.5518 C   0  0  0  0  0  0  0  0  0  0  0  0
    2.3061   -6.0845    2.6256 C   0  0  2  0  0  0  0  0  0  0  0  0
    1.7788   -4.8218    1.9766 C   0  0  0  0  0  0  0  0  0  0  0  0
    2.8967   -6.0894    4.1295 C   0  0  2  0  0  0  0  0  0  0  0  0
    2.6701   -4.5793    4.6363 C   0  0  0  0  0  0  0  0  0  0  0  0
    3.4115   -3.2730    3.9561 C   0  0  2  0  0  0  0  0  0  0  0  0
    2.9016   -2.2833    2.8264 C   0  0  0  0  0  0  0  0  0  0  0  0
    3.1134   -2.4293    1.3806 O   0  0  0  0  0  0  0  0  0  0  0  0
    3.9944   -3.1737    0.5786 C   0  0  2  0  0  0  0  0  0  0  0  0
    4.7717   -2.2548   -0.3810 C   0  0  0  0  0  0  0  0  0  0  0  0
    3.8321   -1.5940   -1.3935 C   0  0  0  0  0  0  0  0  0  0  0  0
    2.9835   -2.6616   -2.0791 C   0  0  1  0  0  0  0  0  0  0  0  0
    3.8642   -3.5231   -2.9882 C   0  0  0  0  0  0  0  0  0  0  0  0
    2.2869   -3.5649   -1.0370 C   0  0  0  0  0  0  0  0  0  0  0  0
    3.2652   -4.1422   -0.1816 O   0  0  0  0  0  0  0  0  0  0  0  0
    5.0489   -4.2040    1.3245 C   0  0  2  0  0  0  0  0  0  0  0  0
    6.3639   -4.2225    0.4563 C   0  0  0  0  0  0  0  0  0  0  0  0
    5.5031   -3.3758    2.6054 C   0  0  0  0  0  0  0  0  0  0  0  0
    4.8098   -3.3263    3.8491 O   0  0  0  0  0  0  0  0  0  0  0  0
    4.3523   -6.6562    4.7289 C   0  0  0  0  0  0  0  0  0  0  0  0
    4.4664   -7.5138    5.8209 C   0  0  0  0  0  0  0  0  0  0  0  0
    5.3876   -8.4712    5.8820 C   0  0  0  0  0  0  0  0  0  0  0  0
    5.1928   -8.4661    5.8278 C   0  0  0  0  0  0  0  0  0  0  0  0
    6.1949   -9.5085    6.9272 O   0  0  0  0  0  0  0  0  0  0  0  0
    5.1224   -9.6289    4.4520 C   0  0  0  0  0  0  0  0  0  0  0  0
    5.8375   -9.0200    3.4282 C   0  0  0  0  0  0  0  0  0  0  0  0
    5.2174   -8.3703    2.1621 C   0  0  2  0  0  0  0  0  0  0  0  0
    5.7146   -9.2613    0.9895 C   0  0  0  0  0  0  0  0  0  0  0  0
    1.8858   -7.3306    4.4541 C   0  0  1  0  0  0  0  0  0  0  0  0
    1.1776   -7.0800    5.6136 O   0  0  0  0  0  0  0  0  0  0  0  0
    2.5432   -8.5581    4.4009 O   0  0  0  0  0  0  0  0  0  0  0  0
    8.4154   -5.6414    6.5290 H   0  0  0  0  0  0  0  0  0  0  0  0
    7.4932   -4.3328    5.7957 H   0  0  0  0  0  0  0  0  0  0  0  0
    8.4998   -5.4000    4.7938 H   0  0  0  0  0  0  0  0  0  0  0  0
    5.6285   -5.0108    4.6950 H   0  0  0  0  0  0  0  0  0  0  0  0
    7.1021   -5.4168    2.8636 H   0  0  0  0  0  0  0  0  0  0  0  0
    7.4179   -6.9010    3.3457 H   0  0  0  0  0  0  0  0  0  0  0  0
    6.5484   -6.9426    1.1958 H   0  0  0  0  0  0  0  0  0  0  0  0
    4.7528   -6.0982    0.3366 H   0  0  0  0  0  0  0  0  0  0  0  0
    2.8216   -6.7503    0.7169 H   0  0  0  0  0  0  0  0  0  0  0  0
    3.3771   -8.7224    1.1610 H   0  0  0  0  0  0  0  0  0  0  0  0
    2.8651  -10.0538    3.0319 H   0  0  0  0  0  0  0  0  0  0  0  0
   -0.1401   -8.0205    3.8331 H   0  0  0  0  0  0  0  0  0  0  0  0
    0.5290   -6.9262    1.5489 H   0  0  0  0  0  0  0  0  0  0  0  0
    0.0659   -6.0052    2.9687 H   0  0  0  0  0  0  0  0  0  0  0  0
    1.1047   -4.1802    2.5443 H   0  0  0  0  0  0  0  0  0  0  0  0
    1.4118   -4.9255    0.9490 H   0  0  0  0  0  0  0  0  0  0  0  0
    2.7156   -4.4138    1.9441 H   0  0  0  0  0  0  0  0  0  0  0  0
    1.5979   -4.3772    4.6832 H   0  0  0  0  0  0  0  0  0  0  0  0
    2.9518   -4.5775    5.6960 H   0  0  0  0  0  0  0  0  0  0  0  0
    3.3336   -2.6027    4.8154 H   0  0  0  0  0  0  0  0  0  0  0  0
    1.8406   -2.0909    2.9766 H   0  0  0  0  0  0  0  0  0  0  0  0
    3.3652   -1.3185    3.0427 H   0  0  0  0  0  0  0  0  0  0  0  0
    5.3173   -1.4998    0.1798 H   0  0  0  0  0  0  0  0  0  0  0  0
    5.5371   -2.8405   -0.9135 H   0  0  0  0  0  0  0  0  0  0  0  0
    3.1818   -0.8958   -0.8709 H   0  0  0  0  0  0  0  0  0  0  0  0
    4.3956   -1.0185   -2.1285 H   0  0  0  0  0  0  0  0  0  0  0  0
    2.2388   -2.1998   -2.7260 H   0  0  0  0  0  0  0  0  0  0  0  0
    4.6104   -4.0883   -2.4200 H   0  0  0  0  0  0  0  0  0  0  0  0
    4.3870   -2.9183   -3.7169 H   0  0  0  0  0  0  0  0  0  0  0  0
    3.2637   -4.2564   -3.5409 H   0  0  0  0  0  0  0  0  0  0  0  0
    1.5669   -3.0015   -0.4545 H   0  0  0  0  0  0  0  0  0  0  0  0
    1.7370   -4.3571   -1.5414 H   0  0  0  0  0  0  0  0  0  0  0  0
    6.8584   -3.2530    0.4042 H   0  0  0  0  0  0  0  0  0  0  0  0
    6.1728   -4.5550   -0.5673 H   0  0  0  0  0  0  0  0  0  0  0  0
    7.1514   -4.8766    0.8286 H   0  0  0  0  0  0  0  0  0  0  0  0
    6.5365   -3.5272    2.8725 H   0  0  0  0  0  0  0  0  0  0  0  0
    5.5706   -2.3352    2.3252 H   0  0  0  0  0  0  0  0  0  0  0  0
    6.3373   -8.0611    6.7814 H   0  0  0  0  0  0  0  0  0  0  0  0
    6.3314   -8.8468    4.9713 H   0  0  0  0  0  0  0  0  0  0  0  0
    4.8395   -9.7666    6.4217 H   0  0  0  0  0  0  0  0  0  0  0  0
    4.2973   -9.9698    4.5170 H   0  0  0  0  0  0  0  0  0  0  0  0
    6.8673   -8.7425    3.6037 H   0  0  0  0  0  0  0  0  0  0  0  0
    5.4205   -8.8529    0.0216 H   0  0  0  0  0  0  0  0  0  0  0  0
    5.3005  -10.2662    1.0595 H   0  0  0  0  0  0  0  0  0  0  0  0
    6.7976   -9.3533    0.9821 H   0  0  0  0  0  0  0  0  0  0  0  0
    0.5815   -7.8094    5.7581 H   0  0  0  0  0  0  0  0  0  0  0  0
  1  2  1  0
  1 43  1  0
  1 44  1  0
  1 45  1  0
  2  3  1  0
  3 31  1  0
  3  4  1  0
  3 46  1  6
  4  5  1  0
  4 47  1  0
  4 48  1  0
  5 38  1  0
  5  6  1  0
  5 49  1  6
  6 27  1  0
  6  7  1  0
  6 50  1  6
  7 13  1  0
  7  8  1  0
  7 51  1  6
  8 38  1  0
  8  9  1  0
  8 52  1  6
  9 42  1  0
  9 10  1  0
  9 53  1  1
 10 11  1  0
 11 40  1  0
 11 12  1  0
 11 54  1  1
 12 13  1  0
 12 55  1  0
 12 56  1  0
 13 14  1  6
 13 15  1  0
 14 57  1  0
 14 58  1  0
 14 59  1  0
 15 16  1  1
 15 31  1  0
 15 40  1  0
 16 17  1  0
 16 60  1  0
 16 61  1  0
 17 30  1  0
 17 18  1  0
 17 62  1  1
 18 19  1  0
 18 63  1  0
 18 64  1  0
 20 19  1  1
 20 26  1  0
 20 21  1  0
 20 27  1  0
 21 22  1  0
 21 65  1  0
 21 66  1  0
 22 23  1  0
 22 67  1  0
 22 68  1  0
 23 24  1  0
 23 25  1  0
 23 69  1  6
 24 70  1  0
 24 71  1  0
 24 72  1  0
 25 26  1  0
 25 73  1  0
 25 74  1  0
 27 28  1  6
 27 29  1  0
 28 75  1  0
 28 76  1  0
 28 77  1  0
 29 30  1  0
 29 78  1  0
 29 79  1  0
 31 32  2  3
 32 33  1  0
 32 34  1  0
 33 80  1  0
 33 81  1  0
 33 82  1  0
 34 35  2  0
 34 36  1  0
 36 37  2  3
 36 83  1  0
 37 38  1  0
 37 84  1  0
 38 39  1  6
 39 85  1  0
 39 86  1  0
 39 87  1  0
 40 41  1  1
 40 42  1  0
 41 88  1  0
M  END
>  <i_m_ct_stereo_status>  (42) 
1

>  <s_m_source_file>  (42) 
/var/tmp/pbs.5076255.sched01/tmpcm5es6vs/0d3z1so5d.sdf

>  <i_m_source_file_index>  (42) 
18

>  <i_lp_mmshare_version>  (42) 
48012

>  <i_f3d_flags>  (42) 
0

>  <s_epik_input>  (42) 
W0NIM11PW0NIXShbQ0gyXTEpL0MyPUMoL1tDSDNdKUMoPU8pL1tDSF09W0NIXVxbQ0BAXShbQ0gzXSkoW0NASF0zW0NAQEhdNE9bQ0BIXShbQ0gyXTUpW0NAXTYoTzQpW09IXSlbQ0BIXTFbQ0hdKFtDQEBIXTNbQ0BAXTUoW0NAXTI2NylbQ0gzXSlbQ0BAXTgoW0NIM10pW0NAXTkoW0NIMl1bQ0gyXVtDQEBIXShbQ0gzXSlbQ0gyXU85KU9bQ0gyXVtDQEBIXShbQ0gyXTcpT1tDSDJdOA==

>  <s_epik_cmdline>  (42) 
J2VwaWtfcHl0aG9uJywgJy1waHQnLCAnMi4wJywgJy1waCcsICc3LjAnLCAnLXRuJywgJzgnLCAnLW1hJywgJzIwMCcsICctaW1hZScsICc8aW5maWxlLm1hZT4nLCAnLW9tYWUnLCAnPG91dGZpbGUubWFlPic=

>  <r_lp_tautomer_probability>  (42) 
1

>  <r_epik_Ionization_Penalty>  (42) 
3.04159e-06

>  <r_epik_Ionization_Penalty_Charging>  (42) 
0

>  <r_epik_Ionization_Penalty_Neutral>  (42) 
3.04159e-06

>  <r_epik_State_Penalty>  (42) 
-0

>  <r_epik_Charging_Adjusted_Penalty>  (42) 
0

>  <i_epik_Tot_Q>  (42) 
0

>  <i_epik_Tot_abs_Q>  (42) 
0

>  <s_epik_Chemistry_Notes>  (42) 
This compound contains an acetal/aminal-like group ( X-CH(R)-Y where X, Y are N, S, or O) that may be acid/base labile, releasing an aldehyde.

>  <s_lp_Force_Field>  (42) 
OPLS3e

>  <r_lp_Energy>  (42) 
379.368

>  <b_lp_Chiralities_Consistent>  (42) 
1

>  <s_lp_Variant>  (42) 
15:0-1

>  <s_i_glide_gridfile>  (42) 
pfpi4k_grid

>  <i_i_glide_lignum>  (42) 
18

>  <i_i_glide_rotatable_bonds>  (42) 
2

>  <r_i_docking_score>  (42) 
57.6218

>  <r_i_glide_ligand_efficiency>  (42) 
1.37195

>  <r_i_glide_ligand_efficiency_sa>  (42) 
4.76892

>  <r_i_glide_ligand_efficiency_ln>  (42) 
12.1625

>  <r_i_glide_gscore>  (42) 
57.6218

>  <r_i_glide_lipo>  (42) 
-0.371714

>  <r_i_glide_hbond>  (42) 
0

>  <r_i_glide_metal>  (42) 
-0

>  <r_i_glide_rewards>  (42) 
-0.00453611

>  <r_i_glide_evdw>  (42) 
-18.0138

>  <r_i_glide_ecoul>  (42) 
1.01003

>  <r_i_glide_erotb>  (42) 
0

>  <r_i_glide_esite>  (42) 
-0.00883241

>  <r_i_glide_emodel>  (42) 
220.696

>  <r_i_glide_energy>  (42) 
-17.0037

>  <r_i_glide_einternal>  (42) 
0.504629

>  <r_i_glide_intrahb_reward>  (42) 
-0

>  <i_i_glide_confnum>  (42) 
2

>  <i_i_glide_posenum>  (42) 
26

>  <r_i_glide_eff_state_penalty>  (42) 
0

>  <ligand_id>  (42) 
15

>  <original_smiles>  (42) 
COC1CC2C3C4C5C6OC7CC4(C)C(CC4COC8(CCC(C)CO8)C3(C)CO4)(C1=C(C)C(=O)C=CC25C)C7(O)O6

>  <smiles>  (42) 
[H]OC12OC3([H])OC1([H])C([H])([H])C1(C([H])([H])[H])C4([H])C3([H])C3(C([H])([H])[H])C([H])=C([H])C(=O)C(C([H])([H])[H])=C5C([H])(OC([H])([H])[H])C([H])([H])C3([H])C4([H])C3(C([H])([H])[H])C([H])([H])OC([H])(C([H])([H])OC34OC([H])([H])C([H])(C([H])([H])[H])C([H])([H])C4([H])[H])C([H])([H])C521

$$$$
16:0:0
     RDKit          3D

 52 56  0  0  1  0  0  0  0  0999 V2000
    5.5231  -10.3128    7.5161 C   0  0  0  0  0  0  0  0  0  0  0  0
    5.7788  -10.2773    6.0026 C   0  0  2  0  0  0  0  0  0  0  0  0
    7.0080   -9.3878    5.6409 C   0  0  0  0  0  0  0  0  0  0  0  0
    7.0398   -8.8271    4.2092 C   0  0  0  0  0  0  0  0  0  0  0  0
    8.1007   -7.9926    3.8074 C   0  0  0  0  0  0  0  0  0  0  0  0
    8.0804   -7.4564    2.5023 C   0  0  0  0  0  0  0  0  0  0  0  0
    7.0948   -7.6964    1.6138 N   0  0  0  0  0  0  0  0  0  0  0  0
    6.0801   -8.5043    1.9957 C   0  0  0  0  0  0  0  0  0  0  0  0
    6.0067   -9.0920    3.2751 C   0  0  0  0  0  0  0  0  0  0  0  0
    4.9033  -10.0435    3.7037 C   0  0  2  0  0  0  0  0  0  0  0  0
    3.5917  -10.2043    2.8891 C   0  0  1  0  0  0  0  0  0  0  0  0
    3.0344  -11.5911    3.3235 C   0  0  0  0  0  0  0  0  0  0  0  0
    2.9623  -11.6749    4.8713 C   0  0  0  0  0  0  0  0  0  0  0  0
    3.1102  -10.2542    5.4735 C   0  0  1  0  0  0  0  0  0  0  0  0
    4.5711   -9.7818    5.1853 C   0  0  1  0  0  0  0  0  0  0  0  0
    2.1256   -9.2345    4.7664 C   0  0  2  0  0  0  0  0  0  0  0  0
    2.1640   -7.8462    5.4673 C   0  0  0  0  0  0  0  0  0  0  0  0
    0.6431   -9.7160    4.6572 C   0  0  1  0  0  0  0  0  0  0  0  0
   -0.1806   -9.4261    5.7621 O   0  0  0  0  0  0  0  0  0  0  0  0
    0.0630   -9.2063    3.3253 C   0  0  1  0  0  0  0  0  0  0  0  0
   -0.7822   -7.9148    3.3746 C   0  0  0  0  0  0  0  0  0  0  0  0
    1.2897   -9.0834    2.4085 C   0  0  0  0  0  0  0  0  0  0  0  0
    2.5669   -9.0940    3.2756 C   0  0  2  0  0  0  0  0  0  0  0  0
    5.2098   -9.3436    7.9057 H   0  0  0  0  0  0  0  0  0  0  0  0
    6.4242  -10.6157    8.0543 H   0  0  0  0  0  0  0  0  0  0  0  0
    4.7477  -11.0407    7.7631 H   0  0  0  0  0  0  0  0  0  0  0  0
    6.0059  -11.3006    5.7020 H   0  0  0  0  0  0  0  0  0  0  0  0
    6.9991   -8.5120    6.2903 H   0  0  0  0  0  0  0  0  0  0  0  0
    7.9421   -9.9122    5.8498 H   0  0  0  0  0  0  0  0  0  0  0  0
    8.9208   -7.7616    4.4755 H   0  0  0  0  0  0  0  0  0  0  0  0
    8.8813   -6.8129    2.1650 H   0  0  0  0  0  0  0  0  0  0  0  0
    5.3231   -8.6787    1.2451 H   0  0  0  0  0  0  0  0  0  0  0  0
    5.4071  -11.0083    3.6139 H   0  0  0  0  0  0  0  0  0  0  0  0
    3.7830  -10.2244    1.8174 H   0  0  0  0  0  0  0  0  0  0  0  0
    2.0523  -11.7771    2.8873 H   0  0  0  0  0  0  0  0  0  0  0  0
    3.6754  -12.3937    2.9522 H   0  0  0  0  0  0  0  0  0  0  0  0
    2.0399  -12.1616    5.1876 H   0  0  0  0  0  0  0  0  0  0  0  0
    3.7507  -12.3230    5.2568 H   0  0  0  0  0  0  0  0  0  0  0  0
    2.9004  -10.2804    6.5406 H   0  0  0  0  0  0  0  0  0  0  0  0
    4.5732   -8.7097    5.3527 H   0  0  0  0  0  0  0  0  0  0  0  0
    1.3410   -7.2063    5.1630 H   0  0  0  0  0  0  0  0  0  0  0  0
    3.0650   -7.2773    5.2465 H   0  0  0  0  0  0  0  0  0  0  0  0
    2.1021   -7.9535    6.5494 H   0  0  0  0  0  0  0  0  0  0  0  0
    0.5922  -10.7978    4.5750 H   0  0  0  0  0  0  0  0  0  0  0  0
   -0.9595   -9.9807    5.6640 H   0  0  0  0  0  0  0  0  0  0  0  0
   -0.6019   -9.9794    2.9361 H   0  0  0  0  0  0  0  0  0  0  0  0
   -0.2144   -7.0398    3.6794 H   0  0  0  0  0  0  0  0  0  0  0  0
   -1.6308   -8.0192    4.0505 H   0  0  0  0  0  0  0  0  0  0  0  0
   -1.1915   -7.7034    2.3873 H   0  0  0  0  0  0  0  0  0  0  0  0
    1.3003   -9.9174    1.7073 H   0  0  0  0  0  0  0  0  0  0  0  0
    1.2410   -8.1788    1.8019 H   0  0  0  0  0  0  0  0  0  0  0  0
    3.0721   -8.1385    3.1256 H   0  0  0  0  0  0  0  0  0  0  0  0
  1  2  1  0
  1 24  1  0
  1 25  1  0
  1 26  1  0
  2 15  1  0
  2  3  1  0
  2 27  1  6
  3  4  1  0
  3 28  1  0
  3 29  1  0
  4  9  2  0
  4  5  1  0
  5  6  2  0
  5 30  1  0
  6  7  1  0
  6 31  1  0
  7  8  2  0
  8  9  1  0
  8 32  1  0
  9 10  1  0
 10 15  1  0
 10 11  1  0
 10 33  1  1
 11 23  1  0
 11 12  1  0
 11 34  1  6
 12 13  1  0
 12 35  1  0
 12 36  1  0
 13 14  1  0
 13 37  1  0
 13 38  1  0
 14 15  1  0
 14 16  1  0
 14 39  1  1
 15 40  1  6
 16 23  1  0
 16 17  1  1
 16 18  1  0
 17 41  1  0
 17 42  1  0
 17 43  1  0
 18 19  1  0
 18 20  1  0
 18 44  1  6
 19 45  1  0
 20 21  1  0
 20 22  1  0
 20 46  1  6
 21 47  1  0
 21 48  1  0
 21 49  1  0
 22 23  1  0
 22 50  1  0
 22 51  1  0
 23 52  1  1
M  END
>  <i_m_ct_stereo_status>  (43) 
1

>  <s_m_source_file>  (43) 
/var/tmp/pbs.5076255.sched01/tmpcm5es6vs/0d3z1so5d.sdf

>  <i_m_source_file_index>  (43) 
19

>  <i_lp_mmshare_version>  (43) 
48012

>  <i_f3d_flags>  (43) 
0

>  <s_epik_input>  (43) 
W2NIXTFuW2NIXVtjSF1jKFtDSDJdW0NASF0yW0NIM10pYzFbQ0BASF0oW0NASF0yW0NASF0zW0NAXTQ1W0NIM10pW0NAQEhdKFtDSDJdW0NIMl0zKVtDQEhdNVtDSDJdW0NASF0oW0NIM10pW0NAQEhdNFtPSF0=

>  <s_epik_cmdline>  (43) 
J2VwaWtfcHl0aG9uJywgJy1waHQnLCAnMi4wJywgJy1waCcsICc3LjAnLCAnLXRuJywgJzgnLCAnLW1hJywgJzIwMCcsICctaW1hZScsICc8aW5maWxlLm1hZT4nLCAnLW9tYWUnLCAnPG91dGZpbGUubWFlPic=

>  <r_epik_Ionization_Penalty>  (43) 
0.337615

>  <r_epik_Ionization_Penalty_Charging>  (43) 
0

>  <r_epik_Ionization_Penalty_Neutral>  (43) 
0.337615

>  <r_epik_State_Penalty>  (43) 
0.333077

>  <r_epik_Charging_Adjusted_Penalty>  (43) 
0.333077

>  <i_epik_Tot_Q>  (43) 
0

>  <i_epik_Tot_abs_Q>  (43) 
0

>  <s_lp_Force_Field>  (43) 
OPLS3e

>  <r_lp_Energy>  (43) 
67.8675

>  <b_lp_Chiralities_Consistent>  (43) 
1

>  <s_lp_Variant>  (43) 
16:0-1

>  <s_i_glide_gridfile>  (43) 
pfpi4k_grid

>  <i_i_glide_lignum>  (43) 
19

>  <i_i_glide_rotatable_bonds>  (43) 
1

>  <r_i_docking_score>  (43) 
-3.38125

>  <r_i_glide_ligand_efficiency>  (43) 
-0.147011

>  <r_i_glide_ligand_efficiency_sa>  (43) 
-0.418079

>  <r_i_glide_ligand_efficiency_ln>  (43) 
-0.817617

>  <r_i_glide_gscore>  (43) 
-3.38125

>  <r_i_glide_lipo>  (43) 
-0.106669

>  <r_i_glide_hbond>  (43) 
-0.16

>  <r_i_glide_metal>  (43) 
-0

>  <r_i_glide_rewards>  (43) 
-1.28549

>  <r_i_glide_evdw>  (43) 
-21.1591

>  <r_i_glide_ecoul>  (43) 
-5.14089

>  <r_i_glide_erotb>  (43) 
0

>  <r_i_glide_esite>  (43) 
0

>  <r_i_glide_emodel>  (43) 
-32.1761

>  <r_i_glide_energy>  (43) 
-26.3

>  <r_i_glide_einternal>  (43) 
0.384453

>  <r_i_glide_intrahb_reward>  (43) 
-0

>  <i_i_glide_confnum>  (43) 
2

>  <i_i_glide_posenum>  (43) 
14

>  <r_i_glide_eff_state_penalty>  (43) 
0

>  <ligand_id>  (43) 
16

>  <original_smiles>  (43) 
CC1Cc2ccncc2C2C3CCC(C12)C1(C)C(O)C(C)CC31

>  <smiles>  (43) 
[H]OC1([H])C([H])(C([H])([H])[H])C([H])([H])C2([H])C3([H])C([H])([H])C([H])([H])C([H])(C4([H])C3([H])c3c([H])nc([H])c([H])c3C([H])([H])C4([H])C([H])([H])[H])C12C([H])([H])[H]

$$$$
16:0:1
     RDKit          3D

 52 56  0  0  1  0  0  0  0  0999 V2000
    0.7813  -11.0244    3.3670 C   0  0  0  0  0  0  0  0  0  0  0  0
    1.2646   -9.9865    4.3846 C   0  0  2  0  0  0  0  0  0  0  0  0
    0.1951   -8.8846    4.6432 C   0  0  0  0  0  0  0  0  0  0  0  0
    0.7201   -7.5382    5.1661 C   0  0  0  0  0  0  0  0  0  0  0  0
   -0.1784   -6.4773    5.3996 C   0  0  0  0  0  0  0  0  0  0  0  0
    0.3347   -5.2474    5.8523 C   0  0  0  0  0  0  0  0  0  0  0  0
    1.6461   -5.0175    6.0653 N   0  0  0  0  0  0  0  0  0  0  0  0
    2.5084   -6.0335    5.8389 C   0  0  0  0  0  0  0  0  0  0  0  0
    2.0987   -7.3062    5.3975 C   0  0  0  0  0  0  0  0  0  0  0  0
    3.0417   -8.4802    5.2008 C   0  0  2  0  0  0  0  0  0  0  0  0
    4.5833   -8.2970    5.1610 C   0  0  1  0  0  0  0  0  0  0  0  0
    5.1489   -9.7092    5.4961 C   0  0  0  0  0  0  0  0  0  0  0  0
    4.5033  -10.7790    4.5708 C   0  0  0  0  0  0  0  0  0  0  0  0
    3.7880  -10.0773    3.3847 C   0  0  1  0  0  0  0  0  0  0  0  0
    2.5758   -9.2911    3.9765 C   0  0  1  0  0  0  0  0  0  0  0  0
    4.7462   -9.0228    2.6947 C   0  0  2  0  0  0  0  0  0  0  0  0
    4.0855   -8.4281    1.4158 C   0  0  0  0  0  0  0  0  0  0  0  0
    6.1561   -9.5715    2.3171 C   0  0  1  0  0  0  0  0  0  0  0  0
    6.2069  -10.1914    1.0418 O   0  0  0  0  0  0  0  0  0  0  0  0
    7.1763   -8.4288    2.5362 C   0  0  1  0  0  0  0  0  0  0  0  0
    7.6069   -7.6212    1.2980 C   0  0  0  0  0  0  0  0  0  0  0  0
    6.5454   -7.5377    3.6210 C   0  0  0  0  0  0  0  0  0  0  0  0
    5.0435   -7.8866    3.7275 C   0  0  2  0  0  0  0  0  0  0  0  0
    0.6543  -10.6039    2.3683 H   0  0  0  0  0  0  0  0  0  0  0  0
   -0.1761  -11.4324    3.6900 H   0  0  0  0  0  0  0  0  0  0  0  0
    1.4838  -11.8578    3.2893 H   0  0  0  0  0  0  0  0  0  0  0  0
    1.4272  -10.5270    5.3182 H   0  0  0  0  0  0  0  0  0  0  0  0
   -0.2994   -8.6602    3.6968 H   0  0  0  0  0  0  0  0  0  0  0  0
   -0.5778   -9.2634    5.3137 H   0  0  0  0  0  0  0  0  0  0  0  0
   -1.2394   -6.6072    5.2499 H   0  0  0  0  0  0  0  0  0  0  0  0
   -0.3299   -4.4182    6.0499 H   0  0  0  0  0  0  0  0  0  0  0  0
    3.5467   -5.8101    6.0358 H   0  0  0  0  0  0  0  0  0  0  0  0
    2.8516   -9.0636    6.1043 H   0  0  0  0  0  0  0  0  0  0  0  0
    4.9234   -7.5847    5.9120 H   0  0  0  0  0  0  0  0  0  0  0  0
    6.2352   -9.7217    5.3996 H   0  0  0  0  0  0  0  0  0  0  0  0
    4.9390   -9.9671    6.5364 H   0  0  0  0  0  0  0  0  0  0  0  0
    5.2461  -11.5047    4.2385 H   0  0  0  0  0  0  0  0  0  0  0  0
    3.7781  -11.3693    5.1349 H   0  0  0  0  0  0  0  0  0  0  0  0
    3.4643  -10.8128    2.6498 H   0  0  0  0  0  0  0  0  0  0  0  0
    2.2648   -8.5980    3.2005 H   0  0  0  0  0  0  0  0  0  0  0  0
    4.7981   -7.8942    0.7938 H   0  0  0  0  0  0  0  0  0  0  0  0
    3.2967   -7.7099    1.6278 H   0  0  0  0  0  0  0  0  0  0  0  0
    3.6540   -9.2153    0.7981 H   0  0  0  0  0  0  0  0  0  0  0  0
    6.4762  -10.3365    3.0207 H   0  0  0  0  0  0  0  0  0  0  0  0
    5.5147  -10.8526    0.9907 H   0  0  0  0  0  0  0  0  0  0  0  0
    8.0964   -8.8621    2.9308 H   0  0  0  0  0  0  0  0  0  0  0  0
    6.7891   -7.0506    0.8684 H   0  0  0  0  0  0  0  0  0  0  0  0
    8.0335   -8.2629    0.5263 H   0  0  0  0  0  0  0  0  0  0  0  0
    8.3840   -6.9048    1.5634 H   0  0  0  0  0  0  0  0  0  0  0  0
    7.0497   -7.7037    4.5747 H   0  0  0  0  0  0  0  0  0  0  0  0
    6.6769   -6.4793    3.3873 H   0  0  0  0  0  0  0  0  0  0  0  0
    4.4797   -6.9893    3.4596 H   0  0  0  0  0  0  0  0  0  0  0  0
  1  2  1  0
  1 24  1  0
  1 25  1  0
  1 26  1  0
  2 15  1  0
  2  3  1  0
  2 27  1  1
  3  4  1  0
  3 28  1  0
  3 29  1  0
  4  9  2  0
  4  5  1  0
  5  6  2  0
  5 30  1  0
  6  7  1  0
  6 31  1  0
  7  8  2  0
  8  9  1  0
  8 32  1  0
  9 10  1  0
 10 15  1  0
 10 11  1  0
 10 33  1  1
 11 23  1  0
 11 12  1  0
 11 34  1  1
 12 13  1  0
 12 35  1  0
 12 36  1  0
 13 14  1  0
 13 37  1  0
 13 38  1  0
 14 15  1  0
 14 16  1  0
 14 39  1  6
 15 40  1  6
 16 23  1  0
 16 17  1  6
 16 18  1  0
 17 41  1  0
 17 42  1  0
 17 43  1  0
 18 19  1  0
 18 20  1  0
 18 44  1  1
 19 45  1  0
 20 21  1  0
 20 22  1  0
 20 46  1  1
 21 47  1  0
 21 48  1  0
 21 49  1  0
 22 23  1  0
 22 50  1  0
 22 51  1  0
 23 52  1  6
M  END
>  <i_m_ct_stereo_status>  (44) 
1

>  <s_m_source_file>  (44) 
/var/tmp/pbs.5076255.sched01/tmpcm5es6vs/0d3z1so5d.sdf

>  <i_m_source_file_index>  (44) 
19

>  <i_lp_mmshare_version>  (44) 
48012

>  <i_f3d_flags>  (44) 
0

>  <s_epik_input>  (44) 
W2NIXTFuW2NIXVtjSF1jKFtDSDJdW0NASF0yW0NIM10pYzFbQ0BASF0oW0NASF0yW0NASF0zW0NAXTQ1W0NIM10pW0NAQEhdKFtDSDJdW0NIMl0zKVtDQEhdNVtDSDJdW0NASF0oW0NIM10pW0NAQEhdNFtPSF0=

>  <s_epik_cmdline>  (44) 
J2VwaWtfcHl0aG9uJywgJy1waHQnLCAnMi4wJywgJy1waCcsICc3LjAnLCAnLXRuJywgJzgnLCAnLW1hJywgJzIwMCcsICctaW1hZScsICc8aW5maWxlLm1hZT4nLCAnLW9tYWUnLCAnPG91dGZpbGUubWFlPic=

>  <r_epik_Ionization_Penalty>  (44) 
0.337615

>  <r_epik_Ionization_Penalty_Charging>  (44) 
0

>  <r_epik_Ionization_Penalty_Neutral>  (44) 
0.337615

>  <r_epik_State_Penalty>  (44) 
0.333077

>  <r_epik_Charging_Adjusted_Penalty>  (44) 
0.333077

>  <i_epik_Tot_Q>  (44) 
0

>  <i_epik_Tot_abs_Q>  (44) 
0

>  <s_lp_Force_Field>  (44) 
OPLS3e

>  <r_lp_Energy>  (44) 
67.8675

>  <b_lp_Chiralities_Consistent>  (44) 
1

>  <s_lp_Variant>  (44) 
16:0-1

>  <s_i_glide_gridfile>  (44) 
pfpi4k_grid

>  <i_i_glide_lignum>  (44) 
19

>  <i_i_glide_rotatable_bonds>  (44) 
1

>  <r_i_docking_score>  (44) 
-3.37344

>  <r_i_glide_ligand_efficiency>  (44) 
-0.146671

>  <r_i_glide_ligand_efficiency_sa>  (44) 
-0.417114

>  <r_i_glide_ligand_efficiency_ln>  (44) 
-0.815728

>  <r_i_glide_gscore>  (44) 
-3.37344

>  <r_i_glide_lipo>  (44) 
-0.200711

>  <r_i_glide_hbond>  (44) 
-0.16

>  <r_i_glide_metal>  (44) 
-0

>  <r_i_glide_rewards>  (44) 
-1.28549

>  <r_i_glide_evdw>  (44) 
-20.9805

>  <r_i_glide_ecoul>  (44) 
-4.52142

>  <r_i_glide_erotb>  (44) 
0

>  <r_i_glide_esite>  (44) 
0

>  <r_i_glide_emodel>  (44) 
-31.4151

>  <r_i_glide_energy>  (44) 
-25.5019

>  <r_i_glide_einternal>  (44) 
0.490016

>  <r_i_glide_intrahb_reward>  (44) 
-0

>  <i_i_glide_confnum>  (44) 
2

>  <i_i_glide_posenum>  (44) 
7

>  <r_i_glide_eff_state_penalty>  (44) 
0

>  <ligand_id>  (44) 
16

>  <original_smiles>  (44) 
CC1Cc2ccncc2C2C3CCC(C12)C1(C)C(O)C(C)CC31

>  <smiles>  (44) 
[H]OC1([H])C([H])(C([H])([H])[H])C([H])([H])C2([H])C3([H])C([H])([H])C([H])([H])C([H])(C4([H])C3([H])c3c([H])nc([H])c([H])c3C([H])([H])C4([H])C([H])([H])[H])C12C([H])([H])[H]

$$$$
16:0:2
     RDKit          3D

 52 56  0  0  1  0  0  0  0  0999 V2000
    5.7073   -9.2443    6.6876 C   0  0  0  0  0  0  0  0  0  0  0  0
    5.6838   -9.0894    5.1617 C   0  0  2  0  0  0  0  0  0  0  0  0
    6.7121   -8.0246    4.6691 C   0  0  0  0  0  0  0  0  0  0  0  0
    6.4197   -7.3832    3.3040 C   0  0  0  0  0  0  0  0  0  0  0  0
    7.2857   -6.3907    2.8008 C   0  0  0  0  0  0  0  0  0  0  0  0
    6.9691   -5.7860    1.5691 C   0  0  0  0  0  0  0  0  0  0  0  0
    5.8744   -6.0969    0.8461 N   0  0  0  0  0  0  0  0  0  0  0  0
    5.0503   -7.0538    1.3222 C   0  0  0  0  0  0  0  0  0  0  0  0
    5.2767   -7.7262    2.5385 C   0  0  0  0  0  0  0  0  0  0  0  0
    4.3929   -8.8418    3.0657 C   0  0  2  0  0  0  0  0  0  0  0  0
    2.9871   -9.1302    2.4689 C   0  0  1  0  0  0  0  0  0  0  0  0
    2.6852  -10.6005    2.8852 C   0  0  0  0  0  0  0  0  0  0  0  0
    2.8955  -10.7827    4.4125 C   0  0  0  0  0  0  0  0  0  0  0  0
    2.9784   -9.3902    5.0917 C   0  0  1  0  0  0  0  0  0  0  0  0
    4.2983   -8.7136    4.5990 C   0  0  1  0  0  0  0  0  0  0  0  0
    1.7720   -8.4732    4.6346 C   0  0  2  0  0  0  0  0  0  0  0  0
    1.7604   -7.1365    5.4312 C   0  0  0  0  0  0  0  0  0  0  0  0
    0.3708   -9.1490    4.7352 C   0  0  1  0  0  0  0  0  0  0  0  0
   -0.2461   -9.0620    5.9956 O   0  0  0  0  0  0  0  0  0  0  0  0
   -0.4996   -8.6402    3.5705 C   0  0  1  0  0  0  0  0  0  0  0  0
   -1.4684   -7.4755    3.8634 C   0  0  0  0  0  0  0  0  0  0  0  0
    0.5174   -8.2958    2.4693 C   0  0  0  0  0  0  0  0  0  0  0  0
    1.9223   -8.1872    3.1059 C   0  0  2  0  0  0  0  0  0  0  0  0
    5.3531   -8.3492    7.1971 H   0  0  0  0  0  0  0  0  0  0  0  0
    6.7175   -9.4532    7.0398 H   0  0  0  0  0  0  0  0  0  0  0  0
    5.0826  -10.0805    7.0035 H   0  0  0  0  0  0  0  0  0  0  0  0
    5.9746  -10.0557    4.7462 H   0  0  0  0  0  0  0  0  0  0  0  0
    6.7108   -7.1957    5.3803 H   0  0  0  0  0  0  0  0  0  0  0  0
    7.7240   -8.4313    4.6737 H   0  0  0  0  0  0  0  0  0  0  0  0
    8.1779   -6.0967    3.3392 H   0  0  0  0  0  0  0  0  0  0  0  0
    7.6183   -5.0292    1.1486 H   0  0  0  0  0  0  0  0  0  0  0  0
    4.2054   -7.2881    0.6937 H   0  0  0  0  0  0  0  0  0  0  0  0
    4.9860   -9.7249    2.8173 H   0  0  0  0  0  0  0  0  0  0  0  0
    2.9872   -9.0637    1.3826 H   0  0  0  0  0  0  0  0  0  0  0  0
    1.6719  -10.8878    2.5980 H   0  0  0  0  0  0  0  0  0  0  0  0
    3.3525  -11.2918    2.3667 H   0  0  0  0  0  0  0  0  0  0  0  0
    2.1142  -11.4127    4.8446 H   0  0  0  0  0  0  0  0  0  0  0  0
    3.8180  -11.3340    4.5994 H   0  0  0  0  0  0  0  0  0  0  0  0
    2.9664   -9.5043    6.1757 H   0  0  0  0  0  0  0  0  0  0  0  0
    4.2007   -7.6602    4.8483 H   0  0  0  0  0  0  0  0  0  0  0  0
    0.8259   -6.5964    5.3214 H   0  0  0  0  0  0  0  0  0  0  0  0
    2.5332   -6.4397    5.1127 H   0  0  0  0  0  0  0  0  0  0  0  0
    1.9010   -7.3149    6.4956 H   0  0  0  0  0  0  0  0  0  0  0  0
    0.4357  -10.2193    4.5707 H   0  0  0  0  0  0  0  0  0  0  0  0
   -0.9604   -9.6903    5.9817 H   0  0  0  0  0  0  0  0  0  0  0  0
   -1.1288   -9.4684    3.2385 H   0  0  0  0  0  0  0  0  0  0  0  0
   -0.9605   -6.5521    4.1310 H   0  0  0  0  0  0  0  0  0  0  0  0
   -2.1703   -7.7272    4.6584 H   0  0  0  0  0  0  0  0  0  0  0  0
   -2.0720   -7.2646    2.9797 H   0  0  0  0  0  0  0  0  0  0  0  0
    0.5085   -9.0800    1.7136 H   0  0  0  0  0  0  0  0  0  0  0  0
    0.2516   -7.3716    1.9575 H   0  0  0  0  0  0  0  0  0  0  0  0
    2.2723   -7.1625    2.9588 H   0  0  0  0  0  0  0  0  0  0  0  0
  1  2  1  0
  1 24  1  0
  1 25  1  0
  1 26  1  0
  2 15  1  0
  2  3  1  0
  2 27  1  6
  3  4  1  0
  3 28  1  0
  3 29  1  0
  4  9  2  0
  4  5  1  0
  5  6  2  0
  5 30  1  0
  6  7  1  0
  6 31  1  0
  7  8  2  0
  8  9  1  0
  8 32  1  0
  9 10  1  0
 10 15  1  0
 10 11  1  0
 10 33  1  1
 11 23  1  0
 11 12  1  0
 11 34  1  6
 12 13  1  0
 12 35  1  0
 12 36  1  0
 13 14  1  0
 13 37  1  0
 13 38  1  0
 14 15  1  0
 14 16  1  0
 14 39  1  1
 15 40  1  6
 16 23  1  0
 16 17  1  1
 16 18  1  0
 17 41  1  0
 17 42  1  0
 17 43  1  0
 18 19  1  0
 18 20  1  0
 18 44  1  6
 19 45  1  0
 20 21  1  0
 20 22  1  0
 20 46  1  6
 21 47  1  0
 21 48  1  0
 21 49  1  0
 22 23  1  0
 22 50  1  0
 22 51  1  0
 23 52  1  1
M  END
>  <i_m_ct_stereo_status>  (45) 
1

>  <s_m_source_file>  (45) 
/var/tmp/pbs.5076255.sched01/tmpcm5es6vs/0d3z1so5d.sdf

>  <i_m_source_file_index>  (45) 
19

>  <i_lp_mmshare_version>  (45) 
48012

>  <i_f3d_flags>  (45) 
0

>  <s_epik_input>  (45) 
W2NIXTFuW2NIXVtjSF1jKFtDSDJdW0NASF0yW0NIM10pYzFbQ0BASF0oW0NASF0yW0NASF0zW0NAXTQ1W0NIM10pW0NAQEhdKFtDSDJdW0NIMl0zKVtDQEhdNVtDSDJdW0NASF0oW0NIM10pW0NAQEhdNFtPSF0=

>  <s_epik_cmdline>  (45) 
J2VwaWtfcHl0aG9uJywgJy1waHQnLCAnMi4wJywgJy1waCcsICc3LjAnLCAnLXRuJywgJzgnLCAnLW1hJywgJzIwMCcsICctaW1hZScsICc8aW5maWxlLm1hZT4nLCAnLW9tYWUnLCAnPG91dGZpbGUubWFlPic=

>  <r_epik_Ionization_Penalty>  (45) 
0.337615

>  <r_epik_Ionization_Penalty_Charging>  (45) 
0

>  <r_epik_Ionization_Penalty_Neutral>  (45) 
0.337615

>  <r_epik_State_Penalty>  (45) 
0.333077

>  <r_epik_Charging_Adjusted_Penalty>  (45) 
0.333077

>  <i_epik_Tot_Q>  (45) 
0

>  <i_epik_Tot_abs_Q>  (45) 
0

>  <s_lp_Force_Field>  (45) 
OPLS3e

>  <r_lp_Energy>  (45) 
67.8675

>  <b_lp_Chiralities_Consistent>  (45) 
1

>  <s_lp_Variant>  (45) 
16:0-1

>  <s_i_glide_gridfile>  (45) 
pfpi4k_grid

>  <i_i_glide_lignum>  (45) 
19

>  <i_i_glide_rotatable_bonds>  (45) 
1

>  <r_i_docking_score>  (45) 
-3.14683

>  <r_i_glide_ligand_efficiency>  (45) 
-0.136819

>  <r_i_glide_ligand_efficiency_sa>  (45) 
-0.389095

>  <r_i_glide_ligand_efficiency_ln>  (45) 
-0.760933

>  <r_i_glide_gscore>  (45) 
-3.14683

>  <r_i_glide_lipo>  (45) 
-0.183656

>  <r_i_glide_hbond>  (45) 
-0.16

>  <r_i_glide_metal>  (45) 
-0

>  <r_i_glide_rewards>  (45) 
-1.28549

>  <r_i_glide_evdw>  (45) 
-21.5002

>  <r_i_glide_ecoul>  (45) 
-2.95116

>  <r_i_glide_erotb>  (45) 
0

>  <r_i_glide_esite>  (45) 
0

>  <r_i_glide_emodel>  (45) 
-29.8906

>  <r_i_glide_energy>  (45) 
-24.4514

>  <r_i_glide_einternal>  (45) 
0.435915

>  <r_i_glide_intrahb_reward>  (45) 
-0

>  <i_i_glide_confnum>  (45) 
1

>  <i_i_glide_posenum>  (45) 
10

>  <r_i_glide_eff_state_penalty>  (45) 
0

>  <ligand_id>  (45) 
16

>  <original_smiles>  (45) 
CC1Cc2ccncc2C2C3CCC(C12)C1(C)C(O)C(C)CC31

>  <smiles>  (45) 
[H]OC1([H])C([H])(C([H])([H])[H])C([H])([H])C2([H])C3([H])C([H])([H])C([H])([H])C([H])(C4([H])C3([H])c3c([H])nc([H])c([H])c3C([H])([H])C4([H])C([H])([H])[H])C12C([H])([H])[H]

$$$$
16:1:0
     RDKit          3D

 53 57  0  0  1  0  0  0  0  0999 V2000
    1.6551   -4.3331    4.2141 C   0  0  0  0  0  0  0  0  0  0  0  0
    1.9572   -2.8474    3.9643 C   0  0  2  0  0  0  0  0  0  0  0  0
    0.6829   -1.9593    4.1127 C   0  0  0  0  0  0  0  0  0  0  0  0
    0.7015   -0.6105    3.3758 C   0  0  0  0  0  0  0  0  0  0  0  0
   -0.4271    0.2363    3.4375 C   0  0  0  0  0  0  0  0  0  0  0  0
   -0.4323    1.4443    2.7062 C   0  0  0  0  0  0  0  0  0  0  0  0
    0.6499    1.7840    1.9710 N   0  0  0  0  0  0  0  0  0  0  0  0
    1.7567    1.0153    1.8930 C   0  0  0  0  0  0  0  0  0  0  0  0
    1.8166   -0.2047    2.5961 C   0  0  0  0  0  0  0  0  0  0  0  0
    3.0387   -1.0976    2.5968 C   0  0  2  0  0  0  0  0  0  0  0  0
    4.2096   -0.8960    1.5938 C   0  0  1  0  0  0  0  0  0  0  0  0
    5.4256   -1.5908    2.2706 C   0  0  0  0  0  0  0  0  0  0  0  0
    5.0426   -3.0388    2.6888 C   0  0  0  0  0  0  0  0  0  0  0  0
    3.7277   -3.4509    1.9786 C   0  0  1  0  0  0  0  0  0  0  0  0
    2.5853   -2.5668    2.5812 C   0  0  1  0  0  0  0  0  0  0  0  0
    3.8167   -3.1557    0.4252 C   0  0  2  0  0  0  0  0  0  0  0  0
    2.5766   -3.7032   -0.3191 C   0  0  0  0  0  0  0  0  0  0  0  0
    5.0894   -3.7011   -0.2859 C   0  0  1  0  0  0  0  0  0  0  0  0
    4.9939   -5.0442   -0.7176 O   0  0  0  0  0  0  0  0  0  0  0  0
    5.4775   -2.6912   -1.3845 C   0  0  1  0  0  0  0  0  0  0  0  0
    5.0108   -3.0073   -2.8199 C   0  0  0  0  0  0  0  0  0  0  0  0
    4.9446   -1.3359   -0.8768 C   0  0  0  0  0  0  0  0  0  0  0  0
    3.9113   -1.6074    0.2387 C   0  0  2  0  0  0  0  0  0  0  0  0
    1.0120   -4.7575    3.4427 H   0  0  0  0  0  0  0  0  0  0  0  0
    1.1627   -4.4718    5.1783 H   0  0  0  0  0  0  0  0  0  0  0  0
    2.5767   -4.9185    4.2450 H   0  0  0  0  0  0  0  0  0  0  0  0
    2.6709   -2.5474    4.7361 H   0  0  0  0  0  0  0  0  0  0  0  0
   -0.1572   -2.5103    3.6858 H   0  0  0  0  0  0  0  0  0  0  0  0
    0.4469   -1.8034    5.1660 H   0  0  0  0  0  0  0  0  0  0  0  0
   -1.2965   -0.0387    4.0244 H   0  0  0  0  0  0  0  0  0  0  0  0
   -1.2583    2.1421    2.6858 H   0  0  0  0  0  0  0  0  0  0  0  0
    2.5658    1.3822    1.2823 H   0  0  0  0  0  0  0  0  0  0  0  0
    3.4707   -0.8726    3.5739 H   0  0  0  0  0  0  0  0  0  0  0  0
    4.4431    0.1562    1.4510 H   0  0  0  0  0  0  0  0  0  0  0  0
    6.2935   -1.5988    1.6081 H   0  0  0  0  0  0  0  0  0  0  0  0
    5.7405   -1.0398    3.1592 H   0  0  0  0  0  0  0  0  0  0  0  0
    5.8572   -3.7323    2.4714 H   0  0  0  0  0  0  0  0  0  0  0  0
    4.9132   -3.1011    3.7713 H   0  0  0  0  0  0  0  0  0  0  0  0
    3.5332   -4.5100    2.1387 H   0  0  0  0  0  0  0  0  0  0  0  0
    1.7517   -2.6612    1.8925 H   0  0  0  0  0  0  0  0  0  0  0  0
    2.6918   -3.7373   -1.3970 H   0  0  0  0  0  0  0  0  0  0  0  0
    1.7185   -3.0608   -0.1664 H   0  0  0  0  0  0  0  0  0  0  0  0
    2.3217   -4.7099    0.0108 H   0  0  0  0  0  0  0  0  0  0  0  0
    5.9338   -3.6879    0.3935 H   0  0  0  0  0  0  0  0  0  0  0  0
    4.2975   -5.1177   -1.3622 H   0  0  0  0  0  0  0  0  0  0  0  0
    6.5666   -2.6526   -1.4248 H   0  0  0  0  0  0  0  0  0  0  0  0
    3.9292   -3.0102   -2.9392 H   0  0  0  0  0  0  0  0  0  0  0  0
    5.3954   -3.9715   -3.1542 H   0  0  0  0  0  0  0  0  0  0  0  0
    5.3942   -2.2567   -3.5104 H   0  0  0  0  0  0  0  0  0  0  0  0
    5.7654   -0.7300   -0.4906 H   0  0  0  0  0  0  0  0  0  0  0  0
    4.4890   -0.7551   -1.6820 H   0  0  0  0  0  0  0  0  0  0  0  0
    2.9584   -1.2088   -0.1098 H   0  0  0  0  0  0  0  0  0  0  0  0
    0.6103    2.6830    1.4617 H   0  0  0  0  0  0  0  0  0  0  0  0
  1  2  1  0
  1 24  1  0
  1 25  1  0
  1 26  1  0
  2 15  1  0
  2  3  1  0
  2 27  1  1
  3  4  1  0
  3 28  1  0
  3 29  1  0
  4  9  2  0
  4  5  1  0
  5  6  2  0
  5 30  1  0
  6  7  1  0
  6 31  1  0
  7  8  2  0
  7 53  1  0
  8  9  1  0
  8 32  1  0
  9 10  1  0
 10 15  1  0
 10 11  1  0
 10 33  1  1
 11 23  1  0
 11 12  1  0
 11 34  1  6
 12 13  1  0
 12 35  1  0
 12 36  1  0
 13 14  1  0
 13 37  1  0
 13 38  1  0
 14 15  1  0
 14 16  1  0
 14 39  1  6
 15 40  1  6
 16 23  1  0
 16 17  1  6
 16 18  1  0
 17 41  1  0
 17 42  1  0
 17 43  1  0
 18 19  1  0
 18 20  1  0
 18 44  1  1
 19 45  1  0
 20 21  1  0
 20 22  1  0
 20 46  1  6
 21 47  1  0
 21 48  1  0
 21 49  1  0
 22 23  1  0
 22 50  1  0
 22 51  1  0
 23 52  1  6
M  CHG  1   7   1
M  END
>  <i_m_ct_stereo_status>  (46) 
1

>  <s_m_source_file>  (46) 
/var/tmp/pbs.5076255.sched01/tmpcm5es6vs/0d3z1so5d.sdf

>  <i_m_source_file_index>  (46) 
20

>  <i_lp_mmshare_version>  (46) 
48012

>  <i_f3d_flags>  (46) 
0

>  <s_epik_input>  (46) 
W2NIXTFuW2NIXVtjSF1jKFtDSDJdW0NASF0yW0NIM10pYzFbQ0BASF0oW0NASF0yW0NASF0zW0NAXTQ1W0NIM10pW0NAQEhdKFtDSDJdW0NIMl0zKVtDQEhdNVtDSDJdW0NASF0oW0NIM10pW0NAQEhdNFtPSF0=

>  <s_epik_cmdline>  (46) 
J2VwaWtfcHl0aG9uJywgJy1waHQnLCAnMi4wJywgJy1waCcsICc3LjAnLCAnLXRuJywgJzgnLCAnLW1hJywgJzIwMCcsICctaW1hZScsICc8aW5maWxlLm1hZT4nLCAnLW9tYWUnLCAnPG91dGZpbGUubWFlPic=

>  <r_epik_Ionization_Penalty>  (46) 
0.494044

>  <r_epik_Ionization_Penalty_Charging>  (46) 
0.494043

>  <r_epik_Ionization_Penalty_Neutral>  (46) 
1.6909e-06

>  <r_epik_State_Penalty>  (46) 
0.500001

>  <r_epik_Charging_Adjusted_Penalty>  (46) 
0.994044

>  <i_epik_Tot_Q>  (46) 
1

>  <i_epik_Tot_abs_Q>  (46) 
1

>  <s_lp_Force_Field>  (46) 
OPLS3e

>  <r_lp_Energy>  (46) 
72.4495

>  <b_lp_Chiralities_Consistent>  (46) 
1

>  <s_lp_Variant>  (46) 
16:0-2

>  <s_i_glide_gridfile>  (46) 
pfpi4k_grid

>  <i_i_glide_lignum>  (46) 
20

>  <i_i_glide_rotatable_bonds>  (46) 
1

>  <r_i_docking_score>  (46) 
-4.65499

>  <r_i_glide_ligand_efficiency>  (46) 
-0.202391

>  <r_i_glide_ligand_efficiency_sa>  (46) 
-0.575572

>  <r_i_glide_ligand_efficiency_ln>  (46) 
-1.12562

>  <r_i_glide_gscore>  (46) 
-4.65499

>  <r_i_glide_lipo>  (46) 
-0.449661

>  <r_i_glide_hbond>  (46) 
-0.489522

>  <r_i_glide_metal>  (46) 
-0

>  <r_i_glide_rewards>  (46) 
-1.27862

>  <r_i_glide_evdw>  (46) 
-26.4224

>  <r_i_glide_ecoul>  (46) 
-6.96278

>  <r_i_glide_erotb>  (46) 
0

>  <r_i_glide_esite>  (46) 
-0.0716459

>  <r_i_glide_emodel>  (46) 
-44.3118

>  <r_i_glide_energy>  (46) 
-33.3852

>  <r_i_glide_einternal>  (46) 
2.75066e-06

>  <r_i_glide_intrahb_reward>  (46) 
-0

>  <i_i_glide_confnum>  (46) 
1

>  <i_i_glide_posenum>  (46) 
35

>  <r_i_glide_eff_state_penalty>  (46) 
0

>  <ligand_id>  (46) 
16

>  <original_smiles>  (46) 
CC1Cc2ccncc2C2C3CCC(C12)C1(C)C(O)C(C)CC31

>  <smiles>  (46) 
[H]OC1([H])C([H])(C([H])([H])[H])C([H])([H])C2([H])C3([H])C([H])([H])C([H])([H])C([H])(C4([H])C3([H])c3c(c([H])c([H])[n+]([H])c3[H])C([H])([H])C4([H])C([H])([H])[H])C12C([H])([H])[H]

$$$$
16:1:1
     RDKit          3D

 53 57  0  0  1  0  0  0  0  0999 V2000
    2.1307   -4.0268    4.6836 C   0  0  0  0  0  0  0  0  0  0  0  0
    2.2466   -2.5408    4.3087 C   0  0  2  0  0  0  0  0  0  0  0  0
    0.8812   -1.7954    4.4350 C   0  0  0  0  0  0  0  0  0  0  0  0
    0.7232   -0.5149    3.5985 C   0  0  0  0  0  0  0  0  0  0  0  0
   -0.4945    0.2018    3.6403 C   0  0  0  0  0  0  0  0  0  0  0  0
   -0.6595    1.3450    2.8278 C   0  0  0  0  0  0  0  0  0  0  0  0
    0.3512    1.7522    2.0308 N   0  0  0  0  0  0  0  0  0  0  0  0
    1.5336    1.1017    1.9575 C   0  0  0  0  0  0  0  0  0  0  0  0
    1.7574   -0.0450    2.7441 C   0  0  0  0  0  0  0  0  0  0  0  0
    3.0771   -0.7935    2.7693 C   0  0  2  0  0  0  0  0  0  0  0  0
    4.1853   -0.5420    1.7094 C   0  0  1  0  0  0  0  0  0  0  0  0
    5.4953   -1.0422    2.3867 C   0  0  0  0  0  0  0  0  0  0  0  0
    5.2939   -2.4883    2.9191 C   0  0  0  0  0  0  0  0  0  0  0  0
    4.0079   -3.0973    2.3059 C   0  0  1  0  0  0  0  0  0  0  0  0
    2.7938   -2.3011    2.8868 C   0  0  1  0  0  0  0  0  0  0  0  0
    4.0000   -2.9143    0.7343 C   0  0  2  0  0  0  0  0  0  0  0  0
    2.7906   -3.6580    0.0976 C   0  0  0  0  0  0  0  0  0  0  0  0
    5.3074   -3.3642    0.0139 C   0  0  1  0  0  0  0  0  0  0  0  0
    5.3331   -4.7316   -0.3318 O   0  0  0  0  0  0  0  0  0  0  0  0
    5.5531   -2.4114   -1.1724 C   0  0  1  0  0  0  0  0  0  0  0  0
    5.0964   -2.8944   -2.5656 C   0  0  0  0  0  0  0  0  0  0  0  0
    4.8834   -1.0913   -0.7462 C   0  0  0  0  0  0  0  0  0  0  0  0
    3.9211   -1.3859    0.4263 C   0  0  2  0  0  0  0  0  0  0  0  0
    1.5178   -4.5830    3.9738 H   0  0  0  0  0  0  0  0  0  0  0  0
    1.6890   -4.1444    5.6746 H   0  0  0  0  0  0  0  0  0  0  0  0
    3.1144   -4.4996    4.7214 H   0  0  0  0  0  0  0  0  0  0  0  0
    2.9415   -2.0982    5.0264 H   0  0  0  0  0  0  0  0  0  0  0  0
    0.0976   -2.4706    4.0869 H   0  0  0  0  0  0  0  0  0  0  0  0
    0.6610   -1.5868    5.4818 H   0  0  0  0  0  0  0  0  0  0  0  0
   -1.3051   -0.1235    4.2792 H   0  0  0  0  0  0  0  0  0  0  0  0
   -1.5594    1.9461    2.7982 H   0  0  0  0  0  0  0  0  0  0  0  0
    2.2626    1.5314    1.2886 H   0  0  0  0  0  0  0  0  0  0  0  0
    3.5093   -0.4400    3.7077 H   0  0  0  0  0  0  0  0  0  0  0  0
    4.2870    0.5154    1.4772 H   0  0  0  0  0  0  0  0  0  0  0  0
    6.3389   -1.0020    1.6955 H   0  0  0  0  0  0  0  0  0  0  0  0
    5.7741   -0.3949    3.2208 H   0  0  0  0  0  0  0  0  0  0  0  0
    6.1724   -3.1022    2.7144 H   0  0  0  0  0  0  0  0  0  0  0  0
    5.2150   -2.4839    4.0073 H   0  0  0  0  0  0  0  0  0  0  0  0
    3.9422   -4.1556    2.5533 H   0  0  0  0  0  0  0  0  0  0  0  0
    1.9513   -2.5443    2.2466 H   0  0  0  0  0  0  0  0  0  0  0  0
    2.8828   -3.7596   -0.9796 H   0  0  0  0  0  0  0  0  0  0  0  0
    1.8463   -3.1409    0.2504 H   0  0  0  0  0  0  0  0  0  0  0  0
    2.6865   -4.6649    0.5002 H   0  0  0  0  0  0  0  0  0  0  0  0
    6.1759   -3.2211    0.6484 H   0  0  0  0  0  0  0  0  0  0  0  0
    5.2374   -5.2452    0.4568 H   0  0  0  0  0  0  0  0  0  0  0  0
    6.6299   -2.2577   -1.2552 H   0  0  0  0  0  0  0  0  0  0  0  0
    4.0195   -3.0212   -2.6502 H   0  0  0  0  0  0  0  0  0  0  0  0
    5.5716   -3.8392   -2.8349 H   0  0  0  0  0  0  0  0  0  0  0  0
    5.3884   -2.1730   -3.3289 H   0  0  0  0  0  0  0  0  0  0  0  0
    5.6445   -0.3720   -0.4423 H   0  0  0  0  0  0  0  0  0  0  0  0
    4.3424   -0.6337   -1.5759 H   0  0  0  0  0  0  0  0  0  0  0  0
    2.9164   -1.1306    0.0884 H   0  0  0  0  0  0  0  0  0  0  0  0
    0.2169    2.6165    1.4784 H   0  0  0  0  0  0  0  0  0  0  0  0
  1  2  1  0
  1 24  1  0
  1 25  1  0
  1 26  1  0
  2 15  1  0
  2  3  1  0
  2 27  1  1
  3  4  1  0
  3 28  1  0
  3 29  1  0
  4  9  2  0
  4  5  1  0
  5  6  2  0
  5 30  1  0
  6  7  1  0
  6 31  1  0
  7  8  2  0
  7 53  1  0
  8  9  1  0
  8 32  1  0
  9 10  1  0
 10 15  1  0
 10 11  1  0
 10 33  1  1
 11 23  1  0
 11 12  1  0
 11 34  1  6
 12 13  1  0
 12 35  1  0
 12 36  1  0
 13 14  1  0
 13 37  1  0
 13 38  1  0
 14 15  1  0
 14 16  1  0
 14 39  1  6
 15 40  1  6
 16 23  1  0
 16 17  1  6
 16 18  1  0
 17 41  1  0
 17 42  1  0
 17 43  1  0
 18 19  1  0
 18 20  1  0
 18 44  1  1
 19 45  1  0
 20 21  1  0
 20 22  1  0
 20 46  1  6
 21 47  1  0
 21 48  1  0
 21 49  1  0
 22 23  1  0
 22 50  1  0
 22 51  1  0
 23 52  1  6
M  CHG  1   7   1
M  END
>  <i_m_ct_stereo_status>  (47) 
1

>  <s_m_source_file>  (47) 
/var/tmp/pbs.5076255.sched01/tmpcm5es6vs/0d3z1so5d.sdf

>  <i_m_source_file_index>  (47) 
20

>  <i_lp_mmshare_version>  (47) 
48012

>  <i_f3d_flags>  (47) 
0

>  <s_epik_input>  (47) 
W2NIXTFuW2NIXVtjSF1jKFtDSDJdW0NASF0yW0NIM10pYzFbQ0BASF0oW0NASF0yW0NASF0zW0NAXTQ1W0NIM10pW0NAQEhdKFtDSDJdW0NIMl0zKVtDQEhdNVtDSDJdW0NASF0oW0NIM10pW0NAQEhdNFtPSF0=

>  <s_epik_cmdline>  (47) 
J2VwaWtfcHl0aG9uJywgJy1waHQnLCAnMi4wJywgJy1waCcsICc3LjAnLCAnLXRuJywgJzgnLCAnLW1hJywgJzIwMCcsICctaW1hZScsICc8aW5maWxlLm1hZT4nLCAnLW9tYWUnLCAnPG91dGZpbGUubWFlPic=

>  <r_epik_Ionization_Penalty>  (47) 
0.494044

>  <r_epik_Ionization_Penalty_Charging>  (47) 
0.494043

>  <r_epik_Ionization_Penalty_Neutral>  (47) 
1.6909e-06

>  <r_epik_State_Penalty>  (47) 
0.500001

>  <r_epik_Charging_Adjusted_Penalty>  (47) 
0.994044

>  <i_epik_Tot_Q>  (47) 
1

>  <i_epik_Tot_abs_Q>  (47) 
1

>  <s_lp_Force_Field>  (47) 
OPLS3e

>  <r_lp_Energy>  (47) 
72.4495

>  <b_lp_Chiralities_Consistent>  (47) 
1

>  <s_lp_Variant>  (47) 
16:0-2

>  <s_i_glide_gridfile>  (47) 
pfpi4k_grid

>  <i_i_glide_lignum>  (47) 
20

>  <i_i_glide_rotatable_bonds>  (47) 
1

>  <r_i_docking_score>  (47) 
-3.86847

>  <r_i_glide_ligand_efficiency>  (47) 
-0.168194

>  <r_i_glide_ligand_efficiency_sa>  (47) 
-0.478322

>  <r_i_glide_ligand_efficiency_ln>  (47) 
-0.93543

>  <r_i_glide_gscore>  (47) 
-3.86847

>  <r_i_glide_lipo>  (47) 
-0.474028

>  <r_i_glide_hbond>  (47) 
-0.2

>  <r_i_glide_metal>  (47) 
-0

>  <r_i_glide_rewards>  (47) 
-1.27862

>  <r_i_glide_evdw>  (47) 
-25.9191

>  <r_i_glide_ecoul>  (47) 
-3.63417

>  <r_i_glide_erotb>  (47) 
0

>  <r_i_glide_esite>  (47) 
-0.0747393

>  <r_i_glide_emodel>  (47) 
-38.4477

>  <r_i_glide_energy>  (47) 
-29.5532

>  <r_i_glide_einternal>  (47) 
0.3562

>  <r_i_glide_intrahb_reward>  (47) 
-0

>  <i_i_glide_confnum>  (47) 
1

>  <i_i_glide_posenum>  (47) 
1

>  <r_i_glide_eff_state_penalty>  (47) 
0

>  <ligand_id>  (47) 
16

>  <original_smiles>  (47) 
CC1Cc2ccncc2C2C3CCC(C12)C1(C)C(O)C(C)CC31

>  <smiles>  (47) 
[H]OC1([H])C([H])(C([H])([H])[H])C([H])([H])C2([H])C3([H])C([H])([H])C([H])([H])C([H])(C4([H])C3([H])c3c(c([H])c([H])[n+]([H])c3[H])C([H])([H])C4([H])C([H])([H])[H])C12C([H])([H])[H]

$$$$
16:1:2
     RDKit          3D

 53 57  0  0  1  0  0  0  0  0999 V2000
    4.7889   -5.2742    6.0469 C   0  0  0  0  0  0  0  0  0  0  0  0
    4.6514   -4.9970    4.5407 C   0  0  2  0  0  0  0  0  0  0  0  0
    4.7703   -3.4764    4.2126 C   0  0  0  0  0  0  0  0  0  0  0  0
    4.1375   -3.0083    2.8918 C   0  0  0  0  0  0  0  0  0  0  0  0
    4.1945   -1.6423    2.5396 C   0  0  0  0  0  0  0  0  0  0  0  0
    3.5661   -1.2006    1.3561 C   0  0  0  0  0  0  0  0  0  0  0  0
    2.9204   -2.0898    0.5713 N   0  0  0  0  0  0  0  0  0  0  0  0
    2.8597   -3.4103    0.8485 C   0  0  0  0  0  0  0  0  0  0  0  0
    3.4640   -3.9091    2.0226 C   0  0  0  0  0  0  0  0  0  0  0  0
    3.4669   -5.3783    2.4028 C   0  0  2  0  0  0  0  0  0  0  0  0
    2.5466   -6.4150    1.7021 C   0  0  1  0  0  0  0  0  0  0  0  0
    3.2418   -7.7880    1.9473 C   0  0  0  0  0  0  0  0  0  0  0  0
    3.5343   -7.9702    3.4637 C   0  0  0  0  0  0  0  0  0  0  0  0
    2.7335   -6.9185    4.2781 C   0  0  1  0  0  0  0  0  0  0  0  0
    3.3306   -5.5113    3.9320 C   0  0  1  0  0  0  0  0  0  0  0  0
    1.2096   -6.9165    3.8470 C   0  0  2  0  0  0  0  0  0  0  0  0
    0.3783   -5.9696    4.7631 C   0  0  0  0  0  0  0  0  0  0  0  0
    0.5262   -8.3242    3.8119 C   0  0  1  0  0  0  0  0  0  0  0  0
   -0.0639   -8.7159    5.0362 O   0  0  0  0  0  0  0  0  0  0  0  0
   -0.4666   -8.3352    2.6368 C   0  0  1  0  0  0  0  0  0  0  0  0
   -1.9472   -8.0810    2.9811 C   0  0  0  0  0  0  0  0  0  0  0  0
    0.1003   -7.3136    1.6374 C   0  0  0  0  0  0  0  0  0  0  0  0
    1.1349   -6.4307    2.3656 C   0  0  2  0  0  0  0  0  0  0  0  0
    3.9567   -4.8597    6.6176 H   0  0  0  0  0  0  0  0  0  0  0  0
    5.7122   -4.8432    6.4387 H   0  0  0  0  0  0  0  0  0  0  0  0
    4.8322   -6.3469    6.2463 H   0  0  0  0  0  0  0  0  0  0  0  0
    5.4824   -5.5177    4.0586 H   0  0  0  0  0  0  0  0  0  0  0  0
    4.2701   -2.9176    5.0040 H   0  0  0  0  0  0  0  0  0  0  0  0
    5.8160   -3.1655    4.2464 H   0  0  0  0  0  0  0  0  0  0  0  0
    4.6959   -0.9299    3.1813 H   0  0  0  0  0  0  0  0  0  0  0  0
    3.5385   -0.1695    1.0299 H   0  0  0  0  0  0  0  0  0  0  0  0
    2.3160   -4.0153    0.1361 H   0  0  0  0  0  0  0  0  0  0  0  0
    4.4787   -5.6675    2.1154 H   0  0  0  0  0  0  0  0  0  0  0  0
    2.4889   -6.2405    0.6301 H   0  0  0  0  0  0  0  0  0  0  0  0
    2.6304   -8.6119    1.5737 H   0  0  0  0  0  0  0  0  0  0  0  0
    4.1820   -7.8494    1.3956 H   0  0  0  0  0  0  0  0  0  0  0  0
    3.3193   -8.9916    3.7825 H   0  0  0  0  0  0  0  0  0  0  0  0
    4.6010   -7.8452    3.6591 H   0  0  0  0  0  0  0  0  0  0  0  0
    2.8112   -7.1333    5.3439 H   0  0  0  0  0  0  0  0  0  0  0  0
    2.5979   -4.7902    4.2811 H   0  0  0  0  0  0  0  0  0  0  0  0
   -0.6913   -6.1240    4.6577 H   0  0  0  0  0  0  0  0  0  0  0  0
    0.5364   -4.9117    4.5603 H   0  0  0  0  0  0  0  0  0  0  0  0
    0.6154   -6.1356    5.8138 H   0  0  0  0  0  0  0  0  0  0  0  0
    1.2442   -9.1019    3.5647 H   0  0  0  0  0  0  0  0  0  0  0  0
   -0.4378   -9.5853    4.9341 H   0  0  0  0  0  0  0  0  0  0  0  0
   -0.4399   -9.3279    2.1817 H   0  0  0  0  0  0  0  0  0  0  0  0
   -2.1389   -7.0853    3.3758 H   0  0  0  0  0  0  0  0  0  0  0  0
   -2.3149   -8.8067    3.7087 H   0  0  0  0  0  0  0  0  0  0  0  0
   -2.5631   -8.2022    2.0895 H   0  0  0  0  0  0  0  0  0  0  0  0
    0.5686   -7.8505    0.8124 H   0  0  0  0  0  0  0  0  0  0  0  0
   -0.6893   -6.7039    1.1991 H   0  0  0  0  0  0  0  0  0  0  0  0
    0.7700   -5.4035    2.3448 H   0  0  0  0  0  0  0  0  0  0  0  0
    2.4026   -1.7252   -0.2417 H   0  0  0  0  0  0  0  0  0  0  0  0
  1  2  1  0
  1 24  1  0
  1 25  1  0
  1 26  1  0
  2 15  1  0
  2  3  1  0
  2 27  1  6
  3  4  1  0
  3 28  1  0
  3 29  1  0
  4  9  2  0
  4  5  1  0
  5  6  2  0
  5 30  1  0
  6  7  1  0
  6 31  1  0
  7  8  2  0
  7 53  1  0
  8  9  1  0
  8 32  1  0
  9 10  1  0
 10 15  1  0
 10 11  1  0
 10 33  1  1
 11 23  1  0
 11 12  1  0
 11 34  1  6
 12 13  1  0
 12 35  1  0
 12 36  1  0
 13 14  1  0
 13 37  1  0
 13 38  1  0
 14 15  1  0
 14 16  1  0
 14 39  1  1
 15 40  1  1
 16 23  1  0
 16 17  1  1
 16 18  1  0
 17 41  1  0
 17 42  1  0
 17 43  1  0
 18 19  1  0
 18 20  1  0
 18 44  1  6
 19 45  1  0
 20 21  1  0
 20 22  1  0
 20 46  1  6
 21 47  1  0
 21 48  1  0
 21 49  1  0
 22 23  1  0
 22 50  1  0
 22 51  1  0
 23 52  1  1
M  CHG  1   7   1
M  END
>  <i_m_ct_stereo_status>  (48) 
1

>  <s_m_source_file>  (48) 
/var/tmp/pbs.5076255.sched01/tmpcm5es6vs/0d3z1so5d.sdf

>  <i_m_source_file_index>  (48) 
20

>  <i_lp_mmshare_version>  (48) 
48012

>  <i_f3d_flags>  (48) 
0

>  <s_epik_input>  (48) 
W2NIXTFuW2NIXVtjSF1jKFtDSDJdW0NASF0yW0NIM10pYzFbQ0BASF0oW0NASF0yW0NASF0zW0NAXTQ1W0NIM10pW0NAQEhdKFtDSDJdW0NIMl0zKVtDQEhdNVtDSDJdW0NASF0oW0NIM10pW0NAQEhdNFtPSF0=

>  <s_epik_cmdline>  (48) 
J2VwaWtfcHl0aG9uJywgJy1waHQnLCAnMi4wJywgJy1waCcsICc3LjAnLCAnLXRuJywgJzgnLCAnLW1hJywgJzIwMCcsICctaW1hZScsICc8aW5maWxlLm1hZT4nLCAnLW9tYWUnLCAnPG91dGZpbGUubWFlPic=

>  <r_epik_Ionization_Penalty>  (48) 
0.494044

>  <r_epik_Ionization_Penalty_Charging>  (48) 
0.494043

>  <r_epik_Ionization_Penalty_Neutral>  (48) 
1.6909e-06

>  <r_epik_State_Penalty>  (48) 
0.500001

>  <r_epik_Charging_Adjusted_Penalty>  (48) 
0.994044

>  <i_epik_Tot_Q>  (48) 
1

>  <i_epik_Tot_abs_Q>  (48) 
1

>  <s_lp_Force_Field>  (48) 
OPLS3e

>  <r_lp_Energy>  (48) 
72.4495

>  <b_lp_Chiralities_Consistent>  (48) 
1

>  <s_lp_Variant>  (48) 
16:0-2

>  <s_i_glide_gridfile>  (48) 
pfpi4k_grid

>  <i_i_glide_lignum>  (48) 
20

>  <i_i_glide_rotatable_bonds>  (48) 
1

>  <r_i_docking_score>  (48) 
-3.49987

>  <r_i_glide_ligand_efficiency>  (48) 
-0.152168

>  <r_i_glide_ligand_efficiency_sa>  (48) 
-0.432746

>  <r_i_glide_ligand_efficiency_ln>  (48) 
-0.846301

>  <r_i_glide_gscore>  (48) 
-3.49987

>  <r_i_glide_lipo>  (48) 
-0.0369849

>  <r_i_glide_hbond>  (48) 
-0.230064

>  <r_i_glide_metal>  (48) 
-0

>  <r_i_glide_rewards>  (48) 
-1.27862

>  <r_i_glide_evdw>  (48) 
-22.2267

>  <r_i_glide_ecoul>  (48) 
-5.22115

>  <r_i_glide_erotb>  (48) 
0

>  <r_i_glide_esite>  (48) 
-0.059693

>  <r_i_glide_emodel>  (48) 
-35.4159

>  <r_i_glide_energy>  (48) 
-27.4479

>  <r_i_glide_einternal>  (48) 
0.376701

>  <r_i_glide_intrahb_reward>  (48) 
-0

>  <i_i_glide_confnum>  (48) 
1

>  <i_i_glide_posenum>  (48) 
32

>  <r_i_glide_eff_state_penalty>  (48) 
0

>  <ligand_id>  (48) 
16

>  <original_smiles>  (48) 
CC1Cc2ccncc2C2C3CCC(C12)C1(C)C(O)C(C)CC31

>  <smiles>  (48) 
[H]OC1([H])C([H])(C([H])([H])[H])C([H])([H])C2([H])C3([H])C([H])([H])C([H])([H])C([H])(C4([H])C3([H])c3c(c([H])c([H])[n+]([H])c3[H])C([H])([H])C4([H])C([H])([H])[H])C12C([H])([H])[H]

$$$$
17:0:0
     RDKit          3D

 63 68  0  0  1  0  0  0  0  0999 V2000
    3.3088   -2.6452   -0.7403 C   0  0  0  0  0  0  0  0  0  0  0  0
    2.6175   -3.1382    0.4031 O   0  0  0  0  0  0  0  0  0  0  0  0
    3.3449   -3.0765    1.6279 C   0  0  2  0  0  0  0  0  0  0  0  0
    4.3347   -4.2579    1.7235 C   0  0  0  0  0  0  0  0  0  0  0  0
    3.6262   -5.5968    1.8629 C   0  0  2  0  0  0  0  0  0  0  0  0
    4.2267   -6.8882    1.3351 C   0  0  0  0  0  0  0  0  0  0  0  0
    3.0594   -6.2446    0.6306 C   0  0  1  0  0  0  0  0  0  0  0  0
    1.7445   -6.6164    1.0205 O   0  0  0  0  0  0  0  0  0  0  0  0
    1.3918   -6.2274    2.2538 C   0  0  0  0  0  0  0  0  0  0  0  0
    0.2662   -6.3311    2.7411 O   0  0  0  0  0  0  0  0  0  0  0  0
    2.6071   -5.6421    2.9813 C   0  0  2  0  0  0  0  0  0  0  0  0
    2.4288   -4.2888    3.7349 C   0  0  2  0  0  0  0  0  0  0  0  0
    1.2944   -4.3047    4.7803 C   0  0  0  0  0  0  0  0  0  0  0  0
    1.2552   -3.0006    5.5763 C   0  0  0  0  0  0  0  0  0  0  0  0
    1.1083   -1.8055    4.6483 C   0  0  0  0  0  0  0  0  0  0  0  0
    0.0903   -0.9338    4.8083 C   0  0  0  0  0  0  0  0  0  0  0  0
   -0.1340    0.3179    3.9689 C   0  0  1  0  0  0  0  0  0  0  0  0
   -0.4855    1.4669    4.7487 O   0  0  0  0  0  0  0  0  0  0  0  0
   -1.7658    1.4637    5.3182 C   0  0  2  0  0  0  0  0  0  0  0  0
   -2.1674    2.9157    5.6751 C   0  0  0  0  0  0  0  0  0  0  0  0
   -1.2688    3.4502    6.8017 C   0  0  0  0  0  0  0  0  0  0  0  0
   -1.2810    2.4824    7.9909 C   0  0  0  0  0  0  0  0  0  0  0  0
   -0.9305    1.0735    7.5048 C   0  0  0  0  0  0  0  0  0  0  0  0
   -1.8504    0.6826    6.4836 O   0  0  0  0  0  0  0  0  0  0  0  0
    1.1285    0.6609    3.1640 C   0  0  0  0  0  0  0  0  0  0  0  0
    1.7393   -0.5921    2.5127 C   0  0  0  0  0  0  0  0  0  0  0  0
    2.1672   -1.6872    3.5385 C   0  0  1  0  0  0  0  0  0  0  0  0
    3.5052   -1.2701    4.2023 C   0  0  0  0  0  0  0  0  0  0  0  0
    2.2943   -3.0634    2.7843 C   0  0  1  0  0  0  0  0  0  0  0  0
    2.6438   -2.6607   -1.6048 H   0  0  0  0  0  0  0  0  0  0  0  0
    4.1751   -3.2581   -0.9866 H   0  0  0  0  0  0  0  0  0  0  0  0
    3.6386   -1.6143   -0.6050 H   0  0  0  0  0  0  0  0  0  0  0  0
    3.9255   -2.1571    1.6304 H   0  0  0  0  0  0  0  0  0  0  0  0
    4.9776   -4.2918    0.8426 H   0  0  0  0  0  0  0  0  0  0  0  0
    4.9957   -4.1211    2.5804 H   0  0  0  0  0  0  0  0  0  0  0  0
    5.1958   -6.8383    0.8437 H   0  0  0  0  0  0  0  0  0  0  0  0
    4.0472   -7.8071    1.8905 H   0  0  0  0  0  0  0  0  0  0  0  0
    3.1615   -5.7328   -0.3209 H   0  0  0  0  0  0  0  0  0  0  0  0
    2.9298   -6.3926    3.7020 H   0  0  0  0  0  0  0  0  0  0  0  0
    3.3507   -4.1639    4.3022 H   0  0  0  0  0  0  0  0  0  0  0  0
    0.3226   -4.4246    4.3004 H   0  0  0  0  0  0  0  0  0  0  0  0
    1.4177   -5.1521    5.4561 H   0  0  0  0  0  0  0  0  0  0  0  0
    0.4326   -3.0333    6.2903 H   0  0  0  0  0  0  0  0  0  0  0  0
    2.1689   -2.8928    6.1594 H   0  0  0  0  0  0  0  0  0  0  0  0
   -0.6239   -1.1232    5.5893 H   0  0  0  0  0  0  0  0  0  0  0  0
   -0.9365    0.0973    3.2645 H   0  0  0  0  0  0  0  0  0  0  0  0
   -2.4755    1.0737    4.5858 H   0  0  0  0  0  0  0  0  0  0  0  0
   -2.0953    3.5413    4.7831 H   0  0  0  0  0  0  0  0  0  0  0  0
   -3.2090    2.9172    5.9951 H   0  0  0  0  0  0  0  0  0  0  0  0
   -0.2477    3.5807    6.4364 H   0  0  0  0  0  0  0  0  0  0  0  0
   -1.6135    4.4326    7.1284 H   0  0  0  0  0  0  0  0  0  0  0  0
   -0.5724    2.8071    8.7530 H   0  0  0  0  0  0  0  0  0  0  0  0
   -2.2660    2.4759    8.4583 H   0  0  0  0  0  0  0  0  0  0  0  0
    0.0960    1.0304    7.1368 H   0  0  0  0  0  0  0  0  0  0  0  0
   -0.9836    0.3671    8.3307 H   0  0  0  0  0  0  0  0  0  0  0  0
    0.8858    1.3982    2.3960 H   0  0  0  0  0  0  0  0  0  0  0  0
    1.8683    1.1315    3.8150 H   0  0  0  0  0  0  0  0  0  0  0  0
    1.0027   -1.0022    1.8193 H   0  0  0  0  0  0  0  0  0  0  0  0
    2.5850   -0.2960    1.8915 H   0  0  0  0  0  0  0  0  0  0  0  0
    4.2780   -1.0298    3.4738 H   0  0  0  0  0  0  0  0  0  0  0  0
    3.9068   -2.0495    4.8485 H   0  0  0  0  0  0  0  0  0  0  0  0
    3.3740   -0.3841    4.8240 H   0  0  0  0  0  0  0  0  0  0  0  0
    1.3273   -3.2114    2.3128 H   0  0  0  0  0  0  0  0  0  0  0  0
  1  2  1  0
  1 30  1  0
  1 31  1  0
  1 32  1  0
  2  3  1  0
  3 29  1  0
  3  4  1  0
  3 33  1  6
  5  4  1  6
  4 34  1  0
  4 35  1  0
  5  7  1  0
  5 11  1  0
  5  6  1  0
  6  7  1  0
  6 36  1  0
  6 37  1  0
  7  8  1  0
  7 38  1  6
  8  9  1  0
  9 10  2  0
  9 11  1  0
 11 12  1  0
 11 39  1  1
 12 29  1  0
 12 13  1  0
 12 40  1  1
 13 14  1  0
 13 41  1  0
 13 42  1  0
 14 15  1  0
 14 43  1  0
 14 44  1  0
 15 27  1  0
 15 16  2  0
 16 17  1  0
 16 45  1  0
 17 18  1  0
 17 25  1  0
 17 46  1  6
 18 19  1  0
 19 24  1  0
 19 20  1  0
 19 47  1  6
 20 21  1  0
 20 48  1  0
 20 49  1  0
 21 22  1  0
 21 50  1  0
 21 51  1  0
 22 23  1  0
 22 52  1  0
 22 53  1  0
 23 24  1  0
 23 54  1  0
 23 55  1  0
 25 26  1  0
 25 56  1  0
 25 57  1  0
 26 27  1  0
 26 58  1  0
 26 59  1  0
 27 28  1  1
 27 29  1  0
 28 60  1  0
 28 61  1  0
 28 62  1  0
 29 63  1  6
M  END
>  <i_m_ct_stereo_status>  (49) 
1

>  <s_m_source_file>  (49) 
/var/tmp/pbs.5076255.sched01/tmpcm5es6vs/0d3z1so5d.sdf

>  <i_m_source_file_index>  (49) 
21

>  <i_lp_mmshare_version>  (49) 
48012

>  <i_f3d_flags>  (49) 
0

>  <s_epik_input>  (49) 
W0NAQF0xMjNbQ0BASF0oW0NIMl0yKU9DKD1PKVtDQEBIXTNbQ0BIXTRbQ0BIXShbQ0BASF0oW0NIMl0xKU9bQ0gzXSlbQ0BdNShbQ0gzXSlDKFtDSDJdW0NIMl00KT1bQ0hdW0NASF0oW0NIMl1bQ0gyXTUpT1tDQEBIXTZbQ0gyXVtDSDJdW0NIMl1bQ0gyXU82

>  <s_epik_cmdline>  (49) 
J2VwaWtfcHl0aG9uJywgJy1waHQnLCAnMi4wJywgJy1waCcsICc3LjAnLCAnLXRuJywgJzgnLCAnLW1hJywgJzIwMCcsICctaW1hZScsICc8aW5maWxlLm1hZT4nLCAnLW9tYWUnLCAnPG91dGZpbGUubWFlPic=

>  <r_lp_tautomer_probability>  (49) 
1

>  <r_epik_Ionization_Penalty>  (49) 
1.60358e-11

>  <r_epik_Ionization_Penalty_Charging>  (49) 
0

>  <r_epik_Ionization_Penalty_Neutral>  (49) 
1.60358e-11

>  <r_epik_State_Penalty>  (49) 
-0

>  <r_epik_Charging_Adjusted_Penalty>  (49) 
0

>  <i_epik_Tot_Q>  (49) 
0

>  <i_epik_Tot_abs_Q>  (49) 
0

>  <s_epik_Chemistry_Notes>  (49) 
This compound has an ester and may undergo hydrolysis at high or low pH. This compound contains an acetal/aminal-like group ( X-CH(R)-Y where X, Y are N, S, or O) that may be acid/base labile, releasing an aldehyde.

>  <s_lp_Force_Field>  (49) 
OPLS3e

>  <r_lp_Energy>  (49) 
32.6961

>  <b_lp_Chiralities_Consistent>  (49) 
1

>  <s_lp_Variant>  (49) 
17:0-1

>  <s_i_glide_gridfile>  (49) 
pfpi4k_grid

>  <i_i_glide_lignum>  (49) 
21

>  <i_i_glide_rotatable_bonds>  (49) 
3

>  <r_i_docking_score>  (49) 
-2.5559

>  <r_i_glide_ligand_efficiency>  (49) 
-0.0881346

>  <r_i_glide_ligand_efficiency_sa>  (49) 
-0.270777

>  <r_i_glide_ligand_efficiency_ln>  (49) 
-0.585237

>  <r_i_glide_gscore>  (49) 
-2.5559

>  <r_i_glide_lipo>  (49) 
-0.174164

>  <r_i_glide_hbond>  (49) 
-0.27497

>  <r_i_glide_metal>  (49) 
-0

>  <r_i_glide_rewards>  (49) 
-0.664611

>  <r_i_glide_evdw>  (49) 
-20.5764

>  <r_i_glide_ecoul>  (49) 
-3.91651

>  <r_i_glide_erotb>  (49) 
0.242241

>  <r_i_glide_esite>  (49) 
-0.0681049

>  <r_i_glide_emodel>  (49) 
-28.7091

>  <r_i_glide_energy>  (49) 
-24.4929

>  <r_i_glide_einternal>  (49) 
0.641123

>  <r_i_glide_intrahb_reward>  (49) 
-0

>  <i_i_glide_confnum>  (49) 
5

>  <i_i_glide_posenum>  (49) 
34

>  <r_i_glide_eff_state_penalty>  (49) 
0

>  <ligand_id>  (49) 
17

>  <original_smiles>  (49) 
COC1CC23CC2OC(=O)C3C2CCC3=CC(OC4CCCCO4)CCC3(C)C12

>  <smiles>  (49) 
[H]C1=C2C([H])([H])C([H])([H])C3([H])C4([H])C(=O)OC5([H])C([H])([H])C54C([H])([H])C([H])(OC([H])([H])[H])C3([H])C2(C([H])([H])[H])C([H])([H])C([H])([H])C1([H])OC1([H])OC([H])([H])C([H])([H])C([H])([H])C1([H])[H]

$$$$
17:0:1
     RDKit          3D

 63 68  0  0  1  0  0  0  0  0999 V2000
    5.0246   -4.6075   -0.6111 C   0  0  0  0  0  0  0  0  0  0  0  0
    3.9790   -4.4522    0.3400 O   0  0  0  0  0  0  0  0  0  0  0  0
    4.3971   -4.2918    1.6937 C   0  0  2  0  0  0  0  0  0  0  0  0
    4.8928   -5.6318    2.2862 C   0  0  0  0  0  0  0  0  0  0  0  0
    3.7710   -6.6425    2.4408 C   0  0  2  0  0  0  0  0  0  0  0  0
    4.0128   -8.1398    2.3389 C   0  0  0  0  0  0  0  0  0  0  0  0
    3.3145   -7.3967    1.2288 C   0  0  1  0  0  0  0  0  0  0  0  0
    1.8989   -7.2921    1.2851 O   0  0  0  0  0  0  0  0  0  0  0  0
    1.4187   -6.5359    2.2796 C   0  0  0  0  0  0  0  0  0  0  0  0
    0.2313   -6.2632    2.4584 O   0  0  0  0  0  0  0  0  0  0  0  0
    2.5700   -6.1244    3.2016 C   0  0  2  0  0  0  0  0  0  0  0  0
    2.6932   -4.6305    3.6199 C   0  0  2  0  0  0  0  0  0  0  0  0
    1.4250   -4.0725    4.2927 C   0  0  0  0  0  0  0  0  0  0  0  0
    1.6569   -2.6560    4.8085 C   0  0  0  0  0  0  0  0  0  0  0  0
    2.1177   -1.7447    3.6851 C   0  0  0  0  0  0  0  0  0  0  0  0
    1.4384   -0.6241    3.4014 C   0  0  0  0  0  0  0  0  0  0  0  0
    1.8126    0.4105    2.3455 C   0  0  1  0  0  0  0  0  0  0  0  0
    1.6928    1.7522    2.8351 O   0  0  0  0  0  0  0  0  0  0  0  0
    0.3968    2.2872    2.8718 C   0  0  2  0  0  0  0  0  0  0  0  0
    0.4690    3.6970    3.5019 C   0  0  0  0  0  0  0  0  0  0  0  0
   -0.9535    4.2834    3.6373 C   0  0  0  0  0  0  0  0  0  0  0  0
   -1.8727    3.3035    4.3744 C   0  0  0  0  0  0  0  0  0  0  0  0
   -1.7977    1.9386    3.6909 C   0  0  0  0  0  0  0  0  0  0  0  0
   -0.4482    1.5173    3.6713 O   0  0  0  0  0  0  0  0  0  0  0  0
    3.2632    0.1828    1.8779 C   0  0  0  0  0  0  0  0  0  0  0  0
    3.5561   -1.3121    1.6468 C   0  0  0  0  0  0  0  0  0  0  0  0
    3.3697   -2.1981    2.9165 C   0  0  1  0  0  0  0  0  0  0  0  0
    4.5891   -2.0113    3.8565 C   0  0  0  0  0  0  0  0  0  0  0  0
    3.1800   -3.6962    2.4718 C   0  0  1  0  0  0  0  0  0  0  0  0
    4.6075   -4.6392   -1.6170 H   0  0  0  0  0  0  0  0  0  0  0  0
    5.5669   -5.5391   -0.4637 H   0  0  0  0  0  0  0  0  0  0  0  0
    5.7335   -3.7799   -0.5769 H   0  0  0  0  0  0  0  0  0  0  0  0
    5.2343   -3.5983    1.7034 H   0  0  0  0  0  0  0  0  0  0  0  0
    5.6708   -6.0691    1.6603 H   0  0  0  0  0  0  0  0  0  0  0  0
    5.3493   -5.4644    3.2633 H   0  0  0  0  0  0  0  0  0  0  0  0
    5.0221   -8.4854    2.1385 H   0  0  0  0  0  0  0  0  0  0  0  0
    3.4182   -8.8057    2.9610 H   0  0  0  0  0  0  0  0  0  0  0  0
    3.7984   -7.1861    0.2738 H   0  0  0  0  0  0  0  0  0  0  0  0
    2.4641   -6.7222    4.1040 H   0  0  0  0  0  0  0  0  0  0  0  0
    3.4587   -4.6208    4.3960 H   0  0  0  0  0  0  0  0  0  0  0  0
    0.5998   -4.0349    3.5819 H   0  0  0  0  0  0  0  0  0  0  0  0
    1.1108   -4.7192    5.1132 H   0  0  0  0  0  0  0  0  0  0  0  0
    0.7344   -2.2727    5.2444 H   0  0  0  0  0  0  0  0  0  0  0  0
    2.3999   -2.6533    5.6042 H   0  0  0  0  0  0  0  0  0  0  0  0
    0.5612   -0.4342    3.9937 H   0  0  0  0  0  0  0  0  0  0  0  0
    1.1497    0.2724    1.4917 H   0  0  0  0  0  0  0  0  0  0  0  0
    0.0039    2.3237    1.8540 H   0  0  0  0  0  0  0  0  0  0  0  0
    0.9452    3.6124    4.4752 H   0  0  0  0  0  0  0  0  0  0  0  0
    1.0945    4.3430    2.8837 H   0  0  0  0  0  0  0  0  0  0  0  0
   -0.9157    5.2358    4.1705 H   0  0  0  0  0  0  0  0  0  0  0  0
   -1.3697    4.4862    2.6473 H   0  0  0  0  0  0  0  0  0  0  0  0
   -1.5537    3.2051    5.4103 H   0  0  0  0  0  0  0  0  0  0  0  0
   -2.9014    3.6615    4.3914 H   0  0  0  0  0  0  0  0  0  0  0  0
   -2.3601    1.2032    4.2595 H   0  0  0  0  0  0  0  0  0  0  0  0
   -2.2059    1.9611    2.6796 H   0  0  0  0  0  0  0  0  0  0  0  0
    3.4524    0.7432    0.9613 H   0  0  0  0  0  0  0  0  0  0  0  0
    3.9558    0.5772    2.6225 H   0  0  0  0  0  0  0  0  0  0  0  0
    2.8884   -1.6610    0.8569 H   0  0  0  0  0  0  0  0  0  0  0  0
    4.5657   -1.4260    1.2506 H   0  0  0  0  0  0  0  0  0  0  0  0
    5.5390   -2.1821    3.3527 H   0  0  0  0  0  0  0  0  0  0  0  0
    4.5559   -2.6779    4.7165 H   0  0  0  0  0  0  0  0  0  0  0  0
    4.6226   -0.9966    4.2531 H   0  0  0  0  0  0  0  0  0  0  0  0
    2.3428   -3.6837    1.7706 H   0  0  0  0  0  0  0  0  0  0  0  0
  1  2  1  0
  1 30  1  0
  1 31  1  0
  1 32  1  0
  2  3  1  0
  3 29  1  0
  3  4  1  0
  3 33  1  6
  5  4  1  6
  4 34  1  0
  4 35  1  0
  5  7  1  0
  5 11  1  0
  5  6  1  0
  6  7  1  0
  6 36  1  0
  6 37  1  0
  7  8  1  0
  7 38  1  6
  8  9  1  0
  9 10  2  0
  9 11  1  0
 11 12  1  0
 11 39  1  1
 12 29  1  0
 12 13  1  0
 12 40  1  1
 13 14  1  0
 13 41  1  0
 13 42  1  0
 14 15  1  0
 14 43  1  0
 14 44  1  0
 15 27  1  0
 15 16  2  0
 16 17  1  0
 16 45  1  0
 17 18  1  0
 17 25  1  0
 17 46  1  6
 18 19  1  0
 19 24  1  0
 19 20  1  0
 19 47  1  6
 20 21  1  0
 20 48  1  0
 20 49  1  0
 21 22  1  0
 21 50  1  0
 21 51  1  0
 22 23  1  0
 22 52  1  0
 22 53  1  0
 23 24  1  0
 23 54  1  0
 23 55  1  0
 25 26  1  0
 25 56  1  0
 25 57  1  0
 26 27  1  0
 26 58  1  0
 26 59  1  0
 27 28  1  1
 27 29  1  0
 28 60  1  0
 28 61  1  0
 28 62  1  0
 29 63  1  6
M  END
>  <i_m_ct_stereo_status>  (50) 
1

>  <s_m_source_file>  (50) 
/var/tmp/pbs.5076255.sched01/tmpcm5es6vs/0d3z1so5d.sdf

>  <i_m_source_file_index>  (50) 
21

>  <i_lp_mmshare_version>  (50) 
48012

>  <i_f3d_flags>  (50) 
0

>  <s_epik_input>  (50) 
W0NAQF0xMjNbQ0BASF0oW0NIMl0yKU9DKD1PKVtDQEBIXTNbQ0BIXTRbQ0BIXShbQ0BASF0oW0NIMl0xKU9bQ0gzXSlbQ0BdNShbQ0gzXSlDKFtDSDJdW0NIMl00KT1bQ0hdW0NASF0oW0NIMl1bQ0gyXTUpT1tDQEBIXTZbQ0gyXVtDSDJdW0NIMl1bQ0gyXU82

>  <s_epik_cmdline>  (50) 
J2VwaWtfcHl0aG9uJywgJy1waHQnLCAnMi4wJywgJy1waCcsICc3LjAnLCAnLXRuJywgJzgnLCAnLW1hJywgJzIwMCcsICctaW1hZScsICc8aW5maWxlLm1hZT4nLCAnLW9tYWUnLCAnPG91dGZpbGUubWFlPic=

>  <r_lp_tautomer_probability>  (50) 
1

>  <r_epik_Ionization_Penalty>  (50) 
1.60358e-11

>  <r_epik_Ionization_Penalty_Charging>  (50) 
0

>  <r_epik_Ionization_Penalty_Neutral>  (50) 
1.60358e-11

>  <r_epik_State_Penalty>  (50) 
-0

>  <r_epik_Charging_Adjusted_Penalty>  (50) 
0

>  <i_epik_Tot_Q>  (50) 
0

>  <i_epik_Tot_abs_Q>  (50) 
0

>  <s_epik_Chemistry_Notes>  (50) 
This compound has an ester and may undergo hydrolysis at high or low pH. This compound contains an acetal/aminal-like group ( X-CH(R)-Y where X, Y are N, S, or O) that may be acid/base labile, releasing an aldehyde.

>  <s_lp_Force_Field>  (50) 
OPLS3e

>  <r_lp_Energy>  (50) 
32.6961

>  <b_lp_Chiralities_Consistent>  (50) 
1

>  <s_lp_Variant>  (50) 
17:0-1

>  <s_i_glide_gridfile>  (50) 
pfpi4k_grid

>  <i_i_glide_lignum>  (50) 
21

>  <i_i_glide_rotatable_bonds>  (50) 
3

>  <r_i_docking_score>  (50) 
-2.36586

>  <r_i_glide_ligand_efficiency>  (50) 
-0.0815814

>  <r_i_glide_ligand_efficiency_sa>  (50) 
-0.250644

>  <r_i_glide_ligand_efficiency_ln>  (50) 
-0.541722

>  <r_i_glide_gscore>  (50) 
-2.36586

>  <r_i_glide_lipo>  (50) 
-0.186962

>  <r_i_glide_hbond>  (50) 
-0.156447

>  <r_i_glide_metal>  (50) 
-0

>  <r_i_glide_rewards>  (50) 
-0.664611

>  <r_i_glide_evdw>  (50) 
-22.371

>  <r_i_glide_ecoul>  (50) 
-2.38785

>  <r_i_glide_erotb>  (50) 
0.242241

>  <r_i_glide_esite>  (50) 
-0.123358

>  <r_i_glide_emodel>  (50) 
-28.4537

>  <r_i_glide_energy>  (50) 
-24.7588

>  <r_i_glide_einternal>  (50) 
0.549165

>  <r_i_glide_intrahb_reward>  (50) 
-0

>  <i_i_glide_confnum>  (50) 
3

>  <i_i_glide_posenum>  (50) 
28

>  <r_i_glide_eff_state_penalty>  (50) 
0

>  <ligand_id>  (50) 
17

>  <original_smiles>  (50) 
COC1CC23CC2OC(=O)C3C2CCC3=CC(OC4CCCCO4)CCC3(C)C12

>  <smiles>  (50) 
[H]C1=C2C([H])([H])C([H])([H])C3([H])C4([H])C(=O)OC5([H])C([H])([H])C54C([H])([H])C([H])(OC([H])([H])[H])C3([H])C2(C([H])([H])[H])C([H])([H])C([H])([H])C1([H])OC1([H])OC([H])([H])C([H])([H])C([H])([H])C1([H])[H]

$$$$
17:0:2
     RDKit          3D

 63 68  0  0  1  0  0  0  0  0999 V2000
    5.1164   -2.4819   -0.9505 C   0  0  0  0  0  0  0  0  0  0  0  0
    4.1056   -2.8244   -0.0111 O   0  0  0  0  0  0  0  0  0  0  0  0
    4.4854   -2.7470    1.3614 C   0  0  2  0  0  0  0  0  0  0  0  0
    5.3414   -3.9715    1.7585 C   0  0  0  0  0  0  0  0  0  0  0  0
    4.5391   -5.2629    1.7485 C   0  0  2  0  0  0  0  0  0  0  0  0
    5.1787   -6.6075    1.4429 C   0  0  0  0  0  0  0  0  0  0  0  0
    4.2752   -5.9419    0.4333 C   0  0  1  0  0  0  0  0  0  0  0  0
    2.8863   -6.2341    0.4839 O   0  0  0  0  0  0  0  0  0  0  0  0
    2.2469   -5.7842    1.5724 C   0  0  0  0  0  0  0  0  0  0  0  0
    1.0355   -5.8627    1.7827 O   0  0  0  0  0  0  0  0  0  0  0  0
    3.2636   -5.2022    2.5592 C   0  0  2  0  0  0  0  0  0  0  0  0
    2.9777   -3.8025    3.1900 C   0  0  2  0  0  0  0  0  0  0  0  0
    1.6184   -3.7109    3.9096 C   0  0  0  0  0  0  0  0  0  0  0  0
    1.4552   -2.3661    4.6215 C   0  0  0  0  0  0  0  0  0  0  0  0
    1.6273   -1.2118    3.6485 C   0  0  0  0  0  0  0  0  0  0  0  0
    0.6618   -0.2776    3.5044 C   0  0  0  0  0  0  0  0  0  0  0  0
    0.7484    0.9358    2.5892 C   0  0  1  0  0  0  0  0  0  0  0  0
    0.2933    2.1424    3.2112 O   0  0  0  0  0  0  0  0  0  0  0  0
   -1.0910    2.3488    3.2081 C   0  0  2  0  0  0  0  0  0  0  0  0
   -1.3919    3.8265    3.5600 C   0  0  0  0  0  0  0  0  0  0  0  0
   -0.9955    4.1150    5.0135 C   0  0  0  0  0  0  0  0  0  0  0  0
   -1.6714    3.1103    5.9524 C   0  0  0  0  0  0  0  0  0  0  0  0
   -1.3616    1.6899    5.4748 C   0  0  0  0  0  0  0  0  0  0  0  0
   -1.7725    1.5334    4.1187 O   0  0  0  0  0  0  0  0  0  0  0  0
    2.1956    1.1720    2.1412 C   0  0  0  0  0  0  0  0  0  0  0  0
    2.8704   -0.1408    1.7168 C   0  0  0  0  0  0  0  0  0  0  0  0
    2.9435   -1.2068    2.8508 C   0  0  1  0  0  0  0  0  0  0  0  0
    4.0906   -0.8294    3.8251 C   0  0  0  0  0  0  0  0  0  0  0  0
    3.1669   -2.6231    2.1920 C   0  0  1  0  0  0  0  0  0  0  0  0
    4.6963   -2.5005   -1.9567 H   0  0  0  0  0  0  0  0  0  0  0  0
    5.9441   -3.1896   -0.9345 H   0  0  0  0  0  0  0  0  0  0  0  0
    5.5086   -1.4791   -0.7778 H   0  0  0  0  0  0  0  0  0  0  0  0
    5.1034   -1.8607    1.4867 H   0  0  0  0  0  0  0  0  0  0  0  0
    6.1913   -4.0848    1.0840 H   0  0  0  0  0  0  0  0  0  0  0  0
    5.7625   -3.8271    2.7541 H   0  0  0  0  0  0  0  0  0  0  0  0
    6.2431   -6.6322    1.2209 H   0  0  0  0  0  0  0  0  0  0  0  0
    4.8036   -7.4881    1.9630 H   0  0  0  0  0  0  0  0  0  0  0  0
    4.6513   -5.4872   -0.4822 H   0  0  0  0  0  0  0  0  0  0  0  0
    3.3453   -5.9258    3.3694 H   0  0  0  0  0  0  0  0  0  0  0  0
    3.7299   -3.6951    3.9707 H   0  0  0  0  0  0  0  0  0  0  0  0
    0.7982   -3.8074    3.1983 H   0  0  0  0  0  0  0  0  0  0  0  0
    1.5139   -4.5273    4.6247 H   0  0  0  0  0  0  0  0  0  0  0  0
    0.4750   -2.3204    5.0964 H   0  0  0  0  0  0  0  0  0  0  0  0
    2.1933   -2.2762    5.4184 H   0  0  0  0  0  0  0  0  0  0  0  0
   -0.2477   -0.3809    4.0709 H   0  0  0  0  0  0  0  0  0  0  0  0
    0.1506    0.7130    1.7036 H   0  0  0  0  0  0  0  0  0  0  0  0
   -1.4835    2.1443    2.2099 H   0  0  0  0  0  0  0  0  0  0  0  0
   -0.8501    4.4826    2.8804 H   0  0  0  0  0  0  0  0  0  0  0  0
   -2.4575    3.9957    3.4109 H   0  0  0  0  0  0  0  0  0  0  0  0
    0.0906    4.0612    5.1184 H   0  0  0  0  0  0  0  0  0  0  0  0
   -1.2833    5.1292    5.2841 H   0  0  0  0  0  0  0  0  0  0  0  0
   -1.3183    3.2505    6.9735 H   0  0  0  0  0  0  0  0  0  0  0  0
   -2.7499    3.2686    5.9621 H   0  0  0  0  0  0  0  0  0  0  0  0
   -0.2964    1.4767    5.5823 H   0  0  0  0  0  0  0  0  0  0  0  0
   -1.8943    0.9586    6.0815 H   0  0  0  0  0  0  0  0  0  0  0  0
    2.1986    1.8776    1.3110 H   0  0  0  0  0  0  0  0  0  0  0  0
    2.7666    1.6392    2.9466 H   0  0  0  0  0  0  0  0  0  0  0  0
    2.3007   -0.5469    0.8787 H   0  0  0  0  0  0  0  0  0  0  0  0
    3.8639    0.0779    1.3249 H   0  0  0  0  0  0  0  0  0  0  0  0
    5.0388   -0.6648    3.3161 H   0  0  0  0  0  0  0  0  0  0  0  0
    4.2614   -1.5941    4.5809 H   0  0  0  0  0  0  0  0  0  0  0  0
    3.8597    0.0923    4.3589 H   0  0  0  0  0  0  0  0  0  0  0  0
    2.3455   -2.7442    1.4820 H   0  0  0  0  0  0  0  0  0  0  0  0
  1  2  1  0
  1 30  1  0
  1 31  1  0
  1 32  1  0
  2  3  1  0
  3 29  1  0
  3  4  1  0
  3 33  1  6
  5  4  1  6
  4 34  1  0
  4 35  1  0
  5  7  1  0
  5 11  1  0
  5  6  1  0
  6  7  1  0
  6 36  1  0
  6 37  1  0
  7  8  1  0
  7 38  1  6
  8  9  1  0
  9 10  2  0
  9 11  1  0
 11 12  1  0
 11 39  1  1
 12 29  1  0
 12 13  1  0
 12 40  1  1
 13 14  1  0
 13 41  1  0
 13 42  1  0
 14 15  1  0
 14 43  1  0
 14 44  1  0
 15 27  1  0
 15 16  2  0
 16 17  1  0
 16 45  1  0
 17 18  1  0
 17 25  1  0
 17 46  1  6
 18 19  1  0
 19 24  1  0
 19 20  1  0
 19 47  1  6
 20 21  1  0
 20 48  1  0
 20 49  1  0
 21 22  1  0
 21 50  1  0
 21 51  1  0
 22 23  1  0
 22 52  1  0
 22 53  1  0
 23 24  1  0
 23 54  1  0
 23 55  1  0
 25 26  1  0
 25 56  1  0
 25 57  1  0
 26 27  1  0
 26 58  1  0
 26 59  1  0
 27 28  1  1
 27 29  1  0
 28 60  1  0
 28 61  1  0
 28 62  1  0
 29 63  1  6
M  END
>  <i_m_ct_stereo_status>  (51) 
1

>  <s_m_source_file>  (51) 
/var/tmp/pbs.5076255.sched01/tmpcm5es6vs/0d3z1so5d.sdf

>  <i_m_source_file_index>  (51) 
21

>  <i_lp_mmshare_version>  (51) 
48012

>  <i_f3d_flags>  (51) 
0

>  <s_epik_input>  (51) 
W0NAQF0xMjNbQ0BASF0oW0NIMl0yKU9DKD1PKVtDQEBIXTNbQ0BIXTRbQ0BIXShbQ0BASF0oW0NIMl0xKU9bQ0gzXSlbQ0BdNShbQ0gzXSlDKFtDSDJdW0NIMl00KT1bQ0hdW0NASF0oW0NIMl1bQ0gyXTUpT1tDQEBIXTZbQ0gyXVtDSDJdW0NIMl1bQ0gyXU82

>  <s_epik_cmdline>  (51) 
J2VwaWtfcHl0aG9uJywgJy1waHQnLCAnMi4wJywgJy1waCcsICc3LjAnLCAnLXRuJywgJzgnLCAnLW1hJywgJzIwMCcsICctaW1hZScsICc8aW5maWxlLm1hZT4nLCAnLW9tYWUnLCAnPG91dGZpbGUubWFlPic=

>  <r_lp_tautomer_probability>  (51) 
1

>  <r_epik_Ionization_Penalty>  (51) 
1.60358e-11

>  <r_epik_Ionization_Penalty_Charging>  (51) 
0

>  <r_epik_Ionization_Penalty_Neutral>  (51) 
1.60358e-11

>  <r_epik_State_Penalty>  (51) 
-0

>  <r_epik_Charging_Adjusted_Penalty>  (51) 
0

>  <i_epik_Tot_Q>  (51) 
0

>  <i_epik_Tot_abs_Q>  (51) 
0

>  <s_epik_Chemistry_Notes>  (51) 
This compound has an ester and may undergo hydrolysis at high or low pH. This compound contains an acetal/aminal-like group ( X-CH(R)-Y where X, Y are N, S, or O) that may be acid/base labile, releasing an aldehyde.

>  <s_lp_Force_Field>  (51) 
OPLS3e

>  <r_lp_Energy>  (51) 
32.6961

>  <b_lp_Chiralities_Consistent>  (51) 
1

>  <s_lp_Variant>  (51) 
17:0-1

>  <s_i_glide_gridfile>  (51) 
pfpi4k_grid

>  <i_i_glide_lignum>  (51) 
21

>  <i_i_glide_rotatable_bonds>  (51) 
3

>  <r_i_docking_score>  (51) 
-2.17761

>  <r_i_glide_ligand_efficiency>  (51) 
-0.07509

>  <r_i_glide_ligand_efficiency_sa>  (51) 
-0.2307

>  <r_i_glide_ligand_efficiency_ln>  (51) 
-0.498617

>  <r_i_glide_gscore>  (51) 
-2.17761

>  <r_i_glide_lipo>  (51) 
-0.31347

>  <r_i_glide_hbond>  (51) 
-0.127516

>  <r_i_glide_metal>  (51) 
-0

>  <r_i_glide_rewards>  (51) 
-0.664611

>  <r_i_glide_evdw>  (51) 
-22.7455

>  <r_i_glide_ecoul>  (51) 
-0.656319

>  <r_i_glide_erotb>  (51) 
0.242241

>  <r_i_glide_esite>  (51) 
-0.0785293

>  <r_i_glide_emodel>  (51) 
-27.2141

>  <r_i_glide_energy>  (51) 
-23.4018

>  <r_i_glide_einternal>  (51) 
0.0998459

>  <r_i_glide_intrahb_reward>  (51) 
-0

>  <i_i_glide_confnum>  (51) 
5

>  <i_i_glide_posenum>  (51) 
1

>  <r_i_glide_eff_state_penalty>  (51) 
0

>  <ligand_id>  (51) 
17

>  <original_smiles>  (51) 
COC1CC23CC2OC(=O)C3C2CCC3=CC(OC4CCCCO4)CCC3(C)C12

>  <smiles>  (51) 
[H]C1=C2C([H])([H])C([H])([H])C3([H])C4([H])C(=O)OC5([H])C([H])([H])C54C([H])([H])C([H])(OC([H])([H])[H])C3([H])C2(C([H])([H])[H])C([H])([H])C([H])([H])C1([H])OC1([H])OC([H])([H])C([H])([H])C([H])([H])C1([H])[H]

$$$$
19:0:0
     RDKit          3D

 97103  0  0  1  0  0  0  0  0999 V2000
    5.3540   -1.4698   -1.1637 C   0  0  0  0  0  0  0  0  0  0  0  0
    5.7340   -2.3990    0.0039 C   0  0  2  0  0  0  0  0  0  0  0  0
    6.3946   -3.6676   -0.5508 C   0  0  0  0  0  0  0  0  0  0  0  0
    6.8018   -4.6281    0.5700 C   0  0  0  0  0  0  0  0  0  0  0  0
    5.5995   -5.0724    1.4300 C   0  0  1  0  0  0  0  0  0  0  0  0
    4.6385   -5.9324    0.5671 C   0  0  0  0  0  0  0  0  0  0  0  0
    6.1432   -5.9165    2.6106 C   0  0  0  0  0  0  0  0  0  0  0  0
    5.0668   -6.2794    3.6622 C   0  0  0  0  0  0  0  0  0  0  0  0
    4.2044   -5.0852    4.2128 C   0  0  1  0  0  0  0  0  0  0  0  0
    5.2155   -4.2432    5.0474 C   0  0  0  0  0  0  0  0  0  0  0  0
    3.7683   -4.2796    2.9628 C   0  0  0  0  0  0  0  0  0  0  0  0
    2.4674   -4.0957    2.6522 C   0  0  0  0  0  0  0  0  0  0  0  0
    1.2998   -4.5407    3.4763 C   0  0  0  0  0  0  0  0  0  0  0  0
    1.6167   -4.7514    4.9705 C   0  0  2  0  0  0  0  0  0  0  0  0
    1.3195   -3.5011    5.9039 C   0  0  2  0  0  0  0  0  0  0  0  0
   -0.2290   -3.3222    5.8698 C   0  0  0  0  0  0  0  0  0  0  0  0
    2.0001   -2.2221    5.3381 C   0  0  0  0  0  0  0  0  0  0  0  0
    1.9452   -0.9679    6.2241 C   0  0  1  0  0  0  0  0  0  0  0  0
    0.6648   -0.2387    6.0792 C   0  0  0  0  0  0  0  0  0  0  0  0
   -0.3573    0.4213    5.9820 C   0  0  0  0  0  0  0  0  0  0  0  0
   -1.5326    1.3033    5.9275 C   0  0  2  0  0  0  0  0  0  0  0  0
   -1.5678    2.2832    4.7114 C   0  0  0  0  0  0  0  0  0  0  0  0
   -1.6921    3.6667    5.3869 C   0  0  2  0  0  0  0  0  0  0  0  0
   -0.4097    3.9423    6.1412 C   0  0  0  0  0  0  0  0  0  0  0  0
   -0.3849    3.1246    7.1922 C   0  0  0  0  0  0  0  0  0  0  0  0
   -1.6390    2.2721    7.1370 C   0  0  1  0  0  0  0  0  0  0  0  0
   -2.6090    3.3041    6.5609 C   0  0  0  0  0  0  0  0  0  0  0  0
    2.4015   -1.2647    7.6735 C   0  0  1  0  0  0  0  0  0  0  0  0
    2.3679   -0.0562    8.4158 O   0  0  0  0  0  0  0  0  0  0  0  0
    1.6885   -2.4866    8.3634 C   0  0  1  0  0  0  0  0  0  0  0  0
    2.4418   -2.7438    9.7002 C   0  0  0  0  0  0  0  0  0  0  0  0
    0.2302   -2.1886    8.8357 C   0  0  0  0  0  0  0  0  0  0  0  0
   -0.5803   -3.1451    8.9224 O   0  0  0  0  0  0  0  0  0  0  0  0
   -0.0838   -1.0188    9.1313 O   0  0  0  0  0  0  0  0  0  0  0  0
    1.7658   -3.7518    7.3988 C   0  0  2  0  0  0  0  0  0  0  0  0
    3.1507   -4.4359    7.4488 C   0  0  0  0  0  0  0  0  0  0  0  0
    3.2237   -5.7288    6.6257 C   0  0  0  0  0  0  0  0  0  0  0  0
    2.9412   -5.5886    5.1089 C   0  0  2  0  0  0  0  0  0  0  0  0
    2.5397   -7.0432    4.6951 C   0  0  0  0  0  0  0  0  0  0  0  0
    4.8931   -3.8165    2.0134 C   0  0  2  0  0  0  0  0  0  0  0  0
    4.5287   -2.7362    0.9318 C   0  0  1  0  0  0  0  0  0  0  0  0
    4.0282   -1.4334    1.6031 C   0  0  0  0  0  0  0  0  0  0  0  0
    4.5389   -1.8866   -1.7576 H   0  0  0  0  0  0  0  0  0  0  0  0
    6.2032   -1.3331   -1.8330 H   0  0  0  0  0  0  0  0  0  0  0  0
    5.0485   -0.4807   -0.8204 H   0  0  0  0  0  0  0  0  0  0  0  0
    6.4903   -1.8822    0.5985 H   0  0  0  0  0  0  0  0  0  0  0  0
    5.7248   -4.1588   -1.2571 H   0  0  0  0  0  0  0  0  0  0  0  0
    7.2827   -3.3970   -1.1223 H   0  0  0  0  0  0  0  0  0  0  0  0
    7.3083   -5.4981    0.1437 H   0  0  0  0  0  0  0  0  0  0  0  0
    7.5391   -4.1213    1.1924 H   0  0  0  0  0  0  0  0  0  0  0  0
    3.8129   -6.3379    1.1531 H   0  0  0  0  0  0  0  0  0  0  0  0
    5.1649   -6.7773    0.1152 H   0  0  0  0  0  0  0  0  0  0  0  0
    4.1848   -5.3589   -0.2431 H   0  0  0  0  0  0  0  0  0  0  0  0
    6.5838   -6.8387    2.2257 H   0  0  0  0  0  0  0  0  0  0  0  0
    6.9715   -5.3983    3.0930 H   0  0  0  0  0  0  0  0  0  0  0  0
    4.4518   -7.0175    3.1576 H   0  0  0  0  0  0  0  0  0  0  0  0
    5.5355   -6.8111    4.4930 H   0  0  0  0  0  0  0  0  0  0  0  0
    5.5404   -4.7579    5.9523 H   0  0  0  0  0  0  0  0  0  0  0  0
    4.8507   -3.2604    5.3174 H   0  0  0  0  0  0  0  0  0  0  0  0
    6.1460   -4.0501    4.5262 H   0  0  0  0  0  0  0  0  0  0  0  0
    2.1834   -3.6161    1.7298 H   0  0  0  0  0  0  0  0  0  0  0  0
    0.5266   -3.7989    3.3118 H   0  0  0  0  0  0  0  0  0  0  0  0
    0.9285   -5.4677    3.0391 H   0  0  0  0  0  0  0  0  0  0  0  0
    0.8294   -5.4326    5.2965 H   0  0  0  0  0  0  0  0  0  0  0  0
   -0.5911   -2.4605    6.4137 H   0  0  0  0  0  0  0  0  0  0  0  0
   -0.7429   -4.1810    6.3048 H   0  0  0  0  0  0  0  0  0  0  0  0
   -0.6190   -3.1723    4.8672 H   0  0  0  0  0  0  0  0  0  0  0  0
    3.0398   -2.4289    5.1379 H   0  0  0  0  0  0  0  0  0  0  0  0
    1.5770   -1.9667    4.3646 H   0  0  0  0  0  0  0  0  0  0  0  0
    2.6713   -0.2643    5.8121 H   0  0  0  0  0  0  0  0  0  0  0  0
   -2.4076    0.6525    5.8977 H   0  0  0  0  0  0  0  0  0  0  0  0
   -0.6957    2.2287    4.0596 H   0  0  0  0  0  0  0  0  0  0  0  0
   -2.4396    2.0787    4.0910 H   0  0  0  0  0  0  0  0  0  0  0  0
   -2.0316    4.4812    4.7491 H   0  0  0  0  0  0  0  0  0  0  0  0
    0.3625    4.6274    5.8242 H   0  0  0  0  0  0  0  0  0  0  0  0
    0.4045    3.0100    7.9230 H   0  0  0  0  0  0  0  0  0  0  0  0
   -1.9404    1.8334    8.0875 H   0  0  0  0  0  0  0  0  0  0  0  0
   -2.7828    4.1367    7.2437 H   0  0  0  0  0  0  0  0  0  0  0  0
   -3.5752    2.9046    6.2540 H   0  0  0  0  0  0  0  0  0  0  0  0
    3.4635   -1.5195    7.6133 H   0  0  0  0  0  0  0  0  0  0  0  0
    1.4498    0.0902    8.6519 H   0  0  0  0  0  0  0  0  0  0  0  0
    3.5272   -2.7913    9.5542 H   0  0  0  0  0  0  0  0  0  0  0  0
    2.1191   -3.6758   10.1809 H   0  0  0  0  0  0  0  0  0  0  0  0
    2.2746   -1.9303   10.4146 H   0  0  0  0  0  0  0  0  0  0  0  0
    1.1029   -4.5204    7.7992 H   0  0  0  0  0  0  0  0  0  0  0  0
    3.9364   -3.7299    7.1965 H   0  0  0  0  0  0  0  0  0  0  0  0
    3.3756   -4.7519    8.4651 H   0  0  0  0  0  0  0  0  0  0  0  0
    4.1786   -6.2236    6.7883 H   0  0  0  0  0  0  0  0  0  0  0  0
    2.4850   -6.4066    7.0665 H   0  0  0  0  0  0  0  0  0  0  0  0
    1.6542   -7.4007    5.2225 H   0  0  0  0  0  0  0  0  0  0  0  0
    3.3199   -7.7667    4.9387 H   0  0  0  0  0  0  0  0  0  0  0  0
    2.3179   -7.1307    3.6310 H   0  0  0  0  0  0  0  0  0  0  0  0
    5.6250   -3.3044    2.6283 H   0  0  0  0  0  0  0  0  0  0  0  0
    3.7313   -3.1263    0.2959 H   0  0  0  0  0  0  0  0  0  0  0  0
    4.8406   -0.9193    2.1213 H   0  0  0  0  0  0  0  0  0  0  0  0
    3.2413   -1.6010    2.3376 H   0  0  0  0  0  0  0  0  0  0  0  0
    3.6139   -0.7412    0.8701 H   0  0  0  0  0  0  0  0  0  0  0  0
  1  2  1  0
  1 43  1  0
  1 44  1  0
  1 45  1  0
  2 41  1  0
  2  3  1  0
  2 46  1  1
  3  4  1  0
  3 47  1  0
  3 48  1  0
  4  5  1  0
  4 49  1  0
  4 50  1  0
  5 40  1  0
  5  6  1  6
  5  7  1  0
  6 51  1  0
  6 52  1  0
  6 53  1  0
  7  8  1  0
  7 54  1  0
  7 55  1  0
  8  9  1  0
  8 56  1  0
  8 57  1  0
  9 38  1  0
  9 10  1  1
  9 11  1  0
 10 58  1  0
 10 59  1  0
 10 60  1  0
 11 12  2  0
 11 40  1  0
 12 13  1  0
 12 61  1  0
 13 14  1  0
 13 62  1  0
 13 63  1  0
 14 38  1  0
 14 15  1  0
 14 64  1  1
 15 35  1  0
 15 16  1  1
 15 17  1  0
 16 65  1  0
 16 66  1  0
 16 67  1  0
 17 18  1  0
 17 68  1  0
 17 69  1  0
 18 19  1  0
 18 28  1  0
 18 70  1  6
 19 20  3  0
 20 21  1  0
 21 26  1  0
 21 22  1  0
 21 71  1  6
 22 23  1  0
 22 72  1  0
 22 73  1  0
 23 27  1  0
 23 24  1  0
 23 74  1  6
 24 25  2  0
 24 75  1  0
 25 26  1  0
 25 76  1  0
 26 27  1  0
 26 77  1  1
 27 78  1  0
 27 79  1  0
 28 29  1  0
 28 30  1  0
 28 80  1  6
 29 81  1  0
 30 31  1  1
 30 32  1  0
 30 35  1  0
 31 82  1  0
 31 83  1  0
 31 84  1  0
 32 33  2  0
 32 34  1  0
 35 36  1  0
 35 85  1  1
 36 37  1  0
 36 86  1  0
 36 87  1  0
 37 38  1  0
 37 88  1  0
 37 89  1  0
 38 39  1  6
 39 90  1  0
 39 91  1  0
 39 92  1  0
 40 41  1  0
 40 93  1  1
 41 42  1  0
 41 94  1  6
 42 95  1  0
 42 96  1  0
 42 97  1  0
M  CHG  1  34  -1
M  END
>  <i_m_ct_stereo_status>  (52) 
1

>  <s_m_source_file>  (52) 
/var/tmp/pbs.5076255.sched01/tmpcm5es6vs/0d3z1so5d.sdf

>  <i_m_source_file_index>  (52) 
23

>  <i_lp_mmshare_version>  (52) 
48012

>  <i_f3d_flags>  (52) 
0

>  <s_epik_input>  (52) 
W0NIMl0xW0NIMl1bQ0BASF0oW0NIM10pW0NASF0oW0NIM10pW0NASF0oW0NAQF0xMltDSDNdKUM9M1tDQF0oW0NIM10pKFtDSDJdW0NIMl0yKVtDQF00KFtDSDNdKVtDQEhdKFtDSDJdW0NIXTMpW0NAQF01KFtDSDNdKVtDQEBIXShbQ0gyXVtDSDJdNClbQ0BdKFtDSDNdKShDKD1PKVtPSF0pW0NASF0oW09IXSlbQ0BASF0oW0NIMl01KUMjQ1tDQEhdKFtDSDJdW0NASF02NylbQ0BIXShbQ0gyXTcpW0NIXT1bQ0hdNg==

>  <s_epik_cmdline>  (52) 
J2VwaWtfcHl0aG9uJywgJy1waHQnLCAnMi4wJywgJy1waCcsICc3LjAnLCAnLXRuJywgJzgnLCAnLW1hJywgJzIwMCcsICctaW1hZScsICc8aW5maWxlLm1hZT4nLCAnLW9tYWUnLCAnPG91dGZpbGUubWFlPic=

>  <r_epik_Ionization_Penalty>  (52) 
0.00306189

>  <r_epik_Ionization_Penalty_Charging>  (52) 
0.00306183

>  <r_epik_Ionization_Penalty_Neutral>  (52) 
5.57483e-08

>  <r_epik_State_Penalty>  (52) 
0.00215277

>  <r_epik_Charging_Adjusted_Penalty>  (52) 
0.00521461

>  <i_epik_Tot_Q>  (52) 
-1

>  <i_epik_Tot_abs_Q>  (52) 
1

>  <s_lp_Force_Field>  (52) 
OPLS3e

>  <r_lp_Energy>  (52) 
128.749

>  <b_lp_Chiralities_Consistent>  (52) 
1

>  <s_lp_Variant>  (52) 
19:0-1

>  <s_i_glide_gridfile>  (52) 
pfpi4k_grid

>  <i_i_glide_lignum>  (52) 
23

>  <i_i_glide_rotatable_bonds>  (52) 
4

>  <r_i_docking_score>  (52) 
-3.3401

>  <r_i_glide_ligand_efficiency>  (52) 
-0.0795263

>  <r_i_glide_ligand_efficiency_sa>  (52) 
-0.276435

>  <r_i_glide_ligand_efficiency_ln>  (52) 
-0.70501

>  <r_i_glide_gscore>  (52) 
-3.3401

>  <r_i_glide_lipo>  (52) 
-0.566232

>  <r_i_glide_hbond>  (52) 
-0.327765

>  <r_i_glide_metal>  (52) 
-0

>  <r_i_glide_rewards>  (52) 
-0.5

>  <r_i_glide_evdw>  (52) 
-28.6069

>  <r_i_glide_ecoul>  (52) 
-3.26315

>  <r_i_glide_erotb>  (52) 
0.0358991

>  <r_i_glide_esite>  (52) 
-0.0621876

>  <r_i_glide_emodel>  (52) 
-43.5798

>  <r_i_glide_energy>  (52) 
-31.87

>  <r_i_glide_einternal>  (52) 
4.12285

>  <r_i_glide_intrahb_reward>  (52) 
-0.5

>  <i_i_glide_confnum>  (52) 
1

>  <i_i_glide_posenum>  (52) 
25

>  <r_i_glide_eff_state_penalty>  (52) 
0

>  <ligand_id>  (52) 
19

>  <original_smiles>  (52) 
CC1CCC2(C)CCC3(C)C(=CCC4C5(C)CC(C#CC6CC7C=CC6C7)C(O)C(C)(C(=O)O)C5CCC43C)C2C1C

>  <smiles>  (52) 
[H]OC1([H])C([H])(C#CC2([H])C([H])([H])C3([H])C([H])=C([H])C2([H])C3([H])[H])C([H])([H])C2(C([H])([H])[H])C([H])(C([H])([H])C([H])([H])C3(C([H])([H])[H])C2([H])C([H])([H])C([H])=C2C4([H])C([H])(C([H])([H])[H])C([H])(C([H])([H])[H])C([H])([H])C([H])([H])C4(C([H])([H])[H])C([H])([H])C([H])([H])C23C([H])([H])[H])C1(C(=O)[O-])C([H])([H])[H]

$$$$
19:0:1
     RDKit          3D

 97103  0  0  1  0  0  0  0  0999 V2000
    5.2310   -1.3147   -1.0919 C   0  0  0  0  0  0  0  0  0  0  0  0
    5.6488   -2.2668    0.0470 C   0  0  2  0  0  0  0  0  0  0  0  0
    6.3394   -3.5011   -0.5521 C   0  0  0  0  0  0  0  0  0  0  0  0
    6.7820   -4.4774    0.5426 C   0  0  0  0  0  0  0  0  0  0  0  0
    5.6002   -4.9758    1.4014 C   0  0  1  0  0  0  0  0  0  0  0  0
    4.6519   -5.8389    0.5256 C   0  0  0  0  0  0  0  0  0  0  0  0
    6.1762   -5.8380    2.5529 C   0  0  0  0  0  0  0  0  0  0  0  0
    5.1203   -6.2619    3.6036 C   0  0  0  0  0  0  0  0  0  0  0  0
    4.2332   -5.1062    4.1961 C   0  0  1  0  0  0  0  0  0  0  0  0
    5.2288   -4.2573    5.0461 C   0  0  0  0  0  0  0  0  0  0  0  0
    3.7567   -4.2787    2.9740 C   0  0  0  0  0  0  0  0  0  0  0  0
    2.4514   -4.1218    2.6801 C   0  0  0  0  0  0  0  0  0  0  0  0
    1.2994   -4.6222    3.5007 C   0  0  0  0  0  0  0  0  0  0  0  0
    1.6389   -4.8623    4.9848 C   0  0  2  0  0  0  0  0  0  0  0  0
    1.3180   -3.6416    5.9538 C   0  0  2  0  0  0  0  0  0  0  0  0
   -0.2355   -3.5049    5.9414 C   0  0  0  0  0  0  0  0  0  0  0  0
    1.9549   -2.3307    5.4189 C   0  0  0  0  0  0  0  0  0  0  0  0
    1.8857   -1.0977    6.3424 C   0  0  1  0  0  0  0  0  0  0  0  0
    0.5966   -0.3873    6.2348 C   0  0  0  0  0  0  0  0  0  0  0  0
   -0.4353    0.2573    6.1521 C   0  0  0  0  0  0  0  0  0  0  0  0
   -1.6059    1.1537    6.0895 C   0  0  2  0  0  0  0  0  0  0  0  0
   -1.6820    2.0313    4.8020 C   0  0  0  0  0  0  0  0  0  0  0  0
   -1.7474    3.4690    5.3706 C   0  0  2  0  0  0  0  0  0  0  0  0
   -0.4242    3.7802    6.0366 C   0  0  0  0  0  0  0  0  0  0  0  0
   -0.3595    3.0443    7.1482 C   0  0  0  0  0  0  0  0  0  0  0  0
   -1.6321    2.2191    7.2209 C   0  0  1  0  0  0  0  0  0  0  0  0
   -2.6118    3.2250    6.6133 C   0  0  0  0  0  0  0  0  0  0  0  0
    2.3700   -1.4279    7.7784 C   0  0  1  0  0  0  0  0  0  0  0  0
    2.3433   -0.2564    8.5835 O   0  0  0  0  0  0  0  0  0  0  0  0
    1.6856   -2.6864    8.4441 C   0  0  1  0  0  0  0  0  0  0  0  0
    2.4630   -2.9578    9.7625 C   0  0  0  0  0  0  0  0  0  0  0  0
    0.2163   -2.4720    8.9400 C   0  0  0  0  0  0  0  0  0  0  0  0
   -0.1815   -1.3336    9.2700 O   0  0  0  0  0  0  0  0  0  0  0  0
   -0.5587   -3.4591    8.9740 O   0  0  0  0  0  0  0  0  0  0  0  0
    1.7934   -3.9204    7.4358 C   0  0  2  0  0  0  0  0  0  0  0  0
    3.1955   -4.5687    7.4582 C   0  0  0  0  0  0  0  0  0  0  0  0
    3.2906   -5.8407    6.6025 C   0  0  0  0  0  0  0  0  0  0  0  0
    2.9903   -5.6677    5.0907 C   0  0  2  0  0  0  0  0  0  0  0  0
    2.6231   -7.1213    4.6411 C   0  0  0  0  0  0  0  0  0  0  0  0
    4.8650   -3.7589    2.0267 C   0  0  2  0  0  0  0  0  0  0  0  0
    4.4606   -2.6579    0.9794 C   0  0  1  0  0  0  0  0  0  0  0  0
    3.9328   -1.3864    1.6909 C   0  0  0  0  0  0  0  0  0  0  0  0
    4.4225   -1.7324   -1.6933 H   0  0  0  0  0  0  0  0  0  0  0  0
    6.0647   -1.1239   -1.7652 H   0  0  0  0  0  0  0  0  0  0  0  0
    4.9029   -0.3432   -0.7150 H   0  0  0  0  0  0  0  0  0  0  0  0
    6.3981   -1.7451    0.6439 H   0  0  0  0  0  0  0  0  0  0  0  0
    5.6794   -3.9966   -1.2662 H   0  0  0  0  0  0  0  0  0  0  0  0
    7.2125   -3.1930   -1.1292 H   0  0  0  0  0  0  0  0  0  0  0  0
    7.3110   -5.3195    0.0937 H   0  0  0  0  0  0  0  0  0  0  0  0
    7.5090   -3.9640    1.1741 H   0  0  0  0  0  0  0  0  0  0  0  0
    3.8430   -6.2826    1.1031 H   0  0  0  0  0  0  0  0  0  0  0  0
    5.1916   -6.6570    0.0496 H   0  0  0  0  0  0  0  0  0  0  0  0
    4.1756   -5.2593   -0.2656 H   0  0  0  0  0  0  0  0  0  0  0  0
    6.6464   -6.7337    2.1419 H   0  0  0  0  0  0  0  0  0  0  0  0
    6.9908   -5.3075    3.0444 H   0  0  0  0  0  0  0  0  0  0  0  0
    4.5193   -7.0006    3.0823 H   0  0  0  0  0  0  0  0  0  0  0  0
    5.6102   -6.8064    4.4123 H   0  0  0  0  0  0  0  0  0  0  0  0
    5.5776   -4.7837    5.9327 H   0  0  0  0  0  0  0  0  0  0  0  0
    4.8399   -3.2923    5.3446 H   0  0  0  0  0  0  0  0  0  0  0  0
    6.1467   -4.0193    4.5225 H   0  0  0  0  0  0  0  0  0  0  0  0
    2.1487   -3.6253    1.7716 H   0  0  0  0  0  0  0  0  0  0  0  0
    0.5043   -3.9026    3.3619 H   0  0  0  0  0  0  0  0  0  0  0  0
    0.9420   -5.5421    3.0417 H   0  0  0  0  0  0  0  0  0  0  0  0
    0.8760   -5.5727    5.3060 H   0  0  0  0  0  0  0  0  0  0  0  0
   -0.6178   -2.6617    6.5009 H   0  0  0  0  0  0  0  0  0  0  0  0
   -0.7229   -4.3859    6.3621 H   0  0  0  0  0  0  0  0  0  0  0  0
   -0.6400   -3.3469    4.9482 H   0  0  0  0  0  0  0  0  0  0  0  0
    2.9977   -2.5084    5.2085 H   0  0  0  0  0  0  0  0  0  0  0  0
    1.5216   -2.0658    4.4548 H   0  0  0  0  0  0  0  0  0  0  0  0
    2.5918   -0.3713    5.9334 H   0  0  0  0  0  0  0  0  0  0  0  0
   -2.4932    0.5230    6.1547 H   0  0  0  0  0  0  0  0  0  0  0  0
   -0.8347    1.9055    4.1250 H   0  0  0  0  0  0  0  0  0  0  0  0
   -2.5824    1.7973    4.2296 H   0  0  0  0  0  0  0  0  0  0  0  0
   -2.1045    4.2360    4.6834 H   0  0  0  0  0  0  0  0  0  0  0  0
    0.3437    4.4147    5.6198 H   0  0  0  0  0  0  0  0  0  0  0  0
    0.4648    2.9622    7.8414 H   0  0  0  0  0  0  0  0  0  0  0  0
   -1.8909    1.8670    8.2212 H   0  0  0  0  0  0  0  0  0  0  0  0
   -2.7353    4.1194    7.2288 H   0  0  0  0  0  0  0  0  0  0  0  0
   -3.5990    2.8177    6.3943 H   0  0  0  0  0  0  0  0  0  0  0  0
    3.4348   -1.6593    7.6899 H   0  0  0  0  0  0  0  0  0  0  0  0
    2.8690    0.4154    8.1730 H   0  0  0  0  0  0  0  0  0  0  0  0
    3.5417   -2.9754    9.6091 H   0  0  0  0  0  0  0  0  0  0  0  0
    2.1700   -3.9048   10.2203 H   0  0  0  0  0  0  0  0  0  0  0  0
    2.2823   -2.1740   10.5007 H   0  0  0  0  0  0  0  0  0  0  0  0
    1.1565   -4.7182    7.8203 H   0  0  0  0  0  0  0  0  0  0  0  0
    3.9591   -3.8374    7.2178 H   0  0  0  0  0  0  0  0  0  0  0  0
    3.4343   -4.9064    8.4648 H   0  0  0  0  0  0  0  0  0  0  0  0
    4.2587   -6.3208    6.7422 H   0  0  0  0  0  0  0  0  0  0  0  0
    2.5765   -6.5455    7.0327 H   0  0  0  0  0  0  0  0  0  0  0  0
    1.7524   -7.5173    5.1665 H   0  0  0  0  0  0  0  0  0  0  0  0
    3.4217   -7.8322    4.8545 H   0  0  0  0  0  0  0  0  0  0  0  0
    2.3935   -7.1867    3.5770 H   0  0  0  0  0  0  0  0  0  0  0  0
    5.5886   -3.2409    2.6521 H   0  0  0  0  0  0  0  0  0  0  0  0
    3.6678   -3.0502    0.3416 H   0  0  0  0  0  0  0  0  0  0  0  0
    4.7309   -0.8625    2.2181 H   0  0  0  0  0  0  0  0  0  0  0  0
    3.1578   -1.5965    2.4267 H   0  0  0  0  0  0  0  0  0  0  0  0
    3.4936   -0.6839    0.9828 H   0  0  0  0  0  0  0  0  0  0  0  0
  1  2  1  0
  1 43  1  0
  1 44  1  0
  1 45  1  0
  2 41  1  0
  2  3  1  0
  2 46  1  1
  3  4  1  0
  3 47  1  0
  3 48  1  0
  4  5  1  0
  4 49  1  0
  4 50  1  0
  5 40  1  0
  5  6  1  6
  5  7  1  0
  6 51  1  0
  6 52  1  0
  6 53  1  0
  7  8  1  0
  7 54  1  0
  7 55  1  0
  8  9  1  0
  8 56  1  0
  8 57  1  0
  9 38  1  0
  9 10  1  1
  9 11  1  0
 10 58  1  0
 10 59  1  0
 10 60  1  0
 11 12  2  0
 11 40  1  0
 12 13  1  0
 12 61  1  0
 13 14  1  0
 13 62  1  0
 13 63  1  0
 14 38  1  0
 14 15  1  0
 14 64  1  1
 15 35  1  0
 15 16  1  1
 15 17  1  0
 16 65  1  0
 16 66  1  0
 16 67  1  0
 17 18  1  0
 17 68  1  0
 17 69  1  0
 18 19  1  0
 18 28  1  0
 18 70  1  6
 19 20  3  0
 20 21  1  0
 21 26  1  0
 21 22  1  0
 21 71  1  1
 22 23  1  0
 22 72  1  0
 22 73  1  0
 23 27  1  0
 23 24  1  0
 23 74  1  6
 24 25  2  0
 24 75  1  0
 25 26  1  0
 25 76  1  0
 26 27  1  0
 26 77  1  1
 27 78  1  0
 27 79  1  0
 28 29  1  0
 28 30  1  0
 28 80  1  6
 29 81  1  0
 30 31  1  1
 30 32  1  0
 30 35  1  0
 31 82  1  0
 31 83  1  0
 31 84  1  0
 32 33  2  0
 32 34  1  0
 35 36  1  0
 35 85  1  1
 36 37  1  0
 36 86  1  0
 36 87  1  0
 37 38  1  0
 37 88  1  0
 37 89  1  0
 38 39  1  6
 39 90  1  0
 39 91  1  0
 39 92  1  0
 40 41  1  0
 40 93  1  1
 41 42  1  0
 41 94  1  6
 42 95  1  0
 42 96  1  0
 42 97  1  0
M  CHG  1  34  -1
M  END
>  <i_m_ct_stereo_status>  (53) 
1

>  <s_m_source_file>  (53) 
/var/tmp/pbs.5076255.sched01/tmpcm5es6vs/0d3z1so5d.sdf

>  <i_m_source_file_index>  (53) 
23

>  <i_lp_mmshare_version>  (53) 
48012

>  <i_f3d_flags>  (53) 
0

>  <s_epik_input>  (53) 
W0NIMl0xW0NIMl1bQ0BASF0oW0NIM10pW0NASF0oW0NIM10pW0NASF0oW0NAQF0xMltDSDNdKUM9M1tDQF0oW0NIM10pKFtDSDJdW0NIMl0yKVtDQF00KFtDSDNdKVtDQEhdKFtDSDJdW0NIXTMpW0NAQF01KFtDSDNdKVtDQEBIXShbQ0gyXVtDSDJdNClbQ0BdKFtDSDNdKShDKD1PKVtPSF0pW0NASF0oW09IXSlbQ0BASF0oW0NIMl01KUMjQ1tDQEhdKFtDSDJdW0NASF02NylbQ0BIXShbQ0gyXTcpW0NIXT1bQ0hdNg==

>  <s_epik_cmdline>  (53) 
J2VwaWtfcHl0aG9uJywgJy1waHQnLCAnMi4wJywgJy1waCcsICc3LjAnLCAnLXRuJywgJzgnLCAnLW1hJywgJzIwMCcsICctaW1hZScsICc8aW5maWxlLm1hZT4nLCAnLW9tYWUnLCAnPG91dGZpbGUubWFlPic=

>  <r_epik_Ionization_Penalty>  (53) 
0.00306189

>  <r_epik_Ionization_Penalty_Charging>  (53) 
0.00306183

>  <r_epik_Ionization_Penalty_Neutral>  (53) 
5.57483e-08

>  <r_epik_State_Penalty>  (53) 
0.00215277

>  <r_epik_Charging_Adjusted_Penalty>  (53) 
0.00521461

>  <i_epik_Tot_Q>  (53) 
-1

>  <i_epik_Tot_abs_Q>  (53) 
1

>  <s_lp_Force_Field>  (53) 
OPLS3e

>  <r_lp_Energy>  (53) 
128.749

>  <b_lp_Chiralities_Consistent>  (53) 
1

>  <s_lp_Variant>  (53) 
19:0-1

>  <s_i_glide_gridfile>  (53) 
pfpi4k_grid

>  <i_i_glide_lignum>  (53) 
23

>  <i_i_glide_rotatable_bonds>  (53) 
4

>  <r_i_docking_score>  (53) 
-2.91284

>  <r_i_glide_ligand_efficiency>  (53) 
-0.0693533

>  <r_i_glide_ligand_efficiency_sa>  (53) 
-0.241074

>  <r_i_glide_ligand_efficiency_ln>  (53) 
-0.614825

>  <r_i_glide_gscore>  (53) 
-2.91284

>  <r_i_glide_lipo>  (53) 
-0.584922

>  <r_i_glide_hbond>  (53) 
-0.327426

>  <r_i_glide_metal>  (53) 
-0

>  <r_i_glide_rewards>  (53) 
0

>  <r_i_glide_evdw>  (53) 
-29.3581

>  <r_i_glide_ecoul>  (53) 
-3.4084

>  <r_i_glide_erotb>  (53) 
0.0358991

>  <r_i_glide_esite>  (53) 
-0.0572235

>  <r_i_glide_emodel>  (53) 
-38.1322

>  <r_i_glide_energy>  (53) 
-32.7665

>  <r_i_glide_einternal>  (53) 
4.58133

>  <r_i_glide_intrahb_reward>  (53) 
-0

>  <i_i_glide_confnum>  (53) 
2

>  <i_i_glide_posenum>  (53) 
38

>  <r_i_glide_eff_state_penalty>  (53) 
0

>  <ligand_id>  (53) 
19

>  <original_smiles>  (53) 
CC1CCC2(C)CCC3(C)C(=CCC4C5(C)CC(C#CC6CC7C=CC6C7)C(O)C(C)(C(=O)O)C5CCC43C)C2C1C

>  <smiles>  (53) 
[H]OC1([H])C([H])(C#CC2([H])C([H])([H])C3([H])C([H])=C([H])C2([H])C3([H])[H])C([H])([H])C2(C([H])([H])[H])C([H])(C([H])([H])C([H])([H])C3(C([H])([H])[H])C2([H])C([H])([H])C([H])=C2C4([H])C([H])(C([H])([H])[H])C([H])(C([H])([H])[H])C([H])([H])C([H])([H])C4(C([H])([H])[H])C([H])([H])C([H])([H])C23C([H])([H])[H])C1(C(=O)[O-])C([H])([H])[H]

$$$$
19:0:2
     RDKit          3D

 97103  0  0  1  0  0  0  0  0999 V2000
   -2.1644    3.0613    3.0655 C   0  0  0  0  0  0  0  0  0  0  0  0
   -1.1458    3.0374    4.2235 C   0  0  2  0  0  0  0  0  0  0  0  0
   -0.5384    4.4364    4.3951 C   0  0  0  0  0  0  0  0  0  0  0  0
    0.4649    4.4708    5.5521 C   0  0  0  0  0  0  0  0  0  0  0  0
    1.6333    3.4871    5.3437 C   0  0  1  0  0  0  0  0  0  0  0  0
    2.4786    3.9424    4.1253 C   0  0  0  0  0  0  0  0  0  0  0  0
    2.5047    3.4983    6.6273 C   0  0  0  0  0  0  0  0  0  0  0  0
    3.6161    2.4231    6.6315 C   0  0  0  0  0  0  0  0  0  0  0  0
    3.1584    0.9505    6.3140 C   0  0  1  0  0  0  0  0  0  0  0  0
    2.2884    0.5526    7.5466 C   0  0  0  0  0  0  0  0  0  0  0  0
    2.2543    1.0601    5.0548 C   0  0  0  0  0  0  0  0  0  0  0  0
    2.5512    0.4207    3.9009 C   0  0  0  0  0  0  0  0  0  0  0  0
    3.6973   -0.5231    3.6818 C   0  0  0  0  0  0  0  0  0  0  0  0
    4.2314   -1.1677    4.9813 C   0  0  2  0  0  0  0  0  0  0  0  0
    3.6131   -2.5890    5.3284 C   0  0  2  0  0  0  0  0  0  0  0  0
    4.1168   -3.5520    4.2006 C   0  0  0  0  0  0  0  0  0  0  0  0
    2.0556   -2.5307    5.3132 C   0  0  0  0  0  0  0  0  0  0  0  0
    1.3037   -3.7771    5.7951 C   0  0  1  0  0  0  0  0  0  0  0  0
    1.1244   -4.7790    4.7109 C   0  0  0  0  0  0  0  0  0  0  0  0
    0.9927   -5.6336    3.8588 C   0  0  0  0  0  0  0  0  0  0  0  0
    0.8621   -6.7746    2.9304 C   0  0  2  0  0  0  0  0  0  0  0  0
   -0.5706   -7.4070    2.8837 C   0  0  0  0  0  0  0  0  0  0  0  0
   -0.3017   -8.8919    3.2125 C   0  0  2  0  0  0  0  0  0  0  0  0
    0.1607   -8.9814    4.6490 C   0  0  0  0  0  0  0  0  0  0  0  0
    1.4005   -8.4998    4.6981 C   0  0  0  0  0  0  0  0  0  0  0  0
    1.7552   -8.0018    3.3040 C   0  0  1  0  0  0  0  0  0  0  0  0
    1.0458   -9.0841    2.4909 C   0  0  0  0  0  0  0  0  0  0  0  0
    1.8550   -4.2839    7.1610 C   0  0  1  0  0  0  0  0  0  0  0  0
    1.1161   -5.4199    7.5708 O   0  0  0  0  0  0  0  0  0  0  0  0
    3.4190   -4.4322    7.2669 C   0  0  1  0  0  0  0  0  0  0  0  0
    3.7497   -4.7242    8.7550 C   0  0  0  0  0  0  0  0  0  0  0  0
    4.0151   -5.6780    6.5728 C   0  0  0  0  0  0  0  0  0  0  0  0
    5.2590   -5.7340    6.4222 O   0  0  0  0  0  0  0  0  0  0  0  0
    3.2266   -6.5984    6.2348 O   0  0  0  0  0  0  0  0  0  0  0  0
    4.1271   -3.1218    6.7278 C   0  0  2  0  0  0  0  0  0  0  0  0
    4.1342   -2.0164    7.7933 C   0  0  0  0  0  0  0  0  0  0  0  0
    4.9176   -0.7697    7.3708 C   0  0  0  0  0  0  0  0  0  0  0  0
    4.4182   -0.0602    6.0893 C   0  0  2  0  0  0  0  0  0  0  0  0
    5.6761    0.7474    5.6353 C   0  0  0  0  0  0  0  0  0  0  0  0
    1.0698    2.0465    5.1517 C   0  0  2  0  0  0  0  0  0  0  0  0
   -0.0453    1.9477    4.0509 C   0  0  1  0  0  0  0  0  0  0  0  0
   -0.7072    0.5464    4.0626 C   0  0  0  0  0  0  0  0  0  0  0  0
   -1.6690    3.2051    2.0958 H   0  0  0  0  0  0  0  0  0  0  0  0
   -2.8839    3.8768    3.1907 H   0  0  0  0  0  0  0  0  0  0  0  0
   -2.7427    2.1449    3.0140 H   0  0  0  0  0  0  0  0  0  0  0  0
   -1.7062    2.8191    5.1390 H   0  0  0  0  0  0  0  0  0  0  0  0
   -0.0779    4.7687    3.4667 H   0  0  0  0  0  0  0  0  0  0  0  0
   -1.3328    5.1467    4.6081 H   0  0  0  0  0  0  0  0  0  0  0  0
    0.8393    5.4900    5.6850 H   0  0  0  0  0  0  0  0  0  0  0  0
   -0.0711    4.2244    6.4680 H   0  0  0  0  0  0  0  0  0  0  0  0
    3.3681    3.3258    3.9809 H   0  0  0  0  0  0  0  0  0  0  0  0
    2.8193    4.9763    4.2463 H   0  0  0  0  0  0  0  0  0  0  0  0
    1.9233    3.8918    3.1922 H   0  0  0  0  0  0  0  0  0  0  0  0
    2.9586    4.4800    6.7462 H   0  0  0  0  0  0  0  0  0  0  0  0
    1.8705    3.3794    7.5041 H   0  0  0  0  0  0  0  0  0  0  0  0
    4.3297    2.7869    5.8985 H   0  0  0  0  0  0  0  0  0  0  0  0
    4.1417    2.4504    7.5860 H   0  0  0  0  0  0  0  0  0  0  0  0
    2.8835    0.4400    8.4565 H   0  0  0  0  0  0  0  0  0  0  0  0
    1.7128   -0.3504    7.4024 H   0  0  0  0  0  0  0  0  0  0  0  0
    1.5503    1.2954    7.8232 H   0  0  0  0  0  0  0  0  0  0  0  0
    1.9641    0.5932    3.0127 H   0  0  0  0  0  0  0  0  0  0  0  0
    3.3626   -1.2526    2.9503 H   0  0  0  0  0  0  0  0  0  0  0  0
    4.4879    0.0370    3.1895 H   0  0  0  0  0  0  0  0  0  0  0  0
    5.2465   -1.4580    4.7173 H   0  0  0  0  0  0  0  0  0  0  0  0
    3.7228   -4.5613    4.2669 H   0  0  0  0  0  0  0  0  0  0  0  0
    5.2050   -3.6617    4.2247 H   0  0  0  0  0  0  0  0  0  0  0  0
    3.8554   -3.2336    3.1967 H   0  0  0  0  0  0  0  0  0  0  0  0
    1.7290   -1.7082    5.9252 H   0  0  0  0  0  0  0  0  0  0  0  0
    1.7026   -2.2851    4.3087 H   0  0  0  0  0  0  0  0  0  0  0  0
    0.2714   -3.4766    5.9807 H   0  0  0  0  0  0  0  0  0  0  0  0
    1.1329   -6.4085    1.9364 H   0  0  0  0  0  0  0  0  0  0  0  0
   -1.2703   -6.9619    3.5944 H   0  0  0  0  0  0  0  0  0  0  0  0
   -0.9946   -7.3163    1.8837 H   0  0  0  0  0  0  0  0  0  0  0  0
   -1.0914   -9.6046    2.9671 H   0  0  0  0  0  0  0  0  0  0  0  0
   -0.4202   -9.3585    5.4763 H   0  0  0  0  0  0  0  0  0  0  0  0
    2.0342   -8.4554    5.5713 H   0  0  0  0  0  0  0  0  0  0  0  0
    2.8171   -7.8925    3.1017 H   0  0  0  0  0  0  0  0  0  0  0  0
    1.4769  -10.0731    2.6546 H   0  0  0  0  0  0  0  0  0  0  0  0
    1.0280   -8.8793    1.4161 H   0  0  0  0  0  0  0  0  0  0  0  0
    1.5776   -3.5183    7.8895 H   0  0  0  0  0  0  0  0  0  0  0  0
    1.4571   -6.1657    7.0635 H   0  0  0  0  0  0  0  0  0  0  0  0
    3.2794   -4.0052    9.4325 H   0  0  0  0  0  0  0  0  0  0  0  0
    4.8289   -4.7287    8.9444 H   0  0  0  0  0  0  0  0  0  0  0  0
    3.3746   -5.7108    9.0585 H   0  0  0  0  0  0  0  0  0  0  0  0
    5.1879   -3.3413    6.5915 H   0  0  0  0  0  0  0  0  0  0  0  0
    3.1180   -1.7954    8.1144 H   0  0  0  0  0  0  0  0  0  0  0  0
    4.6408   -2.3702    8.6922 H   0  0  0  0  0  0  0  0  0  0  0  0
    4.9884   -0.0731    8.2002 H   0  0  0  0  0  0  0  0  0  0  0  0
    5.9490   -1.1184    7.2136 H   0  0  0  0  0  0  0  0  0  0  0  0
    6.5290    0.1089    5.4065 H   0  0  0  0  0  0  0  0  0  0  0  0
    6.0362    1.4248    6.4139 H   0  0  0  0  0  0  0  0  0  0  0  0
    5.4813    1.3367    4.7417 H   0  0  0  0  0  0  0  0  0  0  0  0
    0.5316    1.8004    6.0575 H   0  0  0  0  0  0  0  0  0  0  0  0
    0.4078    2.1065    3.0697 H   0  0  0  0  0  0  0  0  0  0  0  0
   -1.3137    0.4036    4.9601 H   0  0  0  0  0  0  0  0  0  0  0  0
    0.0107   -0.2687    4.0356 H   0  0  0  0  0  0  0  0  0  0  0  0
   -1.3616    0.4086    3.2044 H   0  0  0  0  0  0  0  0  0  0  0  0
  1  2  1  0
  1 43  1  0
  1 44  1  0
  1 45  1  0
  2 41  1  0
  2  3  1  0
  2 46  1  1
  3  4  1  0
  3 47  1  0
  3 48  1  0
  4  5  1  0
  4 49  1  0
  4 50  1  0
  5 40  1  0
  5  6  1  6
  5  7  1  0
  6 51  1  0
  6 52  1  0
  6 53  1  0
  7  8  1  0
  7 54  1  0
  7 55  1  0
  8  9  1  0
  8 56  1  0
  8 57  1  0
  9 38  1  0
  9 10  1  1
  9 11  1  0
 10 58  1  0
 10 59  1  0
 10 60  1  0
 11 12  2  0
 11 40  1  0
 12 13  1  0
 12 61  1  0
 13 14  1  0
 13 62  1  0
 13 63  1  0
 14 38  1  0
 14 15  1  0
 14 64  1  6
 15 35  1  0
 15 16  1  6
 15 17  1  0
 16 65  1  0
 16 66  1  0
 16 67  1  0
 17 18  1  0
 17 68  1  0
 17 69  1  0
 18 19  1  0
 18 28  1  0
 18 70  1  1
 19 20  3  0
 20 21  1  0
 21 26  1  0
 21 22  1  0
 21 71  1  6
 22 23  1  0
 22 72  1  0
 22 73  1  0
 23 27  1  0
 23 24  1  0
 23 74  1  6
 24 25  2  0
 24 75  1  0
 25 26  1  0
 25 76  1  0
 26 27  1  0
 26 77  1  1
 27 78  1  0
 27 79  1  0
 28 29  1  0
 28 30  1  0
 28 80  1  1
 29 81  1  0
 30 31  1  1
 30 32  1  0
 30 35  1  0
 31 82  1  0
 31 83  1  0
 31 84  1  0
 32 33  2  0
 32 34  1  0
 35 36  1  0
 35 85  1  6
 36 37  1  0
 36 86  1  0
 36 87  1  0
 37 38  1  0
 37 88  1  0
 37 89  1  0
 38 39  1  6
 39 90  1  0
 39 91  1  0
 39 92  1  0
 40 41  1  0
 40 93  1  1
 41 42  1  0
 41 94  1  6
 42 95  1  0
 42 96  1  0
 42 97  1  0
M  CHG  1  34  -1
M  END
>  <i_m_ct_stereo_status>  (54) 
1

>  <s_m_source_file>  (54) 
/var/tmp/pbs.5076255.sched01/tmpcm5es6vs/0d3z1so5d.sdf

>  <i_m_source_file_index>  (54) 
23

>  <i_lp_mmshare_version>  (54) 
48012

>  <i_f3d_flags>  (54) 
0

>  <s_epik_input>  (54) 
W0NIMl0xW0NIMl1bQ0BASF0oW0NIM10pW0NASF0oW0NIM10pW0NASF0oW0NAQF0xMltDSDNdKUM9M1tDQF0oW0NIM10pKFtDSDJdW0NIMl0yKVtDQF00KFtDSDNdKVtDQEhdKFtDSDJdW0NIXTMpW0NAQF01KFtDSDNdKVtDQEBIXShbQ0gyXVtDSDJdNClbQ0BdKFtDSDNdKShDKD1PKVtPSF0pW0NASF0oW09IXSlbQ0BASF0oW0NIMl01KUMjQ1tDQEhdKFtDSDJdW0NASF02NylbQ0BIXShbQ0gyXTcpW0NIXT1bQ0hdNg==

>  <s_epik_cmdline>  (54) 
J2VwaWtfcHl0aG9uJywgJy1waHQnLCAnMi4wJywgJy1waCcsICc3LjAnLCAnLXRuJywgJzgnLCAnLW1hJywgJzIwMCcsICctaW1hZScsICc8aW5maWxlLm1hZT4nLCAnLW9tYWUnLCAnPG91dGZpbGUubWFlPic=

>  <r_epik_Ionization_Penalty>  (54) 
0.00306189

>  <r_epik_Ionization_Penalty_Charging>  (54) 
0.00306183

>  <r_epik_Ionization_Penalty_Neutral>  (54) 
5.57483e-08

>  <r_epik_State_Penalty>  (54) 
0.00215277

>  <r_epik_Charging_Adjusted_Penalty>  (54) 
0.00521461

>  <i_epik_Tot_Q>  (54) 
-1

>  <i_epik_Tot_abs_Q>  (54) 
1

>  <s_lp_Force_Field>  (54) 
OPLS3e

>  <r_lp_Energy>  (54) 
128.749

>  <b_lp_Chiralities_Consistent>  (54) 
1

>  <s_lp_Variant>  (54) 
19:0-1

>  <s_i_glide_gridfile>  (54) 
pfpi4k_grid

>  <i_i_glide_lignum>  (54) 
23

>  <i_i_glide_rotatable_bonds>  (54) 
4

>  <r_i_docking_score>  (54) 
-2.04536

>  <r_i_glide_ligand_efficiency>  (54) 
-0.0486991

>  <r_i_glide_ligand_efficiency_sa>  (54) 
-0.169279

>  <r_i_glide_ligand_efficiency_ln>  (54) 
-0.431723

>  <r_i_glide_gscore>  (54) 
-2.04536

>  <r_i_glide_lipo>  (54) 
-0.123091

>  <r_i_glide_hbond>  (54) 
0

>  <r_i_glide_metal>  (54) 
-0

>  <r_i_glide_rewards>  (54) 
-0.5

>  <r_i_glide_evdw>  (54) 
-29.8421

>  <r_i_glide_ecoul>  (54) 
0.226231

>  <r_i_glide_erotb>  (54) 
0.0358991

>  <r_i_glide_esite>  (54) 
0

>  <r_i_glide_emodel>  (54) 
-37.4785

>  <r_i_glide_energy>  (54) 
-29.6159

>  <r_i_glide_einternal>  (54) 
3.87808

>  <r_i_glide_intrahb_reward>  (54) 
-0.5

>  <i_i_glide_confnum>  (54) 
2

>  <i_i_glide_posenum>  (54) 
16

>  <r_i_glide_eff_state_penalty>  (54) 
0

>  <ligand_id>  (54) 
19

>  <original_smiles>  (54) 
CC1CCC2(C)CCC3(C)C(=CCC4C5(C)CC(C#CC6CC7C=CC6C7)C(O)C(C)(C(=O)O)C5CCC43C)C2C1C

>  <smiles>  (54) 
[H]OC1([H])C([H])(C#CC2([H])C([H])([H])C3([H])C([H])=C([H])C2([H])C3([H])[H])C([H])([H])C2(C([H])([H])[H])C([H])(C([H])([H])C([H])([H])C3(C([H])([H])[H])C2([H])C([H])([H])C([H])=C2C4([H])C([H])(C([H])([H])[H])C([H])(C([H])([H])[H])C([H])([H])C([H])([H])C4(C([H])([H])[H])C([H])([H])C([H])([H])C23C([H])([H])[H])C1(C(=O)[O-])C([H])([H])[H]

$$$$
20:0:0
     RDKit          3D

 33 37  0  0  1  0  0  0  0  0999 V2000
    6.8087   -3.6403    0.1961 O   0  0  0  0  0  0  0  0  0  0  0  0
    5.8060   -2.9936   -0.1046 C   0  0  0  0  0  0  0  0  0  0  0  0
    5.1223   -2.9216   -1.4127 C   0  0  0  0  0  0  0  0  0  0  0  0
    5.4320   -3.5501   -2.6232 C   0  0  0  0  0  0  0  0  0  0  0  0
    4.5935   -3.3228   -3.7321 C   0  0  0  0  0  0  0  0  0  0  0  0
    3.4752   -2.4620   -3.6267 C   0  0  0  0  0  0  0  0  0  0  0  0
    3.1719   -1.8316   -2.4026 C   0  0  0  0  0  0  0  0  0  0  0  0
    4.0131   -2.0805   -1.3052 C   0  0  0  0  0  0  0  0  0  0  0  0
    3.9798   -1.6053    0.0682 C   0  0  0  0  0  0  0  0  0  0  0  0
    3.0390   -0.7550    0.6252 N   0  0  0  0  0  0  0  0  0  0  0  0
    3.2756   -0.2534    1.9098 C   0  0  0  0  0  0  0  0  0  0  0  0
    2.6663    0.7303    2.5529 N   0  0  0  0  0  0  0  0  0  0  0  0
    3.3981    0.8318    3.7287 N   0  0  0  0  0  0  0  0  0  0  0  0
    4.3621   -0.0548    3.7777 N   0  0  0  0  0  0  0  0  0  0  0  0
    4.2894   -0.7616    2.6249 N   0  0  0  0  0  0  0  0  0  0  0  0
    5.1840   -1.8711    2.2630 C   0  0  1  0  0  0  0  0  0  0  0  0
    4.8833   -3.1050    3.1271 C   0  0  0  0  0  0  0  0  0  0  0  0
    4.2078   -4.2365    2.6074 C   0  0  0  0  0  0  0  0  0  0  0  0
    3.9910   -5.3473    3.4380 C   0  0  0  0  0  0  0  0  0  0  0  0
    4.3730   -5.3898    4.7277 N   0  0  0  0  0  0  0  0  0  0  0  0
    4.9982   -4.3094    5.2352 C   0  0  0  0  0  0  0  0  0  0  0  0
    5.2739   -3.1506    4.4833 C   0  0  0  0  0  0  0  0  0  0  0  0
    4.9936   -2.1278    0.7697 C   0  0  0  0  0  0  0  0  0  0  0  0
    6.2846   -4.2037   -2.7026 H   0  0  0  0  0  0  0  0  0  0  0  0
    4.8175   -3.8133   -4.6670 H   0  0  0  0  0  0  0  0  0  0  0  0
    2.8443   -2.2873   -4.4808 H   0  0  0  0  0  0  0  0  0  0  0  0
    2.3141   -1.1792   -2.3216 H   0  0  0  0  0  0  0  0  0  0  0  0
    6.2117   -1.5364    2.4247 H   0  0  0  0  0  0  0  0  0  0  0  0
    3.8702   -4.2992    1.5869 H   0  0  0  0  0  0  0  0  0  0  0  0
    3.4981   -6.2237    3.0455 H   0  0  0  0  0  0  0  0  0  0  0  0
    5.2920   -4.3814    6.2711 H   0  0  0  0  0  0  0  0  0  0  0  0
    5.7908   -2.3241    4.9482 H   0  0  0  0  0  0  0  0  0  0  0  0
    2.2203   -0.4745    0.0866 H   0  0  0  0  0  0  0  0  0  0  0  0
  1  2  2  0
  2  3  1  0
  2 23  1  0
  3  8  2  0
  3  4  1  0
  4  5  2  0
  4 24  1  0
  5  6  1  0
  5 25  1  0
  6  7  2  0
  6 26  1  0
  7  8  1  0
  7 27  1  0
  8  9  1  0
  9 23  2  0
  9 10  1  0
 10 11  1  0
 10 33  1  0
 11 15  1  0
 11 12  2  0
 12 13  1  0
 13 14  2  0
 14 15  1  0
 15 16  1  0
 16 17  1  0
 16 28  1  6
 16 23  1  0
 17 22  1  0
 17 18  2  0
 18 19  1  0
 18 29  1  0
 19 20  2  0
 19 30  1  0
 20 21  1  0
 21 22  2  0
 21 31  1  0
 22 32  1  0
M  END
>  <i_m_ct_stereo_status>  (55) 
1

>  <s_m_source_file>  (55) 
/var/tmp/pbs.5076255.sched01/tmpcm5es6vs/0d3z1so5d.sdf

>  <i_m_source_file_index>  (55) 
24

>  <i_lp_mmshare_version>  (55) 
48012

>  <i_f3d_flags>  (55) 
0

>  <s_epik_input>  (55) 
W2NIXTFbY0hdW2NIXVtjSF1jKGMxMilDPTNbQ0BIXShDMj1PKVtDQEBIXShuNGMoTjMpbm5uNCljNVtjSF1bY0hdbltjSF1bY0hdNQ==

>  <s_epik_cmdline>  (55) 
J2VwaWtfcHl0aG9uJywgJy1waHQnLCAnMi4wJywgJy1waCcsICc3LjAnLCAnLXRuJywgJzgnLCAnLW1hJywgJzIwMCcsICctaW1hZScsICc8aW5maWxlLm1hZT4nLCAnLW9tYWUnLCAnPG91dGZpbGUubWFlPic=

>  <r_lp_tautomer_probability>  (55) 
1

>  <r_epik_Ionization_Penalty>  (55) 
0.0295957

>  <r_epik_Ionization_Penalty_Charging>  (55) 
0.0291518

>  <r_epik_Ionization_Penalty_Neutral>  (55) 
0.000443911

>  <r_epik_State_Penalty>  (55) 
0.0239639

>  <r_epik_Charging_Adjusted_Penalty>  (55) 
0.0531157

>  <i_epik_Tot_Q>  (55) 
0

>  <i_epik_Tot_abs_Q>  (55) 
0

>  <s_epik_Chemistry_Notes>  (55) 
This compound has an imine and may undergo hydrolysis.

>  <s_lp_Force_Field>  (55) 
OPLS3e

>  <r_lp_Energy>  (55) 
35.0936

>  <b_lp_Chiralities_Consistent>  (55) 
1

>  <s_lp_Variant>  (55) 
20:0-1

>  <s_i_glide_gridfile>  (55) 
pfpi4k_grid

>  <i_i_glide_lignum>  (55) 
24

>  <i_i_glide_rotatable_bonds>  (55) 
1

>  <r_i_docking_score>  (55) 
-3.87941

>  <r_i_glide_ligand_efficiency>  (55) 
-0.16867

>  <r_i_glide_ligand_efficiency_sa>  (55) 
-0.479675

>  <r_i_glide_ligand_efficiency_ln>  (55) 
-0.938076

>  <r_i_glide_gscore>  (55) 
-3.87941

>  <r_i_glide_lipo>  (55) 
-0.839234

>  <r_i_glide_hbond>  (55) 
-0.154521

>  <r_i_glide_metal>  (55) 
-0

>  <r_i_glide_rewards>  (55) 
-1.4701

>  <r_i_glide_evdw>  (55) 
-23.4954

>  <r_i_glide_ecoul>  (55) 
-2.35053

>  <r_i_glide_erotb>  (55) 
0.201466

>  <r_i_glide_esite>  (55) 
-0.0896633

>  <r_i_glide_emodel>  (55) 
-31.4236

>  <r_i_glide_energy>  (55) 
-25.846

>  <r_i_glide_einternal>  (55) 
1.26237

>  <r_i_glide_intrahb_reward>  (55) 
-0

>  <i_i_glide_confnum>  (55) 
3

>  <i_i_glide_posenum>  (55) 
5

>  <r_i_glide_eff_state_penalty>  (55) 
0

>  <ligand_id>  (55) 
20

>  <original_smiles>  (55) 
O=C1c2ccccc2C2=Nc3nnnn3C(c3ccncc3)C12

>  <smiles>  (55) 
[H]c1nc([H])c([H])c(C2([H])C3=C(c4c([H])c([H])c([H])c([H])c4C3=O)N([H])c3nnnn32)c1[H]

$$$$
20:0:1
     RDKit          3D

 33 37  0  0  1  0  0  0  0  0999 V2000
   -0.9868   -6.6789    3.2106 O   0  0  0  0  0  0  0  0  0  0  0  0
   -0.4029   -7.3565    4.0569 C   0  0  0  0  0  0  0  0  0  0  0  0
    0.1011   -8.7373    3.9348 C   0  0  0  0  0  0  0  0  0  0  0  0
    0.0288   -9.6266    2.8554 C   0  0  0  0  0  0  0  0  0  0  0  0
    0.6169  -10.9015    3.0163 C   0  0  0  0  0  0  0  0  0  0  0  0
    1.2543  -11.2659    4.2244 C   0  0  0  0  0  0  0  0  0  0  0  0
    1.3212  -10.3588    5.2992 C   0  0  0  0  0  0  0  0  0  0  0  0
    0.7275   -9.0988    5.1285 C   0  0  0  0  0  0  0  0  0  0  0  0
    0.6236   -7.9640    6.0251 C   0  0  0  0  0  0  0  0  0  0  0  0
    1.0847   -7.8935    7.3290 N   0  0  0  0  0  0  0  0  0  0  0  0
    0.7092   -6.7916    8.1037 C   0  0  0  0  0  0  0  0  0  0  0  0
    0.8169   -6.6111    9.4088 N   0  0  0  0  0  0  0  0  0  0  0  0
    0.1831   -5.3926    9.6087 N   0  0  0  0  0  0  0  0  0  0  0  0
   -0.2660   -4.8903    8.4861 N   0  0  0  0  0  0  0  0  0  0  0  0
    0.0728   -5.7682    7.5145 N   0  0  0  0  0  0  0  0  0  0  0  0
   -0.2594   -5.6090    6.0949 C   0  0  1  0  0  0  0  0  0  0  0  0
    0.5819   -4.4951    5.4787 C   0  0  0  0  0  0  0  0  0  0  0  0
    0.0617   -3.1951    5.3038 C   0  0  0  0  0  0  0  0  0  0  0  0
    0.8822   -2.2143    4.7126 C   0  0  0  0  0  0  0  0  0  0  0  0
    2.1447   -2.4534    4.3063 N   0  0  0  0  0  0  0  0  0  0  0  0
    2.6440   -3.6919    4.4794 C   0  0  0  0  0  0  0  0  0  0  0  0
    1.9092   -4.7399    5.0609 C   0  0  0  0  0  0  0  0  0  0  0  0
   -0.0110   -6.9540    5.4174 C   0  0  0  0  0  0  0  0  0  0  0  0
   -0.4608   -9.3432    1.9329 H   0  0  0  0  0  0  0  0  0  0  0  0
    0.5477  -11.6159    2.2147 H   0  0  0  0  0  0  0  0  0  0  0  0
    1.6818  -12.2495    4.3291 H   0  0  0  0  0  0  0  0  0  0  0  0
    1.7951  -10.6375    6.2311 H   0  0  0  0  0  0  0  0  0  0  0  0
   -1.3241   -5.3810    6.0385 H   0  0  0  0  0  0  0  0  0  0  0  0
   -0.9454   -2.9489    5.5988 H   0  0  0  0  0  0  0  0  0  0  0  0
    0.5177   -1.2107    4.5572 H   0  0  0  0  0  0  0  0  0  0  0  0
    3.6564   -3.8549    4.1436 H   0  0  0  0  0  0  0  0  0  0  0  0
    2.3649   -5.7137    5.1601 H   0  0  0  0  0  0  0  0  0  0  0  0
    1.5719   -8.6733    7.7522 H   0  0  0  0  0  0  0  0  0  0  0  0
  1  2  2  0
  2  3  1  0
  2 23  1  0
  3  8  2  0
  3  4  1  0
  4  5  2  0
  4 24  1  0
  5  6  1  0
  5 25  1  0
  6  7  2  0
  6 26  1  0
  7  8  1  0
  7 27  1  0
  8  9  1  0
  9 23  2  0
  9 10  1  0
 10 11  1  0
 10 33  1  0
 11 15  1  0
 11 12  2  0
 12 13  1  0
 13 14  2  0
 14 15  1  0
 15 16  1  0
 16 17  1  0
 16 28  1  1
 16 23  1  0
 17 22  1  0
 17 18  2  0
 18 19  1  0
 18 29  1  0
 19 20  2  0
 19 30  1  0
 20 21  1  0
 21 22  2  0
 21 31  1  0
 22 32  1  0
M  END
>  <i_m_ct_stereo_status>  (56) 
1

>  <s_m_source_file>  (56) 
/var/tmp/pbs.5076255.sched01/tmpcm5es6vs/0d3z1so5d.sdf

>  <i_m_source_file_index>  (56) 
24

>  <i_lp_mmshare_version>  (56) 
48012

>  <i_f3d_flags>  (56) 
0

>  <s_epik_input>  (56) 
W2NIXTFbY0hdW2NIXVtjSF1jKGMxMilDPTNbQ0BIXShDMj1PKVtDQEBIXShuNGMoTjMpbm5uNCljNVtjSF1bY0hdbltjSF1bY0hdNQ==

>  <s_epik_cmdline>  (56) 
J2VwaWtfcHl0aG9uJywgJy1waHQnLCAnMi4wJywgJy1waCcsICc3LjAnLCAnLXRuJywgJzgnLCAnLW1hJywgJzIwMCcsICctaW1hZScsICc8aW5maWxlLm1hZT4nLCAnLW9tYWUnLCAnPG91dGZpbGUubWFlPic=

>  <r_lp_tautomer_probability>  (56) 
1

>  <r_epik_Ionization_Penalty>  (56) 
0.0295957

>  <r_epik_Ionization_Penalty_Charging>  (56) 
0.0291518

>  <r_epik_Ionization_Penalty_Neutral>  (56) 
0.000443911

>  <r_epik_State_Penalty>  (56) 
0.0239639

>  <r_epik_Charging_Adjusted_Penalty>  (56) 
0.0531157

>  <i_epik_Tot_Q>  (56) 
0

>  <i_epik_Tot_abs_Q>  (56) 
0

>  <s_epik_Chemistry_Notes>  (56) 
This compound has an imine and may undergo hydrolysis.

>  <s_lp_Force_Field>  (56) 
OPLS3e

>  <r_lp_Energy>  (56) 
35.0936

>  <b_lp_Chiralities_Consistent>  (56) 
1

>  <s_lp_Variant>  (56) 
20:0-1

>  <s_i_glide_gridfile>  (56) 
pfpi4k_grid

>  <i_i_glide_lignum>  (56) 
24

>  <i_i_glide_rotatable_bonds>  (56) 
1

>  <r_i_docking_score>  (56) 
-3.26828

>  <r_i_glide_ligand_efficiency>  (56) 
-0.142099

>  <r_i_glide_ligand_efficiency_sa>  (56) 
-0.404111

>  <r_i_glide_ligand_efficiency_ln>  (56) 
-0.790299

>  <r_i_glide_gscore>  (56) 
-3.26828

>  <r_i_glide_lipo>  (56) 
-0.228752

>  <r_i_glide_hbond>  (56) 
-0.154739

>  <r_i_glide_metal>  (56) 
-0

>  <r_i_glide_rewards>  (56) 
-1.34802

>  <r_i_glide_evdw>  (56) 
-20.7386

>  <r_i_glide_ecoul>  (56) 
-3.97589

>  <r_i_glide_erotb>  (56) 
0.201466

>  <r_i_glide_esite>  (56) 
-0.10492

>  <r_i_glide_emodel>  (56) 
-29.9239

>  <r_i_glide_energy>  (56) 
-24.7145

>  <r_i_glide_einternal>  (56) 
0.179263

>  <r_i_glide_intrahb_reward>  (56) 
-0

>  <i_i_glide_confnum>  (56) 
4

>  <i_i_glide_posenum>  (56) 
22

>  <r_i_glide_eff_state_penalty>  (56) 
0

>  <ligand_id>  (56) 
20

>  <original_smiles>  (56) 
O=C1c2ccccc2C2=Nc3nnnn3C(c3ccncc3)C12

>  <smiles>  (56) 
[H]c1nc([H])c([H])c(C2([H])C3=C(c4c([H])c([H])c([H])c([H])c4C3=O)N([H])c3nnnn32)c1[H]

$$$$
20:0:2
     RDKit          3D

 33 37  0  0  1  0  0  0  0  0999 V2000
    3.9873   -5.8806    2.8757 O   0  0  0  0  0  0  0  0  0  0  0  0
    3.4986   -4.7524    2.8135 C   0  0  0  0  0  0  0  0  0  0  0  0
    3.9313   -3.6173    1.9758 C   0  0  0  0  0  0  0  0  0  0  0  0
    4.9989   -3.5261    1.0715 C   0  0  0  0  0  0  0  0  0  0  0  0
    5.1849   -2.2971    0.3995 C   0  0  0  0  0  0  0  0  0  0  0  0
    4.3124   -1.2023    0.6301 C   0  0  0  0  0  0  0  0  0  0  0  0
    3.2311   -1.3159    1.5307 C   0  0  0  0  0  0  0  0  0  0  0  0
    3.0667   -2.5393    2.1987 C   0  0  0  0  0  0  0  0  0  0  0  0
    2.0800   -2.9767    3.1731 C   0  0  0  0  0  0  0  0  0  0  0  0
    1.0238   -2.2346    3.6802 N   0  0  0  0  0  0  0  0  0  0  0  0
    0.2990   -2.7629    4.7537 C   0  0  0  0  0  0  0  0  0  0  0  0
   -0.5774   -2.1626    5.5447 N   0  0  0  0  0  0  0  0  0  0  0  0
   -0.8764   -3.1454    6.4792 N   0  0  0  0  0  0  0  0  0  0  0  0
   -0.2249   -4.2560    6.2353 N   0  0  0  0  0  0  0  0  0  0  0  0
    0.5184   -4.0328    5.1232 N   0  0  0  0  0  0  0  0  0  0  0  0
    1.4005   -5.0250    4.4808 C   0  0  1  0  0  0  0  0  0  0  0  0
    0.5775   -6.1160    3.7726 C   0  0  0  0  0  0  0  0  0  0  0  0
    0.5919   -6.2784    2.3627 C   0  0  0  0  0  0  0  0  0  0  0  0
   -0.1751   -7.3007    1.7792 C   0  0  0  0  0  0  0  0  0  0  0  0
   -0.9776   -8.1135    2.4867 N   0  0  0  0  0  0  0  0  0  0  0  0
   -0.9930   -7.9762    3.8275 C   0  0  0  0  0  0  0  0  0  0  0  0
   -0.2436   -6.9964    4.5125 C   0  0  0  0  0  0  0  0  0  0  0  0
    2.3101   -4.2484    3.5257 C   0  0  0  0  0  0  0  0  0  0  0  0
    5.6521   -4.3724    0.9015 H   0  0  0  0  0  0  0  0  0  0  0  0
    6.0026   -2.1927   -0.2949 H   0  0  0  0  0  0  0  0  0  0  0  0
    4.4732   -0.2704    0.1100 H   0  0  0  0  0  0  0  0  0  0  0  0
    2.5574   -0.4885    1.7062 H   0  0  0  0  0  0  0  0  0  0  0  0
    2.0156   -5.4796    5.2598 H   0  0  0  0  0  0  0  0  0  0  0  0
    1.1900   -5.6673    1.7081 H   0  0  0  0  0  0  0  0  0  0  0  0
   -0.1525   -7.4400    0.7101 H   0  0  0  0  0  0  0  0  0  0  0  0
   -1.6292   -8.6623    4.3648 H   0  0  0  0  0  0  0  0  0  0  0  0
   -0.3024   -6.9407    5.5911 H   0  0  0  0  0  0  0  0  0  0  0  0
    0.8673   -1.2804    3.3863 H   0  0  0  0  0  0  0  0  0  0  0  0
  1  2  2  0
  2  3  1  0
  2 23  1  0
  3  8  2  0
  3  4  1  0
  4  5  2  0
  4 24  1  0
  5  6  1  0
  5 25  1  0
  6  7  2  0
  6 26  1  0
  7  8  1  0
  7 27  1  0
  8  9  1  0
  9 23  2  0
  9 10  1  0
 10 11  1  0
 10 33  1  0
 11 15  1  0
 11 12  2  0
 12 13  1  0
 13 14  2  0
 14 15  1  0
 15 16  1  0
 16 17  1  0
 16 28  1  1
 16 23  1  0
 17 22  1  0
 17 18  2  0
 18 19  1  0
 18 29  1  0
 19 20  2  0
 19 30  1  0
 20 21  1  0
 21 22  2  0
 21 31  1  0
 22 32  1  0
M  END
>  <i_m_ct_stereo_status>  (57) 
1

>  <s_m_source_file>  (57) 
/var/tmp/pbs.5076255.sched01/tmpcm5es6vs/0d3z1so5d.sdf

>  <i_m_source_file_index>  (57) 
24

>  <i_lp_mmshare_version>  (57) 
48012

>  <i_f3d_flags>  (57) 
0

>  <s_epik_input>  (57) 
W2NIXTFbY0hdW2NIXVtjSF1jKGMxMilDPTNbQ0BIXShDMj1PKVtDQEBIXShuNGMoTjMpbm5uNCljNVtjSF1bY0hdbltjSF1bY0hdNQ==

>  <s_epik_cmdline>  (57) 
J2VwaWtfcHl0aG9uJywgJy1waHQnLCAnMi4wJywgJy1waCcsICc3LjAnLCAnLXRuJywgJzgnLCAnLW1hJywgJzIwMCcsICctaW1hZScsICc8aW5maWxlLm1hZT4nLCAnLW9tYWUnLCAnPG91dGZpbGUubWFlPic=

>  <r_lp_tautomer_probability>  (57) 
1

>  <r_epik_Ionization_Penalty>  (57) 
0.0295957

>  <r_epik_Ionization_Penalty_Charging>  (57) 
0.0291518

>  <r_epik_Ionization_Penalty_Neutral>  (57) 
0.000443911

>  <r_epik_State_Penalty>  (57) 
0.0239639

>  <r_epik_Charging_Adjusted_Penalty>  (57) 
0.0531157

>  <i_epik_Tot_Q>  (57) 
0

>  <i_epik_Tot_abs_Q>  (57) 
0

>  <s_epik_Chemistry_Notes>  (57) 
This compound has an imine and may undergo hydrolysis.

>  <s_lp_Force_Field>  (57) 
OPLS3e

>  <r_lp_Energy>  (57) 
35.0936

>  <b_lp_Chiralities_Consistent>  (57) 
1

>  <s_lp_Variant>  (57) 
20:0-1

>  <s_i_glide_gridfile>  (57) 
pfpi4k_grid

>  <i_i_glide_lignum>  (57) 
24

>  <i_i_glide_rotatable_bonds>  (57) 
1

>  <r_i_docking_score>  (57) 
-2.87291

>  <r_i_glide_ligand_efficiency>  (57) 
-0.124909

>  <r_i_glide_ligand_efficiency_sa>  (57) 
-0.355225

>  <r_i_glide_ligand_efficiency_ln>  (57) 
-0.694695

>  <r_i_glide_gscore>  (57) 
-2.87291

>  <r_i_glide_lipo>  (57) 
-0.0667055

>  <r_i_glide_hbond>  (57) 
0

>  <r_i_glide_metal>  (57) 
-0

>  <r_i_glide_rewards>  (57) 
-1.38055

>  <r_i_glide_evdw>  (57) 
-24.3822

>  <r_i_glide_ecoul>  (57) 
-2.18977

>  <r_i_glide_erotb>  (57) 
0.201466

>  <r_i_glide_esite>  (57) 
-0.079548

>  <r_i_glide_emodel>  (57) 
-30.1278

>  <r_i_glide_energy>  (57) 
-26.572

>  <r_i_glide_einternal>  (57) 
2.01008

>  <r_i_glide_intrahb_reward>  (57) 
-0

>  <i_i_glide_confnum>  (57) 
1

>  <i_i_glide_posenum>  (57) 
3

>  <r_i_glide_eff_state_penalty>  (57) 
0

>  <ligand_id>  (57) 
20

>  <original_smiles>  (57) 
O=C1c2ccccc2C2=Nc3nnnn3C(c3ccncc3)C12

>  <smiles>  (57) 
[H]c1nc([H])c([H])c(C2([H])C3=C(c4c([H])c([H])c([H])c([H])c4C3=O)N([H])c3nnnn32)c1[H]

$$$$
20:1:0
     RDKit          3D

 34 38  0  0  1  0  0  0  0  0999 V2000
    2.5600   -4.1557    0.9675 O   0  0  0  0  0  0  0  0  0  0  0  0
    3.6886   -4.8717    0.9777 C   0  0  0  0  0  0  0  0  0  0  0  0
    3.6951   -6.2924    1.3202 C   0  0  0  0  0  0  0  0  0  0  0  0
    2.6634   -7.1737    1.6818 C   0  0  0  0  0  0  0  0  0  0  0  0
    3.0236   -8.5203    1.9247 C   0  0  0  0  0  0  0  0  0  0  0  0
    4.3703   -8.9546    1.8100 C   0  0  0  0  0  0  0  0  0  0  0  0
    5.3968   -8.0527    1.4539 C   0  0  0  0  0  0  0  0  0  0  0  0
    5.0201   -6.7220    1.2156 C   0  0  0  0  0  0  0  0  0  0  0  0
    5.8202   -5.5626    0.8360 C   0  0  0  0  0  0  0  0  0  0  0  0
    7.1623   -5.4481    0.6765 N   0  0  0  0  0  0  0  0  0  0  0  0
    7.7149   -4.1758    0.4779 C   0  0  0  0  0  0  0  0  0  0  0  0
    8.9914   -3.8287    0.4763 N   0  0  0  0  0  0  0  0  0  0  0  0
    8.9330   -2.4497    0.3175 N   0  0  0  0  0  0  0  0  0  0  0  0
    7.7040   -2.0202    0.2105 N   0  0  0  0  0  0  0  0  0  0  0  0
    6.9161   -3.1116    0.3083 N   0  0  0  0  0  0  0  0  0  0  0  0
    5.4596   -3.0998    0.2254 C   0  0  1  0  0  0  0  0  0  0  0  0
    5.0373   -2.7719   -1.2066 C   0  0  0  0  0  0  0  0  0  0  0  0
    5.0229   -3.7718   -2.2058 C   0  0  0  0  0  0  0  0  0  0  0  0
    4.5988   -3.4456   -3.5070 C   0  0  0  0  0  0  0  0  0  0  0  0
    4.2140   -2.2066   -3.8619 N   0  0  0  0  0  0  0  0  0  0  0  0
    4.2145   -1.2466   -2.9091 C   0  0  0  0  0  0  0  0  0  0  0  0
    4.6292   -1.4725   -1.5763 C   0  0  0  0  0  0  0  0  0  0  0  0
    4.9317   -4.4705    0.6729 C   0  0  0  0  0  0  0  0  0  0  0  0
    1.6370   -6.8374    1.7602 H   0  0  0  0  0  0  0  0  0  0  0  0
    2.2644   -9.2378    2.1974 H   0  0  0  0  0  0  0  0  0  0  0  0
    4.6133   -9.9899    1.9979 H   0  0  0  0  0  0  0  0  0  0  0  0
    6.4269   -8.3657    1.3632 H   0  0  0  0  0  0  0  0  0  0  0  0
    5.0935   -2.3316    0.9107 H   0  0  0  0  0  0  0  0  0  0  0  0
    5.2954   -4.7940   -1.9898 H   0  0  0  0  0  0  0  0  0  0  0  0
    4.5742   -4.2015   -4.2801 H   0  0  0  0  0  0  0  0  0  0  0  0
    3.8843   -0.2674   -3.2176 H   0  0  0  0  0  0  0  0  0  0  0  0
    4.5951   -0.6653   -0.8561 H   0  0  0  0  0  0  0  0  0  0  0  0
    7.8230   -6.2173    0.7346 H   0  0  0  0  0  0  0  0  0  0  0  0
    2.7707   -3.2750    0.6882 H   0  0  0  0  0  0  0  0  0  0  0  0
  1  2  1  0
  1 34  1  0
  2  3  1  0
  2 23  2  0
  3  8  2  0
  3  4  1  0
  4  5  2  0
  4 24  1  0
  5  6  1  0
  5 25  1  0
  6  7  2  0
  6 26  1  0
  7  8  1  0
  7 27  1  0
  8  9  1  0
  9 23  1  0
  9 10  2  0
 10 11  1  0
 10 33  1  0
 11 15  1  0
 11 12  2  0
 12 13  1  0
 13 14  2  0
 14 15  1  0
 15 16  1  0
 16 17  1  0
 16 28  1  1
 16 23  1  0
 17 22  1  0
 17 18  2  0
 18 19  1  0
 18 29  1  0
 19 20  2  0
 19 30  1  0
 20 21  1  0
 21 22  2  0
 21 31  1  0
 22 32  1  0
M  CHG  1  10   1
M  END
>  <i_m_ct_stereo_status>  (58) 
1

>  <s_m_source_file>  (58) 
/var/tmp/pbs.5076255.sched01/tmpcm5es6vs/0d3z1so5d.sdf

>  <i_m_source_file_index>  (58) 
25

>  <i_lp_mmshare_version>  (58) 
48012

>  <i_f3d_flags>  (58) 
0

>  <s_epik_input>  (58) 
W2NIXTFbY0hdW2NIXVtjSF1jKGMxMilDPTNbQ0BIXShDMj1PKVtDQEBIXShuNGMoTjMpbm5uNCljNVtjSF1bY0hdbltjSF1bY0hdNQ==

>  <s_epik_cmdline>  (58) 
J2VwaWtfcHl0aG9uJywgJy1waHQnLCAnMi4wJywgJy1waCcsICc3LjAnLCAnLXRuJywgJzgnLCAnLW1hJywgJzIwMCcsICctaW1hZScsICc8aW5maWxlLm1hZT4nLCAnLW9tYWUnLCAnPG91dGZpbGUubWFlPic=

>  <r_epik_Ionization_Penalty>  (58) 
1.80112

>  <r_epik_Ionization_Penalty_Charging>  (58) 
0

>  <r_epik_Ionization_Penalty_Neutral>  (58) 
1.80112

>  <r_epik_State_Penalty>  (58) 
1.9125

>  <r_epik_Charging_Adjusted_Penalty>  (58) 
1.9125

>  <i_epik_Tot_Q>  (58) 
1

>  <i_epik_Tot_abs_Q>  (58) 
1

>  <s_epik_Chemistry_Notes>  (58) 
This compound has an imine and may undergo hydrolysis.

>  <s_lp_Force_Field>  (58) 
OPLS3e

>  <r_lp_Energy>  (58) 
46.4799

>  <b_lp_Chiralities_Consistent>  (58) 
1

>  <s_lp_Variant>  (58) 
20:0-2

>  <s_i_glide_gridfile>  (58) 
pfpi4k_grid

>  <i_i_glide_lignum>  (58) 
25

>  <i_i_glide_rotatable_bonds>  (58) 
2

>  <r_i_docking_score>  (58) 
-4.59944

>  <r_i_glide_ligand_efficiency>  (58) 
-0.199976

>  <r_i_glide_ligand_efficiency_sa>  (58) 
-0.568704

>  <r_i_glide_ligand_efficiency_ln>  (58) 
-1.11219

>  <r_i_glide_gscore>  (58) 
-4.59944

>  <r_i_glide_lipo>  (58) 
-0.538576

>  <r_i_glide_hbond>  (58) 
-0.117492

>  <r_i_glide_metal>  (58) 
-0

>  <r_i_glide_rewards>  (58) 
-1.865

>  <r_i_glide_evdw>  (58) 
-29.2106

>  <r_i_glide_ecoul>  (58) 
-5.20165

>  <r_i_glide_erotb>  (58) 
0.200295

>  <r_i_glide_esite>  (58) 
-0.0378892

>  <r_i_glide_emodel>  (58) 
-44.9704

>  <r_i_glide_energy>  (58) 
-34.4122

>  <r_i_glide_einternal>  (58) 
0.136652

>  <r_i_glide_intrahb_reward>  (58) 
-0

>  <i_i_glide_confnum>  (58) 
4

>  <i_i_glide_posenum>  (58) 
13

>  <r_i_glide_eff_state_penalty>  (58) 
0

>  <ligand_id>  (58) 
20

>  <original_smiles>  (58) 
O=C1c2ccccc2C2=Nc3nnnn3C(c3ccncc3)C12

>  <smiles>  (58) 
[H]OC1=C2C(=[N+]([H])c3nnnn3C2([H])c2c([H])c([H])nc([H])c2[H])c2c([H])c([H])c([H])c([H])c21

$$$$
20:1:1
     RDKit          3D

 34 38  0  0  1  0  0  0  0  0999 V2000
   -0.4300   -6.8345    2.6659 O   0  0  0  0  0  0  0  0  0  0  0  0
    0.0075   -7.4262    3.7846 C   0  0  0  0  0  0  0  0  0  0  0  0
    0.3361   -8.8506    3.8202 C   0  0  0  0  0  0  0  0  0  0  0  0
    0.2904   -9.8534    2.8392 C   0  0  0  0  0  0  0  0  0  0  0  0
    0.7126  -11.1532    3.2018 C   0  0  0  0  0  0  0  0  0  0  0  0
    1.1715  -11.4310    4.5094 C   0  0  0  0  0  0  0  0  0  0  0  0
    1.2194  -10.4109    5.4791 C   0  0  0  0  0  0  0  0  0  0  0  0
    0.7824   -9.1340    5.1096 C   0  0  0  0  0  0  0  0  0  0  0  0
    0.7186   -7.8919    5.8685 C   0  0  0  0  0  0  0  0  0  0  0  0
    0.9908   -7.6592    7.1773 N   0  0  0  0  0  0  0  0  0  0  0  0
    0.6629   -6.4091    7.7261 C   0  0  0  0  0  0  0  0  0  0  0  0
    0.6338   -6.0477    8.9976 N   0  0  0  0  0  0  0  0  0  0  0  0
    0.1311   -4.7533    8.9404 N   0  0  0  0  0  0  0  0  0  0  0  0
   -0.1132   -4.3780    7.7139 N   0  0  0  0  0  0  0  0  0  0  0  0
    0.2376   -5.4227    6.9309 N   0  0  0  0  0  0  0  0  0  0  0  0
    0.1353   -5.4411    5.4813 C   0  0  1  0  0  0  0  0  0  0  0  0
    1.2117   -4.5502    4.8746 C   0  0  0  0  0  0  0  0  0  0  0  0
    0.8876   -3.3490    4.2104 C   0  0  0  0  0  0  0  0  0  0  0  0
    1.9324   -2.5892    3.6406 C   0  0  0  0  0  0  0  0  0  0  0  0
    3.2304   -2.9539    3.7024 N   0  0  0  0  0  0  0  0  0  0  0  0
    3.5376   -4.0994    4.3410 C   0  0  0  0  0  0  0  0  0  0  0  0
    2.5715   -4.9278    4.9430 C   0  0  0  0  0  0  0  0  0  0  0  0
    0.2659   -6.8799    4.9860 C   0  0  0  0  0  0  0  0  0  0  0  0
   -0.0499   -9.6457    1.8370 H   0  0  0  0  0  0  0  0  0  0  0  0
    0.6791  -11.9592    2.4835 H   0  0  0  0  0  0  0  0  0  0  0  0
    1.4771  -12.4317    4.7834 H   0  0  0  0  0  0  0  0  0  0  0  0
    1.5732  -10.6205    6.4759 H   0  0  0  0  0  0  0  0  0  0  0  0
   -0.8566   -5.0830    5.2252 H   0  0  0  0  0  0  0  0  0  0  0  0
   -0.1351   -3.0156    4.1076 H   0  0  0  0  0  0  0  0  0  0  0  0
    1.7185   -1.6696    3.1164 H   0  0  0  0  0  0  0  0  0  0  0  0
    4.5835   -4.3688    4.3715 H   0  0  0  0  0  0  0  0  0  0  0  0
    2.8802   -5.8458    5.4218 H   0  0  0  0  0  0  0  0  0  0  0  0
    1.3494   -8.3553    7.8209 H   0  0  0  0  0  0  0  0  0  0  0  0
   -0.4333   -7.4992    1.9917 H   0  0  0  0  0  0  0  0  0  0  0  0
  1  2  1  0
  1 34  1  0
  2  3  1  0
  2 23  2  0
  3  8  2  0
  3  4  1  0
  4  5  2  0
  4 24  1  0
  5  6  1  0
  5 25  1  0
  6  7  2  0
  6 26  1  0
  7  8  1  0
  7 27  1  0
  8  9  1  0
  9 23  1  0
  9 10  2  0
 10 11  1  0
 10 33  1  0
 11 15  1  0
 11 12  2  0
 12 13  1  0
 13 14  2  0
 14 15  1  0
 15 16  1  0
 16 17  1  0
 16 28  1  1
 16 23  1  0
 17 22  1  0
 17 18  2  0
 18 19  1  0
 18 29  1  0
 19 20  2  0
 19 30  1  0
 20 21  1  0
 21 22  2  0
 21 31  1  0
 22 32  1  0
M  CHG  1  10   1
M  END
>  <i_m_ct_stereo_status>  (59) 
1

>  <s_m_source_file>  (59) 
/var/tmp/pbs.5076255.sched01/tmpcm5es6vs/0d3z1so5d.sdf

>  <i_m_source_file_index>  (59) 
25

>  <i_lp_mmshare_version>  (59) 
48012

>  <i_f3d_flags>  (59) 
0

>  <s_epik_input>  (59) 
W2NIXTFbY0hdW2NIXVtjSF1jKGMxMilDPTNbQ0BIXShDMj1PKVtDQEBIXShuNGMoTjMpbm5uNCljNVtjSF1bY0hdbltjSF1bY0hdNQ==

>  <s_epik_cmdline>  (59) 
J2VwaWtfcHl0aG9uJywgJy1waHQnLCAnMi4wJywgJy1waCcsICc3LjAnLCAnLXRuJywgJzgnLCAnLW1hJywgJzIwMCcsICctaW1hZScsICc8aW5maWxlLm1hZT4nLCAnLW9tYWUnLCAnPG91dGZpbGUubWFlPic=

>  <r_epik_Ionization_Penalty>  (59) 
1.80112

>  <r_epik_Ionization_Penalty_Charging>  (59) 
0

>  <r_epik_Ionization_Penalty_Neutral>  (59) 
1.80112

>  <r_epik_State_Penalty>  (59) 
1.9125

>  <r_epik_Charging_Adjusted_Penalty>  (59) 
1.9125

>  <i_epik_Tot_Q>  (59) 
1

>  <i_epik_Tot_abs_Q>  (59) 
1

>  <s_epik_Chemistry_Notes>  (59) 
This compound has an imine and may undergo hydrolysis.

>  <s_lp_Force_Field>  (59) 
OPLS3e

>  <r_lp_Energy>  (59) 
46.4799

>  <b_lp_Chiralities_Consistent>  (59) 
1

>  <s_lp_Variant>  (59) 
20:0-2

>  <s_i_glide_gridfile>  (59) 
pfpi4k_grid

>  <i_i_glide_lignum>  (59) 
25

>  <i_i_glide_rotatable_bonds>  (59) 
2

>  <r_i_docking_score>  (59) 
-3.55878

>  <r_i_glide_ligand_efficiency>  (59) 
-0.15473

>  <r_i_glide_ligand_efficiency_sa>  (59) 
-0.44003

>  <r_i_glide_ligand_efficiency_ln>  (59) 
-0.860545

>  <r_i_glide_gscore>  (59) 
-3.55878

>  <r_i_glide_lipo>  (59) 
-0.216678

>  <r_i_glide_hbond>  (59) 
-0.16

>  <r_i_glide_metal>  (59) 
-0

>  <r_i_glide_rewards>  (59) 
-1.34115

>  <r_i_glide_evdw>  (59) 
-17.25

>  <r_i_glide_ecoul>  (59) 
-7.38724

>  <r_i_glide_erotb>  (59) 
0.200295

>  <r_i_glide_esite>  (59) 
-0.0706599

>  <r_i_glide_emodel>  (59) 
-31.7398

>  <r_i_glide_energy>  (59) 
-24.6373

>  <r_i_glide_einternal>  (59) 
2.09557

>  <r_i_glide_intrahb_reward>  (59) 
-0

>  <i_i_glide_confnum>  (59) 
4

>  <i_i_glide_posenum>  (59) 
17

>  <r_i_glide_eff_state_penalty>  (59) 
0

>  <ligand_id>  (59) 
20

>  <original_smiles>  (59) 
O=C1c2ccccc2C2=Nc3nnnn3C(c3ccncc3)C12

>  <smiles>  (59) 
[H]OC1=C2C(=[N+]([H])c3nnnn3C2([H])c2c([H])c([H])nc([H])c2[H])c2c([H])c([H])c([H])c([H])c21

$$$$
20:1:2
     RDKit          3D

 34 38  0  0  1  0  0  0  0  0999 V2000
   -2.1926    2.4206    4.3693 O   0  0  0  0  0  0  0  0  0  0  0  0
   -1.4362    3.1154    5.2288 C   0  0  0  0  0  0  0  0  0  0  0  0
   -1.8520    3.3324    6.6163 C   0  0  0  0  0  0  0  0  0  0  0  0
   -2.9934    2.9283    7.3296 C   0  0  0  0  0  0  0  0  0  0  0  0
   -3.0849    3.3086    8.6884 C   0  0  0  0  0  0  0  0  0  0  0  0
   -2.0574    4.0669    9.3044 C   0  0  0  0  0  0  0  0  0  0  0  0
   -0.9147    4.4657    8.5755 C   0  0  0  0  0  0  0  0  0  0  0  0
   -0.8409    4.0764    7.2278 C   0  0  0  0  0  0  0  0  0  0  0  0
    0.1745    4.3264    6.2108 C   0  0  0  0  0  0  0  0  0  0  0  0
    1.3160    5.0530    6.2868 N   0  0  0  0  0  0  0  0  0  0  0  0
    2.0442    5.3097    5.1149 C   0  0  0  0  0  0  0  0  0  0  0  0
    3.0694    6.1307    4.9557 N   0  0  0  0  0  0  0  0  0  0  0  0
    3.3254    6.0409    3.5931 N   0  0  0  0  0  0  0  0  0  0  0  0
    2.5183    5.2012    2.9998 N   0  0  0  0  0  0  0  0  0  0  0  0
    1.6939    4.7275    3.9588 N   0  0  0  0  0  0  0  0  0  0  0  0
    0.6462    3.7299    3.7618 C   0  0  1  0  0  0  0  0  0  0  0  0
    1.2774    2.3660    3.5033 C   0  0  0  0  0  0  0  0  0  0  0  0
    0.9678    1.6303    2.3408 C   0  0  0  0  0  0  0  0  0  0  0  0
    1.5520    0.3581    2.1658 C   0  0  0  0  0  0  0  0  0  0  0  0
    2.3895   -0.2000    3.0668 N   0  0  0  0  0  0  0  0  0  0  0  0
    2.6817    0.5013    4.1791 C   0  0  0  0  0  0  0  0  0  0  0  0
    2.1533    1.7794    4.4479 C   0  0  0  0  0  0  0  0  0  0  0  0
   -0.2376    3.6826    5.0179 C   0  0  0  0  0  0  0  0  0  0  0  0
   -3.7786    2.3550    6.8631 H   0  0  0  0  0  0  0  0  0  0  0  0
   -3.9484    3.0177    9.2699 H   0  0  0  0  0  0  0  0  0  0  0  0
   -2.1535    4.3389   10.3456 H   0  0  0  0  0  0  0  0  0  0  0  0
   -0.1261    5.0427    9.0372 H   0  0  0  0  0  0  0  0  0  0  0  0
    0.0460    4.0389    2.9026 H   0  0  0  0  0  0  0  0  0  0  0  0
    0.2940    2.0220    1.5906 H   0  0  0  0  0  0  0  0  0  0  0  0
    1.3400   -0.2267    1.2840 H   0  0  0  0  0  0  0  0  0  0  0  0
    3.3534    0.0257    4.8797 H   0  0  0  0  0  0  0  0  0  0  0  0
    2.4112    2.2749    5.3731 H   0  0  0  0  0  0  0  0  0  0  0  0
    1.6636    5.4942    7.1306 H   0  0  0  0  0  0  0  0  0  0  0  0
   -1.7366    2.3794    3.5384 H   0  0  0  0  0  0  0  0  0  0  0  0
  1  2  1  0
  1 34  1  0
  2  3  1  0
  2 23  2  0
  3  8  2  0
  3  4  1  0
  4  5  2  0
  4 24  1  0
  5  6  1  0
  5 25  1  0
  6  7  2  0
  6 26  1  0
  7  8  1  0
  7 27  1  0
  8  9  1  0
  9 23  1  0
  9 10  2  0
 10 11  1  0
 10 33  1  0
 11 15  1  0
 11 12  2  0
 12 13  1  0
 13 14  2  0
 14 15  1  0
 15 16  1  0
 16 17  1  0
 16 28  1  6
 16 23  1  0
 17 22  1  0
 17 18  2  0
 18 19  1  0
 18 29  1  0
 19 20  2  0
 19 30  1  0
 20 21  1  0
 21 22  2  0
 21 31  1  0
 22 32  1  0
M  CHG  1  10   1
M  END
>  <i_m_ct_stereo_status>  (60) 
1

>  <s_m_source_file>  (60) 
/var/tmp/pbs.5076255.sched01/tmpcm5es6vs/0d3z1so5d.sdf

>  <i_m_source_file_index>  (60) 
25

>  <i_lp_mmshare_version>  (60) 
48012

>  <i_f3d_flags>  (60) 
0

>  <s_epik_input>  (60) 
W2NIXTFbY0hdW2NIXVtjSF1jKGMxMilDPTNbQ0BIXShDMj1PKVtDQEBIXShuNGMoTjMpbm5uNCljNVtjSF1bY0hdbltjSF1bY0hdNQ==

>  <s_epik_cmdline>  (60) 
J2VwaWtfcHl0aG9uJywgJy1waHQnLCAnMi4wJywgJy1waCcsICc3LjAnLCAnLXRuJywgJzgnLCAnLW1hJywgJzIwMCcsICctaW1hZScsICc8aW5maWxlLm1hZT4nLCAnLW9tYWUnLCAnPG91dGZpbGUubWFlPic=

>  <r_epik_Ionization_Penalty>  (60) 
1.80112

>  <r_epik_Ionization_Penalty_Charging>  (60) 
0

>  <r_epik_Ionization_Penalty_Neutral>  (60) 
1.80112

>  <r_epik_State_Penalty>  (60) 
1.9125

>  <r_epik_Charging_Adjusted_Penalty>  (60) 
1.9125

>  <i_epik_Tot_Q>  (60) 
1

>  <i_epik_Tot_abs_Q>  (60) 
1

>  <s_epik_Chemistry_Notes>  (60) 
This compound has an imine and may undergo hydrolysis.

>  <s_lp_Force_Field>  (60) 
OPLS3e

>  <r_lp_Energy>  (60) 
46.4799

>  <b_lp_Chiralities_Consistent>  (60) 
1

>  <s_lp_Variant>  (60) 
20:0-2

>  <s_i_glide_gridfile>  (60) 
pfpi4k_grid

>  <i_i_glide_lignum>  (60) 
25

>  <i_i_glide_rotatable_bonds>  (60) 
2

>  <r_i_docking_score>  (60) 
-2.77298

>  <r_i_glide_ligand_efficiency>  (60) 
-0.120564

>  <r_i_glide_ligand_efficiency_sa>  (60) 
-0.342869

>  <r_i_glide_ligand_efficiency_ln>  (60) 
-0.670532

>  <r_i_glide_gscore>  (60) 
-2.77298

>  <r_i_glide_lipo>  (60) 
-0.275408

>  <r_i_glide_hbond>  (60) 
0

>  <r_i_glide_metal>  (60) 
-0

>  <r_i_glide_rewards>  (60) 
-1.34115

>  <r_i_glide_evdw>  (60) 
-22.8569

>  <r_i_glide_ecoul>  (60) 
-0.923436

>  <r_i_glide_erotb>  (60) 
0.200295

>  <r_i_glide_esite>  (60) 
-0.0753607

>  <r_i_glide_emodel>  (60) 
-30.1064

>  <r_i_glide_energy>  (60) 
-23.7803

>  <r_i_glide_einternal>  (60) 
0.052386

>  <r_i_glide_intrahb_reward>  (60) 
-0

>  <i_i_glide_confnum>  (60) 
4

>  <i_i_glide_posenum>  (60) 
2

>  <r_i_glide_eff_state_penalty>  (60) 
0

>  <ligand_id>  (60) 
20

>  <original_smiles>  (60) 
O=C1c2ccccc2C2=Nc3nnnn3C(c3ccncc3)C12

>  <smiles>  (60) 
[H]OC1=C2C(=[N+]([H])c3nnnn3C2([H])c2c([H])c([H])nc([H])c2[H])c2c([H])c([H])c([H])c([H])c21

$$$$
21:0:0
     RDKit          3D

 31 33  0  0  1  0  0  0  0  0999 V2000
    3.9595    0.8043   -4.2427 C   0  0  0  0  0  0  0  0  0  0  0  0
    4.2187    0.1440   -3.0176 O   0  0  0  0  0  0  0  0  0  0  0  0
    3.6240   -1.0646   -2.7652 C   0  0  0  0  0  0  0  0  0  0  0  0
    2.7872   -1.6846   -3.7097 C   0  0  0  0  0  0  0  0  0  0  0  0
    2.1405   -2.8806   -3.3903 C   0  0  0  0  0  0  0  0  0  0  0  0
    2.2995   -3.4532   -2.1213 C   0  0  0  0  0  0  0  0  0  0  0  0
    3.1834   -2.8895   -1.1765 C   0  0  0  0  0  0  0  0  0  0  0  0
    3.4005   -3.4356    0.0742 O   0  0  0  0  0  0  0  0  0  0  0  0
    2.9046   -4.7302    0.3539 C   0  0  0  0  0  0  0  0  0  0  0  0
    3.8398   -1.6781   -1.5037 C   0  0  0  0  0  0  0  0  0  0  0  0
    4.7827   -1.0194   -0.5044 C   0  0  2  0  0  0  0  0  0  0  0  0
    6.2273   -2.0468   -0.1012 S   0  0  0  0  0  0  0  0  0  0  0  0
    6.2683   -1.4697    1.6341 C   0  0  0  0  0  0  0  0  0  0  0  0
    4.9139   -0.9247    1.8808 C   0  0  0  0  0  0  0  0  0  0  0  0
    4.3113   -0.5849    3.0195 N   0  0  0  0  0  0  0  0  0  0  0  0
    3.0598   -0.1358    2.6113 N   0  0  0  0  0  0  0  0  0  0  0  0
    3.0632   -0.2388    1.2740 C   0  0  0  0  0  0  0  0  0  0  0  0
    4.2005   -0.7418    0.7766 N   0  0  0  0  0  0  0  0  0  0  0  0
    4.5444    1.7148   -4.2163 H   0  0  0  0  0  0  0  0  0  0  0  0
    2.9165    1.0836   -4.3426 H   0  0  0  0  0  0  0  0  0  0  0  0
    4.2607    0.2171   -5.1092 H   0  0  0  0  0  0  0  0  0  0  0  0
    2.5669   -1.2302   -4.6685 H   0  0  0  0  0  0  0  0  0  0  0  0
    1.4527   -3.3038   -4.1012 H   0  0  0  0  0  0  0  0  0  0  0  0
    1.7365   -4.3472   -1.9053 H   0  0  0  0  0  0  0  0  0  0  0  0
    3.1889   -5.0122    1.3664 H   0  0  0  0  0  0  0  0  0  0  0  0
    3.3168   -5.4762   -0.3192 H   0  0  0  0  0  0  0  0  0  0  0  0
    1.8144   -4.7575    0.3003 H   0  0  0  0  0  0  0  0  0  0  0  0
    5.1777   -0.0883   -0.8805 H   0  0  0  0  0  0  0  0  0  0  0  0
    6.4834   -2.2576    2.3556 H   0  0  0  0  0  0  0  0  0  0  0  0
    6.9909   -0.6645    1.7227 H   0  0  0  0  0  0  0  0  0  0  0  0
    2.2291    0.0585    0.6498 H   0  0  0  0  0  0  0  0  0  0  0  0
  1  2  1  0
  1 19  1  0
  1 20  1  0
  1 21  1  0
  2  3  1  0
  3 10  2  0
  3  4  1  0
  4  5  2  0
  4 22  1  0
  5  6  1  0
  5 23  1  0
  6  7  2  0
  6 24  1  0
  7  8  1  0
  7 10  1  0
  8  9  1  0
  9 25  1  0
  9 26  1  0
  9 27  1  0
 10 11  1  0
 11 18  1  0
 11 12  1  0
 11 28  1  6
 12 13  1  0
 13 14  1  0
 13 29  1  0
 13 30  1  0
 14 18  1  0
 14 15  2  0
 15 16  1  0
 16 17  2  0
 17 18  1  0
 17 31  1  0
M  END
>  <i_m_ct_stereo_status>  (61) 
1

>  <s_m_source_file>  (61) 
/var/tmp/pbs.5076255.sched01/tmpcm5es6vs/0d3z1so5d.sdf

>  <i_m_source_file_index>  (61) 
26

>  <i_lp_mmshare_version>  (61) 
48012

>  <i_f3d_flags>  (61) 
0

>  <s_epik_input>  (61) 
W0NIM11PYzFbY0hdW2NIXVtjSF1jKE9bQ0gzXSljMVtDQEhdKFNbQ0gyXTIpbihjMjMpW2NIXW5uMw==

>  <s_epik_cmdline>  (61) 
J2VwaWtfcHl0aG9uJywgJy1waHQnLCAnMi4wJywgJy1waCcsICc3LjAnLCAnLXRuJywgJzgnLCAnLW1hJywgJzIwMCcsICctaW1hZScsICc8aW5maWxlLm1hZT4nLCAnLW9tYWUnLCAnPG91dGZpbGUubWFlPic=

>  <r_lp_tautomer_probability>  (61) 
1

>  <r_epik_Ionization_Penalty>  (61) 
9.15803e-06

>  <r_epik_Ionization_Penalty_Charging>  (61) 
0

>  <r_epik_Ionization_Penalty_Neutral>  (61) 
9.15803e-06

>  <r_epik_State_Penalty>  (61) 
-0

>  <r_epik_Charging_Adjusted_Penalty>  (61) 
0

>  <i_epik_Tot_Q>  (61) 
0

>  <i_epik_Tot_abs_Q>  (61) 
0

>  <s_epik_Chemistry_Notes>  (61) 
This compound contains an acetal/aminal-like group ( X-CH(R)-Y where X, Y are N, S, or O) that may be acid/base labile, releasing an aldehyde.

>  <s_lp_Force_Field>  (61) 
OPLS3e

>  <r_lp_Energy>  (61) 
23.2751

>  <b_lp_Chiralities_Consistent>  (61) 
1

>  <s_lp_Variant>  (61) 
21:0-1

>  <s_i_glide_gridfile>  (61) 
pfpi4k_grid

>  <i_i_glide_lignum>  (61) 
26

>  <i_i_glide_rotatable_bonds>  (61) 
3

>  <r_i_docking_score>  (61) 
-3.70512

>  <r_i_glide_ligand_efficiency>  (61) 
-0.20584

>  <r_i_glide_ligand_efficiency_sa>  (61) 
-0.539453

>  <r_i_glide_ligand_efficiency_ln>  (61) 
-0.952381

>  <r_i_glide_gscore>  (61) 
-3.70512

>  <r_i_glide_lipo>  (61) 
-0.714499

>  <r_i_glide_hbond>  (61) 
0

>  <r_i_glide_metal>  (61) 
-0

>  <r_i_glide_rewards>  (61) 
-1.84719

>  <r_i_glide_evdw>  (61) 
-21.2879

>  <r_i_glide_ecoul>  (61) 
-2.00199

>  <r_i_glide_erotb>  (61) 
0.256096

>  <r_i_glide_esite>  (61) 
-0.0348306

>  <r_i_glide_emodel>  (61) 
-28.7958

>  <r_i_glide_energy>  (61) 
-23.2899

>  <r_i_glide_einternal>  (61) 
0.202255

>  <r_i_glide_intrahb_reward>  (61) 
-0

>  <i_i_glide_confnum>  (61) 
3

>  <i_i_glide_posenum>  (61) 
36

>  <r_i_glide_eff_state_penalty>  (61) 
0

>  <ligand_id>  (61) 
21

>  <original_smiles>  (61) 
COc1cccc(OC)c1C1SCc2nncn21

>  <smiles>  (61) 
[H]c1c([H])c(OC([H])([H])[H])c(C2([H])SC([H])([H])c3nnc([H])n32)c(OC([H])([H])[H])c1[H]

$$$$
21:0:1
     RDKit          3D

 31 33  0  0  1  0  0  0  0  0999 V2000
    8.4418   -6.9189    3.6225 C   0  0  0  0  0  0  0  0  0  0  0  0
    7.1365   -6.9705    3.0565 O   0  0  0  0  0  0  0  0  0  0  0  0
    6.7839   -6.0508    2.0924 C   0  0  0  0  0  0  0  0  0  0  0  0
    7.6761   -5.0646    1.6118 C   0  0  0  0  0  0  0  0  0  0  0  0
    7.2689   -4.1441    0.6369 C   0  0  0  0  0  0  0  0  0  0  0  0
    5.9680   -4.2015    0.1164 C   0  0  0  0  0  0  0  0  0  0  0  0
    5.0593   -5.1888    0.5667 C   0  0  0  0  0  0  0  0  0  0  0  0
    3.7839   -5.2943    0.0630 O   0  0  0  0  0  0  0  0  0  0  0  0
    3.2522   -4.2407   -0.7241 C   0  0  0  0  0  0  0  0  0  0  0  0
    5.4648   -6.1099    1.5739 C   0  0  0  0  0  0  0  0  0  0  0  0
    4.5087   -7.1838    2.1186 C   0  0  2  0  0  0  0  0  0  0  0  0
    4.4737   -8.6474    1.0372 S   0  0  0  0  0  0  0  0  0  0  0  0
    2.7075   -8.9934    1.3632 C   0  0  0  0  0  0  0  0  0  0  0  0
    2.1713   -7.6785    1.8072 C   0  0  0  0  0  0  0  0  0  0  0  0
    0.9244   -7.2043    1.8656 N   0  0  0  0  0  0  0  0  0  0  0  0
    1.0714   -5.9060    2.3520 N   0  0  0  0  0  0  0  0  0  0  0  0
    2.3884   -5.7508    2.5416 C   0  0  0  0  0  0  0  0  0  0  0  0
    3.1129   -6.8213    2.1867 N   0  0  0  0  0  0  0  0  0  0  0  0
    8.5507   -7.7132    4.3625 H   0  0  0  0  0  0  0  0  0  0  0  0
    8.6177   -5.9708    4.1296 H   0  0  0  0  0  0  0  0  0  0  0  0
    9.2137   -7.0721    2.8711 H   0  0  0  0  0  0  0  0  0  0  0  0
    8.6843   -4.9919    1.9909 H   0  0  0  0  0  0  0  0  0  0  0  0
    7.9606   -3.3952    0.2827 H   0  0  0  0  0  0  0  0  0  0  0  0
    5.6929   -3.4811   -0.6364 H   0  0  0  0  0  0  0  0  0  0  0  0
    2.2204   -4.4807   -0.9848 H   0  0  0  0  0  0  0  0  0  0  0  0
    3.7997   -4.1184   -1.6591 H   0  0  0  0  0  0  0  0  0  0  0  0
    3.2391   -3.2942   -0.1850 H   0  0  0  0  0  0  0  0  0  0  0  0
    4.7938   -7.5078    3.1221 H   0  0  0  0  0  0  0  0  0  0  0  0
    2.2036   -9.3754    0.4798 H   0  0  0  0  0  0  0  0  0  0  0  0
    2.6135   -9.7032    2.1841 H   0  0  0  0  0  0  0  0  0  0  0  0
    2.8473   -4.8270    2.8639 H   0  0  0  0  0  0  0  0  0  0  0  0
  1  2  1  0
  1 19  1  0
  1 20  1  0
  1 21  1  0
  2  3  1  0
  3 10  2  0
  3  4  1  0
  4  5  2  0
  4 22  1  0
  5  6  1  0
  5 23  1  0
  6  7  2  0
  6 24  1  0
  7  8  1  0
  7 10  1  0
  8  9  1  0
  9 25  1  0
  9 26  1  0
  9 27  1  0
 10 11  1  0
 11 18  1  0
 11 12  1  0
 11 28  1  1
 12 13  1  0
 13 14  1  0
 13 29  1  0
 13 30  1  0
 14 18  1  0
 14 15  2  0
 15 16  1  0
 16 17  2  0
 17 18  1  0
 17 31  1  0
M  END
>  <i_m_ct_stereo_status>  (62) 
1

>  <s_m_source_file>  (62) 
/var/tmp/pbs.5076255.sched01/tmpcm5es6vs/0d3z1so5d.sdf

>  <i_m_source_file_index>  (62) 
26

>  <i_lp_mmshare_version>  (62) 
48012

>  <i_f3d_flags>  (62) 
0

>  <s_epik_input>  (62) 
W0NIM11PYzFbY0hdW2NIXVtjSF1jKE9bQ0gzXSljMVtDQEhdKFNbQ0gyXTIpbihjMjMpW2NIXW5uMw==

>  <s_epik_cmdline>  (62) 
J2VwaWtfcHl0aG9uJywgJy1waHQnLCAnMi4wJywgJy1waCcsICc3LjAnLCAnLXRuJywgJzgnLCAnLW1hJywgJzIwMCcsICctaW1hZScsICc8aW5maWxlLm1hZT4nLCAnLW9tYWUnLCAnPG91dGZpbGUubWFlPic=

>  <r_lp_tautomer_probability>  (62) 
1

>  <r_epik_Ionization_Penalty>  (62) 
9.15803e-06

>  <r_epik_Ionization_Penalty_Charging>  (62) 
0

>  <r_epik_Ionization_Penalty_Neutral>  (62) 
9.15803e-06

>  <r_epik_State_Penalty>  (62) 
-0

>  <r_epik_Charging_Adjusted_Penalty>  (62) 
0

>  <i_epik_Tot_Q>  (62) 
0

>  <i_epik_Tot_abs_Q>  (62) 
0

>  <s_epik_Chemistry_Notes>  (62) 
This compound contains an acetal/aminal-like group ( X-CH(R)-Y where X, Y are N, S, or O) that may be acid/base labile, releasing an aldehyde.

>  <s_lp_Force_Field>  (62) 
OPLS3e

>  <r_lp_Energy>  (62) 
23.2751

>  <b_lp_Chiralities_Consistent>  (62) 
1

>  <s_lp_Variant>  (62) 
21:0-1

>  <s_i_glide_gridfile>  (62) 
pfpi4k_grid

>  <i_i_glide_lignum>  (62) 
26

>  <i_i_glide_rotatable_bonds>  (62) 
3

>  <r_i_docking_score>  (62) 
-3.43626

>  <r_i_glide_ligand_efficiency>  (62) 
-0.190903

>  <r_i_glide_ligand_efficiency_sa>  (62) 
-0.500309

>  <r_i_glide_ligand_efficiency_ln>  (62) 
-0.883274

>  <r_i_glide_gscore>  (62) 
-3.43626

>  <r_i_glide_lipo>  (62) 
-0.51654

>  <r_i_glide_hbond>  (62) 
0

>  <r_i_glide_metal>  (62) 
-0

>  <r_i_glide_rewards>  (62) 
-1.63018

>  <r_i_glide_evdw>  (62) 
-19.5861

>  <r_i_glide_ecoul>  (62) 
-2.85528

>  <r_i_glide_erotb>  (62) 
0.256096

>  <r_i_glide_esite>  (62) 
-0.138043

>  <r_i_glide_emodel>  (62) 
-26.8025

>  <r_i_glide_energy>  (62) 
-22.4414

>  <r_i_glide_einternal>  (62) 
1.64246

>  <r_i_glide_intrahb_reward>  (62) 
-0

>  <i_i_glide_confnum>  (62) 
1

>  <i_i_glide_posenum>  (62) 
28

>  <r_i_glide_eff_state_penalty>  (62) 
0

>  <ligand_id>  (62) 
21

>  <original_smiles>  (62) 
COc1cccc(OC)c1C1SCc2nncn21

>  <smiles>  (62) 
[H]c1c([H])c(OC([H])([H])[H])c(C2([H])SC([H])([H])c3nnc([H])n32)c(OC([H])([H])[H])c1[H]

$$$$
21:0:2
     RDKit          3D

 31 33  0  0  1  0  0  0  0  0999 V2000
    8.2565   -3.1527    0.4748 C   0  0  0  0  0  0  0  0  0  0  0  0
    6.9535   -3.6616    0.7265 O   0  0  0  0  0  0  0  0  0  0  0  0
    5.9179   -3.3167   -0.1154 C   0  0  0  0  0  0  0  0  0  0  0  0
    6.0664   -2.3666   -1.1558 C   0  0  0  0  0  0  0  0  0  0  0  0
    4.9821   -2.0424   -1.9840 C   0  0  0  0  0  0  0  0  0  0  0  0
    3.7405   -2.6641   -1.8000 C   0  0  0  0  0  0  0  0  0  0  0  0
    3.5621   -3.6159   -0.7639 C   0  0  0  0  0  0  0  0  0  0  0  0
    2.3563   -4.2470   -0.5445 O   0  0  0  0  0  0  0  0  0  0  0  0
    1.3123   -4.0834   -1.4877 C   0  0  0  0  0  0  0  0  0  0  0  0
    4.6579   -3.9337    0.0839 C   0  0  0  0  0  0  0  0  0  0  0  0
    4.5143   -4.9690    1.2075 C   0  0  2  0  0  0  0  0  0  0  0  0
    4.3442   -6.6623    0.5642 S   0  0  0  0  0  0  0  0  0  0  0  0
    3.2023   -7.1693    1.9031 C   0  0  0  0  0  0  0  0  0  0  0  0
    2.6477   -5.8899    2.3953 C   0  0  0  0  0  0  0  0  0  0  0  0
    1.5782   -5.6388    3.1534 N   0  0  0  0  0  0  0  0  0  0  0  0
    1.5790   -4.2539    3.2857 N   0  0  0  0  0  0  0  0  0  0  0  0
    2.6473   -3.8319    2.5885 C   0  0  0  0  0  0  0  0  0  0  0  0
    3.3337   -4.8216    2.0100 N   0  0  0  0  0  0  0  0  0  0  0  0
    8.9389   -3.5289    1.2365 H   0  0  0  0  0  0  0  0  0  0  0  0
    8.2844   -2.0652    0.5222 H   0  0  0  0  0  0  0  0  0  0  0  0
    8.6272   -3.4848   -0.4944 H   0  0  0  0  0  0  0  0  0  0  0  0
    7.0093   -1.8798   -1.3231 H   0  0  0  0  0  0  0  0  0  0  0  0
    5.0998   -1.3100   -2.7680 H   0  0  0  0  0  0  0  0  0  0  0  0
    2.9337   -2.3905   -2.4609 H   0  0  0  0  0  0  0  0  0  0  0  0
    0.4669   -4.6974   -1.1831 H   0  0  0  0  0  0  0  0  0  0  0  0
    1.6059   -4.3700   -2.4822 H   0  0  0  0  0  0  0  0  0  0  0  0
    0.9652   -3.0600   -1.5411 H   0  0  0  0  0  0  0  0  0  0  0  0
    5.3553   -4.9576    1.9010 H   0  0  0  0  0  0  0  0  0  0  0  0
    2.3997   -7.8290    1.5790 H   0  0  0  0  0  0  0  0  0  0  0  0
    3.7692   -7.6256    2.7153 H   0  0  0  0  0  0  0  0  0  0  0  0
    2.9170   -2.7903    2.4723 H   0  0  0  0  0  0  0  0  0  0  0  0
  1  2  1  0
  1 19  1  0
  1 20  1  0
  1 21  1  0
  2  3  1  0
  3 10  2  0
  3  4  1  0
  4  5  2  0
  4 22  1  0
  5  6  1  0
  5 23  1  0
  6  7  2  0
  6 24  1  0
  7  8  1  0
  7 10  1  0
  8  9  1  0
  9 25  1  0
  9 26  1  0
  9 27  1  0
 10 11  1  0
 11 18  1  0
 11 12  1  0
 11 28  1  1
 12 13  1  0
 13 14  1  0
 13 29  1  0
 13 30  1  0
 14 18  1  0
 14 15  2  0
 15 16  1  0
 16 17  2  0
 17 18  1  0
 17 31  1  0
M  END
>  <i_m_ct_stereo_status>  (63) 
1

>  <s_m_source_file>  (63) 
/var/tmp/pbs.5076255.sched01/tmpcm5es6vs/0d3z1so5d.sdf

>  <i_m_source_file_index>  (63) 
26

>  <i_lp_mmshare_version>  (63) 
48012

>  <i_f3d_flags>  (63) 
0

>  <s_epik_input>  (63) 
W0NIM11PYzFbY0hdW2NIXVtjSF1jKE9bQ0gzXSljMVtDQEhdKFNbQ0gyXTIpbihjMjMpW2NIXW5uMw==

>  <s_epik_cmdline>  (63) 
J2VwaWtfcHl0aG9uJywgJy1waHQnLCAnMi4wJywgJy1waCcsICc3LjAnLCAnLXRuJywgJzgnLCAnLW1hJywgJzIwMCcsICctaW1hZScsICc8aW5maWxlLm1hZT4nLCAnLW9tYWUnLCAnPG91dGZpbGUubWFlPic=

>  <r_lp_tautomer_probability>  (63) 
1

>  <r_epik_Ionization_Penalty>  (63) 
9.15803e-06

>  <r_epik_Ionization_Penalty_Charging>  (63) 
0

>  <r_epik_Ionization_Penalty_Neutral>  (63) 
9.15803e-06

>  <r_epik_State_Penalty>  (63) 
-0

>  <r_epik_Charging_Adjusted_Penalty>  (63) 
0

>  <i_epik_Tot_Q>  (63) 
0

>  <i_epik_Tot_abs_Q>  (63) 
0

>  <s_epik_Chemistry_Notes>  (63) 
This compound contains an acetal/aminal-like group ( X-CH(R)-Y where X, Y are N, S, or O) that may be acid/base labile, releasing an aldehyde.

>  <s_lp_Force_Field>  (63) 
OPLS3e

>  <r_lp_Energy>  (63) 
23.2751

>  <b_lp_Chiralities_Consistent>  (63) 
1

>  <s_lp_Variant>  (63) 
21:0-1

>  <s_i_glide_gridfile>  (63) 
pfpi4k_grid

>  <i_i_glide_lignum>  (63) 
26

>  <i_i_glide_rotatable_bonds>  (63) 
3

>  <r_i_docking_score>  (63) 
-2.67987

>  <r_i_glide_ligand_efficiency>  (63) 
-0.148881

>  <r_i_glide_ligand_efficiency_sa>  (63) 
-0.39018

>  <r_i_glide_ligand_efficiency_ln>  (63) 
-0.688846

>  <r_i_glide_gscore>  (63) 
-2.67987

>  <r_i_glide_lipo>  (63) 
-0.529302

>  <r_i_glide_hbond>  (63) 
0

>  <r_i_glide_metal>  (63) 
-0

>  <r_i_glide_rewards>  (63) 
-1.61672

>  <r_i_glide_evdw>  (63) 
-19.172

>  <r_i_glide_ecoul>  (63) 
1.35537

>  <r_i_glide_erotb>  (63) 
0.256096

>  <r_i_glide_esite>  (63) 
-0.0346409

>  <r_i_glide_emodel>  (63) 
-21.6882

>  <r_i_glide_energy>  (63) 
-17.8167

>  <r_i_glide_einternal>  (63) 
0.283191

>  <r_i_glide_intrahb_reward>  (63) 
-0

>  <i_i_glide_confnum>  (63) 
3

>  <i_i_glide_posenum>  (63) 
7

>  <r_i_glide_eff_state_penalty>  (63) 
0

>  <ligand_id>  (63) 
21

>  <original_smiles>  (63) 
COc1cccc(OC)c1C1SCc2nncn21

>  <smiles>  (63) 
[H]c1c([H])c(OC([H])([H])[H])c(C2([H])SC([H])([H])c3nnc([H])n32)c(OC([H])([H])[H])c1[H]

$$$$
22:0:0
     RDKit          3D

 37 38  0  0  1  0  0  0  0  0999 V2000
   -4.7052    4.9849    1.4709 C   0  0  0  0  0  0  0  0  0  0  0  0
   -4.6807    3.9856    2.4719 O   0  0  0  0  0  0  0  0  0  0  0  0
   -3.5934    3.0644    2.4591 C   0  0  0  0  0  0  0  0  0  0  0  0
   -2.2702    3.7149    2.9022 C   0  0  0  0  0  0  0  0  0  0  0  0
   -2.2540    4.9165    3.1577 O   0  0  0  0  0  0  0  0  0  0  0  0
   -1.2002    2.9294    3.0645 N   0  0  0  0  0  0  0  0  0  0  0  0
   -1.1217    1.4946    2.8311 C   0  0  0  0  0  0  0  0  0  0  0  0
    0.1964    1.0403    3.4572 C   0  0  1  0  0  0  0  0  0  0  0  0
    0.9512   -0.0119    2.6333 C   0  0  0  0  0  0  0  0  0  0  0  0
    2.1851    0.6983    2.0659 C   0  0  0  0  0  0  0  0  0  0  0  0
    1.8921    2.1912    2.2052 C   0  0  0  0  0  0  0  0  0  0  0  0
    1.0755    2.2924    3.5073 C   0  0  2  0  0  0  0  0  0  0  0  0
    1.9875    2.3210    4.7489 C   0  0  0  0  0  0  0  0  0  0  0  0
    2.7961    3.4824    4.7217 O   0  0  0  0  0  0  0  0  0  0  0  0
    3.7110    3.5150    5.7987 C   0  0  0  0  0  0  0  0  0  0  0  0
    0.0870    3.4637    3.5306 C   0  0  0  0  0  0  0  0  0  0  0  0
   -5.6461    5.5325    1.5454 H   0  0  0  0  0  0  0  0  0  0  0  0
   -4.6944    4.5419    0.4824 H   0  0  0  0  0  0  0  0  0  0  0  0
   -3.8600    5.6588    1.5814 H   0  0  0  0  0  0  0  0  0  0  0  0
   -3.8308    2.3145    3.2079 H   0  0  0  0  0  0  0  0  0  0  0  0
   -3.5049    2.5476    1.5028 H   0  0  0  0  0  0  0  0  0  0  0  0
   -1.9403    0.9410    3.2950 H   0  0  0  0  0  0  0  0  0  0  0  0
   -1.1535    1.3297    1.7509 H   0  0  0  0  0  0  0  0  0  0  0  0
   -0.0159    0.6905    4.4698 H   0  0  0  0  0  0  0  0  0  0  0  0
    1.2342   -0.8548    3.2647 H   0  0  0  0  0  0  0  0  0  0  0  0
    0.3273   -0.3958    1.8258 H   0  0  0  0  0  0  0  0  0  0  0  0
    3.0544    0.4478    2.6709 H   0  0  0  0  0  0  0  0  0  0  0  0
    2.3981    0.4036    1.0404 H   0  0  0  0  0  0  0  0  0  0  0  0
    2.7955    2.8013    2.2201 H   0  0  0  0  0  0  0  0  0  0  0  0
    1.2997    2.5263    1.3521 H   0  0  0  0  0  0  0  0  0  0  0  0
    1.3915    2.3122    5.6623 H   0  0  0  0  0  0  0  0  0  0  0  0
    2.6131    1.4311    4.7725 H   0  0  0  0  0  0  0  0  0  0  0  0
    4.3143    4.4212    5.7393 H   0  0  0  0  0  0  0  0  0  0  0  0
    4.3824    2.6547    5.7664 H   0  0  0  0  0  0  0  0  0  0  0  0
    3.1810    3.5141    6.7527 H   0  0  0  0  0  0  0  0  0  0  0  0
    0.4016    4.2787    2.8840 H   0  0  0  0  0  0  0  0  0  0  0  0
   -0.0575    3.8732    4.5305 H   0  0  0  0  0  0  0  0  0  0  0  0
  1  2  1  0
  1 17  1  0
  1 18  1  0
  1 19  1  0
  2  3  1  0
  3  4  1  0
  3 20  1  0
  3 21  1  0
  4  5  2  0
  4  6  1  0
  6 16  1  0
  6  7  1  0
  7  8  1  0
  7 22  1  0
  7 23  1  0
  8 12  1  0
  8  9  1  0
  8 24  1  1
  9 10  1  0
  9 25  1  0
  9 26  1  0
 10 11  1  0
 10 27  1  0
 10 28  1  0
 11 12  1  0
 11 29  1  0
 11 30  1  0
 12 13  1  1
 12 16  1  0
 13 14  1  0
 13 31  1  0
 13 32  1  0
 14 15  1  0
 15 33  1  0
 15 34  1  0
 15 35  1  0
 16 36  1  0
 16 37  1  0
M  END
>  <i_m_ct_stereo_status>  (64) 
1

>  <s_m_source_file>  (64) 
/var/tmp/pbs.5076255.sched01/tmpcm5es6vs/0d3z1so5d.sdf

>  <i_m_source_file_index>  (64) 
27

>  <i_lp_mmshare_version>  (64) 
48012

>  <i_f3d_flags>  (64) 
0

>  <s_epik_input>  (64) 
W0NIM11PW0NIMl1DKD1PKU4oW0NIMl0xKVtDSDJdW0NAQEhdKFtDSDJdW0NIMl1bQ0gyXTIpW0NAXTEyW0NIMl1PW0NIM10=

>  <s_epik_cmdline>  (64) 
J2VwaWtfcHl0aG9uJywgJy1waHQnLCAnMi4wJywgJy1waCcsICc3LjAnLCAnLXRuJywgJzgnLCAnLW1hJywgJzIwMCcsICctaW1hZScsICc8aW5maWxlLm1hZT4nLCAnLW9tYWUnLCAnPG91dGZpbGUubWFlPic=

>  <r_lp_tautomer_probability>  (64) 
1

>  <r_epik_Ionization_Penalty>  (64) 
2.14389e-09

>  <r_epik_Ionization_Penalty_Charging>  (64) 
0

>  <r_epik_Ionization_Penalty_Neutral>  (64) 
2.14389e-09

>  <r_epik_State_Penalty>  (64) 
-0

>  <r_epik_Charging_Adjusted_Penalty>  (64) 
0

>  <i_epik_Tot_Q>  (64) 
0

>  <i_epik_Tot_abs_Q>  (64) 
0

>  <s_lp_Force_Field>  (64) 
OPLS3e

>  <r_lp_Energy>  (64) 
8.83847

>  <b_lp_Chiralities_Consistent>  (64) 
1

>  <s_lp_Variant>  (64) 
22:0-1

>  <s_i_glide_gridfile>  (64) 
pfpi4k_grid

>  <i_i_glide_lignum>  (64) 
27

>  <i_i_glide_rotatable_bonds>  (64) 
5

>  <r_i_docking_score>  (64) 
-2.92636

>  <r_i_glide_ligand_efficiency>  (64) 
-0.182898

>  <r_i_glide_ligand_efficiency_sa>  (64) 
-0.460873

>  <r_i_glide_ligand_efficiency_ln>  (64) 
-0.775691

>  <r_i_glide_gscore>  (64) 
-2.92636

>  <r_i_glide_lipo>  (64) 
-0.216958

>  <r_i_glide_hbond>  (64) 
-0.16

>  <r_i_glide_metal>  (64) 
-0

>  <r_i_glide_rewards>  (64) 
-1.85932

>  <r_i_glide_evdw>  (64) 
-13.1692

>  <r_i_glide_ecoul>  (64) 
-5.74281

>  <r_i_glide_erotb>  (64) 
0.987965

>  <r_i_glide_esite>  (64) 
-0.15817

>  <r_i_glide_emodel>  (64) 
-21.8767

>  <r_i_glide_energy>  (64) 
-18.9121

>  <r_i_glide_einternal>  (64) 
1.07464

>  <r_i_glide_intrahb_reward>  (64) 
-0

>  <i_i_glide_confnum>  (64) 
3

>  <i_i_glide_posenum>  (64) 
12

>  <r_i_glide_eff_state_penalty>  (64) 
0

>  <ligand_id>  (64) 
22

>  <original_smiles>  (64) 
COCC(=O)N1CC2CCCC2(COC)C1

>  <smiles>  (64) 
[H]C([H])([H])OC([H])([H])C(=O)N1C([H])([H])C2([H])C([H])([H])C([H])([H])C([H])([H])C2(C([H])([H])OC([H])([H])[H])C1([H])[H]

$$$$
22:0:1
     RDKit          3D

 37 38  0  0  1  0  0  0  0  0999 V2000
    2.1977   -2.7139    4.7503 C   0  0  0  0  0  0  0  0  0  0  0  0
    2.0628   -3.3892    3.5111 O   0  0  0  0  0  0  0  0  0  0  0  0
    3.1927   -3.1927    2.6769 C   0  0  0  0  0  0  0  0  0  0  0  0
    2.9883   -3.9206    1.3369 C   0  0  0  0  0  0  0  0  0  0  0  0
    2.3650   -4.9832    1.3154 O   0  0  0  0  0  0  0  0  0  0  0  0
    3.4975   -3.3743    0.2131 N   0  0  0  0  0  0  0  0  0  0  0  0
    3.3988   -3.9955   -1.1021 C   0  0  0  0  0  0  0  0  0  0  0  0
    4.0285   -3.0259   -2.1036 C   0  0  1  0  0  0  0  0  0  0  0  0
    3.0421   -2.1073   -2.8263 C   0  0  0  0  0  0  0  0  0  0  0  0
    3.8501   -0.8512   -3.1226 C   0  0  0  0  0  0  0  0  0  0  0  0
    4.8359   -0.7173   -1.9546 C   0  0  0  0  0  0  0  0  0  0  0  0
    4.9095   -2.0990   -1.2647 C   0  0  2  0  0  0  0  0  0  0  0  0
    6.3528   -2.6417   -1.1721 C   0  0  0  0  0  0  0  0  0  0  0  0
    7.1163   -1.7974   -0.3284 O   0  0  0  0  0  0  0  0  0  0  0  0
    8.4414   -2.2598   -0.1452 C   0  0  0  0  0  0  0  0  0  0  0  0
    4.2285   -2.1162    0.1211 C   0  0  0  0  0  0  0  0  0  0  0  0
    1.3020   -2.8686    5.3530 H   0  0  0  0  0  0  0  0  0  0  0  0
    2.3255   -1.6380    4.6106 H   0  0  0  0  0  0  0  0  0  0  0  0
    3.0540   -3.0933    5.3107 H   0  0  0  0  0  0  0  0  0  0  0  0
    3.3290   -2.1227    2.5466 H   0  0  0  0  0  0  0  0  0  0  0  0
    4.0917   -3.5849    3.1555 H   0  0  0  0  0  0  0  0  0  0  0  0
    3.9863   -4.9145   -1.0741 H   0  0  0  0  0  0  0  0  0  0  0  0
    2.3683   -4.2474   -1.3631 H   0  0  0  0  0  0  0  0  0  0  0  0
    4.6132   -3.5648   -2.8529 H   0  0  0  0  0  0  0  0  0  0  0  0
    2.6129   -2.5672   -3.7170 H   0  0  0  0  0  0  0  0  0  0  0  0
    2.2200   -1.8573   -2.1610 H   0  0  0  0  0  0  0  0  0  0  0  0
    4.4029   -0.9900   -4.0491 H   0  0  0  0  0  0  0  0  0  0  0  0
    3.2182    0.0273   -3.2434 H   0  0  0  0  0  0  0  0  0  0  0  0
    5.8038   -0.3879   -2.3189 H   0  0  0  0  0  0  0  0  0  0  0  0
    4.4951    0.0401   -1.2488 H   0  0  0  0  0  0  0  0  0  0  0  0
    6.3564   -3.6548   -0.7703 H   0  0  0  0  0  0  0  0  0  0  0  0
    6.8119   -2.6881   -2.1601 H   0  0  0  0  0  0  0  0  0  0  0  0
    8.9843   -1.5737    0.5056 H   0  0  0  0  0  0  0  0  0  0  0  0
    8.9679   -2.3136   -1.0978 H   0  0  0  0  0  0  0  0  0  0  0  0
    8.4444   -3.2468    0.3187 H   0  0  0  0  0  0  0  0  0  0  0  0
    3.4951   -1.3135    0.2194 H   0  0  0  0  0  0  0  0  0  0  0  0
    4.9536   -2.0125    0.9321 H   0  0  0  0  0  0  0  0  0  0  0  0
  1  2  1  0
  1 17  1  0
  1 18  1  0
  1 19  1  0
  2  3  1  0
  3  4  1  0
  3 20  1  0
  3 21  1  0
  4  5  2  0
  4  6  1  0
  6 16  1  0
  6  7  1  0
  7  8  1  0
  7 22  1  0
  7 23  1  0
  8 12  1  0
  8  9  1  0
  8 24  1  6
  9 10  1  0
  9 25  1  0
  9 26  1  0
 10 11  1  0
 10 27  1  0
 10 28  1  0
 11 12  1  0
 11 29  1  0
 11 30  1  0
 12 13  1  1
 12 16  1  0
 13 14  1  0
 13 31  1  0
 13 32  1  0
 14 15  1  0
 15 33  1  0
 15 34  1  0
 15 35  1  0
 16 36  1  0
 16 37  1  0
M  END
>  <i_m_ct_stereo_status>  (65) 
1

>  <s_m_source_file>  (65) 
/var/tmp/pbs.5076255.sched01/tmpcm5es6vs/0d3z1so5d.sdf

>  <i_m_source_file_index>  (65) 
27

>  <i_lp_mmshare_version>  (65) 
48012

>  <i_f3d_flags>  (65) 
0

>  <s_epik_input>  (65) 
W0NIM11PW0NIMl1DKD1PKU4oW0NIMl0xKVtDSDJdW0NAQEhdKFtDSDJdW0NIMl1bQ0gyXTIpW0NAXTEyW0NIMl1PW0NIM10=

>  <s_epik_cmdline>  (65) 
J2VwaWtfcHl0aG9uJywgJy1waHQnLCAnMi4wJywgJy1waCcsICc3LjAnLCAnLXRuJywgJzgnLCAnLW1hJywgJzIwMCcsICctaW1hZScsICc8aW5maWxlLm1hZT4nLCAnLW9tYWUnLCAnPG91dGZpbGUubWFlPic=

>  <r_lp_tautomer_probability>  (65) 
1

>  <r_epik_Ionization_Penalty>  (65) 
2.14389e-09

>  <r_epik_Ionization_Penalty_Charging>  (65) 
0

>  <r_epik_Ionization_Penalty_Neutral>  (65) 
2.14389e-09

>  <r_epik_State_Penalty>  (65) 
-0

>  <r_epik_Charging_Adjusted_Penalty>  (65) 
0

>  <i_epik_Tot_Q>  (65) 
0

>  <i_epik_Tot_abs_Q>  (65) 
0

>  <s_lp_Force_Field>  (65) 
OPLS3e

>  <r_lp_Energy>  (65) 
8.83847

>  <b_lp_Chiralities_Consistent>  (65) 
1

>  <s_lp_Variant>  (65) 
22:0-1

>  <s_i_glide_gridfile>  (65) 
pfpi4k_grid

>  <i_i_glide_lignum>  (65) 
27

>  <i_i_glide_rotatable_bonds>  (65) 
5

>  <r_i_docking_score>  (65) 
-2.27492

>  <r_i_glide_ligand_efficiency>  (65) 
-0.142182

>  <r_i_glide_ligand_efficiency_sa>  (65) 
-0.358277

>  <r_i_glide_ligand_efficiency_ln>  (65) 
-0.603012

>  <r_i_glide_gscore>  (65) 
-2.27492

>  <r_i_glide_lipo>  (65) 
-0.114184

>  <r_i_glide_hbond>  (65) 
-0.147676

>  <r_i_glide_metal>  (65) 
-0

>  <r_i_glide_rewards>  (65) 
-1.85932

>  <r_i_glide_evdw>  (65) 
-15.8433

>  <r_i_glide_ecoul>  (65) 
-2.30321

>  <r_i_glide_erotb>  (65) 
0.987965

>  <r_i_glide_esite>  (65) 
-0.00405985

>  <r_i_glide_emodel>  (65) 
-20.9647

>  <r_i_glide_energy>  (65) 
-18.1465

>  <r_i_glide_einternal>  (65) 
0.0743222

>  <r_i_glide_intrahb_reward>  (65) 
-0

>  <i_i_glide_confnum>  (65) 
6

>  <i_i_glide_posenum>  (65) 
34

>  <r_i_glide_eff_state_penalty>  (65) 
0

>  <ligand_id>  (65) 
22

>  <original_smiles>  (65) 
COCC(=O)N1CC2CCCC2(COC)C1

>  <smiles>  (65) 
[H]C([H])([H])OC([H])([H])C(=O)N1C([H])([H])C2([H])C([H])([H])C([H])([H])C([H])([H])C2(C([H])([H])OC([H])([H])[H])C1([H])[H]

$$$$
22:0:2
     RDKit          3D

 37 38  0  0  1  0  0  0  0  0999 V2000
    3.7951    0.5432    3.7859 C   0  0  0  0  0  0  0  0  0  0  0  0
    3.0382   -0.6263    3.4811 O   0  0  0  0  0  0  0  0  0  0  0  0
    2.9471   -0.9750    2.0981 C   0  0  0  0  0  0  0  0  0  0  0  0
    4.2669   -1.5861    1.5837 C   0  0  0  0  0  0  0  0  0  0  0  0
    5.1712   -1.8501    2.3645 O   0  0  0  0  0  0  0  0  0  0  0  0
    4.3964   -1.8147    0.2626 N   0  0  0  0  0  0  0  0  0  0  0  0
    5.6372   -2.2534   -0.3562 C   0  0  0  0  0  0  0  0  0  0  0  0
    5.4337   -2.1046   -1.8734 C   0  0  1  0  0  0  0  0  0  0  0  0
    6.0277   -3.2483   -2.6993 C   0  0  0  0  0  0  0  0  0  0  0  0
    4.8429   -4.0477   -3.2317 C   0  0  0  0  0  0  0  0  0  0  0  0
    3.6530   -3.6177   -2.3732 C   0  0  0  0  0  0  0  0  0  0  0  0
    3.9168   -2.1385   -2.0751 C   0  0  2  0  0  0  0  0  0  0  0  0
    3.4085   -1.2780   -3.2529 C   0  0  0  0  0  0  0  0  0  0  0  0
    3.9669    0.0088   -3.1477 O   0  0  0  0  0  0  0  0  0  0  0  0
    3.7455    0.7911   -4.2973 C   0  0  0  0  0  0  0  0  0  0  0  0
    3.3404   -1.6979   -0.7208 C   0  0  0  0  0  0  0  0  0  0  0  0
    3.7535    0.7199    4.8616 H   0  0  0  0  0  0  0  0  0  0  0  0
    3.3887    1.4234    3.2850 H   0  0  0  0  0  0  0  0  0  0  0  0
    4.8448    0.4353    3.5132 H   0  0  0  0  0  0  0  0  0  0  0  0
    2.1587   -1.7164    1.9835 H   0  0  0  0  0  0  0  0  0  0  0  0
    2.6245   -0.1116    1.5150 H   0  0  0  0  0  0  0  0  0  0  0  0
    6.4674   -1.6361   -0.0125 H   0  0  0  0  0  0  0  0  0  0  0  0
    5.8170   -3.2834   -0.0470 H   0  0  0  0  0  0  0  0  0  0  0  0
    5.8551   -1.1434   -2.1532 H   0  0  0  0  0  0  0  0  0  0  0  0
    6.6212   -2.8720   -3.5255 H   0  0  0  0  0  0  0  0  0  0  0  0
    6.6857   -3.8598   -2.0804 H   0  0  0  0  0  0  0  0  0  0  0  0
    4.6568   -3.7946   -4.2727 H   0  0  0  0  0  0  0  0  0  0  0  0
    5.0150   -5.1190   -3.1827 H   0  0  0  0  0  0  0  0  0  0  0  0
    2.6874   -3.7972   -2.8604 H   0  0  0  0  0  0  0  0  0  0  0  0
    3.6583   -4.2009   -1.4466 H   0  0  0  0  0  0  0  0  0  0  0  0
    3.7019   -1.7061   -4.2076 H   0  0  0  0  0  0  0  0  0  0  0  0
    2.3229   -1.2340   -3.2564 H   0  0  0  0  0  0  0  0  0  0  0  0
    4.1918    1.7656   -4.1303 H   0  0  0  0  0  0  0  0  0  0  0  0
    2.6806    0.9202   -4.4845 H   0  0  0  0  0  0  0  0  0  0  0  0
    4.2090    0.3505   -5.1764 H   0  0  0  0  0  0  0  0  0  0  0  0
    2.4864   -2.3108   -0.4357 H   0  0  0  0  0  0  0  0  0  0  0  0
    3.0104   -0.6652   -0.7535 H   0  0  0  0  0  0  0  0  0  0  0  0
  1  2  1  0
  1 17  1  0
  1 18  1  0
  1 19  1  0
  2  3  1  0
  3  4  1  0
  3 20  1  0
  3 21  1  0
  4  5  2  0
  4  6  1  0
  6 16  1  0
  6  7  1  0
  7  8  1  0
  7 22  1  0
  7 23  1  0
  8 12  1  0
  8  9  1  0
  8 24  1  6
  9 10  1  0
  9 25  1  0
  9 26  1  0
 10 11  1  0
 10 27  1  0
 10 28  1  0
 11 12  1  0
 11 29  1  0
 11 30  1  0
 12 13  1  6
 12 16  1  0
 13 14  1  0
 13 31  1  0
 13 32  1  0
 14 15  1  0
 15 33  1  0
 15 34  1  0
 15 35  1  0
 16 36  1  0
 16 37  1  0
M  END
>  <i_m_ct_stereo_status>  (66) 
1

>  <s_m_source_file>  (66) 
/var/tmp/pbs.5076255.sched01/tmpcm5es6vs/0d3z1so5d.sdf

>  <i_m_source_file_index>  (66) 
27

>  <i_lp_mmshare_version>  (66) 
48012

>  <i_f3d_flags>  (66) 
0

>  <s_epik_input>  (66) 
W0NIM11PW0NIMl1DKD1PKU4oW0NIMl0xKVtDSDJdW0NAQEhdKFtDSDJdW0NIMl1bQ0gyXTIpW0NAXTEyW0NIMl1PW0NIM10=

>  <s_epik_cmdline>  (66) 
J2VwaWtfcHl0aG9uJywgJy1waHQnLCAnMi4wJywgJy1waCcsICc3LjAnLCAnLXRuJywgJzgnLCAnLW1hJywgJzIwMCcsICctaW1hZScsICc8aW5maWxlLm1hZT4nLCAnLW9tYWUnLCAnPG91dGZpbGUubWFlPic=

>  <r_lp_tautomer_probability>  (66) 
1

>  <r_epik_Ionization_Penalty>  (66) 
2.14389e-09

>  <r_epik_Ionization_Penalty_Charging>  (66) 
0

>  <r_epik_Ionization_Penalty_Neutral>  (66) 
2.14389e-09

>  <r_epik_State_Penalty>  (66) 
-0

>  <r_epik_Charging_Adjusted_Penalty>  (66) 
0

>  <i_epik_Tot_Q>  (66) 
0

>  <i_epik_Tot_abs_Q>  (66) 
0

>  <s_lp_Force_Field>  (66) 
OPLS3e

>  <r_lp_Energy>  (66) 
8.83847

>  <b_lp_Chiralities_Consistent>  (66) 
1

>  <s_lp_Variant>  (66) 
22:0-1

>  <s_i_glide_gridfile>  (66) 
pfpi4k_grid

>  <i_i_glide_lignum>  (66) 
27

>  <i_i_glide_rotatable_bonds>  (66) 
5

>  <r_i_docking_score>  (66) 
-2.25788

>  <r_i_glide_ligand_efficiency>  (66) 
-0.141118

>  <r_i_glide_ligand_efficiency_sa>  (66) 
-0.355594

>  <r_i_glide_ligand_efficiency_ln>  (66) 
-0.598497

>  <r_i_glide_gscore>  (66) 
-2.25788

>  <r_i_glide_lipo>  (66) 
-0.350695

>  <r_i_glide_hbond>  (66) 
0

>  <r_i_glide_metal>  (66) 
-0

>  <r_i_glide_rewards>  (66) 
-1.86083

>  <r_i_glide_evdw>  (66) 
-17.4214

>  <r_i_glide_ecoul>  (66) 
-1.01044

>  <r_i_glide_erotb>  (66) 
0.987965

>  <r_i_glide_esite>  (66) 
-0.0116891

>  <r_i_glide_emodel>  (66) 
-19.9081

>  <r_i_glide_energy>  (66) 
-18.4319

>  <r_i_glide_einternal>  (66) 
2.16337

>  <r_i_glide_intrahb_reward>  (66) 
-0

>  <i_i_glide_confnum>  (66) 
5

>  <i_i_glide_posenum>  (66) 
4

>  <r_i_glide_eff_state_penalty>  (66) 
0

>  <ligand_id>  (66) 
22

>  <original_smiles>  (66) 
COCC(=O)N1CC2CCCC2(COC)C1

>  <smiles>  (66) 
[H]C([H])([H])OC([H])([H])C(=O)N1C([H])([H])C2([H])C([H])([H])C([H])([H])C([H])([H])C2(C([H])([H])OC([H])([H])[H])C1([H])[H]

$$$$
23:0:0
     RDKit          3D

 54 59  0  0  1  0  0  0  0  0999 V2000
    3.5051   -6.7950    4.9752 C   0  0  0  0  0  0  0  0  0  0  0  0
    4.3490   -6.2842    4.0836 C   0  0  0  0  0  0  0  0  0  0  0  0
    5.3169   -5.2249    4.2202 C   0  0  0  0  0  0  0  0  0  0  0  0
    5.6526   -4.5749    5.1923 O   0  0  0  0  0  0  0  0  0  0  0  0
    5.6416   -5.3701    2.6974 C   0  0  2  0  0  0  0  0  0  0  0  0
    7.0679   -5.4802    2.2194 C   0  0  0  0  0  0  0  0  0  0  0  0
    6.9892   -5.1030    0.7494 C   0  0  0  0  0  0  0  0  0  0  0  0
    5.7906   -4.0811    0.5803 C   0  0  1  0  0  0  0  0  0  0  0  0
    6.2358   -2.5827    0.8362 C   0  0  1  0  0  0  0  0  0  0  0  0
    7.6302   -2.3694    0.7790 O   0  0  0  0  0  0  0  0  0  0  0  0
    5.5595   -1.5677   -0.1488 C   0  0  2  0  0  0  0  0  0  0  0  0
    4.1310   -1.3870    0.4307 C   0  0  0  0  0  0  0  0  0  0  0  0
    3.2215   -2.5614    0.0096 C   0  0  0  0  0  0  0  0  0  0  0  0
    3.8144   -3.3338   -1.1772 C   0  0  1  0  0  0  0  0  0  0  0  0
    4.1834   -2.3208   -2.2946 C   0  0  0  0  0  0  0  0  0  0  0  0
    4.0490   -2.9659   -3.6970 C   0  0  0  0  0  0  0  0  0  0  0  0
    3.4107   -1.0167   -2.5119 C   0  0  0  0  0  0  0  0  0  0  0  0
    5.5937   -2.0151   -1.7116 C   0  0  2  0  0  0  0  0  0  0  0  0
    6.1919   -3.4049   -1.8384 C   0  0  1  0  0  0  0  0  0  0  0  0
    7.5917   -3.3413   -1.6317 O   0  0  0  0  0  0  0  0  0  0  0  0
    5.1999   -4.0938   -0.8558 C   0  0  1  0  0  0  0  0  0  0  0  0
    5.0230   -5.4481   -1.1212 O   0  0  0  0  0  0  0  0  0  0  0  0
    4.8182   -4.5532    1.7078 C   0  0  1  0  0  0  0  0  0  0  0  0
    3.9828   -5.8403    1.5889 C   0  0  0  0  0  0  0  0  0  0  0  0
    2.8962   -6.1663    0.8878 C   0  0  0  0  0  0  0  0  0  0  0  0
    4.7221   -6.6260    2.6400 C   0  0  2  0  0  0  0  0  0  0  0  0
    2.8992   -7.6229    4.6410 H   0  0  0  0  0  0  0  0  0  0  0  0
    3.3954   -6.4236    5.9935 H   0  0  0  0  0  0  0  0  0  0  0  0
    7.6911   -4.7239    2.6361 H   0  0  0  0  0  0  0  0  0  0  0  0
    7.5309   -6.4508    2.4035 H   0  0  0  0  0  0  0  0  0  0  0  0
    7.9583   -4.7736    0.3721 H   0  0  0  0  0  0  0  0  0  0  0  0
    6.7799   -6.0524    0.2564 H   0  0  0  0  0  0  0  0  0  0  0  0
    5.9947   -2.3297    1.8671 H   0  0  0  0  0  0  0  0  0  0  0  0
    7.9259   -2.7959   -0.0224 H   0  0  0  0  0  0  0  0  0  0  0  0
    6.0729   -0.6112   -0.0397 H   0  0  0  0  0  0  0  0  0  0  0  0
    4.1459   -1.3289    1.5204 H   0  0  0  0  0  0  0  0  0  0  0  0
    3.7125   -0.4247    0.1392 H   0  0  0  0  0  0  0  0  0  0  0  0
    2.9427   -3.2062    0.8339 H   0  0  0  0  0  0  0  0  0  0  0  0
    2.2497   -2.2093   -0.2901 H   0  0  0  0  0  0  0  0  0  0  0  0
    3.0371   -3.9962   -1.5496 H   0  0  0  0  0  0  0  0  0  0  0  0
    4.7275   -2.4379   -4.3560 H   0  0  0  0  0  0  0  0  0  0  0  0
    3.0419   -2.8292   -4.1062 H   0  0  0  0  0  0  0  0  0  0  0  0
    4.2448   -4.0386   -3.7215 H   0  0  0  0  0  0  0  0  0  0  0  0
    3.4943   -0.6183   -3.5281 H   0  0  0  0  0  0  0  0  0  0  0  0
    3.8778   -0.2531   -1.9048 H   0  0  0  0  0  0  0  0  0  0  0  0
    2.3416   -1.1252   -2.3182 H   0  0  0  0  0  0  0  0  0  0  0  0
    6.1355   -1.2730   -2.2871 H   0  0  0  0  0  0  0  0  0  0  0  0
    6.1338   -3.8253   -2.8355 H   0  0  0  0  0  0  0  0  0  0  0  0
    8.0212   -3.2924   -2.4825 H   0  0  0  0  0  0  0  0  0  0  0  0
    4.3979   -5.4996   -1.8216 H   0  0  0  0  0  0  0  0  0  0  0  0
    4.3321   -3.7584    2.2593 H   0  0  0  0  0  0  0  0  0  0  0  0
    2.4196   -5.4872    0.1882 H   0  0  0  0  0  0  0  0  0  0  0  0
    2.4668   -7.1475    1.0357 H   0  0  0  0  0  0  0  0  0  0  0  0
    5.2899   -7.5192    2.3778 H   0  0  0  0  0  0  0  0  0  0  0  0
  1  2  2  0
  1 27  1  0
  1 28  1  0
  2 26  1  0
  2  3  1  0
  3  4  2  0
  3  5  1  0
  5 23  1  0
  5 26  1  0
  5  6  1  1
  6  7  1  0
  6 29  1  0
  6 30  1  0
  8  7  1  6
  7 31  1  0
  7 32  1  0
  8 21  1  0
  8  9  1  0
  8 23  1  0
  9 10  1  0
  9 11  1  0
  9 33  1  1
 10 34  1  0
 11 18  1  0
 11 12  1  0
 11 35  1  6
 12 13  1  0
 12 36  1  0
 12 37  1  0
 13 14  1  0
 13 38  1  0
 13 39  1  0
 14 21  1  0
 14 15  1  0
 14 40  1  6
 15 16  1  0
 15 17  1  0
 15 18  1  0
 16 41  1  0
 16 42  1  0
 16 43  1  0
 17 44  1  0
 17 45  1  0
 17 46  1  0
 18 19  1  0
 18 47  1  6
 19 20  1  0
 19 21  1  0
 19 48  1  6
 20 49  1  0
 21 22  1  6
 22 50  1  0
 23 24  1  0
 23 51  1  1
 24 25  2  0
 24 26  1  0
 25 52  1  0
 25 53  1  0
 26 54  1  6
M  END
>  <i_m_ct_stereo_status>  (67) 
1

>  <s_m_source_file>  (67) 
/var/tmp/pbs.5076255.sched01/tmpcm5es6vs/0d3z1so5d.sdf

>  <i_m_source_file_index>  (67) 
28

>  <i_lp_mmshare_version>  (67) 
48012

>  <i_f3d_flags>  (67) 
0

>  <s_epik_input>  (67) 
Tz1DMUMoPVtDSDJdKVtDQEhdMkMoPVtDSDJdKVtDQEBIXShbQ0BAXTEyMylbQ0BAXTQoW0NIMl1bQ0gyXTMpW0NAQF01KFtPSF0pW0NASF02W0NIMl1bQ0gyXVtDQEBIXShbQ0BASF00W09IXSlbQ0BIXShDNihbQ0gzXSlbQ0gzXSlbQ0BIXTVbT0hd

>  <s_epik_cmdline>  (67) 
J2VwaWtfcHl0aG9uJywgJy1waHQnLCAnMi4wJywgJy1waCcsICc3LjAnLCAnLXRuJywgJzgnLCAnLW1hJywgJzIwMCcsICctaW1hZScsICc8aW5maWxlLm1hZT4nLCAnLW9tYWUnLCAnPG91dGZpbGUubWFlPic=

>  <r_lp_tautomer_probability>  (67) 
1

>  <r_epik_Ionization_Penalty>  (67) 
1.36927e-06

>  <r_epik_Ionization_Penalty_Charging>  (67) 
0

>  <r_epik_Ionization_Penalty_Neutral>  (67) 
1.36927e-06

>  <r_epik_State_Penalty>  (67) 
-0

>  <r_epik_Charging_Adjusted_Penalty>  (67) 
0

>  <i_epik_Tot_Q>  (67) 
0

>  <i_epik_Tot_abs_Q>  (67) 
0

>  <s_lp_Force_Field>  (67) 
OPLS3e

>  <r_lp_Energy>  (67) 
116.474

>  <b_lp_Chiralities_Consistent>  (67) 
1

>  <s_lp_Variant>  (67) 
23:0-1

>  <s_i_glide_gridfile>  (67) 
pfpi4k_grid

>  <i_i_glide_lignum>  (67) 
28

>  <i_i_glide_rotatable_bonds>  (67) 
3

>  <r_i_docking_score>  (67) 
-4.23072

>  <r_i_glide_ligand_efficiency>  (67) 
-0.16272

>  <r_i_glide_ligand_efficiency_sa>  (67) 
-0.482057

>  <r_i_glide_ligand_efficiency_ln>  (67) 
-0.99357

>  <r_i_glide_gscore>  (67) 
-4.23072

>  <r_i_glide_lipo>  (67) 
-0.855644

>  <r_i_glide_hbond>  (67) 
0

>  <r_i_glide_metal>  (67) 
-0

>  <r_i_glide_rewards>  (67) 
-1.47939

>  <r_i_glide_evdw>  (67) 
-14.9672

>  <r_i_glide_ecoul>  (67) 
-7.64879

>  <r_i_glide_erotb>  (67) 
0

>  <r_i_glide_esite>  (67) 
0

>  <r_i_glide_emodel>  (67) 
-30.9194

>  <r_i_glide_energy>  (67) 
-22.616

>  <r_i_glide_einternal>  (67) 
1.61466

>  <r_i_glide_intrahb_reward>  (67) 
-0.5

>  <i_i_glide_confnum>  (67) 
2

>  <i_i_glide_posenum>  (67) 
2

>  <r_i_glide_eff_state_penalty>  (67) 
0

>  <ligand_id>  (67) 
23

>  <original_smiles>  (67) 
C=C1C(=O)C23CCC4(C(O)C5CCC6C(C)(C)C5C(O)C64O)C2C(=C)C13

>  <smiles>  (67) 
[H]OC1([H])C2([H])C3([H])C([H])([H])C([H])([H])C([H])(C1(O[H])C1(C([H])([H])C([H])([H])C45C(=O)C(=C([H])[H])C4([H])C(=C([H])[H])C51[H])C3([H])O[H])C2(C([H])([H])[H])C([H])([H])[H]

$$$$
23:0:1
     RDKit          3D

 54 59  0  0  1  0  0  0  0  0999 V2000
    3.3538   -1.3597   -2.4622 C   0  0  0  0  0  0  0  0  0  0  0  0
    4.2110   -1.9974   -1.6747 C   0  0  0  0  0  0  0  0  0  0  0  0
    5.2575   -2.9228   -1.9911 C   0  0  0  0  0  0  0  0  0  0  0  0
    5.7062   -3.3057   -3.0750 O   0  0  0  0  0  0  0  0  0  0  0  0
    5.5095   -3.1328   -0.4732 C   0  0  2  0  0  0  0  0  0  0  0  0
    6.9050   -3.0964    0.0438 C   0  0  0  0  0  0  0  0  0  0  0  0
    6.7725   -3.7546    1.4159 C   0  0  0  0  0  0  0  0  0  0  0  0
    5.6338   -4.8394    1.3474 C   0  0  1  0  0  0  0  0  0  0  0  0
    6.2312   -6.1904    0.7922 C   0  0  1  0  0  0  0  0  0  0  0  0
    7.6496   -6.3218    0.8146 O   0  0  0  0  0  0  0  0  0  0  0  0
    5.6057   -7.4679    1.4504 C   0  0  2  0  0  0  0  0  0  0  0  0
    4.2230   -7.6067    0.7581 C   0  0  0  0  0  0  0  0  0  0  0  0
    3.1727   -6.6768    1.3915 C   0  0  0  0  0  0  0  0  0  0  0  0
    3.6601   -6.1449    2.7623 C   0  0  1  0  0  0  0  0  0  0  0  0
    4.0788   -7.3973    3.5962 C   0  0  0  0  0  0  0  0  0  0  0  0
    3.8629   -7.1103    5.1143 C   0  0  0  0  0  0  0  0  0  0  0  0
    3.3582   -8.7685    3.4128 C   0  0  0  0  0  0  0  0  0  0  0  0
    5.5402   -7.4310    3.0659 C   0  0  2  0  0  0  0  0  0  0  0  0
    5.9830   -6.0561    3.5618 C   0  0  1  0  0  0  0  0  0  0  0  0
    7.3803   -5.8958    3.4430 O   0  0  0  0  0  0  0  0  0  0  0  0
    4.9707   -5.1979    2.7467 C   0  0  1  0  0  0  0  0  0  0  0  0
    4.6481   -4.0340    3.4839 O   0  0  0  0  0  0  0  0  0  0  0  0
    4.6971   -4.2053    0.2807 C   0  0  1  0  0  0  0  0  0  0  0  0
    3.7788   -3.0380    0.6473 C   0  0  0  0  0  0  0  0  0  0  0  0
    2.6413   -2.9499    1.3394 C   0  0  0  0  0  0  0  0  0  0  0  0
    4.4966   -1.9806   -0.1574 C   0  0  2  0  0  0  0  0  0  0  0  0
    2.6430   -0.7083   -1.9871 H   0  0  0  0  0  0  0  0  0  0  0  0
    3.3180   -1.4892   -3.5329 H   0  0  0  0  0  0  0  0  0  0  0  0
    7.5969   -3.6620   -0.6004 H   0  0  0  0  0  0  0  0  0  0  0  0
    7.3020   -2.0722    0.1412 H   0  0  0  0  0  0  0  0  0  0  0  0
    7.7429   -4.0974    1.7562 H   0  0  0  0  0  0  0  0  0  0  0  0
    6.4655   -2.9658    2.0957 H   0  0  0  0  0  0  0  0  0  0  0  0
    6.0373   -6.2032   -0.2689 H   0  0  0  0  0  0  0  0  0  0  0  0
    7.9187   -6.3751    1.7194 H   0  0  0  0  0  0  0  0  0  0  0  0
    6.1963   -8.3352    1.1495 H   0  0  0  0  0  0  0  0  0  0  0  0
    4.2826   -7.3955   -0.3120 H   0  0  0  0  0  0  0  0  0  0  0  0
    3.8847   -8.6396    0.7563 H   0  0  0  0  0  0  0  0  0  0  0  0
    2.8657   -5.8807    0.7278 H   0  0  0  0  0  0  0  0  0  0  0  0
    2.2474   -7.2448    1.5232 H   0  0  0  0  0  0  0  0  0  0  0  0
    2.8233   -5.6413    3.2385 H   0  0  0  0  0  0  0  0  0  0  0  0
    4.5653   -7.6740    5.7309 H   0  0  0  0  0  0  0  0  0  0  0  0
    2.8557   -7.3889    5.4268 H   0  0  0  0  0  0  0  0  0  0  0  0
    3.9448   -6.0545    5.3804 H   0  0  0  0  0  0  0  0  0  0  0  0
    3.4709   -9.3816    4.3086 H   0  0  0  0  0  0  0  0  0  0  0  0
    3.7770   -9.3985    2.6350 H   0  0  0  0  0  0  0  0  0  0  0  0
    2.2881   -8.6546    3.2518 H   0  0  0  0  0  0  0  0  0  0  0  0
    6.1314   -8.2262    3.5187 H   0  0  0  0  0  0  0  0  0  0  0  0
    5.8717   -5.9010    4.6258 H   0  0  0  0  0  0  0  0  0  0  0  0
    7.5990   -5.0740    3.8527 H   0  0  0  0  0  0  0  0  0  0  0  0
    4.1038   -3.5028    2.9372 H   0  0  0  0  0  0  0  0  0  0  0  0
    4.2937   -4.8942   -0.4592 H   0  0  0  0  0  0  0  0  0  0  0  0
    2.1786   -3.7974    1.8201 H   0  0  0  0  0  0  0  0  0  0  0  0
    2.1261   -1.9939    1.3999 H   0  0  0  0  0  0  0  0  0  0  0  0
    4.9626   -1.1207    0.3281 H   0  0  0  0  0  0  0  0  0  0  0  0
  1  2  2  0
  1 27  1  0
  1 28  1  0
  2 26  1  0
  2  3  1  0
  3  4  2  0
  3  5  1  0
  5 23  1  0
  5 26  1  0
  5  6  1  6
  6  7  1  0
  6 29  1  0
  6 30  1  0
  8  7  1  1
  7 31  1  0
  7 32  1  0
  8 21  1  0
  8  9  1  0
  8 23  1  0
  9 10  1  0
  9 11  1  0
  9 33  1  6
 10 34  1  0
 11 18  1  0
 11 12  1  0
 11 35  1  1
 12 13  1  0
 12 36  1  0
 12 37  1  0
 13 14  1  0
 13 38  1  0
 13 39  1  0
 14 21  1  0
 14 15  1  0
 14 40  1  1
 15 16  1  0
 15 17  1  0
 15 18  1  0
 16 41  1  0
 16 42  1  0
 16 43  1  0
 17 44  1  0
 17 45  1  0
 17 46  1  0
 18 19  1  0
 18 47  1  1
 19 20  1  0
 19 21  1  0
 19 48  1  1
 20 49  1  0
 21 22  1  1
 22 50  1  0
 23 24  1  0
 23 51  1  6
 24 25  2  0
 24 26  1  0
 25 52  1  0
 25 53  1  0
 26 54  1  1
M  END
>  <i_m_ct_stereo_status>  (68) 
1

>  <s_m_source_file>  (68) 
/var/tmp/pbs.5076255.sched01/tmpcm5es6vs/0d3z1so5d.sdf

>  <i_m_source_file_index>  (68) 
28

>  <i_lp_mmshare_version>  (68) 
48012

>  <i_f3d_flags>  (68) 
0

>  <s_epik_input>  (68) 
Tz1DMUMoPVtDSDJdKVtDQEhdMkMoPVtDSDJdKVtDQEBIXShbQ0BAXTEyMylbQ0BAXTQoW0NIMl1bQ0gyXTMpW0NAQF01KFtPSF0pW0NASF02W0NIMl1bQ0gyXVtDQEBIXShbQ0BASF00W09IXSlbQ0BIXShDNihbQ0gzXSlbQ0gzXSlbQ0BIXTVbT0hd

>  <s_epik_cmdline>  (68) 
J2VwaWtfcHl0aG9uJywgJy1waHQnLCAnMi4wJywgJy1waCcsICc3LjAnLCAnLXRuJywgJzgnLCAnLW1hJywgJzIwMCcsICctaW1hZScsICc8aW5maWxlLm1hZT4nLCAnLW9tYWUnLCAnPG91dGZpbGUubWFlPic=

>  <r_lp_tautomer_probability>  (68) 
1

>  <r_epik_Ionization_Penalty>  (68) 
1.36927e-06

>  <r_epik_Ionization_Penalty_Charging>  (68) 
0

>  <r_epik_Ionization_Penalty_Neutral>  (68) 
1.36927e-06

>  <r_epik_State_Penalty>  (68) 
-0

>  <r_epik_Charging_Adjusted_Penalty>  (68) 
0

>  <i_epik_Tot_Q>  (68) 
0

>  <i_epik_Tot_abs_Q>  (68) 
0

>  <s_lp_Force_Field>  (68) 
OPLS3e

>  <r_lp_Energy>  (68) 
116.474

>  <b_lp_Chiralities_Consistent>  (68) 
1

>  <s_lp_Variant>  (68) 
23:0-1

>  <s_i_glide_gridfile>  (68) 
pfpi4k_grid

>  <i_i_glide_lignum>  (68) 
28

>  <i_i_glide_rotatable_bonds>  (68) 
3

>  <r_i_docking_score>  (68) 
-3.60766

>  <r_i_glide_ligand_efficiency>  (68) 
-0.138756

>  <r_i_glide_ligand_efficiency_sa>  (68) 
-0.411065

>  <r_i_glide_ligand_efficiency_ln>  (68) 
-0.847248

>  <r_i_glide_gscore>  (68) 
-3.60766

>  <r_i_glide_lipo>  (68) 
-0.626283

>  <r_i_glide_hbond>  (68) 
0

>  <r_i_glide_metal>  (68) 
-0

>  <r_i_glide_rewards>  (68) 
-1.59668

>  <r_i_glide_evdw>  (68) 
-24.4074

>  <r_i_glide_ecoul>  (68) 
-1.09555

>  <r_i_glide_erotb>  (68) 
0

>  <r_i_glide_esite>  (68) 
0

>  <r_i_glide_emodel>  (68) 
-35.3696

>  <r_i_glide_energy>  (68) 
-25.5029

>  <r_i_glide_einternal>  (68) 
0.400017

>  <r_i_glide_intrahb_reward>  (68) 
-0.5

>  <i_i_glide_confnum>  (68) 
2

>  <i_i_glide_posenum>  (68) 
24

>  <r_i_glide_eff_state_penalty>  (68) 
0

>  <ligand_id>  (68) 
23

>  <original_smiles>  (68) 
C=C1C(=O)C23CCC4(C(O)C5CCC6C(C)(C)C5C(O)C64O)C2C(=C)C13

>  <smiles>  (68) 
[H]OC1([H])C2([H])C3([H])C([H])([H])C([H])([H])C([H])(C1(O[H])C1(C([H])([H])C([H])([H])C45C(=O)C(=C([H])[H])C4([H])C(=C([H])[H])C51[H])C3([H])O[H])C2(C([H])([H])[H])C([H])([H])[H]

$$$$
23:0:2
     RDKit          3D

 54 59  0  0  1  0  0  0  0  0999 V2000
    3.4340   -1.3667   -2.4379 C   0  0  0  0  0  0  0  0  0  0  0  0
    4.2584   -2.0180   -1.6018 C   0  0  0  0  0  0  0  0  0  0  0  0
    5.3385   -2.9097   -1.8634 C   0  0  0  0  0  0  0  0  0  0  0  0
    5.8530   -3.2788   -2.9224 O   0  0  0  0  0  0  0  0  0  0  0  0
    5.4898   -3.1487   -0.3448 C   0  0  2  0  0  0  0  0  0  0  0  0
    6.8609   -3.0837    0.2874 C   0  0  0  0  0  0  0  0  0  0  0  0
    6.6089   -3.7825    1.6333 C   0  0  0  0  0  0  0  0  0  0  0  0
    5.5295   -4.8903    1.4492 C   0  0  1  0  0  0  0  0  0  0  0  0
    6.2058   -6.2156    0.9025 C   0  0  1  0  0  0  0  0  0  0  0  0
    7.6266   -6.2942    0.9838 O   0  0  0  0  0  0  0  0  0  0  0  0
    5.5717   -7.5164    1.5037 C   0  0  2  0  0  0  0  0  0  0  0  0
    4.2417   -7.6732    0.7126 C   0  0  0  0  0  0  0  0  0  0  0  0
    3.1240   -6.7830    1.2918 C   0  0  0  0  0  0  0  0  0  0  0  0
    3.5002   -6.2656    2.6984 C   0  0  1  0  0  0  0  0  0  0  0  0
    3.8908   -7.5269    3.5343 C   0  0  0  0  0  0  0  0  0  0  0  0
    3.5503   -7.2760    5.0378 C   0  0  0  0  0  0  0  0  0  0  0  0
    3.2158   -8.9082    3.2734 C   0  0  0  0  0  0  0  0  0  0  0  0
    5.3895   -7.5069    3.1103 C   0  0  2  0  0  0  0  0  0  0  0  0
    5.7525   -6.1258    3.6646 C   0  0  1  0  0  0  0  0  0  0  0  0
    7.1347   -5.8563    3.6933 O   0  0  0  0  0  0  0  0  0  0  0  0
    4.7794   -5.2881    2.7921 C   0  0  1  0  0  0  0  0  0  0  0  0
    4.4067   -4.1650    3.5553 O   0  0  0  0  0  0  0  0  0  0  0  0
    4.6670   -4.2503    0.3273 C   0  0  1  0  0  0  0  0  0  0  0  0
    3.7069   -3.1143    0.6592 C   0  0  0  0  0  0  0  0  0  0  0  0
    2.5280   -3.0568    1.2765 C   0  0  0  0  0  0  0  0  0  0  0  0
    4.4345   -2.0204   -0.0809 C   0  0  2  0  0  0  0  0  0  0  0  0
    2.7002   -0.7109   -2.0073 H   0  0  0  0  0  0  0  0  0  0  0  0
    3.4742   -1.4817   -3.5079 H   0  0  0  0  0  0  0  0  0  0  0  0
    7.5993   -3.6234   -0.3090 H   0  0  0  0  0  0  0  0  0  0  0  0
    7.2121   -2.0604    0.4333 H   0  0  0  0  0  0  0  0  0  0  0  0
    7.5624   -4.1215    2.0416 H   0  0  0  0  0  0  0  0  0  0  0  0
    6.2429   -3.0081    2.3036 H   0  0  0  0  0  0  0  0  0  0  0  0
    6.0807   -6.2186   -0.1774 H   0  0  0  0  0  0  0  0  0  0  0  0
    7.9250   -7.1511    0.7161 H   0  0  0  0  0  0  0  0  0  0  0  0
    6.1928   -8.3695    1.2332 H   0  0  0  0  0  0  0  0  0  0  0  0
    4.3678   -7.4385   -0.3425 H   0  0  0  0  0  0  0  0  0  0  0  0
    3.9293   -8.7140    0.6660 H   0  0  0  0  0  0  0  0  0  0  0  0
    2.8468   -5.9772    0.6204 H   0  0  0  0  0  0  0  0  0  0  0  0
    2.2070   -7.3721    1.3406 H   0  0  0  0  0  0  0  0  0  0  0  0
    2.6180   -5.7855    3.1221 H   0  0  0  0  0  0  0  0  0  0  0  0
    4.2181   -7.8351    5.6958 H   0  0  0  0  0  0  0  0  0  0  0  0
    2.5294   -7.5847    5.2692 H   0  0  0  0  0  0  0  0  0  0  0  0
    3.5826   -6.2255    5.3296 H   0  0  0  0  0  0  0  0  0  0  0  0
    3.2746   -9.5384    4.1623 H   0  0  0  0  0  0  0  0  0  0  0  0
    3.7032   -9.5143    2.5157 H   0  0  0  0  0  0  0  0  0  0  0  0
    2.1558   -8.8170    3.0356 H   0  0  0  0  0  0  0  0  0  0  0  0
    5.9597   -8.3030    3.5913 H   0  0  0  0  0  0  0  0  0  0  0  0
    5.5475   -6.0108    4.7242 H   0  0  0  0  0  0  0  0  0  0  0  0
    7.5686   -6.5313    4.1914 H   0  0  0  0  0  0  0  0  0  0  0  0
    5.1743   -3.6184    3.6343 H   0  0  0  0  0  0  0  0  0  0  0  0
    4.3279   -4.9269   -0.4463 H   0  0  0  0  0  0  0  0  0  0  0  0
    2.0661   -3.9266    1.7073 H   0  0  0  0  0  0  0  0  0  0  0  0
    1.9862   -2.1210    1.3116 H   0  0  0  0  0  0  0  0  0  0  0  0
    4.8486   -1.1592    0.4573 H   0  0  0  0  0  0  0  0  0  0  0  0
  1  2  2  0
  1 27  1  0
  1 28  1  0
  2 26  1  0
  2  3  1  0
  3  4  2  0
  3  5  1  0
  5 23  1  0
  5 26  1  0
  5  6  1  1
  6  7  1  0
  6 29  1  0
  6 30  1  0
  8  7  1  1
  7 31  1  0
  7 32  1  0
  8 21  1  0
  8  9  1  0
  8 23  1  0
  9 10  1  0
  9 11  1  0
  9 33  1  6
 10 34  1  0
 11 18  1  0
 11 12  1  0
 11 35  1  1
 12 13  1  0
 12 36  1  0
 12 37  1  0
 13 14  1  0
 13 38  1  0
 13 39  1  0
 14 21  1  0
 14 15  1  0
 14 40  1  1
 15 16  1  0
 15 17  1  0
 15 18  1  0
 16 41  1  0
 16 42  1  0
 16 43  1  0
 17 44  1  0
 17 45  1  0
 17 46  1  0
 18 19  1  0
 18 47  1  1
 19 20  1  0
 19 21  1  0
 19 48  1  1
 20 49  1  0
 21 22  1  1
 22 50  1  0
 23 24  1  0
 23 51  1  6
 24 25  2  0
 24 26  1  0
 25 52  1  0
 25 53  1  0
 26 54  1  1
M  END
>  <i_m_ct_stereo_status>  (69) 
1

>  <s_m_source_file>  (69) 
/var/tmp/pbs.5076255.sched01/tmpcm5es6vs/0d3z1so5d.sdf

>  <i_m_source_file_index>  (69) 
28

>  <i_lp_mmshare_version>  (69) 
48012

>  <i_f3d_flags>  (69) 
0

>  <s_epik_input>  (69) 
Tz1DMUMoPVtDSDJdKVtDQEhdMkMoPVtDSDJdKVtDQEBIXShbQ0BAXTEyMylbQ0BAXTQoW0NIMl1bQ0gyXTMpW0NAQF01KFtPSF0pW0NASF02W0NIMl1bQ0gyXVtDQEBIXShbQ0BASF00W09IXSlbQ0BIXShDNihbQ0gzXSlbQ0gzXSlbQ0BIXTVbT0hd

>  <s_epik_cmdline>  (69) 
J2VwaWtfcHl0aG9uJywgJy1waHQnLCAnMi4wJywgJy1waCcsICc3LjAnLCAnLXRuJywgJzgnLCAnLW1hJywgJzIwMCcsICctaW1hZScsICc8aW5maWxlLm1hZT4nLCAnLW9tYWUnLCAnPG91dGZpbGUubWFlPic=

>  <r_lp_tautomer_probability>  (69) 
1

>  <r_epik_Ionization_Penalty>  (69) 
1.36927e-06

>  <r_epik_Ionization_Penalty_Charging>  (69) 
0

>  <r_epik_Ionization_Penalty_Neutral>  (69) 
1.36927e-06

>  <r_epik_State_Penalty>  (69) 
-0

>  <r_epik_Charging_Adjusted_Penalty>  (69) 
0

>  <i_epik_Tot_Q>  (69) 
0

>  <i_epik_Tot_abs_Q>  (69) 
0

>  <s_lp_Force_Field>  (69) 
OPLS3e

>  <r_lp_Energy>  (69) 
116.474

>  <b_lp_Chiralities_Consistent>  (69) 
1

>  <s_lp_Variant>  (69) 
23:0-1

>  <s_i_glide_gridfile>  (69) 
pfpi4k_grid

>  <i_i_glide_lignum>  (69) 
28

>  <i_i_glide_rotatable_bonds>  (69) 
3

>  <r_i_docking_score>  (69) 
-2.8825

>  <r_i_glide_ligand_efficiency>  (69) 
-0.110866

>  <r_i_glide_ligand_efficiency_sa>  (69) 
-0.328439

>  <r_i_glide_ligand_efficiency_ln>  (69) 
-0.676946

>  <r_i_glide_gscore>  (69) 
-2.8825

>  <r_i_glide_lipo>  (69) 
-0.597787

>  <r_i_glide_hbond>  (69) 
0

>  <r_i_glide_metal>  (69) 
-0

>  <r_i_glide_rewards>  (69) 
-1.0639

>  <r_i_glide_evdw>  (69) 
-23.8392

>  <r_i_glide_ecoul>  (69) 
-0.192395

>  <r_i_glide_erotb>  (69) 
0

>  <r_i_glide_esite>  (69) 
0

>  <r_i_glide_emodel>  (69) 
-27.6979

>  <r_i_glide_energy>  (69) 
-24.0316

>  <r_i_glide_einternal>  (69) 
0.787145

>  <r_i_glide_intrahb_reward>  (69) 
-0

>  <i_i_glide_confnum>  (69) 
2

>  <i_i_glide_posenum>  (69) 
40

>  <r_i_glide_eff_state_penalty>  (69) 
0

>  <ligand_id>  (69) 
23

>  <original_smiles>  (69) 
C=C1C(=O)C23CCC4(C(O)C5CCC6C(C)(C)C5C(O)C64O)C2C(=C)C13

>  <smiles>  (69) 
[H]OC1([H])C2([H])C3([H])C([H])([H])C([H])([H])C([H])(C1(O[H])C1(C([H])([H])C([H])([H])C45C(=O)C(=C([H])[H])C4([H])C(=C([H])[H])C51[H])C3([H])O[H])C2(C([H])([H])[H])C([H])([H])[H]

$$$$
25:0:0
     RDKit          3D

 96103  0  0  1  0  0  0  0  0999 V2000
    0.9614    5.8208    3.6224 C   0  0  0  0  0  0  0  0  0  0  0  0
    1.1174    4.7020    4.4789 O   0  0  0  0  0  0  0  0  0  0  0  0
    0.0410    4.0307    4.9340 C   0  0  0  0  0  0  0  0  0  0  0  0
   -1.1326    4.3676    4.7612 O   0  0  0  0  0  0  0  0  0  0  0  0
    0.3847    2.7282    5.6981 C   0  0  2  0  0  0  0  0  0  0  0  0
    1.6135    2.8346    6.6826 C   0  0  1  0  0  0  0  0  0  0  0  0
    1.3889    2.8887    8.0892 O   0  0  0  0  0  0  0  0  0  0  0  0
    0.6522    4.0110    8.5484 C   0  0  0  0  0  0  0  0  0  0  0  0
    2.5685    1.6562    6.2493 C   0  0  2  0  0  0  0  0  0  0  0  0
    2.4009    1.8843    4.8283 C   0  0  0  0  0  0  0  0  0  0  0  0
    0.8928    1.4901    4.8935 C   0  0  2  0  0  0  0  0  0  0  0  0
    0.6844    1.0063    3.3994 C   0  0  1  0  0  0  0  0  0  0  0  0
    0.7169    2.1240    2.3464 C   0  0  0  0  0  0  0  0  0  0  0  0
    1.6496   -0.2164    2.9754 C   0  0  1  0  0  0  0  0  0  0  0  0
    2.8377    0.2501    2.3387 O   0  0  0  0  0  0  0  0  0  0  0  0
    3.0299   -0.2149    1.0158 C   0  0  0  0  0  0  0  0  0  0  0  0
    2.0873   -1.3229    4.0413 C   0  0  1  0  0  0  0  0  0  0  0  0
    2.8764   -2.5340    3.5468 C   0  0  0  0  0  0  0  0  0  0  0  0
    3.3111   -3.2838    4.8500 C   0  0  2  0  0  0  0  0  0  0  0  0
    4.7925   -3.5246    4.7921 N   0  0  0  0  0  0  0  0  0  0  0  0
    5.1980   -4.5312    3.7483 C   0  0  0  0  0  0  0  0  0  0  0  0
    4.4353   -5.8485    3.8983 C   0  0  0  0  0  0  0  0  0  0  0  0
    2.9203   -5.6707    4.0418 C   0  0  0  0  0  0  0  0  0  0  0  0
    2.6746   -4.6379    5.1531 C   0  0  2  0  0  0  0  0  0  0  0  0
    1.2958   -4.2684    5.6816 C   0  0  1  0  0  0  0  0  0  0  0  0
    0.6669   -5.4104    6.2688 O   0  0  0  0  0  0  0  0  0  0  0  0
   -0.0939   -6.2307    5.3871 C   0  0  0  0  0  0  0  0  0  0  0  0
    1.6022   -3.1219    6.7277 C   0  0  2  0  0  0  0  0  0  0  0  0
    1.9861   -3.6427    8.1286 C   0  0  0  0  0  0  0  0  0  0  0  0
    0.5536   -3.5771    8.5611 C   0  0  0  0  0  0  0  0  0  0  0  0
    0.3316   -2.4928    7.4972 C   0  0  2  0  0  0  0  0  0  0  0  0
   -0.9005   -2.7238    6.8691 O   0  0  0  0  0  0  0  0  0  0  0  0
    0.2208   -1.0843    8.1825 C   0  0  0  0  0  0  0  0  0  0  0  0
   -0.0756    0.2255    7.3539 C   0  0  0  0  0  0  0  0  0  0  0  0
    0.6110    0.2858    5.9355 C   0  0  1  0  0  0  0  0  0  0  0  0
   -0.2211   -0.6787    5.2725 O   0  0  0  0  0  0  0  0  0  0  0  0
   -1.6090   -0.3863    5.0522 C   0  0  0  0  0  0  0  0  0  0  0  0
    2.0958    0.1312    6.3136 C   0  0  1  0  0  0  0  0  0  0  0  0
    2.7614   -0.9761    5.4369 C   0  0  2  0  0  0  0  0  0  0  0  0
    4.1186   -0.6095    5.1557 O   0  0  0  0  0  0  0  0  0  0  0  0
    5.1330   -0.3014    5.9935 C   0  0  0  0  0  0  0  0  0  0  0  0
    4.8817   -0.4698    7.5163 C   0  0  0  0  0  0  0  0  0  0  0  0
    6.2084    0.0895    5.5517 O   0  0  0  0  0  0  0  0  0  0  0  0
    2.8608   -2.3891    6.0593 C   0  0  2  0  0  0  0  0  0  0  0  0
    1.9599    6.1658    3.3543 H   0  0  0  0  0  0  0  0  0  0  0  0
    0.4343    6.6408    4.1192 H   0  0  0  0  0  0  0  0  0  0  0  0
    0.4384    5.5534    2.7010 H   0  0  0  0  0  0  0  0  0  0  0  0
   -0.5088    2.4785    6.2554 H   0  0  0  0  0  0  0  0  0  0  0  0
    2.1413    3.7655    6.4890 H   0  0  0  0  0  0  0  0  0  0  0  0
    0.5496    3.9666    9.6339 H   0  0  0  0  0  0  0  0  0  0  0  0
   -0.3506    4.0211    8.1224 H   0  0  0  0  0  0  0  0  0  0  0  0
    1.1471    4.9532    8.3036 H   0  0  0  0  0  0  0  0  0  0  0  0
    3.5820    1.8502    6.5637 H   0  0  0  0  0  0  0  0  0  0  0  0
    2.6535    2.8980    4.5067 H   0  0  0  0  0  0  0  0  0  0  0  0
    3.0962    1.2880    4.2652 H   0  0  0  0  0  0  0  0  0  0  0  0
   -0.3305    0.6531    3.2747 H   0  0  0  0  0  0  0  0  0  0  0  0
    1.6499    2.6849    2.3388 H   0  0  0  0  0  0  0  0  0  0  0  0
   -0.0981    2.8215    2.5250 H   0  0  0  0  0  0  0  0  0  0  0  0
    0.5674    1.7089    1.3495 H   0  0  0  0  0  0  0  0  0  0  0  0
    1.0645   -0.7447    2.2190 H   0  0  0  0  0  0  0  0  0  0  0  0
    3.9544    0.1844    0.6023 H   0  0  0  0  0  0  0  0  0  0  0  0
    2.2130    0.1412    0.4036 H   0  0  0  0  0  0  0  0  0  0  0  0
    3.0406   -1.3021    0.9412 H   0  0  0  0  0  0  0  0  0  0  0  0
    1.1790   -1.8753    4.2144 H   0  0  0  0  0  0  0  0  0  0  0  0
    2.2755   -3.1472    2.8735 H   0  0  0  0  0  0  0  0  0  0  0  0
    3.7401   -2.1803    2.9805 H   0  0  0  0  0  0  0  0  0  0  0  0
    5.2562   -2.6454    4.5851 H   0  0  0  0  0  0  0  0  0  0  0  0
    5.0402   -4.1021    2.7633 H   0  0  0  0  0  0  0  0  0  0  0  0
    6.2617   -4.7255    3.8715 H   0  0  0  0  0  0  0  0  0  0  0  0
    4.6520   -6.4646    3.0357 H   0  0  0  0  0  0  0  0  0  0  0  0
    4.7958   -6.3825    4.7724 H   0  0  0  0  0  0  0  0  0  0  0  0
    2.4724   -5.3513    3.0941 H   0  0  0  0  0  0  0  0  0  0  0  0
    2.5287   -6.6570    4.3180 H   0  0  0  0  0  0  0  0  0  0  0  0
    3.2015   -5.0461    6.0163 H   0  0  0  0  0  0  0  0  0  0  0  0
    0.6638   -3.8934    4.8734 H   0  0  0  0  0  0  0  0  0  0  0  0
   -0.4697   -7.0867    5.9547 H   0  0  0  0  0  0  0  0  0  0  0  0
    0.4978   -6.6108    4.5475 H   0  0  0  0  0  0  0  0  0  0  0  0
   -0.9561   -5.6740    5.0117 H   0  0  0  0  0  0  0  0  0  0  0  0
    2.3926   -4.6490    8.1799 H   0  0  0  0  0  0  0  0  0  0  0  0
    2.5766   -2.9251    8.6986 H   0  0  0  0  0  0  0  0  0  0  0  0
    0.0104   -4.5103    8.3953 H   0  0  0  0  0  0  0  0  0  0  0  0
    0.4605   -3.2421    9.5930 H   0  0  0  0  0  0  0  0  0  0  0  0
   -0.8023   -3.5757    6.4814 H   0  0  0  0  0  0  0  0  0  0  0  0
   -0.5030   -1.1212    8.9999 H   0  0  0  0  0  0  0  0  0  0  0  0
    1.1244   -0.9439    8.7688 H   0  0  0  0  0  0  0  0  0  0  0  0
   -1.1425    0.4241    7.3253 H   0  0  0  0  0  0  0  0  0  0  0  0
    0.2627    1.0023    8.0111 H   0  0  0  0  0  0  0  0  0  0  0  0
   -1.9094   -0.9221    4.1516 H   0  0  0  0  0  0  0  0  0  0  0  0
   -1.7909    0.6802    4.9136 H   0  0  0  0  0  0  0  0  0  0  0  0
   -2.2364   -0.7396    5.8728 H   0  0  0  0  0  0  0  0  0  0  0  0
    2.3591   -0.1402    7.3280 H   0  0  0  0  0  0  0  0  0  0  0  0
    3.9105   -0.9349    7.7829 H   0  0  0  0  0  0  0  0  0  0  0  0
    5.0096    0.5093    8.0118 H   0  0  0  0  0  0  0  0  0  0  0  0
    5.7024   -1.0766    7.9428 H   0  0  0  0  0  0  0  0  0  0  0  0
    3.6865   -2.3715    6.7661 H   0  0  0  0  0  0  0  0  0  0  0  0
    5.0891   -3.8834    5.6911 H   0  0  0  0  0  0  0  0  0  0  0  0
  1  2  1  0
  1 45  1  0
  1 46  1  0
  1 47  1  0
  2  3  1  0
  3  4  2  0
  3  5  1  0
  5 11  1  0
  5  6  1  0
  5 48  1  1
  6  7  1  0
  6  9  1  0
  6 49  1  6
  7  8  1  0
  8 50  1  0
  8 51  1  0
  8 52  1  0
  9 38  1  0
  9 10  1  0
  9 53  1  1
 11 10  1  6
 10 54  1  0
 10 55  1  0
 11 35  1  0
 11 12  1  0
 12 13  1  0
 12 14  1  0
 12 56  1  1
 13 57  1  0
 13 58  1  0
 13 59  1  0
 14 15  1  0
 14 17  1  0
 14 60  1  6
 15 16  1  0
 16 61  1  0
 16 62  1  0
 16 63  1  0
 17 39  1  0
 17 18  1  0
 17 64  1  1
 19 18  1  6
 18 65  1  0
 18 66  1  0
 19 24  1  0
 19 44  1  0
 19 20  1  0
 20 21  1  0
 20 67  1  0
 20 96  1  0
 21 22  1  0
 21 68  1  0
 21 69  1  0
 22 23  1  0
 22 70  1  0
 22 71  1  0
 23 24  1  0
 23 72  1  0
 23 73  1  0
 24 25  1  0
 24 74  1  1
 25 26  1  0
 25 28  1  0
 25 75  1  6
 26 27  1  0
 27 76  1  0
 27 77  1  0
 27 78  1  0
 28 31  1  0
 28 44  1  0
 28 29  1  1
 29 30  1  0
 29 79  1  0
 29 80  1  0
 30 31  1  0
 30 81  1  0
 30 82  1  0
 31 32  1  6
 31 33  1  0
 32 83  1  0
 33 34  1  0
 33 84  1  0
 33 85  1  0
 34 35  1  0
 34 86  1  0
 34 87  1  0
 35 36  1  6
 35 38  1  0
 36 37  1  0
 37 88  1  0
 37 89  1  0
 37 90  1  0
 38 39  1  0
 38 91  1  1
 39 40  1  6
 39 44  1  0
 40 41  1  0
 41 42  1  0
 41 43  2  0
 42 92  1  0
 42 93  1  0
 42 94  1  0
 44 95  1  1
M  CHG  1  20   1
M  END
>  <i_m_ct_stereo_status>  (70) 
1

>  <s_m_source_file>  (70) 
/var/tmp/pbs.5076255.sched01/tmpcm5es6vs/0d3z1so5d.sdf

>  <i_m_source_file_index>  (70) 
31

>  <i_lp_mmshare_version>  (70) 
48012

>  <i_f3d_flags>  (70) 
0

>  <s_epik_input>  (70) 
W0NIM11PQyg9TylbQ0BASF0xW0NAQEhdKE9bQ0gzXSlbQ0BIXShbQ0gyXTIpW0NAQEhdKFtDQEBdMyhbQ0BAXTEyNClPW0NIM10pW0NAXTUoT0MoPU8pW0NIM10pW0NAQEhdKFtDQEBIXShbQ0BASF00W0NIM10pT1tDSDNdKVtDSDJdW0NAQF02N1tDQEhdKFtDSDJdW0NIMl1bQ0gyXVtOSF02KVtDQEBIXShPW0NIM10pW0NAQF04KFtDQEhdNTcpW0NAQF0oW09IXSkoW0NIMl1bQ0gyXTgpW0NIMl1bQ0gyXTM=

>  <s_epik_cmdline>  (70) 
J2VwaWtfcHl0aG9uJywgJy1waHQnLCAnMi4wJywgJy1waCcsICc3LjAnLCAnLXRuJywgJzgnLCAnLW1hJywgJzIwMCcsICctaW1hZScsICc8aW5maWxlLm1hZT4nLCAnLW9tYWUnLCAnPG91dGZpbGUubWFlPic=

>  <r_epik_Ionization_Penalty>  (70) 
0.000456735

>  <r_epik_Ionization_Penalty_Charging>  (70) 
0.00045664

>  <r_epik_Ionization_Penalty_Neutral>  (70) 
9.52426e-08

>  <r_epik_State_Penalty>  (70) 
0.000282371

>  <r_epik_Charging_Adjusted_Penalty>  (70) 
0.000739011

>  <i_epik_Tot_Q>  (70) 
1

>  <i_epik_Tot_abs_Q>  (70) 
1

>  <s_epik_Chemistry_Notes>  (70) 
This compound has an ester and may undergo hydrolysis at high or low pH.

>  <s_lp_Force_Field>  (70) 
OPLS3e

>  <r_lp_Energy>  (70) 
217.179

>  <b_lp_Chiralities_Consistent>  (70) 
1

>  <s_lp_Variant>  (70) 
25:0-1

>  <s_i_glide_gridfile>  (70) 
pfpi4k_grid

>  <i_i_glide_lignum>  (70) 
31

>  <i_i_glide_rotatable_bonds>  (70) 
9

>  <r_i_docking_score>  (70) 
-1.71844

>  <r_i_glide_ligand_efficiency>  (70) 
-0.0390554

>  <r_i_glide_ligand_efficiency_sa>  (70) 
-0.137879

>  <r_i_glide_ligand_efficiency_ln>  (70) 
-0.359191

>  <r_i_glide_gscore>  (70) 
-1.71844

>  <r_i_glide_lipo>  (70) 
-0.00635455

>  <r_i_glide_hbond>  (70) 
0

>  <r_i_glide_metal>  (70) 
-0

>  <r_i_glide_rewards>  (70) 
-0.0197886

>  <r_i_glide_evdw>  (70) 
-21.8367

>  <r_i_glide_ecoul>  (70) 
-4.57181

>  <r_i_glide_erotb>  (70) 
0.110171

>  <r_i_glide_esite>  (70) 
-0.0248585

>  <r_i_glide_emodel>  (70) 
-24.7022

>  <r_i_glide_energy>  (70) 
-26.4085

>  <r_i_glide_einternal>  (70) 
6.60346

>  <r_i_glide_intrahb_reward>  (70) 
-0

>  <i_i_glide_confnum>  (70) 
4

>  <i_i_glide_posenum>  (70) 
2

>  <r_i_glide_eff_state_penalty>  (70) 
0

>  <ligand_id>  (70) 
25

>  <original_smiles>  (70) 
COC(=O)C1C(OC)C2CC13C(C)C(OC)C1CC45NCCCC4C(OC)C46CCC4(O)CCC3(OC)C2C1(OC(C)=O)C56

>  <smiles>  (70) 
[H]OC12C([H])([H])C([H])([H])C3(OC([H])([H])[H])C4([H])C5([H])C([H])([H])C3(C([H])(C(=O)OC([H])([H])[H])C5([H])OC([H])([H])[H])C([H])(C([H])([H])[H])C([H])(OC([H])([H])[H])C3([H])C([H])([H])C56C([H])(C([H])([H])C([H])([H])C([H])([H])[N+]5([H])[H])C([H])(OC([H])([H])[H])C1(C([H])([H])C2([H])[H])C6([H])C34OC(=O)C([H])([H])[H]

$$$$
25:0:1
     RDKit          3D

 96103  0  0  1  0  0  0  0  0999 V2000
   -2.4945    5.1330   10.4528 C   0  0  0  0  0  0  0  0  0  0  0  0
   -1.2795    4.6288    9.9522 O   0  0  0  0  0  0  0  0  0  0  0  0
   -1.1672    3.3020    9.6473 C   0  0  0  0  0  0  0  0  0  0  0  0
   -2.0542    2.4768    9.8230 O   0  0  0  0  0  0  0  0  0  0  0  0
    0.2036    2.8877    9.1079 C   0  0  2  0  0  0  0  0  0  0  0  0
    1.1364    4.0546    8.5465 C   0  0  1  0  0  0  0  0  0  0  0  0
    2.2180    4.5202    9.3405 O   0  0  0  0  0  0  0  0  0  0  0  0
    1.8466    5.0756   10.5944 C   0  0  0  0  0  0  0  0  0  0  0  0
    1.5473    3.5826    7.1030 C   0  0  2  0  0  0  0  0  0  0  0  0
    0.2174    3.0741    6.7831 C   0  0  0  0  0  0  0  0  0  0  0  0
    0.3006    1.9535    7.8493 C   0  0  2  0  0  0  0  0  0  0  0  0
   -0.6825    0.8802    7.1702 C   0  0  1  0  0  0  0  0  0  0  0  0
   -2.1978    1.2274    7.1092 C   0  0  0  0  0  0  0  0  0  0  0  0
   -0.1889    0.3718    5.7119 C   0  0  1  0  0  0  0  0  0  0  0  0
   -0.8450    1.1130    4.6834 O   0  0  0  0  0  0  0  0  0  0  0  0
   -1.4050    0.3584    3.6192 C   0  0  0  0  0  0  0  0  0  0  0  0
    1.3649    0.2598    5.3613 C   0  0  1  0  0  0  0  0  0  0  0  0
    1.7873   -0.3465    4.0231 C   0  0  0  0  0  0  0  0  0  0  0  0
    3.3281   -0.1010    3.8948 C   0  0  2  0  0  0  0  0  0  0  0  0
    3.5824    0.5047    2.5770 N   0  0  0  0  0  0  0  0  0  0  0  0
    3.3618   -0.3838    1.4068 C   0  0  0  0  0  0  0  0  0  0  0  0
    4.1056   -1.7294    1.5511 C   0  0  0  0  0  0  0  0  0  0  0  0
    3.9043   -2.3816    2.9246 C   0  0  0  0  0  0  0  0  0  0  0  0
    4.2293   -1.3337    4.0004 C   0  0  2  0  0  0  0  0  0  0  0  0
    4.2493   -1.6313    5.4874 C   0  0  1  0  0  0  0  0  0  0  0  0
    5.2787   -2.5841    5.7619 O   0  0  0  0  0  0  0  0  0  0  0  0
    4.8758   -3.9529    5.7482 C   0  0  0  0  0  0  0  0  0  0  0  0
    4.4983   -0.2264    6.1461 C   0  0  2  0  0  0  0  0  0  0  0  0
    5.9927    0.1810    6.2036 C   0  0  0  0  0  0  0  0  0  0  0  0
    6.1112   -0.4370    7.5736 C   0  0  0  0  0  0  0  0  0  0  0  0
    4.6034   -0.1948    7.7535 C   0  0  2  0  0  0  0  0  0  0  0  0
    4.0580   -1.3240    8.4150 O   0  0  0  0  0  0  0  0  0  0  0  0
    4.3491    1.0205    8.6907 C   0  0  0  0  0  0  0  0  0  0  0  0
    2.9007    1.4779    9.1170 C   0  0  0  0  0  0  0  0  0  0  0  0
    1.7944    1.3569    7.9946 C   0  0  1  0  0  0  0  0  0  0  0  0
    1.6962   -0.0733    8.0005 O   0  0  0  0  0  0  0  0  0  0  0  0
    1.1694   -0.7562    9.1509 C   0  0  0  0  0  0  0  0  0  0  0  0
    2.3834    2.2380    6.8853 C   0  0  1  0  0  0  0  0  0  0  0  0
    2.3675    1.4656    5.5126 C   0  0  2  0  0  0  0  0  0  0  0  0
    2.0557    2.3557    4.4150 O   0  0  0  0  0  0  0  0  0  0  0  0
    2.7325    3.4889    4.1012 C   0  0  0  0  0  0  0  0  0  0  0  0
    2.1868    4.1638    2.8495 C   0  0  0  0  0  0  0  0  0  0  0  0
    3.6890    3.9513    4.7160 O   0  0  0  0  0  0  0  0  0  0  0  0
    3.7160    0.7525    5.1504 C   0  0  2  0  0  0  0  0  0  0  0  0
   -2.3932    6.1813   10.7390 H   0  0  0  0  0  0  0  0  0  0  0  0
   -2.8233    4.5478   11.3171 H   0  0  0  0  0  0  0  0  0  0  0  0
   -3.2516    5.0382    9.6734 H   0  0  0  0  0  0  0  0  0  0  0  0
    0.6848    2.4051    9.9523 H   0  0  0  0  0  0  0  0  0  0  0  0
    0.5422    4.9467    8.3808 H   0  0  0  0  0  0  0  0  0  0  0  0
    2.7409    5.4117   11.1181 H   0  0  0  0  0  0  0  0  0  0  0  0
    1.3504    4.3418   11.2300 H   0  0  0  0  0  0  0  0  0  0  0  0
    1.1882    5.9381   10.4777 H   0  0  0  0  0  0  0  0  0  0  0  0
    1.8370    4.4303    6.4926 H   0  0  0  0  0  0  0  0  0  0  0  0
   -0.6052    3.7794    6.9402 H   0  0  0  0  0  0  0  0  0  0  0  0
    0.1546    2.8336    5.7362 H   0  0  0  0  0  0  0  0  0  0  0  0
   -0.6901    0.0054    7.8004 H   0  0  0  0  0  0  0  0  0  0  0  0
   -2.3595    2.1927    6.6196 H   0  0  0  0  0  0  0  0  0  0  0  0
   -2.6284    1.2690    8.0832 H   0  0  0  0  0  0  0  0  0  0  0  0
   -2.7062    0.4922    6.4553 H   0  0  0  0  0  0  0  0  0  0  0  0
   -0.5835   -0.6416    5.6529 H   0  0  0  0  0  0  0  0  0  0  0  0
   -1.8366    1.0468    2.8855 H   0  0  0  0  0  0  0  0  0  0  0  0
   -2.1966   -0.2913    3.9962 H   0  0  0  0  0  0  0  0  0  0  0  0
   -0.6852   -0.2698    3.1043 H   0  0  0  0  0  0  0  0  0  0  0  0
    1.6992   -0.5816    5.9463 H   0  0  0  0  0  0  0  0  0  0  0  0
    1.4959   -1.3884    3.9519 H   0  0  0  0  0  0  0  0  0  0  0  0
    1.2958    0.1988    3.2158 H   0  0  0  0  0  0  0  0  0  0  0  0
    2.9789    1.3391    2.4713 H   0  0  0  0  0  0  0  0  0  0  0  0
    2.2908   -0.5735    1.2823 H   0  0  0  0  0  0  0  0  0  0  0  0
    3.6959    0.1157    0.4972 H   0  0  0  0  0  0  0  0  0  0  0  0
    3.7846   -2.4059    0.7708 H   0  0  0  0  0  0  0  0  0  0  0  0
    5.1714   -1.5700    1.4007 H   0  0  0  0  0  0  0  0  0  0  0  0
    2.8943   -2.7878    3.0296 H   0  0  0  0  0  0  0  0  0  0  0  0
    4.6080   -3.2134    2.9636 H   0  0  0  0  0  0  0  0  0  0  0  0
    5.2416   -0.9999    3.7627 H   0  0  0  0  0  0  0  0  0  0  0  0
    3.2898   -2.0423    5.8153 H   0  0  0  0  0  0  0  0  0  0  0  0
    5.7465   -4.5903    5.9120 H   0  0  0  0  0  0  0  0  0  0  0  0
    4.4310   -4.2711    4.8069 H   0  0  0  0  0  0  0  0  0  0  0  0
    4.1493   -4.1567    6.5346 H   0  0  0  0  0  0  0  0  0  0  0  0
    6.6425   -0.2792    5.4625 H   0  0  0  0  0  0  0  0  0  0  0  0
    6.1465    1.2565    6.2528 H   0  0  0  0  0  0  0  0  0  0  0  0
    6.4116   -1.4826    7.5657 H   0  0  0  0  0  0  0  0  0  0  0  0
    6.7428    0.1417    8.2483 H   0  0  0  0  0  0  0  0  0  0  0  0
    4.3694   -2.0625    7.9481 H   0  0  0  0  0  0  0  0  0  0  0  0
    4.9054    0.8694    9.6177 H   0  0  0  0  0  0  0  0  0  0  0  0
    4.8705    1.8772    8.2622 H   0  0  0  0  0  0  0  0  0  0  0  0
    2.6330    0.9803   10.0416 H   0  0  0  0  0  0  0  0  0  0  0  0
    3.0499    2.4827    9.4579 H   0  0  0  0  0  0  0  0  0  0  0  0
    0.6885   -1.6733    8.8134 H   0  0  0  0  0  0  0  0  0  0  0  0
    0.4348   -0.1603    9.6947 H   0  0  0  0  0  0  0  0  0  0  0  0
    1.9484   -1.0528    9.8539 H   0  0  0  0  0  0  0  0  0  0  0  0
    3.4017    2.5814    7.0262 H   0  0  0  0  0  0  0  0  0  0  0  0
    1.2974    3.6488    2.4872 H   0  0  0  0  0  0  0  0  0  0  0  0
    2.9402    4.1454    2.0649 H   0  0  0  0  0  0  0  0  0  0  0  0
    1.9213    5.2051    3.0407 H   0  0  0  0  0  0  0  0  0  0  0  0
    4.4273    1.5167    4.8224 H   0  0  0  0  0  0  0  0  0  0  0  0
    4.5622    0.8342    2.5620 H   0  0  0  0  0  0  0  0  0  0  0  0
  1  2  1  0
  1 45  1  0
  1 46  1  0
  1 47  1  0
  2  3  1  0
  3  4  2  0
  3  5  1  0
  5 11  1  0
  5  6  1  0
  5 48  1  1
  6  7  1  0
  6  9  1  0
  6 49  1  6
  7  8  1  0
  8 50  1  0
  8 51  1  0
  8 52  1  0
  9 38  1  0
  9 10  1  0
  9 53  1  6
 11 10  1  6
 10 54  1  0
 10 55  1  0
 11 35  1  0
 11 12  1  0
 12 13  1  0
 12 14  1  0
 12 56  1  1
 13 57  1  0
 13 58  1  0
 13 59  1  0
 14 15  1  0
 14 17  1  0
 14 60  1  6
 15 16  1  0
 16 61  1  0
 16 62  1  0
 16 63  1  0
 17 39  1  0
 17 18  1  0
 17 64  1  1
 19 18  1  1
 18 65  1  0
 18 66  1  0
 19 24  1  0
 19 44  1  0
 19 20  1  0
 20 21  1  0
 20 67  1  0
 20 96  1  0
 21 22  1  0
 21 68  1  0
 21 69  1  0
 22 23  1  0
 22 70  1  0
 22 71  1  0
 23 24  1  0
 23 72  1  0
 23 73  1  0
 24 25  1  0
 24 74  1  6
 25 26  1  0
 25 28  1  0
 25 75  1  1
 26 27  1  0
 27 76  1  0
 27 77  1  0
 27 78  1  0
 28 31  1  0
 28 44  1  0
 28 29  1  6
 29 30  1  0
 29 79  1  0
 29 80  1  0
 30 31  1  0
 30 81  1  0
 30 82  1  0
 31 32  1  1
 31 33  1  0
 32 83  1  0
 33 34  1  0
 33 84  1  0
 33 85  1  0
 34 35  1  0
 34 86  1  0
 34 87  1  0
 35 36  1  6
 35 38  1  0
 36 37  1  0
 37 88  1  0
 37 89  1  0
 37 90  1  0
 38 39  1  0
 38 91  1  1
 39 40  1  6
 39 44  1  0
 40 41  1  0
 41 42  1  0
 41 43  2  0
 42 92  1  0
 42 93  1  0
 42 94  1  0
 44 95  1  6
M  CHG  1  20   1
M  END
>  <i_m_ct_stereo_status>  (71) 
1

>  <s_m_source_file>  (71) 
/var/tmp/pbs.5076255.sched01/tmpcm5es6vs/0d3z1so5d.sdf

>  <i_m_source_file_index>  (71) 
31

>  <i_lp_mmshare_version>  (71) 
48012

>  <i_f3d_flags>  (71) 
0

>  <s_epik_input>  (71) 
W0NIM11PQyg9TylbQ0BASF0xW0NAQEhdKE9bQ0gzXSlbQ0BIXShbQ0gyXTIpW0NAQEhdKFtDQEBdMyhbQ0BAXTEyNClPW0NIM10pW0NAXTUoT0MoPU8pW0NIM10pW0NAQEhdKFtDQEBIXShbQ0BASF00W0NIM10pT1tDSDNdKVtDSDJdW0NAQF02N1tDQEhdKFtDSDJdW0NIMl1bQ0gyXVtOSF02KVtDQEBIXShPW0NIM10pW0NAQF04KFtDQEhdNTcpW0NAQF0oW09IXSkoW0NIMl1bQ0gyXTgpW0NIMl1bQ0gyXTM=

>  <s_epik_cmdline>  (71) 
J2VwaWtfcHl0aG9uJywgJy1waHQnLCAnMi4wJywgJy1waCcsICc3LjAnLCAnLXRuJywgJzgnLCAnLW1hJywgJzIwMCcsICctaW1hZScsICc8aW5maWxlLm1hZT4nLCAnLW9tYWUnLCAnPG91dGZpbGUubWFlPic=

>  <r_epik_Ionization_Penalty>  (71) 
0.000456735

>  <r_epik_Ionization_Penalty_Charging>  (71) 
0.00045664

>  <r_epik_Ionization_Penalty_Neutral>  (71) 
9.52426e-08

>  <r_epik_State_Penalty>  (71) 
0.000282371

>  <r_epik_Charging_Adjusted_Penalty>  (71) 
0.000739011

>  <i_epik_Tot_Q>  (71) 
1

>  <i_epik_Tot_abs_Q>  (71) 
1

>  <s_epik_Chemistry_Notes>  (71) 
This compound has an ester and may undergo hydrolysis at high or low pH.

>  <s_lp_Force_Field>  (71) 
OPLS3e

>  <r_lp_Energy>  (71) 
217.179

>  <b_lp_Chiralities_Consistent>  (71) 
1

>  <s_lp_Variant>  (71) 
25:0-1

>  <s_i_glide_gridfile>  (71) 
pfpi4k_grid

>  <i_i_glide_lignum>  (71) 
31

>  <i_i_glide_rotatable_bonds>  (71) 
9

>  <r_i_docking_score>  (71) 
-1.64164

>  <r_i_glide_ligand_efficiency>  (71) 
-0.03731

>  <r_i_glide_ligand_efficiency_sa>  (71) 
-0.131717

>  <r_i_glide_ligand_efficiency_ln>  (71) 
-0.343138

>  <r_i_glide_gscore>  (71) 
-1.64164

>  <r_i_glide_lipo>  (71) 
-0.0832298

>  <r_i_glide_hbond>  (71) 
0

>  <r_i_glide_metal>  (71) 
-0

>  <r_i_glide_rewards>  (71) 
0

>  <r_i_glide_evdw>  (71) 
-21.3341

>  <r_i_glide_ecoul>  (71) 
-3.78481

>  <r_i_glide_erotb>  (71) 
0.110171

>  <r_i_glide_esite>  (71) 
-0.034153

>  <r_i_glide_emodel>  (71) 
-25.3024

>  <r_i_glide_energy>  (71) 
-25.1189

>  <r_i_glide_einternal>  (71) 
3.44298

>  <r_i_glide_intrahb_reward>  (71) 
-0

>  <i_i_glide_confnum>  (71) 
4

>  <i_i_glide_posenum>  (71) 
38

>  <r_i_glide_eff_state_penalty>  (71) 
0

>  <ligand_id>  (71) 
25

>  <original_smiles>  (71) 
COC(=O)C1C(OC)C2CC13C(C)C(OC)C1CC45NCCCC4C(OC)C46CCC4(O)CCC3(OC)C2C1(OC(C)=O)C56

>  <smiles>  (71) 
[H]OC12C([H])([H])C([H])([H])C3(OC([H])([H])[H])C4([H])C5([H])C([H])([H])C3(C([H])(C(=O)OC([H])([H])[H])C5([H])OC([H])([H])[H])C([H])(C([H])([H])[H])C([H])(OC([H])([H])[H])C3([H])C([H])([H])C56C([H])(C([H])([H])C([H])([H])C([H])([H])[N+]5([H])[H])C([H])(OC([H])([H])[H])C1(C([H])([H])C2([H])[H])C6([H])C34OC(=O)C([H])([H])[H]

$$$$
25:0:2
     RDKit          3D

 96103  0  0  1  0  0  0  0  0999 V2000
   -0.3780    2.3444   10.7870 C   0  0  0  0  0  0  0  0  0  0  0  0
    0.3163    1.3985   10.0163 O   0  0  0  0  0  0  0  0  0  0  0  0
   -0.2002    0.9840    8.8378 C   0  0  0  0  0  0  0  0  0  0  0  0
   -1.2643    1.3529    8.3558 O   0  0  0  0  0  0  0  0  0  0  0  0
    0.6436   -0.0859    8.1376 C   0  0  2  0  0  0  0  0  0  0  0  0
    2.1272   -0.2595    8.6669 C   0  0  1  0  0  0  0  0  0  0  0  0
    2.4139   -1.3817    9.4976 O   0  0  0  0  0  0  0  0  0  0  0  0
    3.7108   -1.3644   10.0911 C   0  0  0  0  0  0  0  0  0  0  0  0
    3.0039   -0.1233    7.3765 C   0  0  2  0  0  0  0  0  0  0  0  0
    2.2417    0.9757    6.8245 C   0  0  0  0  0  0  0  0  0  0  0  0
    0.9809    0.0846    6.6119 C   0  0  2  0  0  0  0  0  0  0  0  0
    0.3242    0.8878    5.3974 C   0  0  1  0  0  0  0  0  0  0  0  0
   -0.2396    2.2969    5.7122 C   0  0  0  0  0  0  0  0  0  0  0  0
    1.2516    0.9420    4.0709 C   0  0  1  0  0  0  0  0  0  0  0  0
    2.0024    2.1594    4.0216 O   0  0  0  0  0  0  0  0  0  0  0  0
    1.7556    2.9943    2.8994 C   0  0  0  0  0  0  0  0  0  0  0  0
    2.2397   -0.2525    3.7054 C   0  0  1  0  0  0  0  0  0  0  0  0
    2.9985   -0.1941    2.3723 C   0  0  0  0  0  0  0  0  0  0  0  0
    4.0370   -1.3754    2.4364 C   0  0  2  0  0  0  0  0  0  0  0  0
    5.3873   -0.8650    2.0877 N   0  0  0  0  0  0  0  0  0  0  0  0
    5.5418   -0.4608    0.6573 C   0  0  0  0  0  0  0  0  0  0  0  0
    5.0876   -1.5713   -0.3418 C   0  0  0  0  0  0  0  0  0  0  0  0
    3.7156   -2.1548    0.0240 C   0  0  0  0  0  0  0  0  0  0  0  0
    3.7921   -2.5641    1.5088 C   0  0  2  0  0  0  0  0  0  0  0  0
    2.7269   -3.3977    2.1998 C   0  0  1  0  0  0  0  0  0  0  0  0
    2.5480   -4.6662    1.5496 O   0  0  0  0  0  0  0  0  0  0  0  0
    3.6782   -5.3164    0.9301 C   0  0  0  0  0  0  0  0  0  0  0  0
    3.1521   -3.4298    3.7199 C   0  0  2  0  0  0  0  0  0  0  0  0
    4.1653   -4.5765    4.0756 C   0  0  0  0  0  0  0  0  0  0  0  0
    2.9569   -5.4638    4.4036 C   0  0  0  0  0  0  0  0  0  0  0  0
    2.1523   -4.1862    4.7199 C   0  0  2  0  0  0  0  0  0  0  0  0
    0.8114   -4.3520    4.2758 O   0  0  0  0  0  0  0  0  0  0  0  0
    2.0732   -4.0053    6.2808 C   0  0  0  0  0  0  0  0  0  0  0  0
    1.2632   -2.8259    6.9526 C   0  0  0  0  0  0  0  0  0  0  0  0
    1.3357   -1.4325    6.1894 C   0  0  1  0  0  0  0  0  0  0  0  0
    0.5160   -1.7900    5.0780 O   0  0  0  0  0  0  0  0  0  0  0  0
   -0.8850   -2.0204    5.2761 C   0  0  0  0  0  0  0  0  0  0  0  0
    2.8321   -1.1598    6.1740 C   0  0  1  0  0  0  0  0  0  0  0  0
    3.3188   -0.8038    4.7147 C   0  0  2  0  0  0  0  0  0  0  0  0
    4.3856    0.1849    4.7613 O   0  0  0  0  0  0  0  0  0  0  0  0
    5.5930    0.1044    5.4196 C   0  0  0  0  0  0  0  0  0  0  0  0
    5.8132   -1.1158    6.3204 C   0  0  0  0  0  0  0  0  0  0  0  0
    6.4641    0.9634    5.2791 O   0  0  0  0  0  0  0  0  0  0  0  0
    3.8824   -2.0098    3.8585 C   0  0  2  0  0  0  0  0  0  0  0  0
    0.1655    2.5084   11.7167 H   0  0  0  0  0  0  0  0  0  0  0  0
   -1.3860    1.9948   11.0232 H   0  0  0  0  0  0  0  0  0  0  0  0
   -0.4489    3.2911   10.2486 H   0  0  0  0  0  0  0  0  0  0  0  0
    0.0968   -1.0090    8.2866 H   0  0  0  0  0  0  0  0  0  0  0  0
    2.4108    0.5895    9.2963 H   0  0  0  0  0  0  0  0  0  0  0  0
    3.8710   -2.2857   10.6498 H   0  0  0  0  0  0  0  0  0  0  0  0
    3.8194   -0.5308   10.7862 H   0  0  0  0  0  0  0  0  0  0  0  0
    4.5073   -1.2973    9.3497 H   0  0  0  0  0  0  0  0  0  0  0  0
    4.0138    0.1766    7.6269 H   0  0  0  0  0  0  0  0  0  0  0  0
    2.1163    1.8296    7.4974 H   0  0  0  0  0  0  0  0  0  0  0  0
    2.7746    1.3967    5.9857 H   0  0  0  0  0  0  0  0  0  0  0  0
   -0.5777    0.3693    5.0953 H   0  0  0  0  0  0  0  0  0  0  0  0
    0.5256    2.9462    6.1409 H   0  0  0  0  0  0  0  0  0  0  0  0
   -1.0914    2.2435    6.3833 H   0  0  0  0  0  0  0  0  0  0  0  0
   -0.5849    2.7593    4.7837 H   0  0  0  0  0  0  0  0  0  0  0  0
    0.5293    0.9770    3.2502 H   0  0  0  0  0  0  0  0  0  0  0  0
    2.4036    3.8687    2.9513 H   0  0  0  0  0  0  0  0  0  0  0  0
    0.7241    3.3457    2.8914 H   0  0  0  0  0  0  0  0  0  0  0  0
    1.9612    2.4851    1.9582 H   0  0  0  0  0  0  0  0  0  0  0  0
    1.5745   -1.0450    3.3943 H   0  0  0  0  0  0  0  0  0  0  0  0
    2.3152   -0.2696    1.5251 H   0  0  0  0  0  0  0  0  0  0  0  0
    3.5102    0.7671    2.2844 H   0  0  0  0  0  0  0  0  0  0  0  0
    5.6049   -0.0646    2.6847 H   0  0  0  0  0  0  0  0  0  0  0  0
    4.9429    0.4395    0.4807 H   0  0  0  0  0  0  0  0  0  0  0  0
    6.5813   -0.1937    0.4652 H   0  0  0  0  0  0  0  0  0  0  0  0
    5.0628   -1.1760   -1.3580 H   0  0  0  0  0  0  0  0  0  0  0  0
    5.8397   -2.3626   -0.3533 H   0  0  0  0  0  0  0  0  0  0  0  0
    2.9113   -1.4476   -0.1671 H   0  0  0  0  0  0  0  0  0  0  0  0
    3.5081   -2.9964   -0.6351 H   0  0  0  0  0  0  0  0  0  0  0  0
    4.7049   -3.1614    1.6110 H   0  0  0  0  0  0  0  0  0  0  0  0
    1.7632   -2.8561    2.1157 H   0  0  0  0  0  0  0  0  0  0  0  0
    3.3636   -6.2941    0.5343 H   0  0  0  0  0  0  0  0  0  0  0  0
    4.4918   -5.4748    1.5924 H   0  0  0  0  0  0  0  0  0  0  0  0
    4.0536   -4.7464    0.0930 H   0  0  0  0  0  0  0  0  0  0  0  0
    4.8054   -4.9209    3.3248 H   0  0  0  0  0  0  0  0  0  0  0  0
    4.7195   -4.3526    4.9959 H   0  0  0  0  0  0  0  0  0  0  0  0
    2.5601   -6.0327    3.5523 H   0  0  0  0  0  0  0  0  0  0  0  0
    3.1213   -6.1386    5.2387 H   0  0  0  0  0  0  0  0  0  0  0  0
    0.4805   -5.1195    4.7022 H   0  0  0  0  0  0  0  0  0  0  0  0
    1.7041   -4.9355    6.7247 H   0  0  0  0  0  0  0  0  0  0  0  0
    3.1009   -4.0099    6.6442 H   0  0  0  0  0  0  0  0  0  0  0  0
    0.2438   -3.1698    7.1521 H   0  0  0  0  0  0  0  0  0  0  0  0
    1.6740   -2.7850    7.9500 H   0  0  0  0  0  0  0  0  0  0  0  0
   -1.3978   -1.7429    4.3511 H   0  0  0  0  0  0  0  0  0  0  0  0
   -1.2873   -1.4215    6.0959 H   0  0  0  0  0  0  0  0  0  0  0  0
   -1.1085   -3.0574    5.4811 H   0  0  0  0  0  0  0  0  0  0  0  0
    3.3935   -1.9765    6.5364 H   0  0  0  0  0  0  0  0  0  0  0  0
    5.0864   -1.8528    6.1890 H   0  0  0  0  0  0  0  0  0  0  0  0
    5.8163   -0.8126    7.3789 H   0  0  0  0  0  0  0  0  0  0  0  0
    6.7500   -1.6170    6.1115 H   0  0  0  0  0  0  0  0  0  0  0  0
    4.8950   -2.2339    4.1847 H   0  0  0  0  0  0  0  0  0  0  0  0
    6.0786   -1.5921    2.2824 H   0  0  0  0  0  0  0  0  0  0  0  0
  1  2  1  0
  1 45  1  0
  1 46  1  0
  1 47  1  0
  2  3  1  0
  3  4  2  0
  3  5  1  0
  5 11  1  0
  5  6  1  0
  5 48  1  6
  6  7  1  0
  6  9  1  0
  6 49  1  1
  7  8  1  0
  8 50  1  0
  8 51  1  0
  8 52  1  0
  9 38  1  0
  9 10  1  0
  9 53  1  1
 11 10  1  1
 10 54  1  0
 10 55  1  0
 11 35  1  0
 11 12  1  0
 12 13  1  0
 12 14  1  0
 12 56  1  6
 13 57  1  0
 13 58  1  0
 13 59  1  0
 14 15  1  0
 14 17  1  0
 14 60  1  6
 15 16  1  0
 16 61  1  0
 16 62  1  0
 16 63  1  0
 17 39  1  0
 17 18  1  0
 17 64  1  6
 19 18  1  6
 18 65  1  0
 18 66  1  0
 19 24  1  0
 19 44  1  0
 19 20  1  0
 20 21  1  0
 20 67  1  0
 20 96  1  0
 21 22  1  0
 21 68  1  0
 21 69  1  0
 22 23  1  0
 22 70  1  0
 22 71  1  0
 23 24  1  0
 23 72  1  0
 23 73  1  0
 24 25  1  0
 24 74  1  6
 25 26  1  0
 25 28  1  0
 25 75  1  1
 26 27  1  0
 27 76  1  0
 27 77  1  0
 27 78  1  0
 28 31  1  0
 28 44  1  0
 28 29  1  6
 29 30  1  0
 29 79  1  0
 29 80  1  0
 30 31  1  0
 30 81  1  0
 30 82  1  0
 31 32  1  6
 31 33  1  0
 32 83  1  0
 33 34  1  0
 33 84  1  0
 33 85  1  0
 34 35  1  0
 34 86  1  0
 34 87  1  0
 35 36  1  6
 35 38  1  0
 36 37  1  0
 37 88  1  0
 37 89  1  0
 37 90  1  0
 38 39  1  0
 38 91  1  1
 39 40  1  1
 39 44  1  0
 40 41  1  0
 41 42  1  0
 41 43  2  0
 42 92  1  0
 42 93  1  0
 42 94  1  0
 44 95  1  1
M  CHG  1  20   1
M  END
>  <i_m_ct_stereo_status>  (72) 
1

>  <s_m_source_file>  (72) 
/var/tmp/pbs.5076255.sched01/tmpcm5es6vs/0d3z1so5d.sdf

>  <i_m_source_file_index>  (72) 
31

>  <i_lp_mmshare_version>  (72) 
48012

>  <i_f3d_flags>  (72) 
0

>  <s_epik_input>  (72) 
W0NIM11PQyg9TylbQ0BASF0xW0NAQEhdKE9bQ0gzXSlbQ0BIXShbQ0gyXTIpW0NAQEhdKFtDQEBdMyhbQ0BAXTEyNClPW0NIM10pW0NAXTUoT0MoPU8pW0NIM10pW0NAQEhdKFtDQEBIXShbQ0BASF00W0NIM10pT1tDSDNdKVtDSDJdW0NAQF02N1tDQEhdKFtDSDJdW0NIMl1bQ0gyXVtOSF02KVtDQEBIXShPW0NIM10pW0NAQF04KFtDQEhdNTcpW0NAQF0oW09IXSkoW0NIMl1bQ0gyXTgpW0NIMl1bQ0gyXTM=

>  <s_epik_cmdline>  (72) 
J2VwaWtfcHl0aG9uJywgJy1waHQnLCAnMi4wJywgJy1waCcsICc3LjAnLCAnLXRuJywgJzgnLCAnLW1hJywgJzIwMCcsICctaW1hZScsICc8aW5maWxlLm1hZT4nLCAnLW9tYWUnLCAnPG91dGZpbGUubWFlPic=

>  <r_epik_Ionization_Penalty>  (72) 
0.000456735

>  <r_epik_Ionization_Penalty_Charging>  (72) 
0.00045664

>  <r_epik_Ionization_Penalty_Neutral>  (72) 
9.52426e-08

>  <r_epik_State_Penalty>  (72) 
0.000282371

>  <r_epik_Charging_Adjusted_Penalty>  (72) 
0.000739011

>  <i_epik_Tot_Q>  (72) 
1

>  <i_epik_Tot_abs_Q>  (72) 
1

>  <s_epik_Chemistry_Notes>  (72) 
This compound has an ester and may undergo hydrolysis at high or low pH.

>  <s_lp_Force_Field>  (72) 
OPLS3e

>  <r_lp_Energy>  (72) 
217.179

>  <b_lp_Chiralities_Consistent>  (72) 
1

>  <s_lp_Variant>  (72) 
25:0-1

>  <s_i_glide_gridfile>  (72) 
pfpi4k_grid

>  <i_i_glide_lignum>  (72) 
31

>  <i_i_glide_rotatable_bonds>  (72) 
9

>  <r_i_docking_score>  (72) 
-1.62389

>  <r_i_glide_ligand_efficiency>  (72) 
-0.0369067

>  <r_i_glide_ligand_efficiency_sa>  (72) 
-0.130293

>  <r_i_glide_ligand_efficiency_ln>  (72) 
-0.339429

>  <r_i_glide_gscore>  (72) 
-1.62389

>  <r_i_glide_lipo>  (72) 
-0.175652

>  <r_i_glide_hbond>  (72) 
-0.00493024

>  <r_i_glide_metal>  (72) 
-0

>  <r_i_glide_rewards>  (72) 
-0.0882249

>  <r_i_glide_evdw>  (72) 
-23.45

>  <r_i_glide_ecoul>  (72) 
-1.74603

>  <r_i_glide_erotb>  (72) 
0.110171

>  <r_i_glide_esite>  (72) 
-0.0308528

>  <r_i_glide_emodel>  (72) 
-16.7314

>  <r_i_glide_energy>  (72) 
-25.196

>  <r_i_glide_einternal>  (72) 
17.8407

>  <r_i_glide_intrahb_reward>  (72) 
-0

>  <i_i_glide_confnum>  (72) 
2

>  <i_i_glide_posenum>  (72) 
12

>  <r_i_glide_eff_state_penalty>  (72) 
0

>  <ligand_id>  (72) 
25

>  <original_smiles>  (72) 
COC(=O)C1C(OC)C2CC13C(C)C(OC)C1CC45NCCCC4C(OC)C46CCC4(O)CCC3(OC)C2C1(OC(C)=O)C56

>  <smiles>  (72) 
[H]OC12C([H])([H])C([H])([H])C3(OC([H])([H])[H])C4([H])C5([H])C([H])([H])C3(C([H])(C(=O)OC([H])([H])[H])C5([H])OC([H])([H])[H])C([H])(C([H])([H])[H])C([H])(OC([H])([H])[H])C3([H])C([H])([H])C56C([H])(C([H])([H])C([H])([H])C([H])([H])[N+]5([H])[H])C([H])(OC([H])([H])[H])C1(C([H])([H])C2([H])[H])C6([H])C34OC(=O)C([H])([H])[H]

$$$$
26:0:0
     RDKit          3D

 35 37  0  0  1  0  0  0  0  0999 V2000
    3.1673    0.8014   -5.3245 C   0  0  0  0  0  0  0  0  0  0  0  0
    3.3962    0.2292   -3.9252 C   0  0  0  0  0  0  0  0  0  0  0  0
    4.0956   -1.1286   -3.9394 C   0  0  0  0  0  0  0  0  0  0  0  0
    4.4105   -1.6264   -2.5271 C   0  0  0  0  0  0  0  0  0  0  0  0
    5.2078   -2.7958   -2.6348 O   0  0  0  0  0  0  0  0  0  0  0  0
    5.2398   -3.4755   -1.4426 N   0  0  0  0  0  0  0  0  0  0  0  0
    4.2090   -4.2258   -0.9091 C   0  0  0  0  0  0  0  0  0  0  0  0
    4.7160   -4.7428    0.2632 C   0  0  0  0  0  0  0  0  0  0  0  0
    4.1710   -5.5831    1.2661 C   0  0  0  0  0  0  0  0  0  0  0  0
    2.8032   -6.1293    1.2557 C   0  0  0  0  0  0  0  0  0  0  0  0
    1.7624   -5.8397    0.4580 N   0  0  0  0  0  0  0  0  0  0  0  0
    0.7142   -6.6288    0.8802 N   0  0  0  0  0  0  0  0  0  0  0  0
    1.2033   -7.3677    1.8790 C   0  0  0  0  0  0  0  0  0  0  0  0
    0.3445   -8.5404    2.8670 S   0  0  0  0  0  0  0  0  0  0  0  0
    1.5817   -9.8648    2.8753 C   0  0  0  0  0  0  0  0  0  0  0  0
    2.4995   -7.0935    2.1723 O   0  0  0  0  0  0  0  0  0  0  0  0
    4.9503   -5.9297    2.3151 N   0  0  0  0  0  0  0  0  0  0  0  0
    6.1929   -5.4541    2.3513 C   0  0  0  0  0  0  0  0  0  0  0  0
    6.7670   -4.6541    1.4493 N   0  0  0  0  0  0  0  0  0  0  0  0
    6.0276   -4.2860    0.3914 C   0  0  0  0  0  0  0  0  0  0  0  0
    6.3665   -3.4847   -0.6474 N   0  0  0  0  0  0  0  0  0  0  0  0
    2.6660    1.7677   -5.2624 H   0  0  0  0  0  0  0  0  0  0  0  0
    2.5441    0.1389   -5.9207 H   0  0  0  0  0  0  0  0  0  0  0  0
    4.1128    0.9412   -5.8467 H   0  0  0  0  0  0  0  0  0  0  0  0
    3.9901    0.9392   -3.3502 H   0  0  0  0  0  0  0  0  0  0  0  0
    2.4430    0.1408   -3.4059 H   0  0  0  0  0  0  0  0  0  0  0  0
    3.4754   -1.8667   -4.4489 H   0  0  0  0  0  0  0  0  0  0  0  0
    5.0119   -1.0542   -4.5243 H   0  0  0  0  0  0  0  0  0  0  0  0
    4.9271   -0.8708   -1.9285 H   0  0  0  0  0  0  0  0  0  0  0  0
    3.4609   -1.8395   -2.0323 H   0  0  0  0  0  0  0  0  0  0  0  0
    3.2557   -4.2846   -1.4226 H   0  0  0  0  0  0  0  0  0  0  0  0
    1.2298  -10.7203    3.4546 H   0  0  0  0  0  0  0  0  0  0  0  0
    2.5110   -9.5087    3.3149 H   0  0  0  0  0  0  0  0  0  0  0  0
    1.7841  -10.1934    1.8572 H   0  0  0  0  0  0  0  0  0  0  0  0
    6.7833   -5.7211    3.2137 H   0  0  0  0  0  0  0  0  0  0  0  0
  1  2  1  0
  1 22  1  0
  1 23  1  0
  1 24  1  0
  2  3  1  0
  2 25  1  0
  2 26  1  0
  3  4  1  0
  3 27  1  0
  3 28  1  0
  4  5  1  0
  4 29  1  0
  4 30  1  0
  5  6  1  0
  6 21  1  0
  6  7  1  0
  7  8  2  0
  7 31  1  0
  8 20  1  0
  8  9  1  0
  9 10  1  0
  9 17  2  0
 10 16  1  0
 10 11  2  0
 11 12  1  0
 12 13  2  0
 13 14  1  0
 13 16  1  0
 14 15  1  0
 15 32  1  0
 15 33  1  0
 15 34  1  0
 17 18  1  0
 18 19  2  0
 18 35  1  0
 19 20  1  0
 20 21  2  0
M  END
>  <i_m_ct_stereo_status>  (73) 
1

>  <s_m_source_file>  (73) 
/var/tmp/pbs.5076255.sched01/tmpcm5es6vs/0d3z1so5d.sdf

>  <i_m_source_file_index>  (73) 
32

>  <i_lp_mmshare_version>  (73) 
48012

>  <i_f3d_flags>  (73) 
0

>  <s_epik_input>  (73) 
W0NIM11bQ0gyXVtDSDJdW0NIMl1PbihbY0hdMSluYyhjMTIpbltjSF1uYzItYzNubmMobzMpU1tDSDNd

>  <s_epik_cmdline>  (73) 
J2VwaWtfcHl0aG9uJywgJy1waHQnLCAnMi4wJywgJy1waCcsICc3LjAnLCAnLXRuJywgJzgnLCAnLW1hJywgJzIwMCcsICctaW1hZScsICc8aW5maWxlLm1hZT4nLCAnLW9tYWUnLCAnPG91dGZpbGUubWFlPic=

>  <r_lp_tautomer_probability>  (73) 
1

>  <r_epik_Ionization_Penalty>  (73) 
6.71678e-09

>  <r_epik_Ionization_Penalty_Charging>  (73) 
0

>  <r_epik_Ionization_Penalty_Neutral>  (73) 
6.71678e-09

>  <r_epik_State_Penalty>  (73) 
-0

>  <r_epik_Charging_Adjusted_Penalty>  (73) 
0

>  <i_epik_Tot_Q>  (73) 
0

>  <i_epik_Tot_abs_Q>  (73) 
0

>  <s_lp_Force_Field>  (73) 
OPLS3e

>  <r_lp_Energy>  (73) 
20.2128

>  <b_lp_Chiralities_Consistent>  (73) 
1

>  <s_lp_Variant>  (73) 
26:0-1

>  <s_i_glide_gridfile>  (73) 
pfpi4k_grid

>  <i_i_glide_lignum>  (73) 
32

>  <i_i_glide_rotatable_bonds>  (73) 
6

>  <r_i_docking_score>  (73) 
-3.78572

>  <r_i_glide_ligand_efficiency>  (73) 
-0.180272

>  <r_i_glide_ligand_efficiency_sa>  (73) 
-0.497357

>  <r_i_glide_ligand_efficiency_ln>  (73) 
-0.936011

>  <r_i_glide_gscore>  (73) 
-3.78572

>  <r_i_glide_lipo>  (73) 
-0.473954

>  <r_i_glide_hbond>  (73) 
0

>  <r_i_glide_metal>  (73) 
-0

>  <r_i_glide_rewards>  (73) 
-1.63856

>  <r_i_glide_evdw>  (73) 
-29.8507

>  <r_i_glide_ecoul>  (73) 
-5.24561

>  <r_i_glide_erotb>  (73) 
0.787266

>  <r_i_glide_esite>  (73) 
-0.18109

>  <r_i_glide_emodel>  (73) 
-42.1341

>  <r_i_glide_energy>  (73) 
-35.0963

>  <r_i_glide_einternal>  (73) 
2.87533

>  <r_i_glide_intrahb_reward>  (73) 
-0

>  <i_i_glide_confnum>  (73) 
6

>  <i_i_glide_posenum>  (73) 
20

>  <r_i_glide_eff_state_penalty>  (73) 
0

>  <ligand_id>  (73) 
26

>  <original_smiles>  (73) 
CCCCOn1cc2c(-c3nnc(SC)o3)ncnc2n1

>  <smiles>  (73) 
[H]c1nc(-c2nnc(SC([H])([H])[H])o2)c2c([H])n(OC([H])([H])C([H])([H])C([H])([H])C([H])([H])[H])nc2n1

$$$$
26:0:1
     RDKit          3D

 35 37  0  0  1  0  0  0  0  0999 V2000
    3.2278    0.7891   -5.2967 C   0  0  0  0  0  0  0  0  0  0  0  0
    3.3807    0.2081   -3.8898 C   0  0  0  0  0  0  0  0  0  0  0  0
    4.0538   -1.1654   -3.8762 C   0  0  0  0  0  0  0  0  0  0  0  0
    4.2492   -1.6899   -2.4493 C   0  0  0  0  0  0  0  0  0  0  0  0
    4.9518   -2.9215   -2.5185 O   0  0  0  0  0  0  0  0  0  0  0  0
    4.9858   -3.5330   -1.2888 N   0  0  0  0  0  0  0  0  0  0  0  0
    3.9463   -4.2220   -0.6873 C   0  0  0  0  0  0  0  0  0  0  0  0
    4.4694   -4.6696    0.5100 C   0  0  0  0  0  0  0  0  0  0  0  0
    3.9336   -5.4255    1.5812 C   0  0  0  0  0  0  0  0  0  0  0  0
    2.5609   -5.9552    1.6234 C   0  0  0  0  0  0  0  0  0  0  0  0
    1.5791   -5.8781    0.7147 N   0  0  0  0  0  0  0  0  0  0  0  0
    0.5084   -6.5720    1.2469 N   0  0  0  0  0  0  0  0  0  0  0  0
    0.9106   -7.0040    2.4441 C   0  0  0  0  0  0  0  0  0  0  0  0
   -0.0216   -7.8598    3.6762 S   0  0  0  0  0  0  0  0  0  0  0  0
   -1.2280   -8.7233    2.6180 C   0  0  0  0  0  0  0  0  0  0  0  0
    2.1784   -6.6297    2.7486 O   0  0  0  0  0  0  0  0  0  0  0  0
    4.7117   -5.6870    2.6556 N   0  0  0  0  0  0  0  0  0  0  0  0
    5.9627   -5.2271    2.6390 C   0  0  0  0  0  0  0  0  0  0  0  0
    6.5387   -4.5156    1.6680 N   0  0  0  0  0  0  0  0  0  0  0  0
    5.7885   -4.2267    0.5886 C   0  0  0  0  0  0  0  0  0  0  0  0
    6.1250   -3.5124   -0.5149 N   0  0  0  0  0  0  0  0  0  0  0  0
    2.7412    1.7631   -5.2526 H   0  0  0  0  0  0  0  0  0  0  0  0
    2.6186    0.1391   -5.9230 H   0  0  0  0  0  0  0  0  0  0  0  0
    4.1984    0.9262   -5.7732 H   0  0  0  0  0  0  0  0  0  0  0  0
    3.9647    0.9018   -3.2852 H   0  0  0  0  0  0  0  0  0  0  0  0
    2.4043    0.1315   -3.4156 H   0  0  0  0  0  0  0  0  0  0  0  0
    3.4488   -1.8831   -4.4392 H   0  0  0  0  0  0  0  0  0  0  0  0
    5.0049   -1.0950   -4.3810 H   0  0  0  0  0  0  0  0  0  0  0  0
    4.8005   -0.9781   -1.8279 H   0  0  0  0  0  0  0  0  0  0  0  0
    3.2709   -1.8384   -1.9918 H   0  0  0  0  0  0  0  0  0  0  0  0
    2.9808   -4.3037   -1.1634 H   0  0  0  0  0  0  0  0  0  0  0  0
   -1.8844   -9.3657    3.2101 H   0  0  0  0  0  0  0  0  0  0  0  0
   -0.7130   -9.3529    1.8940 H   0  0  0  0  0  0  0  0  0  0  0  0
   -1.8504   -8.0131    2.0747 H   0  0  0  0  0  0  0  0  0  0  0  0
    6.5721   -5.4390    3.5042 H   0  0  0  0  0  0  0  0  0  0  0  0
  1  2  1  0
  1 22  1  0
  1 23  1  0
  1 24  1  0
  2  3  1  0
  2 25  1  0
  2 26  1  0
  3  4  1  0
  3 27  1  0
  3 28  1  0
  4  5  1  0
  4 29  1  0
  4 30  1  0
  5  6  1  0
  6 21  1  0
  6  7  1  0
  7  8  2  0
  7 31  1  0
  8 20  1  0
  8  9  1  0
  9 10  1  0
  9 17  2  0
 10 16  1  0
 10 11  2  0
 11 12  1  0
 12 13  2  0
 13 14  1  0
 13 16  1  0
 14 15  1  0
 15 32  1  0
 15 33  1  0
 15 34  1  0
 17 18  1  0
 18 19  2  0
 18 35  1  0
 19 20  1  0
 20 21  2  0
M  END
>  <i_m_ct_stereo_status>  (74) 
1

>  <s_m_source_file>  (74) 
/var/tmp/pbs.5076255.sched01/tmpcm5es6vs/0d3z1so5d.sdf

>  <i_m_source_file_index>  (74) 
32

>  <i_lp_mmshare_version>  (74) 
48012

>  <i_f3d_flags>  (74) 
0

>  <s_epik_input>  (74) 
W0NIM11bQ0gyXVtDSDJdW0NIMl1PbihbY0hdMSluYyhjMTIpbltjSF1uYzItYzNubmMobzMpU1tDSDNd

>  <s_epik_cmdline>  (74) 
J2VwaWtfcHl0aG9uJywgJy1waHQnLCAnMi4wJywgJy1waCcsICc3LjAnLCAnLXRuJywgJzgnLCAnLW1hJywgJzIwMCcsICctaW1hZScsICc8aW5maWxlLm1hZT4nLCAnLW9tYWUnLCAnPG91dGZpbGUubWFlPic=

>  <r_lp_tautomer_probability>  (74) 
1

>  <r_epik_Ionization_Penalty>  (74) 
6.71678e-09

>  <r_epik_Ionization_Penalty_Charging>  (74) 
0

>  <r_epik_Ionization_Penalty_Neutral>  (74) 
6.71678e-09

>  <r_epik_State_Penalty>  (74) 
-0

>  <r_epik_Charging_Adjusted_Penalty>  (74) 
0

>  <i_epik_Tot_Q>  (74) 
0

>  <i_epik_Tot_abs_Q>  (74) 
0

>  <s_lp_Force_Field>  (74) 
OPLS3e

>  <r_lp_Energy>  (74) 
20.2128

>  <b_lp_Chiralities_Consistent>  (74) 
1

>  <s_lp_Variant>  (74) 
26:0-1

>  <s_i_glide_gridfile>  (74) 
pfpi4k_grid

>  <i_i_glide_lignum>  (74) 
32

>  <i_i_glide_rotatable_bonds>  (74) 
6

>  <r_i_docking_score>  (74) 
-3.60996

>  <r_i_glide_ligand_efficiency>  (74) 
-0.171903

>  <r_i_glide_ligand_efficiency_sa>  (74) 
-0.474266

>  <r_i_glide_ligand_efficiency_ln>  (74) 
-0.892554

>  <r_i_glide_gscore>  (74) 
-3.60996

>  <r_i_glide_lipo>  (74) 
-0.389158

>  <r_i_glide_hbond>  (74) 
0

>  <r_i_glide_metal>  (74) 
-0

>  <r_i_glide_rewards>  (74) 
-1.55439

>  <r_i_glide_evdw>  (74) 
-28.8416

>  <r_i_glide_ecoul>  (74) 
-5.47776

>  <r_i_glide_erotb>  (74) 
0.787266

>  <r_i_glide_esite>  (74) 
-0.189923

>  <r_i_glide_emodel>  (74) 
-41.9184

>  <r_i_glide_energy>  (74) 
-34.3194

>  <r_i_glide_einternal>  (74) 
1.02029

>  <r_i_glide_intrahb_reward>  (74) 
-0

>  <i_i_glide_confnum>  (74) 
6

>  <i_i_glide_posenum>  (74) 
21

>  <r_i_glide_eff_state_penalty>  (74) 
0

>  <ligand_id>  (74) 
26

>  <original_smiles>  (74) 
CCCCOn1cc2c(-c3nnc(SC)o3)ncnc2n1

>  <smiles>  (74) 
[H]c1nc(-c2nnc(SC([H])([H])[H])o2)c2c([H])n(OC([H])([H])C([H])([H])C([H])([H])C([H])([H])[H])nc2n1

$$$$
26:0:2
     RDKit          3D

 35 37  0  0  1  0  0  0  0  0999 V2000
   -0.5426   -7.3708    1.3851 C   0  0  0  0  0  0  0  0  0  0  0  0
    0.7655   -8.0651    1.7898 C   0  0  0  0  0  0  0  0  0  0  0  0
    1.4338   -7.4279    3.0170 C   0  0  0  0  0  0  0  0  0  0  0  0
    2.0016   -6.0322    2.7331 C   0  0  0  0  0  0  0  0  0  0  0  0
    3.0737   -6.1437    1.8033 O   0  0  0  0  0  0  0  0  0  0  0  0
    3.5810   -4.9108    1.4735 N   0  0  0  0  0  0  0  0  0  0  0  0
    3.4973   -4.2724    0.2410 C   0  0  0  0  0  0  0  0  0  0  0  0
    4.1568   -3.0724    0.4389 C   0  0  0  0  0  0  0  0  0  0  0  0
    4.4410   -1.9693   -0.3990 C   0  0  0  0  0  0  0  0  0  0  0  0
    4.0373   -1.8679   -1.8053 C   0  0  0  0  0  0  0  0  0  0  0  0
    3.4971   -2.7873   -2.6196 N   0  0  0  0  0  0  0  0  0  0  0  0
    3.3212   -2.1617   -3.8368 N   0  0  0  0  0  0  0  0  0  0  0  0
    3.7289   -0.9053   -3.6548 C   0  0  0  0  0  0  0  0  0  0  0  0
    3.8000    0.4052   -4.8196 S   0  0  0  0  0  0  0  0  0  0  0  0
    2.0255    0.6398   -5.1158 C   0  0  0  0  0  0  0  0  0  0  0  0
    4.2343   -0.6677   -2.4239 O   0  0  0  0  0  0  0  0  0  0  0  0
    5.1335   -0.9185    0.1048 N   0  0  0  0  0  0  0  0  0  0  0  0
    5.4997   -0.9732    1.3813 C   0  0  0  0  0  0  0  0  0  0  0  0
    5.2771   -1.9758    2.2297 N   0  0  0  0  0  0  0  0  0  0  0  0
    4.6033   -3.0393    1.7591 C   0  0  0  0  0  0  0  0  0  0  0  0
    4.2687   -4.1716    2.4085 N   0  0  0  0  0  0  0  0  0  0  0  0
   -0.9870   -7.8563    0.5209 H   0  0  0  0  0  0  0  0  0  0  0  0
   -0.3843   -6.3338    1.0971 H   0  0  0  0  0  0  0  0  0  0  0  0
   -1.2691   -7.4052    2.1983 H   0  0  0  0  0  0  0  0  0  0  0  0
    0.5543   -9.1120    2.0146 H   0  0  0  0  0  0  0  0  0  0  0  0
    1.4588   -8.0762    0.9470 H   0  0  0  0  0  0  0  0  0  0  0  0
    0.7162   -7.3853    3.8379 H   0  0  0  0  0  0  0  0  0  0  0  0
    2.2422   -8.0746    3.3642 H   0  0  0  0  0  0  0  0  0  0  0  0
    1.2376   -5.3620    2.3417 H   0  0  0  0  0  0  0  0  0  0  0  0
    2.3416   -5.5913    3.6704 H   0  0  0  0  0  0  0  0  0  0  0  0
    3.0089   -4.7226   -0.6140 H   0  0  0  0  0  0  0  0  0  0  0  0
    1.8845    1.4406   -5.8358 H   0  0  0  0  0  0  0  0  0  0  0  0
    1.5041    0.9480   -4.2118 H   0  0  0  0  0  0  0  0  0  0  0  0
    1.5461   -0.2573   -5.4946 H   0  0  0  0  0  0  0  0  0  0  0  0
    6.0345   -0.1259    1.7792 H   0  0  0  0  0  0  0  0  0  0  0  0
  1  2  1  0
  1 22  1  0
  1 23  1  0
  1 24  1  0
  2  3  1  0
  2 25  1  0
  2 26  1  0
  3  4  1  0
  3 27  1  0
  3 28  1  0
  4  5  1  0
  4 29  1  0
  4 30  1  0
  5  6  1  0
  6 21  1  0
  6  7  1  0
  7  8  2  0
  7 31  1  0
  8 20  1  0
  8  9  1  0
  9 10  1  0
  9 17  2  0
 10 16  1  0
 10 11  2  0
 11 12  1  0
 12 13  2  0
 13 14  1  0
 13 16  1  0
 14 15  1  0
 15 32  1  0
 15 33  1  0
 15 34  1  0
 17 18  1  0
 18 19  2  0
 18 35  1  0
 19 20  1  0
 20 21  2  0
M  END
>  <i_m_ct_stereo_status>  (75) 
1

>  <s_m_source_file>  (75) 
/var/tmp/pbs.5076255.sched01/tmpcm5es6vs/0d3z1so5d.sdf

>  <i_m_source_file_index>  (75) 
32

>  <i_lp_mmshare_version>  (75) 
48012

>  <i_f3d_flags>  (75) 
0

>  <s_epik_input>  (75) 
W0NIM11bQ0gyXVtDSDJdW0NIMl1PbihbY0hdMSluYyhjMTIpbltjSF1uYzItYzNubmMobzMpU1tDSDNd

>  <s_epik_cmdline>  (75) 
J2VwaWtfcHl0aG9uJywgJy1waHQnLCAnMi4wJywgJy1waCcsICc3LjAnLCAnLXRuJywgJzgnLCAnLW1hJywgJzIwMCcsICctaW1hZScsICc8aW5maWxlLm1hZT4nLCAnLW9tYWUnLCAnPG91dGZpbGUubWFlPic=

>  <r_lp_tautomer_probability>  (75) 
1

>  <r_epik_Ionization_Penalty>  (75) 
6.71678e-09

>  <r_epik_Ionization_Penalty_Charging>  (75) 
0

>  <r_epik_Ionization_Penalty_Neutral>  (75) 
6.71678e-09

>  <r_epik_State_Penalty>  (75) 
-0

>  <r_epik_Charging_Adjusted_Penalty>  (75) 
0

>  <i_epik_Tot_Q>  (75) 
0

>  <i_epik_Tot_abs_Q>  (75) 
0

>  <s_lp_Force_Field>  (75) 
OPLS3e

>  <r_lp_Energy>  (75) 
20.2128

>  <b_lp_Chiralities_Consistent>  (75) 
1

>  <s_lp_Variant>  (75) 
26:0-1

>  <s_i_glide_gridfile>  (75) 
pfpi4k_grid

>  <i_i_glide_lignum>  (75) 
32

>  <i_i_glide_rotatable_bonds>  (75) 
6

>  <r_i_docking_score>  (75) 
-2.93412

>  <r_i_glide_ligand_efficiency>  (75) 
-0.13972

>  <r_i_glide_ligand_efficiency_sa>  (75) 
-0.385477

>  <r_i_glide_ligand_efficiency_ln>  (75) 
-0.725455

>  <r_i_glide_gscore>  (75) 
-2.93412

>  <r_i_glide_lipo>  (75) 
-0.396763

>  <r_i_glide_hbond>  (75) 
0

>  <r_i_glide_metal>  (75) 
-0

>  <r_i_glide_rewards>  (75) 
-1.53628

>  <r_i_glide_evdw>  (75) 
-31.4902

>  <r_i_glide_ecoul>  (75) 
-1.26082

>  <r_i_glide_erotb>  (75) 
0.787266

>  <r_i_glide_esite>  (75) 
-0.024708

>  <r_i_glide_emodel>  (75) 
-37.284

>  <r_i_glide_energy>  (75) 
-32.751

>  <r_i_glide_einternal>  (75) 
3.92758

>  <r_i_glide_intrahb_reward>  (75) 
-0

>  <i_i_glide_confnum>  (75) 
2

>  <i_i_glide_posenum>  (75) 
9

>  <r_i_glide_eff_state_penalty>  (75) 
0

>  <ligand_id>  (75) 
26

>  <original_smiles>  (75) 
CCCCOn1cc2c(-c3nnc(SC)o3)ncnc2n1

>  <smiles>  (75) 
[H]c1nc(-c2nnc(SC([H])([H])[H])o2)c2c([H])n(OC([H])([H])C([H])([H])C([H])([H])C([H])([H])[H])nc2n1

$$$$
27:0:0
     RDKit          3D

 18 18  0  0  1  0  0  0  0  0999 V2000
    1.8167   -5.4582    0.0868 N   0  0  0  0  0  0  0  0  0  0  0  0
    2.7523   -4.8776   -0.2841 C   0  0  0  0  0  0  0  0  0  0  0  0
    3.9357   -4.1386   -0.7601 C   0  0  0  0  0  0  0  0  0  0  0  0
    4.9091   -4.0014    0.3310 C   0  0  0  0  0  0  0  0  0  0  0  0
    5.6755   -3.8922    1.1921 N   0  0  0  0  0  0  0  0  0  0  0  0
    3.5475   -2.7864   -1.3806 C   0  0  2  0  0  0  0  0  0  0  0  0
    2.6495   -2.9020   -2.6203 C   0  0  0  0  0  0  0  0  0  0  0  0
    3.1054   -1.7745   -3.5264 C   0  0  0  0  0  0  0  0  0  0  0  0
    4.2138   -1.0868   -2.7351 C   0  0  0  0  0  0  0  0  0  0  0  0
    4.6930   -2.1051   -1.8718 O   0  0  0  0  0  0  0  0  0  0  0  0
    4.4258   -4.7507   -1.5165 H   0  0  0  0  0  0  0  0  0  0  0  0
    3.0598   -2.1433   -0.6395 H   0  0  0  0  0  0  0  0  0  0  0  0
    2.8164   -3.8442   -3.1380 H   0  0  0  0  0  0  0  0  0  0  0  0
    1.5924   -2.8416   -2.3620 H   0  0  0  0  0  0  0  0  0  0  0  0
    3.4989   -2.1902   -4.4537 H   0  0  0  0  0  0  0  0  0  0  0  0
    2.3035   -1.0899   -3.7908 H   0  0  0  0  0  0  0  0  0  0  0  0
    5.0059   -0.7019   -3.3744 H   0  0  0  0  0  0  0  0  0  0  0  0
    3.8184   -0.2590   -2.1464 H   0  0  0  0  0  0  0  0  0  0  0  0
  1  2  3  0
  2  3  1  0
  3  4  1  0
  3  6  1  0
  3 11  1  0
  4  5  3  0
  6 10  1  0
  6  7  1  0
  6 12  1  1
  7  8  1  0
  7 13  1  0
  7 14  1  0
  8  9  1  0
  8 15  1  0
  8 16  1  0
  9 10  1  0
  9 17  1  0
  9 18  1  0
M  END
>  <i_m_ct_stereo_status>  (76) 
1

>  <s_m_source_file>  (76) 
/var/tmp/pbs.5076255.sched01/tmpcm5es6vs/0d3z1so5d.sdf

>  <i_m_source_file_index>  (76) 
33

>  <i_lp_mmshare_version>  (76) 
48012

>  <i_f3d_flags>  (76) 
0

>  <s_epik_input>  (76) 
TiNDW0NIXShDI04pW0NAQEhdMVtDSDJdW0NIMl1bQ0gyXU8x

>  <s_epik_cmdline>  (76) 
J2VwaWtfcHl0aG9uJywgJy1waHQnLCAnMi4wJywgJy1waCcsICc3LjAnLCAnLXRuJywgJzgnLCAnLW1hJywgJzIwMCcsICctaW1hZScsICc8aW5maWxlLm1hZT4nLCAnLW9tYWUnLCAnPG91dGZpbGUubWFlPic=

>  <r_lp_tautomer_probability>  (76) 
1

>  <r_epik_Ionization_Penalty>  (76) 
0.000281174

>  <r_epik_Ionization_Penalty_Charging>  (76) 
0

>  <r_epik_Ionization_Penalty_Neutral>  (76) 
0.000281174

>  <r_epik_State_Penalty>  (76) 
-0

>  <r_epik_Charging_Adjusted_Penalty>  (76) 
0

>  <i_epik_Tot_Q>  (76) 
0

>  <i_epik_Tot_abs_Q>  (76) 
0

>  <s_lp_Force_Field>  (76) 
OPLS3e

>  <r_lp_Energy>  (76) 
-4.51417

>  <b_lp_Chiralities_Consistent>  (76) 
1

>  <s_lp_Variant>  (76) 
27:0-1

>  <s_i_glide_gridfile>  (76) 
pfpi4k_grid

>  <i_i_glide_lignum>  (76) 
33

>  <i_i_glide_rotatable_bonds>  (76) 
3

>  <r_i_docking_score>  (76) 
-4.13338

>  <r_i_glide_ligand_efficiency>  (76) 
-0.413338

>  <r_i_glide_ligand_efficiency_sa>  (76) 
-0.89051

>  <r_i_glide_ligand_efficiency_ln>  (76) 
-1.25156

>  <r_i_glide_gscore>  (76) 
-4.13338

>  <r_i_glide_lipo>  (76) 
-0.204567

>  <r_i_glide_hbond>  (76) 
-0.075329

>  <r_i_glide_metal>  (76) 
-0

>  <r_i_glide_rewards>  (76) 
-2.30658

>  <r_i_glide_evdw>  (76) 
-13.0254

>  <r_i_glide_ecoul>  (76) 
-5.57449

>  <r_i_glide_erotb>  (76) 
0

>  <r_i_glide_esite>  (76) 
-0.0594603

>  <r_i_glide_emodel>  (76) 
-23.623

>  <r_i_glide_energy>  (76) 
-18.5999

>  <r_i_glide_einternal>  (76) 
0.283289

>  <r_i_glide_intrahb_reward>  (76) 
-0

>  <i_i_glide_confnum>  (76) 
5

>  <i_i_glide_posenum>  (76) 
19

>  <r_i_glide_eff_state_penalty>  (76) 
0

>  <ligand_id>  (76) 
27

>  <original_smiles>  (76) 
N#CC(C#N)C1CCCO1

>  <smiles>  (76) 
[H]C(C#N)(C#N)C1([H])OC([H])([H])C([H])([H])C1([H])[H]

$$$$
27:0:1
     RDKit          3D

 18 18  0  0  1  0  0  0  0  0999 V2000
    3.1477   -4.7303    0.5281 N   0  0  0  0  0  0  0  0  0  0  0  0
    3.8524   -4.1271   -0.1644 C   0  0  0  0  0  0  0  0  0  0  0  0
    4.7420   -3.3576   -1.0469 C   0  0  0  0  0  0  0  0  0  0  0  0
    5.8623   -2.7855   -0.2869 C   0  0  0  0  0  0  0  0  0  0  0  0
    6.7506   -2.3347    0.3037 N   0  0  0  0  0  0  0  0  0  0  0  0
    3.9674   -2.2850   -1.8240 C   0  0  2  0  0  0  0  0  0  0  0  0
    2.9811   -2.8608   -2.8435 C   0  0  0  0  0  0  0  0  0  0  0  0
    3.0415   -1.8754   -3.9939 C   0  0  0  0  0  0  0  0  0  0  0  0
    4.0223   -0.8019   -3.5437 C   0  0  0  0  0  0  0  0  0  0  0  0
    4.8417   -1.4824   -2.6071 O   0  0  0  0  0  0  0  0  0  0  0  0
    5.1839   -4.0660   -1.7452 H   0  0  0  0  0  0  0  0  0  0  0  0
    3.4374   -1.6231   -1.1350 H   0  0  0  0  0  0  0  0  0  0  0  0
    3.3166   -3.8380   -3.1949 H   0  0  0  0  0  0  0  0  0  0  0  0
    1.9786   -2.9746   -2.4320 H   0  0  0  0  0  0  0  0  0  0  0  0
    3.4271   -2.3980   -4.8658 H   0  0  0  0  0  0  0  0  0  0  0  0
    2.0740   -1.4632   -4.2778 H   0  0  0  0  0  0  0  0  0  0  0  0
    4.6056   -0.4091   -4.3726 H   0  0  0  0  0  0  0  0  0  0  0  0
    3.5022    0.0289   -3.0628 H   0  0  0  0  0  0  0  0  0  0  0  0
  1  2  3  0
  2  3  1  0
  3  4  1  0
  3  6  1  0
  3 11  1  0
  4  5  3  0
  6 10  1  0
  6  7  1  0
  6 12  1  1
  7  8  1  0
  7 13  1  0
  7 14  1  0
  8  9  1  0
  8 15  1  0
  8 16  1  0
  9 10  1  0
  9 17  1  0
  9 18  1  0
M  END
>  <i_m_ct_stereo_status>  (77) 
1

>  <s_m_source_file>  (77) 
/var/tmp/pbs.5076255.sched01/tmpcm5es6vs/0d3z1so5d.sdf

>  <i_m_source_file_index>  (77) 
33

>  <i_lp_mmshare_version>  (77) 
48012

>  <i_f3d_flags>  (77) 
0

>  <s_epik_input>  (77) 
TiNDW0NIXShDI04pW0NAQEhdMVtDSDJdW0NIMl1bQ0gyXU8x

>  <s_epik_cmdline>  (77) 
J2VwaWtfcHl0aG9uJywgJy1waHQnLCAnMi4wJywgJy1waCcsICc3LjAnLCAnLXRuJywgJzgnLCAnLW1hJywgJzIwMCcsICctaW1hZScsICc8aW5maWxlLm1hZT4nLCAnLW9tYWUnLCAnPG91dGZpbGUubWFlPic=

>  <r_lp_tautomer_probability>  (77) 
1

>  <r_epik_Ionization_Penalty>  (77) 
0.000281174

>  <r_epik_Ionization_Penalty_Charging>  (77) 
0

>  <r_epik_Ionization_Penalty_Neutral>  (77) 
0.000281174

>  <r_epik_State_Penalty>  (77) 
-0

>  <r_epik_Charging_Adjusted_Penalty>  (77) 
0

>  <i_epik_Tot_Q>  (77) 
0

>  <i_epik_Tot_abs_Q>  (77) 
0

>  <s_lp_Force_Field>  (77) 
OPLS3e

>  <r_lp_Energy>  (77) 
-4.51417

>  <b_lp_Chiralities_Consistent>  (77) 
1

>  <s_lp_Variant>  (77) 
27:0-1

>  <s_i_glide_gridfile>  (77) 
pfpi4k_grid

>  <i_i_glide_lignum>  (77) 
33

>  <i_i_glide_rotatable_bonds>  (77) 
3

>  <r_i_docking_score>  (77) 
-3.70846

>  <r_i_glide_ligand_efficiency>  (77) 
-0.370846

>  <r_i_glide_ligand_efficiency_sa>  (77) 
-0.798964

>  <r_i_glide_ligand_efficiency_ln>  (77) 
-1.1229

>  <r_i_glide_gscore>  (77) 
-3.70846

>  <r_i_glide_lipo>  (77) 
-0.352032

>  <r_i_glide_hbond>  (77) 
0

>  <r_i_glide_metal>  (77) 
-0

>  <r_i_glide_rewards>  (77) 
-2.2699

>  <r_i_glide_evdw>  (77) 
-14.7843

>  <r_i_glide_ecoul>  (77) 
-2.23536

>  <r_i_glide_erotb>  (77) 
0

>  <r_i_glide_esite>  (77) 
-0.0120073

>  <r_i_glide_emodel>  (77) 
-21.2754

>  <r_i_glide_energy>  (77) 
-17.0196

>  <r_i_glide_einternal>  (77) 
0.63064

>  <r_i_glide_intrahb_reward>  (77) 
-0

>  <i_i_glide_confnum>  (77) 
5

>  <i_i_glide_posenum>  (77) 
38

>  <r_i_glide_eff_state_penalty>  (77) 
0

>  <ligand_id>  (77) 
27

>  <original_smiles>  (77) 
N#CC(C#N)C1CCCO1

>  <smiles>  (77) 
[H]C(C#N)(C#N)C1([H])OC([H])([H])C([H])([H])C1([H])[H]

$$$$
27:0:2
     RDKit          3D

 18 18  0  0  1  0  0  0  0  0999 V2000
    2.6276   -4.4292    0.7646 N   0  0  0  0  0  0  0  0  0  0  0  0
    3.3968   -3.7909    0.1756 C   0  0  0  0  0  0  0  0  0  0  0  0
    4.3719   -2.9809   -0.5741 C   0  0  0  0  0  0  0  0  0  0  0  0
    5.2251   -2.2233    0.3556 C   0  0  0  0  0  0  0  0  0  0  0  0
    5.8994   -1.6271    1.0839 N   0  0  0  0  0  0  0  0  0  0  0  0
    3.6873   -2.0692   -1.6020 C   0  0  2  0  0  0  0  0  0  0  0  0
    2.8450   -2.8363   -2.6234 C   0  0  0  0  0  0  0  0  0  0  0  0
    3.0164   -2.0617   -3.9179 C   0  0  0  0  0  0  0  0  0  0  0  0
    3.9333   -0.9019   -3.5415 C   0  0  0  0  0  0  0  0  0  0  0  0
    4.6380   -1.3875   -2.4093 O   0  0  0  0  0  0  0  0  0  0  0  0
    5.0223   -3.6831   -1.0959 H   0  0  0  0  0  0  0  0  0  0  0  0
    3.0657   -1.3250   -1.0988 H   0  0  0  0  0  0  0  0  0  0  0  0
    3.2254   -3.8499   -2.7556 H   0  0  0  0  0  0  0  0  0  0  0  0
    1.8025   -2.9107   -2.3134 H   0  0  0  0  0  0  0  0  0  0  0  0
    3.4805   -2.6980   -4.6724 H   0  0  0  0  0  0  0  0  0  0  0  0
    2.0661   -1.7117   -4.3185 H   0  0  0  0  0  0  0  0  0  0  0  0
    4.6105   -0.6296   -4.3519 H   0  0  0  0  0  0  0  0  0  0  0  0
    3.3540   -0.0177   -3.2657 H   0  0  0  0  0  0  0  0  0  0  0  0
  1  2  3  0
  2  3  1  0
  3  4  1  0
  3  6  1  0
  3 11  1  0
  4  5  3  0
  6 10  1  0
  6  7  1  0
  6 12  1  1
  7  8  1  0
  7 13  1  0
  7 14  1  0
  8  9  1  0
  8 15  1  0
  8 16  1  0
  9 10  1  0
  9 17  1  0
  9 18  1  0
M  END
>  <i_m_ct_stereo_status>  (78) 
1

>  <s_m_source_file>  (78) 
/var/tmp/pbs.5076255.sched01/tmpcm5es6vs/0d3z1so5d.sdf

>  <i_m_source_file_index>  (78) 
33

>  <i_lp_mmshare_version>  (78) 
48012

>  <i_f3d_flags>  (78) 
0

>  <s_epik_input>  (78) 
TiNDW0NIXShDI04pW0NAQEhdMVtDSDJdW0NIMl1bQ0gyXU8x

>  <s_epik_cmdline>  (78) 
J2VwaWtfcHl0aG9uJywgJy1waHQnLCAnMi4wJywgJy1waCcsICc3LjAnLCAnLXRuJywgJzgnLCAnLW1hJywgJzIwMCcsICctaW1hZScsICc8aW5maWxlLm1hZT4nLCAnLW9tYWUnLCAnPG91dGZpbGUubWFlPic=

>  <r_lp_tautomer_probability>  (78) 
1

>  <r_epik_Ionization_Penalty>  (78) 
0.000281174

>  <r_epik_Ionization_Penalty_Charging>  (78) 
0

>  <r_epik_Ionization_Penalty_Neutral>  (78) 
0.000281174

>  <r_epik_State_Penalty>  (78) 
-0

>  <r_epik_Charging_Adjusted_Penalty>  (78) 
0

>  <i_epik_Tot_Q>  (78) 
0

>  <i_epik_Tot_abs_Q>  (78) 
0

>  <s_lp_Force_Field>  (78) 
OPLS3e

>  <r_lp_Energy>  (78) 
-4.51417

>  <b_lp_Chiralities_Consistent>  (78) 
1

>  <s_lp_Variant>  (78) 
27:0-1

>  <s_i_glide_gridfile>  (78) 
pfpi4k_grid

>  <i_i_glide_lignum>  (78) 
33

>  <i_i_glide_rotatable_bonds>  (78) 
3

>  <r_i_docking_score>  (78) 
-3.66637

>  <r_i_glide_ligand_efficiency>  (78) 
-0.366637

>  <r_i_glide_ligand_efficiency_sa>  (78) 
-0.789895

>  <r_i_glide_ligand_efficiency_ln>  (78) 
-1.11015

>  <r_i_glide_gscore>  (78) 
-3.66637

>  <r_i_glide_lipo>  (78) 
-0.34679

>  <r_i_glide_hbond>  (78) 
0

>  <r_i_glide_metal>  (78) 
-0

>  <r_i_glide_rewards>  (78) 
-2.29176

>  <r_i_glide_evdw>  (78) 
-15.2193

>  <r_i_glide_ecoul>  (78) 
-1.73583

>  <r_i_glide_erotb>  (78) 
0

>  <r_i_glide_esite>  (78) 
-0.00647625

>  <r_i_glide_emodel>  (78) 
-21.4561

>  <r_i_glide_energy>  (78) 
-16.9551

>  <r_i_glide_einternal>  (78) 
0.17497

>  <r_i_glide_intrahb_reward>  (78) 
-0

>  <i_i_glide_confnum>  (78) 
1

>  <i_i_glide_posenum>  (78) 
40

>  <r_i_glide_eff_state_penalty>  (78) 
0

>  <ligand_id>  (78) 
27

>  <original_smiles>  (78) 
N#CC(C#N)C1CCCO1

>  <smiles>  (78) 
[H]C(C#N)(C#N)C1([H])OC([H])([H])C([H])([H])C1([H])[H]

$$$$
28:0:0
     RDKit          3D

 66 70  0  0  1  0  0  0  0  0999 V2000
    5.9273   -1.5721    6.6879 C   0  0  0  0  0  0  0  0  0  0  0  0
    5.0521   -0.5736    6.9040 C   0  0  0  0  0  0  0  0  0  0  0  0
    3.5883   -0.7169    7.3118 C   0  0  2  0  0  0  0  0  0  0  0  0
    3.2409   -2.1066    7.8689 C   0  0  0  0  0  0  0  0  0  0  0  0
    2.7523   -2.9235    6.6660 C   0  0  0  0  0  0  0  0  0  0  0  0
    2.4113   -1.9322    5.5228 C   0  0  2  0  0  0  0  0  0  0  0  0
    3.2470   -2.2299    4.2344 C   0  0  1  0  0  0  0  0  0  0  0  0
    2.6599   -3.4615    3.5249 C   0  0  0  0  0  0  0  0  0  0  0  0
    3.4708   -3.8419    2.2866 C   0  0  0  0  0  0  0  0  0  0  0  0
    3.5308   -2.7027    1.2455 C   0  0  2  0  0  0  0  0  0  0  0  0
    4.3092   -3.1825   -0.0251 C   0  0  1  0  0  0  0  0  0  0  0  0
    3.7642   -2.6525   -1.3741 C   0  0  0  0  0  0  0  0  0  0  0  0
    4.9700   -2.1866   -2.1901 C   0  0  0  0  0  0  0  0  0  0  0  0
    6.1606   -2.9070   -1.5591 C   0  0  1  0  0  0  0  0  0  0  0  0
    7.3962   -2.3013   -1.8959 O   0  0  0  0  0  0  0  0  0  0  0  0
    5.8603   -2.9919   -0.0405 C   0  0  2  0  0  0  0  0  0  0  0  0
    6.5960   -4.2183    0.5424 C   0  0  0  0  0  0  0  0  0  0  0  0
    6.3063   -1.7065    0.7086 C   0  0  0  0  0  0  0  0  0  0  0  0
    5.5720   -1.4628    2.0388 C   0  0  0  0  0  0  0  0  0  0  0  0
    4.0349   -1.3555    1.8716 C   0  0  1  0  0  0  0  0  0  0  0  0
    3.7005   -0.1903    0.9074 C   0  0  0  0  0  0  0  0  0  0  0  0
    3.2917   -1.0465    3.2327 C   0  0  2  0  0  0  0  0  0  0  0  0
    3.8288    0.1922    3.9810 C   0  0  0  0  0  0  0  0  0  0  0  0
    2.9123    0.6037    5.1346 C   0  0  0  0  0  0  0  0  0  0  0  0
    2.5653   -0.5152    6.1550 C   0  0  2  0  0  0  0  0  0  0  0  0
    1.2023   -0.1132    6.7719 C   0  0  0  0  0  0  0  0  0  0  0  0
    5.6405   -2.6100    6.7715 H   0  0  0  0  0  0  0  0  0  0  0  0
    6.9526   -1.3593    6.4211 H   0  0  0  0  0  0  0  0  0  0  0  0
    5.3965    0.4430    6.7935 H   0  0  0  0  0  0  0  0  0  0  0  0
    3.4368    0.0312    8.0912 H   0  0  0  0  0  0  0  0  0  0  0  0
    4.0662   -2.5747    8.4068 H   0  0  0  0  0  0  0  0  0  0  0  0
    2.4367   -2.0200    8.6006 H   0  0  0  0  0  0  0  0  0  0  0  0
    3.5365   -3.6184    6.3663 H   0  0  0  0  0  0  0  0  0  0  0  0
    1.8877   -3.5255    6.9472 H   0  0  0  0  0  0  0  0  0  0  0  0
    1.3614   -2.0612    5.2544 H   0  0  0  0  0  0  0  0  0  0  0  0
    4.2731   -2.4515    4.5330 H   0  0  0  0  0  0  0  0  0  0  0  0
    2.6308   -4.3110    4.2065 H   0  0  0  0  0  0  0  0  0  0  0  0
    1.6254   -3.2685    3.2319 H   0  0  0  0  0  0  0  0  0  0  0  0
    4.4711   -4.1379    2.6015 H   0  0  0  0  0  0  0  0  0  0  0  0
    3.0149   -4.7269    1.8389 H   0  0  0  0  0  0  0  0  0  0  0  0
    2.4930   -2.5449    0.9398 H   0  0  0  0  0  0  0  0  0  0  0  0
    4.1344   -4.2557   -0.1041 H   0  0  0  0  0  0  0  0  0  0  0  0
    3.2701   -3.4704   -1.9039 H   0  0  0  0  0  0  0  0  0  0  0  0
    3.0173   -1.8621   -1.2729 H   0  0  0  0  0  0  0  0  0  0  0  0
    4.8653   -2.4113   -3.2531 H   0  0  0  0  0  0  0  0  0  0  0  0
    5.0881   -1.1065   -2.0965 H   0  0  0  0  0  0  0  0  0  0  0  0
    6.1793   -3.9105   -1.9766 H   0  0  0  0  0  0  0  0  0  0  0  0
    7.7035   -2.6607   -2.7243 H   0  0  0  0  0  0  0  0  0  0  0  0
    7.6704   -4.1383    0.3848 H   0  0  0  0  0  0  0  0  0  0  0  0
    6.2764   -5.1440    0.0661 H   0  0  0  0  0  0  0  0  0  0  0  0
    6.4374   -4.3304    1.6105 H   0  0  0  0  0  0  0  0  0  0  0  0
    7.3771   -1.7611    0.9114 H   0  0  0  0  0  0  0  0  0  0  0  0
    6.1929   -0.8309    0.0700 H   0  0  0  0  0  0  0  0  0  0  0  0
    5.8220   -2.2594    2.7378 H   0  0  0  0  0  0  0  0  0  0  0  0
    5.9743   -0.5570    2.4836 H   0  0  0  0  0  0  0  0  0  0  0  0
    4.1392    0.7520    1.2281 H   0  0  0  0  0  0  0  0  0  0  0  0
    2.6217   -0.0494    0.8198 H   0  0  0  0  0  0  0  0  0  0  0  0
    4.0781   -0.3475   -0.0980 H   0  0  0  0  0  0  0  0  0  0  0  0
    2.2539   -0.8228    2.9678 H   0  0  0  0  0  0  0  0  0  0  0  0
    4.8374    0.0170    4.3483 H   0  0  0  0  0  0  0  0  0  0  0  0
    3.9071    1.0487    3.3181 H   0  0  0  0  0  0  0  0  0  0  0  0
    3.3504    1.4530    5.6546 H   0  0  0  0  0  0  0  0  0  0  0  0
    1.9949    0.9830    4.6813 H   0  0  0  0  0  0  0  0  0  0  0  0
    0.4340   -0.0262    6.0015 H   0  0  0  0  0  0  0  0  0  0  0  0
    1.2653    0.8510    7.2775 H   0  0  0  0  0  0  0  0  0  0  0  0
    0.8388   -0.8429    7.4934 H   0  0  0  0  0  0  0  0  0  0  0  0
  1  2  2  0
  1 27  1  0
  1 28  1  0
  2  3  1  0
  2 29  1  0
  3 25  1  0
  3  4  1  0
  3 30  1  1
  4  5  1  0
  4 31  1  0
  4 32  1  0
  5  6  1  0
  5 33  1  0
  5 34  1  0
  6 25  1  0
  6  7  1  0
  6 35  1  6
  7 22  1  0
  7  8  1  0
  7 36  1  1
  8  9  1  0
  8 37  1  0
  8 38  1  0
  9 10  1  0
  9 39  1  0
  9 40  1  0
 10 20  1  0
 10 11  1  0
 10 41  1  6
 11 16  1  0
 11 12  1  0
 11 42  1  6
 12 13  1  0
 12 43  1  0
 12 44  1  0
 13 14  1  0
 13 45  1  0
 13 46  1  0
 14 15  1  0
 14 16  1  0
 14 47  1  6
 15 48  1  0
 16 17  1  1
 16 18  1  0
 17 49  1  0
 17 50  1  0
 17 51  1  0
 18 19  1  0
 18 52  1  0
 18 53  1  0
 19 20  1  0
 19 54  1  0
 19 55  1  0
 20 21  1  6
 20 22  1  0
 21 56  1  0
 21 57  1  0
 21 58  1  0
 22 23  1  0
 22 59  1  6
 23 24  1  0
 23 60  1  0
 23 61  1  0
 24 25  1  0
 24 62  1  0
 24 63  1  0
 25 26  1  1
 26 64  1  0
 26 65  1  0
 26 66  1  0
M  END
>  <i_m_ct_stereo_status>  (79) 
1

>  <s_m_source_file>  (79) 
/var/tmp/pbs.5076255.sched01/tmpcm5es6vs/0d3z1so5d.sdf

>  <i_m_source_file_index>  (79) 
34

>  <i_lp_mmshare_version>  (79) 
48012

>  <i_f3d_flags>  (79) 
0

>  <s_epik_input>  (79) 
W0NIMl09W0NIXVtDQEhdKFtDSDJdW0NIMl0xKVtDQEBdKFtDSDNdKShbQ0gyXVtDSDJdMilbQ0BIXTFbQ0BASF0oW0NIMl1bQ0gyXTMpW0NAQEhdMltDQEBdKFtDSDNdKShbQ0gyXVtDSDJdNClbQ0BIXTNbQ0BIXShbQ0BdNDVbQ0gzXSlbQ0gyXVtDSDJdW0NASF01W09IXQ==

>  <s_epik_cmdline>  (79) 
J2VwaWtfcHl0aG9uJywgJy1waHQnLCAnMi4wJywgJy1waCcsICc3LjAnLCAnLXRuJywgJzgnLCAnLW1hJywgJzIwMCcsICctaW1hZScsICc8aW5maWxlLm1hZT4nLCAnLW9tYWUnLCAnPG91dGZpbGUubWFlPic=

>  <r_lp_tautomer_probability>  (79) 
1

>  <r_epik_Ionization_Penalty>  (79) 
3.17116e-06

>  <r_epik_Ionization_Penalty_Charging>  (79) 
0

>  <r_epik_Ionization_Penalty_Neutral>  (79) 
3.17116e-06

>  <r_epik_State_Penalty>  (79) 
-0

>  <r_epik_Charging_Adjusted_Penalty>  (79) 
0

>  <i_epik_Tot_Q>  (79) 
0

>  <i_epik_Tot_abs_Q>  (79) 
0

>  <s_lp_Force_Field>  (79) 
OPLS3e

>  <r_lp_Energy>  (79) 
65.7516

>  <b_lp_Chiralities_Consistent>  (79) 
1

>  <s_lp_Variant>  (79) 
28:0-1

>  <s_i_glide_gridfile>  (79) 
pfpi4k_grid

>  <i_i_glide_lignum>  (79) 
34

>  <i_i_glide_rotatable_bonds>  (79) 
2

>  <r_i_docking_score>  (79) 
-3.87165

>  <r_i_glide_ligand_efficiency>  (79) 
-0.14891

>  <r_i_glide_ligand_efficiency_sa>  (79) 
-0.441145

>  <r_i_glide_ligand_efficiency_ln>  (79) 
-0.909245

>  <r_i_glide_gscore>  (79) 
-3.87165

>  <r_i_glide_lipo>  (79) 
-0.476783

>  <r_i_glide_hbond>  (79) 
-0.48

>  <r_i_glide_metal>  (79) 
-0

>  <r_i_glide_rewards>  (79) 
-0.977833

>  <r_i_glide_evdw>  (79) 
-22.0097

>  <r_i_glide_ecoul>  (79) 
-6.58023

>  <r_i_glide_erotb>  (79) 
0.150481

>  <r_i_glide_esite>  (79) 
0

>  <r_i_glide_emodel>  (79) 
-33.7007

>  <r_i_glide_energy>  (79) 
-28.5899

>  <r_i_glide_einternal>  (79) 
3.25595

>  <r_i_glide_intrahb_reward>  (79) 
-0

>  <i_i_glide_confnum>  (79) 
3

>  <i_i_glide_posenum>  (79) 
25

>  <r_i_glide_eff_state_penalty>  (79) 
0

>  <ligand_id>  (79) 
28

>  <original_smiles>  (79) 
C=CC1CCC2C3CCC4C5CCC(O)C5(C)CCC4(C)C3CCC12C

>  <smiles>  (79) 
[H]OC1([H])C([H])([H])C([H])([H])C2([H])C3([H])C([H])([H])C([H])([H])C4([H])C5([H])C([H])([H])C([H])([H])C([H])(C([H])=C([H])[H])C5(C([H])([H])[H])C([H])([H])C([H])([H])C4([H])C3(C([H])([H])[H])C([H])([H])C([H])([H])C12C([H])([H])[H]

$$$$
28:0:1
     RDKit          3D

 66 70  0  0  1  0  0  0  0  0999 V2000
    5.8439   -1.7974    7.1495 C   0  0  0  0  0  0  0  0  0  0  0  0
    4.6658   -1.4449    7.6876 C   0  0  0  0  0  0  0  0  0  0  0  0
    3.6156   -2.3830    8.2809 C   0  0  2  0  0  0  0  0  0  0  0  0
    4.1724   -3.7688    8.6417 C   0  0  0  0  0  0  0  0  0  0  0  0
    3.9310   -4.6474    7.4073 C   0  0  0  0  0  0  0  0  0  0  0  0
    2.8895   -3.9305    6.5089 C   0  0  2  0  0  0  0  0  0  0  0  0
    3.4598   -3.6485    5.0803 C   0  0  1  0  0  0  0  0  0  0  0  0
    3.4641   -4.9559    4.2708 C   0  0  0  0  0  0  0  0  0  0  0  0
    4.0678   -4.7578    2.8803 C   0  0  0  0  0  0  0  0  0  0  0  0
    3.3021   -3.7075    2.0451 C   0  0  2  0  0  0  0  0  0  0  0  0
    3.9285   -3.6110    0.6126 C   0  0  1  0  0  0  0  0  0  0  0  0
    2.9173   -3.3786   -0.5340 C   0  0  0  0  0  0  0  0  0  0  0  0
    3.4992   -2.2879   -1.4284 C   0  0  0  0  0  0  0  0  0  0  0  0
    4.9908   -2.2877   -1.1063 C   0  0  1  0  0  0  0  0  0  0  0  0
    5.5965   -1.0711   -1.4928 O   0  0  0  0  0  0  0  0  0  0  0  0
    5.1098   -2.6114    0.4025 C   0  0  2  0  0  0  0  0  0  0  0  0
    6.4785   -3.2766    0.6553 C   0  0  0  0  0  0  0  0  0  0  0  0
    4.9707   -1.3370    1.2819 C   0  0  0  0  0  0  0  0  0  0  0  0
    4.5170   -1.6130    2.7268 C   0  0  0  0  0  0  0  0  0  0  0  0
    3.1506   -2.3425    2.8053 C   0  0  1  0  0  0  0  0  0  0  0  0
    2.0609   -1.4809    2.1111 C   0  0  0  0  0  0  0  0  0  0  0  0
    2.6677   -2.5716    4.2938 C   0  0  2  0  0  0  0  0  0  0  0  0
    2.6297   -1.2872    5.1503 C   0  0  0  0  0  0  0  0  0  0  0  0
    1.9041   -1.5102    6.4790 C   0  0  0  0  0  0  0  0  0  0  0  0
    2.4172   -2.6978    7.3389 C   0  0  2  0  0  0  0  0  0  0  0  0
    1.2127   -3.1370    8.2077 C   0  0  0  0  0  0  0  0  0  0  0  0
    6.1511   -2.8318    7.0777 H   0  0  0  0  0  0  0  0  0  0  0  0
    6.5255   -1.0515    6.7626 H   0  0  0  0  0  0  0  0  0  0  0  0
    4.4105   -0.3955    7.7263 H   0  0  0  0  0  0  0  0  0  0  0  0
    3.2705   -1.8869    9.1890 H   0  0  0  0  0  0  0  0  0  0  0  0
    5.2142   -3.7448    8.9618 H   0  0  0  0  0  0  0  0  0  0  0  0
    3.6226   -4.1768    9.4905 H   0  0  0  0  0  0  0  0  0  0  0  0
    4.8758   -4.7913    6.8829 H   0  0  0  0  0  0  0  0  0  0  0  0
    3.5860   -5.6363    7.7122 H   0  0  0  0  0  0  0  0  0  0  0  0
    2.0316   -4.5926    6.3814 H   0  0  0  0  0  0  0  0  0  0  0  0
    4.4889   -3.2977    5.1818 H   0  0  0  0  0  0  0  0  0  0  0  0
    4.0275   -5.7255    4.7980 H   0  0  0  0  0  0  0  0  0  0  0  0
    2.4459   -5.3392    4.1700 H   0  0  0  0  0  0  0  0  0  0  0  0
    5.1174   -4.4856    2.9908 H   0  0  0  0  0  0  0  0  0  0  0  0
    4.0533   -5.7210    2.3653 H   0  0  0  0  0  0  0  0  0  0  0  0
    2.2986   -4.1224    1.9287 H   0  0  0  0  0  0  0  0  0  0  0  0
    4.3224   -4.6021    0.3862 H   0  0  0  0  0  0  0  0  0  0  0  0
    2.8138   -4.2942   -1.1162 H   0  0  0  0  0  0  0  0  0  0  0  0
    1.9146   -3.1161   -0.1967 H   0  0  0  0  0  0  0  0  0  0  0  0
    3.2986   -2.4697   -2.4853 H   0  0  0  0  0  0  0  0  0  0  0  0
    3.0437   -1.3280   -1.1789 H   0  0  0  0  0  0  0  0  0  0  0  0
    5.4501   -3.0893   -1.6845 H   0  0  0  0  0  0  0  0  0  0  0  0
    5.0689   -0.3621   -1.1440 H   0  0  0  0  0  0  0  0  0  0  0  0
    7.2912   -2.6177    0.3579 H   0  0  0  0  0  0  0  0  0  0  0  0
    6.5903   -4.1938    0.0775 H   0  0  0  0  0  0  0  0  0  0  0  0
    6.6327   -3.5273    1.6999 H   0  0  0  0  0  0  0  0  0  0  0  0
    5.9295   -0.8177    1.3178 H   0  0  0  0  0  0  0  0  0  0  0  0
    4.2860   -0.6262    0.8231 H   0  0  0  0  0  0  0  0  0  0  0  0
    5.2867   -2.1879    3.2376 H   0  0  0  0  0  0  0  0  0  0  0  0
    4.4743   -0.6624    3.2513 H   0  0  0  0  0  0  0  0  0  0  0  0
    2.0102   -0.4713    2.5136 H   0  0  0  0  0  0  0  0  0  0  0  0
    1.0736   -1.9336    2.2086 H   0  0  0  0  0  0  0  0  0  0  0  0
    2.2379   -1.3488    1.0470 H   0  0  0  0  0  0  0  0  0  0  0  0
    1.6360   -2.9313    4.2258 H   0  0  0  0  0  0  0  0  0  0  0  0
    3.6343   -0.9134    5.3323 H   0  0  0  0  0  0  0  0  0  0  0  0
    2.1134   -0.4834    4.6352 H   0  0  0  0  0  0  0  0  0  0  0  0
    1.9385   -0.5922    7.0631 H   0  0  0  0  0  0  0  0  0  0  0  0
    0.8521   -1.6617    6.2353 H   0  0  0  0  0  0  0  0  0  0  0  0
    0.3671   -3.4354    7.5856 H   0  0  0  0  0  0  0  0  0  0  0  0
    0.8737   -2.3261    8.8535 H   0  0  0  0  0  0  0  0  0  0  0  0
    1.4452   -3.9903    8.8434 H   0  0  0  0  0  0  0  0  0  0  0  0
  1  2  2  0
  1 27  1  0
  1 28  1  0
  2  3  1  0
  2 29  1  0
  3 25  1  0
  3  4  1  0
  3 30  1  1
  4  5  1  0
  4 31  1  0
  4 32  1  0
  5  6  1  0
  5 33  1  0
  5 34  1  0
  6 25  1  0
  6  7  1  0
  6 35  1  6
  7 22  1  0
  7  8  1  0
  7 36  1  1
  8  9  1  0
  8 37  1  0
  8 38  1  0
  9 10  1  0
  9 39  1  0
  9 40  1  0
 10 20  1  0
 10 11  1  0
 10 41  1  6
 11 16  1  0
 11 12  1  0
 11 42  1  6
 12 13  1  0
 12 43  1  0
 12 44  1  0
 13 14  1  0
 13 45  1  0
 13 46  1  0
 14 15  1  0
 14 16  1  0
 14 47  1  6
 15 48  1  0
 16 17  1  6
 16 18  1  0
 17 49  1  0
 17 50  1  0
 17 51  1  0
 18 19  1  0
 18 52  1  0
 18 53  1  0
 19 20  1  0
 19 54  1  0
 19 55  1  0
 20 21  1  6
 20 22  1  0
 21 56  1  0
 21 57  1  0
 21 58  1  0
 22 23  1  0
 22 59  1  6
 23 24  1  0
 23 60  1  0
 23 61  1  0
 24 25  1  0
 24 62  1  0
 24 63  1  0
 25 26  1  1
 26 64  1  0
 26 65  1  0
 26 66  1  0
M  END
>  <i_m_ct_stereo_status>  (80) 
1

>  <s_m_source_file>  (80) 
/var/tmp/pbs.5076255.sched01/tmpcm5es6vs/0d3z1so5d.sdf

>  <i_m_source_file_index>  (80) 
34

>  <i_lp_mmshare_version>  (80) 
48012

>  <i_f3d_flags>  (80) 
0

>  <s_epik_input>  (80) 
W0NIMl09W0NIXVtDQEhdKFtDSDJdW0NIMl0xKVtDQEBdKFtDSDNdKShbQ0gyXVtDSDJdMilbQ0BIXTFbQ0BASF0oW0NIMl1bQ0gyXTMpW0NAQEhdMltDQEBdKFtDSDNdKShbQ0gyXVtDSDJdNClbQ0BIXTNbQ0BIXShbQ0BdNDVbQ0gzXSlbQ0gyXVtDSDJdW0NASF01W09IXQ==

>  <s_epik_cmdline>  (80) 
J2VwaWtfcHl0aG9uJywgJy1waHQnLCAnMi4wJywgJy1waCcsICc3LjAnLCAnLXRuJywgJzgnLCAnLW1hJywgJzIwMCcsICctaW1hZScsICc8aW5maWxlLm1hZT4nLCAnLW9tYWUnLCAnPG91dGZpbGUubWFlPic=

>  <r_lp_tautomer_probability>  (80) 
1

>  <r_epik_Ionization_Penalty>  (80) 
3.17116e-06

>  <r_epik_Ionization_Penalty_Charging>  (80) 
0

>  <r_epik_Ionization_Penalty_Neutral>  (80) 
3.17116e-06

>  <r_epik_State_Penalty>  (80) 
-0

>  <r_epik_Charging_Adjusted_Penalty>  (80) 
0

>  <i_epik_Tot_Q>  (80) 
0

>  <i_epik_Tot_abs_Q>  (80) 
0

>  <s_lp_Force_Field>  (80) 
OPLS3e

>  <r_lp_Energy>  (80) 
65.7516

>  <b_lp_Chiralities_Consistent>  (80) 
1

>  <s_lp_Variant>  (80) 
28:0-1

>  <s_i_glide_gridfile>  (80) 
pfpi4k_grid

>  <i_i_glide_lignum>  (80) 
34

>  <i_i_glide_rotatable_bonds>  (80) 
2

>  <r_i_docking_score>  (80) 
-2.5175

>  <r_i_glide_ligand_efficiency>  (80) 
-0.0968271

>  <r_i_glide_ligand_efficiency_sa>  (80) 
-0.28685

>  <r_i_glide_ligand_efficiency_ln>  (80) 
-0.591228

>  <r_i_glide_gscore>  (80) 
-2.5175

>  <r_i_glide_lipo>  (80) 
-0.251007

>  <r_i_glide_hbond>  (80) 
-0.0551615

>  <r_i_glide_metal>  (80) 
-0

>  <r_i_glide_rewards>  (80) 
-0.977833

>  <r_i_glide_evdw>  (80) 
-17.9725

>  <r_i_glide_ecoul>  (80) 
-3.23572

>  <r_i_glide_erotb>  (80) 
0.150481

>  <r_i_glide_esite>  (80) 
0

>  <r_i_glide_emodel>  (80) 
-24.4083

>  <r_i_glide_energy>  (80) 
-21.2083

>  <r_i_glide_einternal>  (80) 
2.55287

>  <r_i_glide_intrahb_reward>  (80) 
-0

>  <i_i_glide_confnum>  (80) 
3

>  <i_i_glide_posenum>  (80) 
1

>  <r_i_glide_eff_state_penalty>  (80) 
0

>  <ligand_id>  (80) 
28

>  <original_smiles>  (80) 
C=CC1CCC2C3CCC4C5CCC(O)C5(C)CCC4(C)C3CCC12C

>  <smiles>  (80) 
[H]OC1([H])C([H])([H])C([H])([H])C2([H])C3([H])C([H])([H])C([H])([H])C4([H])C5([H])C([H])([H])C([H])([H])C([H])(C([H])=C([H])[H])C5(C([H])([H])[H])C([H])([H])C([H])([H])C4([H])C3(C([H])([H])[H])C([H])([H])C([H])([H])C12C([H])([H])[H]

$$$$
29:0:0
     RDKit          3D

 48 51  0  0  1  0  0  0  0  0999 V2000
    2.9893   -2.7945   -2.6683 C   0  0  0  0  0  0  0  0  0  0  0  0
    3.7585   -1.5345   -2.1988 C   0  0  0  0  0  0  0  0  0  0  0  0
    4.0459   -0.5534   -3.3360 C   0  0  0  0  0  0  0  0  0  0  0  0
    4.9876   -1.9032   -1.4786 N   0  0  0  0  0  0  0  0  0  0  0  0
    5.9167   -2.6412   -2.1379 N   0  0  0  0  0  0  0  0  0  0  0  0
    6.8901   -2.8344   -1.2730 C   0  0  0  0  0  0  0  0  0  0  0  0
    6.6252   -2.2078   -0.0169 C   0  0  0  0  0  0  0  0  0  0  0  0
    5.3766   -1.6430   -0.1717 C   0  0  0  0  0  0  0  0  0  0  0  0
    4.5582   -0.8802    0.8438 C   0  0  0  0  0  0  0  0  0  0  0  0
    5.2610   -0.7704    2.2131 C   0  0  0  0  0  0  0  0  0  0  0  0
    4.3761   -0.0952    3.2796 C   0  0  0  0  0  0  0  0  0  0  0  0
    3.1233   -0.8365    3.4270 N   0  0  0  0  0  0  0  0  0  0  0  0
    2.3211   -0.3080    4.5266 C   0  0  0  0  0  0  0  0  0  0  0  0
    1.1305   -1.1576    4.8727 C   0  0  0  0  0  0  0  0  0  0  0  0
   -0.1100   -0.7155    4.9703 N   0  0  0  0  0  0  0  0  0  0  0  0
   -0.8297   -1.8571    5.2775 N   0  0  0  0  0  0  0  0  0  0  0  0
   -0.0654   -2.9075    5.3512 N   0  0  0  0  0  0  0  0  0  0  0  0
    1.1971   -2.4721    5.1101 N   0  0  0  0  0  0  0  0  0  0  0  0
    2.3084   -3.4007    5.0420 C   0  0  0  0  0  0  0  0  0  0  0  0
    2.4230   -4.3894    6.1830 C   0  0  0  0  0  0  0  0  0  0  0  0
    3.3499   -3.1947    6.1143 C   0  0  0  0  0  0  0  0  0  0  0  0
    2.3858   -0.7668    2.1714 C   0  0  0  0  0  0  0  0  0  0  0  0
    3.1771   -1.5208    1.1035 C   0  0  0  0  0  0  0  0  0  0  0  0
    2.0126   -2.5349   -3.0827 H   0  0  0  0  0  0  0  0  0  0  0  0
    2.8072   -3.4658   -1.8288 H   0  0  0  0  0  0  0  0  0  0  0  0
    3.5345   -3.3706   -3.4205 H   0  0  0  0  0  0  0  0  0  0  0  0
    3.1074   -0.9462   -1.5519 H   0  0  0  0  0  0  0  0  0  0  0  0
    3.0998   -0.2083   -3.7605 H   0  0  0  0  0  0  0  0  0  0  0  0
    4.6669   -0.9811   -4.1284 H   0  0  0  0  0  0  0  0  0  0  0  0
    4.5391    0.3202   -2.9079 H   0  0  0  0  0  0  0  0  0  0  0  0
    7.7548   -3.4086   -1.5852 H   0  0  0  0  0  0  0  0  0  0  0  0
    7.2321   -2.1850    0.8708 H   0  0  0  0  0  0  0  0  0  0  0  0
    4.4206    0.1361    0.4671 H   0  0  0  0  0  0  0  0  0  0  0  0
    5.4985   -1.7747    2.5662 H   0  0  0  0  0  0  0  0  0  0  0  0
    6.2146   -0.2483    2.1233 H   0  0  0  0  0  0  0  0  0  0  0  0
    4.9094   -0.1039    4.2308 H   0  0  0  0  0  0  0  0  0  0  0  0
    4.1738    0.9450    3.0228 H   0  0  0  0  0  0  0  0  0  0  0  0
    2.9370   -0.2654    5.4250 H   0  0  0  0  0  0  0  0  0  0  0  0
    1.9624    0.7013    4.3023 H   0  0  0  0  0  0  0  0  0  0  0  0
    2.5804   -3.6638    4.0242 H   0  0  0  0  0  0  0  0  0  0  0  0
    1.6633   -4.3862    6.9640 H   0  0  0  0  0  0  0  0  0  0  0  0
    2.8504   -5.3687    5.9684 H   0  0  0  0  0  0  0  0  0  0  0  0
    4.3905   -3.3692    5.8434 H   0  0  0  0  0  0  0  0  0  0  0  0
    3.1888   -2.4017    6.8403 H   0  0  0  0  0  0  0  0  0  0  0  0
    1.4161   -1.2492    2.2616 H   0  0  0  0  0  0  0  0  0  0  0  0
    2.1901    0.2709    1.8928 H   0  0  0  0  0  0  0  0  0  0  0  0
    2.5637   -1.5039    0.2203 H   0  0  0  0  0  0  0  0  0  0  0  0
    3.2976   -2.5687    1.4032 H   0  0  0  0  0  0  0  0  0  0  0  0
  1  2  1  0
  1 24  1  0
  1 25  1  0
  1 26  1  0
  2  3  1  0
  2  4  1  0
  2 27  1  0
  3 28  1  0
  3 29  1  0
  3 30  1  0
  4  8  1  0
  4  5  1  0
  5  6  2  0
  6  7  1  0
  6 31  1  0
  7  8  2  0
  7 32  1  0
  8  9  1  0
  9 23  1  0
  9 10  1  0
  9 33  1  0
 10 11  1  0
 10 34  1  0
 10 35  1  0
 11 12  1  0
 11 36  1  0
 11 37  1  0
 12 13  1  0
 12 22  1  0
 13 14  1  0
 13 38  1  0
 13 39  1  0
 14 18  1  0
 14 15  2  0
 15 16  1  0
 16 17  2  0
 17 18  1  0
 18 19  1  0
 19 21  1  0
 19 20  1  0
 19 40  1  0
 20 21  1  0
 20 41  1  0
 20 42  1  0
 21 43  1  0
 21 44  1  0
 22 23  1  0
 22 45  1  0
 22 46  1  0
 23 47  1  0
 23 48  1  0
M  END
>  <i_m_ct_stereo_status>  (81) 
1

>  <s_m_source_file>  (81) 
/var/tmp/pbs.5076255.sched01/tmpcm5es6vs/0d3z1so5d.sdf

>  <i_m_source_file_index>  (81) 
35

>  <i_lp_mmshare_version>  (81) 
48012

>  <i_f3d_flags>  (81) 
0

>  <s_epik_input>  (81) 
W0NIM11bQ0hdKFtDSDNdKW4xbltjSF1bY0hdYzFbQ0hdMltDSDJdW0NIMl1OKFtDSDJdW0NIMl0yKVtDSDJdYzNubm5uM1tDSF00W0NIMl1bQ0gyXTQ=

>  <s_epik_cmdline>  (81) 
J2VwaWtfcHl0aG9uJywgJy1waHQnLCAnMi4wJywgJy1waCcsICc3LjAnLCAnLXRuJywgJzgnLCAnLW1hJywgJzIwMCcsICctaW1hZScsICc8aW5maWxlLm1hZT4nLCAnLW9tYWUnLCAnPG91dGZpbGUubWFlPic=

>  <r_lp_tautomer_probability>  (81) 
1

>  <r_epik_Ionization_Penalty>  (81) 
0.142193

>  <r_epik_Ionization_Penalty_Charging>  (81) 
0

>  <r_epik_Ionization_Penalty_Neutral>  (81) 
0.142193

>  <r_epik_State_Penalty>  (81) 
0.129824

>  <r_epik_Charging_Adjusted_Penalty>  (81) 
0.129824

>  <i_epik_Tot_Q>  (81) 
0

>  <i_epik_Tot_abs_Q>  (81) 
0

>  <s_lp_Force_Field>  (81) 
OPLS3e

>  <r_lp_Energy>  (81) 
9.26577

>  <b_lp_Chiralities_Consistent>  (81) 
1

>  <s_lp_Variant>  (81) 
29:0-1

>  <s_i_glide_gridfile>  (81) 
pfpi4k_grid

>  <i_i_glide_lignum>  (81) 
35

>  <i_i_glide_rotatable_bonds>  (81) 
5

>  <r_i_docking_score>  (81) 
-2.64407

>  <r_i_glide_ligand_efficiency>  (81) 
-0.11496

>  <r_i_glide_ligand_efficiency_sa>  (81) 
-0.32693

>  <r_i_glide_ligand_efficiency_ln>  (81) 
-0.63936

>  <r_i_glide_gscore>  (81) 
-2.64407

>  <r_i_glide_lipo>  (81) 
-0.453547

>  <r_i_glide_hbond>  (81) 
0

>  <r_i_glide_metal>  (81) 
-0

>  <r_i_glide_rewards>  (81) 
-1.25952

>  <r_i_glide_evdw>  (81) 
-25.2407

>  <r_i_glide_ecoul>  (81) 
-2.19207

>  <r_i_glide_erotb>  (81) 
0.747924

>  <r_i_glide_esite>  (81) 
-0.0880844

>  <r_i_glide_emodel>  (81) 
-31.4645

>  <r_i_glide_energy>  (81) 
-27.4328

>  <r_i_glide_einternal>  (81) 
0.939947

>  <r_i_glide_intrahb_reward>  (81) 
-0

>  <i_i_glide_confnum>  (81) 
3

>  <i_i_glide_posenum>  (81) 
35

>  <r_i_glide_eff_state_penalty>  (81) 
0

>  <ligand_id>  (81) 
29

>  <original_smiles>  (81) 
CC(C)n1nccc1C1CCN(Cc2nnnn2C2CC2)CC1

>  <smiles>  (81) 
[H]c1nn(C([H])(C([H])([H])[H])C([H])([H])[H])c(C2([H])C([H])([H])C([H])([H])N(C([H])([H])c3nnnn3C3([H])C([H])([H])C3([H])[H])C([H])([H])C2([H])[H])c1[H]

$$$$
29:0:1
     RDKit          3D

 48 51  0  0  1  0  0  0  0  0999 V2000
    8.5667   -1.7561    0.1313 C   0  0  0  0  0  0  0  0  0  0  0  0
    7.2538   -2.3598    0.6338 C   0  0  0  0  0  0  0  0  0  0  0  0
    7.3480   -3.8915    0.8238 C   0  0  0  0  0  0  0  0  0  0  0  0
    6.1269   -2.0043   -0.2131 N   0  0  0  0  0  0  0  0  0  0  0  0
    6.1688   -2.3416   -1.5223 N   0  0  0  0  0  0  0  0  0  0  0  0
    5.0117   -1.9491   -2.0214 C   0  0  0  0  0  0  0  0  0  0  0  0
    4.2076   -1.2959   -1.0403 C   0  0  0  0  0  0  0  0  0  0  0  0
    4.9265   -1.3768    0.1124 C   0  0  0  0  0  0  0  0  0  0  0  0
    4.5652   -0.8922    1.5002 C   0  0  0  0  0  0  0  0  0  0  0  0
    4.5941   -2.0106    2.5738 C   0  0  0  0  0  0  0  0  0  0  0  0
    4.1209   -1.5072    3.9394 C   0  0  0  0  0  0  0  0  0  0  0  0
    2.7429   -1.0489    3.8277 N   0  0  0  0  0  0  0  0  0  0  0  0
    2.2181   -0.7407    5.1514 C   0  0  0  0  0  0  0  0  0  0  0  0
    0.7180   -0.7314    5.1949 C   0  0  0  0  0  0  0  0  0  0  0  0
   -0.0366    0.3347    5.4098 N   0  0  0  0  0  0  0  0  0  0  0  0
   -1.3242   -0.1524    5.3477 N   0  0  0  0  0  0  0  0  0  0  0  0
   -1.3296   -1.4332    5.1306 N   0  0  0  0  0  0  0  0  0  0  0  0
   -0.0296   -1.8218    5.0442 N   0  0  0  0  0  0  0  0  0  0  0  0
    0.3069   -3.1921    4.7147 C   0  0  0  0  0  0  0  0  0  0  0  0
   -0.2079   -4.2373    5.6824 C   0  0  0  0  0  0  0  0  0  0  0  0
    1.2529   -3.8548    5.6919 C   0  0  0  0  0  0  0  0  0  0  0  0
    2.7021    0.1277    2.9577 C   0  0  0  0  0  0  0  0  0  0  0  0
    3.1531   -0.2532    1.5357 C   0  0  0  0  0  0  0  0  0  0  0  0
    9.3698   -1.9477    0.8418 H   0  0  0  0  0  0  0  0  0  0  0  0
    8.4525   -0.6775    0.0799 H   0  0  0  0  0  0  0  0  0  0  0  0
    8.8653   -2.1426   -0.8468 H   0  0  0  0  0  0  0  0  0  0  0  0
    7.0997   -1.8745    1.5895 H   0  0  0  0  0  0  0  0  0  0  0  0
    8.1301   -4.1713    1.5318 H   0  0  0  0  0  0  0  0  0  0  0  0
    7.5628   -4.4037   -0.1160 H   0  0  0  0  0  0  0  0  0  0  0  0
    6.4123   -4.3049    1.1995 H   0  0  0  0  0  0  0  0  0  0  0  0
    4.8043   -2.1393   -3.0640 H   0  0  0  0  0  0  0  0  0  0  0  0
    3.2240   -0.8591   -1.1727 H   0  0  0  0  0  0  0  0  0  0  0  0
    5.2712   -0.1131    1.7832 H   0  0  0  0  0  0  0  0  0  0  0  0
    3.9486   -2.8334    2.2429 H   0  0  0  0  0  0  0  0  0  0  0  0
    5.5750   -2.4341    2.7676 H   0  0  0  0  0  0  0  0  0  0  0  0
    4.1836   -2.3427    4.6336 H   0  0  0  0  0  0  0  0  0  0  0  0
    4.7718   -0.7216    4.3226 H   0  0  0  0  0  0  0  0  0  0  0  0
    2.5525   -1.4948    5.8588 H   0  0  0  0  0  0  0  0  0  0  0  0
    2.5976    0.2112    5.5231 H   0  0  0  0  0  0  0  0  0  0  0  0
    0.3520   -3.3814    3.6453 H   0  0  0  0  0  0  0  0  0  0  0  0
   -0.8037   -3.9148    6.5343 H   0  0  0  0  0  0  0  0  0  0  0  0
   -0.4539   -5.2246    5.2991 H   0  0  0  0  0  0  0  0  0  0  0  0
    1.9769   -4.5540    5.2765 H   0  0  0  0  0  0  0  0  0  0  0  0
    1.5901   -3.2991    6.5636 H   0  0  0  0  0  0  0  0  0  0  0  0
    1.6810    0.5143    2.9139 H   0  0  0  0  0  0  0  0  0  0  0  0
    3.3343    0.9218    3.3624 H   0  0  0  0  0  0  0  0  0  0  0  0
    3.1062    0.6275    0.8938 H   0  0  0  0  0  0  0  0  0  0  0  0
    2.4249   -0.9613    1.1401 H   0  0  0  0  0  0  0  0  0  0  0  0
  1  2  1  0
  1 24  1  0
  1 25  1  0
  1 26  1  0
  2  3  1  0
  2  4  1  0
  2 27  1  0
  3 28  1  0
  3 29  1  0
  3 30  1  0
  4  8  1  0
  4  5  1  0
  5  6  2  0
  6  7  1  0
  6 31  1  0
  7  8  2  0
  7 32  1  0
  8  9  1  0
  9 23  1  0
  9 10  1  0
  9 33  1  0
 10 11  1  0
 10 34  1  0
 10 35  1  0
 11 12  1  0
 11 36  1  0
 11 37  1  0
 12 13  1  0
 12 22  1  0
 13 14  1  0
 13 38  1  0
 13 39  1  0
 14 18  1  0
 14 15  2  0
 15 16  1  0
 16 17  2  0
 17 18  1  0
 18 19  1  0
 19 21  1  0
 19 20  1  0
 19 40  1  0
 20 21  1  0
 20 41  1  0
 20 42  1  0
 21 43  1  0
 21 44  1  0
 22 23  1  0
 22 45  1  0
 22 46  1  0
 23 47  1  0
 23 48  1  0
M  END
>  <i_m_ct_stereo_status>  (82) 
1

>  <s_m_source_file>  (82) 
/var/tmp/pbs.5076255.sched01/tmpcm5es6vs/0d3z1so5d.sdf

>  <i_m_source_file_index>  (82) 
35

>  <i_lp_mmshare_version>  (82) 
48012

>  <i_f3d_flags>  (82) 
0

>  <s_epik_input>  (82) 
W0NIM11bQ0hdKFtDSDNdKW4xbltjSF1bY0hdYzFbQ0hdMltDSDJdW0NIMl1OKFtDSDJdW0NIMl0yKVtDSDJdYzNubm5uM1tDSF00W0NIMl1bQ0gyXTQ=

>  <s_epik_cmdline>  (82) 
J2VwaWtfcHl0aG9uJywgJy1waHQnLCAnMi4wJywgJy1waCcsICc3LjAnLCAnLXRuJywgJzgnLCAnLW1hJywgJzIwMCcsICctaW1hZScsICc8aW5maWxlLm1hZT4nLCAnLW9tYWUnLCAnPG91dGZpbGUubWFlPic=

>  <r_lp_tautomer_probability>  (82) 
1

>  <r_epik_Ionization_Penalty>  (82) 
0.142193

>  <r_epik_Ionization_Penalty_Charging>  (82) 
0

>  <r_epik_Ionization_Penalty_Neutral>  (82) 
0.142193

>  <r_epik_State_Penalty>  (82) 
0.129824

>  <r_epik_Charging_Adjusted_Penalty>  (82) 
0.129824

>  <i_epik_Tot_Q>  (82) 
0

>  <i_epik_Tot_abs_Q>  (82) 
0

>  <s_lp_Force_Field>  (82) 
OPLS3e

>  <r_lp_Energy>  (82) 
9.26577

>  <b_lp_Chiralities_Consistent>  (82) 
1

>  <s_lp_Variant>  (82) 
29:0-1

>  <s_i_glide_gridfile>  (82) 
pfpi4k_grid

>  <i_i_glide_lignum>  (82) 
35

>  <i_i_glide_rotatable_bonds>  (82) 
5

>  <r_i_docking_score>  (82) 
-2.64088

>  <r_i_glide_ligand_efficiency>  (82) 
-0.114821

>  <r_i_glide_ligand_efficiency_sa>  (82) 
-0.326535

>  <r_i_glide_ligand_efficiency_ln>  (82) 
-0.638588

>  <r_i_glide_gscore>  (82) 
-2.64088

>  <r_i_glide_lipo>  (82) 
-0.361903

>  <r_i_glide_hbond>  (82) 
-0.0319719

>  <r_i_glide_metal>  (82) 
-0

>  <r_i_glide_rewards>  (82) 
-1.25852

>  <r_i_glide_evdw>  (82) 
-24.6141

>  <r_i_glide_ecoul>  (82) 
-2.53718

>  <r_i_glide_erotb>  (82) 
0.747924

>  <r_i_glide_esite>  (82) 
-0.125123

>  <r_i_glide_emodel>  (82) 
-31.2705

>  <r_i_glide_energy>  (82) 
-27.1513

>  <r_i_glide_einternal>  (82) 
1.27524

>  <r_i_glide_intrahb_reward>  (82) 
-0

>  <i_i_glide_confnum>  (82) 
1

>  <i_i_glide_posenum>  (82) 
40

>  <r_i_glide_eff_state_penalty>  (82) 
0

>  <ligand_id>  (82) 
29

>  <original_smiles>  (82) 
CC(C)n1nccc1C1CCN(Cc2nnnn2C2CC2)CC1

>  <smiles>  (82) 
[H]c1nn(C([H])(C([H])([H])[H])C([H])([H])[H])c(C2([H])C([H])([H])C([H])([H])N(C([H])([H])c3nnnn3C3([H])C([H])([H])C3([H])[H])C([H])([H])C2([H])[H])c1[H]

$$$$
29:0:2
     RDKit          3D

 48 51  0  0  1  0  0  0  0  0999 V2000
    8.5402   -1.7987    0.1617 C   0  0  0  0  0  0  0  0  0  0  0  0
    7.2061   -2.3909    0.6334 C   0  0  0  0  0  0  0  0  0  0  0  0
    7.2545   -3.9305    0.7107 C   0  0  0  0  0  0  0  0  0  0  0  0
    6.0932   -1.9421   -0.1900 N   0  0  0  0  0  0  0  0  0  0  0  0
    6.1552   -2.1439   -1.5267 N   0  0  0  0  0  0  0  0  0  0  0  0
    5.0150   -1.6771   -1.9974 C   0  0  0  0  0  0  0  0  0  0  0  0
    4.1959   -1.1395   -0.9692 C   0  0  0  0  0  0  0  0  0  0  0  0
    4.8977   -1.3440    0.1861 C   0  0  0  0  0  0  0  0  0  0  0  0
    4.5209   -1.0187    1.6100 C   0  0  0  0  0  0  0  0  0  0  0  0
    4.4517   -2.2743    2.5110 C   0  0  0  0  0  0  0  0  0  0  0  0
    3.9464   -1.9460    3.9200 C   0  0  0  0  0  0  0  0  0  0  0  0
    2.6034   -1.3763    3.8353 N   0  0  0  0  0  0  0  0  0  0  0  0
    2.0412   -1.2250    5.1759 C   0  0  0  0  0  0  0  0  0  0  0  0
    0.5554   -1.0023    5.1897 C   0  0  0  0  0  0  0  0  0  0  0  0
   -0.0577    0.1613    5.0496 N   0  0  0  0  0  0  0  0  0  0  0  0
   -1.4017   -0.1594    5.1071 N   0  0  0  0  0  0  0  0  0  0  0  0
   -1.5721   -1.4328    5.2887 N   0  0  0  0  0  0  0  0  0  0  0  0
   -0.3372   -1.9857    5.3685 N   0  0  0  0  0  0  0  0  0  0  0  0
   -0.1689   -3.4178    5.5159 C   0  0  0  0  0  0  0  0  0  0  0  0
   -0.9913   -4.0669    6.6092 C   0  0  0  0  0  0  0  0  0  0  0  0
    0.4889   -3.8375    6.8087 C   0  0  0  0  0  0  0  0  0  0  0  0
    2.6826   -0.0905    3.1362 C   0  0  0  0  0  0  0  0  0  0  0  0
    3.1537   -0.3043    1.6909 C   0  0  0  0  0  0  0  0  0  0  0  0
    9.3510   -2.0644    0.8428 H   0  0  0  0  0  0  0  0  0  0  0  0
    8.4760   -0.7113    0.1574 H   0  0  0  0  0  0  0  0  0  0  0  0
    8.8128   -2.1445   -0.8381 H   0  0  0  0  0  0  0  0  0  0  0  0
    7.0450   -1.9871    1.6282 H   0  0  0  0  0  0  0  0  0  0  0  0
    8.0355   -4.2753    1.3915 H   0  0  0  0  0  0  0  0  0  0  0  0
    7.4507   -4.3716   -0.2671 H   0  0  0  0  0  0  0  0  0  0  0  0
    6.3099   -4.3446    1.0656 H   0  0  0  0  0  0  0  0  0  0  0  0
    4.8202   -1.7383   -3.0586 H   0  0  0  0  0  0  0  0  0  0  0  0
    3.2162   -0.6911   -1.0645 H   0  0  0  0  0  0  0  0  0  0  0  0
    5.2697   -0.3325    2.0119 H   0  0  0  0  0  0  0  0  0  0  0  0
    3.7919   -3.0119    2.0452 H   0  0  0  0  0  0  0  0  0  0  0  0
    5.4163   -2.7586    2.6381 H   0  0  0  0  0  0  0  0  0  0  0  0
    3.9261   -2.8748    4.4907 H   0  0  0  0  0  0  0  0  0  0  0  0
    4.6319   -1.2714    4.4373 H   0  0  0  0  0  0  0  0  0  0  0  0
    2.2443   -2.1293    5.7457 H   0  0  0  0  0  0  0  0  0  0  0  0
    2.5270   -0.4053    5.7103 H   0  0  0  0  0  0  0  0  0  0  0  0
    0.0296   -3.9274    4.5801 H   0  0  0  0  0  0  0  0  0  0  0  0
   -1.6700   -3.4552    7.1980 H   0  0  0  0  0  0  0  0  0  0  0  0
   -1.3182   -5.0956    6.4630 H   0  0  0  0  0  0  0  0  0  0  0  0
    1.1525   -4.7025    6.7683 H   0  0  0  0  0  0  0  0  0  0  0  0
    0.7840   -3.0605    7.5123 H   0  0  0  0  0  0  0  0  0  0  0  0
    1.6994    0.3770    3.1031 H   0  0  0  0  0  0  0  0  0  0  0  0
    3.3498    0.5938    3.6651 H   0  0  0  0  0  0  0  0  0  0  0  0
    3.1919    0.6572    1.1745 H   0  0  0  0  0  0  0  0  0  0  0  0
    2.3954   -0.9021    1.1794 H   0  0  0  0  0  0  0  0  0  0  0  0
  1  2  1  0
  1 24  1  0
  1 25  1  0
  1 26  1  0
  2  3  1  0
  2  4  1  0
  2 27  1  0
  3 28  1  0
  3 29  1  0
  3 30  1  0
  4  8  1  0
  4  5  1  0
  5  6  2  0
  6  7  1  0
  6 31  1  0
  7  8  2  0
  7 32  1  0
  8  9  1  0
  9 23  1  0
  9 10  1  0
  9 33  1  0
 10 11  1  0
 10 34  1  0
 10 35  1  0
 11 12  1  0
 11 36  1  0
 11 37  1  0
 12 13  1  0
 12 22  1  0
 13 14  1  0
 13 38  1  0
 13 39  1  0
 14 18  1  0
 14 15  2  0
 15 16  1  0
 16 17  2  0
 17 18  1  0
 18 19  1  0
 19 21  1  0
 19 20  1  0
 19 40  1  0
 20 21  1  0
 20 41  1  0
 20 42  1  0
 21 43  1  0
 21 44  1  0
 22 23  1  0
 22 45  1  0
 22 46  1  0
 23 47  1  0
 23 48  1  0
M  END
>  <i_m_ct_stereo_status>  (83) 
1

>  <s_m_source_file>  (83) 
/var/tmp/pbs.5076255.sched01/tmpcm5es6vs/0d3z1so5d.sdf

>  <i_m_source_file_index>  (83) 
35

>  <i_lp_mmshare_version>  (83) 
48012

>  <i_f3d_flags>  (83) 
0

>  <s_epik_input>  (83) 
W0NIM11bQ0hdKFtDSDNdKW4xbltjSF1bY0hdYzFbQ0hdMltDSDJdW0NIMl1OKFtDSDJdW0NIMl0yKVtDSDJdYzNubm5uM1tDSF00W0NIMl1bQ0gyXTQ=

>  <s_epik_cmdline>  (83) 
J2VwaWtfcHl0aG9uJywgJy1waHQnLCAnMi4wJywgJy1waCcsICc3LjAnLCAnLXRuJywgJzgnLCAnLW1hJywgJzIwMCcsICctaW1hZScsICc8aW5maWxlLm1hZT4nLCAnLW9tYWUnLCAnPG91dGZpbGUubWFlPic=

>  <r_lp_tautomer_probability>  (83) 
1

>  <r_epik_Ionization_Penalty>  (83) 
0.142193

>  <r_epik_Ionization_Penalty_Charging>  (83) 
0

>  <r_epik_Ionization_Penalty_Neutral>  (83) 
0.142193

>  <r_epik_State_Penalty>  (83) 
0.129824

>  <r_epik_Charging_Adjusted_Penalty>  (83) 
0.129824

>  <i_epik_Tot_Q>  (83) 
0

>  <i_epik_Tot_abs_Q>  (83) 
0

>  <s_lp_Force_Field>  (83) 
OPLS3e

>  <r_lp_Energy>  (83) 
9.26577

>  <b_lp_Chiralities_Consistent>  (83) 
1

>  <s_lp_Variant>  (83) 
29:0-1

>  <s_i_glide_gridfile>  (83) 
pfpi4k_grid

>  <i_i_glide_lignum>  (83) 
35

>  <i_i_glide_rotatable_bonds>  (83) 
5

>  <r_i_docking_score>  (83) 
-2.59314

>  <r_i_glide_ligand_efficiency>  (83) 
-0.112745

>  <r_i_glide_ligand_efficiency_sa>  (83) 
-0.320632

>  <r_i_glide_ligand_efficiency_ln>  (83) 
-0.627044

>  <r_i_glide_gscore>  (83) 
-2.59314

>  <r_i_glide_lipo>  (83) 
-0.323823

>  <r_i_glide_hbond>  (83) 
-0.0834551

>  <r_i_glide_metal>  (83) 
-0

>  <r_i_glide_rewards>  (83) 
-1.25852

>  <r_i_glide_evdw>  (83) 
-24.7956

>  <r_i_glide_ecoul>  (83) 
-1.92747

>  <r_i_glide_erotb>  (83) 
0.747924

>  <r_i_glide_esite>  (83) 
-0.146356

>  <r_i_glide_emodel>  (83) 
-31.3299

>  <r_i_glide_energy>  (83) 
-26.7231

>  <r_i_glide_einternal>  (83) 
0.593289

>  <r_i_glide_intrahb_reward>  (83) 
-0

>  <i_i_glide_confnum>  (83) 
1

>  <i_i_glide_posenum>  (83) 
27

>  <r_i_glide_eff_state_penalty>  (83) 
0

>  <ligand_id>  (83) 
29

>  <original_smiles>  (83) 
CC(C)n1nccc1C1CCN(Cc2nnnn2C2CC2)CC1

>  <smiles>  (83) 
[H]c1nn(C([H])(C([H])([H])[H])C([H])([H])[H])c(C2([H])C([H])([H])C([H])([H])N(C([H])([H])c3nnnn3C3([H])C([H])([H])C3([H])[H])C([H])([H])C2([H])[H])c1[H]

$$$$
29:1:0
     RDKit          3D

 49 52  0  0  1  0  0  0  0  0999 V2000
    3.0556   -2.7143   -2.3698 C   0  0  0  0  0  0  0  0  0  0  0  0
    4.5949   -2.6218   -2.3688 C   0  0  0  0  0  0  0  0  0  0  0  0
    5.2489   -3.7903   -3.1408 C   0  0  0  0  0  0  0  0  0  0  0  0
    5.1405   -2.4676   -1.0141 N   0  0  0  0  0  0  0  0  0  0  0  0
    5.8326   -1.3403   -0.7355 N   0  0  0  0  0  0  0  0  0  0  0  0
    6.2244   -1.4437    0.5144 C   0  0  0  0  0  0  0  0  0  0  0  0
    5.7912   -2.6574    1.1104 C   0  0  0  0  0  0  0  0  0  0  0  0
    5.0866   -3.2928    0.1069 C   0  0  0  0  0  0  0  0  0  0  0  0
    4.3566   -4.6068    0.1716 C   0  0  2  0  0  0  0  0  0  0  0  0
    2.9224   -4.4251    0.7105 C   0  0  0  0  0  0  0  0  0  0  0  0
    2.2345   -5.7857    0.6770 C   0  0  0  0  0  0  0  0  0  0  0  0
    2.9192   -6.7578    1.5724 N   0  0  1  0  0  0  0  0  0  0  0  0
    2.2336   -8.0631    1.8065 C   0  0  0  0  0  0  0  0  0  0  0  0
    0.9380   -7.8712    2.5935 C   0  0  0  0  0  0  0  0  0  0  0  0
    0.3234   -6.7322    2.8806 N   0  0  0  0  0  0  0  0  0  0  0  0
   -0.8774   -7.1502    3.4838 N   0  0  0  0  0  0  0  0  0  0  0  0
   -0.9349   -8.4419    3.5558 N   0  0  0  0  0  0  0  0  0  0  0  0
    0.2400   -8.9248    3.0421 N   0  0  0  0  0  0  0  0  0  0  0  0
    0.4260  -10.3416    2.9620 C   0  0  0  0  0  0  0  0  0  0  0  0
    0.5762  -11.0406    4.3130 C   0  0  0  0  0  0  0  0  0  0  0  0
    1.7813  -10.8487    3.4279 C   0  0  0  0  0  0  0  0  0  0  0  0
    4.3292   -6.9697    1.0954 C   0  0  0  0  0  0  0  0  0  0  0  0
    5.1055   -5.6531    1.0277 C   0  0  0  0  0  0  0  0  0  0  0  0
    2.6430   -2.6186   -3.3843 H   0  0  0  0  0  0  0  0  0  0  0  0
    2.6240   -1.9072   -1.7683 H   0  0  0  0  0  0  0  0  0  0  0  0
    2.7295   -3.6697   -1.9727 H   0  0  0  0  0  0  0  0  0  0  0  0
    4.8512   -1.7034   -2.9075 H   0  0  0  0  0  0  0  0  0  0  0  0
    4.8737   -3.8211   -4.1701 H   0  0  0  0  0  0  0  0  0  0  0  0
    5.0410   -4.7686   -2.7078 H   0  0  0  0  0  0  0  0  0  0  0  0
    6.3342   -3.6522   -3.1790 H   0  0  0  0  0  0  0  0  0  0  0  0
    6.8019   -0.6483    0.9488 H   0  0  0  0  0  0  0  0  0  0  0  0
    5.9568   -3.0130    2.1180 H   0  0  0  0  0  0  0  0  0  0  0  0
    4.2806   -5.0485   -0.8140 H   0  0  0  0  0  0  0  0  0  0  0  0
    2.9432   -4.0256    1.7458 H   0  0  0  0  0  0  0  0  0  0  0  0
    2.3222   -3.7418    0.1172 H   0  0  0  0  0  0  0  0  0  0  0  0
    1.2249   -5.5780    0.9954 H   0  0  0  0  0  0  0  0  0  0  0  0
    2.1771   -6.2256   -0.3242 H   0  0  0  0  0  0  0  0  0  0  0  0
    2.0305   -8.6180    0.8891 H   0  0  0  0  0  0  0  0  0  0  0  0
    2.9286   -8.6332    2.4107 H   0  0  0  0  0  0  0  0  0  0  0  0
   -0.1549  -10.8187    2.1725 H   0  0  0  0  0  0  0  0  0  0  0  0
    0.5473  -10.4393    5.2189 H   0  0  0  0  0  0  0  0  0  0  0  0
    0.2315  -12.0640    4.4425 H   0  0  0  0  0  0  0  0  0  0  0  0
    2.1828  -11.7100    2.8940 H   0  0  0  0  0  0  0  0  0  0  0  0
    2.5156  -10.1732    3.8609 H   0  0  0  0  0  0  0  0  0  0  0  0
    4.8494   -7.6659    1.7520 H   0  0  0  0  0  0  0  0  0  0  0  0
    4.2672   -7.4357    0.1061 H   0  0  0  0  0  0  0  0  0  0  0  0
    6.0748   -5.8463    0.5743 H   0  0  0  0  0  0  0  0  0  0  0  0
    5.2990   -5.2814    2.0418 H   0  0  0  0  0  0  0  0  0  0  0  0
    2.9962   -6.3104    2.4977 H   0  0  0  0  0  0  0  0  0  0  0  0
  1  2  1  0
  1 24  1  0
  1 25  1  0
  1 26  1  0
  2  3  1  0
  2  4  1  0
  2 27  1  0
  3 28  1  0
  3 29  1  0
  3 30  1  0
  4  8  1  0
  4  5  1  0
  5  6  2  0
  6  7  1  0
  6 31  1  0
  7  8  2  0
  7 32  1  0
  8  9  1  0
  9 23  1  0
  9 10  1  0
  9 33  1  6
 10 11  1  0
 10 34  1  0
 10 35  1  0
 11 12  1  0
 11 36  1  0
 11 37  1  0
 12 13  1  0
 12 22  1  0
 12 49  1  1
 13 14  1  0
 13 38  1  0
 13 39  1  0
 14 18  1  0
 14 15  2  0
 15 16  1  0
 16 17  2  0
 17 18  1  0
 18 19  1  0
 19 21  1  0
 19 20  1  0
 19 40  1  0
 20 21  1  0
 20 41  1  0
 20 42  1  0
 21 43  1  0
 21 44  1  0
 22 23  1  0
 22 45  1  0
 22 46  1  0
 23 47  1  0
 23 48  1  0
M  CHG  1  12   1
M  END
>  <i_m_ct_stereo_status>  (84) 
1

>  <s_m_source_file>  (84) 
/var/tmp/pbs.5076255.sched01/tmpcm5es6vs/0d3z1so5d.sdf

>  <i_m_source_file_index>  (84) 
36

>  <i_lp_mmshare_version>  (84) 
48012

>  <i_f3d_flags>  (84) 
0

>  <s_epik_input>  (84) 
W0NIM11bQ0hdKFtDSDNdKW4xbltjSF1bY0hdYzFbQ0hdMltDSDJdW0NIMl1OKFtDSDJdW0NIMl0yKVtDSDJdYzNubm5uM1tDSF00W0NIMl1bQ0gyXTQ=

>  <s_epik_cmdline>  (84) 
J2VwaWtfcHl0aG9uJywgJy1waHQnLCAnMi4wJywgJy1waCcsICc3LjAnLCAnLXRuJywgJzgnLCAnLW1hJywgJzIwMCcsICctaW1hZScsICc8aW5maWxlLm1hZT4nLCAnLW9tYWUnLCAnPG91dGZpbGUubWFlPic=

>  <r_lp_tautomer_probability>  (84) 
1

>  <r_epik_Ionization_Penalty>  (84) 
0.921885

>  <r_epik_Ionization_Penalty_Charging>  (84) 
0.9215

>  <r_epik_Ionization_Penalty_Neutral>  (84) 
0.000384947

>  <r_epik_State_Penalty>  (84) 
0.963208

>  <r_epik_Charging_Adjusted_Penalty>  (84) 
1.88471

>  <i_epik_Tot_Q>  (84) 
1

>  <i_epik_Tot_abs_Q>  (84) 
1

>  <s_lp_Force_Field>  (84) 
OPLS3e

>  <r_lp_Energy>  (84) 
14.5892

>  <b_lp_Chiralities_Consistent>  (84) 
1

>  <s_lp_Variant>  (84) 
29:0-2

>  <s_i_glide_gridfile>  (84) 
pfpi4k_grid

>  <i_i_glide_lignum>  (84) 
36

>  <i_i_glide_rotatable_bonds>  (84) 
5

>  <r_i_docking_score>  (84) 
-3.88233

>  <r_i_glide_ligand_efficiency>  (84) 
-0.168797

>  <r_i_glide_ligand_efficiency_sa>  (84) 
-0.480036

>  <r_i_glide_ligand_efficiency_ln>  (84) 
-0.938782

>  <r_i_glide_gscore>  (84) 
-3.88233

>  <r_i_glide_lipo>  (84) 
-0.743248

>  <r_i_glide_hbond>  (84) 
-0.040271

>  <r_i_glide_metal>  (84) 
-0

>  <r_i_glide_rewards>  (84) 
-1.25165

>  <r_i_glide_evdw>  (84) 
-30.7979

>  <r_i_glide_ecoul>  (84) 
-5.11384

>  <r_i_glide_erotb>  (84) 
0.743737

>  <r_i_glide_esite>  (84) 
-0.283926

>  <r_i_glide_emodel>  (84) 
-42.9886

>  <r_i_glide_energy>  (84) 
-35.9117

>  <r_i_glide_einternal>  (84) 
2.82204

>  <r_i_glide_intrahb_reward>  (84) 
-0

>  <i_i_glide_confnum>  (84) 
2

>  <i_i_glide_posenum>  (84) 
32

>  <r_i_glide_eff_state_penalty>  (84) 
0

>  <ligand_id>  (84) 
29

>  <original_smiles>  (84) 
CC(C)n1nccc1C1CCN(Cc2nnnn2C2CC2)CC1

>  <smiles>  (84) 
[H]c1nn(C([H])(C([H])([H])[H])C([H])([H])[H])c(C2([H])C([H])([H])C([H])([H])[N+]([H])(C([H])([H])c3nnnn3C3([H])C([H])([H])C3([H])[H])C([H])([H])C2([H])[H])c1[H]

$$$$
29:1:1
     RDKit          3D

 49 52  0  0  1  0  0  0  0  0999 V2000
    4.6488   -3.3374   -3.4689 C   0  0  0  0  0  0  0  0  0  0  0  0
    3.9159   -2.3997   -2.4947 C   0  0  0  0  0  0  0  0  0  0  0  0
    3.5684   -1.0564   -3.1737 C   0  0  0  0  0  0  0  0  0  0  0  0
    4.6727   -2.2157   -1.2551 N   0  0  0  0  0  0  0  0  0  0  0  0
    5.3935   -1.0817   -1.0654 N   0  0  0  0  0  0  0  0  0  0  0  0
    5.8983   -1.1819    0.1465 C   0  0  0  0  0  0  0  0  0  0  0  0
    5.6042   -2.4388    0.7477 C   0  0  0  0  0  0  0  0  0  0  0  0
    4.8323   -3.0763   -0.1703 C   0  0  0  0  0  0  0  0  0  0  0  0
    4.1846   -4.4378   -0.0885 C   0  0  2  0  0  0  0  0  0  0  0  0
    2.7363   -4.3510    0.4009 C   0  0  0  0  0  0  0  0  0  0  0  0
    2.1068   -5.7388    0.5424 C   0  0  0  0  0  0  0  0  0  0  0  0
    2.8659   -6.6062    1.4916 N   0  0  1  0  0  0  0  0  0  0  0  0
    2.2633   -7.9373    1.7991 C   0  0  0  0  0  0  0  0  0  0  0  0
    0.9383   -7.8078    2.5417 C   0  0  0  0  0  0  0  0  0  0  0  0
    0.2723   -6.6925    2.8588 N   0  0  0  0  0  0  0  0  0  0  0  0
   -0.9173   -7.1408    3.4051 N   0  0  0  0  0  0  0  0  0  0  0  0
   -0.9444   -8.4365    3.4457 N   0  0  0  0  0  0  0  0  0  0  0  0
    0.2472   -8.8700    2.9546 N   0  0  0  0  0  0  0  0  0  0  0  0
    0.4802  -10.3036    2.8646 C   0  0  0  0  0  0  0  0  0  0  0  0
    0.5615  -11.0209    4.2015 C   0  0  0  0  0  0  0  0  0  0  0  0
    1.8157  -10.7593    3.4060 C   0  0  0  0  0  0  0  0  0  0  0  0
    4.2558   -6.7663    0.9778 C   0  0  0  0  0  0  0  0  0  0  0  0
    4.9676   -5.4101    0.8153 C   0  0  0  0  0  0  0  0  0  0  0  0
    4.0425   -3.5326   -4.3532 H   0  0  0  0  0  0  0  0  0  0  0  0
    4.8830   -4.3043   -3.0315 H   0  0  0  0  0  0  0  0  0  0  0  0
    5.5960   -2.9072   -3.7774 H   0  0  0  0  0  0  0  0  0  0  0  0
    2.9668   -2.8644   -2.2279 H   0  0  0  0  0  0  0  0  0  0  0  0
    2.9391   -1.1805   -4.0568 H   0  0  0  0  0  0  0  0  0  0  0  0
    4.4668   -0.5184   -3.4813 H   0  0  0  0  0  0  0  0  0  0  0  0
    3.0279   -0.4141   -2.4784 H   0  0  0  0  0  0  0  0  0  0  0  0
    6.4699   -0.3524    0.5287 H   0  0  0  0  0  0  0  0  0  0  0  0
    5.9178   -2.8056    1.7204 H   0  0  0  0  0  0  0  0  0  0  0  0
    4.1710   -4.8965   -1.0703 H   0  0  0  0  0  0  0  0  0  0  0  0
    2.6969   -3.8378    1.3608 H   0  0  0  0  0  0  0  0  0  0  0  0
    2.1317   -3.7610   -0.2908 H   0  0  0  0  0  0  0  0  0  0  0  0
    1.1005   -5.5439    0.8676 H   0  0  0  0  0  0  0  0  0  0  0  0
    2.0145   -6.2283   -0.4232 H   0  0  0  0  0  0  0  0  0  0  0  0
    2.1225   -8.5600    0.9184 H   0  0  0  0  0  0  0  0  0  0  0  0
    2.9634   -8.4473    2.4537 H   0  0  0  0  0  0  0  0  0  0  0  0
   -0.0202  -10.7762    2.0220 H   0  0  0  0  0  0  0  0  0  0  0  0
    0.4313  -10.4504    5.1209 H   0  0  0  0  0  0  0  0  0  0  0  0
    0.2307  -12.0541    4.2652 H   0  0  0  0  0  0  0  0  0  0  0  0
    2.2902  -11.5923    2.8915 H   0  0  0  0  0  0  0  0  0  0  0  0
    2.4934  -10.0402    3.8595 H   0  0  0  0  0  0  0  0  0  0  0  0
    4.8450   -7.3895    1.6527 H   0  0  0  0  0  0  0  0  0  0  0  0
    4.2212   -7.2812    0.0163 H   0  0  0  0  0  0  0  0  0  0  0  0
    5.9557   -5.5708    0.3791 H   0  0  0  0  0  0  0  0  0  0  0  0
    5.1254   -4.9716    1.8024 H   0  0  0  0  0  0  0  0  0  0  0  0
    2.9305   -6.1182    2.3719 H   0  0  0  0  0  0  0  0  0  0  0  0
  1  2  1  0
  1 24  1  0
  1 25  1  0
  1 26  1  0
  2  3  1  0
  2  4  1  0
  2 27  1  0
  3 28  1  0
  3 29  1  0
  3 30  1  0
  4  8  1  0
  4  5  1  0
  5  6  2  0
  6  7  1  0
  6 31  1  0
  7  8  2  0
  7 32  1  0
  8  9  1  0
  9 23  1  0
  9 10  1  0
  9 33  1  6
 10 11  1  0
 10 34  1  0
 10 35  1  0
 11 12  1  0
 11 36  1  0
 11 37  1  0
 12 13  1  0
 12 22  1  0
 12 49  1  1
 13 14  1  0
 13 38  1  0
 13 39  1  0
 14 18  1  0
 14 15  2  0
 15 16  1  0
 16 17  2  0
 17 18  1  0
 18 19  1  0
 19 21  1  0
 19 20  1  0
 19 40  1  0
 20 21  1  0
 20 41  1  0
 20 42  1  0
 21 43  1  0
 21 44  1  0
 22 23  1  0
 22 45  1  0
 22 46  1  0
 23 47  1  0
 23 48  1  0
M  CHG  1  12   1
M  END
>  <i_m_ct_stereo_status>  (85) 
1

>  <s_m_source_file>  (85) 
/var/tmp/pbs.5076255.sched01/tmpcm5es6vs/0d3z1so5d.sdf

>  <i_m_source_file_index>  (85) 
36

>  <i_lp_mmshare_version>  (85) 
48012

>  <i_f3d_flags>  (85) 
0

>  <s_epik_input>  (85) 
W0NIM11bQ0hdKFtDSDNdKW4xbltjSF1bY0hdYzFbQ0hdMltDSDJdW0NIMl1OKFtDSDJdW0NIMl0yKVtDSDJdYzNubm5uM1tDSF00W0NIMl1bQ0gyXTQ=

>  <s_epik_cmdline>  (85) 
J2VwaWtfcHl0aG9uJywgJy1waHQnLCAnMi4wJywgJy1waCcsICc3LjAnLCAnLXRuJywgJzgnLCAnLW1hJywgJzIwMCcsICctaW1hZScsICc8aW5maWxlLm1hZT4nLCAnLW9tYWUnLCAnPG91dGZpbGUubWFlPic=

>  <r_lp_tautomer_probability>  (85) 
1

>  <r_epik_Ionization_Penalty>  (85) 
0.921885

>  <r_epik_Ionization_Penalty_Charging>  (85) 
0.9215

>  <r_epik_Ionization_Penalty_Neutral>  (85) 
0.000384947

>  <r_epik_State_Penalty>  (85) 
0.963208

>  <r_epik_Charging_Adjusted_Penalty>  (85) 
1.88471

>  <i_epik_Tot_Q>  (85) 
1

>  <i_epik_Tot_abs_Q>  (85) 
1

>  <s_lp_Force_Field>  (85) 
OPLS3e

>  <r_lp_Energy>  (85) 
14.5892

>  <b_lp_Chiralities_Consistent>  (85) 
1

>  <s_lp_Variant>  (85) 
29:0-2

>  <s_i_glide_gridfile>  (85) 
pfpi4k_grid

>  <i_i_glide_lignum>  (85) 
36

>  <i_i_glide_rotatable_bonds>  (85) 
5

>  <r_i_docking_score>  (85) 
-3.86819

>  <r_i_glide_ligand_efficiency>  (85) 
-0.168182

>  <r_i_glide_ligand_efficiency_sa>  (85) 
-0.478288

>  <r_i_glide_ligand_efficiency_ln>  (85) 
-0.935365

>  <r_i_glide_gscore>  (85) 
-3.86819

>  <r_i_glide_lipo>  (85) 
-0.847215

>  <r_i_glide_hbond>  (85) 
0

>  <r_i_glide_metal>  (85) 
-0

>  <r_i_glide_rewards>  (85) 
-1.25165

>  <r_i_glide_evdw>  (85) 
-31.1905

>  <r_i_glide_ecoul>  (85) 
-4.33962

>  <r_i_glide_erotb>  (85) 
0.743737

>  <r_i_glide_esite>  (85) 
-0.302597

>  <r_i_glide_emodel>  (85) 
-42.5728

>  <r_i_glide_energy>  (85) 
-35.5301

>  <r_i_glide_einternal>  (85) 
3.40688

>  <r_i_glide_intrahb_reward>  (85) 
-0

>  <i_i_glide_confnum>  (85) 
2

>  <i_i_glide_posenum>  (85) 
1

>  <r_i_glide_eff_state_penalty>  (85) 
0

>  <ligand_id>  (85) 
29

>  <original_smiles>  (85) 
CC(C)n1nccc1C1CCN(Cc2nnnn2C2CC2)CC1

>  <smiles>  (85) 
[H]c1nn(C([H])(C([H])([H])[H])C([H])([H])[H])c(C2([H])C([H])([H])C([H])([H])[N+]([H])(C([H])([H])c3nnnn3C3([H])C([H])([H])C3([H])[H])C([H])([H])C2([H])[H])c1[H]

$$$$
29:1:2
     RDKit          3D

 49 52  0  0  1  0  0  0  0  0999 V2000
    0.7876   -6.2161    6.7167 C   0  0  0  0  0  0  0  0  0  0  0  0
    0.9731   -5.5784    5.3321 C   0  0  0  0  0  0  0  0  0  0  0  0
    0.4709   -4.1238    5.3001 C   0  0  0  0  0  0  0  0  0  0  0  0
    0.3399   -6.3673    4.2759 N   0  0  0  0  0  0  0  0  0  0  0  0
   -0.9381   -6.7701    4.4338 N   0  0  0  0  0  0  0  0  0  0  0  0
   -1.2181   -7.4683    3.3489 C   0  0  0  0  0  0  0  0  0  0  0  0
   -0.1584   -7.4523    2.4064 C   0  0  0  0  0  0  0  0  0  0  0  0
    0.8414   -6.7372    3.0357 C   0  0  0  0  0  0  0  0  0  0  0  0
    2.2183   -6.3682    2.5423 C   0  0  2  0  0  0  0  0  0  0  0  0
    2.4254   -4.8457    2.3876 C   0  0  0  0  0  0  0  0  0  0  0  0
    3.7840   -4.4632    1.7925 C   0  0  0  0  0  0  0  0  0  0  0  0
    3.9977   -5.0980    0.4773 N   0  0  1  0  0  0  0  0  0  0  0  0
    5.2428   -4.6925   -0.2169 C   0  0  0  0  0  0  0  0  0  0  0  0
    5.1397   -3.2392   -0.5493 C   0  0  0  0  0  0  0  0  0  0  0  0
    5.9072   -2.3022   -0.0217 N   0  0  0  0  0  0  0  0  0  0  0  0
    5.5754   -1.1447   -0.7004 N   0  0  0  0  0  0  0  0  0  0  0  0
    4.6912   -1.4031   -1.6160 N   0  0  0  0  0  0  0  0  0  0  0  0
    4.3648   -2.7170   -1.5174 N   0  0  0  0  0  0  0  0  0  0  0  0
    3.4638   -3.3388   -2.4495 C   0  0  0  0  0  0  0  0  0  0  0  0
    2.3492   -2.4710   -3.0064 C   0  0  0  0  0  0  0  0  0  0  0  0
    2.0575   -3.4579   -1.8968 C   0  0  0  0  0  0  0  0  0  0  0  0
    3.9170   -6.5654    0.6260 C   0  0  0  0  0  0  0  0  0  0  0  0
    2.5564   -7.0181    1.1894 C   0  0  0  0  0  0  0  0  0  0  0  0
    1.3421   -5.6653    7.4791 H   0  0  0  0  0  0  0  0  0  0  0  0
    1.1559   -7.2429    6.7178 H   0  0  0  0  0  0  0  0  0  0  0  0
   -0.2610   -6.2358    7.0128 H   0  0  0  0  0  0  0  0  0  0  0  0
    2.0467   -5.5874    5.1611 H   0  0  0  0  0  0  0  0  0  0  0  0
    0.9966   -3.5033    6.0251 H   0  0  0  0  0  0  0  0  0  0  0  0
   -0.5872   -4.0772    5.5288 H   0  0  0  0  0  0  0  0  0  0  0  0
    0.5781   -3.6538    4.3248 H   0  0  0  0  0  0  0  0  0  0  0  0
   -2.2020   -7.9157    3.2752 H   0  0  0  0  0  0  0  0  0  0  0  0
   -0.1224   -7.9112    1.4253 H   0  0  0  0  0  0  0  0  0  0  0  0
    2.9477   -6.7447    3.2574 H   0  0  0  0  0  0  0  0  0  0  0  0
    1.6261   -4.4350    1.7706 H   0  0  0  0  0  0  0  0  0  0  0  0
    2.3766   -4.3373    3.3454 H   0  0  0  0  0  0  0  0  0  0  0  0
    3.7873   -3.3853    1.7011 H   0  0  0  0  0  0  0  0  0  0  0  0
    4.5897   -4.7389    2.4692 H   0  0  0  0  0  0  0  0  0  0  0  0
    6.1251   -4.8519    0.4021 H   0  0  0  0  0  0  0  0  0  0  0  0
    5.3699   -5.2471   -1.1406 H   0  0  0  0  0  0  0  0  0  0  0  0
    3.9363   -4.1158   -3.0486 H   0  0  0  0  0  0  0  0  0  0  0  0
    2.3008   -1.4170   -2.7465 H   0  0  0  0  0  0  0  0  0  0  0  0
    1.9853   -2.7154   -4.0019 H   0  0  0  0  0  0  0  0  0  0  0  0
    1.4657   -4.3263   -2.1555 H   0  0  0  0  0  0  0  0  0  0  0  0
    1.8528   -3.0484   -0.9076 H   0  0  0  0  0  0  0  0  0  0  0  0
    4.0852   -7.0259   -0.3399 H   0  0  0  0  0  0  0  0  0  0  0  0
    4.7137   -6.9081    1.2816 H   0  0  0  0  0  0  0  0  0  0  0  0
    2.5527   -8.1067    1.2943 H   0  0  0  0  0  0  0  0  0  0  0  0
    1.7688   -6.7762    0.4746 H   0  0  0  0  0  0  0  0  0  0  0  0
    3.2373   -4.8146   -0.1191 H   0  0  0  0  0  0  0  0  0  0  0  0
  1  2  1  0
  1 24  1  0
  1 25  1  0
  1 26  1  0
  2  3  1  0
  2  4  1  0
  2 27  1  0
  3 28  1  0
  3 29  1  0
  3 30  1  0
  4  8  1  0
  4  5  1  0
  5  6  2  0
  6  7  1  0
  6 31  1  0
  7  8  2  0
  7 32  1  0
  8  9  1  0
  9 23  1  0
  9 10  1  0
  9 33  1  1
 10 11  1  0
 10 34  1  0
 10 35  1  0
 11 12  1  0
 11 36  1  0
 11 37  1  0
 12 13  1  0
 12 22  1  0
 12 49  1  6
 13 14  1  0
 13 38  1  0
 13 39  1  0
 14 18  1  0
 14 15  2  0
 15 16  1  0
 16 17  2  0
 17 18  1  0
 18 19  1  0
 19 21  1  0
 19 20  1  0
 19 40  1  0
 20 21  1  0
 20 41  1  0
 20 42  1  0
 21 43  1  0
 21 44  1  0
 22 23  1  0
 22 45  1  0
 22 46  1  0
 23 47  1  0
 23 48  1  0
M  CHG  1  12   1
M  END
>  <i_m_ct_stereo_status>  (86) 
1

>  <s_m_source_file>  (86) 
/var/tmp/pbs.5076255.sched01/tmpcm5es6vs/0d3z1so5d.sdf

>  <i_m_source_file_index>  (86) 
36

>  <i_lp_mmshare_version>  (86) 
48012

>  <i_f3d_flags>  (86) 
0

>  <s_epik_input>  (86) 
W0NIM11bQ0hdKFtDSDNdKW4xbltjSF1bY0hdYzFbQ0hdMltDSDJdW0NIMl1OKFtDSDJdW0NIMl0yKVtDSDJdYzNubm5uM1tDSF00W0NIMl1bQ0gyXTQ=

>  <s_epik_cmdline>  (86) 
J2VwaWtfcHl0aG9uJywgJy1waHQnLCAnMi4wJywgJy1waCcsICc3LjAnLCAnLXRuJywgJzgnLCAnLW1hJywgJzIwMCcsICctaW1hZScsICc8aW5maWxlLm1hZT4nLCAnLW9tYWUnLCAnPG91dGZpbGUubWFlPic=

>  <r_lp_tautomer_probability>  (86) 
1

>  <r_epik_Ionization_Penalty>  (86) 
0.921885

>  <r_epik_Ionization_Penalty_Charging>  (86) 
0.9215

>  <r_epik_Ionization_Penalty_Neutral>  (86) 
0.000384947

>  <r_epik_State_Penalty>  (86) 
0.963208

>  <r_epik_Charging_Adjusted_Penalty>  (86) 
1.88471

>  <i_epik_Tot_Q>  (86) 
1

>  <i_epik_Tot_abs_Q>  (86) 
1

>  <s_lp_Force_Field>  (86) 
OPLS3e

>  <r_lp_Energy>  (86) 
14.5892

>  <b_lp_Chiralities_Consistent>  (86) 
1

>  <s_lp_Variant>  (86) 
29:0-2

>  <s_i_glide_gridfile>  (86) 
pfpi4k_grid

>  <i_i_glide_lignum>  (86) 
36

>  <i_i_glide_rotatable_bonds>  (86) 
5

>  <r_i_docking_score>  (86) 
-3.09941

>  <r_i_glide_ligand_efficiency>  (86) 
-0.134757

>  <r_i_glide_ligand_efficiency_sa>  (86) 
-0.38323

>  <r_i_glide_ligand_efficiency_ln>  (86) 
-0.749465

>  <r_i_glide_gscore>  (86) 
-3.09941

>  <r_i_glide_lipo>  (86) 
-0.316351

>  <r_i_glide_hbond>  (86) 
0

>  <r_i_glide_metal>  (86) 
-0

>  <r_i_glide_rewards>  (86) 
-1.30663

>  <r_i_glide_evdw>  (86) 
-25.8564

>  <r_i_glide_ecoul>  (86) 
-5.21602

>  <r_i_glide_erotb>  (86) 
0.743737

>  <r_i_glide_esite>  (86) 
-0.144939

>  <r_i_glide_emodel>  (86) 
-38.0616

>  <r_i_glide_energy>  (86) 
-31.0724

>  <r_i_glide_einternal>  (86) 
0.777303

>  <r_i_glide_intrahb_reward>  (86) 
-0

>  <i_i_glide_confnum>  (86) 
2

>  <i_i_glide_posenum>  (86) 
10

>  <r_i_glide_eff_state_penalty>  (86) 
0

>  <ligand_id>  (86) 
29

>  <original_smiles>  (86) 
CC(C)n1nccc1C1CCN(Cc2nnnn2C2CC2)CC1

>  <smiles>  (86) 
[H]c1nn(C([H])(C([H])([H])[H])C([H])([H])[H])c(C2([H])C([H])([H])C([H])([H])[N+]([H])(C([H])([H])c3nnnn3C3([H])C([H])([H])C3([H])[H])C([H])([H])C2([H])[H])c1[H]

$$$$
31:0:0
     RDKit          3D

 91 97  0  0  1  0  0  0  0  0999 V2000
    1.1920   -1.5575    8.8967 C   0  0  0  0  0  0  0  0  0  0  0  0
    0.4937   -2.1344    7.6555 C   0  0  0  0  0  0  0  0  0  0  0  0
   -0.4567   -2.8965    7.7925 O   0  0  0  0  0  0  0  0  0  0  0  0
    0.9636   -1.7607    6.4242 O   0  0  0  0  0  0  0  0  0  0  0  0
    2.0462   -0.8837    6.3698 C   0  0  2  0  0  0  0  0  0  0  0  0
    1.7089    0.4713    6.6364 O   0  0  0  0  0  0  0  0  0  0  0  0
    0.8828    1.1368    5.6913 C   0  0  2  0  0  0  0  0  0  0  0  0
   -0.3770    0.5152    5.6148 O   0  0  0  0  0  0  0  0  0  0  0  0
   -1.3478    1.1151    4.7591 C   0  0  1  0  0  0  0  0  0  0  0  0
   -1.8781    2.4520    5.3105 C   0  0  0  0  0  0  0  0  0  0  0  0
   -0.8065    1.1671    3.3211 C   0  0  0  0  0  0  0  0  0  0  0  0
    0.5867    1.8085    3.2365 C   0  0  1  0  0  0  0  0  0  0  0  0
    0.4312    3.2172    3.2825 O   0  0  0  0  0  0  0  0  0  0  0  0
    1.5874    1.2241    4.2983 C   0  0  1  0  0  0  0  0  0  0  0  0
    2.8026    2.1901    4.4405 C   0  0  0  0  0  0  0  0  0  0  0  0
    1.9605   -0.2473    3.9485 C   0  0  1  0  0  0  0  0  0  0  0  0
    2.7067   -0.5862    2.6471 C   0  0  0  0  0  0  0  0  0  0  0  0
    3.3998   -1.9666    2.9086 C   0  0  1  0  0  0  0  0  0  0  0  0
    3.0521   -2.3489    4.3629 C   0  0  2  0  0  0  0  0  0  0  0  0
    1.9233   -3.3883    4.2358 C   0  0  0  0  0  0  0  0  0  0  0  0
    2.1027   -4.0997    2.8872 C   0  0  2  0  0  0  0  0  0  0  0  0
    2.3969   -5.5930    3.0071 C   0  0  0  0  0  0  0  0  0  0  0  0
    1.5392   -6.5828    2.7117 C   0  0  0  0  0  0  0  0  0  0  0  0
    2.0668   -7.9363    3.0990 C   0  0  0  0  0  0  0  0  0  0  0  0
    3.2222   -7.5711    4.0548 C   0  0  1  0  0  0  0  0  0  0  0  0
    2.7177   -7.5511    5.5119 C   0  0  0  0  0  0  0  0  0  0  0  0
    4.2573   -8.5386    4.0383 O   0  0  0  0  0  0  0  0  0  0  0  0
    3.6708   -6.1497    3.6039 C   0  0  1  0  0  0  0  0  0  0  0  0
    4.8483   -6.1301    2.5780 C   0  0  1  0  0  0  0  0  0  0  0  0
    4.5224   -6.9255    1.4432 O   0  0  0  0  0  0  0  0  0  0  0  0
    5.2854   -4.7041    2.1358 C   0  0  1  0  0  0  0  0  0  0  0  0
    5.5731   -3.9960    3.3159 O   0  0  0  0  0  0  0  0  0  0  0  0
    6.6328   -4.6064    1.3501 C   0  0  1  0  0  0  0  0  0  0  0  0
    6.9313   -5.6918    0.5100 O   0  0  0  0  0  0  0  0  0  0  0  0
    6.4325   -3.3839    0.5032 C   0  0  0  0  0  0  0  0  0  0  0  0
    5.1664   -2.9633    0.4734 C   0  0  0  0  0  0  0  0  0  0  0  0
    4.6711   -1.7796   -0.3388 C   0  0  0  0  0  0  0  0  0  0  0  0
    4.2547   -3.8874    1.2884 C   0  0  2  0  0  0  0  0  0  0  0  0
    3.0371   -3.1952    2.0097 C   0  0  2  0  0  0  0  0  0  0  0  0
    2.2154   -2.7850    0.9494 O   0  0  0  0  0  0  0  0  0  0  0  0
    2.7921   -0.9600    5.0127 C   0  0  2  0  0  0  0  0  0  0  0  0
    4.0850   -0.3292    5.1439 O   0  0  0  0  0  0  0  0  0  0  0  0
    5.0454   -0.7225    6.0174 C   0  0  0  0  0  0  0  0  0  0  0  0
    6.2413    0.2105    5.9993 C   0  0  0  0  0  0  0  0  0  0  0  0
    5.0111   -1.7023    6.7565 O   0  0  0  0  0  0  0  0  0  0  0  0
    1.0821   -0.4764    8.9185 H   0  0  0  0  0  0  0  0  0  0  0  0
    2.2545   -1.7946    8.8634 H   0  0  0  0  0  0  0  0  0  0  0  0
    0.7698   -1.9429    9.8301 H   0  0  0  0  0  0  0  0  0  0  0  0
    2.7233   -1.2230    7.1511 H   0  0  0  0  0  0  0  0  0  0  0  0
    0.7360    2.1333    6.1089 H   0  0  0  0  0  0  0  0  0  0  0  0
   -2.1918    0.4270    4.7606 H   0  0  0  0  0  0  0  0  0  0  0  0
   -2.6509    2.8471    4.6505 H   0  0  0  0  0  0  0  0  0  0  0  0
   -1.1068    3.2142    5.3970 H   0  0  0  0  0  0  0  0  0  0  0  0
   -2.3266    2.3179    6.2948 H   0  0  0  0  0  0  0  0  0  0  0  0
   -0.7500    0.1469    2.9427 H   0  0  0  0  0  0  0  0  0  0  0  0
   -1.5079    1.6854    2.6656 H   0  0  0  0  0  0  0  0  0  0  0  0
    1.0061    1.5952    2.2496 H   0  0  0  0  0  0  0  0  0  0  0  0
    0.2333    3.5293    2.3989 H   0  0  0  0  0  0  0  0  0  0  0  0
    3.4028    2.2171    3.5297 H   0  0  0  0  0  0  0  0  0  0  0  0
    3.4622    1.9526    5.2710 H   0  0  0  0  0  0  0  0  0  0  0  0
    2.4900    3.2169    4.6442 H   0  0  0  0  0  0  0  0  0  0  0  0
    1.0148   -0.7812    3.8860 H   0  0  0  0  0  0  0  0  0  0  0  0
    2.0130   -0.5482    1.8040 H   0  0  0  0  0  0  0  0  0  0  0  0
    3.4849    0.1533    2.4579 H   0  0  0  0  0  0  0  0  0  0  0  0
    4.4713   -1.7707    2.8585 H   0  0  0  0  0  0  0  0  0  0  0  0
    3.8711   -2.8712    4.8481 H   0  0  0  0  0  0  0  0  0  0  0  0
    1.9107   -4.0880    5.0775 H   0  0  0  0  0  0  0  0  0  0  0  0
    0.9423   -2.9159    4.2189 H   0  0  0  0  0  0  0  0  0  0  0  0
    1.0963   -4.0827    2.4776 H   0  0  0  0  0  0  0  0  0  0  0  0
    0.5549   -6.4619    2.2909 H   0  0  0  0  0  0  0  0  0  0  0  0
    1.3042   -8.5606    3.5726 H   0  0  0  0  0  0  0  0  0  0  0  0
    2.4164   -8.4505    2.2023 H   0  0  0  0  0  0  0  0  0  0  0  0
    1.8935   -6.8476    5.6473 H   0  0  0  0  0  0  0  0  0  0  0  0
    3.5106   -7.2697    6.2092 H   0  0  0  0  0  0  0  0  0  0  0  0
    2.3576   -8.5381    5.8171 H   0  0  0  0  0  0  0  0  0  0  0  0
    4.4984   -8.6978    3.1322 H   0  0  0  0  0  0  0  0  0  0  0  0
    3.9309   -5.5633    4.4864 H   0  0  0  0  0  0  0  0  0  0  0  0
    5.7094   -6.5988    3.0623 H   0  0  0  0  0  0  0  0  0  0  0  0
    3.7863   -6.5272    0.9930 H   0  0  0  0  0  0  0  0  0  0  0  0
    4.8091   -4.0072    3.8757 H   0  0  0  0  0  0  0  0  0  0  0  0
    7.4946   -4.4725    2.0100 H   0  0  0  0  0  0  0  0  0  0  0  0
    6.1360   -5.9091    0.0297 H   0  0  0  0  0  0  0  0  0  0  0  0
    7.2476   -2.9263   -0.0385 H   0  0  0  0  0  0  0  0  0  0  0  0
    3.9141   -2.0835   -1.0622 H   0  0  0  0  0  0  0  0  0  0  0  0
    5.4907   -1.3154   -0.8961 H   0  0  0  0  0  0  0  0  0  0  0  0
    4.2546   -1.0091    0.3072 H   0  0  0  0  0  0  0  0  0  0  0  0
    3.8278   -4.5544    0.5418 H   0  0  0  0  0  0  0  0  0  0  0  0
    2.6250   -2.0686    0.4799 H   0  0  0  0  0  0  0  0  0  0  0  0
    5.9279    1.2255    6.2541 H   0  0  0  0  0  0  0  0  0  0  0  0
    6.6770    0.2207    5.0024 H   0  0  0  0  0  0  0  0  0  0  0  0
    7.0061   -0.1071    6.7139 H   0  0  0  0  0  0  0  0  0  0  0  0
  1  2  1  0
  1 46  1  0
  1 47  1  0
  1 48  1  0
  2  3  2  0
  2  4  1  0
  4  5  1  0
  5 41  1  0
  5  6  1  0
  5 49  1  1
  6  7  1  0
  7 14  1  0
  7  8  1  0
  7 50  1  1
  8  9  1  0
  9 10  1  0
  9 11  1  0
  9 51  1  6
 10 52  1  0
 10 53  1  0
 10 54  1  0
 11 12  1  0
 11 55  1  0
 11 56  1  0
 12 13  1  0
 12 14  1  0
 12 57  1  6
 13 58  1  0
 14 15  1  1
 14 16  1  0
 15 59  1  0
 15 60  1  0
 15 61  1  0
 16 41  1  0
 16 17  1  0
 16 62  1  6
 17 18  1  0
 17 63  1  0
 17 64  1  0
 18 39  1  0
 18 19  1  0
 18 65  1  1
 19 20  1  0
 19 41  1  0
 19 66  1  1
 20 21  1  0
 20 67  1  0
 20 68  1  0
 21 39  1  0
 21 22  1  0
 21 69  1  6
 22 28  1  0
 22 23  2  0
 23 24  1  0
 23 70  1  0
 24 25  1  0
 24 71  1  0
 24 72  1  0
 25 26  1  0
 25 27  1  1
 25 28  1  0
 26 73  1  0
 26 74  1  0
 26 75  1  0
 27 76  1  0
 28 29  1  0
 28 77  1  1
 29 30  1  0
 29 31  1  0
 29 78  1  1
 30 79  1  0
 31 38  1  0
 31 32  1  1
 31 33  1  0
 32 80  1  0
 33 34  1  0
 33 35  1  0
 33 81  1  1
 34 82  1  0
 35 36  2  0
 35 83  1  0
 36 37  1  0
 36 38  1  0
 37 84  1  0
 37 85  1  0
 37 86  1  0
 38 39  1  0
 38 87  1  6
 39 40  1  6
 40 88  1  0
 41 42  1  1
 42 43  1  0
 43 44  1  0
 43 45  2  0
 44 89  1  0
 44 90  1  0
 44 91  1  0
M  END
>  <i_m_ct_stereo_status>  (87) 
1

>  <s_m_source_file>  (87) 
/var/tmp/pbs.5076255.sched01/tmpcm5es6vs/0d3z1so5d.sdf

>  <i_m_source_file_index>  (87) 
38

>  <i_lp_mmshare_version>  (87) 
48012

>  <i_f3d_flags>  (87) 
0

>  <s_epik_input>  (87) 
W09IXVtDQEBIXTFbQ0gyXVtDQEhdKFtDSDNdKU9bQ0BIXShbQ0BdMTJbQ0gzXSlPW0NAQEhdKE9DKD1PKVtDSDNdKVtDQF0zKE9DKD1PKVtDSDNdKVtDQEBIXTJbQ0gyXVtDQEhdNFtDQEBIXTNbQ0gyXVtDQEBIXTVDPTZbQ0BASF0oW0NAXShbQ0gzXSkoW09IXSlbQ0gyXVtDSF02KVtDQEBIXShbT0hdKVtDQF03KFtPSF0pW0NAQEhdKFtDQF00NVtPSF0pQyhbQ0gzXSk9W0NIXVtDQEBIXTdbT0hd

>  <s_epik_cmdline>  (87) 
J2VwaWtfcHl0aG9uJywgJy1waHQnLCAnMi4wJywgJy1waCcsICc3LjAnLCAnLXRuJywgJzgnLCAnLW1hJywgJzIwMCcsICctaW1hZScsICc8aW5maWxlLm1hZT4nLCAnLW9tYWUnLCAnPG91dGZpbGUubWFlPic=

>  <r_lp_tautomer_probability>  (87) 
1

>  <r_epik_Ionization_Penalty>  (87) 
4.6686e-07

>  <r_epik_Ionization_Penalty_Charging>  (87) 
0

>  <r_epik_Ionization_Penalty_Neutral>  (87) 
4.6686e-07

>  <r_epik_State_Penalty>  (87) 
-0

>  <r_epik_Charging_Adjusted_Penalty>  (87) 
0

>  <i_epik_Tot_Q>  (87) 
0

>  <i_epik_Tot_abs_Q>  (87) 
0

>  <s_epik_Chemistry_Notes>  (87) 
This compound has an ester and may undergo hydrolysis at high or low pH. This compound contains an acetal/aminal-like group ( X-CH(R)-Y where X, Y are N, S, or O) that may be acid/base labile, releasing an aldehyde.

>  <s_lp_Force_Field>  (87) 
OPLS3e

>  <r_lp_Energy>  (87) 
49.3186

>  <b_lp_Chiralities_Consistent>  (87) 
1

>  <s_lp_Variant>  (87) 
31:0-1

>  <s_i_glide_gridfile>  (87) 
pfpi4k_grid

>  <i_i_glide_lignum>  (87) 
38

>  <i_i_glide_rotatable_bonds>  (87) 
10

>  <r_i_docking_score>  (87) 
-3.01462

>  <r_i_glide_ligand_efficiency>  (87) 
-0.0669915

>  <r_i_glide_ligand_efficiency_sa>  (87) 
-0.238282

>  <r_i_glide_ligand_efficiency_ln>  (87) 
-0.627175

>  <r_i_glide_gscore>  (87) 
-3.01462

>  <r_i_glide_lipo>  (87) 
-0.381864

>  <r_i_glide_hbond>  (87) 
-0.250561

>  <r_i_glide_metal>  (87) 
-0

>  <r_i_glide_rewards>  (87) 
-0.015501

>  <r_i_glide_evdw>  (87) 
-29.238

>  <r_i_glide_ecoul>  (87) 
-6.48206

>  <r_i_glide_erotb>  (87) 
0.105076

>  <r_i_glide_esite>  (87) 
-0.0375592

>  <r_i_glide_emodel>  (87) 
-40.1394

>  <r_i_glide_energy>  (87) 
-35.7201

>  <r_i_glide_einternal>  (87) 
8.2123

>  <r_i_glide_intrahb_reward>  (87) 
-0

>  <i_i_glide_confnum>  (87) 
4

>  <i_i_glide_posenum>  (87) 
9

>  <r_i_glide_eff_state_penalty>  (87) 
0

>  <ligand_id>  (87) 
31

>  <original_smiles>  (87) 
CC(=O)OC1OC2OC(C)CC(O)C2(C)C2CC3C(CC4C5=CCC(C)(O)C5C(O)C5(O)C(O)C=C(C)C5C43O)C12OC(C)=O

>  <smiles>  (87) 
[H]OC1([H])C([H])=C(C([H])([H])[H])C2([H])C1(O[H])C([H])(O[H])C1([H])C(=C([H])C([H])([H])C1(O[H])C([H])([H])[H])C1([H])C([H])([H])C3([H])C([H])(C([H])([H])C4([H])C3(OC(=O)C([H])([H])[H])C([H])(OC(=O)C([H])([H])[H])OC3([H])OC([H])(C([H])([H])[H])C([H])([H])C([H])(O[H])C34C([H])([H])[H])C12O[H]

$$$$
31:0:1
     RDKit          3D

 91 97  0  0  1  0  0  0  0  0999 V2000
    0.5351   -2.8178    8.4056 C   0  0  0  0  0  0  0  0  0  0  0  0
   -0.0545   -3.2935    7.0577 C   0  0  0  0  0  0  0  0  0  0  0  0
   -1.2739   -3.4820    6.9635 O   0  0  0  0  0  0  0  0  0  0  0  0
    0.8445   -3.4797    6.0148 O   0  0  0  0  0  0  0  0  0  0  0  0
    2.1763   -3.1230    6.2143 C   0  0  2  0  0  0  0  0  0  0  0  0
    2.3253   -1.7115    6.3191 O   0  0  0  0  0  0  0  0  0  0  0  0
    2.0428   -0.9347    5.1861 C   0  0  2  0  0  0  0  0  0  0  0  0
    0.7062   -1.0956    4.8374 O   0  0  0  0  0  0  0  0  0  0  0  0
    0.2023   -0.3361    3.7643 C   0  0  1  0  0  0  0  0  0  0  0  0
    0.0837    1.1535    4.1145 C   0  0  0  0  0  0  0  0  0  0  0  0
    1.0206   -0.6655    2.5038 C   0  0  0  0  0  0  0  0  0  0  0  0
    2.5400   -0.5609    2.7300 C   0  0  1  0  0  0  0  0  0  0  0  0
    2.8787    0.8105    2.7196 O   0  0  0  0  0  0  0  0  0  0  0  0
    3.0250   -1.3010    4.0154 C   0  0  1  0  0  0  0  0  0  0  0  0
    4.4386   -0.7976    4.4254 C   0  0  0  0  0  0  0  0  0  0  0  0
    2.9028   -2.8557    3.8416 C   0  0  1  0  0  0  0  0  0  0  0  0
    3.7277   -3.5697    2.7537 C   0  0  0  0  0  0  0  0  0  0  0  0
    3.7731   -5.0671    3.2278 C   0  0  1  0  0  0  0  0  0  0  0  0
    3.0094   -5.1486    4.5656 C   0  0  2  0  0  0  0  0  0  0  0  0
    1.6322   -5.7107    4.2053 C   0  0  0  0  0  0  0  0  0  0  0  0
    1.8297   -6.6155    2.9855 C   0  0  2  0  0  0  0  0  0  0  0  0
    1.5592   -8.0959    3.2733 C   0  0  0  0  0  0  0  0  0  0  0  0
    0.4957   -8.7674    2.8201 C   0  0  0  0  0  0  0  0  0  0  0  0
    0.4162  -10.1620    3.3841 C   0  0  0  0  0  0  0  0  0  0  0  0
    1.3857  -10.0910    4.5902 C   0  0  1  0  0  0  0  0  0  0  0  0
    0.6145   -9.7084    5.8705 C   0  0  0  0  0  0  0  0  0  0  0  0
    1.9797  -11.3365    4.8937 O   0  0  0  0  0  0  0  0  0  0  0  0
    2.3996   -8.9634    4.1977 C   0  0  1  0  0  0  0  0  0  0  0  0
    3.7001   -9.4770    3.4992 C   0  0  1  0  0  0  0  0  0  0  0  0
    3.3585  -10.2160    2.3381 O   0  0  0  0  0  0  0  0  0  0  0  0
    4.7086   -8.3622    3.1145 C   0  0  1  0  0  0  0  0  0  0  0  0
    5.0154   -7.6644    4.3121 O   0  0  0  0  0  0  0  0  0  0  0  0
    6.1264   -8.8542    2.6541 C   0  0  1  0  0  0  0  0  0  0  0  0
    6.1587  -10.0837    1.9467 O   0  0  0  0  0  0  0  0  0  0  0  0
    6.5558   -7.7403    1.7452 C   0  0  0  0  0  0  0  0  0  0  0  0
    5.5647   -6.9184    1.3978 C   0  0  0  0  0  0  0  0  0  0  0  0
    5.7115   -5.7365    0.4568 C   0  0  0  0  0  0  0  0  0  0  0  0
    4.2302   -7.3527    1.9944 C   0  0  2  0  0  0  0  0  0  0  0  0
    3.1936   -6.2093    2.3341 C   0  0  2  0  0  0  0  0  0  0  0  0
    2.8175   -5.6702    1.0751 O   0  0  0  0  0  0  0  0  0  0  0  0
    3.1204   -3.6886    5.1083 C   0  0  2  0  0  0  0  0  0  0  0  0
    4.4528   -3.5722    5.6026 O   0  0  0  0  0  0  0  0  0  0  0  0
    5.0335   -4.1399    6.7194 C   0  0  0  0  0  0  0  0  0  0  0  0
    4.2004   -5.1383    7.5826 C   0  0  0  0  0  0  0  0  0  0  0  0
    6.1896   -3.8614    7.0262 O   0  0  0  0  0  0  0  0  0  0  0  0
    1.0145   -1.8423    8.2945 H   0  0  0  0  0  0  0  0  0  0  0  0
    1.2761   -3.5228    8.7889 H   0  0  0  0  0  0  0  0  0  0  0  0
   -0.2139   -2.7128    9.1802 H   0  0  0  0  0  0  0  0  0  0  0  0
    2.5166   -3.4985    7.1430 H   0  0  0  0  0  0  0  0  0  0  0  0
    2.1902    0.1028    5.5220 H   0  0  0  0  0  0  0  0  0  0  0  0
   -0.8150   -0.6993    3.6157 H   0  0  0  0  0  0  0  0  0  0  0  0
   -0.3320    1.6963    3.2680 H   0  0  0  0  0  0  0  0  0  0  0  0
    1.0434    1.6105    4.3595 H   0  0  0  0  0  0  0  0  0  0  0  0
   -0.5810    1.2964    4.9680 H   0  0  0  0  0  0  0  0  0  0  0  0
    0.7894   -1.6885    2.2061 H   0  0  0  0  0  0  0  0  0  0  0  0
    0.7109   -0.0326    1.6743 H   0  0  0  0  0  0  0  0  0  0  0  0
    3.0498   -1.0191    1.8825 H   0  0  0  0  0  0  0  0  0  0  0  0
    2.5558    1.1697    1.9108 H   0  0  0  0  0  0  0  0  0  0  0  0
    5.1862   -1.0969    3.6957 H   0  0  0  0  0  0  0  0  0  0  0  0
    4.7633   -1.1503    5.4059 H   0  0  0  0  0  0  0  0  0  0  0  0
    4.4803    0.2913    4.5118 H   0  0  0  0  0  0  0  0  0  0  0  0
    1.8642   -3.0182    3.5667 H   0  0  0  0  0  0  0  0  0  0  0  0
    3.2847   -3.3919    1.7630 H   0  0  0  0  0  0  0  0  0  0  0  0
    4.7548   -3.1767    2.7508 H   0  0  0  0  0  0  0  0  0  0  0  0
    4.8215   -5.2597    3.4506 H   0  0  0  0  0  0  0  0  0  0  0  0
    3.5241   -5.8757    5.1613 H   0  0  0  0  0  0  0  0  0  0  0  0
    1.2386   -6.2466    5.0591 H   0  0  0  0  0  0  0  0  0  0  0  0
    0.8917   -4.9480    3.9496 H   0  0  0  0  0  0  0  0  0  0  0  0
    1.0264   -6.3354    2.2971 H   0  0  0  0  0  0  0  0  0  0  0  0
   -0.2716   -8.3795    2.1584 H   0  0  0  0  0  0  0  0  0  0  0  0
   -0.5896  -10.4239    3.6938 H   0  0  0  0  0  0  0  0  0  0  0  0
    0.7475  -10.8700    2.6183 H   0  0  0  0  0  0  0  0  0  0  0  0
    0.0902   -8.7618    5.7606 H   0  0  0  0  0  0  0  0  0  0  0  0
    1.2840   -9.6304    6.7274 H   0  0  0  0  0  0  0  0  0  0  0  0
   -0.1329  -10.4661    6.1126 H   0  0  0  0  0  0  0  0  0  0  0  0
    1.7168  -11.6218    5.7605 H   0  0  0  0  0  0  0  0  0  0  0  0
    2.6527   -8.3892    5.0813 H   0  0  0  0  0  0  0  0  0  0  0  0
    4.1816  -10.1691    4.1964 H   0  0  0  0  0  0  0  0  0  0  0  0
    4.0017  -10.8946    2.1846 H   0  0  0  0  0  0  0  0  0  0  0  0
    5.3122   -8.3012    4.9415 H   0  0  0  0  0  0  0  0  0  0  0  0
    6.8272   -8.9259    3.4821 H   0  0  0  0  0  0  0  0  0  0  0  0
    5.4110  -10.1036    1.3680 H   0  0  0  0  0  0  0  0  0  0  0  0
    7.5701   -7.6526    1.3990 H   0  0  0  0  0  0  0  0  0  0  0  0
    5.0859   -5.8624   -0.4289 H   0  0  0  0  0  0  0  0  0  0  0  0
    6.7414   -5.6620    0.1212 H   0  0  0  0  0  0  0  0  0  0  0  0
    5.4643   -4.7951    0.9436 H   0  0  0  0  0  0  0  0  0  0  0  0
    3.7623   -7.9515    1.2047 H   0  0  0  0  0  0  0  0  0  0  0  0
    3.6171   -5.4669    0.6166 H   0  0  0  0  0  0  0  0  0  0  0  0
    3.8020   -5.9430    6.9780 H   0  0  0  0  0  0  0  0  0  0  0  0
    3.4155   -4.6325    8.1490 H   0  0  0  0  0  0  0  0  0  0  0  0
    4.8948   -5.5632    8.3153 H   0  0  0  0  0  0  0  0  0  0  0  0
  1  2  1  0
  1 46  1  0
  1 47  1  0
  1 48  1  0
  2  3  2  0
  2  4  1  0
  4  5  1  0
  5 41  1  0
  5  6  1  0
  5 49  1  1
  6  7  1  0
  7 14  1  0
  7  8  1  0
  7 50  1  1
  8  9  1  0
  9 10  1  0
  9 11  1  0
  9 51  1  6
 10 52  1  0
 10 53  1  0
 10 54  1  0
 11 12  1  0
 11 55  1  0
 11 56  1  0
 12 13  1  0
 12 14  1  0
 12 57  1  6
 13 58  1  0
 14 15  1  1
 14 16  1  0
 15 59  1  0
 15 60  1  0
 15 61  1  0
 16 41  1  0
 16 17  1  0
 16 62  1  6
 17 18  1  0
 17 63  1  0
 17 64  1  0
 18 39  1  0
 18 19  1  0
 18 65  1  1
 19 20  1  0
 19 41  1  0
 19 66  1  1
 20 21  1  0
 20 67  1  0
 20 68  1  0
 21 39  1  0
 21 22  1  0
 21 69  1  6
 22 28  1  0
 22 23  2  0
 23 24  1  0
 23 70  1  0
 24 25  1  0
 24 71  1  0
 24 72  1  0
 25 26  1  0
 25 27  1  1
 25 28  1  0
 26 73  1  0
 26 74  1  0
 26 75  1  0
 27 76  1  0
 28 29  1  0
 28 77  1  1
 29 30  1  0
 29 31  1  0
 29 78  1  1
 30 79  1  0
 31 38  1  0
 31 32  1  1
 31 33  1  0
 32 80  1  0
 33 34  1  0
 33 35  1  0
 33 81  1  1
 34 82  1  0
 35 36  2  0
 35 83  1  0
 36 37  1  0
 36 38  1  0
 37 84  1  0
 37 85  1  0
 37 86  1  0
 38 39  1  0
 38 87  1  6
 39 40  1  6
 40 88  1  0
 41 42  1  1
 42 43  1  0
 43 44  1  0
 43 45  2  0
 44 89  1  0
 44 90  1  0
 44 91  1  0
M  END
>  <i_m_ct_stereo_status>  (88) 
1

>  <s_m_source_file>  (88) 
/var/tmp/pbs.5076255.sched01/tmpcm5es6vs/0d3z1so5d.sdf

>  <i_m_source_file_index>  (88) 
38

>  <i_lp_mmshare_version>  (88) 
48012

>  <i_f3d_flags>  (88) 
0

>  <s_epik_input>  (88) 
W09IXVtDQEBIXTFbQ0gyXVtDQEhdKFtDSDNdKU9bQ0BIXShbQ0BdMTJbQ0gzXSlPW0NAQEhdKE9DKD1PKVtDSDNdKVtDQF0zKE9DKD1PKVtDSDNdKVtDQEBIXTJbQ0gyXVtDQEhdNFtDQEBIXTNbQ0gyXVtDQEBIXTVDPTZbQ0BASF0oW0NAXShbQ0gzXSkoW09IXSlbQ0gyXVtDSF02KVtDQEBIXShbT0hdKVtDQF03KFtPSF0pW0NAQEhdKFtDQF00NVtPSF0pQyhbQ0gzXSk9W0NIXVtDQEBIXTdbT0hd

>  <s_epik_cmdline>  (88) 
J2VwaWtfcHl0aG9uJywgJy1waHQnLCAnMi4wJywgJy1waCcsICc3LjAnLCAnLXRuJywgJzgnLCAnLW1hJywgJzIwMCcsICctaW1hZScsICc8aW5maWxlLm1hZT4nLCAnLW9tYWUnLCAnPG91dGZpbGUubWFlPic=

>  <r_lp_tautomer_probability>  (88) 
1

>  <r_epik_Ionization_Penalty>  (88) 
4.6686e-07

>  <r_epik_Ionization_Penalty_Charging>  (88) 
0

>  <r_epik_Ionization_Penalty_Neutral>  (88) 
4.6686e-07

>  <r_epik_State_Penalty>  (88) 
-0

>  <r_epik_Charging_Adjusted_Penalty>  (88) 
0

>  <i_epik_Tot_Q>  (88) 
0

>  <i_epik_Tot_abs_Q>  (88) 
0

>  <s_epik_Chemistry_Notes>  (88) 
This compound has an ester and may undergo hydrolysis at high or low pH. This compound contains an acetal/aminal-like group ( X-CH(R)-Y where X, Y are N, S, or O) that may be acid/base labile, releasing an aldehyde.

>  <s_lp_Force_Field>  (88) 
OPLS3e

>  <r_lp_Energy>  (88) 
49.3186

>  <b_lp_Chiralities_Consistent>  (88) 
1

>  <s_lp_Variant>  (88) 
31:0-1

>  <s_i_glide_gridfile>  (88) 
pfpi4k_grid

>  <i_i_glide_lignum>  (88) 
38

>  <i_i_glide_rotatable_bonds>  (88) 
10

>  <r_i_docking_score>  (88) 
-2.97022

>  <r_i_glide_ligand_efficiency>  (88) 
-0.0660048

>  <r_i_glide_ligand_efficiency_sa>  (88) 
-0.234772

>  <r_i_glide_ligand_efficiency_ln>  (88) 
-0.617938

>  <r_i_glide_gscore>  (88) 
-2.97022

>  <r_i_glide_lipo>  (88) 
-0.35126

>  <r_i_glide_hbond>  (88) 
0

>  <r_i_glide_metal>  (88) 
-0

>  <r_i_glide_rewards>  (88) 
0

>  <r_i_glide_evdw>  (88) 
-35.8339

>  <r_i_glide_ecoul>  (88) 
-6.04086

>  <r_i_glide_erotb>  (88) 
0.105076

>  <r_i_glide_esite>  (88) 
-0.0262125

>  <r_i_glide_emodel>  (88) 
-42.9291

>  <r_i_glide_energy>  (88) 
-41.8747

>  <r_i_glide_einternal>  (88) 
13.5615

>  <r_i_glide_intrahb_reward>  (88) 
-0

>  <i_i_glide_confnum>  (88) 
4

>  <i_i_glide_posenum>  (88) 
2

>  <r_i_glide_eff_state_penalty>  (88) 
0

>  <ligand_id>  (88) 
31

>  <original_smiles>  (88) 
CC(=O)OC1OC2OC(C)CC(O)C2(C)C2CC3C(CC4C5=CCC(C)(O)C5C(O)C5(O)C(O)C=C(C)C5C43O)C12OC(C)=O

>  <smiles>  (88) 
[H]OC1([H])C([H])=C(C([H])([H])[H])C2([H])C1(O[H])C([H])(O[H])C1([H])C(=C([H])C([H])([H])C1(O[H])C([H])([H])[H])C1([H])C([H])([H])C3([H])C([H])(C([H])([H])C4([H])C3(OC(=O)C([H])([H])[H])C([H])(OC(=O)C([H])([H])[H])OC3([H])OC([H])(C([H])([H])[H])C([H])([H])C([H])(O[H])C34C([H])([H])[H])C12O[H]

$$$$
31:0:2
     RDKit          3D

 91 97  0  0  1  0  0  0  0  0999 V2000
    0.5149   -2.6591    8.1611 C   0  0  0  0  0  0  0  0  0  0  0  0
   -0.1813   -2.9855    6.8141 C   0  0  0  0  0  0  0  0  0  0  0  0
   -1.3392   -3.3913    6.8241 O   0  0  0  0  0  0  0  0  0  0  0  0
    0.5710   -2.8104    5.6655 O   0  0  0  0  0  0  0  0  0  0  0  0
    1.8930   -2.3424    5.7992 C   0  0  2  0  0  0  0  0  0  0  0  0
    1.9436   -0.9127    5.8936 O   0  0  0  0  0  0  0  0  0  0  0  0
    1.5845   -0.1203    4.7992 C   0  0  2  0  0  0  0  0  0  0  0  0
    0.2402   -0.3291    4.5159 O   0  0  0  0  0  0  0  0  0  0  0  0
   -0.3326    0.4440    3.4862 C   0  0  1  0  0  0  0  0  0  0  0  0
   -0.4830    1.9158    3.8874 C   0  0  0  0  0  0  0  0  0  0  0  0
    0.4475    0.1788    2.1897 C   0  0  0  0  0  0  0  0  0  0  0  0
    1.9628    0.3375    2.3422 C   0  0  1  0  0  0  0  0  0  0  0  0
    2.2287    1.7241    2.3711 O   0  0  0  0  0  0  0  0  0  0  0  0
    2.5330   -0.4189    3.5831 C   0  0  1  0  0  0  0  0  0  0  0  0
    3.9481    0.1225    3.9340 C   0  0  0  0  0  0  0  0  0  0  0  0
    2.4638   -1.9728    3.3676 C   0  0  1  0  0  0  0  0  0  0  0  0
    3.2602   -2.6314    2.2189 C   0  0  0  0  0  0  0  0  0  0  0  0
    3.3878   -4.1348    2.6496 C   0  0  1  0  0  0  0  0  0  0  0  0
    2.7064   -4.2836    4.0373 C   0  0  2  0  0  0  0  0  0  0  0  0
    1.3271   -4.8889    3.7283 C   0  0  0  0  0  0  0  0  0  0  0  0
    1.5009   -5.7662    2.4878 C   0  0  2  0  0  0  0  0  0  0  0  0
    1.2892   -7.2609    2.7518 C   0  0  0  0  0  0  0  0  0  0  0  0
    0.2189   -7.9570    2.3451 C   0  0  0  0  0  0  0  0  0  0  0  0
    0.2052   -9.3608    2.8810 C   0  0  0  0  0  0  0  0  0  0  0  0
    1.2447   -9.2797    4.0257 C   0  0  1  0  0  0  0  0  0  0  0  0
    0.5329   -8.9580    5.3550 C   0  0  0  0  0  0  0  0  0  0  0  0
    1.8948  -10.5082    4.2565 O   0  0  0  0  0  0  0  0  0  0  0  0
    2.2046   -8.1168    3.6057 C   0  0  1  0  0  0  0  0  0  0  0  0
    3.4833   -8.5710    2.8243 C   0  0  1  0  0  0  0  0  0  0  0  0
    3.0976   -9.3072    1.6665 O   0  0  0  0  0  0  0  0  0  0  0  0
    4.4294   -7.3976    2.4249 C   0  0  1  0  0  0  0  0  0  0  0  0
    4.7691   -6.7139    3.6215 O   0  0  0  0  0  0  0  0  0  0  0  0
    5.8507   -7.8024    1.9039 C   0  0  1  0  0  0  0  0  0  0  0  0
    5.8938   -8.9800    1.1227 O   0  0  0  0  0  0  0  0  0  0  0  0
    6.1873   -6.6432    1.0146 C   0  0  0  0  0  0  0  0  0  0  0  0
    5.1544   -5.8718    0.7175 C   0  0  0  0  0  0  0  0  0  0  0  0
    5.2025   -4.6783   -0.2362 C   0  0  0  0  0  0  0  0  0  0  0  0
    3.8666   -6.3800    1.3571 C   0  0  2  0  0  0  0  0  0  0  0  0
    2.8089   -5.2902    1.7717 C   0  0  2  0  0  0  0  0  0  0  0  0
    2.3445   -4.7522    0.5466 O   0  0  0  0  0  0  0  0  0  0  0  0
    2.7842   -2.8144    4.5999 C   0  0  2  0  0  0  0  0  0  0  0  0
    4.1378   -2.6776    5.0329 O   0  0  0  0  0  0  0  0  0  0  0  0
    4.7932   -3.2502    6.0961 C   0  0  0  0  0  0  0  0  0  0  0  0
    4.0452   -4.3203    6.9690 C   0  0  0  0  0  0  0  0  0  0  0  0
    5.9502   -2.9268    6.3657 O   0  0  0  0  0  0  0  0  0  0  0  0
    0.8133   -1.6149    8.1950 H   0  0  0  0  0  0  0  0  0  0  0  0
    1.4076   -3.2703    8.2767 H   0  0  0  0  0  0  0  0  0  0  0  0
   -0.1338   -2.8293    9.0023 H   0  0  0  0  0  0  0  0  0  0  0  0
    2.3290   -2.6491    6.7060 H   0  0  0  0  0  0  0  0  0  0  0  0
    1.7207    0.9154    5.1658 H   0  0  0  0  0  0  0  0  0  0  0  0
   -1.3366    0.0411    3.3651 H   0  0  0  0  0  0  0  0  0  0  0  0
   -0.9566    2.4600    3.0741 H   0  0  0  0  0  0  0  0  0  0  0  0
    0.4704    2.4015    4.0952 H   0  0  0  0  0  0  0  0  0  0  0  0
   -1.1079    2.0132    4.7760 H   0  0  0  0  0  0  0  0  0  0  0  0
    0.2525   -0.8451    1.8792 H   0  0  0  0  0  0  0  0  0  0  0  0
    0.0734    0.8123    1.3905 H   0  0  0  0  0  0  0  0  0  0  0  0
    2.4425   -0.0824    1.4579 H   0  0  0  0  0  0  0  0  0  0  0  0
    1.7339    2.1110    1.6693 H   0  0  0  0  0  0  0  0  0  0  0  0
    4.6687   -0.1314    3.1591 H   0  0  0  0  0  0  0  0  0  0  0  0
    4.3413   -0.2381    4.8882 H   0  0  0  0  0  0  0  0  0  0  0  0
    3.9604    1.2117    4.0398 H   0  0  0  0  0  0  0  0  0  0  0  0
    1.4195   -2.1698    3.1410 H   0  0  0  0  0  0  0  0  0  0  0  0
    2.7602   -2.4512    1.2542 H   0  0  0  0  0  0  0  0  0  0  0  0
    4.2720   -2.2023    2.1793 H   0  0  0  0  0  0  0  0  0  0  0  0
    4.4503   -4.2924    2.8293 H   0  0  0  0  0  0  0  0  0  0  0  0
    3.2713   -4.9884    4.5896 H   0  0  0  0  0  0  0  0  0  0  0  0
    1.0015   -5.4528    4.5936 H   0  0  0  0  0  0  0  0  0  0  0  0
    0.5525   -4.1514    3.5246 H   0  0  0  0  0  0  0  0  0  0  0  0
    0.6541   -5.5076    1.8542 H   0  0  0  0  0  0  0  0  0  0  0  0
   -0.5840   -7.5821    1.7268 H   0  0  0  0  0  0  0  0  0  0  0  0
   -0.7837   -9.6743    3.2191 H   0  0  0  0  0  0  0  0  0  0  0  0
    0.5290  -10.0320    2.0854 H   0  0  0  0  0  0  0  0  0  0  0  0
   -0.0241   -8.0273    5.2930 H   0  0  0  0  0  0  0  0  0  0  0  0
    1.2484   -8.8742    6.1736 H   0  0  0  0  0  0  0  0  0  0  0  0
   -0.1731   -9.7486    5.6173 H   0  0  0  0  0  0  0  0  0  0  0  0
    1.2703  -11.1235    4.6066 H   0  0  0  0  0  0  0  0  0  0  0  0
    2.4853   -7.5452    4.4861 H   0  0  0  0  0  0  0  0  0  0  0  0
    4.0246   -9.2462    3.4917 H   0  0  0  0  0  0  0  0  0  0  0  0
    3.6479  -10.0661    1.5345 H   0  0  0  0  0  0  0  0  0  0  0  0
    5.1258   -7.3465    4.2219 H   0  0  0  0  0  0  0  0  0  0  0  0
    6.5917   -7.8938    2.7007 H   0  0  0  0  0  0  0  0  0  0  0  0
    5.4521   -9.6637    1.5927 H   0  0  0  0  0  0  0  0  0  0  0  0
    7.1766   -6.5125    0.6095 H   0  0  0  0  0  0  0  0  0  0  0  0
    4.5333   -4.8111   -1.0872 H   0  0  0  0  0  0  0  0  0  0  0  0
    6.2064   -4.5524   -0.6341 H   0  0  0  0  0  0  0  0  0  0  0  0
    4.9521   -3.7559    0.2820 H   0  0  0  0  0  0  0  0  0  0  0  0
    3.3915   -6.9762    0.5735 H   0  0  0  0  0  0  0  0  0  0  0  0
    3.1080   -4.5267    0.0387 H   0  0  0  0  0  0  0  0  0  0  0  0
    3.6724   -5.1317    6.3658 H   0  0  0  0  0  0  0  0  0  0  0  0
    3.2757   -3.8674    7.5906 H   0  0  0  0  0  0  0  0  0  0  0  0
    4.8116   -4.7235    7.6836 H   0  0  0  0  0  0  0  0  0  0  0  0
  1  2  1  0
  1 46  1  0
  1 47  1  0
  1 48  1  0
  2  3  2  0
  2  4  1  0
  4  5  1  0
  5 41  1  0
  5  6  1  0
  5 49  1  1
  6  7  1  0
  7 14  1  0
  7  8  1  0
  7 50  1  1
  8  9  1  0
  9 10  1  0
  9 11  1  0
  9 51  1  6
 10 52  1  0
 10 53  1  0
 10 54  1  0
 11 12  1  0
 11 55  1  0
 11 56  1  0
 12 13  1  0
 12 14  1  0
 12 57  1  6
 13 58  1  0
 14 15  1  1
 14 16  1  0
 15 59  1  0
 15 60  1  0
 15 61  1  0
 16 41  1  0
 16 17  1  0
 16 62  1  6
 17 18  1  0
 17 63  1  0
 17 64  1  0
 18 39  1  0
 18 19  1  0
 18 65  1  1
 19 20  1  0
 19 41  1  0
 19 66  1  1
 20 21  1  0
 20 67  1  0
 20 68  1  0
 21 39  1  0
 21 22  1  0
 21 69  1  6
 22 28  1  0
 22 23  2  0
 23 24  1  0
 23 70  1  0
 24 25  1  0
 24 71  1  0
 24 72  1  0
 25 26  1  0
 25 27  1  1
 25 28  1  0
 26 73  1  0
 26 74  1  0
 26 75  1  0
 27 76  1  0
 28 29  1  0
 28 77  1  1
 29 30  1  0
 29 31  1  0
 29 78  1  1
 30 79  1  0
 31 38  1  0
 31 32  1  1
 31 33  1  0
 32 80  1  0
 33 34  1  0
 33 35  1  0
 33 81  1  1
 34 82  1  0
 35 36  2  0
 35 83  1  0
 36 37  1  0
 36 38  1  0
 37 84  1  0
 37 85  1  0
 37 86  1  0
 38 39  1  0
 38 87  1  6
 39 40  1  6
 40 88  1  0
 41 42  1  1
 42 43  1  0
 43 44  1  0
 43 45  2  0
 44 89  1  0
 44 90  1  0
 44 91  1  0
M  END
>  <i_m_ct_stereo_status>  (89) 
1

>  <s_m_source_file>  (89) 
/var/tmp/pbs.5076255.sched01/tmpcm5es6vs/0d3z1so5d.sdf

>  <i_m_source_file_index>  (89) 
38

>  <i_lp_mmshare_version>  (89) 
48012

>  <i_f3d_flags>  (89) 
0

>  <s_epik_input>  (89) 
W09IXVtDQEBIXTFbQ0gyXVtDQEhdKFtDSDNdKU9bQ0BIXShbQ0BdMTJbQ0gzXSlPW0NAQEhdKE9DKD1PKVtDSDNdKVtDQF0zKE9DKD1PKVtDSDNdKVtDQEBIXTJbQ0gyXVtDQEhdNFtDQEBIXTNbQ0gyXVtDQEBIXTVDPTZbQ0BASF0oW0NAXShbQ0gzXSkoW09IXSlbQ0gyXVtDSF02KVtDQEBIXShbT0hdKVtDQF03KFtPSF0pW0NAQEhdKFtDQF00NVtPSF0pQyhbQ0gzXSk9W0NIXVtDQEBIXTdbT0hd

>  <s_epik_cmdline>  (89) 
J2VwaWtfcHl0aG9uJywgJy1waHQnLCAnMi4wJywgJy1waCcsICc3LjAnLCAnLXRuJywgJzgnLCAnLW1hJywgJzIwMCcsICctaW1hZScsICc8aW5maWxlLm1hZT4nLCAnLW9tYWUnLCAnPG91dGZpbGUubWFlPic=

>  <r_lp_tautomer_probability>  (89) 
1

>  <r_epik_Ionization_Penalty>  (89) 
4.6686e-07

>  <r_epik_Ionization_Penalty_Charging>  (89) 
0

>  <r_epik_Ionization_Penalty_Neutral>  (89) 
4.6686e-07

>  <r_epik_State_Penalty>  (89) 
-0

>  <r_epik_Charging_Adjusted_Penalty>  (89) 
0

>  <i_epik_Tot_Q>  (89) 
0

>  <i_epik_Tot_abs_Q>  (89) 
0

>  <s_epik_Chemistry_Notes>  (89) 
This compound has an ester and may undergo hydrolysis at high or low pH. This compound contains an acetal/aminal-like group ( X-CH(R)-Y where X, Y are N, S, or O) that may be acid/base labile, releasing an aldehyde.

>  <s_lp_Force_Field>  (89) 
OPLS3e

>  <r_lp_Energy>  (89) 
49.3186

>  <b_lp_Chiralities_Consistent>  (89) 
1

>  <s_lp_Variant>  (89) 
31:0-1

>  <s_i_glide_gridfile>  (89) 
pfpi4k_grid

>  <i_i_glide_lignum>  (89) 
38

>  <i_i_glide_rotatable_bonds>  (89) 
10

>  <r_i_docking_score>  (89) 
-2.93861

>  <r_i_glide_ligand_efficiency>  (89) 
-0.0653025

>  <r_i_glide_ligand_efficiency_sa>  (89) 
-0.232274

>  <r_i_glide_ligand_efficiency_ln>  (89) 
-0.611362

>  <r_i_glide_gscore>  (89) 
-2.93861

>  <r_i_glide_lipo>  (89) 
-0.340975

>  <r_i_glide_hbond>  (89) 
-0.00331299

>  <r_i_glide_metal>  (89) 
-0

>  <r_i_glide_rewards>  (89) 
-0.00439223

>  <r_i_glide_evdw>  (89) 
-38.72

>  <r_i_glide_ecoul>  (89) 
-4.84346

>  <r_i_glide_erotb>  (89) 
0.105076

>  <r_i_glide_esite>  (89) 
-0.0324891

>  <r_i_glide_emodel>  (89) 
-43.9039

>  <r_i_glide_energy>  (89) 
-43.5634

>  <r_i_glide_einternal>  (89) 
14.1573

>  <r_i_glide_intrahb_reward>  (89) 
-0

>  <i_i_glide_confnum>  (89) 
4

>  <i_i_glide_posenum>  (89) 
7

>  <r_i_glide_eff_state_penalty>  (89) 
0

>  <ligand_id>  (89) 
31

>  <original_smiles>  (89) 
CC(=O)OC1OC2OC(C)CC(O)C2(C)C2CC3C(CC4C5=CCC(C)(O)C5C(O)C5(O)C(O)C=C(C)C5C43O)C12OC(C)=O

>  <smiles>  (89) 
[H]OC1([H])C([H])=C(C([H])([H])[H])C2([H])C1(O[H])C([H])(O[H])C1([H])C(=C([H])C([H])([H])C1(O[H])C([H])([H])[H])C1([H])C([H])([H])C3([H])C([H])(C([H])([H])C4([H])C3(OC(=O)C([H])([H])[H])C([H])(OC(=O)C([H])([H])[H])OC3([H])OC([H])(C([H])([H])[H])C([H])([H])C([H])(O[H])C34C([H])([H])[H])C12O[H]

$$$$
32:0:0
     RDKit          3D

 18 18  0  0  1  0  0  0  0  0999 V2000
    4.4830   -1.0923   -1.1815 C   0  0  0  0  0  0  0  0  0  0  0  0
    3.9655   -1.8279   -2.1813 C   0  0  0  0  0  0  0  0  0  0  0  0
    3.7489   -1.3175   -3.5323 C   0  0  0  0  0  0  0  0  0  0  0  0
    3.8139   -0.1502   -3.8972 O   0  0  0  0  0  0  0  0  0  0  0  0
    3.4648   -2.3510   -4.3191 O   0  0  0  0  0  0  0  0  0  0  0  0
    3.5462   -3.6148   -3.6782 C   0  0  0  0  0  0  0  0  0  0  0  0
    3.6168   -3.2901   -2.1744 C   0  0  1  0  0  0  0  0  0  0  0  0
    4.6464   -4.0714   -1.5979 O   0  0  0  0  0  0  0  0  0  0  0  0
    2.2692   -3.5838   -1.4703 C   0  0  0  0  0  0  0  0  0  0  0  0
    2.2299   -3.0558   -0.1673 O   0  0  0  0  0  0  0  0  0  0  0  0
    4.6711   -1.5239   -0.2069 H   0  0  0  0  0  0  0  0  0  0  0  0
    4.7073   -0.0493   -1.3285 H   0  0  0  0  0  0  0  0  0  0  0  0
    2.7001   -4.2511   -3.9349 H   0  0  0  0  0  0  0  0  0  0  0  0
    4.4614   -4.0979   -4.0240 H   0  0  0  0  0  0  0  0  0  0  0  0
    4.3836   -4.9735   -1.6951 H   0  0  0  0  0  0  0  0  0  0  0  0
    1.4515   -3.1332   -2.0325 H   0  0  0  0  0  0  0  0  0  0  0  0
    2.0497   -4.6465   -1.3969 H   0  0  0  0  0  0  0  0  0  0  0  0
    1.9350   -2.1444   -0.2581 H   0  0  0  0  0  0  0  0  0  0  0  0
  1  2  2  0
  1 11  1  0
  1 12  1  0
  2  7  1  0
  2  3  1  0
  3  4  2  0
  3  5  1  0
  5  6  1  0
  6  7  1  0
  6 13  1  0
  6 14  1  0
  7  8  1  1
  7  9  1  0
  8 15  1  0
  9 10  1  0
  9 16  1  0
  9 17  1  0
 10 18  1  0
M  END
>  <i_m_ct_stereo_status>  (90) 
1

>  <s_m_source_file>  (90) 
/var/tmp/pbs.5076255.sched01/tmpcm5es6vs/0d3z1so5d.sdf

>  <i_m_source_file_index>  (90) 
39

>  <i_lp_mmshare_version>  (90) 
48012

>  <i_f3d_flags>  (90) 
0

>  <s_epik_input>  (90) 
W09IXVtDSDJdW0NAXTEoW09IXSlDKD1bQ0gyXSlDKD1PKU9bQ0gyXTE=

>  <s_epik_cmdline>  (90) 
J2VwaWtfcHl0aG9uJywgJy1waHQnLCAnMi4wJywgJy1waCcsICc3LjAnLCAnLXRuJywgJzgnLCAnLW1hJywgJzIwMCcsICctaW1hZScsICc8aW5maWxlLm1hZT4nLCAnLW9tYWUnLCAnPG91dGZpbGUubWFlPic=

>  <r_lp_tautomer_probability>  (90) 
1

>  <r_epik_Ionization_Penalty>  (90) 
8.7777e-05

>  <r_epik_Ionization_Penalty_Charging>  (90) 
0

>  <r_epik_Ionization_Penalty_Neutral>  (90) 
8.7777e-05

>  <r_epik_State_Penalty>  (90) 
-0

>  <r_epik_Charging_Adjusted_Penalty>  (90) 
0

>  <i_epik_Tot_Q>  (90) 
0

>  <i_epik_Tot_abs_Q>  (90) 
0

>  <s_epik_Chemistry_Notes>  (90) 
This compound has an ester and may undergo hydrolysis at high or low pH.

>  <s_lp_Force_Field>  (90) 
OPLS3e

>  <r_lp_Energy>  (90) 
1.50589

>  <b_lp_Chiralities_Consistent>  (90) 
1

>  <s_lp_Variant>  (90) 
32:0-1

>  <s_i_glide_gridfile>  (90) 
pfpi4k_grid

>  <i_i_glide_lignum>  (90) 
39

>  <i_i_glide_rotatable_bonds>  (90) 
3

>  <r_i_docking_score>  (90) 
-4.43288

>  <r_i_glide_ligand_efficiency>  (90) 
-0.443288

>  <r_i_glide_ligand_efficiency_sa>  (90) 
-0.955035

>  <r_i_glide_ligand_efficiency_ln>  (90) 
-1.34224

>  <r_i_glide_gscore>  (90) 
-4.43288

>  <r_i_glide_lipo>  (90) 
-0.158617

>  <r_i_glide_hbond>  (90) 
-0.291283

>  <r_i_glide_metal>  (90) 
-0

>  <r_i_glide_rewards>  (90) 
-2.52686

>  <r_i_glide_evdw>  (90) 
-14.5897

>  <r_i_glide_ecoul>  (90) 
-9.48644

>  <r_i_glide_erotb>  (90) 
0.696327

>  <r_i_glide_esite>  (90) 
0

>  <r_i_glide_emodel>  (90) 
-28.9244

>  <r_i_glide_energy>  (90) 
-24.0761

>  <r_i_glide_einternal>  (90) 
4.78953

>  <r_i_glide_intrahb_reward>  (90) 
-0

>  <i_i_glide_confnum>  (90) 
2

>  <i_i_glide_posenum>  (90) 
12

>  <r_i_glide_eff_state_penalty>  (90) 
0

>  <ligand_id>  (90) 
32

>  <original_smiles>  (90) 
C=C1C(=O)OCC1(O)CO

>  <smiles>  (90) 
[H]OC([H])([H])C1(O[H])C(=C([H])[H])C(=O)OC1([H])[H]

$$$$
32:0:1
     RDKit          3D

 18 18  0  0  1  0  0  0  0  0999 V2000
    4.9319   -3.8659   -1.0156 C   0  0  0  0  0  0  0  0  0  0  0  0
    4.5356   -2.8147   -1.7573 C   0  0  0  0  0  0  0  0  0  0  0  0
    5.0216   -1.4601   -1.5421 C   0  0  0  0  0  0  0  0  0  0  0  0
    5.7155   -1.0677   -0.6075 O   0  0  0  0  0  0  0  0  0  0  0  0
    4.6116   -0.7071   -2.5672 O   0  0  0  0  0  0  0  0  0  0  0  0
    4.0024   -1.4437   -3.6186 C   0  0  0  0  0  0  0  0  0  0  0  0
    3.6755   -2.8159   -2.9931 C   0  0  1  0  0  0  0  0  0  0  0  0
    4.0483   -3.8494   -3.8910 O   0  0  0  0  0  0  0  0  0  0  0  0
    2.1686   -2.9065   -2.6797 C   0  0  0  0  0  0  0  0  0  0  0  0
    1.8592   -3.8539   -1.6723 O   0  0  0  0  0  0  0  0  0  0  0  0
    4.5882   -4.8674   -1.2385 H   0  0  0  0  0  0  0  0  0  0  0  0
    5.5918   -3.7419   -0.1689 H   0  0  0  0  0  0  0  0  0  0  0  0
    3.1360   -0.9201   -4.0332 H   0  0  0  0  0  0  0  0  0  0  0  0
    4.7381   -1.5344   -4.4187 H   0  0  0  0  0  0  0  0  0  0  0  0
    3.7257   -4.6660   -3.5310 H   0  0  0  0  0  0  0  0  0  0  0  0
    1.8456   -1.9370   -2.3221 H   0  0  0  0  0  0  0  0  0  0  0  0
    1.5885   -3.1011   -3.5788 H   0  0  0  0  0  0  0  0  0  0  0  0
    2.1687   -4.7098   -1.9616 H   0  0  0  0  0  0  0  0  0  0  0  0
  1  2  2  0
  1 11  1  0
  1 12  1  0
  2  7  1  0
  2  3  1  0
  3  4  2  0
  3  5  1  0
  5  6  1  0
  6  7  1  0
  6 13  1  0
  6 14  1  0
  7  8  1  6
  7  9  1  0
  8 15  1  0
  9 10  1  0
  9 16  1  0
  9 17  1  0
 10 18  1  0
M  END
>  <i_m_ct_stereo_status>  (91) 
1

>  <s_m_source_file>  (91) 
/var/tmp/pbs.5076255.sched01/tmpcm5es6vs/0d3z1so5d.sdf

>  <i_m_source_file_index>  (91) 
39

>  <i_lp_mmshare_version>  (91) 
48012

>  <i_f3d_flags>  (91) 
0

>  <s_epik_input>  (91) 
W09IXVtDSDJdW0NAXTEoW09IXSlDKD1bQ0gyXSlDKD1PKU9bQ0gyXTE=

>  <s_epik_cmdline>  (91) 
J2VwaWtfcHl0aG9uJywgJy1waHQnLCAnMi4wJywgJy1waCcsICc3LjAnLCAnLXRuJywgJzgnLCAnLW1hJywgJzIwMCcsICctaW1hZScsICc8aW5maWxlLm1hZT4nLCAnLW9tYWUnLCAnPG91dGZpbGUubWFlPic=

>  <r_lp_tautomer_probability>  (91) 
1

>  <r_epik_Ionization_Penalty>  (91) 
8.7777e-05

>  <r_epik_Ionization_Penalty_Charging>  (91) 
0

>  <r_epik_Ionization_Penalty_Neutral>  (91) 
8.7777e-05

>  <r_epik_State_Penalty>  (91) 
-0

>  <r_epik_Charging_Adjusted_Penalty>  (91) 
0

>  <i_epik_Tot_Q>  (91) 
0

>  <i_epik_Tot_abs_Q>  (91) 
0

>  <s_epik_Chemistry_Notes>  (91) 
This compound has an ester and may undergo hydrolysis at high or low pH.

>  <s_lp_Force_Field>  (91) 
OPLS3e

>  <r_lp_Energy>  (91) 
1.50589

>  <b_lp_Chiralities_Consistent>  (91) 
1

>  <s_lp_Variant>  (91) 
32:0-1

>  <s_i_glide_gridfile>  (91) 
pfpi4k_grid

>  <i_i_glide_lignum>  (91) 
39

>  <i_i_glide_rotatable_bonds>  (91) 
3

>  <r_i_docking_score>  (91) 
-4.16546

>  <r_i_glide_ligand_efficiency>  (91) 
-0.416546

>  <r_i_glide_ligand_efficiency_sa>  (91) 
-0.897421

>  <r_i_glide_ligand_efficiency_ln>  (91) 
-1.26127

>  <r_i_glide_gscore>  (91) 
-4.16546

>  <r_i_glide_lipo>  (91) 
-0.355749

>  <r_i_glide_hbond>  (91) 
-0.0150991

>  <r_i_glide_metal>  (91) 
-0

>  <r_i_glide_rewards>  (91) 
-2.25

>  <r_i_glide_evdw>  (91) 
-15.8324

>  <r_i_glide_ecoul>  (91) 
-9.36761

>  <r_i_glide_erotb>  (91) 
0.696327

>  <r_i_glide_esite>  (91) 
-0.0441753

>  <r_i_glide_emodel>  (91) 
-29.7687

>  <r_i_glide_energy>  (91) 
-25.2

>  <r_i_glide_einternal>  (91) 
4.63258

>  <r_i_glide_intrahb_reward>  (91) 
-0

>  <i_i_glide_confnum>  (91) 
2

>  <i_i_glide_posenum>  (91) 
10

>  <r_i_glide_eff_state_penalty>  (91) 
0

>  <ligand_id>  (91) 
32

>  <original_smiles>  (91) 
C=C1C(=O)OCC1(O)CO

>  <smiles>  (91) 
[H]OC([H])([H])C1(O[H])C(=C([H])[H])C(=O)OC1([H])[H]

$$$$
32:0:2
     RDKit          3D

 18 18  0  0  1  0  0  0  0  0999 V2000
    2.2507   -2.8566   -3.3687 C   0  0  0  0  0  0  0  0  0  0  0  0
    3.4358   -2.9742   -2.7479 C   0  0  0  0  0  0  0  0  0  0  0  0
    4.6123   -3.5773   -3.3650 C   0  0  0  0  0  0  0  0  0  0  0  0
    4.6159   -4.2496   -4.3905 O   0  0  0  0  0  0  0  0  0  0  0  0
    5.6675   -3.3317   -2.5841 O   0  0  0  0  0  0  0  0  0  0  0  0
    5.3830   -2.4788   -1.4805 C   0  0  0  0  0  0  0  0  0  0  0  0
    3.8422   -2.4336   -1.4064 C   0  0  1  0  0  0  0  0  0  0  0  0
    3.4190   -1.0927   -1.2710 O   0  0  0  0  0  0  0  0  0  0  0  0
    3.2798   -3.2698   -0.2397 C   0  0  0  0  0  0  0  0  0  0  0  0
    3.6525   -4.6356   -0.3170 O   0  0  0  0  0  0  0  0  0  0  0  0
    1.4190   -2.3628   -2.8917 H   0  0  0  0  0  0  0  0  0  0  0  0
    2.0915   -3.2577   -4.3600 H   0  0  0  0  0  0  0  0  0  0  0  0
    5.8519   -2.8221   -0.5565 H   0  0  0  0  0  0  0  0  0  0  0  0
    5.7951   -1.5022   -1.7286 H   0  0  0  0  0  0  0  0  0  0  0  0
    2.4649   -1.0687   -1.1231 H   0  0  0  0  0  0  0  0  0  0  0  0
    3.6449   -2.8720    0.7081 H   0  0  0  0  0  0  0  0  0  0  0  0
    2.1923   -3.2028   -0.2156 H   0  0  0  0  0  0  0  0  0  0  0  0
    3.4103   -4.9910   -1.1701 H   0  0  0  0  0  0  0  0  0  0  0  0
  1  2  2  0
  1 11  1  0
  1 12  1  0
  2  7  1  0
  2  3  1  0
  3  4  2  0
  3  5  1  0
  5  6  1  0
  6  7  1  0
  6 13  1  0
  6 14  1  0
  7  8  1  1
  7  9  1  0
  8 15  1  0
  9 10  1  0
  9 16  1  0
  9 17  1  0
 10 18  1  0
M  END
>  <i_m_ct_stereo_status>  (92) 
1

>  <s_m_source_file>  (92) 
/var/tmp/pbs.5076255.sched01/tmpcm5es6vs/0d3z1so5d.sdf

>  <i_m_source_file_index>  (92) 
39

>  <i_lp_mmshare_version>  (92) 
48012

>  <i_f3d_flags>  (92) 
0

>  <s_epik_input>  (92) 
W09IXVtDSDJdW0NAXTEoW09IXSlDKD1bQ0gyXSlDKD1PKU9bQ0gyXTE=

>  <s_epik_cmdline>  (92) 
J2VwaWtfcHl0aG9uJywgJy1waHQnLCAnMi4wJywgJy1waCcsICc3LjAnLCAnLXRuJywgJzgnLCAnLW1hJywgJzIwMCcsICctaW1hZScsICc8aW5maWxlLm1hZT4nLCAnLW9tYWUnLCAnPG91dGZpbGUubWFlPic=

>  <r_lp_tautomer_probability>  (92) 
1

>  <r_epik_Ionization_Penalty>  (92) 
8.7777e-05

>  <r_epik_Ionization_Penalty_Charging>  (92) 
0

>  <r_epik_Ionization_Penalty_Neutral>  (92) 
8.7777e-05

>  <r_epik_State_Penalty>  (92) 
-0

>  <r_epik_Charging_Adjusted_Penalty>  (92) 
0

>  <i_epik_Tot_Q>  (92) 
0

>  <i_epik_Tot_abs_Q>  (92) 
0

>  <s_epik_Chemistry_Notes>  (92) 
This compound has an ester and may undergo hydrolysis at high or low pH.

>  <s_lp_Force_Field>  (92) 
OPLS3e

>  <r_lp_Energy>  (92) 
1.50589

>  <b_lp_Chiralities_Consistent>  (92) 
1

>  <s_lp_Variant>  (92) 
32:0-1

>  <s_i_glide_gridfile>  (92) 
pfpi4k_grid

>  <i_i_glide_lignum>  (92) 
39

>  <i_i_glide_rotatable_bonds>  (92) 
3

>  <r_i_docking_score>  (92) 
-4.03459

>  <r_i_glide_ligand_efficiency>  (92) 
-0.403459

>  <r_i_glide_ligand_efficiency_sa>  (92) 
-0.869226

>  <r_i_glide_ligand_efficiency_ln>  (92) 
-1.22165

>  <r_i_glide_gscore>  (92) 
-4.03459

>  <r_i_glide_lipo>  (92) 
-0.220743

>  <r_i_glide_hbond>  (92) 
0

>  <r_i_glide_metal>  (92) 
-0

>  <r_i_glide_rewards>  (92) 
-2.40647

>  <r_i_glide_evdw>  (92) 
-14.5325

>  <r_i_glide_ecoul>  (92) 
-9.18053

>  <r_i_glide_erotb>  (92) 
0.696327

>  <r_i_glide_esite>  (92) 
0

>  <r_i_glide_emodel>  (92) 
-30.2914

>  <r_i_glide_energy>  (92) 
-23.713

>  <r_i_glide_einternal>  (92) 
0.0465712

>  <r_i_glide_intrahb_reward>  (92) 
-0

>  <i_i_glide_confnum>  (92) 
4

>  <i_i_glide_posenum>  (92) 
28

>  <r_i_glide_eff_state_penalty>  (92) 
0

>  <ligand_id>  (92) 
32

>  <original_smiles>  (92) 
C=C1C(=O)OCC1(O)CO

>  <smiles>  (92) 
[H]OC([H])([H])C1(O[H])C(=C([H])[H])C(=O)OC1([H])[H]

$$$$
33:0:0
     RDKit          3D

 24 25  0  0  1  0  0  0  0  0999 V2000
    4.5755   -4.4116   -4.2441 C   0  0  0  0  0  0  0  0  0  0  0  0
    3.5357   -3.4447   -4.1202 O   0  0  0  0  0  0  0  0  0  0  0  0
    4.0912   -2.2963   -3.5628 C   0  0  2  0  0  0  0  0  0  0  0  0
    4.4547   -1.1969   -4.4111 O   0  0  0  0  0  0  0  0  0  0  0  0
    3.5820   -0.2162   -3.7547 C   0  0  1  0  0  0  0  0  0  0  0  0
    2.5353    0.2734   -4.7365 C   0  0  0  0  0  0  0  0  0  0  0  0
    3.1803   -1.3548   -2.8429 C   0  0  2  0  0  0  0  0  0  0  0  0
    4.1836   -2.1394   -2.0712 C   0  0  0  0  0  0  0  0  0  0  0  0
    3.6551   -3.2926   -1.1547 C   0  0  0  0  0  0  0  0  0  0  0  0
    5.4145   -1.5511   -1.4805 C   0  0  0  0  0  0  0  0  0  0  0  0
    4.2663   -5.3044   -4.7783 H   0  0  0  0  0  0  0  0  0  0  0  0
    4.9202   -4.7041   -3.2508 H   0  0  0  0  0  0  0  0  0  0  0  0
    5.4104   -3.9572   -4.7712 H   0  0  0  0  0  0  0  0  0  0  0  0
    4.1382    0.5580   -3.2480 H   0  0  0  0  0  0  0  0  0  0  0  0
    1.7849    0.9371   -4.3137 H   0  0  0  0  0  0  0  0  0  0  0  0
    1.9839   -0.5567   -5.1509 H   0  0  0  0  0  0  0  0  0  0  0  0
    3.0225    0.8081   -5.5615 H   0  0  0  0  0  0  0  0  0  0  0  0
    2.1282   -1.5802   -2.6908 H   0  0  0  0  0  0  0  0  0  0  0  0
    3.4062   -2.9374   -0.1578 H   0  0  0  0  0  0  0  0  0  0  0  0
    4.4043   -4.0616   -1.0656 H   0  0  0  0  0  0  0  0  0  0  0  0
    2.7736   -3.7360   -1.5816 H   0  0  0  0  0  0  0  0  0  0  0  0
    5.2214   -1.0386   -0.5384 H   0  0  0  0  0  0  0  0  0  0  0  0
    5.7852   -0.7990   -2.2127 H   0  0  0  0  0  0  0  0  0  0  0  0
    6.1776   -2.3091   -1.3741 H   0  0  0  0  0  0  0  0  0  0  0  0
  1  2  1  0
  1 11  1  0
  1 12  1  0
  1 13  1  0
  3  2  1  6
  3  7  1  0
  3  8  1  0
  3  4  1  0
  4  5  1  0
  5  6  1  0
  5  7  1  0
  5 14  1  1
  6 15  1  0
  6 16  1  0
  6 17  1  0
  7  8  1  0
  7 18  1  1
  8  9  1  0
  8 10  1  0
  9 19  1  0
  9 20  1  0
  9 21  1  0
 10 22  1  0
 10 23  1  0
 10 24  1  0
M  END
>  <i_m_ct_stereo_status>  (93) 
1

>  <s_m_source_file>  (93) 
/var/tmp/pbs.5076255.sched01/tmpcm5es6vs/0d3z1so5d.sdf

>  <i_m_source_file_index>  (93) 
40

>  <i_lp_mmshare_version>  (93) 
48012

>  <i_f3d_flags>  (93) 
2

>  <s_epik_input>  (93) 
W0NIM11PQzEyW0NAQEhdKFtDQEBIXShPMSlbQ0gzXSlDMihbQ0gzXSlbQ0gzXQ==

>  <s_epik_cmdline>  (93) 
J2VwaWtfcHl0aG9uJywgJy1waHQnLCAnMi4wJywgJy1waCcsICc3LjAnLCAnLXRuJywgJzgnLCAnLW1hJywgJzIwMCcsICctaW1hZScsICc8aW5maWxlLm1hZT4nLCAnLW9tYWUnLCAnPG91dGZpbGUubWFlPic=

>  <r_lp_tautomer_probability>  (93) 
1

>  <r_epik_Ionization_Penalty>  (93) 
3.01571e-12

>  <r_epik_Ionization_Penalty_Charging>  (93) 
0

>  <r_epik_Ionization_Penalty_Neutral>  (93) 
3.01571e-12

>  <r_epik_State_Penalty>  (93) 
-0

>  <r_epik_Charging_Adjusted_Penalty>  (93) 
0

>  <i_epik_Tot_Q>  (93) 
0

>  <i_epik_Tot_abs_Q>  (93) 
0

>  <s_lp_Force_Field>  (93) 
OPLS3e

>  <r_lp_Energy>  (93) 
6.28676

>  <b_lp_Chiralities_Consistent>  (93) 
0

>  <s_lp_Variant>  (93) 
33:0-1

>  <s_i_glide_gridfile>  (93) 
pfpi4k_grid

>  <i_i_glide_lignum>  (93) 
40

>  <i_i_glide_rotatable_bonds>  (93) 
1

>  <r_i_docking_score>  (93) 
-4.24481

>  <r_i_glide_ligand_efficiency>  (93) 
-0.424481

>  <r_i_glide_ligand_efficiency_sa>  (93) 
-0.914516

>  <r_i_glide_ligand_efficiency_ln>  (93) 
-1.2853

>  <r_i_glide_gscore>  (93) 
-4.24481

>  <r_i_glide_lipo>  (93) 
-0.232091

>  <r_i_glide_hbond>  (93) 
-0.290004

>  <r_i_glide_metal>  (93) 
-0

>  <r_i_glide_rewards>  (93) 
-2.53436

>  <r_i_glide_evdw>  (93) 
-15.4156

>  <r_i_glide_ecoul>  (93) 
-2.78381

>  <r_i_glide_erotb>  (93) 
0

>  <r_i_glide_esite>  (93) 
0

>  <r_i_glide_emodel>  (93) 
-20.9842

>  <r_i_glide_energy>  (93) 
-18.1994

>  <r_i_glide_einternal>  (93) 
0.558131

>  <r_i_glide_intrahb_reward>  (93) 
-0

>  <i_i_glide_confnum>  (93) 
2

>  <i_i_glide_posenum>  (93) 
1

>  <r_i_glide_eff_state_penalty>  (93) 
0

>  <ligand_id>  (93) 
33

>  <original_smiles>  (93) 
COC12OC(C)C1C2(C)C

>  <smiles>  (93) 
[H]C([H])([H])OC12OC([H])(C([H])([H])[H])C1([H])C2(C([H])([H])[H])C([H])([H])[H]

$$$$
33:0:1
     RDKit          3D

 24 25  0  0  1  0  0  0  0  0999 V2000
    3.5157   -0.1200   -4.6110 C   0  0  0  0  0  0  0  0  0  0  0  0
    3.1642   -0.4266   -3.2635 O   0  0  0  0  0  0  0  0  0  0  0  0
    4.0668   -1.3683   -2.7808 C   0  0  2  0  0  0  0  0  0  0  0  0
    5.2126   -0.9557   -2.0450 O   0  0  0  0  0  0  0  0  0  0  0  0
    4.9098   -1.7256   -0.8428 C   0  0  1  0  0  0  0  0  0  0  0  0
    4.7030   -0.7719    0.3355 C   0  0  0  0  0  0  0  0  0  0  0  0
    3.6848   -2.1794   -1.5768 C   0  0  2  0  0  0  0  0  0  0  0  0
    3.7638   -2.8353   -2.9263 C   0  0  0  0  0  0  0  0  0  0  0  0
    2.4524   -3.2423   -3.6126 C   0  0  0  0  0  0  0  0  0  0  0  0
    4.8933   -3.7311   -3.3388 C   0  0  0  0  0  0  0  0  0  0  0  0
    2.9342    0.7046   -5.0259 H   0  0  0  0  0  0  0  0  0  0  0  0
    3.3566   -0.9996   -5.2281 H   0  0  0  0  0  0  0  0  0  0  0  0
    4.5724    0.1403   -4.6730 H   0  0  0  0  0  0  0  0  0  0  0  0
    5.6214   -2.5190   -0.6661 H   0  0  0  0  0  0  0  0  0  0  0  0
    4.4029   -1.2820    1.2541 H   0  0  0  0  0  0  0  0  0  0  0  0
    3.9598   -0.0118    0.1139 H   0  0  0  0  0  0  0  0  0  0  0  0
    5.6415   -0.2501    0.5327 H   0  0  0  0  0  0  0  0  0  0  0  0
    2.7135   -2.1499   -1.0899 H   0  0  0  0  0  0  0  0  0  0  0  0
    2.1985   -4.2579   -3.3401 H   0  0  0  0  0  0  0  0  0  0  0  0
    2.5801   -3.2218   -4.6767 H   0  0  0  0  0  0  0  0  0  0  0  0
    1.6261   -2.6099   -3.3430 H   0  0  0  0  0  0  0  0  0  0  0  0
    4.7636   -4.7371   -2.9577 H   0  0  0  0  0  0  0  0  0  0  0  0
    5.8230   -3.3187   -2.9192 H   0  0  0  0  0  0  0  0  0  0  0  0
    4.9912   -3.7397   -4.4216 H   0  0  0  0  0  0  0  0  0  0  0  0
  1  2  1  0
  1 11  1  0
  1 12  1  0
  1 13  1  0
  3  2  1  6
  3  7  1  0
  3  8  1  0
  3  4  1  0
  4  5  1  0
  5  6  1  0
  5  7  1  0
  5 14  1  1
  6 15  1  0
  6 16  1  0
  6 17  1  0
  7  8  1  0
  7 18  1  1
  8  9  1  0
  8 10  1  0
  9 19  1  0
  9 20  1  0
  9 21  1  0
 10 22  1  0
 10 23  1  0
 10 24  1  0
M  END
>  <i_m_ct_stereo_status>  (94) 
1

>  <s_m_source_file>  (94) 
/var/tmp/pbs.5076255.sched01/tmpcm5es6vs/0d3z1so5d.sdf

>  <i_m_source_file_index>  (94) 
40

>  <i_lp_mmshare_version>  (94) 
48012

>  <i_f3d_flags>  (94) 
2

>  <s_epik_input>  (94) 
W0NIM11PQzEyW0NAQEhdKFtDQEBIXShPMSlbQ0gzXSlDMihbQ0gzXSlbQ0gzXQ==

>  <s_epik_cmdline>  (94) 
J2VwaWtfcHl0aG9uJywgJy1waHQnLCAnMi4wJywgJy1waCcsICc3LjAnLCAnLXRuJywgJzgnLCAnLW1hJywgJzIwMCcsICctaW1hZScsICc8aW5maWxlLm1hZT4nLCAnLW9tYWUnLCAnPG91dGZpbGUubWFlPic=

>  <r_lp_tautomer_probability>  (94) 
1

>  <r_epik_Ionization_Penalty>  (94) 
3.01571e-12

>  <r_epik_Ionization_Penalty_Charging>  (94) 
0

>  <r_epik_Ionization_Penalty_Neutral>  (94) 
3.01571e-12

>  <r_epik_State_Penalty>  (94) 
-0

>  <r_epik_Charging_Adjusted_Penalty>  (94) 
0

>  <i_epik_Tot_Q>  (94) 
0

>  <i_epik_Tot_abs_Q>  (94) 
0

>  <s_lp_Force_Field>  (94) 
OPLS3e

>  <r_lp_Energy>  (94) 
6.28676

>  <b_lp_Chiralities_Consistent>  (94) 
0

>  <s_lp_Variant>  (94) 
33:0-1

>  <s_i_glide_gridfile>  (94) 
pfpi4k_grid

>  <i_i_glide_lignum>  (94) 
40

>  <i_i_glide_rotatable_bonds>  (94) 
1

>  <r_i_docking_score>  (94) 
-3.78313

>  <r_i_glide_ligand_efficiency>  (94) 
-0.378313

>  <r_i_glide_ligand_efficiency_sa>  (94) 
-0.815052

>  <r_i_glide_ligand_efficiency_ln>  (94) 
-1.14551

>  <r_i_glide_gscore>  (94) 
-3.78313

>  <r_i_glide_lipo>  (94) 
-0.714989

>  <r_i_glide_hbond>  (94) 
0

>  <r_i_glide_metal>  (94) 
-0

>  <r_i_glide_rewards>  (94) 
-2.25

>  <r_i_glide_evdw>  (94) 
-15.6849

>  <r_i_glide_ecoul>  (94) 
-0.0639697

>  <r_i_glide_erotb>  (94) 
0

>  <r_i_glide_esite>  (94) 
-0.0243045

>  <r_i_glide_emodel>  (94) 
-18.4599

>  <r_i_glide_energy>  (94) 
-15.7489

>  <r_i_glide_einternal>  (94) 
0.268887

>  <r_i_glide_intrahb_reward>  (94) 
-0

>  <i_i_glide_confnum>  (94) 
1

>  <i_i_glide_posenum>  (94) 
2

>  <r_i_glide_eff_state_penalty>  (94) 
0

>  <ligand_id>  (94) 
33

>  <original_smiles>  (94) 
COC12OC(C)C1C2(C)C

>  <smiles>  (94) 
[H]C([H])([H])OC12OC([H])(C([H])([H])[H])C1([H])C2(C([H])([H])[H])C([H])([H])[H]

$$$$
33:0:2
     RDKit          3D

 24 25  0  0  1  0  0  0  0  0999 V2000
    4.2219   -4.1779   -3.9228 C   0  0  0  0  0  0  0  0  0  0  0  0
    4.5949   -3.8525   -2.6028 O   0  0  0  0  0  0  0  0  0  0  0  0
    4.4442   -2.4858   -2.2073 C   0  0  2  0  0  0  0  0  0  0  0  0
    5.0068   -1.4563   -3.0281 O   0  0  0  0  0  0  0  0  0  0  0  0
    3.7656   -0.7070   -3.2014 C   0  0  1  0  0  0  0  0  0  0  0  0
    3.3836   -0.6774   -4.6681 C   0  0  0  0  0  0  0  0  0  0  0  0
    3.1381   -1.7799   -2.3447 C   0  0  2  0  0  0  0  0  0  0  0  0
    3.6670   -2.1272   -0.9606 C   0  0  0  0  0  0  0  0  0  0  0  0
    2.9721   -3.2088   -0.1577 C   0  0  0  0  0  0  0  0  0  0  0  0
    4.1990   -1.0429   -0.0472 C   0  0  0  0  0  0  0  0  0  0  0  0
    4.5956   -5.1691   -4.1371 H   0  0  0  0  0  0  0  0  0  0  0  0
    4.6980   -3.5424   -4.6486 H   0  0  0  0  0  0  0  0  0  0  0  0
    3.1505   -4.1668   -4.0892 H   0  0  0  0  0  0  0  0  0  0  0  0
    3.7875    0.2616   -2.7293 H   0  0  0  0  0  0  0  0  0  0  0  0
    2.4140   -0.2155   -4.8872 H   0  0  0  0  0  0  0  0  0  0  0  0
    3.3810   -1.6759   -5.0896 H   0  0  0  0  0  0  0  0  0  0  0  0
    4.1385   -0.1095   -5.2086 H   0  0  0  0  0  0  0  0  0  0  0  0
    2.2491   -2.3003   -2.7063 H   0  0  0  0  0  0  0  0  0  0  0  0
    2.1481   -2.8263    0.4352 H   0  0  0  0  0  0  0  0  0  0  0  0
    3.6811   -3.6737    0.5093 H   0  0  0  0  0  0  0  0  0  0  0  0
    2.5845   -3.9782   -0.8158 H   0  0  0  0  0  0  0  0  0  0  0  0
    3.3984   -0.5204    0.4856 H   0  0  0  0  0  0  0  0  0  0  0  0
    4.7516   -0.3207   -0.6459 H   0  0  0  0  0  0  0  0  0  0  0  0
    4.8832   -1.4879    0.6652 H   0  0  0  0  0  0  0  0  0  0  0  0
  1  2  1  0
  1 11  1  0
  1 12  1  0
  1 13  1  0
  3  2  1  6
  3  7  1  0
  3  8  1  0
  3  4  1  0
  4  5  1  0
  5  6  1  0
  5  7  1  0
  5 14  1  1
  6 15  1  0
  6 16  1  0
  6 17  1  0
  7  8  1  0
  7 18  1  6
  8  9  1  0
  8 10  1  0
  9 19  1  0
  9 20  1  0
  9 21  1  0
 10 22  1  0
 10 23  1  0
 10 24  1  0
M  END
>  <i_m_ct_stereo_status>  (95) 
1

>  <s_m_source_file>  (95) 
/var/tmp/pbs.5076255.sched01/tmpcm5es6vs/0d3z1so5d.sdf

>  <i_m_source_file_index>  (95) 
40

>  <i_lp_mmshare_version>  (95) 
48012

>  <i_f3d_flags>  (95) 
2

>  <s_epik_input>  (95) 
W0NIM11PQzEyW0NAQEhdKFtDQEBIXShPMSlbQ0gzXSlDMihbQ0gzXSlbQ0gzXQ==

>  <s_epik_cmdline>  (95) 
J2VwaWtfcHl0aG9uJywgJy1waHQnLCAnMi4wJywgJy1waCcsICc3LjAnLCAnLXRuJywgJzgnLCAnLW1hJywgJzIwMCcsICctaW1hZScsICc8aW5maWxlLm1hZT4nLCAnLW9tYWUnLCAnPG91dGZpbGUubWFlPic=

>  <r_lp_tautomer_probability>  (95) 
1

>  <r_epik_Ionization_Penalty>  (95) 
3.01571e-12

>  <r_epik_Ionization_Penalty_Charging>  (95) 
0

>  <r_epik_Ionization_Penalty_Neutral>  (95) 
3.01571e-12

>  <r_epik_State_Penalty>  (95) 
-0

>  <r_epik_Charging_Adjusted_Penalty>  (95) 
0

>  <i_epik_Tot_Q>  (95) 
0

>  <i_epik_Tot_abs_Q>  (95) 
0

>  <s_lp_Force_Field>  (95) 
OPLS3e

>  <r_lp_Energy>  (95) 
6.28676

>  <b_lp_Chiralities_Consistent>  (95) 
0

>  <s_lp_Variant>  (95) 
33:0-1

>  <s_i_glide_gridfile>  (95) 
pfpi4k_grid

>  <i_i_glide_lignum>  (95) 
40

>  <i_i_glide_rotatable_bonds>  (95) 
1

>  <r_i_docking_score>  (95) 
-3.31169

>  <r_i_glide_ligand_efficiency>  (95) 
-0.331169

>  <r_i_glide_ligand_efficiency_sa>  (95) 
-0.713482

>  <r_i_glide_ligand_efficiency_ln>  (95) 
-1.00276

>  <r_i_glide_gscore>  (95) 
-3.31169

>  <r_i_glide_lipo>  (95) 
-0.314425

>  <r_i_glide_hbond>  (95) 
0

>  <r_i_glide_metal>  (95) 
-0

>  <r_i_glide_rewards>  (95) 
-2.30469

>  <r_i_glide_evdw>  (95) 
-13.9472

>  <r_i_glide_ecoul>  (95) 
0.03191

>  <r_i_glide_erotb>  (95) 
0

>  <r_i_glide_esite>  (95) 
0

>  <r_i_glide_emodel>  (95) 
-16.9667

>  <r_i_glide_energy>  (95) 
-13.9153

>  <r_i_glide_einternal>  (95) 
0.197809

>  <r_i_glide_intrahb_reward>  (95) 
-0

>  <i_i_glide_confnum>  (95) 
1

>  <i_i_glide_posenum>  (95) 
8

>  <r_i_glide_eff_state_penalty>  (95) 
0

>  <ligand_id>  (95) 
33

>  <original_smiles>  (95) 
COC12OC(C)C1C2(C)C

>  <smiles>  (95) 
[H]C([H])([H])OC12OC([H])(C([H])([H])[H])C1([H])C2(C([H])([H])[H])C([H])([H])[H]

$$$$
33:1:0
     RDKit          3D

 24 25  0  0  1  0  0  0  0  0999 V2000
   -8.4491   -5.3630   -8.3681 C   0  0  0  0  0  0  0  0  0  0  0  0
   -8.4103   -6.3237   -7.3388 O   0  0  0  0  0  0  0  0  0  0  0  0
   -7.1608   -6.1899   -6.6764 C   0  0  1  0  0  0  0  0  0  0  0  0
   -6.1279   -7.1271   -6.9686 O   0  0  0  0  0  0  0  0  0  0  0  0
   -6.1095   -7.7935   -5.6567 C   0  0  1  0  0  0  0  0  0  0  0  0
   -4.8231   -7.6762   -4.8488 C   0  0  0  0  0  0  0  0  0  0  0  0
   -7.1245   -6.7544   -5.2810 C   0  0  1  0  0  0  0  0  0  0  0  0
   -7.1619   -5.2386   -5.5037 C   0  0  0  0  0  0  0  0  0  0  0  0
   -5.9360   -4.3969   -5.2694 C   0  0  0  0  0  0  0  0  0  0  0  0
   -8.4148   -4.5054   -5.0758 C   0  0  0  0  0  0  0  0  0  0  0  0
   -9.2772   -5.4999   -9.0730 H   0  0  0  0  0  0  0  0  0  0  0  0
   -7.5160   -5.4093   -8.9342 H   0  0  0  0  0  0  0  0  0  0  0  0
   -8.5345   -4.3713   -7.9139 H   0  0  0  0  0  0  0  0  0  0  0  0
   -6.5282   -8.8177   -5.6143 H   0  0  0  0  0  0  0  0  0  0  0  0
   -4.8629   -8.2627   -3.9277 H   0  0  0  0  0  0  0  0  0  0  0  0
   -4.6187   -6.6587   -4.5293 H   0  0  0  0  0  0  0  0  0  0  0  0
   -3.9675   -8.0344   -5.4064 H   0  0  0  0  0  0  0  0  0  0  0  0
   -7.9495   -7.0423   -4.6543 H   0  0  0  0  0  0  0  0  0  0  0  0
   -5.7390   -4.2719   -4.1994 H   0  0  0  0  0  0  0  0  0  0  0  0
   -6.1298   -3.4761   -5.7446 H   0  0  0  0  0  0  0  0  0  0  0  0
   -5.1415   -4.8932   -5.7684 H   0  0  0  0  0  0  0  0  0  0  0  0
   -8.4418   -4.2148   -4.0185 H   0  0  0  0  0  0  0  0  0  0  0  0
   -9.3162   -5.1033   -5.2444 H   0  0  0  0  0  0  0  0  0  0  0  0
   -8.5611   -3.5933   -5.6532 H   0  0  0  0  0  0  0  0  0  0  0  0
  1  2  1  0
  1 11  1  0
  1 12  1  0
  1 13  1  0
  3  2  1  6
  3  7  1  0
  3  8  1  0
  3  4  1  0
  4  5  1  0
  5  6  1  0
  5  7  1  0
  5 14  1  6
  6 15  1  0
  6 16  1  0
  6 17  1  0
  7  8  1  0
  7 18  1  1
  8  9  1  0
  8 10  1  0
  9 19  1  0
  9 20  1  0
  9 21  1  0
 10 22  1  0
 10 23  1  0
 10 24  1  0
M  END
>  <i_m_ct_stereo_status>  (96) 
1

>  <s_m_source_file>  (96) 
/var/tmp/pbs.5076255.sched01/tmpcm5es6vs/0d3z1so5d.sdf

>  <i_m_source_file_index>  (96) 
41

>  <i_lp_mmshare_version>  (96) 
48012

>  <i_f3d_flags>  (96) 
0

>  <s_epik_input>  (96) 
W0NIM11PQzEyW0NAQEhdKFtDQEBIXShPMSlbQ0gzXSlDMihbQ0gzXSlbQ0gzXQ==

>  <s_epik_cmdline>  (96) 
J2VwaWtfcHl0aG9uJywgJy1waHQnLCAnMi4wJywgJy1waCcsICc3LjAnLCAnLXRuJywgJzgnLCAnLW1hJywgJzIwMCcsICctaW1hZScsICc8aW5maWxlLm1hZT4nLCAnLW9tYWUnLCAnPG91dGZpbGUubWFlPic=

>  <r_lp_tautomer_probability>  (96) 
1

>  <r_epik_Ionization_Penalty>  (96) 
3.01571e-12

>  <r_epik_Ionization_Penalty_Charging>  (96) 
0

>  <r_epik_Ionization_Penalty_Neutral>  (96) 
3.01571e-12

>  <r_epik_State_Penalty>  (96) 
-0

>  <r_epik_Charging_Adjusted_Penalty>  (96) 
0

>  <i_epik_Tot_Q>  (96) 
0

>  <i_epik_Tot_abs_Q>  (96) 
0

>  <s_lp_Force_Field>  (96) 
OPLS3e

>  <r_lp_Energy>  (96) 
7.60088

>  <b_lp_Chiralities_Consistent>  (96) 
1

>  <s_lp_Variant>  (96) 
33:0-2

>  <s_i_glide_gridfile>  (96) 
pfpi4k_grid

>  <i_i_glide_lignum>  (96) 
41

>  <i_i_glide_rotatable_bonds>  (96) 
1

>  <r_i_docking_score>  (96) 
-5.19615

>  <r_i_glide_ligand_efficiency>  (96) 
-0.519615

>  <r_i_glide_ligand_efficiency_sa>  (96) 
-1.11948

>  <r_i_glide_ligand_efficiency_ln>  (96) 
-1.57336

>  <r_i_glide_gscore>  (96) 
-5.19615

>  <r_i_glide_lipo>  (96) 
-1.92718

>  <r_i_glide_hbond>  (96) 
0

>  <r_i_glide_metal>  (96) 
-0

>  <r_i_glide_rewards>  (96) 
-2.92276

>  <r_i_glide_evdw>  (96) 
-7.84621

>  <r_i_glide_ecoul>  (96) 
0.307364

>  <r_i_glide_erotb>  (96) 
0

>  <r_i_glide_esite>  (96) 
0

>  <r_i_glide_emodel>  (96) 
-11.1273

>  <r_i_glide_energy>  (96) 
-7.53884

>  <r_i_glide_einternal>  (96) 
0.574686

>  <r_i_glide_intrahb_reward>  (96) 
-0

>  <i_i_glide_confnum>  (96) 
2

>  <i_i_glide_posenum>  (96) 
28

>  <r_i_glide_eff_state_penalty>  (96) 
0

>  <ligand_id>  (96) 
33

>  <original_smiles>  (96) 
COC12OC(C)C1C2(C)C

>  <smiles>  (96) 
[H]C([H])([H])OC12OC([H])(C([H])([H])[H])C1([H])C2(C([H])([H])[H])C([H])([H])[H]

$$$$
33:1:1
     RDKit          3D

 24 25  0  0  1  0  0  0  0  0999 V2000
    6.2486   -3.5728   -2.6219 C   0  0  0  0  0  0  0  0  0  0  0  0
    5.8717   -2.2402   -2.3324 O   0  0  0  0  0  0  0  0  0  0  0  0
    4.6148   -2.0549   -2.9439 C   0  0  1  0  0  0  0  0  0  0  0  0
    4.5515   -1.7457   -4.2964 O   0  0  0  0  0  0  0  0  0  0  0  0
    3.9283   -0.4357   -4.1956 C   0  0  1  0  0  0  0  0  0  0  0  0
    2.6181   -0.2343   -4.9391 C   0  0  0  0  0  0  0  0  0  0  0  0
    3.8599   -0.7660   -2.7430 C   0  0  1  0  0  0  0  0  0  0  0  0
    3.3849   -2.0925   -2.1132 C   0  0  0  0  0  0  0  0  0  0  0  0
    2.2639   -2.8772   -2.7364 C   0  0  0  0  0  0  0  0  0  0  0  0
    3.5044   -2.2776   -0.6389 C   0  0  0  0  0  0  0  0  0  0  0  0
    7.2569   -3.8028   -2.2764 H   0  0  0  0  0  0  0  0  0  0  0  0
    6.2259   -3.7806   -3.6900 H   0  0  0  0  0  0  0  0  0  0  0  0
    5.5571   -4.2630   -2.1375 H   0  0  0  0  0  0  0  0  0  0  0  0
    4.5968    0.3579   -4.4665 H   0  0  0  0  0  0  0  0  0  0  0  0
    2.2542    0.7814   -4.7871 H   0  0  0  0  0  0  0  0  0  0  0  0
    1.8228   -0.9296   -4.6877 H   0  0  0  0  0  0  0  0  0  0  0  0
    2.8064   -0.3048   -6.0057 H   0  0  0  0  0  0  0  0  0  0  0  0
    4.1386    0.0010   -2.0396 H   0  0  0  0  0  0  0  0  0  0  0  0
    1.3417   -2.3684   -2.4960 H   0  0  0  0  0  0  0  0  0  0  0  0
    2.2460   -3.8879   -2.3230 H   0  0  0  0  0  0  0  0  0  0  0  0
    2.3717   -2.9409   -3.8060 H   0  0  0  0  0  0  0  0  0  0  0  0
    2.6113   -1.9008   -0.1174 H   0  0  0  0  0  0  0  0  0  0  0  0
    4.3569   -1.7345   -0.2190 H   0  0  0  0  0  0  0  0  0  0  0  0
    3.6272   -3.3334   -0.3814 H   0  0  0  0  0  0  0  0  0  0  0  0
  1  2  1  0
  1 11  1  0
  1 12  1  0
  1 13  1  0
  3  2  1  1
  3  7  1  0
  3  8  1  0
  3  4  1  0
  4  5  1  0
  5  6  1  0
  5  7  1  0
  5 14  1  1
  6 15  1  0
  6 16  1  0
  6 17  1  0
  7  8  1  0
  7 18  1  1
  8  9  1  0
  8 10  1  0
  9 19  1  0
  9 20  1  0
  9 21  1  0
 10 22  1  0
 10 23  1  0
 10 24  1  0
M  END
>  <i_m_ct_stereo_status>  (97) 
1

>  <s_m_source_file>  (97) 
/var/tmp/pbs.5076255.sched01/tmpcm5es6vs/0d3z1so5d.sdf

>  <i_m_source_file_index>  (97) 
41

>  <i_lp_mmshare_version>  (97) 
48012

>  <i_f3d_flags>  (97) 
0

>  <s_epik_input>  (97) 
W0NIM11PQzEyW0NAQEhdKFtDQEBIXShPMSlbQ0gzXSlDMihbQ0gzXSlbQ0gzXQ==

>  <s_epik_cmdline>  (97) 
J2VwaWtfcHl0aG9uJywgJy1waHQnLCAnMi4wJywgJy1waCcsICc3LjAnLCAnLXRuJywgJzgnLCAnLW1hJywgJzIwMCcsICctaW1hZScsICc8aW5maWxlLm1hZT4nLCAnLW9tYWUnLCAnPG91dGZpbGUubWFlPic=

>  <r_lp_tautomer_probability>  (97) 
1

>  <r_epik_Ionization_Penalty>  (97) 
3.01571e-12

>  <r_epik_Ionization_Penalty_Charging>  (97) 
0

>  <r_epik_Ionization_Penalty_Neutral>  (97) 
3.01571e-12

>  <r_epik_State_Penalty>  (97) 
-0

>  <r_epik_Charging_Adjusted_Penalty>  (97) 
0

>  <i_epik_Tot_Q>  (97) 
0

>  <i_epik_Tot_abs_Q>  (97) 
0

>  <s_lp_Force_Field>  (97) 
OPLS3e

>  <r_lp_Energy>  (97) 
7.60088

>  <b_lp_Chiralities_Consistent>  (97) 
1

>  <s_lp_Variant>  (97) 
33:0-2

>  <s_i_glide_gridfile>  (97) 
pfpi4k_grid

>  <i_i_glide_lignum>  (97) 
41

>  <i_i_glide_rotatable_bonds>  (97) 
1

>  <r_i_docking_score>  (97) 
-4.42495

>  <r_i_glide_ligand_efficiency>  (97) 
-0.442495

>  <r_i_glide_ligand_efficiency_sa>  (97) 
-0.953327

>  <r_i_glide_ligand_efficiency_ln>  (97) 
-1.33984

>  <r_i_glide_gscore>  (97) 
-4.42495

>  <r_i_glide_lipo>  (97) 
-0.655392

>  <r_i_glide_hbond>  (97) 
-0.32

>  <r_i_glide_metal>  (97) 
-0

>  <r_i_glide_rewards>  (97) 
-2.34114

>  <r_i_glide_evdw>  (97) 
-9.40175

>  <r_i_glide_ecoul>  (97) 
-4.25556

>  <r_i_glide_erotb>  (97) 
0

>  <r_i_glide_esite>  (97) 
0

>  <r_i_glide_emodel>  (97) 
-16.7868

>  <r_i_glide_energy>  (97) 
-13.6573

>  <r_i_glide_einternal>  (97) 
0.0252078

>  <r_i_glide_intrahb_reward>  (97) 
-0

>  <i_i_glide_confnum>  (97) 
2

>  <i_i_glide_posenum>  (97) 
38

>  <r_i_glide_eff_state_penalty>  (97) 
0

>  <ligand_id>  (97) 
33

>  <original_smiles>  (97) 
COC12OC(C)C1C2(C)C

>  <smiles>  (97) 
[H]C([H])([H])OC12OC([H])(C([H])([H])[H])C1([H])C2(C([H])([H])[H])C([H])([H])[H]

$$$$
33:1:2
     RDKit          3D

 24 25  0  0  1  0  0  0  0  0999 V2000
    6.2860   -3.1930   -2.2978 C   0  0  0  0  0  0  0  0  0  0  0  0
    5.5237   -2.0482   -1.9441 O   0  0  0  0  0  0  0  0  0  0  0  0
    4.4672   -1.9245   -2.8566 C   0  0  1  0  0  0  0  0  0  0  0  0
    4.6208   -1.0808   -4.0164 O   0  0  0  0  0  0  0  0  0  0  0  0
    3.6536   -0.0844   -3.5900 C   0  0  1  0  0  0  0  0  0  0  0  0
    2.5746    0.1445   -4.6452 C   0  0  0  0  0  0  0  0  0  0  0  0
    3.3028   -1.0472   -2.4775 C   0  0  1  0  0  0  0  0  0  0  0  0
    3.1492   -2.5549   -2.6074 C   0  0  0  0  0  0  0  0  0  0  0  0
    2.5149   -3.2082   -3.7998 C   0  0  0  0  0  0  0  0  0  0  0  0
    2.9134   -3.3551   -1.3140 C   0  0  0  0  0  0  0  0  0  0  0  0
    7.1777   -3.3359   -1.6830 H   0  0  0  0  0  0  0  0  0  0  0  0
    6.5980   -3.1268   -3.3395 H   0  0  0  0  0  0  0  0  0  0  0  0
    5.6611   -4.0793   -2.1943 H   0  0  0  0  0  0  0  0  0  0  0  0
    4.1157    0.8428   -3.2294 H   0  0  0  0  0  0  0  0  0  0  0  0
    1.8610    0.9157   -4.3489 H   0  0  0  0  0  0  0  0  0  0  0  0
    1.9896   -0.7443   -4.8407 H   0  0  0  0  0  0  0  0  0  0  0  0
    3.0163    0.4582   -5.5886 H   0  0  0  0  0  0  0  0  0  0  0  0
    3.1062   -0.6558   -1.4870 H   0  0  0  0  0  0  0  0  0  0  0  0
    1.4297   -3.0774   -3.7983 H   0  0  0  0  0  0  0  0  0  0  0  0
    2.7933   -4.2560   -3.8293 H   0  0  0  0  0  0  0  0  0  0  0  0
    2.9440   -2.7705   -4.6991 H   0  0  0  0  0  0  0  0  0  0  0  0
    1.8518   -3.4743   -1.0927 H   0  0  0  0  0  0  0  0  0  0  0  0
    3.3896   -2.8745   -0.4625 H   0  0  0  0  0  0  0  0  0  0  0  0
    3.3697   -4.3308   -1.3970 H   0  0  0  0  0  0  0  0  0  0  0  0
  1  2  1  0
  1 11  1  0
  1 12  1  0
  1 13  1  0
  3  2  1  1
  3  7  1  0
  3  8  1  0
  3  4  1  0
  4  5  1  0
  5  6  1  0
  5  7  1  0
  5 14  1  1
  6 15  1  0
  6 16  1  0
  6 17  1  0
  7  8  1  0
  7 18  1  1
  8  9  1  0
  8 10  1  0
  9 19  1  0
  9 20  1  0
  9 21  1  0
 10 22  1  0
 10 23  1  0
 10 24  1  0
M  END
>  <i_m_ct_stereo_status>  (98) 
1

>  <s_m_source_file>  (98) 
/var/tmp/pbs.5076255.sched01/tmpcm5es6vs/0d3z1so5d.sdf

>  <i_m_source_file_index>  (98) 
41

>  <i_lp_mmshare_version>  (98) 
48012

>  <i_f3d_flags>  (98) 
0

>  <s_epik_input>  (98) 
W0NIM11PQzEyW0NAQEhdKFtDQEBIXShPMSlbQ0gzXSlDMihbQ0gzXSlbQ0gzXQ==

>  <s_epik_cmdline>  (98) 
J2VwaWtfcHl0aG9uJywgJy1waHQnLCAnMi4wJywgJy1waCcsICc3LjAnLCAnLXRuJywgJzgnLCAnLW1hJywgJzIwMCcsICctaW1hZScsICc8aW5maWxlLm1hZT4nLCAnLW9tYWUnLCAnPG91dGZpbGUubWFlPic=

>  <r_lp_tautomer_probability>  (98) 
1

>  <r_epik_Ionization_Penalty>  (98) 
3.01571e-12

>  <r_epik_Ionization_Penalty_Charging>  (98) 
0

>  <r_epik_Ionization_Penalty_Neutral>  (98) 
3.01571e-12

>  <r_epik_State_Penalty>  (98) 
-0

>  <r_epik_Charging_Adjusted_Penalty>  (98) 
0

>  <i_epik_Tot_Q>  (98) 
0

>  <i_epik_Tot_abs_Q>  (98) 
0

>  <s_lp_Force_Field>  (98) 
OPLS3e

>  <r_lp_Energy>  (98) 
7.60088

>  <b_lp_Chiralities_Consistent>  (98) 
1

>  <s_lp_Variant>  (98) 
33:0-2

>  <s_i_glide_gridfile>  (98) 
pfpi4k_grid

>  <i_i_glide_lignum>  (98) 
41

>  <i_i_glide_rotatable_bonds>  (98) 
1

>  <r_i_docking_score>  (98) 
-4.09592

>  <r_i_glide_ligand_efficiency>  (98) 
-0.409592

>  <r_i_glide_ligand_efficiency_sa>  (98) 
-0.882439

>  <r_i_glide_ligand_efficiency_ln>  (98) 
-1.24022

>  <r_i_glide_gscore>  (98) 
-4.09592

>  <r_i_glide_lipo>  (98) 
-0.555622

>  <r_i_glide_hbond>  (98) 
0

>  <r_i_glide_metal>  (98) 
-0

>  <r_i_glide_rewards>  (98) 
-2.31059

>  <r_i_glide_evdw>  (98) 
-14.3354

>  <r_i_glide_ecoul>  (98) 
-3.41962

>  <r_i_glide_erotb>  (98) 
0

>  <r_i_glide_esite>  (98) 
0

>  <r_i_glide_emodel>  (98) 
-21.1836

>  <r_i_glide_energy>  (98) 
-17.755

>  <r_i_glide_einternal>  (98) 
0.177775

>  <r_i_glide_intrahb_reward>  (98) 
-0

>  <i_i_glide_confnum>  (98) 
2

>  <i_i_glide_posenum>  (98) 
23

>  <r_i_glide_eff_state_penalty>  (98) 
0

>  <ligand_id>  (98) 
33

>  <original_smiles>  (98) 
COC12OC(C)C1C2(C)C

>  <smiles>  (98) 
[H]C([H])([H])OC12OC([H])(C([H])([H])[H])C1([H])C2(C([H])([H])[H])C([H])([H])[H]

$$$$
34:0:0
     RDKit          3D

 76 80  0  0  1  0  0  0  0  0999 V2000
    0.8438    5.7893    4.1966 C   0  0  0  0  0  0  0  0  0  0  0  0
    0.0294    4.6174    4.0931 O   0  0  0  0  0  0  0  0  0  0  0  0
    0.6391    3.3530    4.3919 C   0  0  1  0  0  0  0  0  0  0  0  0
    0.7708    3.2409    5.9270 C   0  0  0  0  0  0  0  0  0  0  0  0
   -0.3271    2.2728    3.8440 C   0  0  0  0  0  0  0  0  0  0  0  0
    0.2555    0.8359    3.9167 C   0  0  0  0  0  0  0  0  0  0  0  0
    1.6631    0.6645    3.2620 C   0  0  1  0  0  0  0  0  0  0  0  0
    1.5047    0.8588    1.7285 C   0  0  0  0  0  0  0  0  0  0  0  0
    2.5536    1.7847    3.8082 C   0  0  0  0  0  0  0  0  0  0  0  0
    3.7247    1.5641    4.4325 C   0  0  0  0  0  0  0  0  0  0  0  0
    4.3308    0.2079    4.6725 C   0  0  0  0  0  0  0  0  0  0  0  0
    3.7947   -0.8986    3.7374 C   0  0  2  0  0  0  0  0  0  0  0  0
    4.1447   -2.2407    4.4376 C   0  0  0  0  0  0  0  0  0  0  0  0
    4.4443   -0.8489    2.3010 C   0  0  1  0  0  0  0  0  0  0  0  0
    5.9582   -1.2069    2.2794 C   0  0  0  0  0  0  0  0  0  0  0  0
    6.5513   -1.3062    0.8632 C   0  0  0  0  0  0  0  0  0  0  0  0
    5.7740   -2.2875   -0.0451 C   0  0  2  0  0  0  0  0  0  0  0  0
    5.8378   -3.7236    0.5283 C   0  0  0  0  0  0  0  0  0  0  0  0
    6.4192   -2.2840   -1.4551 C   0  0  0  0  0  0  0  0  0  0  0  0
    5.5771   -2.9491   -2.5573 C   0  0  0  0  0  0  0  0  0  0  0  0
    4.1551   -2.3634   -2.6428 C   0  0  0  0  0  0  0  0  0  0  0  0
    4.1610   -0.8937   -3.1440 C   0  0  0  0  0  0  0  0  0  0  0  0
    3.3296   -3.1818   -3.6547 C   0  0  0  0  0  0  0  0  0  0  0  0
    3.5195   -2.4891   -1.2380 C   0  0  0  0  0  0  0  0  0  0  0  0
    4.3216   -1.7565   -0.1309 C   0  0  1  0  0  0  0  0  0  0  0  0
    3.6588   -1.6634    1.2562 C   0  0  0  0  0  0  0  0  0  0  0  0
    2.4397   -2.1754    1.5280 C   0  0  0  0  0  0  0  0  0  0  0  0
    1.6671   -1.9399    2.8140 C   0  0  0  0  0  0  0  0  0  0  0  0
    2.2401   -0.7670    3.6435 C   0  0  2  0  0  0  0  0  0  0  0  0
    2.0052    3.1993    3.6856 C   0  0  0  0  0  0  0  0  0  0  0  0
    0.2434    6.6841    4.0263 H   0  0  0  0  0  0  0  0  0  0  0  0
    1.6346    5.7961    3.4447 H   0  0  0  0  0  0  0  0  0  0  0  0
    1.3043    5.8948    5.1795 H   0  0  0  0  0  0  0  0  0  0  0  0
    1.2028    2.2894    6.2309 H   0  0  0  0  0  0  0  0  0  0  0  0
   -0.1991    3.3281    6.4132 H   0  0  0  0  0  0  0  0  0  0  0  0
    1.4164    4.0119    6.3403 H   0  0  0  0  0  0  0  0  0  0  0  0
   -1.2734    2.2994    4.3879 H   0  0  0  0  0  0  0  0  0  0  0  0
   -0.5848    2.5130    2.8114 H   0  0  0  0  0  0  0  0  0  0  0  0
    0.3056    0.5517    4.9693 H   0  0  0  0  0  0  0  0  0  0  0  0
   -0.4506    0.1392    3.4640 H   0  0  0  0  0  0  0  0  0  0  0  0
    0.8591    0.1064    1.2812 H   0  0  0  0  0  0  0  0  0  0  0  0
    2.4565    0.8310    1.2098 H   0  0  0  0  0  0  0  0  0  0  0  0
    1.0520    1.8117    1.4669 H   0  0  0  0  0  0  0  0  0  0  0  0
    4.2779    2.4014    4.8276 H   0  0  0  0  0  0  0  0  0  0  0  0
    5.4136    0.2948    4.6146 H   0  0  0  0  0  0  0  0  0  0  0  0
    4.0974   -0.0329    5.7112 H   0  0  0  0  0  0  0  0  0  0  0  0
    4.0008   -3.1020    3.7822 H   0  0  0  0  0  0  0  0  0  0  0  0
    3.5345   -2.4060    5.3277 H   0  0  0  0  0  0  0  0  0  0  0  0
    5.1827   -2.2673    4.7731 H   0  0  0  0  0  0  0  0  0  0  0  0
    4.3854    0.1828    1.9550 H   0  0  0  0  0  0  0  0  0  0  0  0
    6.5221   -0.4649    2.8435 H   0  0  0  0  0  0  0  0  0  0  0  0
    6.1374   -2.1593    2.7738 H   0  0  0  0  0  0  0  0  0  0  0  0
    6.5378   -0.3075    0.4238 H   0  0  0  0  0  0  0  0  0  0  0  0
    7.6014   -1.5961    0.9154 H   0  0  0  0  0  0  0  0  0  0  0  0
    5.3783   -4.4519   -0.1409 H   0  0  0  0  0  0  0  0  0  0  0  0
    5.3175   -3.8118    1.4831 H   0  0  0  0  0  0  0  0  0  0  0  0
    6.8718   -4.0337    0.6864 H   0  0  0  0  0  0  0  0  0  0  0  0
    6.5720   -1.2591   -1.7537 H   0  0  0  0  0  0  0  0  0  0  0  0
    7.4076   -2.7466   -1.4206 H   0  0  0  0  0  0  0  0  0  0  0  0
    6.0829   -2.8526   -3.5168 H   0  0  0  0  0  0  0  0  0  0  0  0
    5.5173   -4.0180   -2.3656 H   0  0  0  0  0  0  0  0  0  0  0  0
    3.1520   -0.4714   -3.1450 H   0  0  0  0  0  0  0  0  0  0  0  0
    4.5455   -0.8220   -4.1648 H   0  0  0  0  0  0  0  0  0  0  0  0
    4.7735   -0.2331   -2.5296 H   0  0  0  0  0  0  0  0  0  0  0  0
    2.2968   -2.8294   -3.7132 H   0  0  0  0  0  0  0  0  0  0  0  0
    3.3019   -4.2319   -3.3769 H   0  0  0  0  0  0  0  0  0  0  0  0
    3.7557   -3.1410   -4.6581 H   0  0  0  0  0  0  0  0  0  0  0  0
    2.5130   -2.1032   -1.3059 H   0  0  0  0  0  0  0  0  0  0  0  0
    3.4149   -3.5424   -0.9739 H   0  0  0  0  0  0  0  0  0  0  0  0
    4.3668   -0.7082   -0.4261 H   0  0  0  0  0  0  0  0  0  0  0  0
    1.9036   -2.7322    0.7814 H   0  0  0  0  0  0  0  0  0  0  0  0
    0.6185   -1.7645    2.5752 H   0  0  0  0  0  0  0  0  0  0  0  0
    1.6941   -2.8653    3.3877 H   0  0  0  0  0  0  0  0  0  0  0  0
    1.8916   -0.9399    4.6627 H   0  0  0  0  0  0  0  0  0  0  0  0
    1.9021    3.4650    2.6325 H   0  0  0  0  0  0  0  0  0  0  0  0
    2.7373    3.8873    4.1072 H   0  0  0  0  0  0  0  0  0  0  0  0
  1  2  1  0
  1 31  1  0
  1 32  1  0
  1 33  1  0
  3  2  1  1
  3 30  1  0
  3  4  1  0
  3  5  1  0
  4 34  1  0
  4 35  1  0
  4 36  1  0
  5  6  1  0
  5 37  1  0
  5 38  1  0
  6  7  1  0
  6 39  1  0
  6 40  1  0
  7 29  1  0
  7  8  1  6
  7  9  1  0
  8 41  1  0
  8 42  1  0
  8 43  1  0
  9 10  2  0
  9 30  1  0
 10 11  1  0
 10 44  1  0
 11 12  1  0
 11 45  1  0
 11 46  1  0
 12 29  1  0
 12 13  1  1
 12 14  1  0
 13 47  1  0
 13 48  1  0
 13 49  1  0
 14 26  1  0
 14 15  1  0
 14 50  1  6
 15 16  1  0
 15 51  1  0
 15 52  1  0
 16 17  1  0
 16 53  1  0
 16 54  1  0
 17 25  1  0
 17 18  1  1
 17 19  1  0
 18 55  1  0
 18 56  1  0
 18 57  1  0
 19 20  1  0
 19 58  1  0
 19 59  1  0
 20 21  1  0
 20 60  1  0
 20 61  1  0
 21 22  1  0
 21 23  1  0
 21 24  1  0
 22 62  1  0
 22 63  1  0
 22 64  1  0
 23 65  1  0
 23 66  1  0
 23 67  1  0
 24 25  1  0
 24 68  1  0
 24 69  1  0
 25 26  1  0
 25 70  1  6
 26 27  2  0
 27 28  1  0
 27 71  1  0
 28 29  1  0
 28 72  1  0
 28 73  1  0
 29 74  1  1
 30 75  1  0
 30 76  1  0
M  END
>  <i_m_ct_stereo_status>  (99) 
1

>  <s_m_source_file>  (99) 
/var/tmp/pbs.5076255.sched01/tmpnk13i6y_/41i0yhob8r.sdf

>  <i_m_source_file_index>  (99) 
1

>  <i_lp_mmshare_version>  (99) 
48012

>  <i_f3d_flags>  (99) 
0

>  <s_epik_input>  (99) 
W0NIM11PW0NAQF0oW0NIM10pKFtDSDJdW0NIMl0xKVtDSDJdQyhbQ0BdMTJbQ0gzXSk9W0NIXVtDSDJdW0NAXTMoW0NIM10pW0NAQEhdNEMoPVtDSF1bQ0gyXVtDQEhdMjMpW0NASF01W0NAXShbQ0gzXSkoW0NIMl1bQ0gyXTQpW0NIMl1bQ0gyXUMoW0NIM10pKFtDSDNdKVtDSDJdNQ==

>  <s_epik_cmdline>  (99) 
J2VwaWtfcHl0aG9uJywgJy1waHQnLCAnMi4wJywgJy1waCcsICc3LjAnLCAnLXRuJywgJzgnLCAnLW1hJywgJzIwMCcsICctaW1hZScsICc8aW5maWxlLm1hZT4nLCAnLW9tYWUnLCAnPG91dGZpbGUubWFlPic=

>  <r_lp_tautomer_probability>  (99) 
1

>  <r_epik_Ionization_Penalty>  (99) 
3.78534e-11

>  <r_epik_Ionization_Penalty_Charging>  (99) 
0

>  <r_epik_Ionization_Penalty_Neutral>  (99) 
3.78534e-11

>  <r_epik_State_Penalty>  (99) 
-0

>  <r_epik_Charging_Adjusted_Penalty>  (99) 
0

>  <i_epik_Tot_Q>  (99) 
0

>  <i_epik_Tot_abs_Q>  (99) 
0

>  <s_lp_Force_Field>  (99) 
OPLS3e

>  <r_lp_Energy>  (99) 
58.9025

>  <b_lp_Chiralities_Consistent>  (99) 
1

>  <s_lp_Variant>  (99) 
34:0-1

>  <s_i_glide_gridfile>  (99) 
pfpi4k_grid

>  <i_i_glide_lignum>  (99) 
1

>  <i_i_glide_rotatable_bonds>  (99) 
1

>  <r_i_docking_score>  (99) 
-2.98556

>  <r_i_glide_ligand_efficiency>  (99) 
-0.0995185

>  <r_i_glide_ligand_efficiency_sa>  (99) 
-0.309227

>  <r_i_glide_ligand_efficiency_ln>  (99) 
-0.678351

>  <r_i_glide_gscore>  (99) 
-2.98556

>  <r_i_glide_lipo>  (99) 
-0.975861

>  <r_i_glide_hbond>  (99) 
0

>  <r_i_glide_metal>  (99) 
-0

>  <r_i_glide_rewards>  (99) 
-0.609034

>  <r_i_glide_evdw>  (99) 
-26.2857

>  <r_i_glide_ecoul>  (99) 
-0.575848

>  <r_i_glide_erotb>  (99) 
0

>  <r_i_glide_esite>  (99) 
0

>  <r_i_glide_emodel>  (99) 
-30.6587

>  <r_i_glide_energy>  (99) 
-26.8615

>  <r_i_glide_einternal>  (99) 
1.51941

>  <r_i_glide_intrahb_reward>  (99) 
-0

>  <i_i_glide_confnum>  (99) 
2

>  <i_i_glide_posenum>  (99) 
32

>  <r_i_glide_eff_state_penalty>  (99) 
0

>  <ligand_id>  (99) 
34

>  <original_smiles>  (99) 
COC1(C)CCC2(C)C(=CCC3(C)C4CCC5(C)CCC(C)(C)CC5C4=CCC23)C1

>  <smiles>  (99) 
[H]C1=C2C3([H])C([H])([H])C(C([H])([H])[H])(C([H])([H])[H])C([H])([H])C([H])([H])C3(C([H])([H])[H])C([H])([H])C([H])([H])C2([H])C2(C([H])([H])[H])C([H])([H])C([H])=C3C([H])([H])C(OC([H])([H])[H])(C([H])([H])[H])C([H])([H])C([H])([H])C3(C([H])([H])[H])C2([H])C1([H])[H]

$$$$
34:0:1
     RDKit          3D

 76 80  0  0  1  0  0  0  0  0999 V2000
    0.0492    4.8197    3.4673 C   0  0  0  0  0  0  0  0  0  0  0  0
    0.3338    4.2257    4.7281 O   0  0  0  0  0  0  0  0  0  0  0  0
    0.8686    2.8969    4.7663 C   0  0  1  0  0  0  0  0  0  0  0  0
    1.0465    2.6872    6.2828 C   0  0  0  0  0  0  0  0  0  0  0  0
   -0.1311    1.8712    4.1764 C   0  0  0  0  0  0  0  0  0  0  0  0
    0.4245    0.4309    4.1548 C   0  0  0  0  0  0  0  0  0  0  0  0
    1.8125    0.2793    3.4623 C   0  0  1  0  0  0  0  0  0  0  0  0
    1.6423    0.5790    1.9458 C   0  0  0  0  0  0  0  0  0  0  0  0
    2.7495    1.3393    4.0657 C   0  0  0  0  0  0  0  0  0  0  0  0
    3.9233    1.0335    4.6418 C   0  0  0  0  0  0  0  0  0  0  0  0
    4.4775   -0.3631    4.7884 C   0  0  0  0  0  0  0  0  0  0  0  0
    3.8900   -1.3900    3.7930 C   0  0  2  0  0  0  0  0  0  0  0  0
    4.2024   -2.7894    4.3965 C   0  0  0  0  0  0  0  0  0  0  0  0
    4.5158   -1.2643    2.3540 C   0  0  1  0  0  0  0  0  0  0  0  0
    6.0115   -1.6696    2.2840 C   0  0  0  0  0  0  0  0  0  0  0  0
    6.5900   -1.6966    0.8605 C   0  0  0  0  0  0  0  0  0  0  0  0
    5.7666   -2.5813   -0.1021 C   0  0  2  0  0  0  0  0  0  0  0  0
    5.7888   -4.0575    0.3659 C   0  0  0  0  0  0  0  0  0  0  0  0
    6.3980   -2.4948   -1.5135 C   0  0  0  0  0  0  0  0  0  0  0  0
    5.5099   -3.0653   -2.6281 C   0  0  0  0  0  0  0  0  0  0  0  0
    4.1048   -2.4308   -2.6646 C   0  0  0  0  0  0  0  0  0  0  0  0
    4.1609   -0.9357   -3.0726 C   0  0  0  0  0  0  0  0  0  0  0  0
    3.2417   -3.1483   -3.7222 C   0  0  0  0  0  0  0  0  0  0  0  0
    3.4788   -2.6288   -1.2636 C   0  0  0  0  0  0  0  0  0  0  0  0
    4.3282   -2.0000   -0.1264 C   0  0  1  0  0  0  0  0  0  0  0  0
    3.6917   -1.9779    1.2690 C   0  0  0  0  0  0  0  0  0  0  0  0
    2.4583   -2.4613    1.5257 C   0  0  0  0  0  0  0  0  0  0  0  0
    1.7180   -2.2882    2.8381 C   0  0  0  0  0  0  0  0  0  0  0  0
    2.3439   -1.1949    3.7363 C   0  0  2  0  0  0  0  0  0  0  0  0
    2.2337    2.7794    4.0505 C   0  0  0  0  0  0  0  0  0  0  0  0
   -0.4116    5.7941    3.6359 H   0  0  0  0  0  0  0  0  0  0  0  0
   -0.6617    4.2449    2.8799 H   0  0  0  0  0  0  0  0  0  0  0  0
    0.9499    4.9896    2.8825 H   0  0  0  0  0  0  0  0  0  0  0  0
    1.4690    1.7125    6.5276 H   0  0  0  0  0  0  0  0  0  0  0  0
    0.0925    2.7766    6.8052 H   0  0  0  0  0  0  0  0  0  0  0  0
    1.7141    3.4424    6.7009 H   0  0  0  0  0  0  0  0  0  0  0  0
   -1.0631    1.9007    4.7423 H   0  0  0  0  0  0  0  0  0  0  0  0
   -0.4016    2.1334    3.1562 H   0  0  0  0  0  0  0  0  0  0  0  0
    0.4823    0.0812    5.1858 H   0  0  0  0  0  0  0  0  0  0  0  0
   -0.3057   -0.2156    3.6693 H   0  0  0  0  0  0  0  0  0  0  0  0
    0.9686   -0.1217    1.4562 H   0  0  0  0  0  0  0  0  0  0  0  0
    2.5859    0.5583    1.4099 H   0  0  0  0  0  0  0  0  0  0  0  0
    1.2197    1.5618    1.7532 H   0  0  0  0  0  0  0  0  0  0  0  0
    4.5189    1.8135    5.0902 H   0  0  0  0  0  0  0  0  0  0  0  0
    5.5622   -0.3171    4.7200 H   0  0  0  0  0  0  0  0  0  0  0  0
    4.2516   -0.6702    5.8105 H   0  0  0  0  0  0  0  0  0  0  0  0
    4.0159   -3.5991    3.6890 H   0  0  0  0  0  0  0  0  0  0  0  0
    3.6019   -2.9929    5.2845 H   0  0  0  0  0  0  0  0  0  0  0  0
    5.2430   -2.8751    4.7090 H   0  0  0  0  0  0  0  0  0  0  0  0
    4.4896   -0.2119    2.0776 H   0  0  0  0  0  0  0  0  0  0  0  0
    6.5988   -0.9717    2.8792 H   0  0  0  0  0  0  0  0  0  0  0  0
    6.1670   -2.6568    2.7112 H   0  0  0  0  0  0  0  0  0  0  0  0
    6.6145   -0.6713    0.4882 H   0  0  0  0  0  0  0  0  0  0  0  0
    7.6290   -2.0327    0.8830 H   0  0  0  0  0  0  0  0  0  0  0  0
    5.2935   -4.7203   -0.3414 H   0  0  0  0  0  0  0  0  0  0  0  0
    5.2805   -4.1937    1.3203 H   0  0  0  0  0  0  0  0  0  0  0  0
    6.8125   -4.4152    0.4847 H   0  0  0  0  0  0  0  0  0  0  0  0
    6.6159   -1.4606   -1.7496 H   0  0  0  0  0  0  0  0  0  0  0  0
    7.3596   -3.0137   -1.5300 H   0  0  0  0  0  0  0  0  0  0  0  0
    6.0209   -2.9277   -3.5715 H   0  0  0  0  0  0  0  0  0  0  0  0
    5.4152   -4.1442   -2.5081 H   0  0  0  0  0  0  0  0  0  0  0  0
    3.1686   -0.4774   -3.0326 H   0  0  0  0  0  0  0  0  0  0  0  0
    4.5346   -0.8113   -4.0921 H   0  0  0  0  0  0  0  0  0  0  0  0
    4.8054   -0.3372   -2.4277 H   0  0  0  0  0  0  0  0  0  0  0  0
    2.2229   -2.7499   -3.7442 H   0  0  0  0  0  0  0  0  0  0  0  0
    3.1717   -4.2166   -3.5298 H   0  0  0  0  0  0  0  0  0  0  0  0
    3.6601   -3.0416   -4.7180 H   0  0  0  0  0  0  0  0  0  0  0  0
    2.4739   -2.2262   -1.2816 H   0  0  0  0  0  0  0  0  0  0  0  0
    3.3508   -3.6925   -1.0706 H   0  0  0  0  0  0  0  0  0  0  0  0
    4.4103   -0.9369   -0.3511 H   0  0  0  0  0  0  0  0  0  0  0  0
    1.8915   -2.9529    0.7539 H   0  0  0  0  0  0  0  0  0  0  0  0
    0.6733   -2.0609    2.6329 H   0  0  0  0  0  0  0  0  0  0  0  0
    1.7230   -3.2511    3.3479 H   0  0  0  0  0  0  0  0  0  0  0  0
    2.0061   -1.4288    4.7465 H   0  0  0  0  0  0  0  0  0  0  0  0
    2.1573    3.1033    3.0138 H   0  0  0  0  0  0  0  0  0  0  0  0
    2.9647    3.4400    4.5168 H   0  0  0  0  0  0  0  0  0  0  0  0
  1  2  1  0
  1 31  1  0
  1 32  1  0
  1 33  1  0
  3  2  1  1
  3 30  1  0
  3  4  1  0
  3  5  1  0
  4 34  1  0
  4 35  1  0
  4 36  1  0
  5  6  1  0
  5 37  1  0
  5 38  1  0
  6  7  1  0
  6 39  1  0
  6 40  1  0
  7 29  1  0
  7  8  1  6
  7  9  1  0
  8 41  1  0
  8 42  1  0
  8 43  1  0
  9 10  2  0
  9 30  1  0
 10 11  1  0
 10 44  1  0
 11 12  1  0
 11 45  1  0
 11 46  1  0
 12 29  1  0
 12 13  1  1
 12 14  1  0
 13 47  1  0
 13 48  1  0
 13 49  1  0
 14 26  1  0
 14 15  1  0
 14 50  1  6
 15 16  1  0
 15 51  1  0
 15 52  1  0
 16 17  1  0
 16 53  1  0
 16 54  1  0
 17 25  1  0
 17 18  1  1
 17 19  1  0
 18 55  1  0
 18 56  1  0
 18 57  1  0
 19 20  1  0
 19 58  1  0
 19 59  1  0
 20 21  1  0
 20 60  1  0
 20 61  1  0
 21 22  1  0
 21 23  1  0
 21 24  1  0
 22 62  1  0
 22 63  1  0
 22 64  1  0
 23 65  1  0
 23 66  1  0
 23 67  1  0
 24 25  1  0
 24 68  1  0
 24 69  1  0
 25 26  1  0
 25 70  1  6
 26 27  2  0
 27 28  1  0
 27 71  1  0
 28 29  1  0
 28 72  1  0
 28 73  1  0
 29 74  1  1
 30 75  1  0
 30 76  1  0
M  END
>  <i_m_ct_stereo_status>  (100) 
1

>  <s_m_source_file>  (100) 
/var/tmp/pbs.5076255.sched01/tmpnk13i6y_/41i0yhob8r.sdf

>  <i_m_source_file_index>  (100) 
1

>  <i_lp_mmshare_version>  (100) 
48012

>  <i_f3d_flags>  (100) 
0

>  <s_epik_input>  (100) 
W0NIM11PW0NAQF0oW0NIM10pKFtDSDJdW0NIMl0xKVtDSDJdQyhbQ0BdMTJbQ0gzXSk9W0NIXVtDSDJdW0NAXTMoW0NIM10pW0NAQEhdNEMoPVtDSF1bQ0gyXVtDQEhdMjMpW0NASF01W0NAXShbQ0gzXSkoW0NIMl1bQ0gyXTQpW0NIMl1bQ0gyXUMoW0NIM10pKFtDSDNdKVtDSDJdNQ==

>  <s_epik_cmdline>  (100) 
J2VwaWtfcHl0aG9uJywgJy1waHQnLCAnMi4wJywgJy1waCcsICc3LjAnLCAnLXRuJywgJzgnLCAnLW1hJywgJzIwMCcsICctaW1hZScsICc8aW5maWxlLm1hZT4nLCAnLW9tYWUnLCAnPG91dGZpbGUubWFlPic=

>  <r_lp_tautomer_probability>  (100) 
1

>  <r_epik_Ionization_Penalty>  (100) 
3.78534e-11

>  <r_epik_Ionization_Penalty_Charging>  (100) 
0

>  <r_epik_Ionization_Penalty_Neutral>  (100) 
3.78534e-11

>  <r_epik_State_Penalty>  (100) 
-0

>  <r_epik_Charging_Adjusted_Penalty>  (100) 
0

>  <i_epik_Tot_Q>  (100) 
0

>  <i_epik_Tot_abs_Q>  (100) 
0

>  <s_lp_Force_Field>  (100) 
OPLS3e

>  <r_lp_Energy>  (100) 
58.9025

>  <b_lp_Chiralities_Consistent>  (100) 
1

>  <s_lp_Variant>  (100) 
34:0-1

>  <s_i_glide_gridfile>  (100) 
pfpi4k_grid

>  <i_i_glide_lignum>  (100) 
1

>  <i_i_glide_rotatable_bonds>  (100) 
1

>  <r_i_docking_score>  (100) 
-2.95861

>  <r_i_glide_ligand_efficiency>  (100) 
-0.0986204

>  <r_i_glide_ligand_efficiency_sa>  (100) 
-0.306437

>  <r_i_glide_ligand_efficiency_ln>  (100) 
-0.672229

>  <r_i_glide_gscore>  (100) 
-2.95861

>  <r_i_glide_lipo>  (100) 
-0.928735

>  <r_i_glide_hbond>  (100) 
0

>  <r_i_glide_metal>  (100) 
-0

>  <r_i_glide_rewards>  (100) 
-0.609034

>  <r_i_glide_evdw>  (100) 
-25.4183

>  <r_i_glide_ecoul>  (100) 
-0.999541

>  <r_i_glide_erotb>  (100) 
0

>  <r_i_glide_esite>  (100) 
0

>  <r_i_glide_emodel>  (100) 
-30.9193

>  <r_i_glide_energy>  (100) 
-26.4178

>  <r_i_glide_einternal>  (100) 
0.102509

>  <r_i_glide_intrahb_reward>  (100) 
-0

>  <i_i_glide_confnum>  (100) 
1

>  <i_i_glide_posenum>  (100) 
33

>  <r_i_glide_eff_state_penalty>  (100) 
0

>  <ligand_id>  (100) 
34

>  <original_smiles>  (100) 
COC1(C)CCC2(C)C(=CCC3(C)C4CCC5(C)CCC(C)(C)CC5C4=CCC23)C1

>  <smiles>  (100) 
[H]C1=C2C3([H])C([H])([H])C(C([H])([H])[H])(C([H])([H])[H])C([H])([H])C([H])([H])C3(C([H])([H])[H])C([H])([H])C([H])([H])C2([H])C2(C([H])([H])[H])C([H])([H])C([H])=C3C([H])([H])C(OC([H])([H])[H])(C([H])([H])[H])C([H])([H])C([H])([H])C3(C([H])([H])[H])C2([H])C1([H])[H]

$$$$
34:0:2
     RDKit          3D

 76 80  0  0  1  0  0  0  0  0999 V2000
   -1.8304    4.5108    2.8882 C   0  0  0  0  0  0  0  0  0  0  0  0
   -1.6904    4.0633    4.2307 O   0  0  0  0  0  0  0  0  0  0  0  0
   -0.9012    2.8914    4.4940 C   0  0  1  0  0  0  0  0  0  0  0  0
   -0.9168    2.8497    6.0362 C   0  0  0  0  0  0  0  0  0  0  0  0
   -1.5744    1.6281    3.9017 C   0  0  0  0  0  0  0  0  0  0  0  0
   -0.7421    0.3448    4.1228 C   0  0  0  0  0  0  0  0  0  0  0  0
    0.7382    0.4339    3.6306 C   0  0  1  0  0  0  0  0  0  0  0  0
    0.7378    0.5589    2.0803 C   0  0  0  0  0  0  0  0  0  0  0  0
    1.3388    1.7177    4.2226 C   0  0  0  0  0  0  0  0  0  0  0  0
    2.4551    1.7245    4.9746 C   0  0  0  0  0  0  0  0  0  0  0  0
    3.2518    0.4974    5.3499 C   0  0  0  0  0  0  0  0  0  0  0  0
    3.0390   -0.7122    4.4134 C   0  0  2  0  0  0  0  0  0  0  0  0
    3.5339   -1.9544    5.2071 C   0  0  0  0  0  0  0  0  0  0  0  0
    3.8373   -0.5789    3.0627 C   0  0  1  0  0  0  0  0  0  0  0  0
    5.3793   -0.6637    3.2345 C   0  0  0  0  0  0  0  0  0  0  0  0
    6.1337   -0.6945    1.8987 C   0  0  0  0  0  0  0  0  0  0  0  0
    5.6675   -1.8144    0.9512 C   0  0  2  0  0  0  0  0  0  0  0  0
    5.9207   -3.2006    1.5815 C   0  0  0  0  0  0  0  0  0  0  0  0
    6.4715   -1.7011   -0.3668 C   0  0  0  0  0  0  0  0  0  0  0  0
    5.9068   -2.5250   -1.5361 C   0  0  0  0  0  0  0  0  0  0  0  0
    4.4214   -2.2234   -1.8070 C   0  0  0  0  0  0  0  0  0  0  0  0
    4.2196   -0.7964   -2.3795 C   0  0  0  0  0  0  0  0  0  0  0  0
    3.8942   -3.2140   -2.8601 C   0  0  0  0  0  0  0  0  0  0  0  0
    3.6441   -2.4271   -0.4842 C   0  0  0  0  0  0  0  0  0  0  0  0
    4.1695   -1.5460    0.6742 C   0  0  1  0  0  0  0  0  0  0  0  0
    3.3398   -1.5427    1.9678 C   0  0  0  0  0  0  0  0  0  0  0  0
    2.2074   -2.2606    2.1168 C   0  0  0  0  0  0  0  0  0  0  0  0
    1.2602   -2.1407    3.2967 C   0  0  0  0  0  0  0  0  0  0  0  0
    1.5107   -0.8639    4.1349 C   0  0  2  0  0  0  0  0  0  0  0  0
    0.5534    3.0073    3.9766 C   0  0  0  0  0  0  0  0  0  0  0  0
   -2.5428    5.3321    2.8624 H   0  0  0  0  0  0  0  0  0  0  0  0
   -2.2092    3.7405    2.2201 H   0  0  0  0  0  0  0  0  0  0  0  0
   -0.9031    4.9093    2.4930 H   0  0  0  0  0  0  0  0  0  0  0  0
   -0.3465    2.0129    6.4405 H   0  0  0  0  0  0  0  0  0  0  0  0
   -1.9364    2.7724    6.4177 H   0  0  0  0  0  0  0  0  0  0  0  0
   -0.4843    3.7626    6.4499 H   0  0  0  0  0  0  0  0  0  0  0  0
   -2.5665    1.5036    4.3351 H   0  0  0  0  0  0  0  0  0  0  0  0
   -1.7400    1.7414    2.8324 H   0  0  0  0  0  0  0  0  0  0  0  0
   -0.7650    0.1091    5.1865 H   0  0  0  0  0  0  0  0  0  0  0  0
   -1.2494   -0.4874    3.6406 H   0  0  0  0  0  0  0  0  0  0  0  0
    0.3012   -0.3103    1.5945 H   0  0  0  0  0  0  0  0  0  0  0  0
    1.7357    0.6961    1.6739 H   0  0  0  0  0  0  0  0  0  0  0  0
    0.1598    1.4078    1.7230 H   0  0  0  0  0  0  0  0  0  0  0  0
    2.8031    2.6525    5.4005 H   0  0  0  0  0  0  0  0  0  0  0  0
    4.3033    0.7702    5.4181 H   0  0  0  0  0  0  0  0  0  0  0  0
    2.9393    0.2412    6.3638 H   0  0  0  0  0  0  0  0  0  0  0  0
    3.6272   -2.8415    4.5778 H   0  0  0  0  0  0  0  0  0  0  0  0
    2.8612   -2.2101    6.0280 H   0  0  0  0  0  0  0  0  0  0  0  0
    4.5119   -1.7861    5.6613 H   0  0  0  0  0  0  0  0  0  0  0  0
    3.6453    0.4191    2.6701 H   0  0  0  0  0  0  0  0  0  0  0  0
    5.7368    0.1864    3.8147 H   0  0  0  0  0  0  0  0  0  0  0  0
    5.6681   -1.5515    3.7919 H   0  0  0  0  0  0  0  0  0  0  0  0
    5.9639    0.2512    1.3884 H   0  0  0  0  0  0  0  0  0  0  0  0
    7.2043   -0.7680    2.0790 H   0  0  0  0  0  0  0  0  0  0  0  0
    5.6775   -4.0115    0.8949 H   0  0  0  0  0  0  0  0  0  0  0  0
    5.3216   -3.3545    2.4793 H   0  0  0  0  0  0  0  0  0  0  0  0
    6.9706   -3.3110    1.8538 H   0  0  0  0  0  0  0  0  0  0  0  0
    6.4745   -0.6575   -0.6562 H   0  0  0  0  0  0  0  0  0  0  0  0
    7.5153   -1.9748   -0.1984 H   0  0  0  0  0  0  0  0  0  0  0  0
    6.4988   -2.3572   -2.4350 H   0  0  0  0  0  0  0  0  0  0  0  0
    6.0233   -3.5830   -1.3091 H   0  0  0  0  0  0  0  0  0  0  0  0
    3.1589   -0.5742   -2.5169 H   0  0  0  0  0  0  0  0  0  0  0  0
    4.7054   -0.6800   -3.3493 H   0  0  0  0  0  0  0  0  0  0  0  0
    4.6196   -0.0238   -1.7276 H   0  0  0  0  0  0  0  0  0  0  0  0
    2.8311   -3.0549   -3.0601 H   0  0  0  0  0  0  0  0  0  0  0  0
    4.0215   -4.2423   -2.5220 H   0  0  0  0  0  0  0  0  0  0  0  0
    4.4243   -3.1189   -3.8102 H   0  0  0  0  0  0  0  0  0  0  0  0
    2.5967   -2.2232   -0.6732 H   0  0  0  0  0  0  0  0  0  0  0  0
    3.6942   -3.4757   -0.1890 H   0  0  0  0  0  0  0  0  0  0  0  0
    4.0705   -0.5131    0.3420 H   0  0  0  0  0  0  0  0  0  0  0  0
    1.8767   -2.9294    1.3429 H   0  0  0  0  0  0  0  0  0  0  0  0
    0.2323   -2.1681    2.9398 H   0  0  0  0  0  0  0  0  0  0  0  0
    1.3859   -3.0343    3.9067 H   0  0  0  0  0  0  0  0  0  0  0  0
    1.0789   -1.0795    5.1132 H   0  0  0  0  0  0  0  0  0  0  0  0
    0.5693    3.2128    2.9077 H   0  0  0  0  0  0  0  0  0  0  0  0
    1.0552    3.8498    4.4525 H   0  0  0  0  0  0  0  0  0  0  0  0
  1  2  1  0
  1 31  1  0
  1 32  1  0
  1 33  1  0
  3  2  1  1
  3 30  1  0
  3  4  1  0
  3  5  1  0
  4 34  1  0
  4 35  1  0
  4 36  1  0
  5  6  1  0
  5 37  1  0
  5 38  1  0
  6  7  1  0
  6 39  1  0
  6 40  1  0
  7 29  1  0
  7  8  1  6
  7  9  1  0
  8 41  1  0
  8 42  1  0
  8 43  1  0
  9 10  2  0
  9 30  1  0
 10 11  1  0
 10 44  1  0
 11 12  1  0
 11 45  1  0
 11 46  1  0
 12 29  1  0
 12 13  1  1
 12 14  1  0
 13 47  1  0
 13 48  1  0
 13 49  1  0
 14 26  1  0
 14 15  1  0
 14 50  1  6
 15 16  1  0
 15 51  1  0
 15 52  1  0
 16 17  1  0
 16 53  1  0
 16 54  1  0
 17 25  1  0
 17 18  1  1
 17 19  1  0
 18 55  1  0
 18 56  1  0
 18 57  1  0
 19 20  1  0
 19 58  1  0
 19 59  1  0
 20 21  1  0
 20 60  1  0
 20 61  1  0
 21 22  1  0
 21 23  1  0
 21 24  1  0
 22 62  1  0
 22 63  1  0
 22 64  1  0
 23 65  1  0
 23 66  1  0
 23 67  1  0
 24 25  1  0
 24 68  1  0
 24 69  1  0
 25 26  1  0
 25 70  1  6
 26 27  2  0
 27 28  1  0
 27 71  1  0
 28 29  1  0
 28 72  1  0
 28 73  1  0
 29 74  1  1
 30 75  1  0
 30 76  1  0
M  END
>  <i_m_ct_stereo_status>  (101) 
1

>  <s_m_source_file>  (101) 
/var/tmp/pbs.5076255.sched01/tmpnk13i6y_/41i0yhob8r.sdf

>  <i_m_source_file_index>  (101) 
1

>  <i_lp_mmshare_version>  (101) 
48012

>  <i_f3d_flags>  (101) 
0

>  <s_epik_input>  (101) 
W0NIM11PW0NAQF0oW0NIM10pKFtDSDJdW0NIMl0xKVtDSDJdQyhbQ0BdMTJbQ0gzXSk9W0NIXVtDSDJdW0NAXTMoW0NIM10pW0NAQEhdNEMoPVtDSF1bQ0gyXVtDQEhdMjMpW0NASF01W0NAXShbQ0gzXSkoW0NIMl1bQ0gyXTQpW0NIMl1bQ0gyXUMoW0NIM10pKFtDSDNdKVtDSDJdNQ==

>  <s_epik_cmdline>  (101) 
J2VwaWtfcHl0aG9uJywgJy1waHQnLCAnMi4wJywgJy1waCcsICc3LjAnLCAnLXRuJywgJzgnLCAnLW1hJywgJzIwMCcsICctaW1hZScsICc8aW5maWxlLm1hZT4nLCAnLW9tYWUnLCAnPG91dGZpbGUubWFlPic=

>  <r_lp_tautomer_probability>  (101) 
1

>  <r_epik_Ionization_Penalty>  (101) 
3.78534e-11

>  <r_epik_Ionization_Penalty_Charging>  (101) 
0

>  <r_epik_Ionization_Penalty_Neutral>  (101) 
3.78534e-11

>  <r_epik_State_Penalty>  (101) 
-0

>  <r_epik_Charging_Adjusted_Penalty>  (101) 
0

>  <i_epik_Tot_Q>  (101) 
0

>  <i_epik_Tot_abs_Q>  (101) 
0

>  <s_lp_Force_Field>  (101) 
OPLS3e

>  <r_lp_Energy>  (101) 
58.9025

>  <b_lp_Chiralities_Consistent>  (101) 
1

>  <s_lp_Variant>  (101) 
34:0-1

>  <s_i_glide_gridfile>  (101) 
pfpi4k_grid

>  <i_i_glide_lignum>  (101) 
1

>  <i_i_glide_rotatable_bonds>  (101) 
1

>  <r_i_docking_score>  (101) 
-2.43622

>  <r_i_glide_ligand_efficiency>  (101) 
-0.0812074

>  <r_i_glide_ligand_efficiency_sa>  (101) 
-0.25233

>  <r_i_glide_ligand_efficiency_ln>  (101) 
-0.553536

>  <r_i_glide_gscore>  (101) 
-2.43622

>  <r_i_glide_lipo>  (101) 
-0.392816

>  <r_i_glide_hbond>  (101) 
-0.00811415

>  <r_i_glide_metal>  (101) 
-0

>  <r_i_glide_rewards>  (101) 
-0.609034

>  <r_i_glide_evdw>  (101) 
-23.5716

>  <r_i_glide_ecoul>  (101) 
-1.65118

>  <r_i_glide_erotb>  (101) 
0

>  <r_i_glide_esite>  (101) 
0

>  <r_i_glide_emodel>  (101) 
-28.9402

>  <r_i_glide_energy>  (101) 
-25.2228

>  <r_i_glide_einternal>  (101) 
0.00616017

>  <r_i_glide_intrahb_reward>  (101) 
-0

>  <i_i_glide_confnum>  (101) 
2

>  <i_i_glide_posenum>  (101) 
19

>  <r_i_glide_eff_state_penalty>  (101) 
0

>  <ligand_id>  (101) 
34

>  <original_smiles>  (101) 
COC1(C)CCC2(C)C(=CCC3(C)C4CCC5(C)CCC(C)(C)CC5C4=CCC23)C1

>  <smiles>  (101) 
[H]C1=C2C3([H])C([H])([H])C(C([H])([H])[H])(C([H])([H])[H])C([H])([H])C([H])([H])C3(C([H])([H])[H])C([H])([H])C([H])([H])C2([H])C2(C([H])([H])[H])C([H])([H])C([H])=C3C([H])([H])C(OC([H])([H])[H])(C([H])([H])[H])C([H])([H])C([H])([H])C3(C([H])([H])[H])C2([H])C1([H])[H]

$$$$
35:0:0
     RDKit          3D

 42 46  0  0  1  0  0  0  0  0999 V2000
    2.4094   -3.6177    3.7603 O   0  0  0  0  0  0  0  0  0  0  0  0
    3.3652   -4.2162    2.9920 C   0  0  0  0  0  0  0  0  0  0  0  0
    3.9279   -5.4477    3.3967 C   0  0  0  0  0  0  0  0  0  0  0  0
    4.9612   -6.0404    2.6432 C   0  0  0  0  0  0  0  0  0  0  0  0
    5.4091   -5.4326    1.4556 C   0  0  0  0  0  0  0  0  0  0  0  0
    4.7432   -4.2541    1.0310 C   0  0  0  0  0  0  0  0  0  0  0  0
    3.7719   -3.6066    1.7956 C   0  0  0  0  0  0  0  0  0  0  0  0
    3.3443   -2.4047    1.3199 O   0  0  0  0  0  0  0  0  0  0  0  0
    3.8479   -2.3122   -0.0012 C   0  0  1  0  0  0  0  0  0  0  0  0
    4.1333   -0.8782   -0.4655 C   0  0  1  0  0  0  0  0  0  0  0  0
    5.2513   -0.2774    0.1551 O   0  0  0  0  0  0  0  0  0  0  0  0
    4.2401   -0.7222   -1.9806 C   0  0  0  0  0  0  0  0  0  0  0  0
    4.2157   -1.6641   -2.9460 C   0  0  0  0  0  0  0  0  0  0  0  0
    4.0946   -3.1772   -2.8048 C   0  0  0  0  0  0  0  0  0  0  0  0
    4.9827   -3.8589   -1.7312 C   0  0  1  0  0  0  0  0  0  0  0  0
    6.4172   -3.3292   -1.7548 C   0  0  0  0  0  0  0  0  0  0  0  0
    6.3555   -2.9637   -0.4741 C   0  0  0  0  0  0  0  0  0  0  0  0
    7.4520   -2.7309    0.5365 C   0  0  0  0  0  0  0  0  0  0  0  0
    8.4455   -3.9039    0.6788 C   0  0  0  0  0  0  0  0  0  0  0  0
    7.9273   -5.1827    1.3706 C   0  0  0  0  0  0  0  0  0  0  0  0
    6.6814   -5.8332    0.7418 C   0  0  0  0  0  0  0  0  0  0  0  0
    4.9215   -3.4027   -0.2349 C   0  0  2  0  0  0  0  0  0  0  0  0
    2.2765   -4.0696    4.5735 H   0  0  0  0  0  0  0  0  0  0  0  0
    3.6283   -5.9041    4.3285 H   0  0  0  0  0  0  0  0  0  0  0  0
    5.4559   -6.9279    3.0144 H   0  0  0  0  0  0  0  0  0  0  0  0
    2.9469   -2.6122   -0.5373 H   0  0  0  0  0  0  0  0  0  0  0  0
    3.2663   -0.3062   -0.1460 H   0  0  0  0  0  0  0  0  0  0  0  0
    5.3040    0.6279   -0.1502 H   0  0  0  0  0  0  0  0  0  0  0  0
    4.2924    0.3040   -2.3193 H   0  0  0  0  0  0  0  0  0  0  0  0
    4.2601   -1.3101   -3.9653 H   0  0  0  0  0  0  0  0  0  0  0  0
    3.0432   -3.3962   -2.6275 H   0  0  0  0  0  0  0  0  0  0  0  0
    4.3063   -3.5985   -3.7871 H   0  0  0  0  0  0  0  0  0  0  0  0
    4.8946   -4.9470   -1.7649 H   0  0  0  0  0  0  0  0  0  0  0  0
    7.2205   -3.4250   -2.4769 H   0  0  0  0  0  0  0  0  0  0  0  0
    8.0062   -1.8500    0.2152 H   0  0  0  0  0  0  0  0  0  0  0  0
    6.9856   -2.4726    1.4874 H   0  0  0  0  0  0  0  0  0  0  0  0
    8.8732   -4.1449   -0.2931 H   0  0  0  0  0  0  0  0  0  0  0  0
    9.2855   -3.5408    1.2748 H   0  0  0  0  0  0  0  0  0  0  0  0
    8.7440   -5.9019    1.3207 H   0  0  0  0  0  0  0  0  0  0  0  0
    7.7683   -5.0398    2.4366 H   0  0  0  0  0  0  0  0  0  0  0  0
    6.7867   -6.9046    0.9025 H   0  0  0  0  0  0  0  0  0  0  0  0
    6.6134   -5.7077   -0.3168 H   0  0  0  0  0  0  0  0  0  0  0  0
  1  2  1  0
  1 23  1  0
  2  7  2  0
  2  3  1  0
  3  4  2  0
  3 24  1  0
  4  5  1  0
  4 25  1  0
  5 21  1  0
  5  6  2  0
  6 22  1  0
  6  7  1  0
  7  8  1  0
  8  9  1  0
  9 22  1  0
  9 10  1  0
  9 26  1  6
 10 11  1  0
 10 12  1  0
 10 27  1  1
 11 28  1  0
 12 13  2  0
 12 29  1  0
 13 14  1  0
 13 30  1  0
 14 15  1  0
 14 31  1  0
 14 32  1  0
 15 22  1  0
 15 16  1  0
 15 33  1  1
 16 17  2  0
 16 34  1  0
 17 18  1  0
 22 17  1  1
 18 19  1  0
 18 35  1  0
 18 36  1  0
 19 20  1  0
 19 37  1  0
 19 38  1  0
 20 21  1  0
 20 39  1  0
 20 40  1  0
 21 41  1  0
 21 42  1  0
M  END
>  <i_m_ct_stereo_status>  (102) 
1

>  <s_m_source_file>  (102) 
/var/tmp/pbs.5076255.sched01/tmpnk13i6y_/41i0yhob8r.sdf

>  <i_m_source_file_index>  (102) 
2

>  <i_lp_mmshare_version>  (102) 
48012

>  <i_f3d_flags>  (102) 
0

>  <s_epik_input>  (102) 
W0NAQF0xMjNjNGM1W2NIXVtjSF1jKFtPSF0pYzRPW0NASF0xW0NAQEhdKFtPSF0pW0NIXT1bQ0hdW0NIMl1bQ0BIXTJbQ0hdPUMzW0NIMl1bQ0gyXVtDSDJdW0NIMl01

>  <s_epik_cmdline>  (102) 
J2VwaWtfcHl0aG9uJywgJy1waHQnLCAnMi4wJywgJy1waCcsICc3LjAnLCAnLXRuJywgJzgnLCAnLW1hJywgJzIwMCcsICctaW1hZScsICc8aW5maWxlLm1hZT4nLCAnLW9tYWUnLCAnPG91dGZpbGUubWFlPic=

>  <r_lp_tautomer_probability>  (102) 
1

>  <r_epik_Ionization_Penalty>  (102) 
0.00217367

>  <r_epik_Ionization_Penalty_Charging>  (102) 
0

>  <r_epik_Ionization_Penalty_Neutral>  (102) 
0.00217367

>  <r_epik_State_Penalty>  (102) 
0.00149307

>  <r_epik_Charging_Adjusted_Penalty>  (102) 
0.00149307

>  <i_epik_Tot_Q>  (102) 
0

>  <i_epik_Tot_abs_Q>  (102) 
0

>  <s_lp_Force_Field>  (102) 
OPLS3e

>  <r_lp_Energy>  (102) 
44.6332

>  <b_lp_Chiralities_Consistent>  (102) 
1

>  <s_lp_Variant>  (102) 
35:0-1

>  <s_i_glide_gridfile>  (102) 
pfpi4k_grid

>  <i_i_glide_lignum>  (102) 
2

>  <i_i_glide_rotatable_bonds>  (102) 
2

>  <r_i_docking_score>  (102) 
-3.7895

>  <r_i_glide_ligand_efficiency>  (102) 
-0.17225

>  <r_i_glide_ligand_efficiency_sa>  (102) 
-0.482652

>  <r_i_glide_ligand_efficiency_ln>  (102) 
-0.926293

>  <r_i_glide_gscore>  (102) 
-3.7895

>  <r_i_glide_lipo>  (102) 
-0.792275

>  <r_i_glide_hbond>  (102) 
0

>  <r_i_glide_metal>  (102) 
-0

>  <r_i_glide_rewards>  (102) 
-1.38845

>  <r_i_glide_evdw>  (102) 
-20.8603

>  <r_i_glide_ecoul>  (102) 
-3.77175

>  <r_i_glide_erotb>  (102) 
0

>  <r_i_glide_esite>  (102) 
0

>  <r_i_glide_emodel>  (102) 
-30.1916

>  <r_i_glide_energy>  (102) 
-24.632

>  <r_i_glide_einternal>  (102) 
0.407063

>  <r_i_glide_intrahb_reward>  (102) 
-0

>  <i_i_glide_confnum>  (102) 
1

>  <i_i_glide_posenum>  (102) 
11

>  <r_i_glide_eff_state_penalty>  (102) 
0

>  <ligand_id>  (102) 
35

>  <original_smiles>  (102) 
Oc1ccc2c3c1OC1C(O)C=CCC4C=C(CCCC2)C341

>  <smiles>  (102) 
[H]Oc1c([H])c([H])c2c3c1OC1([H])C([H])(O[H])C([H])=C([H])C([H])([H])C4([H])C([H])=C(C([H])([H])C([H])([H])C([H])([H])C2([H])[H])C314

$$$$
35:0:1
     RDKit          3D

 42 46  0  0  1  0  0  0  0  0999 V2000
    3.0089    1.5638    2.7934 O   0  0  0  0  0  0  0  0  0  0  0  0
    2.8014    0.2196    2.8641 C   0  0  0  0  0  0  0  0  0  0  0  0
    2.1815   -0.3443    3.9931 C   0  0  0  0  0  0  0  0  0  0  0  0
    2.0479   -1.7459    4.1211 C   0  0  0  0  0  0  0  0  0  0  0  0
    2.4675   -2.6029    3.0800 C   0  0  0  0  0  0  0  0  0  0  0  0
    3.0079   -1.9725    1.9251 C   0  0  0  0  0  0  0  0  0  0  0  0
    3.2256   -0.6000    1.7975 C   0  0  0  0  0  0  0  0  0  0  0  0
    3.8943   -0.1910    0.6804 O   0  0  0  0  0  0  0  0  0  0  0  0
    3.8856   -1.3063   -0.1939 C   0  0  1  0  0  0  0  0  0  0  0  0
    5.0761   -1.3389   -1.1710 C   0  0  1  0  0  0  0  0  0  0  0  0
    6.3015   -1.6314   -0.5343 O   0  0  0  0  0  0  0  0  0  0  0  0
    4.8905   -2.2728   -2.3551 C   0  0  0  0  0  0  0  0  0  0  0  0
    3.8695   -3.1073   -2.6277 C   0  0  0  0  0  0  0  0  0  0  0  0
    2.6004   -3.3851   -1.8256 C   0  0  0  0  0  0  0  0  0  0  0  0
    2.7722   -3.6395   -0.3053 C   0  0  1  0  0  0  0  0  0  0  0  0
    3.9343   -4.5791    0.0179 C   0  0  0  0  0  0  0  0  0  0  0  0
    4.5332   -3.6669    0.7816 C   0  0  0  0  0  0  0  0  0  0  0  0
    5.5487   -3.8190    1.8993 C   0  0  0  0  0  0  0  0  0  0  0  0
    5.1440   -4.8456    2.9798 C   0  0  0  0  0  0  0  0  0  0  0  0
    3.9853   -4.4450    3.9056 C   0  0  0  0  0  0  0  0  0  0  0  0
    2.6491   -4.1088    3.2175 C   0  0  0  0  0  0  0  0  0  0  0  0
    3.4851   -2.5783    0.6024 C   0  0  2  0  0  0  0  0  0  0  0  0
    3.5989    1.8193    2.1002 H   0  0  0  0  0  0  0  0  0  0  0  0
    1.8952    0.3086    4.8117 H   0  0  0  0  0  0  0  0  0  0  0  0
    1.6819   -2.1581    5.0483 H   0  0  0  0  0  0  0  0  0  0  0  0
    3.0311   -1.0405   -0.8133 H   0  0  0  0  0  0  0  0  0  0  0  0
    5.1684   -0.3377   -1.5899 H   0  0  0  0  0  0  0  0  0  0  0  0
    6.1757   -2.4244   -0.0290 H   0  0  0  0  0  0  0  0  0  0  0  0
    5.6979   -2.2457   -3.0698 H   0  0  0  0  0  0  0  0  0  0  0  0
    3.9231   -3.6509   -3.5545 H   0  0  0  0  0  0  0  0  0  0  0  0
    1.9127   -2.5677   -2.0087 H   0  0  0  0  0  0  0  0  0  0  0  0
    2.1016   -4.2342   -2.2878 H   0  0  0  0  0  0  0  0  0  0  0  0
    1.8254   -3.9197    0.1610 H   0  0  0  0  0  0  0  0  0  0  0  0
    4.0906   -5.6481   -0.1697 H   0  0  0  0  0  0  0  0  0  0  0  0
    6.4732   -4.1709    1.4385 H   0  0  0  0  0  0  0  0  0  0  0  0
    5.7648   -2.8414    2.3301 H   0  0  0  0  0  0  0  0  0  0  0  0
    4.9276   -5.8083    2.5200 H   0  0  0  0  0  0  0  0  0  0  0  0
    6.0179   -5.0167    3.6078 H   0  0  0  0  0  0  0  0  0  0  0  0
    3.8161   -5.2954    4.5619 H   0  0  0  0  0  0  0  0  0  0  0  0
    4.2855   -3.6435    4.5809 H   0  0  0  0  0  0  0  0  0  0  0  0
    1.8723   -4.3974    3.9149 H   0  0  0  0  0  0  0  0  0  0  0  0
    2.4440   -4.6924    2.3239 H   0  0  0  0  0  0  0  0  0  0  0  0
  1  2  1  0
  1 23  1  0
  2  7  2  0
  2  3  1  0
  3  4  2  0
  3 24  1  0
  4  5  1  0
  4 25  1  0
  5 21  1  0
  5  6  2  0
  6 22  1  0
  6  7  1  0
  7  8  1  0
  8  9  1  0
  9 22  1  0
  9 10  1  0
  9 26  1  6
 10 11  1  0
 10 12  1  0
 10 27  1  6
 11 28  1  0
 12 13  2  0
 12 29  1  0
 13 14  1  0
 13 30  1  0
 14 15  1  0
 14 31  1  0
 14 32  1  0
 15 22  1  0
 15 16  1  0
 15 33  1  1
 16 17  2  0
 16 34  1  0
 17 18  1  0
 22 17  1  1
 18 19  1  0
 18 35  1  0
 18 36  1  0
 19 20  1  0
 19 37  1  0
 19 38  1  0
 20 21  1  0
 20 39  1  0
 20 40  1  0
 21 41  1  0
 21 42  1  0
M  END
>  <i_m_ct_stereo_status>  (103) 
1

>  <s_m_source_file>  (103) 
/var/tmp/pbs.5076255.sched01/tmpnk13i6y_/41i0yhob8r.sdf

>  <i_m_source_file_index>  (103) 
2

>  <i_lp_mmshare_version>  (103) 
48012

>  <i_f3d_flags>  (103) 
0

>  <s_epik_input>  (103) 
W0NAQF0xMjNjNGM1W2NIXVtjSF1jKFtPSF0pYzRPW0NASF0xW0NAQEhdKFtPSF0pW0NIXT1bQ0hdW0NIMl1bQ0BIXTJbQ0hdPUMzW0NIMl1bQ0gyXVtDSDJdW0NIMl01

>  <s_epik_cmdline>  (103) 
J2VwaWtfcHl0aG9uJywgJy1waHQnLCAnMi4wJywgJy1waCcsICc3LjAnLCAnLXRuJywgJzgnLCAnLW1hJywgJzIwMCcsICctaW1hZScsICc8aW5maWxlLm1hZT4nLCAnLW9tYWUnLCAnPG91dGZpbGUubWFlPic=

>  <r_lp_tautomer_probability>  (103) 
1

>  <r_epik_Ionization_Penalty>  (103) 
0.00217367

>  <r_epik_Ionization_Penalty_Charging>  (103) 
0

>  <r_epik_Ionization_Penalty_Neutral>  (103) 
0.00217367

>  <r_epik_State_Penalty>  (103) 
0.00149307

>  <r_epik_Charging_Adjusted_Penalty>  (103) 
0.00149307

>  <i_epik_Tot_Q>  (103) 
0

>  <i_epik_Tot_abs_Q>  (103) 
0

>  <s_lp_Force_Field>  (103) 
OPLS3e

>  <r_lp_Energy>  (103) 
44.6332

>  <b_lp_Chiralities_Consistent>  (103) 
1

>  <s_lp_Variant>  (103) 
35:0-1

>  <s_i_glide_gridfile>  (103) 
pfpi4k_grid

>  <i_i_glide_lignum>  (103) 
2

>  <i_i_glide_rotatable_bonds>  (103) 
2

>  <r_i_docking_score>  (103) 
-3.29893

>  <r_i_glide_ligand_efficiency>  (103) 
-0.149952

>  <r_i_glide_ligand_efficiency_sa>  (103) 
-0.42017

>  <r_i_glide_ligand_efficiency_ln>  (103) 
-0.80638

>  <r_i_glide_gscore>  (103) 
-3.29893

>  <r_i_glide_lipo>  (103) 
-0.298277

>  <r_i_glide_hbond>  (103) 
0

>  <r_i_glide_metal>  (103) 
-0

>  <r_i_glide_rewards>  (103) 
-1.38845

>  <r_i_glide_evdw>  (103) 
-20.7204

>  <r_i_glide_ecoul>  (103) 
-3.84123

>  <r_i_glide_erotb>  (103) 
0

>  <r_i_glide_esite>  (103) 
0

>  <r_i_glide_emodel>  (103) 
-29.4674

>  <r_i_glide_energy>  (103) 
-24.5616

>  <r_i_glide_einternal>  (103) 
0.260909

>  <r_i_glide_intrahb_reward>  (103) 
-0

>  <i_i_glide_confnum>  (103) 
2

>  <i_i_glide_posenum>  (103) 
1

>  <r_i_glide_eff_state_penalty>  (103) 
0

>  <ligand_id>  (103) 
35

>  <original_smiles>  (103) 
Oc1ccc2c3c1OC1C(O)C=CCC4C=C(CCCC2)C341

>  <smiles>  (103) 
[H]Oc1c([H])c([H])c2c3c1OC1([H])C([H])(O[H])C([H])=C([H])C([H])([H])C4([H])C([H])=C(C([H])([H])C([H])([H])C([H])([H])C2([H])[H])C314

$$$$
35:0:2
     RDKit          3D

 42 46  0  0  1  0  0  0  0  0999 V2000
   -2.1785    4.2553    3.3418 O   0  0  0  0  0  0  0  0  0  0  0  0
   -1.8819    3.3633    4.3330 C   0  0  0  0  0  0  0  0  0  0  0  0
   -2.5921    3.3451    5.5525 C   0  0  0  0  0  0  0  0  0  0  0  0
   -2.2132    2.4978    6.6224 C   0  0  0  0  0  0  0  0  0  0  0  0
   -1.1392    1.5943    6.4548 C   0  0  0  0  0  0  0  0  0  0  0  0
   -0.5157    1.5914    5.1759 C   0  0  0  0  0  0  0  0  0  0  0  0
   -0.8261    2.4570    4.1300 C   0  0  0  0  0  0  0  0  0  0  0  0
   -0.0362    2.3940    3.0193 O   0  0  0  0  0  0  0  0  0  0  0  0
    0.7397    1.2222    3.1741 C   0  0  1  0  0  0  0  0  0  0  0  0
    2.1148    1.2873    2.4836 C   0  0  1  0  0  0  0  0  0  0  0  0
    3.0160    2.1415    3.1612 O   0  0  0  0  0  0  0  0  0  0  0  0
    2.7601   -0.0759    2.2718 C   0  0  0  0  0  0  0  0  0  0  0  0
    2.3438   -1.2940    2.6788 C   0  0  0  0  0  0  0  0  0  0  0  0
    1.0975   -1.6869    3.4697 C   0  0  0  0  0  0  0  0  0  0  0  0
    0.7626   -0.8546    4.7313 C   0  0  1  0  0  0  0  0  0  0  0  0
    1.9954   -0.6048    5.6015 C   0  0  0  0  0  0  0  0  0  0  0  0
    1.8580    0.7128    5.5122 C   0  0  0  0  0  0  0  0  0  0  0  0
    2.3611    1.8283    6.4165 C   0  0  0  0  0  0  0  0  0  0  0  0
    2.0334    1.6294    7.9117 C   0  0  0  0  0  0  0  0  0  0  0  0
    0.5608    1.7920    8.3136 C   0  0  0  0  0  0  0  0  0  0  0  0
   -0.4410    0.8711    7.5937 C   0  0  0  0  0  0  0  0  0  0  0  0
    0.6150    0.7048    4.6376 C   0  0  2  0  0  0  0  0  0  0  0  0
   -1.6117    4.1197    2.5843 H   0  0  0  0  0  0  0  0  0  0  0  0
   -3.3879    4.0480    5.7172 H   0  0  0  0  0  0  0  0  0  0  0  0
   -2.7047    2.6003    7.5795 H   0  0  0  0  0  0  0  0  0  0  0  0
    0.1450    0.5620    2.5466 H   0  0  0  0  0  0  0  0  0  0  0  0
    1.9424    1.6990    1.4876 H   0  0  0  0  0  0  0  0  0  0  0  0
    3.7224    2.3789    2.5643 H   0  0  0  0  0  0  0  0  0  0  0  0
    3.6712   -0.0279    1.6914 H   0  0  0  0  0  0  0  0  0  0  0  0
    2.9392   -2.1334    2.3644 H   0  0  0  0  0  0  0  0  0  0  0  0
    0.2594   -1.6522    2.7854 H   0  0  0  0  0  0  0  0  0  0  0  0
    1.2089   -2.7408    3.7246 H   0  0  0  0  0  0  0  0  0  0  0  0
   -0.1042   -1.2541    5.2672 H   0  0  0  0  0  0  0  0  0  0  0  0
    2.6197   -1.2696    6.2072 H   0  0  0  0  0  0  0  0  0  0  0  0
    3.4447    1.8464    6.3122 H   0  0  0  0  0  0  0  0  0  0  0  0
    2.0035    2.7876    6.0428 H   0  0  0  0  0  0  0  0  0  0  0  0
    2.3996    0.6626    8.2500 H   0  0  0  0  0  0  0  0  0  0  0  0
    2.6052    2.3685    8.4738 H   0  0  0  0  0  0  0  0  0  0  0  0
    0.5110    1.5715    9.3796 H   0  0  0  0  0  0  0  0  0  0  0  0
    0.2458    2.8365    8.2459 H   0  0  0  0  0  0  0  0  0  0  0  0
   -1.2317    0.7043    8.3124 H   0  0  0  0  0  0  0  0  0  0  0  0
   -0.0557   -0.1224    7.3627 H   0  0  0  0  0  0  0  0  0  0  0  0
  1  2  1  0
  1 23  1  0
  2  7  2  0
  2  3  1  0
  3  4  2  0
  3 24  1  0
  4  5  1  0
  4 25  1  0
  5 21  1  0
  5  6  2  0
  6 22  1  0
  6  7  1  0
  7  8  1  0
  8  9  1  0
  9 22  1  0
  9 10  1  0
  9 26  1  6
 10 11  1  0
 10 12  1  0
 10 27  1  6
 11 28  1  0
 12 13  2  0
 12 29  1  0
 13 14  1  0
 13 30  1  0
 14 15  1  0
 14 31  1  0
 14 32  1  0
 15 22  1  0
 15 16  1  0
 15 33  1  1
 16 17  2  0
 16 34  1  0
 17 18  1  0
 22 17  1  1
 18 19  1  0
 18 35  1  0
 18 36  1  0
 19 20  1  0
 19 37  1  0
 19 38  1  0
 20 21  1  0
 20 39  1  0
 20 40  1  0
 21 41  1  0
 21 42  1  0
M  END
>  <i_m_ct_stereo_status>  (104) 
1

>  <s_m_source_file>  (104) 
/var/tmp/pbs.5076255.sched01/tmpnk13i6y_/41i0yhob8r.sdf

>  <i_m_source_file_index>  (104) 
2

>  <i_lp_mmshare_version>  (104) 
48012

>  <i_f3d_flags>  (104) 
0

>  <s_epik_input>  (104) 
W0NAQF0xMjNjNGM1W2NIXVtjSF1jKFtPSF0pYzRPW0NASF0xW0NAQEhdKFtPSF0pW0NIXT1bQ0hdW0NIMl1bQ0BIXTJbQ0hdPUMzW0NIMl1bQ0gyXVtDSDJdW0NIMl01

>  <s_epik_cmdline>  (104) 
J2VwaWtfcHl0aG9uJywgJy1waHQnLCAnMi4wJywgJy1waCcsICc3LjAnLCAnLXRuJywgJzgnLCAnLW1hJywgJzIwMCcsICctaW1hZScsICc8aW5maWxlLm1hZT4nLCAnLW9tYWUnLCAnPG91dGZpbGUubWFlPic=

>  <r_lp_tautomer_probability>  (104) 
1

>  <r_epik_Ionization_Penalty>  (104) 
0.00217367

>  <r_epik_Ionization_Penalty_Charging>  (104) 
0

>  <r_epik_Ionization_Penalty_Neutral>  (104) 
0.00217367

>  <r_epik_State_Penalty>  (104) 
0.00149307

>  <r_epik_Charging_Adjusted_Penalty>  (104) 
0.00149307

>  <i_epik_Tot_Q>  (104) 
0

>  <i_epik_Tot_abs_Q>  (104) 
0

>  <s_lp_Force_Field>  (104) 
OPLS3e

>  <r_lp_Energy>  (104) 
44.6332

>  <b_lp_Chiralities_Consistent>  (104) 
1

>  <s_lp_Variant>  (104) 
35:0-1

>  <s_i_glide_gridfile>  (104) 
pfpi4k_grid

>  <i_i_glide_lignum>  (104) 
2

>  <i_i_glide_rotatable_bonds>  (104) 
2

>  <r_i_docking_score>  (104) 
-3.29818

>  <r_i_glide_ligand_efficiency>  (104) 
-0.149917

>  <r_i_glide_ligand_efficiency_sa>  (104) 
-0.420075

>  <r_i_glide_ligand_efficiency_ln>  (104) 
-0.806197

>  <r_i_glide_gscore>  (104) 
-3.29818

>  <r_i_glide_lipo>  (104) 
-0.127224

>  <r_i_glide_hbond>  (104) 
0

>  <r_i_glide_metal>  (104) 
-0

>  <r_i_glide_rewards>  (104) 
-1.38845

>  <r_i_glide_evdw>  (104) 
-17.6804

>  <r_i_glide_ecoul>  (104) 
-5.98993

>  <r_i_glide_erotb>  (104) 
0

>  <r_i_glide_esite>  (104) 
0

>  <r_i_glide_emodel>  (104) 
-28.3911

>  <r_i_glide_energy>  (104) 
-23.6703

>  <r_i_glide_einternal>  (104) 
0.424407

>  <r_i_glide_intrahb_reward>  (104) 
-0

>  <i_i_glide_confnum>  (104) 
2

>  <i_i_glide_posenum>  (104) 
33

>  <r_i_glide_eff_state_penalty>  (104) 
0

>  <ligand_id>  (104) 
35

>  <original_smiles>  (104) 
Oc1ccc2c3c1OC1C(O)C=CCC4C=C(CCCC2)C341

>  <smiles>  (104) 
[H]Oc1c([H])c([H])c2c3c1OC1([H])C([H])(O[H])C([H])=C([H])C([H])([H])C4([H])C([H])=C(C([H])([H])C([H])([H])C([H])([H])C2([H])[H])C314

$$$$
36:0:0
     RDKit          3D

 49 53  0  0  1  0  0  0  0  0999 V2000
    5.1194  -10.5371    4.5784 C   0  0  0  0  0  0  0  0  0  0  0  0
    4.9483   -9.1030    3.9956 C   0  0  1  0  0  0  0  0  0  0  0  0
    6.1345   -8.2714    4.5617 C   0  0  0  0  0  0  0  0  0  0  0  0
    6.5118   -7.0057    3.7688 C   0  0  1  0  0  0  0  0  0  0  0  0
    7.7004   -6.4548    4.3079 O   0  0  0  0  0  0  0  0  0  0  0  0
    6.6809   -7.2878    2.2577 C   0  0  2  0  0  0  0  0  0  0  0  0
    7.6271   -8.2139    2.1168 F   0  0  0  0  0  0  0  0  0  0  0  0
    7.0876   -6.0266    1.4978 C   0  0  0  0  0  0  0  0  0  0  0  0
    6.2423   -5.2536    0.7884 C   0  0  0  0  0  0  0  0  0  0  0  0
    4.8081   -5.5741    0.7279 C   0  0  0  0  0  0  0  0  0  0  0  0
    4.0004   -4.8979    0.0918 O   0  0  0  0  0  0  0  0  0  0  0  0
    4.2996   -6.7748    1.5276 C   0  0  0  0  0  0  0  0  0  0  0  0
    5.3732   -7.8863    1.6844 C   0  0  2  0  0  0  0  0  0  0  0  0
    4.9472   -9.1904    2.4429 C   0  0  2  0  0  0  0  0  0  0  0  0
    3.5189   -9.6749    2.1276 C   0  0  2  0  0  0  0  0  0  0  0  0
    3.1297   -9.4557    0.8763 F   0  0  0  0  0  0  0  0  0  0  0  0
    2.6068   -8.9808    3.1474 C   0  0  1  0  0  0  0  0  0  0  0  0
    1.5284   -9.8859    3.8021 C   0  0  2  0  0  0  0  0  0  0  0  0
    0.2128   -9.9945    3.0129 C   0  0  0  0  0  0  0  0  0  0  0  0
   -0.6418   -8.7301    3.0739 C   0  0  0  0  0  0  0  0  0  0  0  0
   -1.3719   -8.4486    2.1230 O   0  0  0  0  0  0  0  0  0  0  0  0
   -0.5960   -7.9224    4.3083 C   0  0  0  0  0  0  0  0  0  0  0  0
   -1.7497   -6.6579    4.4855 Cl  0  0  0  0  0  0  0  0  0  0  0  0
    0.3065   -8.1957    5.2792 C   0  0  0  0  0  0  0  0  0  0  0  0
    0.3481   -7.3117    6.7704 Cl  0  0  0  0  0  0  0  0  0  0  0  0
    1.3437   -9.3154    5.2248 C   0  0  1  0  0  0  0  0  0  0  0  0
    0.9486  -10.2593    6.0707 F   0  0  0  0  0  0  0  0  0  0  0  0
    2.7769   -8.8605    5.5453 C   0  0  0  0  0  0  0  0  0  0  0  0
    3.2568   -8.7967    6.6764 O   0  0  0  0  0  0  0  0  0  0  0  0
    3.5368   -8.4914    4.2718 C   0  0  1  0  0  0  0  0  0  0  0  0
    5.2079  -10.5286    5.6661 H   0  0  0  0  0  0  0  0  0  0  0  0
    6.0313  -11.0056    4.2019 H   0  0  0  0  0  0  0  0  0  0  0  0
    4.2988  -11.2075    4.3255 H   0  0  0  0  0  0  0  0  0  0  0  0
    5.9141   -7.9879    5.5899 H   0  0  0  0  0  0  0  0  0  0  0  0
    7.0230   -8.9043    4.6227 H   0  0  0  0  0  0  0  0  0  0  0  0
    5.7330   -6.2574    3.9067 H   0  0  0  0  0  0  0  0  0  0  0  0
    8.3993   -7.0748    4.1588 H   0  0  0  0  0  0  0  0  0  0  0  0
    8.1385   -5.7698    1.5417 H   0  0  0  0  0  0  0  0  0  0  0  0
    6.5926   -4.3839    0.2522 H   0  0  0  0  0  0  0  0  0  0  0  0
    3.9689   -6.4003    2.4930 H   0  0  0  0  0  0  0  0  0  0  0  0
    3.4215   -7.1538    1.0107 H   0  0  0  0  0  0  0  0  0  0  0  0
    5.5891   -8.2165    0.6674 H   0  0  0  0  0  0  0  0  0  0  0  0
    5.6525   -9.9613    2.1264 H   0  0  0  0  0  0  0  0  0  0  0  0
    3.4806  -10.7586    2.2392 H   0  0  0  0  0  0  0  0  0  0  0  0
    2.1418   -8.1012    2.7006 H   0  0  0  0  0  0  0  0  0  0  0  0
    1.9234  -10.9021    3.9169 H   0  0  0  0  0  0  0  0  0  0  0  0
    0.4286  -10.2372    1.9734 H   0  0  0  0  0  0  0  0  0  0  0  0
   -0.3851  -10.8104    3.4273 H   0  0  0  0  0  0  0  0  0  0  0  0
    3.6021   -7.4038    4.2466 H   0  0  0  0  0  0  0  0  0  0  0  0
  2  1  1  1
  1 31  1  0
  1 32  1  0
  1 33  1  0
  2 14  1  0
  2 30  1  0
  2  3  1  0
  3  4  1  0
  3 34  1  0
  3 35  1  0
  4  5  1  0
  4  6  1  0
  4 36  1  6
  5 37  1  0
  6 13  1  0
  6  7  1  1
  6  8  1  0
  8  9  2  0
  8 38  1  0
  9 10  1  0
  9 39  1  0
 10 11  2  0
 10 12  1  0
 12 13  1  0
 12 40  1  0
 12 41  1  0
 13 14  1  0
 13 42  1  6
 14 15  1  0
 14 43  1  1
 15 16  1  0
 15 17  1  0
 15 44  1  1
 17 30  1  0
 17 18  1  0
 17 45  1  6
 18 26  1  0
 18 19  1  0
 18 46  1  1
 19 20  1  0
 19 47  1  0
 19 48  1  0
 20 21  2  0
 20 22  1  0
 22 23  1  0
 22 24  2  0
 24 25  1  0
 24 26  1  0
 26 27  1  1
 26 28  1  0
 28 29  2  0
 28 30  1  0
 30 49  1  6
M  END
>  <i_m_ct_stereo_status>  (105) 
1

>  <s_m_source_file>  (105) 
/var/tmp/pbs.5076255.sched01/tmpnk13i6y_/41i0yhob8r.sdf

>  <i_m_source_file_index>  (105) 
3

>  <i_lp_mmshare_version>  (105) 
48012

>  <i_f3d_flags>  (105) 
0

>  <s_epik_input>  (105) 
Tz1DKFtDSDJdMSlbQ0hdPVtDSF1bQ0BAXShGKShbQ0BASF0oW0NIMl0yKVtPSF0pW0NASF0xW0NAQEhdKFtDQEBdMjNbQ0gzXSlbQ0BIXShGKVtDQEhdNFtDQEhdNVtDQEBdKEYpKEMoPU8pW0NAQEhdMzQpQyhDbCk9QyhDbClDKD1PKVtDSDJdNQ==

>  <s_epik_cmdline>  (105) 
J2VwaWtfcHl0aG9uJywgJy1waHQnLCAnMi4wJywgJy1waCcsICc3LjAnLCAnLXRuJywgJzgnLCAnLW1hJywgJzIwMCcsICctaW1hZScsICc8aW5maWxlLm1hZT4nLCAnLW9tYWUnLCAnPG91dGZpbGUubWFlPic=

>  <r_lp_tautomer_probability>  (105) 
1

>  <r_epik_Ionization_Penalty>  (105) 
1.53132e-05

>  <r_epik_Ionization_Penalty_Charging>  (105) 
0

>  <r_epik_Ionization_Penalty_Neutral>  (105) 
1.53132e-05

>  <r_epik_State_Penalty>  (105) 
-0

>  <r_epik_Charging_Adjusted_Penalty>  (105) 
0

>  <i_epik_Tot_Q>  (105) 
0

>  <i_epik_Tot_abs_Q>  (105) 
0

>  <s_lp_Force_Field>  (105) 
OPLS3e

>  <r_lp_Energy>  (105) 
38.4999

>  <b_lp_Chiralities_Consistent>  (105) 
1

>  <s_lp_Variant>  (105) 
36:0-1

>  <s_i_glide_gridfile>  (105) 
pfpi4k_grid

>  <i_i_glide_lignum>  (105) 
3

>  <i_i_glide_rotatable_bonds>  (105) 
1

>  <r_i_docking_score>  (105) 
-2.47232

>  <r_i_glide_ligand_efficiency>  (105) 
-0.0824107

>  <r_i_glide_ligand_efficiency_sa>  (105) 
-0.256069

>  <r_i_glide_ligand_efficiency_ln>  (105) 
-0.561738

>  <r_i_glide_gscore>  (105) 
-2.47232

>  <r_i_glide_lipo>  (105) 
-0.363041

>  <r_i_glide_hbond>  (105) 
0

>  <r_i_glide_metal>  (105) 
-0

>  <r_i_glide_rewards>  (105) 
-0.361993

>  <r_i_glide_evdw>  (105) 
-29.0357

>  <r_i_glide_ecoul>  (105) 
-0.460181

>  <r_i_glide_erotb>  (105) 
0

>  <r_i_glide_esite>  (105) 
-0.226476

>  <r_i_glide_emodel>  (105) 
-33.9934

>  <r_i_glide_energy>  (105) 
-29.4958

>  <r_i_glide_einternal>  (105) 
0.0276631

>  <r_i_glide_intrahb_reward>  (105) 
-0

>  <i_i_glide_confnum>  (105) 
2

>  <i_i_glide_posenum>  (105) 
27

>  <r_i_glide_eff_state_penalty>  (105) 
0

>  <ligand_id>  (105) 
36

>  <original_smiles>  (105) 
CC12CC(O)C3(F)C=CC(=O)CC3C1C(F)C1C3CC(=O)C(Cl)=C(Cl)C3(F)C(=O)C12

>  <smiles>  (105) 
[H]OC1([H])C([H])([H])C2(C([H])([H])[H])C3([H])C(=O)C4(F)C(Cl)=C(Cl)C(=O)C([H])([H])C4([H])C3([H])C([H])(F)C2([H])C2([H])C([H])([H])C(=O)C([H])=C([H])C12F

$$$$
36:0:1
     RDKit          3D

 49 53  0  0  1  0  0  0  0  0999 V2000
    4.8794   -6.5344    4.9469 C   0  0  0  0  0  0  0  0  0  0  0  0
    3.5164   -6.7107    4.2142 C   0  0  1  0  0  0  0  0  0  0  0  0
    3.8234   -7.5631    2.9475 C   0  0  0  0  0  0  0  0  0  0  0  0
    2.6279   -8.3183    2.3359 C   0  0  1  0  0  0  0  0  0  0  0  0
    3.0905   -9.1571    1.2933 O   0  0  0  0  0  0  0  0  0  0  0  0
    1.8373   -9.1222    3.3934 C   0  0  2  0  0  0  0  0  0  0  0  0
    2.6777   -9.9922    3.9559 F   0  0  0  0  0  0  0  0  0  0  0  0
    0.6721   -9.8781    2.7639 C   0  0  0  0  0  0  0  0  0  0  0  0
   -0.6116   -9.4755    2.7848 C   0  0  0  0  0  0  0  0  0  0  0  0
   -0.9873   -8.2021    3.4093 C   0  0  0  0  0  0  0  0  0  0  0  0
   -2.1432   -7.7772    3.4300 O   0  0  0  0  0  0  0  0  0  0  0  0
    0.1244   -7.3379    4.0010 C   0  0  0  0  0  0  0  0  0  0  0  0
    1.3299   -8.1780    4.5095 C   0  0  2  0  0  0  0  0  0  0  0  0
    2.5087   -7.3943    5.1842 C   0  0  2  0  0  0  0  0  0  0  0  0
    2.0674   -6.2314    6.0982 C   0  0  2  0  0  0  0  0  0  0  0  0
    0.9418   -6.4545    6.7752 F   0  0  0  0  0  0  0  0  0  0  0  0
    1.9871   -4.9939    5.1841 C   0  0  1  0  0  0  0  0  0  0  0  0
    2.6060   -3.6891    5.7673 C   0  0  2  0  0  0  0  0  0  0  0  0
    1.6385   -2.8556    6.6348 C   0  0  0  0  0  0  0  0  0  0  0  0
    0.5706   -2.1293    5.8216 C   0  0  0  0  0  0  0  0  0  0  0  0
   -0.5252   -1.9209    6.3441 O   0  0  0  0  0  0  0  0  0  0  0  0
    0.9271   -1.6620    4.4687 C   0  0  0  0  0  0  0  0  0  0  0  0
   -0.1750   -0.5997    3.6711 Cl  0  0  0  0  0  0  0  0  0  0  0  0
    2.1106   -2.0155    3.9097 C   0  0  0  0  0  0  0  0  0  0  0  0
    2.5793   -1.4515    2.3362 Cl  0  0  0  0  0  0  0  0  0  0  0  0
    3.1713   -2.9227    4.5554 C   0  0  1  0  0  0  0  0  0  0  0  0
    4.2141   -2.1794    4.9239 F   0  0  0  0  0  0  0  0  0  0  0  0
    3.6232   -4.0863    3.6616 C   0  0  0  0  0  0  0  0  0  0  0  0
    4.5451   -4.0251    2.8503 O   0  0  0  0  0  0  0  0  0  0  0  0
    2.7980   -5.3498    3.9246 C   0  0  1  0  0  0  0  0  0  0  0  0
    5.6499   -6.1335    4.2876 H   0  0  0  0  0  0  0  0  0  0  0  0
    5.2564   -7.4947    5.3044 H   0  0  0  0  0  0  0  0  0  0  0  0
    4.8251   -5.8804    5.8151 H   0  0  0  0  0  0  0  0  0  0  0  0
    4.2671   -6.9233    2.1844 H   0  0  0  0  0  0  0  0  0  0  0  0
    4.5946   -8.2988    3.1870 H   0  0  0  0  0  0  0  0  0  0  0  0
    1.9653   -7.5949    1.8656 H   0  0  0  0  0  0  0  0  0  0  0  0
    3.5143   -9.9188    1.6724 H   0  0  0  0  0  0  0  0  0  0  0  0
    0.9222  -10.8122    2.2799 H   0  0  0  0  0  0  0  0  0  0  0  0
   -1.3869  -10.0700    2.3240 H   0  0  0  0  0  0  0  0  0  0  0  0
    0.4298   -6.6376    3.2286 H   0  0  0  0  0  0  0  0  0  0  0  0
   -0.3125   -6.7582    4.8121 H   0  0  0  0  0  0  0  0  0  0  0  0
    0.9228   -8.8153    5.2970 H   0  0  0  0  0  0  0  0  0  0  0  0
    3.0427   -8.1305    5.7887 H   0  0  0  0  0  0  0  0  0  0  0  0
    2.8268   -6.0904    6.8679 H   0  0  0  0  0  0  0  0  0  0  0  0
    0.9566   -4.8210    4.8718 H   0  0  0  0  0  0  0  0  0  0  0  0
    3.4597   -3.9518    6.3992 H   0  0  0  0  0  0  0  0  0  0  0  0
    1.1542   -3.5022    7.3657 H   0  0  0  0  0  0  0  0  0  0  0  0
    2.2027   -2.1019    7.1912 H   0  0  0  0  0  0  0  0  0  0  0  0
    2.1240   -5.4759    3.0770 H   0  0  0  0  0  0  0  0  0  0  0  0
  2  1  1  1
  1 31  1  0
  1 32  1  0
  1 33  1  0
  2 14  1  0
  2 30  1  0
  2  3  1  0
  3  4  1  0
  3 34  1  0
  3 35  1  0
  4  5  1  0
  4  6  1  0
  4 36  1  6
  5 37  1  0
  6 13  1  0
  6  7  1  1
  6  8  1  0
  8  9  2  0
  8 38  1  0
  9 10  1  0
  9 39  1  0
 10 11  2  0
 10 12  1  0
 12 13  1  0
 12 40  1  0
 12 41  1  0
 13 14  1  0
 13 42  1  1
 14 15  1  0
 14 43  1  1
 15 16  1  0
 15 17  1  0
 15 44  1  1
 17 30  1  0
 17 18  1  0
 17 45  1  6
 18 26  1  0
 18 19  1  0
 18 46  1  1
 19 20  1  0
 19 47  1  0
 19 48  1  0
 20 21  2  0
 20 22  1  0
 22 23  1  0
 22 24  2  0
 24 25  1  0
 24 26  1  0
 26 27  1  1
 26 28  1  0
 28 29  2  0
 28 30  1  0
 30 49  1  6
M  END
>  <i_m_ct_stereo_status>  (106) 
1

>  <s_m_source_file>  (106) 
/var/tmp/pbs.5076255.sched01/tmpnk13i6y_/41i0yhob8r.sdf

>  <i_m_source_file_index>  (106) 
3

>  <i_lp_mmshare_version>  (106) 
48012

>  <i_f3d_flags>  (106) 
0

>  <s_epik_input>  (106) 
Tz1DKFtDSDJdMSlbQ0hdPVtDSF1bQ0BAXShGKShbQ0BASF0oW0NIMl0yKVtPSF0pW0NASF0xW0NAQEhdKFtDQEBdMjNbQ0gzXSlbQ0BIXShGKVtDQEhdNFtDQEhdNVtDQEBdKEYpKEMoPU8pW0NAQEhdMzQpQyhDbCk9QyhDbClDKD1PKVtDSDJdNQ==

>  <s_epik_cmdline>  (106) 
J2VwaWtfcHl0aG9uJywgJy1waHQnLCAnMi4wJywgJy1waCcsICc3LjAnLCAnLXRuJywgJzgnLCAnLW1hJywgJzIwMCcsICctaW1hZScsICc8aW5maWxlLm1hZT4nLCAnLW9tYWUnLCAnPG91dGZpbGUubWFlPic=

>  <r_lp_tautomer_probability>  (106) 
1

>  <r_epik_Ionization_Penalty>  (106) 
1.53132e-05

>  <r_epik_Ionization_Penalty_Charging>  (106) 
0

>  <r_epik_Ionization_Penalty_Neutral>  (106) 
1.53132e-05

>  <r_epik_State_Penalty>  (106) 
-0

>  <r_epik_Charging_Adjusted_Penalty>  (106) 
0

>  <i_epik_Tot_Q>  (106) 
0

>  <i_epik_Tot_abs_Q>  (106) 
0

>  <s_lp_Force_Field>  (106) 
OPLS3e

>  <r_lp_Energy>  (106) 
38.4999

>  <b_lp_Chiralities_Consistent>  (106) 
1

>  <s_lp_Variant>  (106) 
36:0-1

>  <s_i_glide_gridfile>  (106) 
pfpi4k_grid

>  <i_i_glide_lignum>  (106) 
3

>  <i_i_glide_rotatable_bonds>  (106) 
1

>  <r_i_docking_score>  (106) 
-2.16181

>  <r_i_glide_ligand_efficiency>  (106) 
-0.0720605

>  <r_i_glide_ligand_efficiency_sa>  (106) 
-0.223909

>  <r_i_glide_ligand_efficiency_ln>  (106) 
-0.491188

>  <r_i_glide_gscore>  (106) 
-2.16181

>  <r_i_glide_lipo>  (106) 
-0.0653936

>  <r_i_glide_hbond>  (106) 
0

>  <r_i_glide_metal>  (106) 
-0

>  <r_i_glide_rewards>  (106) 
-0.255664

>  <r_i_glide_evdw>  (106) 
-24.6441

>  <r_i_glide_ecoul>  (106) 
-3.51096

>  <r_i_glide_erotb>  (106) 
0

>  <r_i_glide_esite>  (106) 
-0.0819084

>  <r_i_glide_emodel>  (106) 
-31.9312

>  <r_i_glide_energy>  (106) 
-28.1551

>  <r_i_glide_einternal>  (106) 
0.221271

>  <r_i_glide_intrahb_reward>  (106) 
-0

>  <i_i_glide_confnum>  (106) 
1

>  <i_i_glide_posenum>  (106) 
19

>  <r_i_glide_eff_state_penalty>  (106) 
0

>  <ligand_id>  (106) 
36

>  <original_smiles>  (106) 
CC12CC(O)C3(F)C=CC(=O)CC3C1C(F)C1C3CC(=O)C(Cl)=C(Cl)C3(F)C(=O)C12

>  <smiles>  (106) 
[H]OC1([H])C([H])([H])C2(C([H])([H])[H])C3([H])C(=O)C4(F)C(Cl)=C(Cl)C(=O)C([H])([H])C4([H])C3([H])C([H])(F)C2([H])C2([H])C([H])([H])C(=O)C([H])=C([H])C12F

$$$$
36:0:2
     RDKit          3D

 49 53  0  0  1  0  0  0  0  0999 V2000
    4.8710   -6.3757    4.9759 C   0  0  0  0  0  0  0  0  0  0  0  0
    3.5052   -6.5740    4.2534 C   0  0  1  0  0  0  0  0  0  0  0  0
    3.8105   -7.4307    2.9913 C   0  0  0  0  0  0  0  0  0  0  0  0
    2.6207   -8.2057    2.3939 C   0  0  1  0  0  0  0  0  0  0  0  0
    3.1163   -9.0465    1.3678 O   0  0  0  0  0  0  0  0  0  0  0  0
    1.8521   -9.0156    3.4655 C   0  0  2  0  0  0  0  0  0  0  0  0
    2.7032   -9.8669    4.0382 F   0  0  0  0  0  0  0  0  0  0  0  0
    0.6949   -9.7966    2.8496 C   0  0  0  0  0  0  0  0  0  0  0  0
   -0.5948   -9.4118    2.8757 C   0  0  0  0  0  0  0  0  0  0  0  0
   -0.9817   -8.1339    3.4887 C   0  0  0  0  0  0  0  0  0  0  0  0
   -2.1416   -7.7212    3.5109 O   0  0  0  0  0  0  0  0  0  0  0  0
    0.1213   -7.2481    4.0654 C   0  0  0  0  0  0  0  0  0  0  0  0
    1.3396   -8.0674    4.5753 C   0  0  2  0  0  0  0  0  0  0  0  0
    2.5121   -7.2621    5.2355 C   0  0  2  0  0  0  0  0  0  0  0  0
    2.0625   -6.0963    6.1415 C   0  0  2  0  0  0  0  0  0  0  0  0
    0.9437   -6.3269    6.8270 F   0  0  0  0  0  0  0  0  0  0  0  0
    1.9619   -4.8681    5.2171 C   0  0  1  0  0  0  0  0  0  0  0  0
    2.5681   -3.5508    5.7843 C   0  0  2  0  0  0  0  0  0  0  0  0
    1.5957   -2.7212    6.6498 C   0  0  0  0  0  0  0  0  0  0  0  0
    0.5146   -2.0165    5.8366 C   0  0  0  0  0  0  0  0  0  0  0  0
   -0.5821   -1.8186    6.3626 O   0  0  0  0  0  0  0  0  0  0  0  0
    0.8589   -1.5566    4.4782 C   0  0  0  0  0  0  0  0  0  0  0  0
   -0.2541   -0.5077    3.6797 Cl  0  0  0  0  0  0  0  0  0  0  0  0
    2.0425   -1.9016    3.9144 C   0  0  0  0  0  0  0  0  0  0  0  0
    2.4951   -1.3456    2.3327 Cl  0  0  0  0  0  0  0  0  0  0  0  0
    3.1173   -2.7890    4.5625 C   0  0  1  0  0  0  0  0  0  0  0  0
    4.1521   -2.0288    4.9179 F   0  0  0  0  0  0  0  0  0  0  0  0
    3.5781   -3.9544    3.6763 C   0  0  0  0  0  0  0  0  0  0  0  0
    4.4942   -3.8899    2.8593 O   0  0  0  0  0  0  0  0  0  0  0  0
    2.7691   -5.2251    3.9560 C   0  0  1  0  0  0  0  0  0  0  0  0
    5.6333   -5.9715    4.3091 H   0  0  0  0  0  0  0  0  0  0  0  0
    5.2618   -7.3281    5.3402 H   0  0  0  0  0  0  0  0  0  0  0  0
    4.8141   -5.7147    5.8389 H   0  0  0  0  0  0  0  0  0  0  0  0
    4.2463   -6.7959    2.2198 H   0  0  0  0  0  0  0  0  0  0  0  0
    4.5887   -8.1590    3.2303 H   0  0  0  0  0  0  0  0  0  0  0  0
    1.9384   -7.5020    1.9198 H   0  0  0  0  0  0  0  0  0  0  0  0
    2.4600   -9.6954    1.1552 H   0  0  0  0  0  0  0  0  0  0  0  0
    0.9539  -10.7360    2.3781 H   0  0  0  0  0  0  0  0  0  0  0  0
   -1.3677  -10.0191    2.4267 H   0  0  0  0  0  0  0  0  0  0  0  0
    0.4132   -6.5501    3.2860 H   0  0  0  0  0  0  0  0  0  0  0  0
   -0.3178   -6.6661    4.8735 H   0  0  0  0  0  0  0  0  0  0  0  0
    0.9454   -8.7019    5.3716 H   0  0  0  0  0  0  0  0  0  0  0  0
    3.0596   -7.9858    5.8433 H   0  0  0  0  0  0  0  0  0  0  0  0
    2.8242   -5.9393    6.9056 H   0  0  0  0  0  0  0  0  0  0  0  0
    0.9277   -4.7112    4.9089 H   0  0  0  0  0  0  0  0  0  0  0  0
    3.4287   -3.7973    6.4133 H   0  0  0  0  0  0  0  0  0  0  0  0
    1.1238   -3.3669    7.3888 H   0  0  0  0  0  0  0  0  0  0  0  0
    2.1538   -1.9558    7.1961 H   0  0  0  0  0  0  0  0  0  0  0  0
    2.0922   -5.3673    3.1134 H   0  0  0  0  0  0  0  0  0  0  0  0
  2  1  1  1
  1 31  1  0
  1 32  1  0
  1 33  1  0
  2 14  1  0
  2 30  1  0
  2  3  1  0
  3  4  1  0
  3 34  1  0
  3 35  1  0
  4  5  1  0
  4  6  1  0
  4 36  1  6
  5 37  1  0
  6 13  1  0
  6  7  1  1
  6  8  1  0
  8  9  2  0
  8 38  1  0
  9 10  1  0
  9 39  1  0
 10 11  2  0
 10 12  1  0
 12 13  1  0
 12 40  1  0
 12 41  1  0
 13 14  1  0
 13 42  1  1
 14 15  1  0
 14 43  1  1
 15 16  1  0
 15 17  1  0
 15 44  1  1
 17 30  1  0
 17 18  1  0
 17 45  1  6
 18 26  1  0
 18 19  1  0
 18 46  1  1
 19 20  1  0
 19 47  1  0
 19 48  1  0
 20 21  2  0
 20 22  1  0
 22 23  1  0
 22 24  2  0
 24 25  1  0
 24 26  1  0
 26 27  1  1
 26 28  1  0
 28 29  2  0
 28 30  1  0
 30 49  1  6
M  END
>  <i_m_ct_stereo_status>  (107) 
1

>  <s_m_source_file>  (107) 
/var/tmp/pbs.5076255.sched01/tmpnk13i6y_/41i0yhob8r.sdf

>  <i_m_source_file_index>  (107) 
3

>  <i_lp_mmshare_version>  (107) 
48012

>  <i_f3d_flags>  (107) 
0

>  <s_epik_input>  (107) 
Tz1DKFtDSDJdMSlbQ0hdPVtDSF1bQ0BAXShGKShbQ0BASF0oW0NIMl0yKVtPSF0pW0NASF0xW0NAQEhdKFtDQEBdMjNbQ0gzXSlbQ0BIXShGKVtDQEhdNFtDQEhdNVtDQEBdKEYpKEMoPU8pW0NAQEhdMzQpQyhDbCk9QyhDbClDKD1PKVtDSDJdNQ==

>  <s_epik_cmdline>  (107) 
J2VwaWtfcHl0aG9uJywgJy1waHQnLCAnMi4wJywgJy1waCcsICc3LjAnLCAnLXRuJywgJzgnLCAnLW1hJywgJzIwMCcsICctaW1hZScsICc8aW5maWxlLm1hZT4nLCAnLW9tYWUnLCAnPG91dGZpbGUubWFlPic=

>  <r_lp_tautomer_probability>  (107) 
1

>  <r_epik_Ionization_Penalty>  (107) 
1.53132e-05

>  <r_epik_Ionization_Penalty_Charging>  (107) 
0

>  <r_epik_Ionization_Penalty_Neutral>  (107) 
1.53132e-05

>  <r_epik_State_Penalty>  (107) 
-0

>  <r_epik_Charging_Adjusted_Penalty>  (107) 
0

>  <i_epik_Tot_Q>  (107) 
0

>  <i_epik_Tot_abs_Q>  (107) 
0

>  <s_lp_Force_Field>  (107) 
OPLS3e

>  <r_lp_Energy>  (107) 
38.4999

>  <b_lp_Chiralities_Consistent>  (107) 
1

>  <s_lp_Variant>  (107) 
36:0-1

>  <s_i_glide_gridfile>  (107) 
pfpi4k_grid

>  <i_i_glide_lignum>  (107) 
3

>  <i_i_glide_rotatable_bonds>  (107) 
1

>  <r_i_docking_score>  (107) 
-2.13111

>  <r_i_glide_ligand_efficiency>  (107) 
-0.0710371

>  <r_i_glide_ligand_efficiency_sa>  (107) 
-0.220729

>  <r_i_glide_ligand_efficiency_ln>  (107) 
-0.484212

>  <r_i_glide_gscore>  (107) 
-2.13111

>  <r_i_glide_lipo>  (107) 
-0.0426111

>  <r_i_glide_hbond>  (107) 
0

>  <r_i_glide_metal>  (107) 
-0

>  <r_i_glide_rewards>  (107) 
-0.252422

>  <r_i_glide_evdw>  (107) 
-24.7654

>  <r_i_glide_ecoul>  (107) 
-3.4226

>  <r_i_glide_erotb>  (107) 
0

>  <r_i_glide_esite>  (107) 
-0.0844179

>  <r_i_glide_emodel>  (107) 
-31.7562

>  <r_i_glide_energy>  (107) 
-28.1881

>  <r_i_glide_einternal>  (107) 
0.56432

>  <r_i_glide_intrahb_reward>  (107) 
-0

>  <i_i_glide_confnum>  (107) 
1

>  <i_i_glide_posenum>  (107) 
2

>  <r_i_glide_eff_state_penalty>  (107) 
0

>  <ligand_id>  (107) 
36

>  <original_smiles>  (107) 
CC12CC(O)C3(F)C=CC(=O)CC3C1C(F)C1C3CC(=O)C(Cl)=C(Cl)C3(F)C(=O)C12

>  <smiles>  (107) 
[H]OC1([H])C([H])([H])C2(C([H])([H])[H])C3([H])C(=O)C4(F)C(Cl)=C(Cl)C(=O)C([H])([H])C4([H])C3([H])C([H])(F)C2([H])C2([H])C([H])([H])C(=O)C([H])=C([H])C12F

$$$$
37:0:0
     RDKit          3D

 20 21  0  0  1  0  0  0  0  0999 V2000
   -4.2385   -9.6596   -5.3351 C   0  0  0  0  0  0  0  0  0  0  0  0
   -4.8002   -8.3649   -5.1293 O   0  0  0  0  0  0  0  0  0  0  0  0
   -5.8313   -7.9521   -5.9502 C   0  0  0  0  0  0  0  0  0  0  0  0
   -6.1641   -8.7235   -7.0189 N   0  0  0  0  0  0  0  0  0  0  0  0
   -7.1541   -8.3602   -7.8437 N   0  0  0  0  0  0  0  0  0  0  0  0
   -7.8405   -7.2165   -7.6196 C   0  0  0  0  0  0  0  0  0  0  0  0
   -7.5543   -6.3619   -6.5393 C   0  0  0  0  0  0  0  0  0  0  0  0
   -8.2710   -5.1690   -6.3109 C   0  0  0  0  0  0  0  0  0  0  0  0
   -7.9363   -4.3571   -5.2085 C   0  0  0  0  0  0  0  0  0  0  0  0
   -6.8885   -4.7320   -4.3426 C   0  0  0  0  0  0  0  0  0  0  0  0
   -6.1763   -5.9269   -4.5707 C   0  0  0  0  0  0  0  0  0  0  0  0
   -6.5082   -6.7431   -5.6702 C   0  0  0  0  0  0  0  0  0  0  0  0
   -3.4277   -9.8228   -4.6289 H   0  0  0  0  0  0  0  0  0  0  0  0
   -3.7996   -9.7743   -6.3224 H   0  0  0  0  0  0  0  0  0  0  0  0
   -4.9796  -10.4463   -5.1831 H   0  0  0  0  0  0  0  0  0  0  0  0
   -8.6307   -6.9829   -8.3178 H   0  0  0  0  0  0  0  0  0  0  0  0
   -9.0777   -4.8792   -6.9680 H   0  0  0  0  0  0  0  0  0  0  0  0
   -8.4875   -3.4473   -5.0220 H   0  0  0  0  0  0  0  0  0  0  0  0
   -6.6384   -4.1080   -3.4966 H   0  0  0  0  0  0  0  0  0  0  0  0
   -5.3857   -6.2241   -3.9009 H   0  0  0  0  0  0  0  0  0  0  0  0
  1  2  1  0
  1 13  1  0
  1 14  1  0
  1 15  1  0
  2  3  1  0
  3 12  2  0
  3  4  1  0
  4  5  2  0
  5  6  1  0
  6  7  2  0
  6 16  1  0
  7 12  1  0
  7  8  1  0
  8  9  2  0
  8 17  1  0
  9 10  1  0
  9 18  1  0
 10 11  2  0
 10 19  1  0
 11 12  1  0
 11 20  1  0
M  END
>  <i_m_ct_stereo_status>  (108) 
1

>  <s_m_source_file>  (108) 
/var/tmp/pbs.5076255.sched01/tmpnk13i6y_/41i0yhob8r.sdf

>  <i_m_source_file_index>  (108) 
4

>  <i_lp_mmshare_version>  (108) 
48012

>  <i_f3d_flags>  (108) 
0

>  <s_epik_input>  (108) 
W2NIXTFubmMoT1tDSDNdKWMoYzEyKVtjSF1bY0hdW2NIXVtjSF0y

>  <s_epik_cmdline>  (108) 
J2VwaWtfcHl0aG9uJywgJy1waHQnLCAnMi4wJywgJy1waCcsICc3LjAnLCAnLXRuJywgJzgnLCAnLW1hJywgJzIwMCcsICctaW1hZScsICc8aW5maWxlLm1hZT4nLCAnLW9tYWUnLCAnPG91dGZpbGUubWFlPic=

>  <r_lp_tautomer_probability>  (108) 
1

>  <r_epik_Ionization_Penalty>  (108) 
0.000135189

>  <r_epik_Ionization_Penalty_Charging>  (108) 
0

>  <r_epik_Ionization_Penalty_Neutral>  (108) 
0.000135189

>  <r_epik_State_Penalty>  (108) 
-0

>  <r_epik_Charging_Adjusted_Penalty>  (108) 
0

>  <i_epik_Tot_Q>  (108) 
0

>  <i_epik_Tot_abs_Q>  (108) 
0

>  <s_lp_Force_Field>  (108) 
OPLS3e

>  <r_lp_Energy>  (108) 
24.5559

>  <b_lp_Chiralities_Consistent>  (108) 
1

>  <s_lp_Variant>  (108) 
37:0-1

>  <s_i_glide_gridfile>  (108) 
pfpi4k_grid

>  <i_i_glide_lignum>  (108) 
4

>  <i_i_glide_rotatable_bonds>  (108) 
1

>  <r_i_docking_score>  (108) 
-6.22621

>  <r_i_glide_ligand_efficiency>  (108) 
-0.518851

>  <r_i_glide_ligand_efficiency_sa>  (108) 
-1.18787

>  <r_i_glide_ligand_efficiency_ln>  (108) 
-1.78662

>  <r_i_glide_gscore>  (108) 
-6.22621

>  <r_i_glide_lipo>  (108) 
-2.33328

>  <r_i_glide_hbond>  (108) 
0

>  <r_i_glide_metal>  (108) 
-0

>  <r_i_glide_rewards>  (108) 
-2.68977

>  <r_i_glide_evdw>  (108) 
-22.7932

>  <r_i_glide_ecoul>  (108) 
-0.423403

>  <r_i_glide_erotb>  (108) 
0

>  <r_i_glide_esite>  (108) 
0

>  <r_i_glide_emodel>  (108) 
-33.7103

>  <r_i_glide_energy>  (108) 
-23.2166

>  <r_i_glide_einternal>  (108) 
0.129994

>  <r_i_glide_intrahb_reward>  (108) 
-0

>  <i_i_glide_confnum>  (108) 
1

>  <i_i_glide_posenum>  (108) 
8

>  <r_i_glide_eff_state_penalty>  (108) 
0

>  <ligand_id>  (108) 
37

>  <original_smiles>  (108) 
COc1nncc2ccccc12

>  <smiles>  (108) 
[H]c1c([H])c([H])c2c(OC([H])([H])[H])nnc([H])c2c1[H]

$$$$
37:0:1
     RDKit          3D

 20 21  0  0  1  0  0  0  0  0999 V2000
   -7.9806   -8.4119   -9.6460 C   0  0  0  0  0  0  0  0  0  0  0  0
   -7.5444   -7.8599   -8.4071 O   0  0  0  0  0  0  0  0  0  0  0  0
   -8.1624   -6.7197   -7.9302 C   0  0  0  0  0  0  0  0  0  0  0  0
   -9.1684   -6.1652   -8.6572 N   0  0  0  0  0  0  0  0  0  0  0  0
   -9.7911   -5.0572   -8.2337 N   0  0  0  0  0  0  0  0  0  0  0  0
   -9.4208   -4.4728   -7.0730 C   0  0  0  0  0  0  0  0  0  0  0  0
   -8.3774   -4.9755   -6.2743 C   0  0  0  0  0  0  0  0  0  0  0  0
   -7.9813   -4.3463   -5.0795 C   0  0  0  0  0  0  0  0  0  0  0  0
   -6.9248   -4.8906   -4.3214 C   0  0  0  0  0  0  0  0  0  0  0  0
   -6.2700   -6.0622   -4.7551 C   0  0  0  0  0  0  0  0  0  0  0  0
   -6.6688   -6.6946   -5.9510 C   0  0  0  0  0  0  0  0  0  0  0  0
   -7.7233   -6.1481   -6.7147 C   0  0  0  0  0  0  0  0  0  0  0  0
   -7.3932   -9.3051   -9.8611 H   0  0  0  0  0  0  0  0  0  0  0  0
   -7.8325   -7.7159  -10.4741 H   0  0  0  0  0  0  0  0  0  0  0  0
   -9.0302   -8.7111   -9.6103 H   0  0  0  0  0  0  0  0  0  0  0  0
   -9.9604   -3.5811   -6.7886 H   0  0  0  0  0  0  0  0  0  0  0  0
   -8.4890   -3.4559   -4.7370 H   0  0  0  0  0  0  0  0  0  0  0  0
   -6.6269   -4.4116   -3.3989 H   0  0  0  0  0  0  0  0  0  0  0  0
   -5.4682   -6.4821   -4.1653 H   0  0  0  0  0  0  0  0  0  0  0  0
   -6.1657   -7.5898   -6.2855 H   0  0  0  0  0  0  0  0  0  0  0  0
  1  2  1  0
  1 13  1  0
  1 14  1  0
  1 15  1  0
  2  3  1  0
  3 12  2  0
  3  4  1  0
  4  5  2  0
  5  6  1  0
  6  7  2  0
  6 16  1  0
  7 12  1  0
  7  8  1  0
  8  9  2  0
  8 17  1  0
  9 10  1  0
  9 18  1  0
 10 11  2  0
 10 19  1  0
 11 12  1  0
 11 20  1  0
M  END
>  <i_m_ct_stereo_status>  (109) 
1

>  <s_m_source_file>  (109) 
/var/tmp/pbs.5076255.sched01/tmpnk13i6y_/41i0yhob8r.sdf

>  <i_m_source_file_index>  (109) 
4

>  <i_lp_mmshare_version>  (109) 
48012

>  <i_f3d_flags>  (109) 
0

>  <s_epik_input>  (109) 
W2NIXTFubmMoT1tDSDNdKWMoYzEyKVtjSF1bY0hdW2NIXVtjSF0y

>  <s_epik_cmdline>  (109) 
J2VwaWtfcHl0aG9uJywgJy1waHQnLCAnMi4wJywgJy1waCcsICc3LjAnLCAnLXRuJywgJzgnLCAnLW1hJywgJzIwMCcsICctaW1hZScsICc8aW5maWxlLm1hZT4nLCAnLW9tYWUnLCAnPG91dGZpbGUubWFlPic=

>  <r_lp_tautomer_probability>  (109) 
1

>  <r_epik_Ionization_Penalty>  (109) 
0.000135189

>  <r_epik_Ionization_Penalty_Charging>  (109) 
0

>  <r_epik_Ionization_Penalty_Neutral>  (109) 
0.000135189

>  <r_epik_State_Penalty>  (109) 
-0

>  <r_epik_Charging_Adjusted_Penalty>  (109) 
0

>  <i_epik_Tot_Q>  (109) 
0

>  <i_epik_Tot_abs_Q>  (109) 
0

>  <s_lp_Force_Field>  (109) 
OPLS3e

>  <r_lp_Energy>  (109) 
24.5559

>  <b_lp_Chiralities_Consistent>  (109) 
1

>  <s_lp_Variant>  (109) 
37:0-1

>  <s_i_glide_gridfile>  (109) 
pfpi4k_grid

>  <i_i_glide_lignum>  (109) 
4

>  <i_i_glide_rotatable_bonds>  (109) 
1

>  <r_i_docking_score>  (109) 
-6.13389

>  <r_i_glide_ligand_efficiency>  (109) 
-0.511158

>  <r_i_glide_ligand_efficiency_sa>  (109) 
-1.17026

>  <r_i_glide_ligand_efficiency_ln>  (109) 
-1.76013

>  <r_i_glide_gscore>  (109) 
-6.13389

>  <r_i_glide_lipo>  (109) 
-2.34216

>  <r_i_glide_hbond>  (109) 
0

>  <r_i_glide_metal>  (109) 
-0

>  <r_i_glide_rewards>  (109) 
-2.64526

>  <r_i_glide_evdw>  (109) 
-21.2382

>  <r_i_glide_ecoul>  (109) 
-0.510184

>  <r_i_glide_erotb>  (109) 
0

>  <r_i_glide_esite>  (109) 
-0.00803428

>  <r_i_glide_emodel>  (109) 
-32.1721

>  <r_i_glide_energy>  (109) 
-21.7484

>  <r_i_glide_einternal>  (109) 
0.00484988

>  <r_i_glide_intrahb_reward>  (109) 
-0

>  <i_i_glide_confnum>  (109) 
1

>  <i_i_glide_posenum>  (109) 
23

>  <r_i_glide_eff_state_penalty>  (109) 
0

>  <ligand_id>  (109) 
37

>  <original_smiles>  (109) 
COc1nncc2ccccc12

>  <smiles>  (109) 
[H]c1c([H])c([H])c2c(OC([H])([H])[H])nnc([H])c2c1[H]

$$$$
37:0:2
     RDKit          3D

 20 21  0  0  1  0  0  0  0  0999 V2000
    2.1831   -5.4579    0.3427 C   0  0  0  0  0  0  0  0  0  0  0  0
    2.4168   -6.6924    1.0067 O   0  0  0  0  0  0  0  0  0  0  0  0
    1.3752   -7.3009    1.6802 C   0  0  0  0  0  0  0  0  0  0  0  0
    0.1784   -6.6550    1.7522 N   0  0  0  0  0  0  0  0  0  0  0  0
   -0.8483   -7.1950    2.4229 N   0  0  0  0  0  0  0  0  0  0  0  0
   -0.7145   -8.4038    3.0209 C   0  0  0  0  0  0  0  0  0  0  0  0
    0.4908   -9.1319    2.9904 C   0  0  0  0  0  0  0  0  0  0  0  0
    0.6347  -10.3761    3.6340 C   0  0  0  0  0  0  0  0  0  0  0  0
    1.8668  -11.0580    3.5752 C   0  0  0  0  0  0  0  0  0  0  0  0
    2.9535  -10.4898    2.8798 C   0  0  0  0  0  0  0  0  0  0  0  0
    2.8130   -9.2417    2.2379 C   0  0  0  0  0  0  0  0  0  0  0  0
    1.5799   -8.5574    2.2944 C   0  0  0  0  0  0  0  0  0  0  0  0
    3.0995   -5.1435   -0.1583 H   0  0  0  0  0  0  0  0  0  0  0  0
    1.9103   -4.6738    1.0530 H   0  0  0  0  0  0  0  0  0  0  0  0
    1.4089   -5.5429   -0.4221 H   0  0  0  0  0  0  0  0  0  0  0  0
   -1.5793   -8.7881    3.5404 H   0  0  0  0  0  0  0  0  0  0  0  0
   -0.1849  -10.8148    4.1780 H   0  0  0  0  0  0  0  0  0  0  0  0
    1.9759  -12.0197    4.0574 H   0  0  0  0  0  0  0  0  0  0  0  0
    3.8909  -11.0262    2.8160 H   0  0  0  0  0  0  0  0  0  0  0  0
    3.6479   -8.8184    1.6983 H   0  0  0  0  0  0  0  0  0  0  0  0
  1  2  1  0
  1 13  1  0
  1 14  1  0
  1 15  1  0
  2  3  1  0
  3 12  2  0
  3  4  1  0
  4  5  2  0
  5  6  1  0
  6  7  2  0
  6 16  1  0
  7 12  1  0
  7  8  1  0
  8  9  2  0
  8 17  1  0
  9 10  1  0
  9 18  1  0
 10 11  2  0
 10 19  1  0
 11 12  1  0
 11 20  1  0
M  END
>  <i_m_ct_stereo_status>  (110) 
1

>  <s_m_source_file>  (110) 
/var/tmp/pbs.5076255.sched01/tmpnk13i6y_/41i0yhob8r.sdf

>  <i_m_source_file_index>  (110) 
4

>  <i_lp_mmshare_version>  (110) 
48012

>  <i_f3d_flags>  (110) 
0

>  <s_epik_input>  (110) 
W2NIXTFubmMoT1tDSDNdKWMoYzEyKVtjSF1bY0hdW2NIXVtjSF0y

>  <s_epik_cmdline>  (110) 
J2VwaWtfcHl0aG9uJywgJy1waHQnLCAnMi4wJywgJy1waCcsICc3LjAnLCAnLXRuJywgJzgnLCAnLW1hJywgJzIwMCcsICctaW1hZScsICc8aW5maWxlLm1hZT4nLCAnLW9tYWUnLCAnPG91dGZpbGUubWFlPic=

>  <r_lp_tautomer_probability>  (110) 
1

>  <r_epik_Ionization_Penalty>  (110) 
0.000135189

>  <r_epik_Ionization_Penalty_Charging>  (110) 
0

>  <r_epik_Ionization_Penalty_Neutral>  (110) 
0.000135189

>  <r_epik_State_Penalty>  (110) 
-0

>  <r_epik_Charging_Adjusted_Penalty>  (110) 
0

>  <i_epik_Tot_Q>  (110) 
0

>  <i_epik_Tot_abs_Q>  (110) 
0

>  <s_lp_Force_Field>  (110) 
OPLS3e

>  <r_lp_Energy>  (110) 
24.5559

>  <b_lp_Chiralities_Consistent>  (110) 
1

>  <s_lp_Variant>  (110) 
37:0-1

>  <s_i_glide_gridfile>  (110) 
pfpi4k_grid

>  <i_i_glide_lignum>  (110) 
4

>  <i_i_glide_rotatable_bonds>  (110) 
1

>  <r_i_docking_score>  (110) 
-4.16389

>  <r_i_glide_ligand_efficiency>  (110) 
-0.34699

>  <r_i_glide_ligand_efficiency_sa>  (110) 
-0.79441

>  <r_i_glide_ligand_efficiency_ln>  (110) 
-1.19483

>  <r_i_glide_gscore>  (110) 
-4.16389

>  <r_i_glide_lipo>  (110) 
-0.0976198

>  <r_i_glide_hbond>  (110) 
0

>  <r_i_glide_metal>  (110) 
-0

>  <r_i_glide_rewards>  (110) 
-2.25

>  <r_i_glide_evdw>  (110) 
-17.9444

>  <r_i_glide_ecoul>  (110) 
-4.79363

>  <r_i_glide_erotb>  (110) 
0

>  <r_i_glide_esite>  (110) 
-0.2

>  <r_i_glide_emodel>  (110) 
-29.8049

>  <r_i_glide_energy>  (110) 
-22.738

>  <r_i_glide_einternal>  (110) 
0.00595677

>  <r_i_glide_intrahb_reward>  (110) 
-0

>  <i_i_glide_confnum>  (110) 
2

>  <i_i_glide_posenum>  (110) 
34

>  <r_i_glide_eff_state_penalty>  (110) 
0

>  <ligand_id>  (110) 
37

>  <original_smiles>  (110) 
COc1nncc2ccccc12

>  <smiles>  (110) 
[H]c1c([H])c([H])c2c(OC([H])([H])[H])nnc([H])c2c1[H]

$$$$
38:0:0
     RDKit          3D

 35 37  0  0  1  0  0  0  0  0999 V2000
    3.7418   -5.3685    4.0250 C   0  0  0  0  0  0  0  0  0  0  0  0
    4.5794   -5.2658    2.8031 N   0  0  1  0  0  0  0  0  0  0  0  0
    5.9837   -5.6822    3.1092 C   0  0  0  0  0  0  0  0  0  0  0  0
    6.8838   -5.6052    1.8493 C   0  0  0  0  0  0  0  0  0  0  0  0
    6.0571   -5.0905    0.6563 C   0  0  1  0  0  0  0  0  0  0  0  0
    4.8782   -6.0666    0.4433 C   0  0  0  0  0  0  0  0  0  0  0  0
    4.0333   -6.1588    1.7363 C   0  0  0  0  0  0  0  0  0  0  0  0
    5.5031   -3.7045    1.0537 C   0  0  1  0  0  0  0  0  0  0  0  0
    4.7590   -3.1765   -0.0329 O   0  0  0  0  0  0  0  0  0  0  0  0
    5.1867   -2.1223   -0.7563 C   0  0  0  0  0  0  0  0  0  0  0  0
    6.1949   -1.4569   -0.5128 O   0  0  0  0  0  0  0  0  0  0  0  0
    4.3215   -1.8413   -1.8955 C   0  0  0  0  0  0  0  0  0  0  0  0
    4.2737   -0.7392   -2.7067 C   0  0  0  0  0  0  0  0  0  0  0  0
    3.2962   -0.8515   -3.7404 C   0  0  0  0  0  0  0  0  0  0  0  0
    2.6209   -2.0426   -3.7003 C   0  0  0  0  0  0  0  0  0  0  0  0
    3.1534   -3.0435   -2.3881 S   0  0  0  0  0  0  0  0  0  0  0  0
    4.5818   -3.8576    2.2960 C   0  0  0  0  0  0  0  0  0  0  0  0
    4.1300   -4.7365    4.8268 H   0  0  0  0  0  0  0  0  0  0  0  0
    3.7163   -6.3965    4.3954 H   0  0  0  0  0  0  0  0  0  0  0  0
    2.7121   -5.0631    3.8256 H   0  0  0  0  0  0  0  0  0  0  0  0
    6.3950   -5.0552    3.9007 H   0  0  0  0  0  0  0  0  0  0  0  0
    5.9900   -6.7013    3.5000 H   0  0  0  0  0  0  0  0  0  0  0  0
    7.7337   -4.9467    2.0359 H   0  0  0  0  0  0  0  0  0  0  0  0
    7.3016   -6.5877    1.6256 H   0  0  0  0  0  0  0  0  0  0  0  0
    6.6699   -5.0168   -0.2421 H   0  0  0  0  0  0  0  0  0  0  0  0
    4.2532   -5.7464   -0.3921 H   0  0  0  0  0  0  0  0  0  0  0  0
    5.2471   -7.0560    0.1783 H   0  0  0  0  0  0  0  0  0  0  0  0
    4.0130   -7.1905    2.0915 H   0  0  0  0  0  0  0  0  0  0  0  0
    2.9981   -5.8924    1.5177 H   0  0  0  0  0  0  0  0  0  0  0  0
    6.3355   -3.0539    1.3222 H   0  0  0  0  0  0  0  0  0  0  0  0
    4.8918    0.1387   -2.5922 H   0  0  0  0  0  0  0  0  0  0  0  0
    3.1100   -0.0584   -4.4491 H   0  0  0  0  0  0  0  0  0  0  0  0
    1.8133   -2.3843   -4.3233 H   0  0  0  0  0  0  0  0  0  0  0  0
    3.5604   -3.5535    2.0571 H   0  0  0  0  0  0  0  0  0  0  0  0
    4.9238   -3.1772    3.0764 H   0  0  0  0  0  0  0  0  0  0  0  0
  2  1  1  1
  1 18  1  0
  1 19  1  0
  1 20  1  0
  2  7  1  0
  2 17  1  0
  2  3  1  0
  3  4  1  0
  3 21  1  0
  3 22  1  0
  4  5  1  0
  4 23  1  0
  4 24  1  0
  5  6  1  0
  5  8  1  0
  5 25  1  6
  6  7  1  0
  6 26  1  0
  6 27  1  0
  7 28  1  0
  7 29  1  0
  8  9  1  0
  8 17  1  0
  8 30  1  1
  9 10  1  0
 10 11  2  0
 10 12  1  0
 12 16  1  0
 12 13  2  0
 13 14  1  0
 13 31  1  0
 14 15  2  0
 14 32  1  0
 15 16  1  0
 15 33  1  0
 17 34  1  0
 17 35  1  0
M  CHG  1   2   1
M  END
>  <i_m_ct_stereo_status>  (111) 
1

>  <s_m_source_file>  (111) 
/var/tmp/pbs.5076255.sched01/tmpnk13i6y_/41i0yhob8r.sdf

>  <i_m_source_file_index>  (111) 
5

>  <i_lp_mmshare_version>  (111) 
48012

>  <i_f3d_flags>  (111) 
0

>  <s_epik_input>  (111) 
W0NIM11bTkBAK10xMltDSDJdW0NIMl1bQ0BASF0oW0NIMl1bQ0gyXTEpW0NASF0oW0NIMl0yKU9DKD1PKWMzW2NIXVtjSF1bY0hdczM=

>  <s_epik_cmdline>  (111) 
J2VwaWtfcHl0aG9uJywgJy1waHQnLCAnMi4wJywgJy1waCcsICc3LjAnLCAnLXRuJywgJzgnLCAnLW1hJywgJzIwMCcsICctaW1hZScsICc8aW5maWxlLm1hZT4nLCAnLW9tYWUnLCAnPG91dGZpbGUubWFlPic=

>  <r_lp_tautomer_probability>  (111) 
1

>  <r_epik_Ionization_Penalty>  (111) 
0

>  <r_epik_Ionization_Penalty_Charging>  (111) 
0

>  <r_epik_Ionization_Penalty_Neutral>  (111) 
0

>  <r_epik_State_Penalty>  (111) 
-0

>  <r_epik_Charging_Adjusted_Penalty>  (111) 
0

>  <i_epik_Tot_Q>  (111) 
1

>  <i_epik_Tot_abs_Q>  (111) 
1

>  <s_epik_Chemistry_Notes>  (111) 
This compound has an ester and may undergo hydrolysis at high or low pH.

>  <s_lp_Force_Field>  (111) 
OPLS3e

>  <r_lp_Energy>  (111) 
24.5285

>  <b_lp_Chiralities_Consistent>  (111) 
1

>  <s_lp_Variant>  (111) 
38:0-1

>  <s_i_glide_gridfile>  (111) 
pfpi4k_grid

>  <i_i_glide_lignum>  (111) 
5

>  <i_i_glide_rotatable_bonds>  (111) 
3

>  <r_i_docking_score>  (111) 
-3.38095

>  <r_i_glide_ligand_efficiency>  (111) 
-0.19888

>  <r_i_glide_ligand_efficiency_sa>  (111) 
-0.511375

>  <r_i_glide_ligand_efficiency_ln>  (111) 
-0.882015

>  <r_i_glide_gscore>  (111) 
-3.38095

>  <r_i_glide_lipo>  (111) 
-0.933302

>  <r_i_glide_hbond>  (111) 
-0.0843588

>  <r_i_glide_metal>  (111) 
-0

>  <r_i_glide_rewards>  (111) 
-1.6885

>  <r_i_glide_evdw>  (111) 
-20.2902

>  <r_i_glide_ecoul>  (111) 
-3.11648

>  <r_i_glide_erotb>  (111) 
0.826608

>  <r_i_glide_esite>  (111) 
-0.0194176

>  <r_i_glide_emodel>  (111) 
-30.0963

>  <r_i_glide_energy>  (111) 
-23.4067

>  <r_i_glide_einternal>  (111) 
1.71551

>  <r_i_glide_intrahb_reward>  (111) 
-0

>  <i_i_glide_confnum>  (111) 
6

>  <i_i_glide_posenum>  (111) 
16

>  <r_i_glide_eff_state_penalty>  (111) 
0

>  <ligand_id>  (111) 
38

>  <original_smiles>  (111) 
C[N+]12CCC(CC1)C(OC(=O)c1cccs1)C2

>  <smiles>  (111) 
[H]c1sc(C(=O)OC2([H])C3([H])C([H])([H])C([H])([H])[N+](C([H])([H])[H])(C([H])([H])C3([H])[H])C2([H])[H])c([H])c1[H]

$$$$
38:0:1
     RDKit          3D

 35 37  0  0  1  0  0  0  0  0999 V2000
    3.4321   -5.6985    4.0279 C   0  0  0  0  0  0  0  0  0  0  0  0
    4.2763   -5.6075    2.8113 N   0  0  1  0  0  0  0  0  0  0  0  0
    5.6792   -6.0200    3.1258 C   0  0  0  0  0  0  0  0  0  0  0  0
    6.5876   -5.9561    1.8716 C   0  0  0  0  0  0  0  0  0  0  0  0
    5.7684   -5.4534    0.6691 C   0  0  1  0  0  0  0  0  0  0  0  0
    4.5935   -6.4325    0.4593 C   0  0  0  0  0  0  0  0  0  0  0  0
    3.7375   -6.5089    1.7470 C   0  0  0  0  0  0  0  0  0  0  0  0
    5.2086   -4.0662    1.0489 C   0  0  1  0  0  0  0  0  0  0  0  0
    4.4818   -3.5504   -0.0583 O   0  0  0  0  0  0  0  0  0  0  0  0
    4.8512   -2.4150   -0.6870 C   0  0  0  0  0  0  0  0  0  0  0  0
    5.7588   -1.6644   -0.3249 O   0  0  0  0  0  0  0  0  0  0  0  0
    4.0541   -2.1835   -1.8820 C   0  0  0  0  0  0  0  0  0  0  0  0
    3.1411   -3.0090   -2.4842 C   0  0  0  0  0  0  0  0  0  0  0  0
    2.5840   -2.4466   -3.6646 C   0  0  0  0  0  0  0  0  0  0  0  0
    3.0577   -1.1880   -3.9259 C   0  0  0  0  0  0  0  0  0  0  0  0
    4.2142   -0.6684   -2.7346 S   0  0  0  0  0  0  0  0  0  0  0  0
    4.2836   -4.2029    2.2885 C   0  0  0  0  0  0  0  0  0  0  0  0
    3.8180   -5.0594    4.8247 H   0  0  0  0  0  0  0  0  0  0  0  0
    3.4032   -6.7221    4.4047 H   0  0  0  0  0  0  0  0  0  0  0  0
    2.4049   -5.3926    3.8185 H   0  0  0  0  0  0  0  0  0  0  0  0
    6.0877   -5.3832    3.9114 H   0  0  0  0  0  0  0  0  0  0  0  0
    5.6819   -7.0357    3.5268 H   0  0  0  0  0  0  0  0  0  0  0  0
    7.4383   -5.2976    2.0580 H   0  0  0  0  0  0  0  0  0  0  0  0
    7.0031   -6.9423    1.6589 H   0  0  0  0  0  0  0  0  0  0  0  0
    6.3866   -5.3879   -0.2273 H   0  0  0  0  0  0  0  0  0  0  0  0
    3.9710   -6.1128   -0.3767 H   0  0  0  0  0  0  0  0  0  0  0  0
    4.9646   -7.4249    0.1997 H   0  0  0  0  0  0  0  0  0  0  0  0
    3.7105   -7.5377    2.1102 H   0  0  0  0  0  0  0  0  0  0  0  0
    2.7062   -6.2416    1.5174 H   0  0  0  0  0  0  0  0  0  0  0  0
    6.0448   -3.4166    1.3129 H   0  0  0  0  0  0  0  0  0  0  0  0
    2.8582   -3.9824   -2.1196 H   0  0  0  0  0  0  0  0  0  0  0  0
    1.8395   -2.9677   -4.2502 H   0  0  0  0  0  0  0  0  0  0  0  0
    2.7680   -0.5282   -4.7336 H   0  0  0  0  0  0  0  0  0  0  0  0
    3.2648   -3.8968    2.0449 H   0  0  0  0  0  0  0  0  0  0  0  0
    4.6256   -3.5168    3.0635 H   0  0  0  0  0  0  0  0  0  0  0  0
  2  1  1  1
  1 18  1  0
  1 19  1  0
  1 20  1  0
  2  7  1  0
  2 17  1  0
  2  3  1  0
  3  4  1  0
  3 21  1  0
  3 22  1  0
  4  5  1  0
  4 23  1  0
  4 24  1  0
  5  6  1  0
  5  8  1  0
  5 25  1  6
  6  7  1  0
  6 26  1  0
  6 27  1  0
  7 28  1  0
  7 29  1  0
  8  9  1  0
  8 17  1  0
  8 30  1  1
  9 10  1  0
 10 11  2  0
 10 12  1  0
 12 16  1  0
 12 13  2  0
 13 14  1  0
 13 31  1  0
 14 15  2  0
 14 32  1  0
 15 16  1  0
 15 33  1  0
 17 34  1  0
 17 35  1  0
M  CHG  1   2   1
M  END
>  <i_m_ct_stereo_status>  (112) 
1

>  <s_m_source_file>  (112) 
/var/tmp/pbs.5076255.sched01/tmpnk13i6y_/41i0yhob8r.sdf

>  <i_m_source_file_index>  (112) 
5

>  <i_lp_mmshare_version>  (112) 
48012

>  <i_f3d_flags>  (112) 
0

>  <s_epik_input>  (112) 
W0NIM11bTkBAK10xMltDSDJdW0NIMl1bQ0BASF0oW0NIMl1bQ0gyXTEpW0NASF0oW0NIMl0yKU9DKD1PKWMzW2NIXVtjSF1bY0hdczM=

>  <s_epik_cmdline>  (112) 
J2VwaWtfcHl0aG9uJywgJy1waHQnLCAnMi4wJywgJy1waCcsICc3LjAnLCAnLXRuJywgJzgnLCAnLW1hJywgJzIwMCcsICctaW1hZScsICc8aW5maWxlLm1hZT4nLCAnLW9tYWUnLCAnPG91dGZpbGUubWFlPic=

>  <r_lp_tautomer_probability>  (112) 
1

>  <r_epik_Ionization_Penalty>  (112) 
0

>  <r_epik_Ionization_Penalty_Charging>  (112) 
0

>  <r_epik_Ionization_Penalty_Neutral>  (112) 
0

>  <r_epik_State_Penalty>  (112) 
-0

>  <r_epik_Charging_Adjusted_Penalty>  (112) 
0

>  <i_epik_Tot_Q>  (112) 
1

>  <i_epik_Tot_abs_Q>  (112) 
1

>  <s_epik_Chemistry_Notes>  (112) 
This compound has an ester and may undergo hydrolysis at high or low pH.

>  <s_lp_Force_Field>  (112) 
OPLS3e

>  <r_lp_Energy>  (112) 
24.5285

>  <b_lp_Chiralities_Consistent>  (112) 
1

>  <s_lp_Variant>  (112) 
38:0-1

>  <s_i_glide_gridfile>  (112) 
pfpi4k_grid

>  <i_i_glide_lignum>  (112) 
5

>  <i_i_glide_rotatable_bonds>  (112) 
3

>  <r_i_docking_score>  (112) 
-3.2879

>  <r_i_glide_ligand_efficiency>  (112) 
-0.193406

>  <r_i_glide_ligand_efficiency_sa>  (112) 
-0.4973

>  <r_i_glide_ligand_efficiency_ln>  (112) 
-0.857739

>  <r_i_glide_gscore>  (112) 
-3.2879

>  <r_i_glide_lipo>  (112) 
-0.90761

>  <r_i_glide_hbond>  (112) 
0

>  <r_i_glide_metal>  (112) 
-0

>  <r_i_glide_rewards>  (112) 
-1.6885

>  <r_i_glide_evdw>  (112) 
-20.5487

>  <r_i_glide_ecoul>  (112) 
-3.18732

>  <r_i_glide_erotb>  (112) 
0.826608

>  <r_i_glide_esite>  (112) 
-0.0128611

>  <r_i_glide_emodel>  (112) 
-30.6426

>  <r_i_glide_energy>  (112) 
-23.736

>  <r_i_glide_einternal>  (112) 
0.877167

>  <r_i_glide_intrahb_reward>  (112) 
-0

>  <i_i_glide_confnum>  (112) 
5

>  <i_i_glide_posenum>  (112) 
2

>  <r_i_glide_eff_state_penalty>  (112) 
0

>  <ligand_id>  (112) 
38

>  <original_smiles>  (112) 
C[N+]12CCC(CC1)C(OC(=O)c1cccs1)C2

>  <smiles>  (112) 
[H]c1sc(C(=O)OC2([H])C3([H])C([H])([H])C([H])([H])[N+](C([H])([H])[H])(C([H])([H])C3([H])[H])C2([H])[H])c([H])c1[H]

$$$$
38:0:2
     RDKit          3D

 35 37  0  0  1  0  0  0  0  0999 V2000
    2.8418  -11.8791    4.2956 C   0  0  0  0  0  0  0  0  0  0  0  0
    1.9887  -10.7814    3.7768 N   0  0  1  0  0  0  0  0  0  0  0  0
    0.6947  -11.3320    3.2723 C   0  0  0  0  0  0  0  0  0  0  0  0
   -0.2236  -10.2090    2.7301 C   0  0  0  0  0  0  0  0  0  0  0  0
    0.4773   -8.8455    2.8672 C   0  0  1  0  0  0  0  0  0  0  0  0
    0.8169   -8.6318    4.3570 C   0  0  0  0  0  0  0  0  0  0  0  0
    1.6975   -9.8008    4.8674 C   0  0  0  0  0  0  0  0  0  0  0  0
    1.7976   -8.9299    2.0653 C   0  0  1  0  0  0  0  0  0  0  0  0
    2.5319   -7.7131    2.0868 O   0  0  0  0  0  0  0  0  0  0  0  0
    2.1355   -6.6352    1.3777 C   0  0  0  0  0  0  0  0  0  0  0  0
    1.0585   -6.5269    0.7825 O   0  0  0  0  0  0  0  0  0  0  0  0
    3.1505   -5.5921    1.3918 C   0  0  0  0  0  0  0  0  0  0  0  0
    4.3087   -5.5150    2.1221 C   0  0  0  0  0  0  0  0  0  0  0  0
    5.0612   -4.3388    1.8375 C   0  0  0  0  0  0  0  0  0  0  0  0
    4.4668   -3.5413    0.8941 C   0  0  0  0  0  0  0  0  0  0  0  0
    2.9728   -4.2251    0.3191 S   0  0  0  0  0  0  0  0  0  0  0  0
    2.6864  -10.0569    2.6643 C   0  0  0  0  0  0  0  0  0  0  0  0
    3.0539  -12.6165    3.5174 H   0  0  0  0  0  0  0  0  0  0  0  0
    2.3479  -12.3964    5.1213 H   0  0  0  0  0  0  0  0  0  0  0  0
    3.7964  -11.5013    4.6687 H   0  0  0  0  0  0  0  0  0  0  0  0
    0.8755  -12.0728    2.4930 H   0  0  0  0  0  0  0  0  0  0  0  0
    0.1972  -11.8656    4.0831 H   0  0  0  0  0  0  0  0  0  0  0  0
   -0.4882  -10.4141    1.6919 H   0  0  0  0  0  0  0  0  0  0  0  0
   -1.1650  -10.1907    3.2774 H   0  0  0  0  0  0  0  0  0  0  0  0
   -0.1777   -8.0529    2.4998 H   0  0  0  0  0  0  0  0  0  0  0  0
    1.3382   -7.6832    4.4988 H   0  0  0  0  0  0  0  0  0  0  0  0
   -0.0982   -8.5712    4.9470 H   0  0  0  0  0  0  0  0  0  0  0  0
    1.1987  -10.3083    5.6955 H   0  0  0  0  0  0  0  0  0  0  0  0
    2.6322   -9.4089    5.2704 H   0  0  0  0  0  0  0  0  0  0  0  0
    1.5922   -9.1707    1.0228 H   0  0  0  0  0  0  0  0  0  0  0  0
    4.6386   -6.2551    2.8382 H   0  0  0  0  0  0  0  0  0  0  0  0
    6.0001   -4.1282    2.3278 H   0  0  0  0  0  0  0  0  0  0  0  0
    4.8118   -2.5997    0.4939 H   0  0  0  0  0  0  0  0  0  0  0  0
    3.6290   -9.6492    3.0337 H   0  0  0  0  0  0  0  0  0  0  0  0
    2.9640  -10.7518    1.8738 H   0  0  0  0  0  0  0  0  0  0  0  0
  2  1  1  1
  1 18  1  0
  1 19  1  0
  1 20  1  0
  2  7  1  0
  2 17  1  0
  2  3  1  0
  3  4  1  0
  3 21  1  0
  3 22  1  0
  4  5  1  0
  4 23  1  0
  4 24  1  0
  5  6  1  0
  5  8  1  0
  5 25  1  6
  6  7  1  0
  6 26  1  0
  6 27  1  0
  7 28  1  0
  7 29  1  0
  8  9  1  0
  8 17  1  0
  8 30  1  6
  9 10  1  0
 10 11  2  0
 10 12  1  0
 12 16  1  0
 12 13  2  0
 13 14  1  0
 13 31  1  0
 14 15  2  0
 14 32  1  0
 15 16  1  0
 15 33  1  0
 17 34  1  0
 17 35  1  0
M  CHG  1   2   1
M  END
>  <i_m_ct_stereo_status>  (113) 
1

>  <s_m_source_file>  (113) 
/var/tmp/pbs.5076255.sched01/tmpnk13i6y_/41i0yhob8r.sdf

>  <i_m_source_file_index>  (113) 
5

>  <i_lp_mmshare_version>  (113) 
48012

>  <i_f3d_flags>  (113) 
0

>  <s_epik_input>  (113) 
W0NIM11bTkBAK10xMltDSDJdW0NIMl1bQ0BASF0oW0NIMl1bQ0gyXTEpW0NASF0oW0NIMl0yKU9DKD1PKWMzW2NIXVtjSF1bY0hdczM=

>  <s_epik_cmdline>  (113) 
J2VwaWtfcHl0aG9uJywgJy1waHQnLCAnMi4wJywgJy1waCcsICc3LjAnLCAnLXRuJywgJzgnLCAnLW1hJywgJzIwMCcsICctaW1hZScsICc8aW5maWxlLm1hZT4nLCAnLW9tYWUnLCAnPG91dGZpbGUubWFlPic=

>  <r_lp_tautomer_probability>  (113) 
1

>  <r_epik_Ionization_Penalty>  (113) 
0

>  <r_epik_Ionization_Penalty_Charging>  (113) 
0

>  <r_epik_Ionization_Penalty_Neutral>  (113) 
0

>  <r_epik_State_Penalty>  (113) 
-0

>  <r_epik_Charging_Adjusted_Penalty>  (113) 
0

>  <i_epik_Tot_Q>  (113) 
1

>  <i_epik_Tot_abs_Q>  (113) 
1

>  <s_epik_Chemistry_Notes>  (113) 
This compound has an ester and may undergo hydrolysis at high or low pH.

>  <s_lp_Force_Field>  (113) 
OPLS3e

>  <r_lp_Energy>  (113) 
24.5285

>  <b_lp_Chiralities_Consistent>  (113) 
1

>  <s_lp_Variant>  (113) 
38:0-1

>  <s_i_glide_gridfile>  (113) 
pfpi4k_grid

>  <i_i_glide_lignum>  (113) 
5

>  <i_i_glide_rotatable_bonds>  (113) 
3

>  <r_i_docking_score>  (113) 
-2.97286

>  <r_i_glide_ligand_efficiency>  (113) 
-0.174874

>  <r_i_glide_ligand_efficiency_sa>  (113) 
-0.44965

>  <r_i_glide_ligand_efficiency_ln>  (113) 
-0.775552

>  <r_i_glide_gscore>  (113) 
-2.97286

>  <r_i_glide_lipo>  (113) 
-0.250926

>  <r_i_glide_hbond>  (113) 
-0.09541

>  <r_i_glide_metal>  (113) 
-0

>  <r_i_glide_rewards>  (113) 
-1.6885

>  <r_i_glide_evdw>  (113) 
-18.1355

>  <r_i_glide_ecoul>  (113) 
-5.57165

>  <r_i_glide_erotb>  (113) 
0.826608

>  <r_i_glide_esite>  (113) 
-0.0221066

>  <r_i_glide_emodel>  (113) 
-29.8249

>  <r_i_glide_energy>  (113) 
-23.7071

>  <r_i_glide_einternal>  (113) 
0.807584

>  <r_i_glide_intrahb_reward>  (113) 
-0

>  <i_i_glide_confnum>  (113) 
5

>  <i_i_glide_posenum>  (113) 
30

>  <r_i_glide_eff_state_penalty>  (113) 
0

>  <ligand_id>  (113) 
38

>  <original_smiles>  (113) 
C[N+]12CCC(CC1)C(OC(=O)c1cccs1)C2

>  <smiles>  (113) 
[H]c1sc(C(=O)OC2([H])C3([H])C([H])([H])C([H])([H])[N+](C([H])([H])[H])(C([H])([H])C3([H])[H])C2([H])[H])c([H])c1[H]

$$$$
39:0:0
     RDKit          3D

 46 52  0  0  1  0  0  0  0  0999 V2000
    7.0588   -4.0020    1.2835 C   0  0  0  0  0  0  0  0  0  0  0  0
    6.1509   -3.3644    2.1919 O   0  0  0  0  0  0  0  0  0  0  0  0
    4.7645   -3.6650    2.0705 C   0  0  2  0  0  0  0  0  0  0  0  0
    4.2784   -3.2015    0.5593 C   0  0  0  0  0  0  0  0  0  0  0  0
    3.2645   -3.7845   -0.2635 C   0  0  0  0  0  0  0  0  0  0  0  0
    3.2330   -2.9948   -1.4482 C   0  0  0  0  0  0  0  0  0  0  0  0
    2.4812   -3.0575   -2.6382 C   0  0  0  0  0  0  0  0  0  0  0  0
    2.6359   -2.0995   -3.6591 C   0  0  0  0  0  0  0  0  0  0  0  0
    3.5562   -1.0416   -3.5180 C   0  0  0  0  0  0  0  0  0  0  0  0
    4.3224   -0.9608   -2.3417 C   0  0  0  0  0  0  0  0  0  0  0  0
    4.1595   -1.9224   -1.3188 C   0  0  0  0  0  0  0  0  0  0  0  0
    4.7690   -2.0508   -0.0760 N   0  0  0  0  0  0  0  0  0  0  0  0
    5.7374   -1.0956    0.4416 C   0  0  0  0  0  0  0  0  0  0  0  0
    2.3861   -4.9055    0.0268 O   0  0  0  0  0  0  0  0  0  0  0  0
    2.7890   -6.1851    0.7772 C   0  0  1  0  0  0  0  0  0  0  0  0
    2.6158   -6.8492    2.2187 C   0  0  0  0  0  0  0  0  0  0  0  0
    3.4735   -5.9873    3.3122 C   0  0  2  0  0  0  0  0  0  0  0  0
    2.6599   -4.8187    3.8452 C   0  0  1  0  0  0  0  0  0  0  0  0
    3.5889   -3.6940    4.4202 C   0  0  0  0  0  0  0  0  0  0  0  0
    3.9671   -2.8546    3.1623 C   0  0  2  0  0  0  0  0  0  0  0  0
    2.5767   -2.8720    2.6232 C   0  0  0  0  0  0  0  0  0  0  0  0
    1.8462   -1.9118    2.3990 O   0  0  0  0  0  0  0  0  0  0  0  0
    2.2433   -4.3280    2.4775 C   0  0  1  0  0  0  0  0  0  0  0  0
    3.3492   -5.2789    1.6967 C   0  0  1  0  0  0  0  0  0  0  0  0
    4.5528   -5.2719    2.4697 C   0  0  1  0  0  0  0  0  0  0  0  0
    8.0774   -3.6804    1.4985 H   0  0  0  0  0  0  0  0  0  0  0  0
    6.8676   -3.7358    0.2447 H   0  0  0  0  0  0  0  0  0  0  0  0
    7.0745   -5.0888    1.3454 H   0  0  0  0  0  0  0  0  0  0  0  0
    1.7563   -3.8503   -2.7499 H   0  0  0  0  0  0  0  0  0  0  0  0
    2.0092   -2.1539   -4.5349 H   0  0  0  0  0  0  0  0  0  0  0  0
    3.6554   -0.2904   -4.2932 H   0  0  0  0  0  0  0  0  0  0  0  0
    5.0049   -0.1436   -2.2094 H   0  0  0  0  0  0  0  0  0  0  0  0
    5.5133   -0.0892    0.0840 H   0  0  0  0  0  0  0  0  0  0  0  0
    6.7392   -1.3630    0.1055 H   0  0  0  0  0  0  0  0  0  0  0  0
    5.7225   -1.0608    1.5318 H   0  0  0  0  0  0  0  0  0  0  0  0
    3.4504   -6.8163    0.1658 H   0  0  0  0  0  0  0  0  0  0  0  0
    1.5648   -6.9611    2.5013 H   0  0  0  0  0  0  0  0  0  0  0  0
    3.0174   -7.8631    2.1749 H   0  0  0  0  0  0  0  0  0  0  0  0
    3.8901   -6.5956    4.1142 H   0  0  0  0  0  0  0  0  0  0  0  0
    1.8292   -5.1110    4.4916 H   0  0  0  0  0  0  0  0  0  0  0  0
    3.0304   -3.0837    5.1369 H   0  0  0  0  0  0  0  0  0  0  0  0
    4.4576   -4.0893    4.9508 H   0  0  0  0  0  0  0  0  0  0  0  0
    4.3204   -1.8387    3.3654 H   0  0  0  0  0  0  0  0  0  0  0  0
    1.2009   -4.5313    2.2449 H   0  0  0  0  0  0  0  0  0  0  0  0
    4.1711   -5.3513    0.9607 H   0  0  0  0  0  0  0  0  0  0  0  0
    5.3460   -5.9797    2.2102 H   0  0  0  0  0  0  0  0  0  0  0  0
  1  2  1  0
  1 26  1  0
  1 27  1  0
  1 28  1  0
  3  2  1  6
  3 20  1  0
  3 25  1  0
  3  4  1  0
  4 12  1  0
  4  5  2  0
  5  6  1  0
  5 14  1  0
  6 11  2  0
  6  7  1  0
  7  8  2  0
  7 29  1  0
  8  9  1  0
  8 30  1  0
  9 10  2  0
  9 31  1  0
 10 11  1  0
 10 32  1  0
 11 12  1  0
 12 13  1  0
 13 33  1  0
 13 34  1  0
 13 35  1  0
 14 15  1  0
 15 24  1  0
 15 16  1  0
 15 36  1  6
 16 17  1  0
 16 37  1  0
 16 38  1  0
 17 25  1  0
 17 18  1  0
 17 39  1  1
 18 23  1  0
 18 19  1  0
 18 40  1  1
 19 20  1  0
 19 41  1  0
 19 42  1  0
 20 21  1  0
 20 43  1  1
 21 22  2  0
 21 23  1  0
 23 24  1  0
 23 44  1  6
 24 25  1  0
 24 45  1  6
 25 46  1  6
M  END
>  <i_m_ct_stereo_status>  (114) 
1

>  <s_m_source_file>  (114) 
/var/tmp/pbs.5076255.sched01/tmpnk13i6y_/41i0yhob8r.sdf

>  <i_m_source_file_index>  (114) 
6

>  <i_lp_mmshare_version>  (114) 
48012

>  <i_f3d_flags>  (114) 
0

>  <s_epik_input>  (114) 
W2NIXTFbY0hdW2NIXVtjSF1jKG4yW0NIM10pYzFjKGMyW0NAQF0zNE9bQ0gzXSlPW0NASF01W0NIXTZbQ0BIXTdbQ0BASF0oW0NAQEhdKFtDSDJdNSlbQ0BIXTQ2KVtDSDJdW0NAQEhdM0M3PU8=

>  <s_epik_cmdline>  (114) 
J2VwaWtfcHl0aG9uJywgJy1waHQnLCAnMi4wJywgJy1waCcsICc3LjAnLCAnLXRuJywgJzgnLCAnLW1hJywgJzIwMCcsICctaW1hZScsICc8aW5maWxlLm1hZT4nLCAnLW9tYWUnLCAnPG91dGZpbGUubWFlPic=

>  <r_lp_tautomer_probability>  (114) 
1

>  <r_epik_Ionization_Penalty>  (114) 
4.6208e-11

>  <r_epik_Ionization_Penalty_Charging>  (114) 
0

>  <r_epik_Ionization_Penalty_Neutral>  (114) 
4.6208e-11

>  <r_epik_State_Penalty>  (114) 
-0

>  <r_epik_Charging_Adjusted_Penalty>  (114) 
0

>  <i_epik_Tot_Q>  (114) 
0

>  <i_epik_Tot_abs_Q>  (114) 
0

>  <s_lp_Force_Field>  (114) 
OPLS3e

>  <r_lp_Energy>  (114) 
321.402

>  <b_lp_Chiralities_Consistent>  (114) 
1

>  <s_lp_Variant>  (114) 
39:0-1

>  <s_i_glide_gridfile>  (114) 
pfpi4k_grid

>  <i_i_glide_lignum>  (114) 
6

>  <i_i_glide_rotatable_bonds>  (114) 
1

>  <r_i_docking_score>  (114) 
-2.95997

>  <r_i_glide_ligand_efficiency>  (114) 
-0.118399

>  <r_i_glide_ligand_efficiency_sa>  (114) 
-0.3462

>  <r_i_glide_ligand_efficiency_ln>  (114) 
-0.701602

>  <r_i_glide_gscore>  (114) 
-2.95997

>  <r_i_glide_lipo>  (114) 
-0.731672

>  <r_i_glide_hbond>  (114) 
0

>  <r_i_glide_metal>  (114) 
-0

>  <r_i_glide_rewards>  (114) 
-1.1223

>  <r_i_glide_evdw>  (114) 
-21.84

>  <r_i_glide_ecoul>  (114) 
-0.0152505

>  <r_i_glide_erotb>  (114) 
0

>  <r_i_glide_esite>  (114) 
-0.0117131

>  <r_i_glide_emodel>  (114) 
-25.5773

>  <r_i_glide_energy>  (114) 
-21.8552

>  <r_i_glide_einternal>  (114) 
0.770039

>  <r_i_glide_intrahb_reward>  (114) 
-0

>  <i_i_glide_confnum>  (114) 
2

>  <i_i_glide_posenum>  (114) 
2

>  <r_i_glide_eff_state_penalty>  (114) 
0

>  <ligand_id>  (114) 
39

>  <original_smiles>  (114) 
COC12c3c(c4ccccc4n3C)OC3CC4C5CC1C(=O)C5C3C42

>  <smiles>  (114) 
[H]c1c([H])c([H])c2c(c1[H])c1c(n2C([H])([H])[H])C2(OC([H])([H])[H])C3([H])C(=O)C4([H])C([H])(C3([H])[H])C3([H])C([H])([H])C([H])(O1)C4([H])C23[H]

$$$$
39:0:1
     RDKit          3D

 46 52  0  0  1  0  0  0  0  0999 V2000
    3.1154   -0.0056    1.2625 C   0  0  0  0  0  0  0  0  0  0  0  0
    4.3754   -0.5250    0.8154 O   0  0  0  0  0  0  0  0  0  0  0  0
    4.3534   -1.8151    0.1893 C   0  0  2  0  0  0  0  0  0  0  0  0
    3.6786   -2.9073    1.2411 C   0  0  0  0  0  0  0  0  0  0  0  0
    2.8941   -4.0777    0.9371 C   0  0  0  0  0  0  0  0  0  0  0  0
    2.6073   -4.7046    2.1866 C   0  0  0  0  0  0  0  0  0  0  0  0
    1.8765   -5.8574    2.5540 C   0  0  0  0  0  0  0  0  0  0  0  0
    1.7571   -6.2472    3.9011 C   0  0  0  0  0  0  0  0  0  0  0  0
    2.3761   -5.4882    4.9118 C   0  0  0  0  0  0  0  0  0  0  0  0
    3.1149   -4.3412    4.5708 C   0  0  0  0  0  0  0  0  0  0  0  0
    3.2312   -3.9538    3.2208 C   0  0  0  0  0  0  0  0  0  0  0  0
    3.9064   -2.8955    2.6237 N   0  0  0  0  0  0  0  0  0  0  0  0
    4.7187   -1.9383    3.3642 C   0  0  0  0  0  0  0  0  0  0  0  0
    2.4881   -4.6068   -0.3421 O   0  0  0  0  0  0  0  0  0  0  0  0
    2.1182   -3.7861   -1.6042 C   0  0  1  0  0  0  0  0  0  0  0  0
    2.7486   -3.2806   -2.9934 C   0  0  0  0  0  0  0  0  0  0  0  0
    3.9378   -2.1988   -2.6932 C   0  0  2  0  0  0  0  0  0  0  0  0
    5.2662   -2.9036   -2.4456 C   0  0  1  0  0  0  0  0  0  0  0  0
    6.2409   -1.9930   -1.6292 C   0  0  0  0  0  0  0  0  0  0  0  0
    5.8367   -2.2478   -0.1504 C   0  0  2  0  0  0  0  0  0  0  0  0
    5.7199   -3.7269   -0.3410 C   0  0  0  0  0  0  0  0  0  0  0  0
    6.3411   -4.6118    0.2432 O   0  0  0  0  0  0  0  0  0  0  0  0
    4.7010   -3.8809   -1.4380 C   0  0  1  0  0  0  0  0  0  0  0  0
    3.2790   -3.0443   -1.2822 C   0  0  1  0  0  0  0  0  0  0  0  0
    3.5998   -1.6433   -1.2883 C   0  0  1  0  0  0  0  0  0  0  0  0
    3.2773    0.9625    1.7351 H   0  0  0  0  0  0  0  0  0  0  0  0
    2.6305   -0.6316    2.0091 H   0  0  0  0  0  0  0  0  0  0  0  0
    2.3895    0.1433    0.4724 H   0  0  0  0  0  0  0  0  0  0  0  0
    1.4154   -6.4496    1.7799 H   0  0  0  0  0  0  0  0  0  0  0  0
    1.1999   -7.1381    4.1552 H   0  0  0  0  0  0  0  0  0  0  0  0
    2.2908   -5.7908    5.9457 H   0  0  0  0  0  0  0  0  0  0  0  0
    3.5994   -3.7643    5.3384 H   0  0  0  0  0  0  0  0  0  0  0  0
    5.1820   -2.4233    4.2222 H   0  0  0  0  0  0  0  0  0  0  0  0
    4.0894   -1.1253    3.7299 H   0  0  0  0  0  0  0  0  0  0  0  0
    5.5170   -1.5289    2.7437 H   0  0  0  0  0  0  0  0  0  0  0  0
    1.1210   -3.3373   -1.4955 H   0  0  0  0  0  0  0  0  0  0  0  0
    3.0931   -4.1007   -3.6283 H   0  0  0  0  0  0  0  0  0  0  0  0
    1.9528   -2.7887   -3.5590 H   0  0  0  0  0  0  0  0  0  0  0  0
    4.0147   -1.4183   -3.4511 H   0  0  0  0  0  0  0  0  0  0  0  0
    5.6988   -3.3636   -3.3354 H   0  0  0  0  0  0  0  0  0  0  0  0
    7.2761   -2.2995   -1.8071 H   0  0  0  0  0  0  0  0  0  0  0  0
    6.1452   -0.9487   -1.9111 H   0  0  0  0  0  0  0  0  0  0  0  0
    6.5840   -1.9846    0.5994 H   0  0  0  0  0  0  0  0  0  0  0  0
    4.6154   -4.8985   -1.8158 H   0  0  0  0  0  0  0  0  0  0  0  0
    2.5464   -2.5692   -0.6099 H   0  0  0  0  0  0  0  0  0  0  0  0
    2.7970   -0.9041   -1.3727 H   0  0  0  0  0  0  0  0  0  0  0  0
  1  2  1  0
  1 26  1  0
  1 27  1  0
  1 28  1  0
  3  2  1  1
  3 20  1  0
  3 25  1  0
  3  4  1  0
  4 12  1  0
  4  5  2  0
  5  6  1  0
  5 14  1  0
  6 11  2  0
  6  7  1  0
  7  8  2  0
  7 29  1  0
  8  9  1  0
  8 30  1  0
  9 10  2  0
  9 31  1  0
 10 11  1  0
 10 32  1  0
 11 12  1  0
 12 13  1  0
 13 33  1  0
 13 34  1  0
 13 35  1  0
 14 15  1  0
 15 24  1  0
 15 16  1  0
 15 36  1  1
 16 17  1  0
 16 37  1  0
 16 38  1  0
 17 25  1  0
 17 18  1  0
 17 39  1  6
 18 23  1  0
 18 19  1  0
 18 40  1  6
 19 20  1  0
 19 41  1  0
 19 42  1  0
 20 21  1  0
 20 43  1  1
 21 22  2  0
 21 23  1  0
 23 24  1  0
 23 44  1  6
 24 25  1  0
 24 45  1  1
 25 46  1  6
M  END
>  <i_m_ct_stereo_status>  (115) 
1

>  <s_m_source_file>  (115) 
/var/tmp/pbs.5076255.sched01/tmpnk13i6y_/41i0yhob8r.sdf

>  <i_m_source_file_index>  (115) 
6

>  <i_lp_mmshare_version>  (115) 
48012

>  <i_f3d_flags>  (115) 
0

>  <s_epik_input>  (115) 
W2NIXTFbY0hdW2NIXVtjSF1jKG4yW0NIM10pYzFjKGMyW0NAQF0zNE9bQ0gzXSlPW0NASF01W0NIXTZbQ0BIXTdbQ0BASF0oW0NAQEhdKFtDSDJdNSlbQ0BIXTQ2KVtDSDJdW0NAQEhdM0M3PU8=

>  <s_epik_cmdline>  (115) 
J2VwaWtfcHl0aG9uJywgJy1waHQnLCAnMi4wJywgJy1waCcsICc3LjAnLCAnLXRuJywgJzgnLCAnLW1hJywgJzIwMCcsICctaW1hZScsICc8aW5maWxlLm1hZT4nLCAnLW9tYWUnLCAnPG91dGZpbGUubWFlPic=

>  <r_lp_tautomer_probability>  (115) 
1

>  <r_epik_Ionization_Penalty>  (115) 
4.6208e-11

>  <r_epik_Ionization_Penalty_Charging>  (115) 
0

>  <r_epik_Ionization_Penalty_Neutral>  (115) 
4.6208e-11

>  <r_epik_State_Penalty>  (115) 
-0

>  <r_epik_Charging_Adjusted_Penalty>  (115) 
0

>  <i_epik_Tot_Q>  (115) 
0

>  <i_epik_Tot_abs_Q>  (115) 
0

>  <s_lp_Force_Field>  (115) 
OPLS3e

>  <r_lp_Energy>  (115) 
321.402

>  <b_lp_Chiralities_Consistent>  (115) 
1

>  <s_lp_Variant>  (115) 
39:0-1

>  <s_i_glide_gridfile>  (115) 
pfpi4k_grid

>  <i_i_glide_lignum>  (115) 
6

>  <i_i_glide_rotatable_bonds>  (115) 
1

>  <r_i_docking_score>  (115) 
-2.81728

>  <r_i_glide_ligand_efficiency>  (115) 
-0.112691

>  <r_i_glide_ligand_efficiency_sa>  (115) 
-0.329511

>  <r_i_glide_ligand_efficiency_ln>  (115) 
-0.667779

>  <r_i_glide_gscore>  (115) 
-2.81728

>  <r_i_glide_lipo>  (115) 
-0.366567

>  <r_i_glide_hbond>  (115) 
0

>  <r_i_glide_metal>  (115) 
-0

>  <r_i_glide_rewards>  (115) 
-1.20594

>  <r_i_glide_evdw>  (115) 
-21.9112

>  <r_i_glide_ecoul>  (115) 
-0.99476

>  <r_i_glide_erotb>  (115) 
0

>  <r_i_glide_esite>  (115) 
0

>  <r_i_glide_emodel>  (115) 
-26.4417

>  <r_i_glide_energy>  (115) 
-22.906

>  <r_i_glide_einternal>  (115) 
0.836156

>  <r_i_glide_intrahb_reward>  (115) 
-0

>  <i_i_glide_confnum>  (115) 
2

>  <i_i_glide_posenum>  (115) 
23

>  <r_i_glide_eff_state_penalty>  (115) 
0

>  <ligand_id>  (115) 
39

>  <original_smiles>  (115) 
COC12c3c(c4ccccc4n3C)OC3CC4C5CC1C(=O)C5C3C42

>  <smiles>  (115) 
[H]c1c([H])c([H])c2c(c1[H])c1c(n2C([H])([H])[H])C2(OC([H])([H])[H])C3([H])C(=O)C4([H])C([H])(C3([H])[H])C3([H])C([H])([H])C([H])(O1)C4([H])C23[H]

$$$$
39:0:2
     RDKit          3D

 46 52  0  0  1  0  0  0  0  0999 V2000
    2.5430   -0.1232    1.8772 C   0  0  0  0  0  0  0  0  0  0  0  0
    3.9053   -0.5670    1.8252 O   0  0  0  0  0  0  0  0  0  0  0  0
    4.1662   -1.7539    1.0656 C   0  0  2  0  0  0  0  0  0  0  0  0
    3.3207   -3.0173    1.7367 C   0  0  0  0  0  0  0  0  0  0  0  0
    2.7627   -4.1689    1.0762 C   0  0  0  0  0  0  0  0  0  0  0  0
    2.1948   -4.9878    2.0968 C   0  0  0  0  0  0  0  0  0  0  0  0
    1.4869   -6.2135    2.0880 C   0  0  0  0  0  0  0  0  0  0  0  0
    1.0250   -6.7992    3.2824 C   0  0  0  0  0  0  0  0  0  0  0  0
    1.2704   -6.1688    4.5167 C   0  0  0  0  0  0  0  0  0  0  0  0
    1.9748   -4.9519    4.5520 C   0  0  0  0  0  0  0  0  0  0  0  0
    2.4315   -4.3645    3.3536 C   0  0  0  0  0  0  0  0  0  0  0  0
    3.1484   -3.1967    3.1147 N   0  0  0  0  0  0  0  0  0  0  0  0
    3.6352   -2.3221    4.1711 C   0  0  0  0  0  0  0  0  0  0  0  0
    2.7839   -4.5214   -0.3208 O   0  0  0  0  0  0  0  0  0  0  0  0
    2.6955   -3.5412   -1.5187 C   0  0  1  0  0  0  0  0  0  0  0  0
    3.6399   -2.8197   -2.5963 C   0  0  0  0  0  0  0  0  0  0  0  0
    4.6030   -1.7354   -1.8360 C   0  0  2  0  0  0  0  0  0  0  0  0
    5.8676   -2.4015   -1.3056 C   0  0  1  0  0  0  0  0  0  0  0  0
    6.4963   -1.5739   -0.1301 C   0  0  0  0  0  0  0  0  0  0  0  0
    5.7168   -2.0687    1.1193 C   0  0  2  0  0  0  0  0  0  0  0  0
    5.7857   -3.5080    0.7137 C   0  0  0  0  0  0  0  0  0  0  0  0
    6.2969   -4.4411    1.3290 O   0  0  0  0  0  0  0  0  0  0  0  0
    5.1279   -3.5437   -0.6393 C   0  0  1  0  0  0  0  0  0  0  0  0
    3.6522   -2.8020   -0.7886 C   0  0  1  0  0  0  0  0  0  0  0  0
    3.8373   -1.4038   -0.5325 C   0  0  1  0  0  0  0  0  0  0  0  0
    2.4784    0.7555    2.5182 H   0  0  0  0  0  0  0  0  0  0  0  0
    1.8679   -0.8698    2.2962 H   0  0  0  0  0  0  0  0  0  0  0  0
    2.1357    0.1804    0.9159 H   0  0  0  0  0  0  0  0  0  0  0  0
    1.3069   -6.7076    1.1452 H   0  0  0  0  0  0  0  0  0  0  0  0
    0.4963   -7.7417    3.2514 H   0  0  0  0  0  0  0  0  0  0  0  0
    0.9287   -6.6244    5.4354 H   0  0  0  0  0  0  0  0  0  0  0  0
    2.1770   -4.4743    5.4931 H   0  0  0  0  0  0  0  0  0  0  0  0
    3.8798   -2.9070    5.0562 H   0  0  0  0  0  0  0  0  0  0  0  0
    2.8632   -1.5979    4.4328 H   0  0  0  0  0  0  0  0  0  0  0  0
    4.5402   -1.7971    3.8647 H   0  0  0  0  0  0  0  0  0  0  0  0
    1.6706   -3.1581   -1.6388 H   0  0  0  0  0  0  0  0  0  0  0  0
    4.2082   -3.5376   -3.1940 H   0  0  0  0  0  0  0  0  0  0  0  0
    2.9978   -2.2834   -3.2991 H   0  0  0  0  0  0  0  0  0  0  0  0
    4.8215   -0.8476   -2.4320 H   0  0  0  0  0  0  0  0  0  0  0  0
    6.5660   -2.7100   -2.0853 H   0  0  0  0  0  0  0  0  0  0  0  0
    7.5607   -1.8084   -0.0321 H   0  0  0  0  0  0  0  0  0  0  0  0
    6.4080   -0.4966   -0.2677 H   0  0  0  0  0  0  0  0  0  0  0  0
    6.2005   -1.8861    2.0799 H   0  0  0  0  0  0  0  0  0  0  0  0
    5.2240   -4.4996   -1.1546 H   0  0  0  0  0  0  0  0  0  0  0  0
    2.7202   -2.4700   -0.3007 H   0  0  0  0  0  0  0  0  0  0  0  0
    3.0110   -0.7179   -0.7570 H   0  0  0  0  0  0  0  0  0  0  0  0
  1  2  1  0
  1 26  1  0
  1 27  1  0
  1 28  1  0
  3  2  1  1
  3 20  1  0
  3 25  1  0
  3  4  1  0
  4 12  1  0
  4  5  2  0
  5  6  1  0
  5 14  1  0
  6 11  2  0
  6  7  1  0
  7  8  2  0
  7 29  1  0
  8  9  1  0
  8 30  1  0
  9 10  2  0
  9 31  1  0
 10 11  1  0
 10 32  1  0
 11 12  1  0
 12 13  1  0
 13 33  1  0
 13 34  1  0
 13 35  1  0
 14 15  1  0
 15 24  1  0
 15 16  1  0
 15 36  1  6
 16 17  1  0
 16 37  1  0
 16 38  1  0
 17 25  1  0
 17 18  1  0
 17 39  1  6
 18 23  1  0
 18 19  1  0
 18 40  1  6
 19 20  1  0
 19 41  1  0
 19 42  1  0
 20 21  1  0
 20 43  1  1
 21 22  2  0
 21 23  1  0
 23 24  1  0
 23 44  1  6
 24 25  1  0
 24 45  1  1
 25 46  1  1
M  END
>  <i_m_ct_stereo_status>  (116) 
1

>  <s_m_source_file>  (116) 
/var/tmp/pbs.5076255.sched01/tmpnk13i6y_/41i0yhob8r.sdf

>  <i_m_source_file_index>  (116) 
6

>  <i_lp_mmshare_version>  (116) 
48012

>  <i_f3d_flags>  (116) 
0

>  <s_epik_input>  (116) 
W2NIXTFbY0hdW2NIXVtjSF1jKG4yW0NIM10pYzFjKGMyW0NAQF0zNE9bQ0gzXSlPW0NASF01W0NIXTZbQ0BIXTdbQ0BASF0oW0NAQEhdKFtDSDJdNSlbQ0BIXTQ2KVtDSDJdW0NAQEhdM0M3PU8=

>  <s_epik_cmdline>  (116) 
J2VwaWtfcHl0aG9uJywgJy1waHQnLCAnMi4wJywgJy1waCcsICc3LjAnLCAnLXRuJywgJzgnLCAnLW1hJywgJzIwMCcsICctaW1hZScsICc8aW5maWxlLm1hZT4nLCAnLW9tYWUnLCAnPG91dGZpbGUubWFlPic=

>  <r_lp_tautomer_probability>  (116) 
1

>  <r_epik_Ionization_Penalty>  (116) 
4.6208e-11

>  <r_epik_Ionization_Penalty_Charging>  (116) 
0

>  <r_epik_Ionization_Penalty_Neutral>  (116) 
4.6208e-11

>  <r_epik_State_Penalty>  (116) 
-0

>  <r_epik_Charging_Adjusted_Penalty>  (116) 
0

>  <i_epik_Tot_Q>  (116) 
0

>  <i_epik_Tot_abs_Q>  (116) 
0

>  <s_lp_Force_Field>  (116) 
OPLS3e

>  <r_lp_Energy>  (116) 
321.402

>  <b_lp_Chiralities_Consistent>  (116) 
1

>  <s_lp_Variant>  (116) 
39:0-1

>  <s_i_glide_gridfile>  (116) 
pfpi4k_grid

>  <i_i_glide_lignum>  (116) 
6

>  <i_i_glide_rotatable_bonds>  (116) 
1

>  <r_i_docking_score>  (116) 
-2.67579

>  <r_i_glide_ligand_efficiency>  (116) 
-0.107032

>  <r_i_glide_ligand_efficiency_sa>  (116) 
-0.312963

>  <r_i_glide_ligand_efficiency_ln>  (116) 
-0.634243

>  <r_i_glide_gscore>  (116) 
-2.67579

>  <r_i_glide_lipo>  (116) 
-0.235825

>  <r_i_glide_hbond>  (116) 
0

>  <r_i_glide_metal>  (116) 
-0

>  <r_i_glide_rewards>  (116) 
-1.21281

>  <r_i_glide_evdw>  (116) 
-21.9059

>  <r_i_glide_ecoul>  (116) 
-0.87908

>  <r_i_glide_erotb>  (116) 
0

>  <r_i_glide_esite>  (116) 
0

>  <r_i_glide_emodel>  (116) 
-26.1557

>  <r_i_glide_energy>  (116) 
-22.785

>  <r_i_glide_einternal>  (116) 
0.884677

>  <r_i_glide_intrahb_reward>  (116) 
-0

>  <i_i_glide_confnum>  (116) 
2

>  <i_i_glide_posenum>  (116) 
9

>  <r_i_glide_eff_state_penalty>  (116) 
0

>  <ligand_id>  (116) 
39

>  <original_smiles>  (116) 
COC12c3c(c4ccccc4n3C)OC3CC4C5CC1C(=O)C5C3C42

>  <smiles>  (116) 
[H]c1c([H])c([H])c2c(c1[H])c1c(n2C([H])([H])[H])C2(OC([H])([H])[H])C3([H])C(=O)C4([H])C([H])(C3([H])[H])C3([H])C([H])([H])C([H])(O1)C4([H])C23[H]

$$$$
40:0:0
     RDKit          3D

 60 64  0  0  1  0  0  0  0  0999 V2000
    4.9743   -3.4460   -1.9908 C   0  0  0  0  0  0  0  0  0  0  0  0
    4.2640   -3.7027   -0.6464 C   0  0  2  0  0  0  0  0  0  0  0  0
    3.3419   -2.5439   -0.2392 C   0  0  0  0  0  0  0  0  0  0  0  0
    3.9660   -1.7999    0.9500 C   0  0  1  0  0  0  0  0  0  0  0  0
    3.0223   -0.7095    1.5116 C   0  0  0  0  0  0  0  0  0  0  0  0
    4.6601   -2.8932    1.8306 C   0  0  2  0  0  0  0  0  0  0  0  0
    5.2334   -3.9334    0.5422 C   0  0  1  0  0  0  0  0  0  0  0  0
    5.7644   -5.5769    0.6268 C   0  0  1  0  0  0  0  0  0  0  0  0
    5.3338   -7.0910    1.3742 C   0  0  0  0  0  0  0  0  0  0  0  0
    4.7315   -7.3215    3.0050 C   0  0  0  0  0  0  0  0  0  0  0  0
    3.8116   -6.1003    3.7292 C   0  0  1  0  0  0  0  0  0  0  0  0
    4.2886   -4.7011    4.1265 O   0  0  0  0  0  0  0  0  0  0  0  0
    4.0309   -3.3542    3.4051 C   0  0  1  0  0  0  0  0  0  0  0  0
    4.7705   -2.4292    4.4477 C   0  0  1  0  0  0  0  0  0  0  0  0
    5.0060   -1.1005    4.0244 O   0  0  0  0  0  0  0  0  0  0  0  0
    4.1186   -2.3183    5.8278 C   0  0  0  0  0  0  0  0  0  0  0  0
    2.6354   -1.9785    5.6973 C   0  0  0  0  0  0  0  0  0  0  0  0
    1.8508   -3.0915    4.9771 C   0  0  0  0  0  0  0  0  0  0  0  0
    1.8103   -4.3432    5.8986 C   0  0  0  0  0  0  0  0  0  0  0  0
    0.4016   -2.5728    4.8318 C   0  0  0  0  0  0  0  0  0  0  0  0
    2.4646   -3.3425    3.5416 C   0  0  2  0  0  0  0  0  0  0  0  0
    1.8686   -4.5937    2.8584 C   0  0  0  0  0  0  0  0  0  0  0  0
    2.8661   -5.7438    2.6572 C   0  0  1  0  0  0  0  0  0  0  0  0
    3.8132   -5.3666    1.7088 O   0  0  0  0  0  0  0  0  0  0  0  0
    5.3856   -5.2667    1.8311 C   0  0  0  0  0  0  0  0  0  0  0  0
    6.2476   -5.0497    2.7171 O   0  0  0  0  0  0  0  0  0  0  0  0
    5.5753   -2.5352   -1.9747 H   0  0  0  0  0  0  0  0  0  0  0  0
    4.2423   -3.3467   -2.7933 H   0  0  0  0  0  0  0  0  0  0  0  0
    5.6315   -4.2715   -2.2571 H   0  0  0  0  0  0  0  0  0  0  0  0
    3.6415   -4.5909   -0.7779 H   0  0  0  0  0  0  0  0  0  0  0  0
    3.1402   -1.8642   -1.0704 H   0  0  0  0  0  0  0  0  0  0  0  0
    2.3763   -2.9532    0.0618 H   0  0  0  0  0  0  0  0  0  0  0  0
    4.7969   -1.2369    0.5265 H   0  0  0  0  0  0  0  0  0  0  0  0
    1.9751   -1.0168    1.4991 H   0  0  0  0  0  0  0  0  0  0  0  0
    3.0646    0.1725    0.8717 H   0  0  0  0  0  0  0  0  0  0  0  0
    3.2673   -0.3680    2.5099 H   0  0  0  0  0  0  0  0  0  0  0  0
    5.6109   -2.4419    2.1086 H   0  0  0  0  0  0  0  0  0  0  0  0
    6.1454   -3.4167    0.2288 H   0  0  0  0  0  0  0  0  0  0  0  0
    6.8547   -5.5668    0.5405 H   0  0  0  0  0  0  0  0  0  0  0  0
    4.6113   -7.5733    0.7096 H   0  0  0  0  0  0  0  0  0  0  0  0
    6.2099   -7.7382    1.2917 H   0  0  0  0  0  0  0  0  0  0  0  0
    4.1447   -8.2409    3.0054 H   0  0  0  0  0  0  0  0  0  0  0  0
    5.5762   -7.5178    3.6681 H   0  0  0  0  0  0  0  0  0  0  0  0
    3.2754   -6.5259    4.5765 H   0  0  0  0  0  0  0  0  0  0  0  0
    5.7678   -2.8470    4.5943 H   0  0  0  0  0  0  0  0  0  0  0  0
    4.1750   -0.6919    3.8509 H   0  0  0  0  0  0  0  0  0  0  0  0
    4.2592   -3.2439    6.3839 H   0  0  0  0  0  0  0  0  0  0  0  0
    4.6216   -1.5539    6.4236 H   0  0  0  0  0  0  0  0  0  0  0  0
    2.2149   -1.8002    6.6883 H   0  0  0  0  0  0  0  0  0  0  0  0
    2.5279   -1.0369    5.1568 H   0  0  0  0  0  0  0  0  0  0  0  0
    1.1602   -5.1306    5.5212 H   0  0  0  0  0  0  0  0  0  0  0  0
    1.4394   -4.0847    6.8916 H   0  0  0  0  0  0  0  0  0  0  0  0
    2.7905   -4.7902    6.0486 H   0  0  0  0  0  0  0  0  0  0  0  0
   -0.2447   -3.3028    4.3499 H   0  0  0  0  0  0  0  0  0  0  0  0
    0.3644   -1.6589    4.2382 H   0  0  0  0  0  0  0  0  0  0  0  0
   -0.0357   -2.3414    5.8036 H   0  0  0  0  0  0  0  0  0  0  0  0
    2.1079   -2.5057    2.9635 H   0  0  0  0  0  0  0  0  0  0  0  0
    0.9948   -4.9716    3.3804 H   0  0  0  0  0  0  0  0  0  0  0  0
    1.5006   -4.3109    1.8756 H   0  0  0  0  0  0  0  0  0  0  0  0
    2.3382   -6.6273    2.2898 H   0  0  0  0  0  0  0  0  0  0  0  0
  1  2  1  0
  1 27  1  0
  1 28  1  0
  1 29  1  0
  2  7  1  0
  2  3  1  0
  2 30  1  6
  3  4  1  0
  3 31  1  0
  3 32  1  0
  4  5  1  0
  4  6  1  0
  4 33  1  6
  5 34  1  0
  5 35  1  0
  5 36  1  0
  6 13  1  0
  6  7  1  0
  6 37  1  1
  7  8  1  0
  7 38  1  6
  8 25  1  0
  8  9  1  0
  8 39  1  1
  9 10  1  0
  9 40  1  0
  9 41  1  0
 10 11  1  0
 10 42  1  0
 10 43  1  0
 11 23  1  0
 11 12  1  0
 11 44  1  1
 13 12  1  1
 13 21  1  0
 13 14  1  0
 14 15  1  0
 14 16  1  0
 14 45  1  1
 15 46  1  0
 16 17  1  0
 16 47  1  0
 16 48  1  0
 17 18  1  0
 17 49  1  0
 17 50  1  0
 18 19  1  0
 18 20  1  0
 18 21  1  0
 19 51  1  0
 19 52  1  0
 19 53  1  0
 20 54  1  0
 20 55  1  0
 20 56  1  0
 21 22  1  0
 21 57  1  6
 22 23  1  0
 22 58  1  0
 22 59  1  0
 23 24  1  0
 23 60  1  6
 24 25  1  0
 25 26  2  0
M  END
>  <i_m_ct_stereo_status>  (117) 
1

>  <s_m_source_file>  (117) 
/var/tmp/pbs.5076255.sched01/tmpnk13i6y_/41i0yhob8r.sdf

>  <i_m_source_file_index>  (117) 
7

>  <i_lp_mmshare_version>  (117) 
48012

>  <i_f3d_flags>  (117) 
0

>  <s_epik_input>  (117) 
W0NIM11bQ0BASF0xW0NIMl1bQ0BASF0oW0NIM10pW0NAQEhdKFtDQEBIXTFbQ0BAXTIzNClbQ0hdNVtDSDJdW0NIMl1bQ0BASF0oTzIpW0NASF0oT0M1PU8pW0NIMl1bQ0BIXTRDKFtDSDNdKShbQ0gzXSlbQ0gyXVtDSDJdW0NAQEhdM1tPSF0=

>  <s_epik_cmdline>  (117) 
J2VwaWtfcHl0aG9uJywgJy1waHQnLCAnMi4wJywgJy1waCcsICc3LjAnLCAnLXRuJywgJzgnLCAnLW1hJywgJzIwMCcsICctaW1hZScsICc8aW5maWxlLm1hZT4nLCAnLW9tYWUnLCAnPG91dGZpbGUubWFlPic=

>  <r_lp_tautomer_probability>  (117) 
1

>  <r_epik_Ionization_Penalty>  (117) 
1.77938e-07

>  <r_epik_Ionization_Penalty_Charging>  (117) 
0

>  <r_epik_Ionization_Penalty_Neutral>  (117) 
1.77938e-07

>  <r_epik_State_Penalty>  (117) 
-0

>  <r_epik_Charging_Adjusted_Penalty>  (117) 
0

>  <i_epik_Tot_Q>  (117) 
0

>  <i_epik_Tot_abs_Q>  (117) 
0

>  <s_epik_Chemistry_Notes>  (117) 
This compound has an ester and may undergo hydrolysis at high or low pH.

>  <s_lp_Force_Field>  (117) 
OPLS3e

>  <r_lp_Energy>  (117) 
424.208

>  <b_lp_Chiralities_Consistent>  (117) 
1

>  <s_lp_Variant>  (117) 
40:0-1

>  <s_i_glide_gridfile>  (117) 
pfpi4k_grid

>  <i_i_glide_lignum>  (117) 
7

>  <i_i_glide_rotatable_bonds>  (117) 
1

>  <r_i_docking_score>  (117) 
-2.54762

>  <r_i_glide_ligand_efficiency>  (117) 
-0.0979855

>  <r_i_glide_ligand_efficiency_sa>  (117) 
-0.290282

>  <r_i_glide_ligand_efficiency_ln>  (117) 
-0.598301

>  <r_i_glide_gscore>  (117) 
-2.54762

>  <r_i_glide_lipo>  (117) 
-0.409135

>  <r_i_glide_hbond>  (117) 
0

>  <r_i_glide_metal>  (117) 
-0

>  <r_i_glide_rewards>  (117) 
-0.985134

>  <r_i_glide_evdw>  (117) 
-20.757

>  <r_i_glide_ecoul>  (117) 
-0.770035

>  <r_i_glide_erotb>  (117) 
0

>  <r_i_glide_esite>  (117) 
0

>  <r_i_glide_emodel>  (117) 
-24.8314

>  <r_i_glide_energy>  (117) 
-21.527

>  <r_i_glide_einternal>  (117) 
0.0305033

>  <r_i_glide_intrahb_reward>  (117) 
-0

>  <i_i_glide_confnum>  (117) 
2

>  <i_i_glide_posenum>  (117) 
12

>  <r_i_glide_eff_state_penalty>  (117) 
0

>  <ligand_id>  (117) 
40

>  <original_smiles>  (117) 
CC1CC(C)C2C1C1CCC3OC24C(O)CCC(C)(C)C4CC3OC1=O

>  <smiles>  (117) 
[H]OC1([H])C([H])([H])C([H])([H])C(C([H])([H])[H])(C([H])([H])[H])C2([H])C([H])([H])C3([H])OC(=O)C4([H])C([H])([H])C([H])([H])C3([H])OC12C1([H])C([H])(C([H])([H])[H])C([H])([H])C([H])(C([H])([H])[H])C41[H]

$$$$
40:0:1
     RDKit          3D

 60 64  0  0  1  0  0  0  0  0999 V2000
    2.8396   -4.6056    0.8089 C   0  0  0  0  0  0  0  0  0  0  0  0
    2.4509   -5.2561    2.1526 C   0  0  2  0  0  0  0  0  0  0  0  0
    3.4630   -4.9565    3.2721 C   0  0  0  0  0  0  0  0  0  0  0  0
    4.2396   -6.2412    3.5924 C   0  0  1  0  0  0  0  0  0  0  0  0
    5.1773   -6.0648    4.8103 C   0  0  0  0  0  0  0  0  0  0  0  0
    3.2217   -7.4222    3.4404 C   0  0  2  0  0  0  0  0  0  0  0  0
    2.3126   -6.7992    2.0788 C   0  0  1  0  0  0  0  0  0  0  0  0
    0.7541   -7.2807    1.5026 C   0  0  1  0  0  0  0  0  0  0  0  0
   -0.8256   -7.7069    2.0980 C   0  0  0  0  0  0  0  0  0  0  0  0
   -1.1898   -8.6470    3.5284 C   0  0  0  0  0  0  0  0  0  0  0  0
   -0.1294   -8.5987    4.8454 C   0  0  1  0  0  0  0  0  0  0  0  0
    1.3052   -9.1255    4.8886 O   0  0  0  0  0  0  0  0  0  0  0  0
    2.6285   -8.3239    4.8275 C   0  0  1  0  0  0  0  0  0  0  0  0
    3.6038   -9.5544    4.9928 C   0  0  1  0  0  0  0  0  0  0  0  0
    4.9675   -9.2905    4.7333 O   0  0  0  0  0  0  0  0  0  0  0  0
    3.5792  -10.2546    6.3536 C   0  0  0  0  0  0  0  0  0  0  0  0
    3.7232   -9.2356    7.4821 C   0  0  0  0  0  0  0  0  0  0  0  0
    2.5400   -8.2488    7.5231 C   0  0  0  0  0  0  0  0  0  0  0  0
    1.2639   -9.0288    7.9515 C   0  0  0  0  0  0  0  0  0  0  0  0
    2.8651   -7.2301    8.6414 C   0  0  0  0  0  0  0  0  0  0  0  0
    2.4248   -7.4877    6.1421 C   0  0  2  0  0  0  0  0  0  0  0  0
    1.1353   -6.6419    6.0357 C   0  0  0  0  0  0  0  0  0  0  0  0
    0.1344   -7.1545    4.9859 C   0  0  1  0  0  0  0  0  0  0  0  0
    0.6594   -6.9545    3.7132 O   0  0  0  0  0  0  0  0  0  0  0  0
    0.9743   -7.9998    2.5659 C   0  0  0  0  0  0  0  0  0  0  0  0
    1.2911   -9.2089    2.4510 O   0  0  0  0  0  0  0  0  0  0  0  0
    3.8204   -4.9330    0.4598 H   0  0  0  0  0  0  0  0  0  0  0  0
    2.8740   -3.5195    0.9077 H   0  0  0  0  0  0  0  0  0  0  0  0
    2.1166   -4.8378    0.0263 H   0  0  0  0  0  0  0  0  0  0  0  0
    1.4944   -4.8232    2.4538 H   0  0  0  0  0  0  0  0  0  0  0  0
    4.1380   -4.1400    3.0088 H   0  0  0  0  0  0  0  0  0  0  0  0
    2.9172   -4.6381    4.1619 H   0  0  0  0  0  0  0  0  0  0  0  0
    4.9236   -6.3768    2.7540 H   0  0  0  0  0  0  0  0  0  0  0  0
    4.7348   -5.4487    5.5938 H   0  0  0  0  0  0  0  0  0  0  0  0
    6.0813   -5.5376    4.5029 H   0  0  0  0  0  0  0  0  0  0  0  0
    5.5062   -6.9978    5.2566 H   0  0  0  0  0  0  0  0  0  0  0  0
    3.7919   -8.1913    2.9209 H   0  0  0  0  0  0  0  0  0  0  0  0
    2.9585   -7.0730    1.2379 H   0  0  0  0  0  0  0  0  0  0  0  0
    0.9129   -7.8575    0.5899 H   0  0  0  0  0  0  0  0  0  0  0  0
   -1.3828   -6.7751    2.2015 H   0  0  0  0  0  0  0  0  0  0  0  0
   -1.3397   -8.2154    1.2796 H   0  0  0  0  0  0  0  0  0  0  0  0
   -2.1784   -8.3469    3.8740 H   0  0  0  0  0  0  0  0  0  0  0  0
   -1.2959   -9.6943    3.2422 H   0  0  0  0  0  0  0  0  0  0  0  0
   -0.6518   -8.9798    5.7216 H   0  0  0  0  0  0  0  0  0  0  0  0
    3.3220  -10.2917    4.2387 H   0  0  0  0  0  0  0  0  0  0  0  0
    5.4227  -10.1169    4.7058 H   0  0  0  0  0  0  0  0  0  0  0  0
    2.6613  -10.8297    6.4604 H   0  0  0  0  0  0  0  0  0  0  0  0
    4.3793  -10.9936    6.4203 H   0  0  0  0  0  0  0  0  0  0  0  0
    3.8127   -9.7615    8.4324 H   0  0  0  0  0  0  0  0  0  0  0  0
    4.6600   -8.6907    7.3541 H   0  0  0  0  0  0  0  0  0  0  0  0
    0.4077   -8.3820    8.1353 H   0  0  0  0  0  0  0  0  0  0  0  0
    1.4399   -9.5860    8.8730 H   0  0  0  0  0  0  0  0  0  0  0  0
    0.9505   -9.7673    7.2159 H   0  0  0  0  0  0  0  0  0  0  0  0
    2.0762   -6.4902    8.7718 H   0  0  0  0  0  0  0  0  0  0  0  0
    3.7887   -6.6902    8.4283 H   0  0  0  0  0  0  0  0  0  0  0  0
    3.0048   -7.7289    9.6014 H   0  0  0  0  0  0  0  0  0  0  0  0
    3.2318   -6.7746    6.1801 H   0  0  0  0  0  0  0  0  0  0  0  0
    0.6241   -6.5605    6.9901 H   0  0  0  0  0  0  0  0  0  0  0  0
    1.4003   -5.6146    5.7795 H   0  0  0  0  0  0  0  0  0  0  0  0
   -0.8002   -6.5953    5.0702 H   0  0  0  0  0  0  0  0  0  0  0  0
  1  2  1  0
  1 27  1  0
  1 28  1  0
  1 29  1  0
  2  7  1  0
  2  3  1  0
  2 30  1  1
  3  4  1  0
  3 31  1  0
  3 32  1  0
  4  5  1  0
  4  6  1  0
  4 33  1  6
  5 34  1  0
  5 35  1  0
  5 36  1  0
  6 13  1  0
  6  7  1  0
  6 37  1  6
  7  8  1  0
  7 38  1  6
  8 25  1  0
  8  9  1  0
  8 39  1  6
  9 10  1  0
  9 40  1  0
  9 41  1  0
 10 11  1  0
 10 42  1  0
 10 43  1  0
 11 23  1  0
 11 12  1  0
 11 44  1  1
 13 12  1  6
 13 21  1  0
 13 14  1  0
 14 15  1  0
 14 16  1  0
 14 45  1  6
 15 46  1  0
 16 17  1  0
 16 47  1  0
 16 48  1  0
 17 18  1  0
 17 49  1  0
 17 50  1  0
 18 19  1  0
 18 20  1  0
 18 21  1  0
 19 51  1  0
 19 52  1  0
 19 53  1  0
 20 54  1  0
 20 55  1  0
 20 56  1  0
 21 22  1  0
 21 57  1  1
 22 23  1  0
 22 58  1  0
 22 59  1  0
 23 24  1  0
 23 60  1  6
 24 25  1  0
 25 26  2  0
M  END
>  <i_m_ct_stereo_status>  (118) 
1

>  <s_m_source_file>  (118) 
/var/tmp/pbs.5076255.sched01/tmpnk13i6y_/41i0yhob8r.sdf

>  <i_m_source_file_index>  (118) 
7

>  <i_lp_mmshare_version>  (118) 
48012

>  <i_f3d_flags>  (118) 
0

>  <s_epik_input>  (118) 
W0NIM11bQ0BASF0xW0NIMl1bQ0BASF0oW0NIM10pW0NAQEhdKFtDQEBIXTFbQ0BAXTIzNClbQ0hdNVtDSDJdW0NIMl1bQ0BASF0oTzIpW0NASF0oT0M1PU8pW0NIMl1bQ0BIXTRDKFtDSDNdKShbQ0gzXSlbQ0gyXVtDSDJdW0NAQEhdM1tPSF0=

>  <s_epik_cmdline>  (118) 
J2VwaWtfcHl0aG9uJywgJy1waHQnLCAnMi4wJywgJy1waCcsICc3LjAnLCAnLXRuJywgJzgnLCAnLW1hJywgJzIwMCcsICctaW1hZScsICc8aW5maWxlLm1hZT4nLCAnLW9tYWUnLCAnPG91dGZpbGUubWFlPic=

>  <r_lp_tautomer_probability>  (118) 
1

>  <r_epik_Ionization_Penalty>  (118) 
1.77938e-07

>  <r_epik_Ionization_Penalty_Charging>  (118) 
0

>  <r_epik_Ionization_Penalty_Neutral>  (118) 
1.77938e-07

>  <r_epik_State_Penalty>  (118) 
-0

>  <r_epik_Charging_Adjusted_Penalty>  (118) 
0

>  <i_epik_Tot_Q>  (118) 
0

>  <i_epik_Tot_abs_Q>  (118) 
0

>  <s_epik_Chemistry_Notes>  (118) 
This compound has an ester and may undergo hydrolysis at high or low pH.

>  <s_lp_Force_Field>  (118) 
OPLS3e

>  <r_lp_Energy>  (118) 
424.208

>  <b_lp_Chiralities_Consistent>  (118) 
1

>  <s_lp_Variant>  (118) 
40:0-1

>  <s_i_glide_gridfile>  (118) 
pfpi4k_grid

>  <i_i_glide_lignum>  (118) 
7

>  <i_i_glide_rotatable_bonds>  (118) 
1

>  <r_i_docking_score>  (118) 
-2.00883

>  <r_i_glide_ligand_efficiency>  (118) 
-0.0772628

>  <r_i_glide_ligand_efficiency_sa>  (118) 
-0.228891

>  <r_i_glide_ligand_efficiency_ln>  (118) 
-0.471768

>  <r_i_glide_gscore>  (118) 
-2.00883

>  <r_i_glide_lipo>  (118) 
0

>  <r_i_glide_hbond>  (118) 
0

>  <r_i_glide_metal>  (118) 
-0

>  <r_i_glide_rewards>  (118) 
-0.93748

>  <r_i_glide_evdw>  (118) 
-23.0277

>  <r_i_glide_ecoul>  (118) 
0.72503

>  <r_i_glide_erotb>  (118) 
0

>  <r_i_glide_esite>  (118) 
-0.0287242

>  <r_i_glide_emodel>  (118) 
-24.7201

>  <r_i_glide_energy>  (118) 
-22.3026

>  <r_i_glide_einternal>  (118) 
0.342454

>  <r_i_glide_intrahb_reward>  (118) 
-0

>  <i_i_glide_confnum>  (118) 
1

>  <i_i_glide_posenum>  (118) 
7

>  <r_i_glide_eff_state_penalty>  (118) 
0

>  <ligand_id>  (118) 
40

>  <original_smiles>  (118) 
CC1CC(C)C2C1C1CCC3OC24C(O)CCC(C)(C)C4CC3OC1=O

>  <smiles>  (118) 
[H]OC1([H])C([H])([H])C([H])([H])C(C([H])([H])[H])(C([H])([H])[H])C2([H])C([H])([H])C3([H])OC(=O)C4([H])C([H])([H])C([H])([H])C3([H])OC12C1([H])C([H])(C([H])([H])[H])C([H])([H])C([H])(C([H])([H])[H])C41[H]

$$$$
40:0:2
     RDKit          3D

 60 64  0  0  1  0  0  0  0  0999 V2000
    3.4082   -2.7924    0.2232 C   0  0  0  0  0  0  0  0  0  0  0  0
    2.8985   -3.3873    1.5510 C   0  0  2  0  0  0  0  0  0  0  0  0
    3.3016   -2.5483    2.7743 C   0  0  0  0  0  0  0  0  0  0  0  0
    4.3683   -3.3162    3.5672 C   0  0  1  0  0  0  0  0  0  0  0  0
    4.7240   -2.6074    4.8952 C   0  0  0  0  0  0  0  0  0  0  0  0
    3.9905   -4.8329    3.4623 C   0  0  2  0  0  0  0  0  0  0  0  0
    3.3948   -4.8333    1.8159 C   0  0  1  0  0  0  0  0  0  0  0  0
    2.4143   -6.0131    1.0138 C   0  0  1  0  0  0  0  0  0  0  0  0
    1.0147   -7.0154    1.2982 C   0  0  0  0  0  0  0  0  0  0  0  0
    0.6150   -7.8526    2.7835 C   0  0  0  0  0  0  0  0  0  0  0  0
    1.0999   -7.1957    4.2659 C   0  0  1  0  0  0  0  0  0  0  0  0
    2.5337   -7.0297    4.7728 O   0  0  0  0  0  0  0  0  0  0  0  0
    3.3859   -5.7387    4.8414 C   0  0  1  0  0  0  0  0  0  0  0  0
    4.6544   -6.3839    5.5244 C   0  0  1  0  0  0  0  0  0  0  0  0
    5.8151   -5.5792    5.5403 O   0  0  0  0  0  0  0  0  0  0  0  0
    4.4710   -6.8649    6.9667 C   0  0  0  0  0  0  0  0  0  0  0  0
    3.8435   -5.7644    7.8200 C   0  0  0  0  0  0  0  0  0  0  0  0
    2.4246   -5.4001    7.3405 C   0  0  0  0  0  0  0  0  0  0  0  0
    1.4849   -6.6052    7.6263 C   0  0  0  0  0  0  0  0  0  0  0  0
    1.9557   -4.2220    8.2273 C   0  0  0  0  0  0  0  0  0  0  0  0
    2.4697   -4.9312    5.8306 C   0  0  2  0  0  0  0  0  0  0  0  0
    1.0605   -4.7578    5.2213 C   0  0  0  0  0  0  0  0  0  0  0  0
    0.7271   -5.7771    4.1193 C   0  0  1  0  0  0  0  0  0  0  0  0
    1.5055   -5.5135    2.9960 O   0  0  0  0  0  0  0  0  0  0  0  0
    2.5451   -6.4369    2.2373 C   0  0  0  0  0  0  0  0  0  0  0  0
    3.3219   -7.3909    2.4885 O   0  0  0  0  0  0  0  0  0  0  0  0
    4.4947   -2.6950    0.2043 H   0  0  0  0  0  0  0  0  0  0  0  0
    2.9877   -1.7980    0.0665 H   0  0  0  0  0  0  0  0  0  0  0  0
    3.1093   -3.4069   -0.6272 H   0  0  0  0  0  0  0  0  0  0  0  0
    1.8179   -3.3840    1.5043 H   0  0  0  0  0  0  0  0  0  0  0  0
    3.6527   -1.5545    2.4919 H   0  0  0  0  0  0  0  0  0  0  0  0
    2.4215   -2.4040    3.4038 H   0  0  0  0  0  0  0  0  0  0  0  0
    5.2788   -3.2329    2.9738 H   0  0  0  0  0  0  0  0  0  0  0  0
    3.8531   -2.1640    5.3792 H   0  0  0  0  0  0  0  0  0  0  0  0
    5.3991   -1.7751    4.6940 H   0  0  0  0  0  0  0  0  0  0  0  0
    5.2289   -3.2418    5.6167 H   0  0  0  0  0  0  0  0  0  0  0  0
    4.9456   -5.3274    3.2925 H   0  0  0  0  0  0  0  0  0  0  0  0
    4.3271   -4.8899    1.2426 H   0  0  0  0  0  0  0  0  0  0  0  0
    3.0702   -6.5646    0.3353 H   0  0  0  0  0  0  0  0  0  0  0  0
    0.1386   -6.4184    1.0392 H   0  0  0  0  0  0  0  0  0  0  0  0
    1.0099   -7.7836    0.5221 H   0  0  0  0  0  0  0  0  0  0  0  0
   -0.4670   -7.9813    2.8005 H   0  0  0  0  0  0  0  0  0  0  0  0
    1.0208   -8.8649    2.7341 H   0  0  0  0  0  0  0  0  0  0  0  0
    0.5149   -7.6595    5.0585 H   0  0  0  0  0  0  0  0  0  0  0  0
    4.9343   -7.2502    4.9221 H   0  0  0  0  0  0  0  0  0  0  0  0
    6.5419   -6.1160    5.8141 H   0  0  0  0  0  0  0  0  0  0  0  0
    3.8663   -7.7695    6.9861 H   0  0  0  0  0  0  0  0  0  0  0  0
    5.4300   -7.1600    7.3955 H   0  0  0  0  0  0  0  0  0  0  0  0
    3.8228   -6.0818    8.8625 H   0  0  0  0  0  0  0  0  0  0  0  0
    4.4846   -4.8815    7.7921 H   0  0  0  0  0  0  0  0  0  0  0  0
    0.4353   -6.3825    7.4413 H   0  0  0  0  0  0  0  0  0  0  0  0
    1.5578   -6.9150    8.6702 H   0  0  0  0  0  0  0  0  0  0  0  0
    1.7301   -7.4842    7.0329 H   0  0  0  0  0  0  0  0  0  0  0  0
    0.9450   -3.8974    7.9842 H   0  0  0  0  0  0  0  0  0  0  0  0
    2.6139   -3.3592    8.1181 H   0  0  0  0  0  0  0  0  0  0  0  0
    1.9647   -4.4961    9.2833 H   0  0  0  0  0  0  0  0  0  0  0  0
    2.8806   -3.9366    5.8890 H   0  0  0  0  0  0  0  0  0  0  0  0
    0.2826   -4.8010    5.9769 H   0  0  0  0  0  0  0  0  0  0  0  0
    0.9728   -3.7558    4.7973 H   0  0  0  0  0  0  0  0  0  0  0  0
   -0.3252   -5.6841    3.8476 H   0  0  0  0  0  0  0  0  0  0  0  0
  1  2  1  0
  1 27  1  0
  1 28  1  0
  1 29  1  0
  2  7  1  0
  2  3  1  0
  2 30  1  6
  3  4  1  0
  3 31  1  0
  3 32  1  0
  4  5  1  0
  4  6  1  0
  4 33  1  6
  5 34  1  0
  5 35  1  0
  5 36  1  0
  6 13  1  0
  6  7  1  0
  6 37  1  6
  7  8  1  0
  7 38  1  6
  8 25  1  0
  8  9  1  0
  8 39  1  6
  9 10  1  0
  9 40  1  0
  9 41  1  0
 10 11  1  0
 10 42  1  0
 10 43  1  0
 11 23  1  0
 11 12  1  0
 11 44  1  1
 13 12  1  6
 13 21  1  0
 13 14  1  0
 14 15  1  0
 14 16  1  0
 14 45  1  6
 15 46  1  0
 16 17  1  0
 16 47  1  0
 16 48  1  0
 17 18  1  0
 17 49  1  0
 17 50  1  0
 18 19  1  0
 18 20  1  0
 18 21  1  0
 19 51  1  0
 19 52  1  0
 19 53  1  0
 20 54  1  0
 20 55  1  0
 20 56  1  0
 21 22  1  0
 21 57  1  1
 22 23  1  0
 22 58  1  0
 22 59  1  0
 23 24  1  0
 23 60  1  6
 24 25  1  0
 25 26  2  0
M  END
>  <i_m_ct_stereo_status>  (119) 
1

>  <s_m_source_file>  (119) 
/var/tmp/pbs.5076255.sched01/tmpnk13i6y_/41i0yhob8r.sdf

>  <i_m_source_file_index>  (119) 
7

>  <i_lp_mmshare_version>  (119) 
48012

>  <i_f3d_flags>  (119) 
0

>  <s_epik_input>  (119) 
W0NIM11bQ0BASF0xW0NIMl1bQ0BASF0oW0NIM10pW0NAQEhdKFtDQEBIXTFbQ0BAXTIzNClbQ0hdNVtDSDJdW0NIMl1bQ0BASF0oTzIpW0NASF0oT0M1PU8pW0NIMl1bQ0BIXTRDKFtDSDNdKShbQ0gzXSlbQ0gyXVtDSDJdW0NAQEhdM1tPSF0=

>  <s_epik_cmdline>  (119) 
J2VwaWtfcHl0aG9uJywgJy1waHQnLCAnMi4wJywgJy1waCcsICc3LjAnLCAnLXRuJywgJzgnLCAnLW1hJywgJzIwMCcsICctaW1hZScsICc8aW5maWxlLm1hZT4nLCAnLW9tYWUnLCAnPG91dGZpbGUubWFlPic=

>  <r_lp_tautomer_probability>  (119) 
1

>  <r_epik_Ionization_Penalty>  (119) 
1.77938e-07

>  <r_epik_Ionization_Penalty_Charging>  (119) 
0

>  <r_epik_Ionization_Penalty_Neutral>  (119) 
1.77938e-07

>  <r_epik_State_Penalty>  (119) 
-0

>  <r_epik_Charging_Adjusted_Penalty>  (119) 
0

>  <i_epik_Tot_Q>  (119) 
0

>  <i_epik_Tot_abs_Q>  (119) 
0

>  <s_epik_Chemistry_Notes>  (119) 
This compound has an ester and may undergo hydrolysis at high or low pH.

>  <s_lp_Force_Field>  (119) 
OPLS3e

>  <r_lp_Energy>  (119) 
424.208

>  <b_lp_Chiralities_Consistent>  (119) 
1

>  <s_lp_Variant>  (119) 
40:0-1

>  <s_i_glide_gridfile>  (119) 
pfpi4k_grid

>  <i_i_glide_lignum>  (119) 
7

>  <i_i_glide_rotatable_bonds>  (119) 
1

>  <r_i_docking_score>  (119) 
-1.83102

>  <r_i_glide_ligand_efficiency>  (119) 
-0.070424

>  <r_i_glide_ligand_efficiency_sa>  (119) 
-0.208631

>  <r_i_glide_ligand_efficiency_ln>  (119) 
-0.43001

>  <r_i_glide_gscore>  (119) 
-1.83102

>  <r_i_glide_lipo>  (119) 
-0.0377218

>  <r_i_glide_hbond>  (119) 
0

>  <r_i_glide_metal>  (119) 
-0

>  <r_i_glide_rewards>  (119) 
-0.93748

>  <r_i_glide_evdw>  (119) 
-17.6404

>  <r_i_glide_ecoul>  (119) 
0.218805

>  <r_i_glide_erotb>  (119) 
0

>  <r_i_glide_esite>  (119) 
-0.0066258

>  <r_i_glide_emodel>  (119) 
-19.6029

>  <r_i_glide_energy>  (119) 
-17.4216

>  <r_i_glide_einternal>  (119) 
0.348359

>  <r_i_glide_intrahb_reward>  (119) 
-0

>  <i_i_glide_confnum>  (119) 
1

>  <i_i_glide_posenum>  (119) 
1

>  <r_i_glide_eff_state_penalty>  (119) 
0

>  <ligand_id>  (119) 
40

>  <original_smiles>  (119) 
CC1CC(C)C2C1C1CCC3OC24C(O)CCC(C)(C)C4CC3OC1=O

>  <smiles>  (119) 
[H]OC1([H])C([H])([H])C([H])([H])C(C([H])([H])[H])(C([H])([H])[H])C2([H])C([H])([H])C3([H])OC(=O)C4([H])C([H])([H])C([H])([H])C3([H])OC12C1([H])C([H])(C([H])([H])[H])C([H])([H])C([H])(C([H])([H])[H])C41[H]

$$$$
41:0:0
     RDKit          3D

 60 67  0  0  1  0  0  0  0  0999 V2000
    2.3647   -3.4016   -3.9083 C   0  0  0  0  0  0  0  0  0  0  0  0
    3.4372   -3.0790   -2.9570 C   0  0  0  0  0  0  0  0  0  0  0  0
    3.4602   -2.3518   -1.7980 C   0  0  0  0  0  0  0  0  0  0  0  0
    4.8183   -2.4685   -1.3710 C   0  0  0  0  0  0  0  0  0  0  0  0
    5.3017   -1.7502   -0.1475 C   0  0  0  0  0  0  0  0  0  0  0  0
    6.5239   -1.5898    0.0220 O   0  0  0  0  0  0  0  0  0  0  0  0
    4.3670   -1.3129    0.7048 N   0  0  0  0  0  0  0  0  0  0  0  0
    4.5725   -0.4535    1.8801 C   0  0  2  0  0  0  0  0  0  0  0  0
    5.5720   -1.0230    2.8745 C   0  0  0  0  0  0  0  0  0  0  0  0
    5.1976   -0.8626    4.1444 C   0  0  0  0  0  0  0  0  0  0  0  0
    3.9097   -0.1001    4.2047 C   0  0  2  0  0  0  0  0  0  0  0  0
    3.0137   -0.4212    5.2730 O   0  0  0  0  0  0  0  0  0  0  0  0
    1.6050   -0.3241    4.9711 C   0  0  1  0  0  0  0  0  0  0  0  0
    0.7989    0.5052    5.9871 C   0  0  2  0  0  0  0  0  0  0  0  0
   -0.7317    0.5564    5.4889 C   0  0  1  0  0  0  0  0  0  0  0  0
   -0.6853    1.7791    4.5843 C   0  0  0  0  0  0  0  0  0  0  0  0
    0.6142    1.8561    4.2587 C   0  0  0  0  0  0  0  0  0  0  0  0
    1.1244    0.4723    3.7061 C   0  0  2  0  0  0  0  0  0  0  0  0
   -0.0887   -0.4005    3.2603 C   0  0  0  0  0  0  0  0  0  0  0  0
   -1.0642   -0.5775    4.4765 C   0  0  0  0  0  0  0  0  0  0  0  0
    2.1828    0.5761    2.6120 C   0  0  0  0  0  0  0  0  0  0  0  0
    2.1081    1.3636    1.6821 O   0  0  0  0  0  0  0  0  0  0  0  0
    3.3410   -0.3857    2.8182 C   0  0  1  0  0  0  0  0  0  0  0  0
    1.3061    1.9211    5.5988 C   0  0  2  0  0  0  0  0  0  0  0  0
    2.6946    2.1988    5.4543 O   0  0  0  0  0  0  0  0  0  0  0  0
    2.9718    3.5958    5.6054 C   0  0  1  0  0  0  0  0  0  0  0  0
    3.1413    4.2106    4.2114 C   0  0  0  0  0  0  0  0  0  0  0  0
    1.9696    4.9906    3.9944 O   0  0  0  0  0  0  0  0  0  0  0  0
    1.1696    5.1001    5.0602 C   0  0  0  0  0  0  0  0  0  0  0  0
    0.1184    5.7391    5.1312 O   0  0  0  0  0  0  0  0  0  0  0  0
    1.7491    4.2900    6.2148 C   0  0  2  0  0  0  0  0  0  0  0  0
    2.0284    5.1574    7.4513 C   0  0  0  0  0  0  0  0  0  0  0  0
    0.8667    3.0983    6.4717 C   0  0  0  0  0  0  0  0  0  0  0  0
   -0.0190    3.0417    7.3209 O   0  0  0  0  0  0  0  0  0  0  0  0
    5.5387   -3.1675   -2.2257 N   0  0  0  0  0  0  0  0  0  0  0  0
    4.6661   -3.5615   -3.2449 O   0  0  0  0  0  0  0  0  0  0  0  0
    1.4248   -2.9333   -3.6272 H   0  0  0  0  0  0  0  0  0  0  0  0
    2.2188   -4.4741   -3.9673 H   0  0  0  0  0  0  0  0  0  0  0  0
    2.6885   -3.0595   -4.8767 H   0  0  0  0  0  0  0  0  0  0  0  0
    2.6207   -1.8276   -1.3660 H   0  0  0  0  0  0  0  0  0  0  0  0
    3.3993   -1.4589    0.4273 H   0  0  0  0  0  0  0  0  0  0  0  0
    4.8934    0.5280    1.5241 H   0  0  0  0  0  0  0  0  0  0  0  0
    6.4921   -1.4958    2.5815 H   0  0  0  0  0  0  0  0  0  0  0  0
    5.7718   -1.1690    5.0053 H   0  0  0  0  0  0  0  0  0  0  0  0
    4.2356    0.9403    4.2543 H   0  0  0  0  0  0  0  0  0  0  0  0
    1.2722   -1.3668    4.9532 H   0  0  0  0  0  0  0  0  0  0  0  0
    0.9485    0.2022    7.0235 H   0  0  0  0  0  0  0  0  0  0  0  0
   -1.4721    0.6653    6.2788 H   0  0  0  0  0  0  0  0  0  0  0  0
   -1.4619    1.8496    3.8415 H   0  0  0  0  0  0  0  0  0  0  0  0
   -0.5867    0.1021    2.4274 H   0  0  0  0  0  0  0  0  0  0  0  0
    0.2458   -1.3718    2.8987 H   0  0  0  0  0  0  0  0  0  0  0  0
   -0.9672   -1.5667    4.9313 H   0  0  0  0  0  0  0  0  0  0  0  0
   -2.0901   -0.4940    4.1232 H   0  0  0  0  0  0  0  0  0  0  0  0
    2.9148   -1.3881    2.8483 H   0  0  0  0  0  0  0  0  0  0  0  0
    3.8649    3.7160    6.2227 H   0  0  0  0  0  0  0  0  0  0  0  0
    4.0242    4.8463    4.1979 H   0  0  0  0  0  0  0  0  0  0  0  0
    3.2767    3.4555    3.4359 H   0  0  0  0  0  0  0  0  0  0  0  0
    1.1180    5.6137    7.8471 H   0  0  0  0  0  0  0  0  0  0  0  0
    2.7232    5.9633    7.2086 H   0  0  0  0  0  0  0  0  0  0  0  0
    2.4729    4.5598    8.2477 H   0  0  0  0  0  0  0  0  0  0  0  0
  1  2  1  0
  1 37  1  0
  1 38  1  0
  1 39  1  0
  2 36  1  0
  2  3  2  0
  3  4  1  0
  3 40  1  0
  4  5  1  0
  4 35  2  0
  5  6  2  0
  5  7  1  0
  7  8  1  0
  7 41  1  0
  8 23  1  0
  8  9  1  0
  8 42  1  6
  9 10  2  0
  9 43  1  0
 10 11  1  0
 10 44  1  0
 11 23  1  0
 11 12  1  0
 11 45  1  6
 12 13  1  0
 13 18  1  0
 13 14  1  0
 13 46  1  6
 14 24  1  0
 14 15  1  0
 14 47  1  1
 15 20  1  0
 15 16  1  0
 15 48  1  1
 16 17  2  0
 16 49  1  0
 17 18  1  0
 17 24  1  0
 18 19  1  0
 18 21  1  6
 19 20  1  0
 19 50  1  0
 19 51  1  0
 20 52  1  0
 20 53  1  0
 21 22  2  0
 21 23  1  0
 23 54  1  1
 24 33  1  0
 24 25  1  6
 25 26  1  0
 26 31  1  0
 26 27  1  0
 26 55  1  1
 27 28  1  0
 27 56  1  0
 27 57  1  0
 28 29  1  0
 29 30  2  0
 29 31  1  0
 31 32  1  1
 31 33  1  0
 32 58  1  0
 32 59  1  0
 32 60  1  0
 33 34  2  0
 35 36  1  0
M  END
>  <i_m_ct_stereo_status>  (120) 
1

>  <s_m_source_file>  (120) 
/var/tmp/pbs.5076255.sched01/tmpnk13i6y_/41i0yhob8r.sdf

>  <i_m_source_file_index>  (120) 
8

>  <i_lp_mmshare_version>  (120) 
48012

>  <i_f3d_flags>  (120) 
0

>  <s_epik_input>  (120) 
W0NIM11jMVtjSF1jKG5vMSlDKD1PKVtOSF1bQ0BIXShbQ0hdPVtDSF0yKVtDQEhdKEMzPU8pW0NASF0yT1tDQEhdKFtDQF0zNDUpW0NASF02W0NAXTcoQzQ9W0NIXVtDQEhdNltDSDJdW0NIMl01KU9bQ0BASF04W0NAXShbQ0gzXSkoQzc9TylDKD1PKU9bQ0gyXTg=

>  <s_epik_cmdline>  (120) 
J2VwaWtfcHl0aG9uJywgJy1waHQnLCAnMi4wJywgJy1waCcsICc3LjAnLCAnLXRuJywgJzgnLCAnLW1hJywgJzIwMCcsICctaW1hZScsICc8aW5maWxlLm1hZT4nLCAnLW9tYWUnLCAnPG91dGZpbGUubWFlPic=

>  <r_lp_tautomer_probability>  (120) 
1

>  <r_epik_Ionization_Penalty>  (120) 
2.58516e-05

>  <r_epik_Ionization_Penalty_Charging>  (120) 
0

>  <r_epik_Ionization_Penalty_Neutral>  (120) 
2.58516e-05

>  <r_epik_State_Penalty>  (120) 
-0

>  <r_epik_Charging_Adjusted_Penalty>  (120) 
0

>  <i_epik_Tot_Q>  (120) 
0

>  <i_epik_Tot_abs_Q>  (120) 
0

>  <s_epik_Chemistry_Notes>  (120) 
This compound has an ester and may undergo hydrolysis at high or low pH.

>  <s_lp_Force_Field>  (120) 
OPLS3e

>  <r_lp_Energy>  (120) 
113.554

>  <b_lp_Chiralities_Consistent>  (120) 
1

>  <s_lp_Variant>  (120) 
41:0-1

>  <s_i_glide_gridfile>  (120) 
pfpi4k_grid

>  <i_i_glide_lignum>  (120) 
8

>  <i_i_glide_rotatable_bonds>  (120) 
3

>  <r_i_docking_score>  (120) 
-2.66957

>  <r_i_glide_ligand_efficiency>  (120) 
-0.0741546

>  <r_i_glide_ligand_efficiency_sa>  (120) 
-0.244853

>  <r_i_glide_ligand_efficiency_ln>  (120) 
-0.582427

>  <r_i_glide_gscore>  (120) 
-2.66957

>  <r_i_glide_lipo>  (120) 
-0.405594

>  <r_i_glide_hbond>  (120) 
-0.0324902

>  <r_i_glide_metal>  (120) 
-0

>  <r_i_glide_rewards>  (120) 
-0.0512907

>  <r_i_glide_evdw>  (120) 
-32.7824

>  <r_i_glide_ecoul>  (120) 
-5.02619

>  <r_i_glide_erotb>  (120) 
0.251901

>  <r_i_glide_esite>  (120) 
-0.0390426

>  <r_i_glide_emodel>  (120) 
-42.6574

>  <r_i_glide_energy>  (120) 
-37.8086

>  <r_i_glide_einternal>  (120) 
1.75697

>  <r_i_glide_intrahb_reward>  (120) 
-0

>  <i_i_glide_confnum>  (120) 
4

>  <i_i_glide_posenum>  (120) 
19

>  <r_i_glide_eff_state_penalty>  (120) 
0

>  <ligand_id>  (120) 
41

>  <original_smiles>  (120) 
Cc1cc(C(=O)NC2C=CC3OC4C5C6C=C(C4(CC6)C(=O)C23)C52OC3COC(=O)C3(C)C2=O)no1

>  <smiles>  (120) 
[H]C1=C([H])C([H])(N([H])C(=O)c2noc(C([H])([H])[H])c2[H])C2([H])C(=O)C34C5=C([H])C([H])(C([H])([H])C3([H])[H])C([H])(C53OC5([H])C([H])([H])OC(=O)C5(C([H])([H])[H])C3=O)C4([H])OC12[H]

$$$$
41:0:1
     RDKit          3D

 60 67  0  0  1  0  0  0  0  0999 V2000
    3.3680   -3.0028   -4.0307 C   0  0  0  0  0  0  0  0  0  0  0  0
    3.8672   -2.5213   -2.7192 C   0  0  0  0  0  0  0  0  0  0  0  0
    3.4028   -2.6603   -1.4466 C   0  0  0  0  0  0  0  0  0  0  0  0
    4.3551   -1.9260   -0.6616 C   0  0  0  0  0  0  0  0  0  0  0  0
    4.2325   -1.8760    0.8447 C   0  0  0  0  0  0  0  0  0  0  0  0
    5.2409   -1.7450    1.5575 O   0  0  0  0  0  0  0  0  0  0  0  0
    2.9887   -1.9300    1.3288 N   0  0  0  0  0  0  0  0  0  0  0  0
    2.6369   -1.9543    2.7593 C   0  0  2  0  0  0  0  0  0  0  0  0
    2.0597   -3.2879    3.1896 C   0  0  0  0  0  0  0  0  0  0  0  0
    1.0246   -3.1451    4.0161 C   0  0  0  0  0  0  0  0  0  0  0  0
    0.7797   -1.6850    4.2959 C   0  0  2  0  0  0  0  0  0  0  0  0
   -0.5768   -1.2681    4.4975 O   0  0  0  0  0  0  0  0  0  0  0  0
   -0.8985    0.0665    4.0283 C   0  0  1  0  0  0  0  0  0  0  0  0
   -1.6131    0.9568    5.0543 C   0  0  2  0  0  0  0  0  0  0  0  0
   -1.8673    2.4014    4.3897 C   0  0  1  0  0  0  0  0  0  0  0  0
   -0.5562    3.0980    4.7199 C   0  0  0  0  0  0  0  0  0  0  0  0
    0.2813    2.0710    4.9198 C   0  0  0  0  0  0  0  0  0  0  0  0
    0.2426    1.0976    3.6808 C   0  0  2  0  0  0  0  0  0  0  0  0
   -0.3806    1.8022    2.4310 C   0  0  0  0  0  0  0  0  0  0  0  0
   -1.7946    2.3582    2.8296 C   0  0  0  0  0  0  0  0  0  0  0  0
    1.5754    0.4458    3.3308 C   0  0  0  0  0  0  0  0  0  0  0  0
    2.6419    1.0514    3.2589 O   0  0  0  0  0  0  0  0  0  0  0  0
    1.4378   -1.0476    3.0764 C   0  0  1  0  0  0  0  0  0  0  0  0
   -0.4114    1.2521    5.9865 C   0  0  2  0  0  0  0  0  0  0  0  0
    0.4256    0.2031    6.4629 O   0  0  0  0  0  0  0  0  0  0  0  0
    1.1266    0.5941    7.6556 C   0  0  1  0  0  0  0  0  0  0  0  0
    2.5600    0.9927    7.2706 C   0  0  0  0  0  0  0  0  0  0  0  0
    2.6044    2.4093    7.3951 O   0  0  0  0  0  0  0  0  0  0  0  0
    1.5119    2.9498    7.9415 C   0  0  0  0  0  0  0  0  0  0  0  0
    1.3330    4.1358    8.1919 O   0  0  0  0  0  0  0  0  0  0  0  0
    0.4852    1.8628    8.2310 C   0  0  2  0  0  0  0  0  0  0  0  0
    0.1013    1.7910    9.7176 C   0  0  0  0  0  0  0  0  0  0  0  0
   -0.6743    2.0195    7.2841 C   0  0  0  0  0  0  0  0  0  0  0  0
   -1.7519    2.5551    7.5581 O   0  0  0  0  0  0  0  0  0  0  0  0
    5.3425   -1.4483   -1.4089 N   0  0  0  0  0  0  0  0  0  0  0  0
    5.0176   -1.8191   -2.7274 O   0  0  0  0  0  0  0  0  0  0  0  0
    2.4448   -3.5684   -3.9183 H   0  0  0  0  0  0  0  0  0  0  0  0
    4.1163   -3.6381   -4.4926 H   0  0  0  0  0  0  0  0  0  0  0  0
    3.1804   -2.1490   -4.6715 H   0  0  0  0  0  0  0  0  0  0  0  0
    2.5105   -3.1946   -1.1384 H   0  0  0  0  0  0  0  0  0  0  0  0
    2.2368   -1.9548    0.6470 H   0  0  0  0  0  0  0  0  0  0  0  0
    3.4974   -1.7218    3.3914 H   0  0  0  0  0  0  0  0  0  0  0  0
    2.4715   -4.2295    2.8736 H   0  0  0  0  0  0  0  0  0  0  0  0
    0.4656   -3.9476    4.4742 H   0  0  0  0  0  0  0  0  0  0  0  0
    1.3826   -1.4859    5.1812 H   0  0  0  0  0  0  0  0  0  0  0  0
   -1.5672   -0.1135    3.1892 H   0  0  0  0  0  0  0  0  0  0  0  0
   -2.4758    0.4899    5.5305 H   0  0  0  0  0  0  0  0  0  0  0  0
   -2.7398    2.9364    4.7633 H   0  0  0  0  0  0  0  0  0  0  0  0
   -0.3060    3.9353    4.0898 H   0  0  0  0  0  0  0  0  0  0  0  0
    0.2887    2.5950    2.1182 H   0  0  0  0  0  0  0  0  0  0  0  0
   -0.4629    1.1288    1.5729 H   0  0  0  0  0  0  0  0  0  0  0  0
   -2.5826    1.7559    2.3885 H   0  0  0  0  0  0  0  0  0  0  0  0
   -1.9243    3.3558    2.4089 H   0  0  0  0  0  0  0  0  0  0  0  0
    0.7390   -1.1527    2.2488 H   0  0  0  0  0  0  0  0  0  0  0  0
    1.1128   -0.2386    8.3641 H   0  0  0  0  0  0  0  0  0  0  0  0
    3.2697    0.5314    7.9585 H   0  0  0  0  0  0  0  0  0  0  0  0
    2.8264    0.6702    6.2612 H   0  0  0  0  0  0  0  0  0  0  0  0
   -0.3602    2.7149   10.0583 H   0  0  0  0  0  0  0  0  0  0  0  0
    0.9812    1.6156   10.3303 H   0  0  0  0  0  0  0  0  0  0  0  0
   -0.6005    0.9803    9.8969 H   0  0  0  0  0  0  0  0  0  0  0  0
  1  2  1  0
  1 37  1  0
  1 38  1  0
  1 39  1  0
  2 36  1  0
  2  3  2  0
  3  4  1  0
  3 40  1  0
  4  5  1  0
  4 35  2  0
  5  6  2  0
  5  7  1  0
  7  8  1  0
  7 41  1  0
  8 23  1  0
  8  9  1  0
  8 42  1  1
  9 10  2  0
  9 43  1  0
 10 11  1  0
 10 44  1  0
 11 23  1  0
 11 12  1  0
 11 45  1  1
 12 13  1  0
 13 18  1  0
 13 14  1  0
 13 46  1  6
 14 24  1  0
 14 15  1  0
 14 47  1  1
 15 20  1  0
 15 16  1  0
 15 48  1  6
 16 17  2  0
 16 49  1  0
 17 18  1  0
 17 24  1  0
 18 19  1  0
 18 21  1  6
 19 20  1  0
 19 50  1  0
 19 51  1  0
 20 52  1  0
 20 53  1  0
 21 22  2  0
 21 23  1  0
 23 54  1  6
 24 33  1  0
 24 25  1  1
 25 26  1  0
 26 31  1  0
 26 27  1  0
 26 55  1  1
 27 28  1  0
 27 56  1  0
 27 57  1  0
 28 29  1  0
 29 30  2  0
 29 31  1  0
 31 32  1  1
 31 33  1  0
 32 58  1  0
 32 59  1  0
 32 60  1  0
 33 34  2  0
 35 36  1  0
M  END
>  <i_m_ct_stereo_status>  (121) 
1

>  <s_m_source_file>  (121) 
/var/tmp/pbs.5076255.sched01/tmpnk13i6y_/41i0yhob8r.sdf

>  <i_m_source_file_index>  (121) 
8

>  <i_lp_mmshare_version>  (121) 
48012

>  <i_f3d_flags>  (121) 
0

>  <s_epik_input>  (121) 
W0NIM11jMVtjSF1jKG5vMSlDKD1PKVtOSF1bQ0BIXShbQ0hdPVtDSF0yKVtDQEhdKEMzPU8pW0NASF0yT1tDQEhdKFtDQF0zNDUpW0NASF02W0NAXTcoQzQ9W0NIXVtDQEhdNltDSDJdW0NIMl01KU9bQ0BASF04W0NAXShbQ0gzXSkoQzc9TylDKD1PKU9bQ0gyXTg=

>  <s_epik_cmdline>  (121) 
J2VwaWtfcHl0aG9uJywgJy1waHQnLCAnMi4wJywgJy1waCcsICc3LjAnLCAnLXRuJywgJzgnLCAnLW1hJywgJzIwMCcsICctaW1hZScsICc8aW5maWxlLm1hZT4nLCAnLW9tYWUnLCAnPG91dGZpbGUubWFlPic=

>  <r_lp_tautomer_probability>  (121) 
1

>  <r_epik_Ionization_Penalty>  (121) 
2.58516e-05

>  <r_epik_Ionization_Penalty_Charging>  (121) 
0

>  <r_epik_Ionization_Penalty_Neutral>  (121) 
2.58516e-05

>  <r_epik_State_Penalty>  (121) 
-0

>  <r_epik_Charging_Adjusted_Penalty>  (121) 
0

>  <i_epik_Tot_Q>  (121) 
0

>  <i_epik_Tot_abs_Q>  (121) 
0

>  <s_epik_Chemistry_Notes>  (121) 
This compound has an ester and may undergo hydrolysis at high or low pH.

>  <s_lp_Force_Field>  (121) 
OPLS3e

>  <r_lp_Energy>  (121) 
113.554

>  <b_lp_Chiralities_Consistent>  (121) 
1

>  <s_lp_Variant>  (121) 
41:0-1

>  <s_i_glide_gridfile>  (121) 
pfpi4k_grid

>  <i_i_glide_lignum>  (121) 
8

>  <i_i_glide_rotatable_bonds>  (121) 
3

>  <r_i_docking_score>  (121) 
-2.16875

>  <r_i_glide_ligand_efficiency>  (121) 
-0.060243

>  <r_i_glide_ligand_efficiency_sa>  (121) 
-0.198918

>  <r_i_glide_ligand_efficiency_ln>  (121) 
-0.473162

>  <r_i_glide_gscore>  (121) 
-2.16875

>  <r_i_glide_lipo>  (121) 
-0.115002

>  <r_i_glide_hbond>  (121) 
-0.0535564

>  <r_i_glide_metal>  (121) 
-0

>  <r_i_glide_rewards>  (121) 
-0.0512907

>  <r_i_glide_evdw>  (121) 
-32.0222

>  <r_i_glide_ecoul>  (121) 
-3.23927

>  <r_i_glide_erotb>  (121) 
0.251901

>  <r_i_glide_esite>  (121) 
-0.113799

>  <r_i_glide_emodel>  (121) 
-39.4976

>  <r_i_glide_energy>  (121) 
-35.2615

>  <r_i_glide_einternal>  (121) 
1.16425

>  <r_i_glide_intrahb_reward>  (121) 
-0

>  <i_i_glide_confnum>  (121) 
2

>  <i_i_glide_posenum>  (121) 
1

>  <r_i_glide_eff_state_penalty>  (121) 
0

>  <ligand_id>  (121) 
41

>  <original_smiles>  (121) 
Cc1cc(C(=O)NC2C=CC3OC4C5C6C=C(C4(CC6)C(=O)C23)C52OC3COC(=O)C3(C)C2=O)no1

>  <smiles>  (121) 
[H]C1=C([H])C([H])(N([H])C(=O)c2noc(C([H])([H])[H])c2[H])C2([H])C(=O)C34C5=C([H])C([H])(C([H])([H])C3([H])[H])C([H])(C53OC5([H])C([H])([H])OC(=O)C5(C([H])([H])[H])C3=O)C4([H])OC12[H]

$$$$
41:0:2
     RDKit          3D

 60 67  0  0  1  0  0  0  0  0999 V2000
    2.4949   -2.5273   -3.8295 C   0  0  0  0  0  0  0  0  0  0  0  0
    3.5948   -2.8290   -2.8850 C   0  0  0  0  0  0  0  0  0  0  0  0
    3.6202   -3.2274   -1.5775 C   0  0  0  0  0  0  0  0  0  0  0  0
    5.0198   -3.3561   -1.3039 C   0  0  0  0  0  0  0  0  0  0  0  0
    5.4864   -3.7431    0.0852 C   0  0  0  0  0  0  0  0  0  0  0  0
    6.4783   -3.2057    0.5955 O   0  0  0  0  0  0  0  0  0  0  0  0
    4.7676   -4.7006    0.6808 N   0  0  0  0  0  0  0  0  0  0  0  0
    4.8624   -5.0621    2.1000 C   0  0  2  0  0  0  0  0  0  0  0  0
    6.1416   -5.7993    2.4551 C   0  0  0  0  0  0  0  0  0  0  0  0
    5.9219   -6.7998    3.3075 C   0  0  0  0  0  0  0  0  0  0  0  0
    4.4647   -6.8556    3.6876 C   0  0  2  0  0  0  0  0  0  0  0  0
    3.8956   -8.1456    3.9364 O   0  0  0  0  0  0  0  0  0  0  0  0
    2.5080   -8.3221    3.5524 C   0  0  1  0  0  0  0  0  0  0  0  0
    1.6108   -8.9206    4.6542 C   0  0  2  0  0  0  0  0  0  0  0  0
    0.1089   -9.0108    4.0879 C   0  0  1  0  0  0  0  0  0  0  0  0
   -0.4110   -7.6295    4.4530 C   0  0  0  0  0  0  0  0  0  0  0  0
    0.7127   -6.9106    4.5678 C   0  0  0  0  0  0  0  0  0  0  0  0
    1.5866   -7.0739    3.2629 C   0  0  2  0  0  0  0  0  0  0  0  0
    0.7176   -7.6227    2.0736 C   0  0  0  0  0  0  0  0  0  0  0  0
    0.0568   -8.9670    2.5328 C   0  0  0  0  0  0  0  0  0  0  0  0
    2.3736   -5.8289    2.8497 C   0  0  0  0  0  0  0  0  0  0  0  0
    1.8795   -4.7052    2.7713 O   0  0  0  0  0  0  0  0  0  0  0  0
    3.8290   -6.1358    2.5032 C   0  0  1  0  0  0  0  0  0  0  0  0
    1.5169   -7.6865    5.5867 C   0  0  2  0  0  0  0  0  0  0  0  0
    2.6767   -6.9572    5.9691 O   0  0  0  0  0  0  0  0  0  0  0  0
    2.4608   -6.2172    7.1834 C   0  0  1  0  0  0  0  0  0  0  0  0
    2.2193   -4.7493    6.8044 C   0  0  0  0  0  0  0  0  0  0  0  0
    0.8348   -4.5259    7.0127 O   0  0  0  0  0  0  0  0  0  0  0  0
    0.2023   -5.5260    7.6170 C   0  0  0  0  0  0  0  0  0  0  0  0
   -0.9704   -5.5158    7.9747 O   0  0  0  0  0  0  0  0  0  0  0  0
    1.1665   -6.6881    7.8537 C   0  0  2  0  0  0  0  0  0  0  0  0
    1.2971   -7.0695    9.3386 C   0  0  0  0  0  0  0  0  0  0  0  0
    0.8104   -7.8353    6.9424 C   0  0  0  0  0  0  0  0  0  0  0  0
    0.1463   -8.8164    7.2866 O   0  0  0  0  0  0  0  0  0  0  0  0
    5.7675   -2.9986   -2.3370 N   0  0  0  0  0  0  0  0  0  0  0  0
    4.8558   -2.6868   -3.3584 O   0  0  0  0  0  0  0  0  0  0  0  0
    1.5229   -2.6729   -3.3622 H   0  0  0  0  0  0  0  0  0  0  0  0
    2.5645   -3.1835   -4.6912 H   0  0  0  0  0  0  0  0  0  0  0  0
    2.5706   -1.4980   -4.1744 H   0  0  0  0  0  0  0  0  0  0  0  0
    2.7708   -3.3935   -0.9344 H   0  0  0  0  0  0  0  0  0  0  0  0
    4.0382   -5.1335    0.1281 H   0  0  0  0  0  0  0  0  0  0  0  0
    4.7708   -4.1589    2.7052 H   0  0  0  0  0  0  0  0  0  0  0  0
    7.1071   -5.5107    2.0743 H   0  0  0  0  0  0  0  0  0  0  0  0
    6.6768   -7.4497    3.7253 H   0  0  0  0  0  0  0  0  0  0  0  0
    4.3945   -6.2266    4.5732 H   0  0  0  0  0  0  0  0  0  0  0  0
    2.5700   -9.0058    2.7017 H   0  0  0  0  0  0  0  0  0  0  0  0
    1.9922   -9.8343    5.1143 H   0  0  0  0  0  0  0  0  0  0  0  0
   -0.4889   -9.8120    4.5140 H   0  0  0  0  0  0  0  0  0  0  0  0
   -1.2803   -7.2993    3.9162 H   0  0  0  0  0  0  0  0  0  0  0  0
   -0.0432   -6.8900    1.8060 H   0  0  0  0  0  0  0  0  0  0  0  0
    1.3207   -7.7828    1.1783 H   0  0  0  0  0  0  0  0  0  0  0  0
    0.5596   -9.8332    2.0968 H   0  0  0  0  0  0  0  0  0  0  0  0
   -0.9696   -9.0035    2.1748 H   0  0  0  0  0  0  0  0  0  0  0  0
    3.7976   -6.8557    1.6849 H   0  0  0  0  0  0  0  0  0  0  0  0
    3.3352   -6.3263    7.8307 H   0  0  0  0  0  0  0  0  0  0  0  0
    2.8015   -4.0934    7.4510 H   0  0  0  0  0  0  0  0  0  0  0  0
    2.4949   -4.5289    5.7707 H   0  0  0  0  0  0  0  0  0  0  0  0
    0.3533   -7.4204    9.7451 H   0  0  0  0  0  0  0  0  0  0  0  0
    1.6190   -6.2121    9.9203 H   0  0  0  0  0  0  0  0  0  0  0  0
    2.0308   -7.8615    9.4666 H   0  0  0  0  0  0  0  0  0  0  0  0
  1  2  1  0
  1 37  1  0
  1 38  1  0
  1 39  1  0
  2 36  1  0
  2  3  2  0
  3  4  1  0
  3 40  1  0
  4  5  1  0
  4 35  2  0
  5  6  2  0
  5  7  1  0
  7  8  1  0
  7 41  1  0
  8 23  1  0
  8  9  1  0
  8 42  1  1
  9 10  2  0
  9 43  1  0
 10 11  1  0
 10 44  1  0
 11 23  1  0
 11 12  1  0
 11 45  1  1
 12 13  1  0
 13 18  1  0
 13 14  1  0
 13 46  1  6
 14 24  1  0
 14 15  1  0
 14 47  1  1
 15 20  1  0
 15 16  1  0
 15 48  1  1
 16 17  2  0
 16 49  1  0
 17 18  1  0
 17 24  1  0
 18 19  1  0
 18 21  1  6
 19 20  1  0
 19 50  1  0
 19 51  1  0
 20 52  1  0
 20 53  1  0
 21 22  2  0
 21 23  1  0
 23 54  1  6
 24 33  1  0
 24 25  1  1
 25 26  1  0
 26 31  1  0
 26 27  1  0
 26 55  1  1
 27 28  1  0
 27 56  1  0
 27 57  1  0
 28 29  1  0
 29 30  2  0
 29 31  1  0
 31 32  1  1
 31 33  1  0
 32 58  1  0
 32 59  1  0
 32 60  1  0
 33 34  2  0
 35 36  1  0
M  END
>  <i_m_ct_stereo_status>  (122) 
1

>  <s_m_source_file>  (122) 
/var/tmp/pbs.5076255.sched01/tmpnk13i6y_/41i0yhob8r.sdf

>  <i_m_source_file_index>  (122) 
8

>  <i_lp_mmshare_version>  (122) 
48012

>  <i_f3d_flags>  (122) 
0

>  <s_epik_input>  (122) 
W0NIM11jMVtjSF1jKG5vMSlDKD1PKVtOSF1bQ0BIXShbQ0hdPVtDSF0yKVtDQEhdKEMzPU8pW0NASF0yT1tDQEhdKFtDQF0zNDUpW0NASF02W0NAXTcoQzQ9W0NIXVtDQEhdNltDSDJdW0NIMl01KU9bQ0BASF04W0NAXShbQ0gzXSkoQzc9TylDKD1PKU9bQ0gyXTg=

>  <s_epik_cmdline>  (122) 
J2VwaWtfcHl0aG9uJywgJy1waHQnLCAnMi4wJywgJy1waCcsICc3LjAnLCAnLXRuJywgJzgnLCAnLW1hJywgJzIwMCcsICctaW1hZScsICc8aW5maWxlLm1hZT4nLCAnLW9tYWUnLCAnPG91dGZpbGUubWFlPic=

>  <r_lp_tautomer_probability>  (122) 
1

>  <r_epik_Ionization_Penalty>  (122) 
2.58516e-05

>  <r_epik_Ionization_Penalty_Charging>  (122) 
0

>  <r_epik_Ionization_Penalty_Neutral>  (122) 
2.58516e-05

>  <r_epik_State_Penalty>  (122) 
-0

>  <r_epik_Charging_Adjusted_Penalty>  (122) 
0

>  <i_epik_Tot_Q>  (122) 
0

>  <i_epik_Tot_abs_Q>  (122) 
0

>  <s_epik_Chemistry_Notes>  (122) 
This compound has an ester and may undergo hydrolysis at high or low pH.

>  <s_lp_Force_Field>  (122) 
OPLS3e

>  <r_lp_Energy>  (122) 
113.554

>  <b_lp_Chiralities_Consistent>  (122) 
1

>  <s_lp_Variant>  (122) 
41:0-1

>  <s_i_glide_gridfile>  (122) 
pfpi4k_grid

>  <i_i_glide_lignum>  (122) 
8

>  <i_i_glide_rotatable_bonds>  (122) 
3

>  <r_i_docking_score>  (122) 
-2.06112

>  <r_i_glide_ligand_efficiency>  (122) 
-0.0572533

>  <r_i_glide_ligand_efficiency_sa>  (122) 
-0.189046

>  <r_i_glide_ligand_efficiency_ln>  (122) 
-0.44968

>  <r_i_glide_gscore>  (122) 
-2.06112

>  <r_i_glide_lipo>  (122) 
-0.32949

>  <r_i_glide_hbond>  (122) 
0

>  <r_i_glide_metal>  (122) 
-0

>  <r_i_glide_rewards>  (122) 
-0.12906

>  <r_i_glide_evdw>  (122) 
-32.1145

>  <r_i_glide_ecoul>  (122) 
-1.47159

>  <r_i_glide_erotb>  (122) 
0.251901

>  <r_i_glide_esite>  (122) 
-0.0280047

>  <r_i_glide_emodel>  (122) 
-37.1839

>  <r_i_glide_energy>  (122) 
-33.5861

>  <r_i_glide_einternal>  (122) 
1.84471

>  <r_i_glide_intrahb_reward>  (122) 
-0

>  <i_i_glide_confnum>  (122) 
4

>  <i_i_glide_posenum>  (122) 
2

>  <r_i_glide_eff_state_penalty>  (122) 
0

>  <ligand_id>  (122) 
41

>  <original_smiles>  (122) 
Cc1cc(C(=O)NC2C=CC3OC4C5C6C=C(C4(CC6)C(=O)C23)C52OC3COC(=O)C3(C)C2=O)no1

>  <smiles>  (122) 
[H]C1=C([H])C([H])(N([H])C(=O)c2noc(C([H])([H])[H])c2[H])C2([H])C(=O)C34C5=C([H])C([H])(C([H])([H])C3([H])[H])C([H])(C53OC5([H])C([H])([H])OC(=O)C5(C([H])([H])[H])C3=O)C4([H])OC12[H]

$$$$
42:0:0
     RDKit          3D

 20 22  0  0  1  0  0  0  0  0999 V2000
   -0.9615   -9.0506    2.8552 C   0  0  0  0  0  0  0  0  0  0  0  0
    0.0310   -8.0854    2.2967 C   0  0  0  0  0  0  0  0  0  0  0  0
    1.3926   -8.0088    2.3416 C   0  0  0  0  0  0  0  0  0  0  0  0
    1.6984   -6.8413    1.5851 C   0  0  0  0  0  0  0  0  0  0  0  0
    3.0119   -6.2646    1.2943 C   0  0  0  0  0  0  0  0  0  0  0  0
    3.3257   -5.1544    0.5418 C   0  0  0  0  0  0  0  0  0  0  0  0
    4.7040   -5.0655    0.6020 N   0  0  0  0  0  0  0  0  0  0  0  0
    5.6266   -4.2119    0.0884 N   0  0  0  0  0  0  0  0  0  0  0  0
    6.8339   -4.6033    0.4868 C   0  0  0  0  0  0  0  0  0  0  0  0
    6.9043   -6.0531    1.4937 S   0  0  0  0  0  0  0  0  0  0  0  0
    5.1437   -6.1186    1.3794 C   0  0  0  0  0  0  0  0  0  0  0  0
    4.1647   -6.8647    1.8142 N   0  0  0  0  0  0  0  0  0  0  0  0
    0.5990   -6.2613    1.1257 N   0  0  0  0  0  0  0  0  0  0  0  0
   -0.4663   -7.0456    1.5777 O   0  0  0  0  0  0  0  0  0  0  0  0
   -0.4680   -9.8458    3.4147 H   0  0  0  0  0  0  0  0  0  0  0  0
   -1.5419   -9.5105    2.0557 H   0  0  0  0  0  0  0  0  0  0  0  0
   -1.6521   -8.5442    3.5284 H   0  0  0  0  0  0  0  0  0  0  0  0
    2.0786   -8.6888    2.8325 H   0  0  0  0  0  0  0  0  0  0  0  0
    2.7267   -4.4438   -0.0167 H   0  0  0  0  0  0  0  0  0  0  0  0
    7.7394   -4.0840    0.1936 H   0  0  0  0  0  0  0  0  0  0  0  0
  1  2  1  0
  1 15  1  0
  1 16  1  0
  1 17  1  0
  2 14  1  0
  2  3  2  0
  3  4  1  0
  3 18  1  0
  4  5  1  0
  4 13  2  0
  5 12  1  0
  5  6  2  0
  6  7  1  0
  6 19  1  0
  7 11  1  0
  7  8  1  0
  8  9  2  0
  9 10  1  0
  9 20  1  0
 10 11  1  0
 11 12  2  0
 13 14  1  0
M  END
>  <i_m_ct_stereo_status>  (123) 
1

>  <s_m_source_file>  (123) 
/var/tmp/pbs.5076255.sched01/tmpnk13i6y_/41i0yhob8r.sdf

>  <i_m_source_file_index>  (123) 
9

>  <i_lp_mmshare_version>  (123) 
48012

>  <i_f3d_flags>  (123) 
0

>  <s_epik_input>  (123) 
W0NIM11jMVtjSF1jKG5vMSktYyhbY0hdMiluYyhuMjMpc1tjSF1uMw==

>  <s_epik_cmdline>  (123) 
J2VwaWtfcHl0aG9uJywgJy1waHQnLCAnMi4wJywgJy1waCcsICc3LjAnLCAnLXRuJywgJzgnLCAnLW1hJywgJzIwMCcsICctaW1hZScsICc8aW5maWxlLm1hZT4nLCAnLW9tYWUnLCAnPG91dGZpbGUubWFlPic=

>  <r_lp_tautomer_probability>  (123) 
1

>  <r_epik_Ionization_Penalty>  (123) 
2.94019e-05

>  <r_epik_Ionization_Penalty_Charging>  (123) 
2.94019e-05

>  <r_epik_Ionization_Penalty_Neutral>  (123) 
3.2672e-11

>  <r_epik_State_Penalty>  (123) 
-0

>  <r_epik_Charging_Adjusted_Penalty>  (123) 
2.94019e-05

>  <i_epik_Tot_Q>  (123) 
0

>  <i_epik_Tot_abs_Q>  (123) 
0

>  <s_lp_Force_Field>  (123) 
OPLS3e

>  <r_lp_Energy>  (123) 
0.309776

>  <b_lp_Chiralities_Consistent>  (123) 
1

>  <s_lp_Variant>  (123) 
42:0-1

>  <s_i_glide_gridfile>  (123) 
pfpi4k_grid

>  <i_i_glide_lignum>  (123) 
9

>  <i_i_glide_rotatable_bonds>  (123) 
1

>  <r_i_docking_score>  (123) 
-3.69809

>  <r_i_glide_ligand_efficiency>  (123) 
-0.264149

>  <r_i_glide_ligand_efficiency_sa>  (123) 
-0.636638

>  <r_i_glide_ligand_efficiency_ln>  (123) 
-1.01622

>  <r_i_glide_gscore>  (123) 
-3.69809

>  <r_i_glide_lipo>  (123) 
-0.23707

>  <r_i_glide_hbond>  (123) 
0

>  <r_i_glide_metal>  (123) 
-0

>  <r_i_glide_rewards>  (123) 
-2.18556

>  <r_i_glide_evdw>  (123) 
-18.1324

>  <r_i_glide_ecoul>  (123) 
-3.712

>  <r_i_glide_erotb>  (123) 
0.387956

>  <r_i_glide_esite>  (123) 
-0.2

>  <r_i_glide_emodel>  (123) 
-28.2363

>  <r_i_glide_energy>  (123) 
-21.8444

>  <r_i_glide_einternal>  (123) 
0.0083185

>  <r_i_glide_intrahb_reward>  (123) 
-0

>  <i_i_glide_confnum>  (123) 
1

>  <i_i_glide_posenum>  (123) 
38

>  <r_i_glide_eff_state_penalty>  (123) 
0

>  <ligand_id>  (123) 
42

>  <original_smiles>  (123) 
Cc1cc(-c2cn3ncsc3n2)no1

>  <smiles>  (123) 
[H]c1nn2c([H])c(-c3noc(C([H])([H])[H])c3[H])nc2s1

$$$$
42:0:1
     RDKit          3D

 20 22  0  0  1  0  0  0  0  0999 V2000
    2.7537    0.4595   -5.0051 C   0  0  0  0  0  0  0  0  0  0  0  0
    3.2861   -0.6382   -4.1622 C   0  0  0  0  0  0  0  0  0  0  0  0
    3.0165   -1.0545   -2.8989 C   0  0  0  0  0  0  0  0  0  0  0  0
    3.8481   -2.1888   -2.7112 C   0  0  0  0  0  0  0  0  0  0  0  0
    3.9582   -3.0554   -1.5299 C   0  0  0  0  0  0  0  0  0  0  0  0
    3.0804   -3.1538   -0.4817 C   0  0  0  0  0  0  0  0  0  0  0  0
    3.6470   -4.0774    0.3715 N   0  0  0  0  0  0  0  0  0  0  0  0
    3.2835   -4.6121    1.5661 N   0  0  0  0  0  0  0  0  0  0  0  0
    4.2278   -5.4677    1.9503 C   0  0  0  0  0  0  0  0  0  0  0  0
    5.6131   -5.6541    0.8678 S   0  0  0  0  0  0  0  0  0  0  0  0
    4.8437   -4.4730   -0.1959 C   0  0  0  0  0  0  0  0  0  0  0  0
    5.0813   -3.8702   -1.3291 N   0  0  0  0  0  0  0  0  0  0  0  0
    4.5596   -2.4366   -3.7975 N   0  0  0  0  0  0  0  0  0  0  0  0
    4.2148   -1.4416   -4.7176 O   0  0  0  0  0  0  0  0  0  0  0  0
    1.9686    0.9842   -4.4682 H   0  0  0  0  0  0  0  0  0  0  0  0
    2.3042    0.0737   -5.9188 H   0  0  0  0  0  0  0  0  0  0  0  0
    3.5490    1.1574   -5.2733 H   0  0  0  0  0  0  0  0  0  0  0  0
    2.2997   -0.6162   -2.2248 H   0  0  0  0  0  0  0  0  0  0  0  0
    2.1446   -2.6614   -0.2591 H   0  0  0  0  0  0  0  0  0  0  0  0
    4.1746   -6.0284    2.8790 H   0  0  0  0  0  0  0  0  0  0  0  0
  1  2  1  0
  1 15  1  0
  1 16  1  0
  1 17  1  0
  2 14  1  0
  2  3  2  0
  3  4  1  0
  3 18  1  0
  4  5  1  0
  4 13  2  0
  5 12  1  0
  5  6  2  0
  6  7  1  0
  6 19  1  0
  7 11  1  0
  7  8  1  0
  8  9  2  0
  9 10  1  0
  9 20  1  0
 10 11  1  0
 11 12  2  0
 13 14  1  0
M  END
>  <i_m_ct_stereo_status>  (124) 
1

>  <s_m_source_file>  (124) 
/var/tmp/pbs.5076255.sched01/tmpnk13i6y_/41i0yhob8r.sdf

>  <i_m_source_file_index>  (124) 
9

>  <i_lp_mmshare_version>  (124) 
48012

>  <i_f3d_flags>  (124) 
0

>  <s_epik_input>  (124) 
W0NIM11jMVtjSF1jKG5vMSktYyhbY0hdMiluYyhuMjMpc1tjSF1uMw==

>  <s_epik_cmdline>  (124) 
J2VwaWtfcHl0aG9uJywgJy1waHQnLCAnMi4wJywgJy1waCcsICc3LjAnLCAnLXRuJywgJzgnLCAnLW1hJywgJzIwMCcsICctaW1hZScsICc8aW5maWxlLm1hZT4nLCAnLW9tYWUnLCAnPG91dGZpbGUubWFlPic=

>  <r_lp_tautomer_probability>  (124) 
1

>  <r_epik_Ionization_Penalty>  (124) 
2.94019e-05

>  <r_epik_Ionization_Penalty_Charging>  (124) 
2.94019e-05

>  <r_epik_Ionization_Penalty_Neutral>  (124) 
3.2672e-11

>  <r_epik_State_Penalty>  (124) 
-0

>  <r_epik_Charging_Adjusted_Penalty>  (124) 
2.94019e-05

>  <i_epik_Tot_Q>  (124) 
0

>  <i_epik_Tot_abs_Q>  (124) 
0

>  <s_lp_Force_Field>  (124) 
OPLS3e

>  <r_lp_Energy>  (124) 
0.309776

>  <b_lp_Chiralities_Consistent>  (124) 
1

>  <s_lp_Variant>  (124) 
42:0-1

>  <s_i_glide_gridfile>  (124) 
pfpi4k_grid

>  <i_i_glide_lignum>  (124) 
9

>  <i_i_glide_rotatable_bonds>  (124) 
1

>  <r_i_docking_score>  (124) 
-3.68577

>  <r_i_glide_ligand_efficiency>  (124) 
-0.263269

>  <r_i_glide_ligand_efficiency_sa>  (124) 
-0.634517

>  <r_i_glide_ligand_efficiency_ln>  (124) 
-1.01284

>  <r_i_glide_gscore>  (124) 
-3.68577

>  <r_i_glide_lipo>  (124) 
-0.367134

>  <r_i_glide_hbond>  (124) 
0

>  <r_i_glide_metal>  (124) 
-0

>  <r_i_glide_rewards>  (124) 
-2.03835

>  <r_i_glide_evdw>  (124) 
-20.0479

>  <r_i_glide_ecoul>  (124) 
-3.94819

>  <r_i_glide_erotb>  (124) 
0.387956

>  <r_i_glide_esite>  (124) 
-0.0736188

>  <r_i_glide_emodel>  (124) 
-29.2292

>  <r_i_glide_energy>  (124) 
-23.9961

>  <r_i_glide_einternal>  (124) 
2.26892

>  <r_i_glide_intrahb_reward>  (124) 
-0

>  <i_i_glide_confnum>  (124) 
2

>  <i_i_glide_posenum>  (124) 
31

>  <r_i_glide_eff_state_penalty>  (124) 
0

>  <ligand_id>  (124) 
42

>  <original_smiles>  (124) 
Cc1cc(-c2cn3ncsc3n2)no1

>  <smiles>  (124) 
[H]c1nn2c([H])c(-c3noc(C([H])([H])[H])c3[H])nc2s1

$$$$
42:0:2
     RDKit          3D

 20 22  0  0  1  0  0  0  0  0999 V2000
   -0.5551   -9.7515    3.1911 C   0  0  0  0  0  0  0  0  0  0  0  0
    0.1012   -8.5942    2.5327 C   0  0  0  0  0  0  0  0  0  0  0  0
    1.4036   -8.2959    2.2624 C   0  0  0  0  0  0  0  0  0  0  0  0
    1.3352   -7.0378    1.6080 C   0  0  0  0  0  0  0  0  0  0  0  0
    2.4481   -6.2299    1.0986 C   0  0  0  0  0  0  0  0  0  0  0  0
    3.7957   -6.4726    1.2073 C   0  0  0  0  0  0  0  0  0  0  0  0
    4.4035   -5.4210    0.5488 N   0  0  0  0  0  0  0  0  0  0  0  0
    5.6889   -5.0697    0.2990 N   0  0  0  0  0  0  0  0  0  0  0  0
    5.6901   -3.9346   -0.3973 C   0  0  0  0  0  0  0  0  0  0  0  0
    4.1091   -3.2439   -0.7871 S   0  0  0  0  0  0  0  0  0  0  0  0
    3.3963   -4.6031    0.0801 C   0  0  0  0  0  0  0  0  0  0  0  0
    2.2103   -5.0475    0.3839 N   0  0  0  0  0  0  0  0  0  0  0  0
    0.0786   -6.6215    1.4937 N   0  0  0  0  0  0  0  0  0  0  0  0
   -0.7150   -7.6039    2.0942 O   0  0  0  0  0  0  0  0  0  0  0  0
    0.1806  -10.4893    3.5108 H   0  0  0  0  0  0  0  0  0  0  0  0
   -1.2548  -10.2359    2.5098 H   0  0  0  0  0  0  0  0  0  0  0  0
   -1.1013   -9.4207    4.0728 H   0  0  0  0  0  0  0  0  0  0  0  0
    2.2758   -8.8905    2.4875 H   0  0  0  0  0  0  0  0  0  0  0  0
    4.3607   -7.2655    1.6725 H   0  0  0  0  0  0  0  0  0  0  0  0
    6.6046   -3.4554   -0.7280 H   0  0  0  0  0  0  0  0  0  0  0  0
  1  2  1  0
  1 15  1  0
  1 16  1  0
  1 17  1  0
  2 14  1  0
  2  3  2  0
  3  4  1  0
  3 18  1  0
  4  5  1  0
  4 13  2  0
  5 12  1  0
  5  6  2  0
  6  7  1  0
  6 19  1  0
  7 11  1  0
  7  8  1  0
  8  9  2  0
  9 10  1  0
  9 20  1  0
 10 11  1  0
 11 12  2  0
 13 14  1  0
M  END
>  <i_m_ct_stereo_status>  (125) 
1

>  <s_m_source_file>  (125) 
/var/tmp/pbs.5076255.sched01/tmpnk13i6y_/41i0yhob8r.sdf

>  <i_m_source_file_index>  (125) 
9

>  <i_lp_mmshare_version>  (125) 
48012

>  <i_f3d_flags>  (125) 
0

>  <s_epik_input>  (125) 
W0NIM11jMVtjSF1jKG5vMSktYyhbY0hdMiluYyhuMjMpc1tjSF1uMw==

>  <s_epik_cmdline>  (125) 
J2VwaWtfcHl0aG9uJywgJy1waHQnLCAnMi4wJywgJy1waCcsICc3LjAnLCAnLXRuJywgJzgnLCAnLW1hJywgJzIwMCcsICctaW1hZScsICc8aW5maWxlLm1hZT4nLCAnLW9tYWUnLCAnPG91dGZpbGUubWFlPic=

>  <r_lp_tautomer_probability>  (125) 
1

>  <r_epik_Ionization_Penalty>  (125) 
2.94019e-05

>  <r_epik_Ionization_Penalty_Charging>  (125) 
2.94019e-05

>  <r_epik_Ionization_Penalty_Neutral>  (125) 
3.2672e-11

>  <r_epik_State_Penalty>  (125) 
-0

>  <r_epik_Charging_Adjusted_Penalty>  (125) 
2.94019e-05

>  <i_epik_Tot_Q>  (125) 
0

>  <i_epik_Tot_abs_Q>  (125) 
0

>  <s_lp_Force_Field>  (125) 
OPLS3e

>  <r_lp_Energy>  (125) 
0.309776

>  <b_lp_Chiralities_Consistent>  (125) 
1

>  <s_lp_Variant>  (125) 
42:0-1

>  <s_i_glide_gridfile>  (125) 
pfpi4k_grid

>  <i_i_glide_lignum>  (125) 
9

>  <i_i_glide_rotatable_bonds>  (125) 
1

>  <r_i_docking_score>  (125) 
-3.58099

>  <r_i_glide_ligand_efficiency>  (125) 
-0.255785

>  <r_i_glide_ligand_efficiency_sa>  (125) 
-0.616478

>  <r_i_glide_ligand_efficiency_ln>  (125) 
-0.984044

>  <r_i_glide_gscore>  (125) 
-3.58099

>  <r_i_glide_lipo>  (125) 
-0.141824

>  <r_i_glide_hbond>  (125) 
-0.0178992

>  <r_i_glide_metal>  (125) 
-0

>  <r_i_glide_rewards>  (125) 
-2.08674

>  <r_i_glide_evdw>  (125) 
-19.2693

>  <r_i_glide_ecoul>  (125) 
-3.69174

>  <r_i_glide_erotb>  (125) 
0.387956

>  <r_i_glide_esite>  (125) 
-0.205256

>  <r_i_glide_emodel>  (125) 
-28.0772

>  <r_i_glide_energy>  (125) 
-22.961

>  <r_i_glide_einternal>  (125) 
2.16212

>  <r_i_glide_intrahb_reward>  (125) 
-0

>  <i_i_glide_confnum>  (125) 
4

>  <i_i_glide_posenum>  (125) 
19

>  <r_i_glide_eff_state_penalty>  (125) 
0

>  <ligand_id>  (125) 
42

>  <original_smiles>  (125) 
Cc1cc(-c2cn3ncsc3n2)no1

>  <smiles>  (125) 
[H]c1nn2c([H])c(-c3noc(C([H])([H])[H])c3[H])nc2s1

$$$$
43:0:0
     RDKit          3D

 40 43  0  0  1  0  0  0  0  0999 V2000
    2.9462   -0.6949   -3.2889 C   0  0  0  0  0  0  0  0  0  0  0  0
    3.9953   -1.3893   -2.4252 C   0  0  2  0  0  0  0  0  0  0  0  0
    4.9965   -2.0968   -3.3205 C   0  0  0  0  0  0  0  0  0  0  0  0
    6.2096   -2.4597   -2.4548 C   0  0  0  0  0  0  0  0  0  0  0  0
    5.8457   -3.3910   -1.2950 C   0  0  1  0  0  0  0  0  0  0  0  0
    6.9975   -3.6224   -0.4851 O   0  0  0  0  0  0  0  0  0  0  0  0
    7.3627   -2.5687    0.3541 C   0  0  0  0  0  0  0  0  0  0  0  0
    6.3246   -2.1986    1.2015 O   0  0  0  0  0  0  0  0  0  0  0  0
    5.1655   -1.7706    0.4988 C   0  0  0  0  0  0  0  0  0  0  0  0
    4.6566   -2.9035   -0.4254 C   0  0  2  0  0  0  0  0  0  0  0  0
    4.2448   -4.0692    0.5081 C   0  0  2  0  0  0  0  0  0  0  0  0
    3.8107   -5.2764   -0.1553 O   0  0  0  0  0  0  0  0  0  0  0  0
    2.4464   -4.9233    0.1181 C   0  0  2  0  0  0  0  0  0  0  0  0
    1.6793   -6.0282    0.8512 C   0  0  0  0  0  0  0  0  0  0  0  0
    1.7562   -4.2688   -1.0865 C   0  0  0  0  0  0  0  0  0  0  0  0
    2.6757   -3.4878   -2.0243 C   0  0  0  0  0  0  0  0  0  0  0  0
    3.4805   -2.3705   -1.3329 C   0  0  2  0  0  0  0  0  0  0  0  0
    2.9113   -3.9179    1.0377 O   0  0  0  0  0  0  0  0  0  0  0  0
    2.4537   -1.3778   -3.9892 H   0  0  0  0  0  0  0  0  0  0  0  0
    3.3764    0.1157   -3.8857 H   0  0  0  0  0  0  0  0  0  0  0  0
    2.2216   -0.2542   -2.6105 H   0  0  0  0  0  0  0  0  0  0  0  0
    4.4810   -0.5470   -1.9297 H   0  0  0  0  0  0  0  0  0  0  0  0
    4.5821   -2.9821   -3.8038 H   0  0  0  0  0  0  0  0  0  0  0  0
    5.1745   -1.4188   -4.1506 H   0  0  0  0  0  0  0  0  0  0  0  0
    6.9732   -2.9419   -3.0637 H   0  0  0  0  0  0  0  0  0  0  0  0
    6.6190   -1.5412   -2.0498 H   0  0  0  0  0  0  0  0  0  0  0  0
    5.5773   -4.3468   -1.7504 H   0  0  0  0  0  0  0  0  0  0  0  0
    8.1928   -2.9259    0.9582 H   0  0  0  0  0  0  0  0  0  0  0  0
    7.7322   -1.7040   -0.1922 H   0  0  0  0  0  0  0  0  0  0  0  0
    4.3930   -1.5076    1.2221 H   0  0  0  0  0  0  0  0  0  0  0  0
    5.4005   -0.8584   -0.0451 H   0  0  0  0  0  0  0  0  0  0  0  0
    4.9688   -4.3072    1.2898 H   0  0  0  0  0  0  0  0  0  0  0  0
    2.2712   -6.4352    1.6778 H   0  0  0  0  0  0  0  0  0  0  0  0
    1.4121   -6.8525    0.1923 H   0  0  0  0  0  0  0  0  0  0  0  0
    0.7505   -5.6761    1.2896 H   0  0  0  0  0  0  0  0  0  0  0  0
    1.2184   -5.0261   -1.6639 H   0  0  0  0  0  0  0  0  0  0  0  0
    1.0236   -3.5497   -0.7638 H   0  0  0  0  0  0  0  0  0  0  0  0
    3.3612   -4.1193   -2.5738 H   0  0  0  0  0  0  0  0  0  0  0  0
    1.9927   -3.0725   -2.7600 H   0  0  0  0  0  0  0  0  0  0  0  0
    2.7901   -1.8268   -0.6871 H   0  0  0  0  0  0  0  0  0  0  0  0
  1  2  1  0
  1 19  1  0
  1 20  1  0
  1 21  1  0
  2 17  1  0
  2  3  1  0
  2 22  1  1
  3  4  1  0
  3 23  1  0
  3 24  1  0
  4  5  1  0
  4 25  1  0
  4 26  1  0
  5 10  1  0
  5  6  1  0
  5 27  1  6
  6  7  1  0
  7  8  1  0
  7 28  1  0
  7 29  1  0
  8  9  1  0
 10  9  1  1
  9 30  1  0
  9 31  1  0
 10 17  1  0
 10 11  1  0
 11 18  1  0
 11 12  1  0
 11 32  1  1
 12 13  1  0
 13 14  1  1
 13 15  1  0
 13 18  1  0
 14 33  1  0
 14 34  1  0
 14 35  1  0
 15 16  1  0
 15 36  1  0
 15 37  1  0
 16 17  1  0
 16 38  1  0
 16 39  1  0
 17 40  1  1
M  END
>  <i_m_ct_stereo_status>  (126) 
1

>  <s_m_source_file>  (126) 
/var/tmp/pbs.5076255.sched01/tmpnk13i6y_/41i0yhob8r.sdf

>  <i_m_source_file_index>  (126) 
10

>  <i_lp_mmshare_version>  (126) 
48012

>  <i_f3d_flags>  (126) 
0

>  <s_epik_input>  (126) 
TzFbQ0BIXTJPW0NAXTEoW0NIM10pW0NIMl1bQ0gyXVtDQEBIXTNbQ0BIXShbQ0gzXSlbQ0gyXVtDSDJdW0NASF0oW0NAXTIzNClPW0NIMl1PW0NIMl00

>  <s_epik_cmdline>  (126) 
J2VwaWtfcHl0aG9uJywgJy1waHQnLCAnMi4wJywgJy1waCcsICc3LjAnLCAnLXRuJywgJzgnLCAnLW1hJywgJzIwMCcsICctaW1hZScsICc8aW5maWxlLm1hZT4nLCAnLW9tYWUnLCAnPG91dGZpbGUubWFlPic=

>  <r_lp_tautomer_probability>  (126) 
1

>  <r_epik_Ionization_Penalty>  (126) 
6.03326e-13

>  <r_epik_Ionization_Penalty_Charging>  (126) 
0

>  <r_epik_Ionization_Penalty_Neutral>  (126) 
6.03326e-13

>  <r_epik_State_Penalty>  (126) 
-0

>  <r_epik_Charging_Adjusted_Penalty>  (126) 
0

>  <i_epik_Tot_Q>  (126) 
0

>  <i_epik_Tot_abs_Q>  (126) 
0

>  <s_epik_Chemistry_Notes>  (126) 
This compound contains an acetal/aminal-like group ( X-CH(R)-Y where X, Y are N, S, or O) that may be acid/base labile, releasing an aldehyde.

>  <s_lp_Force_Field>  (126) 
OPLS3e

>  <r_lp_Energy>  (126) 
27.1442

>  <b_lp_Chiralities_Consistent>  (126) 
1

>  <s_lp_Variant>  (126) 
43:0-1

>  <s_i_glide_gridfile>  (126) 
pfpi4k_grid

>  <i_i_glide_lignum>  (126) 
10

>  <i_i_glide_rotatable_bonds>  (126) 
0

>  <r_i_docking_score>  (126) 
-2.4582

>  <r_i_glide_ligand_efficiency>  (126) 
-0.136566

>  <r_i_glide_ligand_efficiency_sa>  (126) 
-0.357905

>  <r_i_glide_ligand_efficiency_ln>  (126) 
-0.631867

>  <r_i_glide_gscore>  (126) 
-2.4582

>  <r_i_glide_lipo>  (126) 
-0.346252

>  <r_i_glide_hbond>  (126) 
0

>  <r_i_glide_metal>  (126) 
-0

>  <r_i_glide_rewards>  (126) 
-1.92266

>  <r_i_glide_evdw>  (126) 
-9.95799

>  <r_i_glide_ecoul>  (126) 
2.44426

>  <r_i_glide_erotb>  (126) 
0

>  <r_i_glide_esite>  (126) 
-0.0580292

>  <r_i_glide_emodel>  (126) 
-7.87739

>  <r_i_glide_energy>  (126) 
-7.51373

>  <r_i_glide_einternal>  (126) 
0

>  <r_i_glide_intrahb_reward>  (126) 
-0

>  <i_i_glide_confnum>  (126) 
1

>  <i_i_glide_posenum>  (126) 
1

>  <r_i_glide_eff_state_penalty>  (126) 
0

>  <ligand_id>  (126) 
43

>  <original_smiles>  (126) 
CC1CCC2OCOCC23C2OC(C)(CCC13)O2

>  <smiles>  (126) 
[H]C1([H])OC([H])([H])C23C4([H])OC(C([H])([H])[H])(O4)C([H])([H])C([H])([H])C2([H])C([H])(C([H])([H])[H])C([H])([H])C([H])([H])C3([H])O1

$$$$
46:0:0
     RDKit          3D

 45 48  0  0  1  0  0  0  0  0999 V2000
   -0.8813   -7.9759    2.4688 C   0  0  0  0  0  0  0  0  0  0  0  0
   -0.5935   -8.5245    3.6914 C   0  0  0  0  0  0  0  0  0  0  0  0
    0.5468   -7.5506    4.5817 S   0  0  0  0  0  0  0  0  0  0  0  0
    0.5781   -6.4153    3.2396 C   0  0  0  0  0  0  0  0  0  0  0  0
    1.3953   -5.1612    3.2310 C   0  0  0  0  0  0  0  0  0  0  0  0
    2.2236   -5.0232    2.0354 N   0  0  0  0  0  0  0  0  0  0  0  0
    2.7128   -3.6625    1.8615 C   0  0  0  0  0  0  0  0  0  0  0  0
    3.5251   -3.5013    0.5668 C   0  0  1  0  0  0  0  0  0  0  0  0
    3.9815   -2.0485    0.3668 C   0  0  0  0  0  0  0  0  0  0  0  0
    4.8080   -1.9450   -0.9165 C   0  0  0  0  0  0  0  0  0  0  0  0
    5.9470   -2.9742   -0.8793 C   0  0  0  0  0  0  0  0  0  0  0  0
    5.4270   -4.2945   -0.6747 O   0  0  0  0  0  0  0  0  0  0  0  0
    4.7397   -4.4603    0.5685 C   0  0  2  0  0  0  0  0  0  0  0  0
    4.2267   -5.9137    0.7822 C   0  0  1  0  0  0  0  0  0  0  0  0
    5.3206   -6.8133    0.9639 O   0  0  0  0  0  0  0  0  0  0  0  0
    4.9798   -8.2014    0.9148 C   0  0  0  0  0  0  0  0  0  0  0  0
    6.1844   -9.0469    1.2786 C   0  0  0  0  0  0  0  0  0  0  0  0
    6.0149  -10.3211    2.0788 C   0  0  0  0  0  0  0  0  0  0  0  0
    6.6650   -9.1158    2.7104 C   0  0  0  0  0  0  0  0  0  0  0  0
    3.3516   -5.9527    2.0614 C   0  0  0  0  0  0  0  0  0  0  0  0
   -0.2299   -6.7612    2.2305 N   0  0  0  0  0  0  0  0  0  0  0  0
   -1.5410   -8.3815    1.7147 H   0  0  0  0  0  0  0  0  0  0  0  0
   -0.9733   -9.4459    4.1169 H   0  0  0  0  0  0  0  0  0  0  0  0
    0.6940   -4.3288    3.2861 H   0  0  0  0  0  0  0  0  0  0  0  0
    2.0051   -5.1063    4.1362 H   0  0  0  0  0  0  0  0  0  0  0  0
    1.8613   -2.9819    1.8228 H   0  0  0  0  0  0  0  0  0  0  0  0
    3.3204   -3.3719    2.7188 H   0  0  0  0  0  0  0  0  0  0  0  0
    2.8849   -3.7640   -0.2787 H   0  0  0  0  0  0  0  0  0  0  0  0
    3.1197   -1.3769    0.3211 H   0  0  0  0  0  0  0  0  0  0  0  0
    4.5897   -1.7365    1.2209 H   0  0  0  0  0  0  0  0  0  0  0  0
    4.1680   -2.1331   -1.7780 H   0  0  0  0  0  0  0  0  0  0  0  0
    5.1956   -0.9290   -1.0267 H   0  0  0  0  0  0  0  0  0  0  0  0
    6.4708   -2.9559   -1.8339 H   0  0  0  0  0  0  0  0  0  0  0  0
    6.6804   -2.7073   -0.1120 H   0  0  0  0  0  0  0  0  0  0  0  0
    5.4161   -4.1960    1.3850 H   0  0  0  0  0  0  0  0  0  0  0  0
    3.6426   -6.2212   -0.0844 H   0  0  0  0  0  0  0  0  0  0  0  0
    4.1862   -8.4630    1.6123 H   0  0  0  0  0  0  0  0  0  0  0  0
    4.6250   -8.4689   -0.0821 H   0  0  0  0  0  0  0  0  0  0  0  0
    6.9631   -9.0594    0.5190 H   0  0  0  0  0  0  0  0  0  0  0  0
    5.0092  -10.5860    2.4040 H   0  0  0  0  0  0  0  0  0  0  0  0
    6.6520  -11.1604    1.8074 H   0  0  0  0  0  0  0  0  0  0  0  0
    7.7399   -9.1542    2.8710 H   0  0  0  0  0  0  0  0  0  0  0  0
    6.0965   -8.5736    3.4630 H   0  0  0  0  0  0  0  0  0  0  0  0
    3.9876   -5.7350    2.9213 H   0  0  0  0  0  0  0  0  0  0  0  0
    2.9560   -6.9534    2.2231 H   0  0  0  0  0  0  0  0  0  0  0  0
  1 21  1  0
  1  2  2  0
  1 22  1  0
  2  3  1  0
  2 23  1  0
  3  4  1  0
  4  5  1  0
  4 21  2  0
  5  6  1  0
  5 24  1  0
  5 25  1  0
  6 20  1  0
  6  7  1  0
  7  8  1  0
  7 26  1  0
  7 27  1  0
  8 13  1  0
  8  9  1  0
  8 28  1  6
  9 10  1  0
  9 29  1  0
  9 30  1  0
 10 11  1  0
 10 31  1  0
 10 32  1  0
 11 12  1  0
 11 33  1  0
 11 34  1  0
 12 13  1  0
 13 14  1  0
 13 35  1  1
 14 15  1  0
 14 20  1  0
 14 36  1  6
 15 16  1  0
 16 17  1  0
 16 37  1  0
 16 38  1  0
 17 19  1  0
 17 18  1  0
 17 39  1  0
 18 19  1  0
 18 40  1  0
 18 41  1  0
 19 42  1  0
 19 43  1  0
 20 44  1  0
 20 45  1  0
M  END
>  <i_m_ct_stereo_status>  (127) 
1

>  <s_m_source_file>  (127) 
/var/tmp/pbs.5076255.sched01/tmpnk13i6y_/41i0yhob8r.sdf

>  <i_m_source_file_index>  (127) 
13

>  <i_lp_mmshare_version>  (127) 
48012

>  <i_f3d_flags>  (127) 
0

>  <s_epik_input>  (127) 
bjFbY0hdW2NIXXNjMVtDSDJdTihbQ0gyXTIpW0NIMl1bQ0BASF0oW0NASF0oW0NAQEhdMjMpT1tDSDJdW0NIMl1bQ0gyXTMpT1tDSDJdW0NIXTRbQ0gyXVtDSDJdNA==

>  <s_epik_cmdline>  (127) 
J2VwaWtfcHl0aG9uJywgJy1waHQnLCAnMi4wJywgJy1waCcsICc3LjAnLCAnLXRuJywgJzgnLCAnLW1hJywgJzIwMCcsICctaW1hZScsICc8aW5maWxlLm1hZT4nLCAnLW9tYWUnLCAnPG91dGZpbGUubWFlPic=

>  <r_epik_Ionization_Penalty>  (127) 
0.0612253

>  <r_epik_Ionization_Penalty_Charging>  (127) 
0

>  <r_epik_Ionization_Penalty_Neutral>  (127) 
0.0612253

>  <r_epik_State_Penalty>  (127) 
0.0530934

>  <r_epik_Charging_Adjusted_Penalty>  (127) 
0.0530934

>  <i_epik_Tot_Q>  (127) 
0

>  <i_epik_Tot_abs_Q>  (127) 
0

>  <s_lp_Force_Field>  (127) 
OPLS3e

>  <r_lp_Energy>  (127) 
31.0916

>  <b_lp_Chiralities_Consistent>  (127) 
1

>  <s_lp_Variant>  (127) 
46:0-1

>  <s_i_glide_gridfile>  (127) 
pfpi4k_grid

>  <i_i_glide_lignum>  (127) 
13

>  <i_i_glide_rotatable_bonds>  (127) 
5

>  <r_i_docking_score>  (127) 
-2.81892

>  <r_i_glide_ligand_efficiency>  (127) 
-0.134234

>  <r_i_glide_ligand_efficiency_sa>  (127) 
-0.370342

>  <r_i_glide_ligand_efficiency_ln>  (127) 
-0.696973

>  <r_i_glide_gscore>  (127) 
-2.81892

>  <r_i_glide_lipo>  (127) 
-0.324698

>  <r_i_glide_hbond>  (127) 
-0.16

>  <r_i_glide_metal>  (127) 
-0

>  <r_i_glide_rewards>  (127) 
-1.30609

>  <r_i_glide_evdw>  (127) 
-26.6003

>  <r_i_glide_ecoul>  (127) 
-4.47001

>  <r_i_glide_erotb>  (127) 
0.972383

>  <r_i_glide_esite>  (127) 
0

>  <r_i_glide_emodel>  (127) 
-35.5346

>  <r_i_glide_energy>  (127) 
-31.0703

>  <r_i_glide_einternal>  (127) 
1.89027

>  <r_i_glide_intrahb_reward>  (127) 
-0

>  <i_i_glide_confnum>  (127) 
2

>  <i_i_glide_posenum>  (127) 
30

>  <r_i_glide_eff_state_penalty>  (127) 
0

>  <ligand_id>  (127) 
46

>  <original_smiles>  (127) 
c1csc(CN2CC3CCCOC3C(OCC3CC3)C2)n1

>  <smiles>  (127) 
[H]c1nc(C([H])([H])N2C([H])([H])C([H])(OC([H])([H])C3([H])C([H])([H])C3([H])[H])C3([H])OC([H])([H])C([H])([H])C([H])([H])C3([H])C2([H])[H])sc1[H]

$$$$
46:0:1
     RDKit          3D

 45 48  0  0  1  0  0  0  0  0999 V2000
   -0.7459   -7.9398    2.4942 C   0  0  0  0  0  0  0  0  0  0  0  0
   -0.6219   -8.4916    3.7434 C   0  0  0  0  0  0  0  0  0  0  0  0
    0.2214   -7.4254    4.8373 S   0  0  0  0  0  0  0  0  0  0  0  0
    0.3707   -6.2560    3.5363 C   0  0  0  0  0  0  0  0  0  0  0  0
    1.0184   -4.9115    3.6946 C   0  0  0  0  0  0  0  0  0  0  0  0
    1.9297   -4.5745    2.6018 N   0  0  0  0  0  0  0  0  0  0  0  0
    2.2423   -3.1510    2.5639 C   0  0  0  0  0  0  0  0  0  0  0  0
    3.1314   -2.7852    1.3653 C   0  0  1  0  0  0  0  0  0  0  0  0
    3.4112   -1.2766    1.3047 C   0  0  0  0  0  0  0  0  0  0  0  0
    4.3225   -0.9750    0.1139 C   0  0  0  0  0  0  0  0  0  0  0  0
    5.5785   -1.8507    0.1926 C   0  0  0  0  0  0  0  0  0  0  0  0
    5.2232   -3.2372    0.2619 O   0  0  0  0  0  0  0  0  0  0  0  0
    4.4553   -3.5793    1.4189 C   0  0  2  0  0  0  0  0  0  0  0  0
    4.1198   -5.0938    1.4792 C   0  0  1  0  0  0  0  0  0  0  0  0
    5.3100   -5.8503    1.6817 O   0  0  0  0  0  0  0  0  0  0  0  0
    5.1727   -7.2559    1.4605 C   0  0  0  0  0  0  0  0  0  0  0  0
    6.4862   -7.9810    1.6749 C   0  0  0  0  0  0  0  0  0  0  0  0
    7.4367   -7.5509    2.7707 C   0  0  0  0  0  0  0  0  0  0  0  0
    7.7963   -7.3068    1.3313 C   0  0  0  0  0  0  0  0  0  0  0  0
    3.1635   -5.3539    2.6694 C   0  0  0  0  0  0  0  0  0  0  0  0
   -0.1973   -6.6579    2.3918 N   0  0  0  0  0  0  0  0  0  0  0  0
   -1.2187   -8.3880    1.6326 H   0  0  0  0  0  0  0  0  0  0  0  0
   -0.9664   -9.4577    4.0947 H   0  0  0  0  0  0  0  0  0  0  0  0
    0.2193   -4.1729    3.7408 H   0  0  0  0  0  0  0  0  0  0  0  0
    1.5308   -4.8580    4.6582 H   0  0  0  0  0  0  0  0  0  0  0  0
    1.3147   -2.5834    2.4872 H   0  0  0  0  0  0  0  0  0  0  0  0
    2.7290   -2.8501    3.4916 H   0  0  0  0  0  0  0  0  0  0  0  0
    2.6061   -3.0575    0.4470 H   0  0  0  0  0  0  0  0  0  0  0  0
    2.4761   -0.7147    1.2190 H   0  0  0  0  0  0  0  0  0  0  0  0
    3.8986   -0.9568    2.2302 H   0  0  0  0  0  0  0  0  0  0  0  0
    3.7860   -1.1721   -0.8140 H   0  0  0  0  0  0  0  0  0  0  0  0
    4.5849    0.0835    0.1070 H   0  0  0  0  0  0  0  0  0  0  0  0
    6.1727   -1.6948   -0.7048 H   0  0  0  0  0  0  0  0  0  0  0  0
    6.2036   -1.5539    1.0401 H   0  0  0  0  0  0  0  0  0  0  0  0
    5.0210   -3.3004    2.3104 H   0  0  0  0  0  0  0  0  0  0  0  0
    3.6449   -5.3967    0.5446 H   0  0  0  0  0  0  0  0  0  0  0  0
    4.4490   -7.7103    2.1360 H   0  0  0  0  0  0  0  0  0  0  0  0
    4.8329   -7.4399    0.4408 H   0  0  0  0  0  0  0  0  0  0  0  0
    6.4327   -9.0525    1.4861 H   0  0  0  0  0  0  0  0  0  0  0  0
    7.1612   -6.6885    3.3742 H   0  0  0  0  0  0  0  0  0  0  0  0
    7.9800   -8.3341    3.2942 H   0  0  0  0  0  0  0  0  0  0  0  0
    8.5759   -7.9279    0.8943 H   0  0  0  0  0  0  0  0  0  0  0  0
    7.7608   -6.2812    0.9673 H   0  0  0  0  0  0  0  0  0  0  0  0
    3.6873   -5.1277    3.5992 H   0  0  0  0  0  0  0  0  0  0  0  0
    2.8997   -6.4095    2.7199 H   0  0  0  0  0  0  0  0  0  0  0  0
  1 21  1  0
  1  2  2  0
  1 22  1  0
  2  3  1  0
  2 23  1  0
  3  4  1  0
  4  5  1  0
  4 21  2  0
  5  6  1  0
  5 24  1  0
  5 25  1  0
  6 20  1  0
  6  7  1  0
  7  8  1  0
  7 26  1  0
  7 27  1  0
  8 13  1  0
  8  9  1  0
  8 28  1  6
  9 10  1  0
  9 29  1  0
  9 30  1  0
 10 11  1  0
 10 31  1  0
 10 32  1  0
 11 12  1  0
 11 33  1  0
 11 34  1  0
 12 13  1  0
 13 14  1  0
 13 35  1  1
 14 15  1  0
 14 20  1  0
 14 36  1  6
 15 16  1  0
 16 17  1  0
 16 37  1  0
 16 38  1  0
 17 19  1  0
 17 18  1  0
 17 39  1  0
 18 19  1  0
 18 40  1  0
 18 41  1  0
 19 42  1  0
 19 43  1  0
 20 44  1  0
 20 45  1  0
M  END
>  <i_m_ct_stereo_status>  (128) 
1

>  <s_m_source_file>  (128) 
/var/tmp/pbs.5076255.sched01/tmpnk13i6y_/41i0yhob8r.sdf

>  <i_m_source_file_index>  (128) 
13

>  <i_lp_mmshare_version>  (128) 
48012

>  <i_f3d_flags>  (128) 
0

>  <s_epik_input>  (128) 
bjFbY0hdW2NIXXNjMVtDSDJdTihbQ0gyXTIpW0NIMl1bQ0BASF0oW0NASF0oW0NAQEhdMjMpT1tDSDJdW0NIMl1bQ0gyXTMpT1tDSDJdW0NIXTRbQ0gyXVtDSDJdNA==

>  <s_epik_cmdline>  (128) 
J2VwaWtfcHl0aG9uJywgJy1waHQnLCAnMi4wJywgJy1waCcsICc3LjAnLCAnLXRuJywgJzgnLCAnLW1hJywgJzIwMCcsICctaW1hZScsICc8aW5maWxlLm1hZT4nLCAnLW9tYWUnLCAnPG91dGZpbGUubWFlPic=

>  <r_epik_Ionization_Penalty>  (128) 
0.0612253

>  <r_epik_Ionization_Penalty_Charging>  (128) 
0

>  <r_epik_Ionization_Penalty_Neutral>  (128) 
0.0612253

>  <r_epik_State_Penalty>  (128) 
0.0530934

>  <r_epik_Charging_Adjusted_Penalty>  (128) 
0.0530934

>  <i_epik_Tot_Q>  (128) 
0

>  <i_epik_Tot_abs_Q>  (128) 
0

>  <s_lp_Force_Field>  (128) 
OPLS3e

>  <r_lp_Energy>  (128) 
31.0916

>  <b_lp_Chiralities_Consistent>  (128) 
1

>  <s_lp_Variant>  (128) 
46:0-1

>  <s_i_glide_gridfile>  (128) 
pfpi4k_grid

>  <i_i_glide_lignum>  (128) 
13

>  <i_i_glide_rotatable_bonds>  (128) 
5

>  <r_i_docking_score>  (128) 
-2.63459

>  <r_i_glide_ligand_efficiency>  (128) 
-0.125457

>  <r_i_glide_ligand_efficiency_sa>  (128) 
-0.346126

>  <r_i_glide_ligand_efficiency_ln>  (128) 
-0.651398

>  <r_i_glide_gscore>  (128) 
-2.63459

>  <r_i_glide_lipo>  (128) 
-0.263993

>  <r_i_glide_hbond>  (128) 
-0.16

>  <r_i_glide_metal>  (128) 
-0

>  <r_i_glide_rewards>  (128) 
-1.30609

>  <r_i_glide_evdw>  (128) 
-23.5235

>  <r_i_glide_ecoul>  (128) 
-4.67145

>  <r_i_glide_erotb>  (128) 
0.972383

>  <r_i_glide_esite>  (128) 
0

>  <r_i_glide_emodel>  (128) 
-33.0274

>  <r_i_glide_energy>  (128) 
-28.195

>  <r_i_glide_einternal>  (128) 
0.698767

>  <r_i_glide_intrahb_reward>  (128) 
-0

>  <i_i_glide_confnum>  (128) 
2

>  <i_i_glide_posenum>  (128) 
31

>  <r_i_glide_eff_state_penalty>  (128) 
0

>  <ligand_id>  (128) 
46

>  <original_smiles>  (128) 
c1csc(CN2CC3CCCOC3C(OCC3CC3)C2)n1

>  <smiles>  (128) 
[H]c1nc(C([H])([H])N2C([H])([H])C([H])(OC([H])([H])C3([H])C([H])([H])C3([H])[H])C3([H])OC([H])([H])C([H])([H])C([H])([H])C3([H])C2([H])[H])sc1[H]

$$$$
46:0:2
     RDKit          3D

 45 48  0  0  1  0  0  0  0  0999 V2000
    5.3854   -2.2413   -0.0461 C   0  0  0  0  0  0  0  0  0  0  0  0
    4.2301   -2.0472   -0.7578 C   0  0  0  0  0  0  0  0  0  0  0  0
    3.2096   -3.4577   -0.7348 S   0  0  0  0  0  0  0  0  0  0  0  0
    4.4152   -4.2717    0.2526 C   0  0  0  0  0  0  0  0  0  0  0  0
    4.2489   -5.6611    0.7740 C   0  0  0  0  0  0  0  0  0  0  0  0
    2.9495   -5.9165    1.4010 N   0  0  0  0  0  0  0  0  0  0  0  0
    2.8122   -7.3219    1.7664 C   0  0  0  0  0  0  0  0  0  0  0  0
    1.4226   -7.6345    2.3427 C   0  0  1  0  0  0  0  0  0  0  0  0
    1.2612   -9.1223    2.6775 C   0  0  0  0  0  0  0  0  0  0  0  0
   -0.1337   -9.3586    3.2617 C   0  0  0  0  0  0  0  0  0  0  0  0
   -0.3719   -8.4049    4.4427 C   0  0  0  0  0  0  0  0  0  0  0  0
   -0.1817   -7.0423    4.0339 O   0  0  0  0  0  0  0  0  0  0  0  0
    1.1541   -6.7719    3.6001 C   0  0  2  0  0  0  0  0  0  0  0  0
    1.3473   -5.2843    3.2250 C   0  0  1  0  0  0  0  0  0  0  0  0
    1.1991   -4.4550    4.3711 O   0  0  0  0  0  0  0  0  0  0  0  0
    1.0295   -3.0637    4.0922 C   0  0  0  0  0  0  0  0  0  0  0  0
    0.6600   -2.2979    5.3456 C   0  0  0  0  0  0  0  0  0  0  0  0
    1.1986   -2.7230    6.6963 C   0  0  0  0  0  0  0  0  0  0  0  0
   -0.2582   -2.9240    6.3739 C   0  0  0  0  0  0  0  0  0  0  0  0
    2.7419   -5.0813    2.5905 C   0  0  0  0  0  0  0  0  0  0  0  0
    5.4845   -3.5160    0.5199 N   0  0  0  0  0  0  0  0  0  0  0  0
    6.1839   -1.5337    0.1134 H   0  0  0  0  0  0  0  0  0  0  0  0
    3.9003   -1.1633   -1.2871 H   0  0  0  0  0  0  0  0  0  0  0  0
    4.3992   -6.3568   -0.0536 H   0  0  0  0  0  0  0  0  0  0  0  0
    5.0475   -5.8582    1.4874 H   0  0  0  0  0  0  0  0  0  0  0  0
    2.9776   -7.9480    0.8883 H   0  0  0  0  0  0  0  0  0  0  0  0
    3.5749   -7.5964    2.4986 H   0  0  0  0  0  0  0  0  0  0  0  0
    0.6784   -7.3869    1.5828 H   0  0  0  0  0  0  0  0  0  0  0  0
    1.4150   -9.7402    1.7880 H   0  0  0  0  0  0  0  0  0  0  0  0
    2.0178   -9.4182    3.4100 H   0  0  0  0  0  0  0  0  0  0  0  0
   -0.8902   -9.1915    2.4945 H   0  0  0  0  0  0  0  0  0  0  0  0
   -0.2308  -10.3994    3.5805 H   0  0  0  0  0  0  0  0  0  0  0  0
   -1.3956   -8.5265    4.7927 H   0  0  0  0  0  0  0  0  0  0  0  0
    0.2803   -8.6699    5.2813 H   0  0  0  0  0  0  0  0  0  0  0  0
    1.8572   -7.0338    4.3962 H   0  0  0  0  0  0  0  0  0  0  0  0
    0.5909   -5.0183    2.4946 H   0  0  0  0  0  0  0  0  0  0  0  0
    1.9381   -2.6206    3.6820 H   0  0  0  0  0  0  0  0  0  0  0  0
    0.2335   -2.9152    3.3623 H   0  0  0  0  0  0  0  0  0  0  0  0
    0.5443   -1.2254    5.1920 H   0  0  0  0  0  0  0  0  0  0  0  0
    1.8321   -3.6078    6.7362 H   0  0  0  0  0  0  0  0  0  0  0  0
    1.4528   -1.9340    7.4000 H   0  0  0  0  0  0  0  0  0  0  0  0
   -0.9723   -2.2687    6.8639 H   0  0  0  0  0  0  0  0  0  0  0  0
   -0.5977   -3.9436    6.1977 H   0  0  0  0  0  0  0  0  0  0  0  0
    3.5102   -5.2904    3.3368 H   0  0  0  0  0  0  0  0  0  0  0  0
    2.8566   -4.0346    2.3160 H   0  0  0  0  0  0  0  0  0  0  0  0
  1 21  1  0
  1  2  2  0
  1 22  1  0
  2  3  1  0
  2 23  1  0
  3  4  1  0
  4  5  1  0
  4 21  2  0
  5  6  1  0
  5 24  1  0
  5 25  1  0
  6 20  1  0
  6  7  1  0
  7  8  1  0
  7 26  1  0
  7 27  1  0
  8 13  1  0
  8  9  1  0
  8 28  1  6
  9 10  1  0
  9 29  1  0
  9 30  1  0
 10 11  1  0
 10 31  1  0
 10 32  1  0
 11 12  1  0
 11 33  1  0
 11 34  1  0
 12 13  1  0
 13 14  1  0
 13 35  1  1
 14 15  1  0
 14 20  1  0
 14 36  1  6
 15 16  1  0
 16 17  1  0
 16 37  1  0
 16 38  1  0
 17 19  1  0
 17 18  1  0
 17 39  1  0
 18 19  1  0
 18 40  1  0
 18 41  1  0
 19 42  1  0
 19 43  1  0
 20 44  1  0
 20 45  1  0
M  END
>  <i_m_ct_stereo_status>  (129) 
1

>  <s_m_source_file>  (129) 
/var/tmp/pbs.5076255.sched01/tmpnk13i6y_/41i0yhob8r.sdf

>  <i_m_source_file_index>  (129) 
13

>  <i_lp_mmshare_version>  (129) 
48012

>  <i_f3d_flags>  (129) 
0

>  <s_epik_input>  (129) 
bjFbY0hdW2NIXXNjMVtDSDJdTihbQ0gyXTIpW0NIMl1bQ0BASF0oW0NASF0oW0NAQEhdMjMpT1tDSDJdW0NIMl1bQ0gyXTMpT1tDSDJdW0NIXTRbQ0gyXVtDSDJdNA==

>  <s_epik_cmdline>  (129) 
J2VwaWtfcHl0aG9uJywgJy1waHQnLCAnMi4wJywgJy1waCcsICc3LjAnLCAnLXRuJywgJzgnLCAnLW1hJywgJzIwMCcsICctaW1hZScsICc8aW5maWxlLm1hZT4nLCAnLW9tYWUnLCAnPG91dGZpbGUubWFlPic=

>  <r_epik_Ionization_Penalty>  (129) 
0.0612253

>  <r_epik_Ionization_Penalty_Charging>  (129) 
0

>  <r_epik_Ionization_Penalty_Neutral>  (129) 
0.0612253

>  <r_epik_State_Penalty>  (129) 
0.0530934

>  <r_epik_Charging_Adjusted_Penalty>  (129) 
0.0530934

>  <i_epik_Tot_Q>  (129) 
0

>  <i_epik_Tot_abs_Q>  (129) 
0

>  <s_lp_Force_Field>  (129) 
OPLS3e

>  <r_lp_Energy>  (129) 
31.0916

>  <b_lp_Chiralities_Consistent>  (129) 
1

>  <s_lp_Variant>  (129) 
46:0-1

>  <s_i_glide_gridfile>  (129) 
pfpi4k_grid

>  <i_i_glide_lignum>  (129) 
13

>  <i_i_glide_rotatable_bonds>  (129) 
5

>  <r_i_docking_score>  (129) 
-2.00552

>  <r_i_glide_ligand_efficiency>  (129) 
-0.0955011

>  <r_i_glide_ligand_efficiency_sa>  (129) 
-0.26348

>  <r_i_glide_ligand_efficiency_ln>  (129) 
-0.495861

>  <r_i_glide_gscore>  (129) 
-2.00552

>  <r_i_glide_lipo>  (129) 
-0.216317

>  <r_i_glide_hbond>  (129) 
0

>  <r_i_glide_metal>  (129) 
-0

>  <r_i_glide_rewards>  (129) 
-1.30609

>  <r_i_glide_evdw>  (129) 
-24.5744

>  <r_i_glide_ecoul>  (129) 
-1.51184

>  <r_i_glide_erotb>  (129) 
0.972383

>  <r_i_glide_esite>  (129) 
0

>  <r_i_glide_emodel>  (129) 
-29.9445

>  <r_i_glide_energy>  (129) 
-26.0863

>  <r_i_glide_einternal>  (129) 
0.377398

>  <r_i_glide_intrahb_reward>  (129) 
-0

>  <i_i_glide_confnum>  (129) 
1

>  <i_i_glide_posenum>  (129) 
16

>  <r_i_glide_eff_state_penalty>  (129) 
0

>  <ligand_id>  (129) 
46

>  <original_smiles>  (129) 
c1csc(CN2CC3CCCOC3C(OCC3CC3)C2)n1

>  <smiles>  (129) 
[H]c1nc(C([H])([H])N2C([H])([H])C([H])(OC([H])([H])C3([H])C([H])([H])C3([H])[H])C3([H])OC([H])([H])C([H])([H])C([H])([H])C3([H])C2([H])[H])sc1[H]

$$$$
46:1:0
     RDKit          3D

 46 49  0  0  1  0  0  0  0  0999 V2000
    4.0495   -0.2226   -3.1370 C   0  0  0  0  0  0  0  0  0  0  0  0
    3.3690   -0.6751   -4.2139 C   0  0  0  0  0  0  0  0  0  0  0  0
    2.7245   -2.2657   -3.9092 S   0  0  0  0  0  0  0  0  0  0  0  0
    3.4079   -2.2301   -2.3067 C   0  0  0  0  0  0  0  0  0  0  0  0
    3.3114   -3.4479   -1.4243 C   0  0  0  0  0  0  0  0  0  0  0  0
    3.5997   -3.0742   -0.0023 N   0  0  2  0  0  0  0  0  0  0  0  0
    4.9755   -2.5645    0.3518 C   0  0  0  0  0  0  0  0  0  0  0  0
    6.0184   -3.6701    0.2063 C   0  0  1  0  0  0  0  0  0  0  0  0
    7.4126   -3.0907    0.4394 C   0  0  0  0  0  0  0  0  0  0  0  0
    8.4534   -4.2016    0.3838 C   0  0  0  0  0  0  0  0  0  0  0  0
    8.0340   -5.3398    1.3329 C   0  0  0  0  0  0  0  0  0  0  0  0
    6.7217   -5.7999    1.0078 O   0  0  0  0  0  0  0  0  0  0  0  0
    5.7141   -4.8101    1.1906 C   0  0  2  0  0  0  0  0  0  0  0  0
    4.2880   -5.3457    0.8781 C   0  0  1  0  0  0  0  0  0  0  0  0
    3.9442   -6.2932    1.8770 O   0  0  0  0  0  0  0  0  0  0  0  0
    3.1367   -7.3651    1.4117 C   0  0  0  0  0  0  0  0  0  0  0  0
    2.8753   -8.3146    2.5542 C   0  0  0  0  0  0  0  0  0  0  0  0
    1.6930   -9.2573    2.5337 C   0  0  0  0  0  0  0  0  0  0  0  0
    1.7064   -8.0854    3.4809 C   0  0  0  0  0  0  0  0  0  0  0  0
    3.2427   -4.1881    0.9258 C   0  0  0  0  0  0  0  0  0  0  0  0
    4.0508   -1.1049   -2.0482 N   0  0  0  0  0  0  0  0  0  0  0  0
    4.5472    0.7302   -3.0309 H   0  0  0  0  0  0  0  0  0  0  0  0
    3.1639   -0.1624   -5.1489 H   0  0  0  0  0  0  0  0  0  0  0  0
    2.3098   -3.8652   -1.5352 H   0  0  0  0  0  0  0  0  0  0  0  0
    3.9845   -4.2109   -1.8132 H   0  0  0  0  0  0  0  0  0  0  0  0
    5.3875   -1.7321   -0.2059 H   0  0  0  0  0  0  0  0  0  0  0  0
    4.9459   -2.1969    1.3792 H   0  0  0  0  0  0  0  0  0  0  0  0
    6.0213   -4.0763   -0.8048 H   0  0  0  0  0  0  0  0  0  0  0  0
    7.6471   -2.3197   -0.2928 H   0  0  0  0  0  0  0  0  0  0  0  0
    7.4163   -2.6190    1.4181 H   0  0  0  0  0  0  0  0  0  0  0  0
    8.5449   -4.5794   -0.6363 H   0  0  0  0  0  0  0  0  0  0  0  0
    9.4280   -3.7924    0.6652 H   0  0  0  0  0  0  0  0  0  0  0  0
    8.7302   -6.1703    1.2117 H   0  0  0  0  0  0  0  0  0  0  0  0
    8.1095   -5.0236    2.3824 H   0  0  0  0  0  0  0  0  0  0  0  0
    5.7452   -4.4319    2.2190 H   0  0  0  0  0  0  0  0  0  0  0  0
    4.3012   -5.8113   -0.1070 H   0  0  0  0  0  0  0  0  0  0  0  0
    2.1905   -7.0112    0.9977 H   0  0  0  0  0  0  0  0  0  0  0  0
    3.6659   -7.9127    0.6317 H   0  0  0  0  0  0  0  0  0  0  0  0
    3.7818   -8.7096    3.0068 H   0  0  0  0  0  0  0  0  0  0  0  0
    1.0123   -9.2145    1.6849 H   0  0  0  0  0  0  0  0  0  0  0  0
    1.8406  -10.2463    2.9665 H   0  0  0  0  0  0  0  0  0  0  0  0
    1.8718   -8.2952    4.5363 H   0  0  0  0  0  0  0  0  0  0  0  0
    1.0408   -7.2522    3.2639 H   0  0  0  0  0  0  0  0  0  0  0  0
    3.1928   -3.7961    1.9373 H   0  0  0  0  0  0  0  0  0  0  0  0
    2.2389   -4.5621    0.7188 H   0  0  0  0  0  0  0  0  0  0  0  0
    2.9593   -2.3119    0.1694 H   0  0  0  0  0  0  0  0  0  0  0  0
  1 21  1  0
  1  2  2  0
  1 22  1  0
  2  3  1  0
  2 23  1  0
  3  4  1  0
  4  5  1  0
  4 21  2  0
  5  6  1  0
  5 24  1  0
  5 25  1  0
  6 20  1  0
  6  7  1  0
  6 46  1  1
  7  8  1  0
  7 26  1  0
  7 27  1  0
  8 13  1  0
  8  9  1  0
  8 28  1  6
  9 10  1  0
  9 29  1  0
  9 30  1  0
 10 11  1  0
 10 31  1  0
 10 32  1  0
 11 12  1  0
 11 33  1  0
 11 34  1  0
 12 13  1  0
 13 14  1  0
 13 35  1  1
 14 15  1  0
 14 20  1  0
 14 36  1  6
 15 16  1  0
 16 17  1  0
 16 37  1  0
 16 38  1  0
 17 19  1  0
 17 18  1  0
 17 39  1  0
 18 19  1  0
 18 40  1  0
 18 41  1  0
 19 42  1  0
 19 43  1  0
 20 44  1  0
 20 45  1  0
M  CHG  1   6   1
M  END
>  <i_m_ct_stereo_status>  (130) 
1

>  <s_m_source_file>  (130) 
/var/tmp/pbs.5076255.sched01/tmpnk13i6y_/41i0yhob8r.sdf

>  <i_m_source_file_index>  (130) 
14

>  <i_lp_mmshare_version>  (130) 
48012

>  <i_f3d_flags>  (130) 
0

>  <s_epik_input>  (130) 
bjFbY0hdW2NIXXNjMVtDSDJdTihbQ0gyXTIpW0NIMl1bQ0BASF0oW0NASF0oW0NAQEhdMjMpT1tDSDJdW0NIMl1bQ0gyXTMpT1tDSDJdW0NIXTRbQ0gyXVtDSDJdNA==

>  <s_epik_cmdline>  (130) 
J2VwaWtfcHl0aG9uJywgJy1waHQnLCAnMi4wJywgJy1waCcsICc3LjAnLCAnLXRuJywgJzgnLCAnLW1hJywgJzIwMCcsICctaW1hZScsICc8aW5maWxlLm1hZT4nLCAnLW9tYWUnLCAnPG91dGZpbGUubWFlPic=

>  <r_epik_Ionization_Penalty>  (130) 
1.37551

>  <r_epik_Ionization_Penalty_Charging>  (130) 
1.37551

>  <r_epik_Ionization_Penalty_Neutral>  (130) 
1.05379e-07

>  <r_epik_State_Penalty>  (130) 
1.45559

>  <r_epik_Charging_Adjusted_Penalty>  (130) 
2.8311

>  <i_epik_Tot_Q>  (130) 
1

>  <i_epik_Tot_abs_Q>  (130) 
1

>  <s_lp_Force_Field>  (130) 
OPLS3e

>  <r_lp_Energy>  (130) 
28.6214

>  <b_lp_Chiralities_Consistent>  (130) 
1

>  <s_lp_Variant>  (130) 
46:0-2

>  <s_i_glide_gridfile>  (130) 
pfpi4k_grid

>  <i_i_glide_lignum>  (130) 
14

>  <i_i_glide_rotatable_bonds>  (130) 
5

>  <r_i_docking_score>  (130) 
-3.70262

>  <r_i_glide_ligand_efficiency>  (130) 
-0.176315

>  <r_i_glide_ligand_efficiency_sa>  (130) 
-0.48644

>  <r_i_glide_ligand_efficiency_ln>  (130) 
-0.915465

>  <r_i_glide_gscore>  (130) 
-3.70262

>  <r_i_glide_lipo>  (130) 
-1.29477

>  <r_i_glide_hbond>  (130) 
0

>  <r_i_glide_metal>  (130) 
-0

>  <r_i_glide_rewards>  (130) 
-1.29922

>  <r_i_glide_evdw>  (130) 
-28.6257

>  <r_i_glide_ecoul>  (130) 
-4.25078

>  <r_i_glide_erotb>  (130) 
0.96683

>  <r_i_glide_esite>  (130) 
-0.00655603

>  <r_i_glide_emodel>  (130) 
-38.7611

>  <r_i_glide_energy>  (130) 
-32.8765

>  <r_i_glide_einternal>  (130) 
3.17924

>  <r_i_glide_intrahb_reward>  (130) 
-0

>  <i_i_glide_confnum>  (130) 
5

>  <i_i_glide_posenum>  (130) 
2

>  <r_i_glide_eff_state_penalty>  (130) 
0

>  <ligand_id>  (130) 
46

>  <original_smiles>  (130) 
c1csc(CN2CC3CCCOC3C(OCC3CC3)C2)n1

>  <smiles>  (130) 
[H]c1nc(C([H])([H])[N+]2([H])C([H])([H])C([H])(OC([H])([H])C3([H])C([H])([H])C3([H])[H])C3([H])OC([H])([H])C([H])([H])C([H])([H])C3([H])C2([H])[H])sc1[H]

$$$$
46:1:1
     RDKit          3D

 46 49  0  0  1  0  0  0  0  0999 V2000
    0.2225    0.2255    2.8570 C   0  0  0  0  0  0  0  0  0  0  0  0
    1.2584   -0.2449    2.0950 C   0  0  0  0  0  0  0  0  0  0  0  0
    2.5803    0.8935    2.0294 S   0  0  0  0  0  0  0  0  0  0  0  0
    1.6402    1.9964    3.0194 C   0  0  0  0  0  0  0  0  0  0  0  0
    2.2278    3.2894    3.5143 C   0  0  0  0  0  0  0  0  0  0  0  0
    1.1889    4.3653    3.2855 N   0  0  2  0  0  0  0  0  0  0  0  0
    1.8004    5.6990    3.0824 C   0  0  0  0  0  0  0  0  0  0  0  0
    2.4120    6.2793    4.3637 C   0  0  1  0  0  0  0  0  0  0  0  0
    3.0566    7.6493    4.1181 C   0  0  0  0  0  0  0  0  0  0  0  0
    3.6294    8.1855    5.4303 C   0  0  0  0  0  0  0  0  0  0  0  0
    2.5296    8.1900    6.4947 C   0  0  0  0  0  0  0  0  0  0  0  0
    1.9906    6.8791    6.6343 O   0  0  0  0  0  0  0  0  0  0  0  0
    1.3381    6.4014    5.4668 C   0  0  2  0  0  0  0  0  0  0  0  0
    0.7058    5.0143    5.7083 C   0  0  1  0  0  0  0  0  0  0  0  0
   -0.3796    5.1157    6.6261 O   0  0  0  0  0  0  0  0  0  0  0  0
   -0.6792    3.8907    7.2987 C   0  0  0  0  0  0  0  0  0  0  0  0
   -1.7687    4.1697    8.3051 C   0  0  0  0  0  0  0  0  0  0  0  0
   -2.0121    3.2275    9.4604 C   0  0  0  0  0  0  0  0  0  0  0  0
   -3.0215    3.3321    8.3522 C   0  0  0  0  0  0  0  0  0  0  0  0
    0.1394    4.4647    4.3741 C   0  0  0  0  0  0  0  0  0  0  0  0
    0.4666    1.4873    3.3915 N   0  0  0  0  0  0  0  0  0  0  0  0
   -0.7252   -0.2696    3.0614 H   0  0  0  0  0  0  0  0  0  0  0  0
    1.3367   -1.1671    1.5419 H   0  0  0  0  0  0  0  0  0  0  0  0
    2.5448    3.1505    4.5481 H   0  0  0  0  0  0  0  0  0  0  0  0
    3.1450    3.4704    2.9488 H   0  0  0  0  0  0  0  0  0  0  0  0
    2.5567    5.6296    2.3020 H   0  0  0  0  0  0  0  0  0  0  0  0
    1.0328    6.3772    2.7022 H   0  0  0  0  0  0  0  0  0  0  0  0
    3.2003    5.6121    4.7223 H   0  0  0  0  0  0  0  0  0  0  0  0
    3.8448    7.5819    3.3666 H   0  0  0  0  0  0  0  0  0  0  0  0
    2.3003    8.3434    3.7385 H   0  0  0  0  0  0  0  0  0  0  0  0
    4.4635    7.5709    5.7640 H   0  0  0  0  0  0  0  0  0  0  0  0
    4.0229    9.1863    5.2804 H   0  0  0  0  0  0  0  0  0  0  0  0
    2.9543    8.4747    7.4549 H   0  0  0  0  0  0  0  0  0  0  0  0
    1.7479    8.9248    6.2705 H   0  0  0  0  0  0  0  0  0  0  0  0
    0.5594    7.1129    5.1783 H   0  0  0  0  0  0  0  0  0  0  0  0
    1.4706    4.3568    6.1285 H   0  0  0  0  0  0  0  0  0  0  0  0
   -1.0029    3.0973    6.6236 H   0  0  0  0  0  0  0  0  0  0  0  0
    0.1967    3.5190    7.8306 H   0  0  0  0  0  0  0  0  0  0  0  0
   -1.8714    5.2223    8.5574 H   0  0  0  0  0  0  0  0  0  0  0  0
   -1.4239    2.3147    9.5245 H   0  0  0  0  0  0  0  0  0  0  0  0
   -2.2805    3.6782   10.4146 H   0  0  0  0  0  0  0  0  0  0  0  0
   -3.9476    3.8552    8.5766 H   0  0  0  0  0  0  0  0  0  0  0  0
   -3.1086    2.4949    7.6631 H   0  0  0  0  0  0  0  0  0  0  0  0
   -0.6575    5.1148    4.0089 H   0  0  0  0  0  0  0  0  0  0  0  0
   -0.3711    3.5263    4.5479 H   0  0  0  0  0  0  0  0  0  0  0  0
    0.7273    4.1605    2.4054 H   0  0  0  0  0  0  0  0  0  0  0  0
  1 21  1  0
  1  2  2  0
  1 22  1  0
  2  3  1  0
  2 23  1  0
  3  4  1  0
  4  5  1  0
  4 21  2  0
  5  6  1  0
  5 24  1  0
  5 25  1  0
  6 20  1  0
  6  7  1  0
  6 46  1  6
  7  8  1  0
  7 26  1  0
  7 27  1  0
  8 13  1  0
  8  9  1  0
  8 28  1  1
  9 10  1  0
  9 29  1  0
  9 30  1  0
 10 11  1  0
 10 31  1  0
 10 32  1  0
 11 12  1  0
 11 33  1  0
 11 34  1  0
 12 13  1  0
 13 14  1  0
 13 35  1  6
 14 15  1  0
 14 20  1  0
 14 36  1  1
 15 16  1  0
 16 17  1  0
 16 37  1  0
 16 38  1  0
 17 19  1  0
 17 18  1  0
 17 39  1  0
 18 19  1  0
 18 40  1  0
 18 41  1  0
 19 42  1  0
 19 43  1  0
 20 44  1  0
 20 45  1  0
M  CHG  1   6   1
M  END
>  <i_m_ct_stereo_status>  (131) 
1

>  <s_m_source_file>  (131) 
/var/tmp/pbs.5076255.sched01/tmpnk13i6y_/41i0yhob8r.sdf

>  <i_m_source_file_index>  (131) 
14

>  <i_lp_mmshare_version>  (131) 
48012

>  <i_f3d_flags>  (131) 
0

>  <s_epik_input>  (131) 
bjFbY0hdW2NIXXNjMVtDSDJdTihbQ0gyXTIpW0NIMl1bQ0BASF0oW0NASF0oW0NAQEhdMjMpT1tDSDJdW0NIMl1bQ0gyXTMpT1tDSDJdW0NIXTRbQ0gyXVtDSDJdNA==

>  <s_epik_cmdline>  (131) 
J2VwaWtfcHl0aG9uJywgJy1waHQnLCAnMi4wJywgJy1waCcsICc3LjAnLCAnLXRuJywgJzgnLCAnLW1hJywgJzIwMCcsICctaW1hZScsICc8aW5maWxlLm1hZT4nLCAnLW9tYWUnLCAnPG91dGZpbGUubWFlPic=

>  <r_epik_Ionization_Penalty>  (131) 
1.37551

>  <r_epik_Ionization_Penalty_Charging>  (131) 
1.37551

>  <r_epik_Ionization_Penalty_Neutral>  (131) 
1.05379e-07

>  <r_epik_State_Penalty>  (131) 
1.45559

>  <r_epik_Charging_Adjusted_Penalty>  (131) 
2.8311

>  <i_epik_Tot_Q>  (131) 
1

>  <i_epik_Tot_abs_Q>  (131) 
1

>  <s_lp_Force_Field>  (131) 
OPLS3e

>  <r_lp_Energy>  (131) 
28.6214

>  <b_lp_Chiralities_Consistent>  (131) 
1

>  <s_lp_Variant>  (131) 
46:0-2

>  <s_i_glide_gridfile>  (131) 
pfpi4k_grid

>  <i_i_glide_lignum>  (131) 
14

>  <i_i_glide_rotatable_bonds>  (131) 
5

>  <r_i_docking_score>  (131) 
-2.83019

>  <r_i_glide_ligand_efficiency>  (131) 
-0.134771

>  <r_i_glide_ligand_efficiency_sa>  (131) 
-0.371823

>  <r_i_glide_ligand_efficiency_ln>  (131) 
-0.699759

>  <r_i_glide_gscore>  (131) 
-2.83019

>  <r_i_glide_lipo>  (131) 
-0.148826

>  <r_i_glide_hbond>  (131) 
-0.2

>  <r_i_glide_metal>  (131) 
-0

>  <r_i_glide_rewards>  (131) 
-1.29922

>  <r_i_glide_evdw>  (131) 
-22.121

>  <r_i_glide_ecoul>  (131) 
-6.29175

>  <r_i_glide_erotb>  (131) 
0.96683

>  <r_i_glide_esite>  (131) 
-0.0991633

>  <r_i_glide_emodel>  (131) 
-32.9215

>  <r_i_glide_energy>  (131) 
-28.4127

>  <r_i_glide_einternal>  (131) 
3.2816

>  <r_i_glide_intrahb_reward>  (131) 
-0

>  <i_i_glide_confnum>  (131) 
5

>  <i_i_glide_posenum>  (131) 
33

>  <r_i_glide_eff_state_penalty>  (131) 
0

>  <ligand_id>  (131) 
46

>  <original_smiles>  (131) 
c1csc(CN2CC3CCCOC3C(OCC3CC3)C2)n1

>  <smiles>  (131) 
[H]c1nc(C([H])([H])[N+]2([H])C([H])([H])C([H])(OC([H])([H])C3([H])C([H])([H])C3([H])[H])C3([H])OC([H])([H])C([H])([H])C([H])([H])C3([H])C2([H])[H])sc1[H]

$$$$
46:1:2
     RDKit          3D

 46 49  0  0  1  0  0  0  0  0999 V2000
    6.2119   -3.2489   -0.6950 C   0  0  0  0  0  0  0  0  0  0  0  0
    6.0899   -2.6492   -1.9131 C   0  0  0  0  0  0  0  0  0  0  0  0
    4.8159   -1.4546   -1.9227 S   0  0  0  0  0  0  0  0  0  0  0  0
    4.4921   -1.8378   -0.2354 C   0  0  0  0  0  0  0  0  0  0  0  0
    3.3768   -1.2133    0.5468 C   0  0  0  0  0  0  0  0  0  0  0  0
    3.9644   -0.2154    1.4985 N   0  0  2  0  0  0  0  0  0  0  0  0
    4.8538   -0.7469    2.5783 C   0  0  0  0  0  0  0  0  0  0  0  0
    4.0594   -1.5532    3.6169 C   0  0  1  0  0  0  0  0  0  0  0  0
    4.9865   -2.1462    4.6802 C   0  0  0  0  0  0  0  0  0  0  0  0
    4.1584   -2.9113    5.7119 C   0  0  0  0  0  0  0  0  0  0  0  0
    3.0544   -2.0038    6.2590 C   0  0  0  0  0  0  0  0  0  0  0  0
    2.2560   -1.4970    5.1832 O   0  0  0  0  0  0  0  0  0  0  0  0
    2.9744   -0.6762    4.2648 C   0  0  2  0  0  0  0  0  0  0  0  0
    2.0517   -0.1052    3.1580 C   0  0  1  0  0  0  0  0  0  0  0  0
    1.1146    0.7903    3.7431 O   0  0  0  0  0  0  0  0  0  0  0  0
   -0.0182    1.0885    2.9297 C   0  0  0  0  0  0  0  0  0  0  0  0
   -1.0250    1.8179    3.7901 C   0  0  0  0  0  0  0  0  0  0  0  0
   -2.1790    2.5761    3.1673 C   0  0  0  0  0  0  0  0  0  0  0  0
   -1.0532    3.3287    3.8267 C   0  0  0  0  0  0  0  0  0  0  0  0
    2.9047    0.6520    2.0970 C   0  0  0  0  0  0  0  0  0  0  0  0
    5.2661   -2.8159    0.2381 N   0  0  0  0  0  0  0  0  0  0  0  0
    6.9369   -3.9994   -0.4006 H   0  0  0  0  0  0  0  0  0  0  0  0
    6.6736   -2.8386   -2.8073 H   0  0  0  0  0  0  0  0  0  0  0  0
    2.7037   -0.7035   -0.1455 H   0  0  0  0  0  0  0  0  0  0  0  0
    2.7913   -1.9921    1.0313 H   0  0  0  0  0  0  0  0  0  0  0  0
    5.6851   -1.3331    2.1908 H   0  0  0  0  0  0  0  0  0  0  0  0
    5.3421    0.0986    3.0708 H   0  0  0  0  0  0  0  0  0  0  0  0
    3.5744   -2.3974    3.1259 H   0  0  0  0  0  0  0  0  0  0  0  0
    5.7270   -2.8072    4.2185 H   0  0  0  0  0  0  0  0  0  0  0  0
    5.5324   -1.3367    5.1741 H   0  0  0  0  0  0  0  0  0  0  0  0
    3.7203   -3.7972    5.2521 H   0  0  0  0  0  0  0  0  0  0  0  0
    4.8098   -3.2672    6.5133 H   0  0  0  0  0  0  0  0  0  0  0  0
    2.4188   -2.5830    6.9243 H   0  0  0  0  0  0  0  0  0  0  0  0
    3.4816   -1.1964    6.8532 H   0  0  0  0  0  0  0  0  0  0  0  0
    3.4303    0.1461    4.8127 H   0  0  0  0  0  0  0  0  0  0  0  0
    1.5127   -0.9309    2.6895 H   0  0  0  0  0  0  0  0  0  0  0  0
    0.2358    1.6974    2.0613 H   0  0  0  0  0  0  0  0  0  0  0  0
   -0.4865    0.1726    2.5689 H   0  0  0  0  0  0  0  0  0  0  0  0
   -1.2581    1.3027    4.7203 H   0  0  0  0  0  0  0  0  0  0  0  0
   -2.2399    2.6030    2.0801 H   0  0  0  0  0  0  0  0  0  0  0  0
   -3.1334    2.5425    3.6864 H   0  0  0  0  0  0  0  0  0  0  0  0
   -1.2517    3.7910    4.7909 H   0  0  0  0  0  0  0  0  0  0  0  0
   -0.3563    3.8600    3.1834 H   0  0  0  0  0  0  0  0  0  0  0  0
    3.3752    1.5181    2.5720 H   0  0  0  0  0  0  0  0  0  0  0  0
    2.2810    1.0666    1.2998 H   0  0  0  0  0  0  0  0  0  0  0  0
    4.5255    0.3961    0.9280 H   0  0  0  0  0  0  0  0  0  0  0  0
  1 21  1  0
  1  2  2  0
  1 22  1  0
  2  3  1  0
  2 23  1  0
  3  4  1  0
  4  5  1  0
  4 21  2  0
  5  6  1  0
  5 24  1  0
  5 25  1  0
  6 20  1  0
  6  7  1  0
  6 46  1  6
  7  8  1  0
  7 26  1  0
  7 27  1  0
  8 13  1  0
  8  9  1  0
  8 28  1  6
  9 10  1  0
  9 29  1  0
  9 30  1  0
 10 11  1  0
 10 31  1  0
 10 32  1  0
 11 12  1  0
 11 33  1  0
 11 34  1  0
 12 13  1  0
 13 14  1  0
 13 35  1  1
 14 15  1  0
 14 20  1  0
 14 36  1  6
 15 16  1  0
 16 17  1  0
 16 37  1  0
 16 38  1  0
 17 19  1  0
 17 18  1  0
 17 39  1  0
 18 19  1  0
 18 40  1  0
 18 41  1  0
 19 42  1  0
 19 43  1  0
 20 44  1  0
 20 45  1  0
M  CHG  1   6   1
M  END
>  <i_m_ct_stereo_status>  (132) 
1

>  <s_m_source_file>  (132) 
/var/tmp/pbs.5076255.sched01/tmpnk13i6y_/41i0yhob8r.sdf

>  <i_m_source_file_index>  (132) 
14

>  <i_lp_mmshare_version>  (132) 
48012

>  <i_f3d_flags>  (132) 
0

>  <s_epik_input>  (132) 
bjFbY0hdW2NIXXNjMVtDSDJdTihbQ0gyXTIpW0NIMl1bQ0BASF0oW0NASF0oW0NAQEhdMjMpT1tDSDJdW0NIMl1bQ0gyXTMpT1tDSDJdW0NIXTRbQ0gyXVtDSDJdNA==

>  <s_epik_cmdline>  (132) 
J2VwaWtfcHl0aG9uJywgJy1waHQnLCAnMi4wJywgJy1waCcsICc3LjAnLCAnLXRuJywgJzgnLCAnLW1hJywgJzIwMCcsICctaW1hZScsICc8aW5maWxlLm1hZT4nLCAnLW9tYWUnLCAnPG91dGZpbGUubWFlPic=

>  <r_epik_Ionization_Penalty>  (132) 
1.37551

>  <r_epik_Ionization_Penalty_Charging>  (132) 
1.37551

>  <r_epik_Ionization_Penalty_Neutral>  (132) 
1.05379e-07

>  <r_epik_State_Penalty>  (132) 
1.45559

>  <r_epik_Charging_Adjusted_Penalty>  (132) 
2.8311

>  <i_epik_Tot_Q>  (132) 
1

>  <i_epik_Tot_abs_Q>  (132) 
1

>  <s_lp_Force_Field>  (132) 
OPLS3e

>  <r_lp_Energy>  (132) 
28.6214

>  <b_lp_Chiralities_Consistent>  (132) 
1

>  <s_lp_Variant>  (132) 
46:0-2

>  <s_i_glide_gridfile>  (132) 
pfpi4k_grid

>  <i_i_glide_lignum>  (132) 
14

>  <i_i_glide_rotatable_bonds>  (132) 
5

>  <r_i_docking_score>  (132) 
-2.47363

>  <r_i_glide_ligand_efficiency>  (132) 
-0.117792

>  <r_i_glide_ligand_efficiency_sa>  (132) 
-0.324979

>  <r_i_glide_ligand_efficiency_ln>  (132) 
-0.6116

>  <r_i_glide_gscore>  (132) 
-2.47363

>  <r_i_glide_lipo>  (132) 
-0.309043

>  <r_i_glide_hbond>  (132) 
0

>  <r_i_glide_metal>  (132) 
-0

>  <r_i_glide_rewards>  (132) 
-1.29922

>  <r_i_glide_evdw>  (132) 
-23.8976

>  <r_i_glide_ecoul>  (132) 
-4.24876

>  <r_i_glide_erotb>  (132) 
0.96683

>  <r_i_glide_esite>  (132) 
0

>  <r_i_glide_emodel>  (132) 
-32.7573

>  <r_i_glide_energy>  (132) 
-28.1464

>  <r_i_glide_einternal>  (132) 
1.19593

>  <r_i_glide_intrahb_reward>  (132) 
-0

>  <i_i_glide_confnum>  (132) 
5

>  <i_i_glide_posenum>  (132) 
21

>  <r_i_glide_eff_state_penalty>  (132) 
0

>  <ligand_id>  (132) 
46

>  <original_smiles>  (132) 
c1csc(CN2CC3CCCOC3C(OCC3CC3)C2)n1

>  <smiles>  (132) 
[H]c1nc(C([H])([H])[N+]2([H])C([H])([H])C([H])(OC([H])([H])C3([H])C([H])([H])C3([H])[H])C3([H])OC([H])([H])C([H])([H])C([H])([H])C3([H])C2([H])[H])sc1[H]

$$$$
47:0:0
     RDKit          3D

 13 14  0  0  1  0  0  0  0  0999 V2000
    0.0025   -9.7831    3.2691 C   0  0  0  0  0  0  0  0  0  0  0  0
   -1.0996   -8.9251    3.0338 C   0  0  0  0  0  0  0  0  0  0  0  0
   -1.0188   -7.7452    2.4232 N   0  0  0  0  0  0  0  0  0  0  0  0
    0.2000   -7.3848    1.9853 C   0  0  0  0  0  0  0  0  0  0  0  0
    0.5837   -6.2791    1.3467 N   0  0  0  0  0  0  0  0  0  0  0  0
    1.9290   -6.4604    1.1977 C   0  0  0  0  0  0  0  0  0  0  0  0
    2.4319   -7.5879    1.6821 N   0  0  0  0  0  0  0  0  0  0  0  0
    1.3282   -8.1949    2.1907 N   0  0  0  0  0  0  0  0  0  0  0  0
    1.2474   -9.3945    2.8298 C   0  0  0  0  0  0  0  0  0  0  0  0
   -0.1404  -10.7270    3.7895 H   0  0  0  0  0  0  0  0  0  0  0  0
   -2.0859   -9.2236    3.3743 H   0  0  0  0  0  0  0  0  0  0  0  0
    2.5586   -5.7372    0.6986 H   0  0  0  0  0  0  0  0  0  0  0  0
    2.1572   -9.9737    2.9565 H   0  0  0  0  0  0  0  0  0  0  0  0
  1  9  2  0
  1  2  1  0
  1 10  1  0
  2  3  2  0
  2 11  1  0
  3  4  1  0
  4  8  1  0
  4  5  2  0
  5  6  1  0
  6  7  2  0
  6 12  1  0
  7  8  1  0
  8  9  1  0
  9 13  1  0
M  END
>  <i_m_ct_stereo_status>  (133) 
1

>  <s_m_source_file>  (133) 
/var/tmp/pbs.5076255.sched01/tmpnk13i6y_/41i0yhob8r.sdf

>  <i_m_source_file_index>  (133) 
15

>  <i_lp_mmshare_version>  (133) 
48012

>  <i_f3d_flags>  (133) 
0

>  <s_epik_input>  (133) 
bjFbY0hdW2NIXVtjSF1uKGMxMiluW2NIXW4y

>  <s_epik_cmdline>  (133) 
J2VwaWtfcHl0aG9uJywgJy1waHQnLCAnMi4wJywgJy1waCcsICc3LjAnLCAnLXRuJywgJzgnLCAnLW1hJywgJzIwMCcsICctaW1hZScsICc8aW5maWxlLm1hZT4nLCAnLW9tYWUnLCAnPG91dGZpbGUubWFlPic=

>  <r_lp_tautomer_probability>  (133) 
1

>  <r_epik_Ionization_Penalty>  (133) 
1.66986e-07

>  <r_epik_Ionization_Penalty_Charging>  (133) 
0

>  <r_epik_Ionization_Penalty_Neutral>  (133) 
1.66986e-07

>  <r_epik_State_Penalty>  (133) 
-0

>  <r_epik_Charging_Adjusted_Penalty>  (133) 
0

>  <i_epik_Tot_Q>  (133) 
0

>  <i_epik_Tot_abs_Q>  (133) 
0

>  <s_lp_Force_Field>  (133) 
OPLS3e

>  <r_lp_Energy>  (133) 
14.6748

>  <b_lp_Chiralities_Consistent>  (133) 
1

>  <s_lp_Variant>  (133) 
47:0-1

>  <s_i_glide_gridfile>  (133) 
pfpi4k_grid

>  <i_i_glide_lignum>  (133) 
15

>  <i_i_glide_rotatable_bonds>  (133) 
0

>  <r_i_docking_score>  (133) 
-4.2457

>  <r_i_glide_ligand_efficiency>  (133) 
-0.471744

>  <r_i_glide_ligand_efficiency_sa>  (133) 
-0.981268

>  <r_i_glide_ligand_efficiency_ln>  (133) 
-1.32793

>  <r_i_glide_gscore>  (133) 
-4.2457

>  <r_i_glide_lipo>  (133) 
-0.0335694

>  <r_i_glide_hbond>  (133) 
-0.16

>  <r_i_glide_metal>  (133) 
-0

>  <r_i_glide_rewards>  (133) 
-2.25

>  <r_i_glide_evdw>  (133) 
-13.9361

>  <r_i_glide_ecoul>  (133) 
-6.47193

>  <r_i_glide_erotb>  (133) 
0

>  <r_i_glide_esite>  (133) 
-0.134534

>  <r_i_glide_emodel>  (133) 
-27.1664

>  <r_i_glide_energy>  (133) 
-20.4081

>  <r_i_glide_einternal>  (133) 
0

>  <r_i_glide_intrahb_reward>  (133) 
-0

>  <i_i_glide_confnum>  (133) 
1

>  <i_i_glide_posenum>  (133) 
1

>  <r_i_glide_eff_state_penalty>  (133) 
0

>  <ligand_id>  (133) 
47

>  <original_smiles>  (133) 
c1cnc2ncnn2c1

>  <smiles>  (133) 
[H]c1nc2nc([H])c([H])c([H])n2n1

$$$$
47:0:1
     RDKit          3D

 13 14  0  0  1  0  0  0  0  0999 V2000
   -0.4155   -9.0801    2.7929 C   0  0  0  0  0  0  0  0  0  0  0  0
   -0.4283   -7.8555    2.0831 C   0  0  0  0  0  0  0  0  0  0  0  0
   -0.2420   -6.6587    2.6354 N   0  0  0  0  0  0  0  0  0  0  0  0
   -0.0091   -6.6498    3.9626 C   0  0  0  0  0  0  0  0  0  0  0  0
    0.2055   -5.6248    4.7817 N   0  0  0  0  0  0  0  0  0  0  0  0
    0.3608   -6.2201    5.9991 C   0  0  0  0  0  0  0  0  0  0  0  0
    0.2479   -7.5417    6.0266 N   0  0  0  0  0  0  0  0  0  0  0  0
    0.0132   -7.8328    4.7194 N   0  0  0  0  0  0  0  0  0  0  0  0
   -0.1860   -9.0531    4.1504 C   0  0  0  0  0  0  0  0  0  0  0  0
   -0.5784  -10.0219    2.2734 H   0  0  0  0  0  0  0  0  0  0  0  0
   -0.6059   -7.8619    1.0134 H   0  0  0  0  0  0  0  0  0  0  0  0
    0.5561   -5.6539    6.8974 H   0  0  0  0  0  0  0  0  0  0  0  0
   -0.1590   -9.9295    4.7918 H   0  0  0  0  0  0  0  0  0  0  0  0
  1  9  2  0
  1  2  1  0
  1 10  1  0
  2  3  2  0
  2 11  1  0
  3  4  1  0
  4  8  1  0
  4  5  2  0
  5  6  1  0
  6  7  2  0
  6 12  1  0
  7  8  1  0
  8  9  1  0
  9 13  1  0
M  END
>  <i_m_ct_stereo_status>  (134) 
1

>  <s_m_source_file>  (134) 
/var/tmp/pbs.5076255.sched01/tmpnk13i6y_/41i0yhob8r.sdf

>  <i_m_source_file_index>  (134) 
15

>  <i_lp_mmshare_version>  (134) 
48012

>  <i_f3d_flags>  (134) 
0

>  <s_epik_input>  (134) 
bjFbY0hdW2NIXVtjSF1uKGMxMiluW2NIXW4y

>  <s_epik_cmdline>  (134) 
J2VwaWtfcHl0aG9uJywgJy1waHQnLCAnMi4wJywgJy1waCcsICc3LjAnLCAnLXRuJywgJzgnLCAnLW1hJywgJzIwMCcsICctaW1hZScsICc8aW5maWxlLm1hZT4nLCAnLW9tYWUnLCAnPG91dGZpbGUubWFlPic=

>  <r_lp_tautomer_probability>  (134) 
1

>  <r_epik_Ionization_Penalty>  (134) 
1.66986e-07

>  <r_epik_Ionization_Penalty_Charging>  (134) 
0

>  <r_epik_Ionization_Penalty_Neutral>  (134) 
1.66986e-07

>  <r_epik_State_Penalty>  (134) 
-0

>  <r_epik_Charging_Adjusted_Penalty>  (134) 
0

>  <i_epik_Tot_Q>  (134) 
0

>  <i_epik_Tot_abs_Q>  (134) 
0

>  <s_lp_Force_Field>  (134) 
OPLS3e

>  <r_lp_Energy>  (134) 
14.6748

>  <b_lp_Chiralities_Consistent>  (134) 
1

>  <s_lp_Variant>  (134) 
47:0-1

>  <s_i_glide_gridfile>  (134) 
pfpi4k_grid

>  <i_i_glide_lignum>  (134) 
15

>  <i_i_glide_rotatable_bonds>  (134) 
0

>  <r_i_docking_score>  (134) 
-3.62809

>  <r_i_glide_ligand_efficiency>  (134) 
-0.403121

>  <r_i_glide_ligand_efficiency_sa>  (134) 
-0.838526

>  <r_i_glide_ligand_efficiency_ln>  (134) 
-1.13476

>  <r_i_glide_gscore>  (134) 
-3.62809

>  <r_i_glide_lipo>  (134) 
0

>  <r_i_glide_hbond>  (134) 
-0.16

>  <r_i_glide_metal>  (134) 
-0

>  <r_i_glide_rewards>  (134) 
-2.25

>  <r_i_glide_evdw>  (134) 
-11.0514

>  <r_i_glide_ecoul>  (134) 
-3.88131

>  <r_i_glide_erotb>  (134) 
0

>  <r_i_glide_esite>  (134) 
-0.0833245

>  <r_i_glide_emodel>  (134) 
-20.708

>  <r_i_glide_energy>  (134) 
-14.9327

>  <r_i_glide_einternal>  (134) 
0

>  <r_i_glide_intrahb_reward>  (134) 
-0

>  <i_i_glide_confnum>  (134) 
1

>  <i_i_glide_posenum>  (134) 
3

>  <r_i_glide_eff_state_penalty>  (134) 
0

>  <ligand_id>  (134) 
47

>  <original_smiles>  (134) 
c1cnc2ncnn2c1

>  <smiles>  (134) 
[H]c1nc2nc([H])c([H])c([H])n2n1

$$$$
47:0:2
     RDKit          3D

 13 14  0  0  1  0  0  0  0  0999 V2000
   -0.5268    1.9461    2.8817 C   0  0  0  0  0  0  0  0  0  0  0  0
   -1.3521    2.5193    3.8779 C   0  0  0  0  0  0  0  0  0  0  0  0
   -1.7836    1.8790    4.9610 N   0  0  0  0  0  0  0  0  0  0  0  0
   -1.4029    0.5968    5.0862 C   0  0  0  0  0  0  0  0  0  0  0  0
   -1.6780   -0.2914    6.0425 N   0  0  0  0  0  0  0  0  0  0  0  0
   -1.0109   -1.4096    5.6292 C   0  0  0  0  0  0  0  0  0  0  0  0
   -0.3470   -1.3156    4.4851 N   0  0  0  0  0  0  0  0  0  0  0  0
   -0.5861   -0.0272    4.1276 N   0  0  0  0  0  0  0  0  0  0  0  0
   -0.1398    0.6340    3.0230 C   0  0  0  0  0  0  0  0  0  0  0  0
   -0.2067    2.5362    2.0240 H   0  0  0  0  0  0  0  0  0  0  0  0
   -1.6632    3.5527    3.7807 H   0  0  0  0  0  0  0  0  0  0  0  0
   -1.0278   -2.3328    6.1903 H   0  0  0  0  0  0  0  0  0  0  0  0
    0.4878    0.0980    2.3180 H   0  0  0  0  0  0  0  0  0  0  0  0
  1  9  2  0
  1  2  1  0
  1 10  1  0
  2  3  2  0
  2 11  1  0
  3  4  1  0
  4  8  1  0
  4  5  2  0
  5  6  1  0
  6  7  2  0
  6 12  1  0
  7  8  1  0
  8  9  1  0
  9 13  1  0
M  END
>  <i_m_ct_stereo_status>  (135) 
1

>  <s_m_source_file>  (135) 
/var/tmp/pbs.5076255.sched01/tmpnk13i6y_/41i0yhob8r.sdf

>  <i_m_source_file_index>  (135) 
15

>  <i_lp_mmshare_version>  (135) 
48012

>  <i_f3d_flags>  (135) 
0

>  <s_epik_input>  (135) 
bjFbY0hdW2NIXVtjSF1uKGMxMiluW2NIXW4y

>  <s_epik_cmdline>  (135) 
J2VwaWtfcHl0aG9uJywgJy1waHQnLCAnMi4wJywgJy1waCcsICc3LjAnLCAnLXRuJywgJzgnLCAnLW1hJywgJzIwMCcsICctaW1hZScsICc8aW5maWxlLm1hZT4nLCAnLW9tYWUnLCAnPG91dGZpbGUubWFlPic=

>  <r_lp_tautomer_probability>  (135) 
1

>  <r_epik_Ionization_Penalty>  (135) 
1.66986e-07

>  <r_epik_Ionization_Penalty_Charging>  (135) 
0

>  <r_epik_Ionization_Penalty_Neutral>  (135) 
1.66986e-07

>  <r_epik_State_Penalty>  (135) 
-0

>  <r_epik_Charging_Adjusted_Penalty>  (135) 
0

>  <i_epik_Tot_Q>  (135) 
0

>  <i_epik_Tot_abs_Q>  (135) 
0

>  <s_lp_Force_Field>  (135) 
OPLS3e

>  <r_lp_Energy>  (135) 
14.6748

>  <b_lp_Chiralities_Consistent>  (135) 
1

>  <s_lp_Variant>  (135) 
47:0-1

>  <s_i_glide_gridfile>  (135) 
pfpi4k_grid

>  <i_i_glide_lignum>  (135) 
15

>  <i_i_glide_rotatable_bonds>  (135) 
0

>  <r_i_docking_score>  (135) 
-3.61166

>  <r_i_glide_ligand_efficiency>  (135) 
-0.401295

>  <r_i_glide_ligand_efficiency_sa>  (135) 
-0.834728

>  <r_i_glide_ligand_efficiency_ln>  (135) 
-1.12962

>  <r_i_glide_gscore>  (135) 
-3.61166

>  <r_i_glide_lipo>  (135) 
0

>  <r_i_glide_hbond>  (135) 
-0.136992

>  <r_i_glide_metal>  (135) 
-0

>  <r_i_glide_rewards>  (135) 
-2.25

>  <r_i_glide_evdw>  (135) 
-11.621

>  <r_i_glide_ecoul>  (135) 
-3.60831

>  <r_i_glide_erotb>  (135) 
0

>  <r_i_glide_esite>  (135) 
-0.10237

>  <r_i_glide_emodel>  (135) 
-20.9787

>  <r_i_glide_energy>  (135) 
-15.2293

>  <r_i_glide_einternal>  (135) 
0

>  <r_i_glide_intrahb_reward>  (135) 
-0

>  <i_i_glide_confnum>  (135) 
1

>  <i_i_glide_posenum>  (135) 
2

>  <r_i_glide_eff_state_penalty>  (135) 
0

>  <ligand_id>  (135) 
47

>  <original_smiles>  (135) 
c1cnc2ncnn2c1

>  <smiles>  (135) 
[H]c1nc2nc([H])c([H])c([H])n2n1

$$$$
48:0:0
     RDKit          3D

 32 34  0  0  1  0  0  0  0  0999 V2000
   -0.0917   -7.0608    1.6994 N   0  0  0  0  0  0  0  0  0  0  0  0
    0.8789   -6.6752    1.2597 N   0  0  0  0  0  0  0  0  0  0  0  0
    1.8556   -6.0835    0.7922 N   0  0  0  0  0  0  0  0  0  0  0  0
    3.0957   -6.5454    1.2698 C   0  0  0  0  0  0  0  0  0  0  0  0
    3.3391   -7.5650    2.1049 N   0  0  0  0  0  0  0  0  0  0  0  0
    4.7088   -7.5817    2.1981 C   0  0  0  0  0  0  0  0  0  0  0  0
    5.6220   -8.3976    2.9175 C   0  0  0  0  0  0  0  0  0  0  0  0
    6.9434   -8.1338    2.8141 N   0  0  0  0  0  0  0  0  0  0  0  0
    7.3562   -7.1325    2.0288 C   0  0  0  0  0  0  0  0  0  0  0  0
    6.6150   -6.2943    1.2923 N   0  0  0  0  0  0  0  0  0  0  0  0
    5.2778   -6.5428    1.4052 C   0  0  0  0  0  0  0  0  0  0  0  0
    4.2026   -5.8786    0.8186 N   0  0  0  0  0  0  0  0  0  0  0  0
    4.2679   -4.7005   -0.1546 C   0  0  2  0  0  0  0  0  0  0  0  0
    5.5983   -4.3451   -0.4240 O   0  0  0  0  0  0  0  0  0  0  0  0
    5.9919   -3.1419    0.2450 C   0  0  1  0  0  0  0  0  0  0  0  0
    6.2021   -2.0814   -0.8548 C   0  0  0  0  0  0  0  0  0  0  0  0
    7.4201   -2.2698   -1.5222 O   0  0  0  0  0  0  0  0  0  0  0  0
    4.7974   -2.8501    1.1731 C   0  0  1  0  0  0  0  0  0  0  0  0
    4.5348   -1.4937    1.4572 O   0  0  0  0  0  0  0  0  0  0  0  0
    3.6133   -3.4584    0.4414 C   0  0  1  0  0  0  0  0  0  0  0  0
    3.0492   -2.6474   -0.5932 O   0  0  0  0  0  0  0  0  0  0  0  0
    5.3026   -9.2049    3.5625 H   0  0  0  0  0  0  0  0  0  0  0  0
    8.4279   -6.9691    1.9878 H   0  0  0  0  0  0  0  0  0  0  0  0
    3.8064   -5.0542   -1.0782 H   0  0  0  0  0  0  0  0  0  0  0  0
    6.9144   -3.2996    0.8211 H   0  0  0  0  0  0  0  0  0  0  0  0
    5.3897   -2.0536   -1.5825 H   0  0  0  0  0  0  0  0  0  0  0  0
    6.2737   -1.0907   -0.4146 H   0  0  0  0  0  0  0  0  0  0  0  0
    7.3602   -3.0794   -2.0250 H   0  0  0  0  0  0  0  0  0  0  0  0
    4.9703   -3.3810    2.1154 H   0  0  0  0  0  0  0  0  0  0  0  0
    4.3105   -1.0886    0.6345 H   0  0  0  0  0  0  0  0  0  0  0  0
    2.8251   -3.7206    1.1328 H   0  0  0  0  0  0  0  0  0  0  0  0
    2.4315   -2.0055   -0.2566 H   0  0  0  0  0  0  0  0  0  0  0  0
  1  2  2  0
  2  3  2  0
  3  4  1  0
  4 12  1  0
  4  5  2  0
  5  6  1  0
  6 11  2  0
  6  7  1  0
  7  8  2  0
  7 22  1  0
  8  9  1  0
  9 10  2  0
  9 23  1  0
 10 11  1  0
 11 12  1  0
 12 13  1  0
 13 20  1  0
 13 14  1  0
 13 24  1  6
 14 15  1  0
 15 16  1  0
 15 18  1  0
 15 25  1  1
 16 17  1  0
 16 26  1  0
 16 27  1  0
 17 28  1  0
 18 19  1  0
 18 20  1  0
 18 29  1  1
 19 30  1  0
 20 21  1  0
 20 31  1  1
 21 32  1  0
M  CHG  2   1  -1   2   1
M  END
>  <i_m_ct_stereo_status>  (136) 
1

>  <s_m_source_file>  (136) 
/var/tmp/pbs.5076255.sched01/tmpnk13i6y_/41i0yhob8r.sdf

>  <i_m_source_file_index>  (136) 
16

>  <i_lp_mmshare_version>  (136) 
48012

>  <i_f3d_flags>  (136) 
0

>  <s_epik_input>  (136) 
W2NIXTFuW2NIXW5jKGMxMiluKGMobjIpTj1bTitdPVtOLV0pW0NAQEhdM09bQ0BASF0oW0NIMl1bT0hdKVtDQEBIXShbT0hdKVtDQEhdM1tPSF0=

>  <s_epik_cmdline>  (136) 
J2VwaWtfcHl0aG9uJywgJy1waHQnLCAnMi4wJywgJy1waCcsICc3LjAnLCAnLXRuJywgJzgnLCAnLW1hJywgJzIwMCcsICctaW1hZScsICc8aW5maWxlLm1hZT4nLCAnLW9tYWUnLCAnPG91dGZpbGUubWFlPic=

>  <r_lp_tautomer_probability>  (136) 
1

>  <r_epik_Ionization_Penalty>  (136) 
8.77675e-06

>  <r_epik_Ionization_Penalty_Charging>  (136) 
0

>  <r_epik_Ionization_Penalty_Neutral>  (136) 
8.77675e-06

>  <r_epik_State_Penalty>  (136) 
-0

>  <r_epik_Charging_Adjusted_Penalty>  (136) 
0

>  <i_epik_Tot_Q>  (136) 
0

>  <i_epik_Tot_abs_Q>  (136) 
2

>  <s_epik_Chemistry_Notes>  (136) 
This compound contains an acetal/aminal-like group ( X-CH(R)-Y where X, Y are N, S, or O) that may be acid/base labile, releasing an aldehyde.

>  <s_lp_Force_Field>  (136) 
OPLS3e

>  <r_lp_Energy>  (136) 
15.2719

>  <b_lp_Chiralities_Consistent>  (136) 
1

>  <s_lp_Variant>  (136) 
48:0-1

>  <s_i_glide_gridfile>  (136) 
pfpi4k_grid

>  <i_i_glide_lignum>  (136) 
16

>  <i_i_glide_rotatable_bonds>  (136) 
6

>  <r_i_docking_score>  (136) 
-3.56314

>  <r_i_glide_ligand_efficiency>  (136) 
-0.169673

>  <r_i_glide_ligand_efficiency_sa>  (136) 
-0.468116

>  <r_i_glide_ligand_efficiency_ln>  (136) 
-0.880979

>  <r_i_glide_gscore>  (136) 
-3.56314

>  <r_i_glide_lipo>  (136) 
-0.105936

>  <r_i_glide_hbond>  (136) 
0

>  <r_i_glide_metal>  (136) 
-0

>  <r_i_glide_rewards>  (136) 
-1.69226

>  <r_i_glide_evdw>  (136) 
-21.8898

>  <r_i_glide_ecoul>  (136) 
-6.98905

>  <r_i_glide_erotb>  (136) 
0.637396

>  <r_i_glide_esite>  (136) 
-0.25949

>  <r_i_glide_emodel>  (136) 
-35.1432

>  <r_i_glide_energy>  (136) 
-28.8789

>  <r_i_glide_einternal>  (136) 
1.7314

>  <r_i_glide_intrahb_reward>  (136) 
-0

>  <i_i_glide_confnum>  (136) 
2

>  <i_i_glide_posenum>  (136) 
1

>  <r_i_glide_eff_state_penalty>  (136) 
0

>  <ligand_id>  (136) 
48

>  <original_smiles>  (136) 
[N-]=[N+]=Nc1nc2cncnc2n1C1OC(CO)C(O)C1O

>  <smiles>  (136) 
[H]OC([H])([H])C1([H])OC([H])(n2c(N=[N+]=[N-])nc3c([H])nc([H])nc32)C([H])(O[H])C1([H])O[H]

$$$$
48:0:1
     RDKit          3D

 32 34  0  0  1  0  0  0  0  0999 V2000
    2.2200    1.7275    3.5401 N   0  0  0  0  0  0  0  0  0  0  0  0
    2.4767    0.9574    2.7432 N   0  0  0  0  0  0  0  0  0  0  0  0
    2.7858    0.2131    1.8052 N   0  0  0  0  0  0  0  0  0  0  0  0
    2.6980   -1.1516    2.1289 C   0  0  0  0  0  0  0  0  0  0  0  0
    2.3629   -1.7427    3.2941 N   0  0  0  0  0  0  0  0  0  0  0  0
    2.4927   -3.0855    3.0148 C   0  0  0  0  0  0  0  0  0  0  0  0
    2.3033   -4.2566    3.7847 C   0  0  0  0  0  0  0  0  0  0  0  0
    2.5191   -5.4598    3.2006 N   0  0  0  0  0  0  0  0  0  0  0  0
    2.9215   -5.5112    1.9277 C   0  0  0  0  0  0  0  0  0  0  0  0
    3.1379   -4.4912    1.0911 N   0  0  0  0  0  0  0  0  0  0  0  0
    2.9048   -3.2809    1.6752 C   0  0  0  0  0  0  0  0  0  0  0  0
    3.0114   -2.0199    1.1224 N   0  0  0  0  0  0  0  0  0  0  0  0
    3.4386   -1.7192   -0.2776 C   0  0  2  0  0  0  0  0  0  0  0  0
    2.8830   -2.6552   -1.1560 O   0  0  0  0  0  0  0  0  0  0  0  0
    3.8747   -3.1906   -2.0296 C   0  0  1  0  0  0  0  0  0  0  0  0
    3.3424   -3.3227   -3.4749 C   0  0  0  0  0  0  0  0  0  0  0  0
    4.3225   -3.9234   -4.2978 O   0  0  0  0  0  0  0  0  0  0  0  0
    5.0851   -2.2648   -1.8352 C   0  0  1  0  0  0  0  0  0  0  0  0
    4.9653   -1.1137   -2.6573 O   0  0  0  0  0  0  0  0  0  0  0  0
    4.9533   -1.8577   -0.3827 C   0  0  1  0  0  0  0  0  0  0  0  0
    5.6565   -0.6585   -0.1160 O   0  0  0  0  0  0  0  0  0  0  0  0
    2.0003   -4.2326    4.8218 H   0  0  0  0  0  0  0  0  0  0  0  0
    3.0848   -6.4996    1.5156 H   0  0  0  0  0  0  0  0  0  0  0  0
    3.0285   -0.7385   -0.5199 H   0  0  0  0  0  0  0  0  0  0  0  0
    4.1191   -4.1783   -1.6323 H   0  0  0  0  0  0  0  0  0  0  0  0
    2.4356   -3.9260   -3.5100 H   0  0  0  0  0  0  0  0  0  0  0  0
    3.0618   -2.3543   -3.8858 H   0  0  0  0  0  0  0  0  0  0  0  0
    4.5348   -4.7662   -3.9201 H   0  0  0  0  0  0  0  0  0  0  0  0
    6.0228   -2.7835   -2.0461 H   0  0  0  0  0  0  0  0  0  0  0  0
    4.0772   -0.7927   -2.5873 H   0  0  0  0  0  0  0  0  0  0  0  0
    5.3007   -2.6668    0.2625 H   0  0  0  0  0  0  0  0  0  0  0  0
    5.2065    0.0488   -0.5596 H   0  0  0  0  0  0  0  0  0  0  0  0
  1  2  2  0
  2  3  2  0
  3  4  1  0
  4 12  1  0
  4  5  2  0
  5  6  1  0
  6 11  2  0
  6  7  1  0
  7  8  2  0
  7 22  1  0
  8  9  1  0
  9 10  2  0
  9 23  1  0
 10 11  1  0
 11 12  1  0
 12 13  1  0
 13 20  1  0
 13 14  1  0
 13 24  1  6
 14 15  1  0
 15 16  1  0
 15 18  1  0
 15 25  1  1
 16 17  1  0
 16 26  1  0
 16 27  1  0
 17 28  1  0
 18 19  1  0
 18 20  1  0
 18 29  1  1
 19 30  1  0
 20 21  1  0
 20 31  1  1
 21 32  1  0
M  CHG  2   1  -1   2   1
M  END
>  <i_m_ct_stereo_status>  (137) 
1

>  <s_m_source_file>  (137) 
/var/tmp/pbs.5076255.sched01/tmpnk13i6y_/41i0yhob8r.sdf

>  <i_m_source_file_index>  (137) 
16

>  <i_lp_mmshare_version>  (137) 
48012

>  <i_f3d_flags>  (137) 
0

>  <s_epik_input>  (137) 
W2NIXTFuW2NIXW5jKGMxMiluKGMobjIpTj1bTitdPVtOLV0pW0NAQEhdM09bQ0BASF0oW0NIMl1bT0hdKVtDQEBIXShbT0hdKVtDQEhdM1tPSF0=

>  <s_epik_cmdline>  (137) 
J2VwaWtfcHl0aG9uJywgJy1waHQnLCAnMi4wJywgJy1waCcsICc3LjAnLCAnLXRuJywgJzgnLCAnLW1hJywgJzIwMCcsICctaW1hZScsICc8aW5maWxlLm1hZT4nLCAnLW9tYWUnLCAnPG91dGZpbGUubWFlPic=

>  <r_lp_tautomer_probability>  (137) 
1

>  <r_epik_Ionization_Penalty>  (137) 
8.77675e-06

>  <r_epik_Ionization_Penalty_Charging>  (137) 
0

>  <r_epik_Ionization_Penalty_Neutral>  (137) 
8.77675e-06

>  <r_epik_State_Penalty>  (137) 
-0

>  <r_epik_Charging_Adjusted_Penalty>  (137) 
0

>  <i_epik_Tot_Q>  (137) 
0

>  <i_epik_Tot_abs_Q>  (137) 
2

>  <s_epik_Chemistry_Notes>  (137) 
This compound contains an acetal/aminal-like group ( X-CH(R)-Y where X, Y are N, S, or O) that may be acid/base labile, releasing an aldehyde.

>  <s_lp_Force_Field>  (137) 
OPLS3e

>  <r_lp_Energy>  (137) 
15.2719

>  <b_lp_Chiralities_Consistent>  (137) 
1

>  <s_lp_Variant>  (137) 
48:0-1

>  <s_i_glide_gridfile>  (137) 
pfpi4k_grid

>  <i_i_glide_lignum>  (137) 
16

>  <i_i_glide_rotatable_bonds>  (137) 
6

>  <r_i_docking_score>  (137) 
-3.38093

>  <r_i_glide_ligand_efficiency>  (137) 
-0.160997

>  <r_i_glide_ligand_efficiency_sa>  (137) 
-0.444178

>  <r_i_glide_ligand_efficiency_ln>  (137) 
-0.835928

>  <r_i_glide_gscore>  (137) 
-3.38093

>  <r_i_glide_lipo>  (137) 
-0.176282

>  <r_i_glide_hbond>  (137) 
0

>  <r_i_glide_metal>  (137) 
-0

>  <r_i_glide_rewards>  (137) 
-1.40974

>  <r_i_glide_evdw>  (137) 
-22.1597

>  <r_i_glide_ecoul>  (137) 
-7.67042

>  <r_i_glide_erotb>  (137) 
0.637396

>  <r_i_glide_esite>  (137) 
-0.17376

>  <r_i_glide_emodel>  (137) 
-36.4521

>  <r_i_glide_energy>  (137) 
-29.8301

>  <r_i_glide_einternal>  (137) 
0.419146

>  <r_i_glide_intrahb_reward>  (137) 
-0

>  <i_i_glide_confnum>  (137) 
6

>  <i_i_glide_posenum>  (137) 
12

>  <r_i_glide_eff_state_penalty>  (137) 
0

>  <ligand_id>  (137) 
48

>  <original_smiles>  (137) 
[N-]=[N+]=Nc1nc2cncnc2n1C1OC(CO)C(O)C1O

>  <smiles>  (137) 
[H]OC([H])([H])C1([H])OC([H])(n2c(N=[N+]=[N-])nc3c([H])nc([H])nc32)C([H])(O[H])C1([H])O[H]

$$$$
48:0:2
     RDKit          3D

 32 34  0  0  1  0  0  0  0  0999 V2000
    2.3311    2.0099    3.3235 N   0  0  0  0  0  0  0  0  0  0  0  0
    2.5874    1.1853    2.5816 N   0  0  0  0  0  0  0  0  0  0  0  0
    2.9016    0.3721    1.7010 N   0  0  0  0  0  0  0  0  0  0  0  0
    2.7332   -0.9713    2.1007 C   0  0  0  0  0  0  0  0  0  0  0  0
    2.3509   -1.4748    3.2866 N   0  0  0  0  0  0  0  0  0  0  0  0
    2.4046   -2.8376    3.0801 C   0  0  0  0  0  0  0  0  0  0  0  0
    2.1413   -3.9531    3.9095 C   0  0  0  0  0  0  0  0  0  0  0  0
    2.2964   -5.1969    3.3919 N   0  0  0  0  0  0  0  0  0  0  0  0
    2.7064   -5.3398    2.1296 C   0  0  0  0  0  0  0  0  0  0  0  0
    2.9859   -4.3822    1.2407 N   0  0  0  0  0  0  0  0  0  0  0  0
    2.8187   -3.1273    1.7593 C   0  0  0  0  0  0  0  0  0  0  0  0
    3.0137   -1.9072    1.1479 N   0  0  0  0  0  0  0  0  0  0  0  0
    3.4686   -1.7149   -0.2667 C   0  0  2  0  0  0  0  0  0  0  0  0
    2.8349   -2.6513   -1.0923 O   0  0  0  0  0  0  0  0  0  0  0  0
    3.7665   -3.3036   -1.9515 C   0  0  1  0  0  0  0  0  0  0  0  0
    3.2305   -3.4338   -3.3980 C   0  0  0  0  0  0  0  0  0  0  0  0
    4.2029   -4.0804   -4.2110 O   0  0  0  0  0  0  0  0  0  0  0  0
    5.0511   -2.4871   -1.7971 C   0  0  1  0  0  0  0  0  0  0  0  0
    5.0118   -1.3946   -2.7041 O   0  0  0  0  0  0  0  0  0  0  0  0
    4.9618   -1.9963   -0.3626 C   0  0  1  0  0  0  0  0  0  0  0  0
    5.7752   -0.8606   -0.1479 O   0  0  0  0  0  0  0  0  0  0  0  0
    1.8295   -3.8500    4.9391 H   0  0  0  0  0  0  0  0  0  0  0  0
    2.8172   -6.3598    1.7774 H   0  0  0  0  0  0  0  0  0  0  0  0
    3.1590   -0.7147   -0.5673 H   0  0  0  0  0  0  0  0  0  0  0  0
    3.9219   -4.2826   -1.5038 H   0  0  0  0  0  0  0  0  0  0  0  0
    2.2926   -3.9888   -3.4266 H   0  0  0  0  0  0  0  0  0  0  0  0
    2.9937   -2.4575   -3.8193 H   0  0  0  0  0  0  0  0  0  0  0  0
    4.3491   -4.9323   -3.8256 H   0  0  0  0  0  0  0  0  0  0  0  0
    5.9387   -3.0996   -1.9733 H   0  0  0  0  0  0  0  0  0  0  0  0
    4.1930   -0.9311   -2.5721 H   0  0  0  0  0  0  0  0  0  0  0  0
    5.2276   -2.8016    0.3245 H   0  0  0  0  0  0  0  0  0  0  0  0
    5.5375   -0.4830    0.6841 H   0  0  0  0  0  0  0  0  0  0  0  0
  1  2  2  0
  2  3  2  0
  3  4  1  0
  4 12  1  0
  4  5  2  0
  5  6  1  0
  6 11  2  0
  6  7  1  0
  7  8  2  0
  7 22  1  0
  8  9  1  0
  9 10  2  0
  9 23  1  0
 10 11  1  0
 11 12  1  0
 12 13  1  0
 13 20  1  0
 13 14  1  0
 13 24  1  6
 14 15  1  0
 15 16  1  0
 15 18  1  0
 15 25  1  1
 16 17  1  0
 16 26  1  0
 16 27  1  0
 17 28  1  0
 18 19  1  0
 18 20  1  0
 18 29  1  1
 19 30  1  0
 20 21  1  0
 20 31  1  1
 21 32  1  0
M  CHG  2   1  -1   2   1
M  END
>  <i_m_ct_stereo_status>  (138) 
1

>  <s_m_source_file>  (138) 
/var/tmp/pbs.5076255.sched01/tmpnk13i6y_/41i0yhob8r.sdf

>  <i_m_source_file_index>  (138) 
16

>  <i_lp_mmshare_version>  (138) 
48012

>  <i_f3d_flags>  (138) 
0

>  <s_epik_input>  (138) 
W2NIXTFuW2NIXW5jKGMxMiluKGMobjIpTj1bTitdPVtOLV0pW0NAQEhdM09bQ0BASF0oW0NIMl1bT0hdKVtDQEBIXShbT0hdKVtDQEhdM1tPSF0=

>  <s_epik_cmdline>  (138) 
J2VwaWtfcHl0aG9uJywgJy1waHQnLCAnMi4wJywgJy1waCcsICc3LjAnLCAnLXRuJywgJzgnLCAnLW1hJywgJzIwMCcsICctaW1hZScsICc8aW5maWxlLm1hZT4nLCAnLW9tYWUnLCAnPG91dGZpbGUubWFlPic=

>  <r_lp_tautomer_probability>  (138) 
1

>  <r_epik_Ionization_Penalty>  (138) 
8.77675e-06

>  <r_epik_Ionization_Penalty_Charging>  (138) 
0

>  <r_epik_Ionization_Penalty_Neutral>  (138) 
8.77675e-06

>  <r_epik_State_Penalty>  (138) 
-0

>  <r_epik_Charging_Adjusted_Penalty>  (138) 
0

>  <i_epik_Tot_Q>  (138) 
0

>  <i_epik_Tot_abs_Q>  (138) 
2

>  <s_epik_Chemistry_Notes>  (138) 
This compound contains an acetal/aminal-like group ( X-CH(R)-Y where X, Y are N, S, or O) that may be acid/base labile, releasing an aldehyde.

>  <s_lp_Force_Field>  (138) 
OPLS3e

>  <r_lp_Energy>  (138) 
15.2719

>  <b_lp_Chiralities_Consistent>  (138) 
1

>  <s_lp_Variant>  (138) 
48:0-1

>  <s_i_glide_gridfile>  (138) 
pfpi4k_grid

>  <i_i_glide_lignum>  (138) 
16

>  <i_i_glide_rotatable_bonds>  (138) 
6

>  <r_i_docking_score>  (138) 
-3.22117

>  <r_i_glide_ligand_efficiency>  (138) 
-0.153389

>  <r_i_glide_ligand_efficiency_sa>  (138) 
-0.423189

>  <r_i_glide_ligand_efficiency_ln>  (138) 
-0.796428

>  <r_i_glide_gscore>  (138) 
-3.22117

>  <r_i_glide_lipo>  (138) 
-0.13211

>  <r_i_glide_hbond>  (138) 
0

>  <r_i_glide_metal>  (138) 
-0

>  <r_i_glide_rewards>  (138) 
-1.40974

>  <r_i_glide_evdw>  (138) 
-21.9358

>  <r_i_glide_ecoul>  (138) 
-6.91941

>  <r_i_glide_erotb>  (138) 
0.637396

>  <r_i_glide_esite>  (138) 
-0.182019

>  <r_i_glide_emodel>  (138) 
-35.046

>  <r_i_glide_energy>  (138) 
-28.8552

>  <r_i_glide_einternal>  (138) 
0.566353

>  <r_i_glide_intrahb_reward>  (138) 
-0

>  <i_i_glide_confnum>  (138) 
3

>  <i_i_glide_posenum>  (138) 
35

>  <r_i_glide_eff_state_penalty>  (138) 
0

>  <ligand_id>  (138) 
48

>  <original_smiles>  (138) 
[N-]=[N+]=Nc1nc2cncnc2n1C1OC(CO)C(O)C1O

>  <smiles>  (138) 
[H]OC([H])([H])C1([H])OC([H])(n2c(N=[N+]=[N-])nc3c([H])nc([H])nc32)C([H])(O[H])C1([H])O[H]

$$$$
49:0:0
     RDKit          3D

 77 83  0  0  1  0  0  0  0  0999 V2000
    2.1846   -9.5941    1.5980 C   0  0  0  0  0  0  0  0  0  0  0  0
    2.8273   -8.9801    2.8594 C   0  0  2  0  0  0  0  0  0  0  0  0
    3.4692  -10.0968    3.7095 C   0  0  0  0  0  0  0  0  0  0  0  0
    2.4062  -11.0113    4.3343 C   0  0  0  0  0  0  0  0  0  0  0  0
    1.4053  -10.1859    5.1543 C   0  0  0  0  0  0  0  0  0  0  0  0
    0.7529   -9.0340    4.3622 C   0  0  1  0  0  0  0  0  0  0  0  0
   -0.3117   -8.3544    5.2522 C   0  0  0  0  0  0  0  0  0  0  0  0
    1.8360   -8.1046    3.6777 C   0  0  0  0  0  0  0  0  0  0  0  0
    1.2529   -7.1390    2.7636 O   0  0  0  0  0  0  0  0  0  0  0  0
    0.3086   -6.2416    3.4834 O   0  0  0  0  0  0  0  0  0  0  0  0
    1.0666   -5.4848    4.4676 C   0  0  0  0  0  0  0  0  0  0  0  0
    0.0815   -4.6319    5.2703 C   0  0  0  0  0  0  0  0  0  0  0  0
    0.7562   -3.7415    6.3275 C   0  0  0  0  0  0  0  0  0  0  0  0
    1.9522   -2.8953    5.8095 C   0  0  1  0  0  0  0  0  0  0  0  0
    2.8377   -2.6274    7.0568 C   0  0  0  0  0  0  0  0  0  0  0  0
    2.8273   -3.6257    4.7488 C   0  0  1  0  0  0  0  0  0  0  0  0
    2.0333   -4.5089    3.7531 C   0  0  0  0  0  0  0  0  0  0  0  0
    3.5536   -2.4784    4.0301 C   0  0  1  0  0  0  0  0  0  0  0  0
    4.1060   -2.8797    2.7934 O   0  0  0  0  0  0  0  0  0  0  0  0
    2.4789   -1.3938    3.8365 C   0  0  1  0  0  0  0  0  0  0  0  0
    1.4971   -1.5926    5.0534 C   0  0  2  0  0  0  0  0  0  0  0  0
    1.1879   -0.3249    5.8997 C   0  0  0  0  0  0  0  0  0  0  0  0
    0.4220   -0.4203    6.8856 O   0  0  0  0  0  0  0  0  0  0  0  0
    1.8089    1.0443    5.4959 C   0  0  1  0  0  0  0  0  0  0  0  0
    1.9489    1.9595    6.7380 C   0  0  0  0  0  0  0  0  0  0  0  0
    3.2412    0.7127    4.9684 C   0  0  0  0  0  0  0  0  0  0  0  0
    4.0074    1.7962    4.8468 F   0  0  0  0  0  0  0  0  0  0  0  0
    3.9216   -0.0670    5.8055 F   0  0  0  0  0  0  0  0  0  0  0  0
    3.0214    0.0504    3.5948 C   0  0  2  0  0  0  0  0  0  0  0  0
    2.0287    0.9279    2.7509 C   0  0  2  0  0  0  0  0  0  0  0  0
    1.8207    2.3892    3.2163 C   0  0  0  0  0  0  0  0  0  0  0  0
    0.9686    1.7249    4.3268 C   0  0  2  0  0  0  0  0  0  0  0  0
   -0.0873    2.5011    4.8468 O   0  0  0  0  0  0  0  0  0  0  0  0
    0.5384    0.8218    3.1370 C   0  0  1  0  0  0  0  0  0  0  0  0
   -0.5582    1.2388    2.1211 C   0  0  0  0  0  0  0  0  0  0  0  0
    1.7214   -6.4036    5.3949 O   0  0  0  0  0  0  0  0  0  0  0  0
    2.6364   -7.3381    4.6178 O   0  0  0  0  0  0  0  0  0  0  0  0
    1.3367  -10.2402    1.8272 H   0  0  0  0  0  0  0  0  0  0  0  0
    2.9031  -10.2156    1.0621 H   0  0  0  0  0  0  0  0  0  0  0  0
    1.8238   -8.8333    0.9060 H   0  0  0  0  0  0  0  0  0  0  0  0
    3.6290   -8.3313    2.5178 H   0  0  0  0  0  0  0  0  0  0  0  0
    4.1392  -10.6897    3.0945 H   0  0  0  0  0  0  0  0  0  0  0  0
    4.0889   -9.6693    4.4971 H   0  0  0  0  0  0  0  0  0  0  0  0
    1.8958  -11.5933    3.5630 H   0  0  0  0  0  0  0  0  0  0  0  0
    2.8862  -11.7629    4.9723 H   0  0  0  0  0  0  0  0  0  0  0  0
    0.6407  -10.8627    5.5250 H   0  0  0  0  0  0  0  0  0  0  0  0
    1.9223   -9.7855    6.0254 H   0  0  0  0  0  0  0  0  0  0  0  0
    0.1884   -9.4896    3.5549 H   0  0  0  0  0  0  0  0  0  0  0  0
    0.1863   -7.8052    6.0669 H   0  0  0  0  0  0  0  0  0  0  0  0
   -1.0083   -9.0966    5.6857 H   0  0  0  0  0  0  0  0  0  0  0  0
   -0.9113   -7.6413    4.6636 H   0  0  0  0  0  0  0  0  0  0  0  0
   -0.5090   -3.9990    4.6063 H   0  0  0  0  0  0  0  0  0  0  0  0
   -0.6380   -5.2834    5.7622 H   0  0  0  0  0  0  0  0  0  0  0  0
    0.0086   -3.0979    6.7812 H   0  0  0  0  0  0  0  0  0  0  0  0
    1.0798   -4.4033    7.1330 H   0  0  0  0  0  0  0  0  0  0  0  0
    3.7695   -2.1249    6.8201 H   0  0  0  0  0  0  0  0  0  0  0  0
    3.1281   -3.5709    7.5192 H   0  0  0  0  0  0  0  0  0  0  0  0
    2.3225   -2.0491    7.8251 H   0  0  0  0  0  0  0  0  0  0  0  0
    3.5468   -4.2812    5.2416 H   0  0  0  0  0  0  0  0  0  0  0  0
    2.7222   -5.0716    3.1382 H   0  0  0  0  0  0  0  0  0  0  0  0
    1.4345   -3.8878    3.0792 H   0  0  0  0  0  0  0  0  0  0  0  0
    4.3686   -2.1131    4.6595 H   0  0  0  0  0  0  0  0  0  0  0  0
    4.5499   -2.1403    2.4052 H   0  0  0  0  0  0  0  0  0  0  0  0
    1.9228   -1.6720    2.9391 H   0  0  0  0  0  0  0  0  0  0  0  0
    0.5303   -1.8420    4.6140 H   0  0  0  0  0  0  0  0  0  0  0  0
    2.4465    2.8991    6.4962 H   0  0  0  0  0  0  0  0  0  0  0  0
    2.5374    1.4699    7.5133 H   0  0  0  0  0  0  0  0  0  0  0  0
    0.9832    2.2094    7.1838 H   0  0  0  0  0  0  0  0  0  0  0  0
    3.9785   -0.0145    3.0736 H   0  0  0  0  0  0  0  0  0  0  0  0
    2.1788    0.8294    1.6788 H   0  0  0  0  0  0  0  0  0  0  0  0
    2.7004    2.9448    3.5197 H   0  0  0  0  0  0  0  0  0  0  0  0
    1.2870    3.0165    2.5014 H   0  0  0  0  0  0  0  0  0  0  0  0
   -0.4825    2.9111    4.0977 H   0  0  0  0  0  0  0  0  0  0  0  0
    0.2575   -0.1646    3.4462 H   0  0  0  0  0  0  0  0  0  0  0  0
   -0.4505    2.2363    1.6889 H   0  0  0  0  0  0  0  0  0  0  0  0
   -1.5472    1.2103    2.5903 H   0  0  0  0  0  0  0  0  0  0  0  0
   -0.5842    0.5533    1.2889 H   0  0  0  0  0  0  0  0  0  0  0  0
  1  2  1  0
  1 38  1  0
  1 39  1  0
  1 40  1  0
  2  8  1  0
  2  3  1  0
  2 41  1  6
  3  4  1  0
  3 42  1  0
  3 43  1  0
  4  5  1  0
  4 44  1  0
  4 45  1  0
  5  6  1  0
  5 46  1  0
  5 47  1  0
  6  7  1  0
  6  8  1  0
  6 48  1  6
  7 49  1  0
  7 50  1  0
  7 51  1  0
  8 37  1  0
  8  9  1  0
  9 10  1  0
 10 11  1  0
 11 17  1  0
 11 12  1  0
 11 36  1  0
 12 13  1  0
 12 52  1  0
 12 53  1  0
 13 14  1  0
 13 54  1  0
 13 55  1  0
 14 21  1  0
 14 15  1  1
 14 16  1  0
 15 56  1  0
 15 57  1  0
 15 58  1  0
 16 17  1  0
 16 18  1  0
 16 59  1  1
 17 60  1  0
 17 61  1  0
 18 19  1  0
 18 20  1  0
 18 62  1  1
 19 63  1  0
 20 29  1  0
 20 21  1  0
 20 64  1  6
 21 22  1  0
 21 65  1  6
 22 23  2  0
 22 24  1  0
 24 32  1  0
 24 25  1  1
 24 26  1  0
 25 66  1  0
 25 67  1  0
 25 68  1  0
 26 27  1  0
 26 28  1  0
 26 29  1  0
 29 30  1  0
 29 69  1  6
 30 34  1  0
 30 31  1  0
 30 70  1  6
 31 32  1  0
 31 71  1  0
 31 72  1  0
 32 33  1  1
 32 34  1  0
 33 73  1  0
 34 35  1  0
 34 74  1  1
 35 75  1  0
 35 76  1  0
 35 77  1  0
 36 37  1  0
M  END
>  <i_m_ct_stereo_status>  (139) 
1

>  <s_m_source_file>  (139) 
/var/tmp/pbs.5076255.sched01/tmpnk13i6y_/41i0yhob8r.sdf

>  <i_m_source_file_index>  (139) 
17

>  <i_lp_mmshare_version>  (139) 
48012

>  <i_f3d_flags>  (139) 
0

>  <s_epik_input>  (139) 
W0NIM11bQ0BASF0xW0NIMl1bQ0gyXVtDSDJdW0NAQEhdKFtDSDNdKVtDQF0xMk9PQzMoT08yKVtDSDJdW0NIMl1bQ0BAXTQoW0NIM10pW0NAQEhdKFtDSDJdMylbQ0BASF0oW09IXSlbQ0BIXTVbQ0BASF00Qyg9TylbQ0BdNihbQ0gzXSlbQ0BAXTcoW09IXSlbQ0gyXVtDQEBIXShbQ0BIXTVDNihGKUYpW0NAQEhdN1tDSDNd

>  <s_epik_cmdline>  (139) 
J2VwaWtfcHl0aG9uJywgJy1waHQnLCAnMi4wJywgJy1waCcsICc3LjAnLCAnLXRuJywgJzgnLCAnLW1hJywgJzIwMCcsICctaW1hZScsICc8aW5maWxlLm1hZT4nLCAnLW9tYWUnLCAnPG91dGZpbGUubWFlPic=

>  <r_lp_tautomer_probability>  (139) 
1

>  <r_epik_Ionization_Penalty>  (139) 
1.07308e-07

>  <r_epik_Ionization_Penalty_Charging>  (139) 
0

>  <r_epik_Ionization_Penalty_Neutral>  (139) 
1.07308e-07

>  <r_epik_State_Penalty>  (139) 
-0

>  <r_epik_Charging_Adjusted_Penalty>  (139) 
0

>  <i_epik_Tot_Q>  (139) 
0

>  <i_epik_Tot_abs_Q>  (139) 
0

>  <s_lp_Force_Field>  (139) 
OPLS3e

>  <r_lp_Energy>  (139) 
76.8631

>  <b_lp_Chiralities_Consistent>  (139) 
1

>  <s_lp_Variant>  (139) 
49:0-1

>  <s_i_glide_gridfile>  (139) 
pfpi4k_grid

>  <i_i_glide_lignum>  (139) 
17

>  <i_i_glide_rotatable_bonds>  (139) 
2

>  <r_i_docking_score>  (139) 
-1.77077

>  <r_i_glide_ligand_efficiency>  (139) 
-0.0478586

>  <r_i_glide_ligand_efficiency_sa>  (139) 
-0.159475

>  <r_i_glide_ligand_efficiency_ln>  (139) 
-0.384038

>  <r_i_glide_gscore>  (139) 
-1.77077

>  <r_i_glide_lipo>  (139) 
-0.0805612

>  <r_i_glide_hbond>  (139) 
-0.0291164

>  <r_i_glide_metal>  (139) 
-0

>  <r_i_glide_rewards>  (139) 
0

>  <r_i_glide_evdw>  (139) 
-20.9629

>  <r_i_glide_ecoul>  (139) 
-3.94015

>  <r_i_glide_erotb>  (139) 
0

>  <r_i_glide_esite>  (139) 
-0.0219245

>  <r_i_glide_emodel>  (139) 
-26.7327

>  <r_i_glide_energy>  (139) 
-24.903

>  <r_i_glide_einternal>  (139) 
0.354359

>  <r_i_glide_intrahb_reward>  (139) 
-0

>  <i_i_glide_confnum>  (139) 
4

>  <i_i_glide_posenum>  (139) 
18

>  <r_i_glide_eff_state_penalty>  (139) 
0

>  <ligand_id>  (139) 
49

>  <original_smiles>  (139) 
CC1CCCC(C)C12OOC1(CCC3(C)C(C1)C(O)C1C3C(=O)C3(C)C(F)(F)C1C1CC3(O)C1C)OO2

>  <smiles>  (139) 
[H]OC1([H])C2([H])C([H])(C(=O)C3(C([H])([H])[H])C(F)(F)C2([H])C2([H])C([H])([H])C3(O[H])C2([H])C([H])([H])[H])C2(C([H])([H])[H])C([H])([H])C([H])([H])C3(OOC4(OO3)C([H])(C([H])([H])[H])C([H])([H])C([H])([H])C([H])([H])C4([H])C([H])([H])[H])C([H])([H])C12[H]

$$$$
49:0:1
     RDKit          3D

 77 83  0  0  1  0  0  0  0  0999 V2000
    4.2581   -7.8569    0.8186 C   0  0  0  0  0  0  0  0  0  0  0  0
    4.5503   -7.3256    2.2498 C   0  0  2  0  0  0  0  0  0  0  0  0
    5.3455   -8.3948    3.0427 C   0  0  0  0  0  0  0  0  0  0  0  0
    4.4774   -9.6174    3.3526 C   0  0  0  0  0  0  0  0  0  0  0  0
    3.2076   -9.1943    4.0998 C   0  0  0  0  0  0  0  0  0  0  0  0
    2.3852   -8.0926    3.3733 C   0  0  1  0  0  0  0  0  0  0  0  0
    1.0599   -7.8902    4.1527 C   0  0  0  0  0  0  0  0  0  0  0  0
    3.2804   -6.8196    3.0134 C   0  0  0  0  0  0  0  0  0  0  0  0
    2.6122   -5.9087    2.1228 O   0  0  0  0  0  0  0  0  0  0  0  0
    1.3768   -5.3462    2.7951 O   0  0  0  0  0  0  0  0  0  0  0  0
    1.7856   -4.6546    3.9798 C   0  0  0  0  0  0  0  0  0  0  0  0
    0.5258   -4.1913    4.7217 C   0  0  0  0  0  0  0  0  0  0  0  0
    0.8129   -3.3629    5.9886 C   0  0  0  0  0  0  0  0  0  0  0  0
    1.8094   -2.1861    5.7888 C   0  0  1  0  0  0  0  0  0  0  0  0
    2.4253   -1.9391    7.1919 C   0  0  0  0  0  0  0  0  0  0  0  0
    2.9720   -2.5086    4.7980 C   0  0  1  0  0  0  0  0  0  0  0  0
    2.5507   -3.3781    3.5726 C   0  0  0  0  0  0  0  0  0  0  0  0
    3.4775   -1.1177    4.3605 C   0  0  1  0  0  0  0  0  0  0  0  0
    4.3108   -1.1588    3.2125 O   0  0  0  0  0  0  0  0  0  0  0  0
    2.1876   -0.2971    4.1402 C   0  0  1  0  0  0  0  0  0  0  0  0
    1.1368   -0.9179    5.1441 C   0  0  2  0  0  0  0  0  0  0  0  0
    0.4067    0.0830    6.0813 C   0  0  0  0  0  0  0  0  0  0  0  0
   -0.4403   -0.3447    6.9025 O   0  0  0  0  0  0  0  0  0  0  0  0
    0.7154    1.5999    5.9810 C   0  0  1  0  0  0  0  0  0  0  0  0
    0.4571    2.3069    7.3332 C   0  0  0  0  0  0  0  0  0  0  0  0
    2.2421    1.7019    5.6556 C   0  0  0  0  0  0  0  0  0  0  0  0
    2.7215    2.9387    5.8117 F   0  0  0  0  0  0  0  0  0  0  0  0
    2.9835    0.9716    6.4901 F   0  0  0  0  0  0  0  0  0  0  0  0
    2.3767    1.2482    4.1880 C   0  0  2  0  0  0  0  0  0  0  0  0
    1.3142    2.0047    3.3193 C   0  0  2  0  0  0  0  0  0  0  0  0
    0.6800    3.2803    3.9369 C   0  0  0  0  0  0  0  0  0  0  0  0
   -0.1104    2.2607    4.7918 C   0  0  2  0  0  0  0  0  0  0  0  0
   -1.3912    2.6695    5.2239 O   0  0  0  0  0  0  0  0  0  0  0  0
   -0.1453    1.4960    3.4298 C   0  0  1  0  0  0  0  0  0  0  0  0
   -1.1670    1.8228    2.3226 C   0  0  0  0  0  0  0  0  0  0  0  0
    2.5614   -5.4913    4.8697 O   0  0  0  0  0  0  0  0  0  0  0  0
    3.7576   -6.0845    4.1473 O   0  0  0  0  0  0  0  0  0  0  0  0
    3.5705   -8.7021    0.8181 H   0  0  0  0  0  0  0  0  0  0  0  0
    5.1699   -8.2098    0.3518 H   0  0  0  0  0  0  0  0  0  0  0  0
    3.8339   -7.0807    0.1808 H   0  0  0  0  0  0  0  0  0  0  0  0
    5.2022   -6.4639    2.1364 H   0  0  0  0  0  0  0  0  0  0  0  0
    6.2201   -8.6977    2.4737 H   0  0  0  0  0  0  0  0  0  0  0  0
    5.7265   -7.9662    3.9695 H   0  0  0  0  0  0  0  0  0  0  0  0
    4.2342  -10.1614    2.4373 H   0  0  0  0  0  0  0  0  0  0  0  0
    5.0491  -10.3264    3.9545 H   0  0  0  0  0  0  0  0  0  0  0  0
    2.5938  -10.0823    4.2422 H   0  0  0  0  0  0  0  0  0  0  0  0
    3.4890   -8.8324    5.0899 H   0  0  0  0  0  0  0  0  0  0  0  0
    2.0663   -8.5372    2.4208 H   0  0  0  0  0  0  0  0  0  0  0  0
    1.2596   -7.4166    5.1180 H   0  0  0  0  0  0  0  0  0  0  0  0
    0.5456   -8.8387    4.3458 H   0  0  0  0  0  0  0  0  0  0  0  0
    0.3637   -7.2590    3.5966 H   0  0  0  0  0  0  0  0  0  0  0  0
   -0.1266   -3.6041    4.0749 H   0  0  0  0  0  0  0  0  0  0  0  0
   -0.0515   -5.0672    4.9882 H   0  0  0  0  0  0  0  0  0  0  0  0
   -0.1338   -2.9970    6.3837 H   0  0  0  0  0  0  0  0  0  0  0  0
    1.1795   -4.0596    6.7403 H   0  0  0  0  0  0  0  0  0  0  0  0
    3.2225   -1.2042    7.1780 H   0  0  0  0  0  0  0  0  0  0  0  0
    2.8816   -2.8575    7.5648 H   0  0  0  0  0  0  0  0  0  0  0  0
    1.6825   -1.6328    7.9298 H   0  0  0  0  0  0  0  0  0  0  0  0
    3.7597   -3.0565    5.3165 H   0  0  0  0  0  0  0  0  0  0  0  0
    3.4517   -3.6364    3.0167 H   0  0  0  0  0  0  0  0  0  0  0  0
    1.9159   -2.7843    2.8968 H   0  0  0  0  0  0  0  0  0  0  0  0
    4.0674   -0.6968    5.1735 H   0  0  0  0  0  0  0  0  0  0  0  0
    3.7951   -1.4653    2.4804 H   0  0  0  0  0  0  0  0  0  0  0  0
    1.8396   -0.5396    3.1362 H   0  0  0  0  0  0  0  0  0  0  0  0
    0.3314   -1.3068    4.5228 H   0  0  0  0  0  0  0  0  0  0  0  0
    0.7269    3.3628    7.3037 H   0  0  0  0  0  0  0  0  0  0  0  0
    1.0450    1.8427    8.1275 H   0  0  0  0  0  0  0  0  0  0  0  0
   -0.5891    2.2503    7.6399 H   0  0  0  0  0  0  0  0  0  0  0  0
    3.3777    1.4890    3.8309 H   0  0  0  0  0  0  0  0  0  0  0  0
    1.6192    2.1332    2.2748 H   0  0  0  0  0  0  0  0  0  0  0  0
    1.3436    3.9682    4.4482 H   0  0  0  0  0  0  0  0  0  0  0  0
    0.1022    3.8791    3.2323 H   0  0  0  0  0  0  0  0  0  0  0  0
   -1.8502    2.9012    4.4325 H   0  0  0  0  0  0  0  0  0  0  0  0
   -0.2018    0.4243    3.5610 H   0  0  0  0  0  0  0  0  0  0  0  0
   -1.2664    2.8762    2.0709 H   0  0  0  0  0  0  0  0  0  0  0  0
   -2.1616    1.4908    2.6023 H   0  0  0  0  0  0  0  0  0  0  0  0
   -0.9143    1.3037    1.3986 H   0  0  0  0  0  0  0  0  0  0  0  0
  1  2  1  0
  1 38  1  0
  1 39  1  0
  1 40  1  0
  2  8  1  0
  2  3  1  0
  2 41  1  6
  3  4  1  0
  3 42  1  0
  3 43  1  0
  4  5  1  0
  4 44  1  0
  4 45  1  0
  5  6  1  0
  5 46  1  0
  5 47  1  0
  6  7  1  0
  6  8  1  0
  6 48  1  6
  7 49  1  0
  7 50  1  0
  7 51  1  0
  8 37  1  0
  8  9  1  0
  9 10  1  0
 10 11  1  0
 11 17  1  0
 11 12  1  0
 11 36  1  0
 12 13  1  0
 12 52  1  0
 12 53  1  0
 13 14  1  0
 13 54  1  0
 13 55  1  0
 14 21  1  0
 14 15  1  1
 14 16  1  0
 15 56  1  0
 15 57  1  0
 15 58  1  0
 16 17  1  0
 16 18  1  0
 16 59  1  1
 17 60  1  0
 17 61  1  0
 18 19  1  0
 18 20  1  0
 18 62  1  1
 19 63  1  0
 20 29  1  0
 20 21  1  0
 20 64  1  6
 21 22  1  0
 21 65  1  6
 22 23  2  0
 22 24  1  0
 24 32  1  0
 24 25  1  1
 24 26  1  0
 25 66  1  0
 25 67  1  0
 25 68  1  0
 26 27  1  0
 26 28  1  0
 26 29  1  0
 29 30  1  0
 29 69  1  6
 30 34  1  0
 30 31  1  0
 30 70  1  6
 31 32  1  0
 31 71  1  0
 31 72  1  0
 32 33  1  1
 32 34  1  0
 33 73  1  0
 34 35  1  0
 34 74  1  1
 35 75  1  0
 35 76  1  0
 35 77  1  0
 36 37  1  0
M  END
>  <i_m_ct_stereo_status>  (140) 
1

>  <s_m_source_file>  (140) 
/var/tmp/pbs.5076255.sched01/tmpnk13i6y_/41i0yhob8r.sdf

>  <i_m_source_file_index>  (140) 
17

>  <i_lp_mmshare_version>  (140) 
48012

>  <i_f3d_flags>  (140) 
0

>  <s_epik_input>  (140) 
W0NIM11bQ0BASF0xW0NIMl1bQ0gyXVtDSDJdW0NAQEhdKFtDSDNdKVtDQF0xMk9PQzMoT08yKVtDSDJdW0NIMl1bQ0BAXTQoW0NIM10pW0NAQEhdKFtDSDJdMylbQ0BASF0oW09IXSlbQ0BIXTVbQ0BASF00Qyg9TylbQ0BdNihbQ0gzXSlbQ0BAXTcoW09IXSlbQ0gyXVtDQEBIXShbQ0BIXTVDNihGKUYpW0NAQEhdN1tDSDNd

>  <s_epik_cmdline>  (140) 
J2VwaWtfcHl0aG9uJywgJy1waHQnLCAnMi4wJywgJy1waCcsICc3LjAnLCAnLXRuJywgJzgnLCAnLW1hJywgJzIwMCcsICctaW1hZScsICc8aW5maWxlLm1hZT4nLCAnLW9tYWUnLCAnPG91dGZpbGUubWFlPic=

>  <r_lp_tautomer_probability>  (140) 
1

>  <r_epik_Ionization_Penalty>  (140) 
1.07308e-07

>  <r_epik_Ionization_Penalty_Charging>  (140) 
0

>  <r_epik_Ionization_Penalty_Neutral>  (140) 
1.07308e-07

>  <r_epik_State_Penalty>  (140) 
-0

>  <r_epik_Charging_Adjusted_Penalty>  (140) 
0

>  <i_epik_Tot_Q>  (140) 
0

>  <i_epik_Tot_abs_Q>  (140) 
0

>  <s_lp_Force_Field>  (140) 
OPLS3e

>  <r_lp_Energy>  (140) 
76.8631

>  <b_lp_Chiralities_Consistent>  (140) 
1

>  <s_lp_Variant>  (140) 
49:0-1

>  <s_i_glide_gridfile>  (140) 
pfpi4k_grid

>  <i_i_glide_lignum>  (140) 
17

>  <i_i_glide_rotatable_bonds>  (140) 
2

>  <r_i_docking_score>  (140) 
-1.71977

>  <r_i_glide_ligand_efficiency>  (140) 
-0.0464803

>  <r_i_glide_ligand_efficiency_sa>  (140) 
-0.154883

>  <r_i_glide_ligand_efficiency_ln>  (140) 
-0.372978

>  <r_i_glide_gscore>  (140) 
-1.71977

>  <r_i_glide_lipo>  (140) 
-0.0565241

>  <r_i_glide_hbond>  (140) 
-0.0178242

>  <r_i_glide_metal>  (140) 
-0

>  <r_i_glide_rewards>  (140) 
0

>  <r_i_glide_evdw>  (140) 
-18.0211

>  <r_i_glide_ecoul>  (140) 
-4.87223

>  <r_i_glide_erotb>  (140) 
0

>  <r_i_glide_esite>  (140) 
-0.0135378

>  <r_i_glide_emodel>  (140) 
-25.0799

>  <r_i_glide_energy>  (140) 
-22.8933

>  <r_i_glide_einternal>  (140) 
0.0934692

>  <r_i_glide_intrahb_reward>  (140) 
-0

>  <i_i_glide_confnum>  (140) 
4

>  <i_i_glide_posenum>  (140) 
1

>  <r_i_glide_eff_state_penalty>  (140) 
0

>  <ligand_id>  (140) 
49

>  <original_smiles>  (140) 
CC1CCCC(C)C12OOC1(CCC3(C)C(C1)C(O)C1C3C(=O)C3(C)C(F)(F)C1C1CC3(O)C1C)OO2

>  <smiles>  (140) 
[H]OC1([H])C2([H])C([H])(C(=O)C3(C([H])([H])[H])C(F)(F)C2([H])C2([H])C([H])([H])C3(O[H])C2([H])C([H])([H])[H])C2(C([H])([H])[H])C([H])([H])C([H])([H])C3(OOC4(OO3)C([H])(C([H])([H])[H])C([H])([H])C([H])([H])C([H])([H])C4([H])C([H])([H])[H])C([H])([H])C12[H]

$$$$
49:0:2
     RDKit          3D

 77 83  0  0  1  0  0  0  0  0999 V2000
    2.2366   -9.5755    1.6572 C   0  0  0  0  0  0  0  0  0  0  0  0
    2.8485   -8.9653    2.9374 C   0  0  2  0  0  0  0  0  0  0  0  0
    3.4606  -10.0819    3.8057 C   0  0  0  0  0  0  0  0  0  0  0  0
    2.3776  -10.9958    4.3976 C   0  0  0  0  0  0  0  0  0  0  0  0
    1.3553  -10.1661    5.1897 C   0  0  0  0  0  0  0  0  0  0  0  0
    0.7329   -9.0138    4.3796 C   0  0  1  0  0  0  0  0  0  0  0  0
   -0.3555   -8.3280    5.2392 C   0  0  0  0  0  0  0  0  0  0  0  0
    1.8359   -8.0864    3.7297 C   0  0  0  0  0  0  0  0  0  0  0  0
    1.2877   -7.1154    2.8009 O   0  0  0  0  0  0  0  0  0  0  0  0
    0.3265   -6.2162    3.4940 O   0  0  0  0  0  0  0  0  0  0  0  0
    1.0603   -5.4627    4.5011 C   0  0  0  0  0  0  0  0  0  0  0  0
    0.0490   -4.6060    5.2768 C   0  0  0  0  0  0  0  0  0  0  0  0
    0.6968   -3.7244    6.3553 C   0  0  0  0  0  0  0  0  0  0  0  0
    1.9109   -2.8813    5.8780 C   0  0  1  0  0  0  0  0  0  0  0  0
    2.7601   -2.6190    7.1501 C   0  0  0  0  0  0  0  0  0  0  0  0
    2.8166   -3.6181    4.8448 C   0  0  1  0  0  0  0  0  0  0  0  0
    2.0503   -4.4881    3.8223 C   0  0  0  0  0  0  0  0  0  0  0  0
    3.5706   -2.4747    4.1509 C   0  0  1  0  0  0  0  0  0  0  0  0
    4.1709   -2.8839    2.9374 O   0  0  0  0  0  0  0  0  0  0  0  0
    2.5084   -1.3829    3.9234 C   0  0  1  0  0  0  0  0  0  0  0  0
    1.4878   -1.5769    5.1071 C   0  0  2  0  0  0  0  0  0  0  0  0
    1.1568   -0.3077    5.9511 C   0  0  0  0  0  0  0  0  0  0  0  0
    0.3635   -0.4023    6.9086 O   0  0  0  0  0  0  0  0  0  0  0  0
    1.7960    1.0606    5.5646 C   0  0  1  0  0  0  0  0  0  0  0  0
    1.9015    1.9720    6.8151 C   0  0  0  0  0  0  0  0  0  0  0  0
    3.2423    0.7223    5.0824 C   0  0  0  0  0  0  0  0  0  0  0  0
    4.0147    1.8033    4.9838 F   0  0  0  0  0  0  0  0  0  0  0  0
    3.8923   -0.0595    5.9378 F   0  0  0  0  0  0  0  0  0  0  0  0
    3.0625    0.0618    3.6986 C   0  0  2  0  0  0  0  0  0  0  0  0
    2.0980    0.9462    2.8316 C   0  0  2  0  0  0  0  0  0  0  0  0
    1.8814    2.4090    3.2895 C   0  0  0  0  0  0  0  0  0  0  0  0
    0.9950    1.7478    4.3767 C   0  0  2  0  0  0  0  0  0  0  0  0
   -0.0726    2.5286    4.8636 O   0  0  0  0  0  0  0  0  0  0  0  0
    0.5958    0.8491    3.1726 C   0  0  1  0  0  0  0  0  0  0  0  0
   -0.4699    1.2749    2.1380 C   0  0  0  0  0  0  0  0  0  0  0  0
    1.6806   -6.3843    5.4477 O   0  0  0  0  0  0  0  0  0  0  0  0
    2.6139   -7.3259    4.6928 O   0  0  0  0  0  0  0  0  0  0  0  0
    1.3793  -10.2178    1.8608 H   0  0  0  0  0  0  0  0  0  0  0  0
    2.9657  -10.2023    1.1440 H   0  0  0  0  0  0  0  0  0  0  0  0
    1.8963   -8.8154    0.9536 H   0  0  0  0  0  0  0  0  0  0  0  0
    3.6628   -8.3192    2.6212 H   0  0  0  0  0  0  0  0  0  0  0  0
    4.1486  -10.6793    3.2110 H   0  0  0  0  0  0  0  0  0  0  0  0
    4.0577   -9.6602    4.6120 H   0  0  0  0  0  0  0  0  0  0  0  0
    1.8873  -11.5734    3.6105 H   0  0  0  0  0  0  0  0  0  0  0  0
    2.8342  -11.7496    5.0486 H   0  0  0  0  0  0  0  0  0  0  0  0
    0.5776  -10.8408    5.5350 H   0  0  0  0  0  0  0  0  0  0  0  0
    1.8468   -9.7714    6.0757 H   0  0  0  0  0  0  0  0  0  0  0  0
    0.1908   -9.4621    3.5555 H   0  0  0  0  0  0  0  0  0  0  0  0
    0.1189   -7.7834    6.0691 H   0  0  0  0  0  0  0  0  0  0  0  0
   -1.0658   -9.0707    5.6506 H   0  0  0  0  0  0  0  0  0  0  0  0
   -0.9360   -7.6123    4.6340 H   0  0  0  0  0  0  0  0  0  0  0  0
   -0.5150   -3.9707    4.5965 H   0  0  0  0  0  0  0  0  0  0  0  0
   -0.6862   -5.2570    5.7451 H   0  0  0  0  0  0  0  0  0  0  0  0
   -0.0613   -3.0761    6.7889 H   0  0  0  0  0  0  0  0  0  0  0  0
    0.9940   -4.3872    7.1699 H   0  0  0  0  0  0  0  0  0  0  0  0
    3.7014   -2.1189    6.9437 H   0  0  0  0  0  0  0  0  0  0  0  0
    3.0334   -3.5636    7.6202 H   0  0  0  0  0  0  0  0  0  0  0  0
    2.2250   -2.0391    7.9046 H   0  0  0  0  0  0  0  0  0  0  0  0
    3.5136   -4.2774    5.3618 H   0  0  0  0  0  0  0  0  0  0  0  0
    2.7494   -5.0585    3.2248 H   0  0  0  0  0  0  0  0  0  0  0  0
    1.4735   -3.8675    3.1324 H   0  0  0  0  0  0  0  0  0  0  0  0
    4.3655   -2.1092    4.8051 H   0  0  0  0  0  0  0  0  0  0  0  0
    4.8170   -3.5419    3.1370 H   0  0  0  0  0  0  0  0  0  0  0  0
    1.9809   -1.6556    3.0057 H   0  0  0  0  0  0  0  0  0  0  0  0
    0.5330   -1.8193    4.6390 H   0  0  0  0  0  0  0  0  0  0  0  0
    2.4094    2.9101    6.5895 H   0  0  0  0  0  0  0  0  0  0  0  0
    2.4637    1.4790    7.6058 H   0  0  0  0  0  0  0  0  0  0  0  0
    0.9234    2.2252    7.2309 H   0  0  0  0  0  0  0  0  0  0  0  0
    4.0341   -0.0097    3.2062 H   0  0  0  0  0  0  0  0  0  0  0  0
    2.2794    0.8514    1.7626 H   0  0  0  0  0  0  0  0  0  0  0  0
    2.7536    2.9610    3.6222 H   0  0  0  0  0  0  0  0  0  0  0  0
    1.3718    3.0408    2.5634 H   0  0  0  0  0  0  0  0  0  0  0  0
   -0.4473    2.9393    4.1036 H   0  0  0  0  0  0  0  0  0  0  0  0
    0.3022   -0.1380    3.4696 H   0  0  0  0  0  0  0  0  0  0  0  0
   -0.3430    2.2651    1.6950 H   0  0  0  0  0  0  0  0  0  0  0  0
   -1.4735    1.2469    2.5669 H   0  0  0  0  0  0  0  0  0  0  0  0
   -0.4739    0.5697    1.3130 H   0  0  0  0  0  0  0  0  0  0  0  0
  1  2  1  0
  1 38  1  0
  1 39  1  0
  1 40  1  0
  2  8  1  0
  2  3  1  0
  2 41  1  6
  3  4  1  0
  3 42  1  0
  3 43  1  0
  4  5  1  0
  4 44  1  0
  4 45  1  0
  5  6  1  0
  5 46  1  0
  5 47  1  0
  6  7  1  0
  6  8  1  0
  6 48  1  6
  7 49  1  0
  7 50  1  0
  7 51  1  0
  8 37  1  0
  8  9  1  0
  9 10  1  0
 10 11  1  0
 11 17  1  0
 11 12  1  0
 11 36  1  0
 12 13  1  0
 12 52  1  0
 12 53  1  0
 13 14  1  0
 13 54  1  0
 13 55  1  0
 14 21  1  0
 14 15  1  1
 14 16  1  0
 15 56  1  0
 15 57  1  0
 15 58  1  0
 16 17  1  0
 16 18  1  0
 16 59  1  1
 17 60  1  0
 17 61  1  0
 18 19  1  0
 18 20  1  0
 18 62  1  1
 19 63  1  0
 20 29  1  0
 20 21  1  0
 20 64  1  6
 21 22  1  0
 21 65  1  6
 22 23  2  0
 22 24  1  0
 24 32  1  0
 24 25  1  1
 24 26  1  0
 25 66  1  0
 25 67  1  0
 25 68  1  0
 26 27  1  0
 26 28  1  0
 26 29  1  0
 29 30  1  0
 29 69  1  6
 30 34  1  0
 30 31  1  0
 30 70  1  6
 31 32  1  0
 31 71  1  0
 31 72  1  0
 32 33  1  1
 32 34  1  0
 33 73  1  0
 34 35  1  0
 34 74  1  1
 35 75  1  0
 35 76  1  0
 35 77  1  0
 36 37  1  0
M  END
>  <i_m_ct_stereo_status>  (141) 
1

>  <s_m_source_file>  (141) 
/var/tmp/pbs.5076255.sched01/tmpnk13i6y_/41i0yhob8r.sdf

>  <i_m_source_file_index>  (141) 
17

>  <i_lp_mmshare_version>  (141) 
48012

>  <i_f3d_flags>  (141) 
0

>  <s_epik_input>  (141) 
W0NIM11bQ0BASF0xW0NIMl1bQ0gyXVtDSDJdW0NAQEhdKFtDSDNdKVtDQF0xMk9PQzMoT08yKVtDSDJdW0NIMl1bQ0BAXTQoW0NIM10pW0NAQEhdKFtDSDJdMylbQ0BASF0oW09IXSlbQ0BIXTVbQ0BASF00Qyg9TylbQ0BdNihbQ0gzXSlbQ0BAXTcoW09IXSlbQ0gyXVtDQEBIXShbQ0BIXTVDNihGKUYpW0NAQEhdN1tDSDNd

>  <s_epik_cmdline>  (141) 
J2VwaWtfcHl0aG9uJywgJy1waHQnLCAnMi4wJywgJy1waCcsICc3LjAnLCAnLXRuJywgJzgnLCAnLW1hJywgJzIwMCcsICctaW1hZScsICc8aW5maWxlLm1hZT4nLCAnLW9tYWUnLCAnPG91dGZpbGUubWFlPic=

>  <r_lp_tautomer_probability>  (141) 
1

>  <r_epik_Ionization_Penalty>  (141) 
1.07308e-07

>  <r_epik_Ionization_Penalty_Charging>  (141) 
0

>  <r_epik_Ionization_Penalty_Neutral>  (141) 
1.07308e-07

>  <r_epik_State_Penalty>  (141) 
-0

>  <r_epik_Charging_Adjusted_Penalty>  (141) 
0

>  <i_epik_Tot_Q>  (141) 
0

>  <i_epik_Tot_abs_Q>  (141) 
0

>  <s_lp_Force_Field>  (141) 
OPLS3e

>  <r_lp_Energy>  (141) 
76.8631

>  <b_lp_Chiralities_Consistent>  (141) 
1

>  <s_lp_Variant>  (141) 
49:0-1

>  <s_i_glide_gridfile>  (141) 
pfpi4k_grid

>  <i_i_glide_lignum>  (141) 
17

>  <i_i_glide_rotatable_bonds>  (141) 
2

>  <r_i_docking_score>  (141) 
-1.70472

>  <r_i_glide_ligand_efficiency>  (141) 
-0.0460734

>  <r_i_glide_ligand_efficiency_sa>  (141) 
-0.153527

>  <r_i_glide_ligand_efficiency_ln>  (141) 
-0.369713

>  <r_i_glide_gscore>  (141) 
-1.70472

>  <r_i_glide_lipo>  (141) 
-0.0649525

>  <r_i_glide_hbond>  (141) 
-0.0267734

>  <r_i_glide_metal>  (141) 
-0

>  <r_i_glide_rewards>  (141) 
0

>  <r_i_glide_evdw>  (141) 
-20.8172

>  <r_i_glide_ecoul>  (141) 
-3.68411

>  <r_i_glide_erotb>  (141) 
0

>  <r_i_glide_esite>  (141) 
-0.0195139

>  <r_i_glide_emodel>  (141) 
-26.2673

>  <r_i_glide_energy>  (141) 
-24.5013

>  <r_i_glide_einternal>  (141) 
0.334976

>  <r_i_glide_intrahb_reward>  (141) 
-0

>  <i_i_glide_confnum>  (141) 
4

>  <i_i_glide_posenum>  (141) 
16

>  <r_i_glide_eff_state_penalty>  (141) 
0

>  <ligand_id>  (141) 
49

>  <original_smiles>  (141) 
CC1CCCC(C)C12OOC1(CCC3(C)C(C1)C(O)C1C3C(=O)C3(C)C(F)(F)C1C1CC3(O)C1C)OO2

>  <smiles>  (141) 
[H]OC1([H])C2([H])C([H])(C(=O)C3(C([H])([H])[H])C(F)(F)C2([H])C2([H])C([H])([H])C3(O[H])C2([H])C([H])([H])[H])C2(C([H])([H])[H])C([H])([H])C([H])([H])C3(OOC4(OO3)C([H])(C([H])([H])[H])C([H])([H])C([H])([H])C([H])([H])C4([H])C([H])([H])[H])C([H])([H])C12[H]

$$$$
50:0:0
     RDKit          3D

 48 53  0  0  1  0  0  0  0  0999 V2000
    2.1769   -5.3099    3.9516 C   0  0  0  0  0  0  0  0  0  0  0  0
    2.3020   -4.2482    2.8701 C   0  0  2  0  0  0  0  0  0  0  0  0
    2.4805   -4.6401    1.3920 C   0  0  2  0  0  0  0  0  0  0  0  0
    2.5368   -6.0586    1.0043 N   0  0  0  0  0  0  0  0  0  0  0  0
    1.3659   -6.9014    1.0979 C   0  0  0  0  0  0  0  0  0  0  0  0
    3.8830   -6.4795    1.0969 C   0  0  0  0  0  0  0  0  0  0  0  0
    4.3889   -7.7870    0.9817 C   0  0  0  0  0  0  0  0  0  0  0  0
    5.7494   -7.9952    1.2766 C   0  0  0  0  0  0  0  0  0  0  0  0
    6.5857   -6.9314    1.6913 C   0  0  0  0  0  0  0  0  0  0  0  0
    6.0691   -5.6228    1.7537 C   0  0  0  0  0  0  0  0  0  0  0  0
    4.7130   -5.4055    1.3979 C   0  0  0  0  0  0  0  0  0  0  0  0
    3.9121   -4.1185    1.4707 C   0  0  2  0  0  0  0  0  0  0  0  0
    3.6442   -3.6511    2.8317 N   0  0  0  0  0  0  0  0  0  0  0  0
    3.4712   -2.1810    2.7066 O   0  0  0  0  0  0  0  0  0  0  0  0
    3.4702   -1.8335    1.3210 C   0  0  1  0  0  0  0  0  0  0  0  0
    3.9299   -0.3754    1.0927 C   0  0  0  0  0  0  0  0  0  0  0  0
    2.8465    0.5106    1.2873 O   0  0  0  0  0  0  0  0  0  0  0  0
    4.2992   -2.9197    0.6227 C   0  0  1  0  0  0  0  0  0  0  0  0
    5.8320   -2.6565    0.5783 C   0  0  0  0  0  0  0  0  0  0  0  0
    6.5104   -2.3251    1.5544 O   0  0  0  0  0  0  0  0  0  0  0  0
    6.3181   -2.8576   -0.6594 N   0  0  0  0  0  0  0  0  0  0  0  0
    5.2706   -3.0858   -1.5602 C   0  0  0  0  0  0  0  0  0  0  0  0
    5.3501   -3.2697   -2.9465 C   0  0  0  0  0  0  0  0  0  0  0  0
    4.1357   -3.4029   -3.6495 C   0  0  0  0  0  0  0  0  0  0  0  0
    2.8915   -3.3234   -2.9829 C   0  0  0  0  0  0  0  0  0  0  0  0
    2.8340   -3.1592   -1.5869 C   0  0  0  0  0  0  0  0  0  0  0  0
    4.0544   -3.0675   -0.8807 C   0  0  0  0  0  0  0  0  0  0  0  0
    1.1832   -5.7659    3.9089 H   0  0  0  0  0  0  0  0  0  0  0  0
    2.3084   -4.9085    4.9534 H   0  0  0  0  0  0  0  0  0  0  0  0
    2.9022   -6.1144    3.8105 H   0  0  0  0  0  0  0  0  0  0  0  0
    1.5974   -3.4407    2.9570 H   0  0  0  0  0  0  0  0  0  0  0  0
    1.8644   -3.9969    0.7743 H   0  0  0  0  0  0  0  0  0  0  0  0
    1.4122   -7.7884    0.4697 H   0  0  0  0  0  0  0  0  0  0  0  0
    0.4906   -6.3351    0.7427 H   0  0  0  0  0  0  0  0  0  0  0  0
    1.1716   -7.2015    2.1239 H   0  0  0  0  0  0  0  0  0  0  0  0
    3.7360   -8.6024    0.7173 H   0  0  0  0  0  0  0  0  0  0  0  0
    6.1570   -8.9828    1.1904 H   0  0  0  0  0  0  0  0  0  0  0  0
    7.6124   -7.1287    1.9585 H   0  0  0  0  0  0  0  0  0  0  0  0
    6.6804   -4.8349    2.1531 H   0  0  0  0  0  0  0  0  0  0  0  0
    2.4355   -1.9102    0.9941 H   0  0  0  0  0  0  0  0  0  0  0  0
    4.7832   -0.0820    1.7020 H   0  0  0  0  0  0  0  0  0  0  0  0
    4.2382   -0.2395    0.0603 H   0  0  0  0  0  0  0  0  0  0  0  0
    2.1264    0.2341    0.7339 H   0  0  0  0  0  0  0  0  0  0  0  0
    7.2864   -2.8300   -0.9314 H   0  0  0  0  0  0  0  0  0  0  0  0
    6.2992   -3.3109   -3.4409 H   0  0  0  0  0  0  0  0  0  0  0  0
    4.1518   -3.5843   -4.7091 H   0  0  0  0  0  0  0  0  0  0  0  0
    1.9779   -3.4383   -3.5349 H   0  0  0  0  0  0  0  0  0  0  0  0
    1.8821   -3.1199   -1.0925 H   0  0  0  0  0  0  0  0  0  0  0  0
  1  2  1  0
  1 28  1  0
  1 29  1  0
  1 30  1  0
  2 13  1  0
  2  3  1  0
  2 31  1  6
  3 12  1  0
  3  4  1  0
  3 32  1  6
  4  5  1  0
  4  6  1  0
  5 33  1  0
  5 34  1  0
  5 35  1  0
  6 11  2  0
  6  7  1  0
  7  8  2  0
  7 36  1  0
  8  9  1  0
  8 37  1  0
  9 10  2  0
  9 38  1  0
 10 11  1  0
 10 39  1  0
 12 11  1  1
 12 18  1  0
 12 13  1  0
 13 14  1  0
 14 15  1  0
 15 16  1  0
 15 18  1  0
 15 40  1  6
 16 17  1  0
 16 41  1  0
 16 42  1  0
 17 43  1  0
 18 27  1  0
 18 19  1  6
 19 20  2  0
 19 21  1  0
 21 22  1  0
 21 44  1  0
 22 27  2  0
 22 23  1  0
 23 24  2  0
 23 45  1  0
 24 25  1  0
 24 46  1  0
 25 26  2  0
 25 47  1  0
 26 27  1  0
 26 48  1  0
M  END
>  <i_m_ct_stereo_status>  (142) 
1

>  <s_m_source_file>  (142) 
/var/tmp/pbs.5076255.sched01/tmpnk13i6y_/41i0yhob8r.sdf

>  <i_m_source_file_index>  (142) 
18

>  <i_lp_mmshare_version>  (142) 
48012

>  <i_f3d_flags>  (142) 
0

>  <s_epik_input>  (142) 
W2NIXTFbY0hdW2NIXVtjSF1jMmMxTihbQ0gzXSlbQ0BIXTNbQ0BASF0oW0NIM10pTjRPW0NAQEhdKFtDSDJdW09IXSlbQ0BAXTUoW0NAXTIzNCljNmMoW05IXUM1PU8pW2NIXVtjSF1bY0hdW2NIXTY=

>  <s_epik_cmdline>  (142) 
J2VwaWtfcHl0aG9uJywgJy1waHQnLCAnMi4wJywgJy1waCcsICc3LjAnLCAnLXRuJywgJzgnLCAnLW1hJywgJzIwMCcsICctaW1hZScsICc8aW5maWxlLm1hZT4nLCAnLW9tYWUnLCAnPG91dGZpbGUubWFlPic=

>  <r_epik_Ionization_Penalty>  (142) 
0.0364566

>  <r_epik_Ionization_Penalty_Charging>  (142) 
0

>  <r_epik_Ionization_Penalty_Neutral>  (142) 
0.0364566

>  <r_epik_State_Penalty>  (142) 
0.0302634

>  <r_epik_Charging_Adjusted_Penalty>  (142) 
0.0302634

>  <i_epik_Tot_Q>  (142) 
0

>  <i_epik_Tot_abs_Q>  (142) 
0

>  <s_epik_Chemistry_Notes>  (142) 
This compound has a N-S or N-O group and may undergo hydrolysis at high or low pH.

>  <s_lp_Force_Field>  (142) 
OPLS3e

>  <r_lp_Energy>  (142) 
44.7307

>  <b_lp_Chiralities_Consistent>  (142) 
1

>  <s_lp_Variant>  (142) 
50:0-1

>  <s_i_glide_gridfile>  (142) 
pfpi4k_grid

>  <i_i_glide_lignum>  (142) 
18

>  <i_i_glide_rotatable_bonds>  (142) 
2

>  <r_i_docking_score>  (142) 
-3.41868

>  <r_i_glide_ligand_efficiency>  (142) 
-0.126618

>  <r_i_glide_ligand_efficiency_sa>  (142) 
-0.379853

>  <r_i_glide_ligand_efficiency_ln>  (142) 
-0.795812

>  <r_i_glide_gscore>  (142) 
-3.41868

>  <r_i_glide_lipo>  (142) 
-1.04975

>  <r_i_glide_hbond>  (142) 
0

>  <r_i_glide_metal>  (142) 
-0

>  <r_i_glide_rewards>  (142) 
-1.0153

>  <r_i_glide_evdw>  (142) 
-27.1591

>  <r_i_glide_ecoul>  (142) 
-0.806421

>  <r_i_glide_erotb>  (142) 
0.14548

>  <r_i_glide_esite>  (142) 
-0.0201914

>  <r_i_glide_emodel>  (142) 
-32.4797

>  <r_i_glide_energy>  (142) 
-27.9656

>  <r_i_glide_einternal>  (142) 
0.339766

>  <r_i_glide_intrahb_reward>  (142) 
-0

>  <i_i_glide_confnum>  (142) 
2

>  <i_i_glide_posenum>  (142) 
31

>  <r_i_glide_eff_state_penalty>  (142) 
0

>  <ligand_id>  (142) 
50

>  <original_smiles>  (142) 
CC1C2N(C)c3ccccc3C23N1OC(CO)C31C(=O)Nc2ccccc21

>  <smiles>  (142) 
[H]OC([H])([H])C1([H])ON2C([H])(C([H])([H])[H])C3([H])N(C([H])([H])[H])c4c([H])c([H])c([H])c([H])c4C23C12C(=O)N([H])c1c([H])c([H])c([H])c([H])c12

$$$$
50:0:1
     RDKit          3D

 48 53  0  0  1  0  0  0  0  0999 V2000
    6.3833   -0.4715    0.5031 C   0  0  0  0  0  0  0  0  0  0  0  0
    6.2285   -1.6414    1.4535 C   0  0  2  0  0  0  0  0  0  0  0  0
    6.5727   -3.0671    0.9967 C   0  0  2  0  0  0  0  0  0  0  0  0
    7.0534   -3.2842   -0.3812 N   0  0  0  0  0  0  0  0  0  0  0  0
    8.3792   -2.9160   -0.7984 C   0  0  0  0  0  0  0  0  0  0  0  0
    5.9126   -3.3790   -1.2021 C   0  0  0  0  0  0  0  0  0  0  0  0
    5.8764   -3.4178   -2.6029 C   0  0  0  0  0  0  0  0  0  0  0  0
    4.6274   -3.4713   -3.2387 C   0  0  0  0  0  0  0  0  0  0  0  0
    3.4253   -3.3961   -2.4877 C   0  0  0  0  0  0  0  0  0  0  0  0
    3.4841   -3.3972   -1.0831 C   0  0  0  0  0  0  0  0  0  0  0  0
    4.7529   -3.4330   -0.4518 C   0  0  0  0  0  0  0  0  0  0  0  0
    5.0829   -3.3746    1.0251 C   0  0  2  0  0  0  0  0  0  0  0  0
    4.8292   -2.0551    1.6004 N   0  0  0  0  0  0  0  0  0  0  0  0
    4.5889   -2.2921    3.0480 O   0  0  0  0  0  0  0  0  0  0  0  0
    4.8168   -3.6643    3.3348 C   0  0  1  0  0  0  0  0  0  0  0  0
    3.9735   -4.1191    4.5427 C   0  0  0  0  0  0  0  0  0  0  0  0
    4.5693   -3.6954    5.7440 O   0  0  0  0  0  0  0  0  0  0  0  0
    4.5841   -4.4143    2.0093 C   0  0  1  0  0  0  0  0  0  0  0  0
    3.1186   -4.8220    1.7628 C   0  0  0  0  0  0  0  0  0  0  0  0
    2.1696   -4.0473    1.9179 O   0  0  0  0  0  0  0  0  0  0  0  0
    3.0210   -6.1062    1.3725 N   0  0  0  0  0  0  0  0  0  0  0  0
    4.2689   -6.7273    1.4649 C   0  0  0  0  0  0  0  0  0  0  0  0
    4.5909   -8.0775    1.2350 C   0  0  0  0  0  0  0  0  0  0  0  0
    5.9219   -8.4685    1.4816 C   0  0  0  0  0  0  0  0  0  0  0  0
    6.8866   -7.5436    1.9453 C   0  0  0  0  0  0  0  0  0  0  0  0
    6.5408   -6.1960    2.1684 C   0  0  0  0  0  0  0  0  0  0  0  0
    5.2171   -5.8014    1.8941 C   0  0  0  0  0  0  0  0  0  0  0  0
    7.4531   -0.2620    0.4284 H   0  0  0  0  0  0  0  0  0  0  0  0
    5.8784    0.4185    0.8684 H   0  0  0  0  0  0  0  0  0  0  0  0
    6.0080   -0.6998   -0.4874 H   0  0  0  0  0  0  0  0  0  0  0  0
    6.5632   -1.4630    2.4573 H   0  0  0  0  0  0  0  0  0  0  0  0
    7.0962   -3.5801    1.7951 H   0  0  0  0  0  0  0  0  0  0  0  0
    8.7094   -3.4667   -1.6626 H   0  0  0  0  0  0  0  0  0  0  0  0
    9.0937   -3.1075    0.0235 H   0  0  0  0  0  0  0  0  0  0  0  0
    8.4559   -1.8539   -1.0119 H   0  0  0  0  0  0  0  0  0  0  0  0
    6.8244   -3.4852   -3.1107 H   0  0  0  0  0  0  0  0  0  0  0  0
    4.6015   -3.6321   -4.3005 H   0  0  0  0  0  0  0  0  0  0  0  0
    2.4885   -3.3958   -3.0173 H   0  0  0  0  0  0  0  0  0  0  0  0
    2.5776   -3.2626   -0.5362 H   0  0  0  0  0  0  0  0  0  0  0  0
    5.8616   -3.7594    3.6060 H   0  0  0  0  0  0  0  0  0  0  0  0
    2.9294   -3.8380    4.4867 H   0  0  0  0  0  0  0  0  0  0  0  0
    3.9945   -5.1969    4.5762 H   0  0  0  0  0  0  0  0  0  0  0  0
    4.0753   -4.0454    6.4678 H   0  0  0  0  0  0  0  0  0  0  0  0
    2.1870   -6.6045    1.1177 H   0  0  0  0  0  0  0  0  0  0  0  0
    3.8470   -8.7746    0.9011 H   0  0  0  0  0  0  0  0  0  0  0  0
    6.2105   -9.4894    1.3228 H   0  0  0  0  0  0  0  0  0  0  0  0
    7.8946   -7.8514    2.1419 H   0  0  0  0  0  0  0  0  0  0  0  0
    7.2599   -5.4933    2.5410 H   0  0  0  0  0  0  0  0  0  0  0  0
  1  2  1  0
  1 28  1  0
  1 29  1  0
  1 30  1  0
  2 13  1  0
  2  3  1  0
  2 31  1  1
  3 12  1  0
  3  4  1  0
  3 32  1  1
  4  5  1  0
  4  6  1  0
  5 33  1  0
  5 34  1  0
  5 35  1  0
  6 11  2  0
  6  7  1  0
  7  8  2  0
  7 36  1  0
  8  9  1  0
  8 37  1  0
  9 10  2  0
  9 38  1  0
 10 11  1  0
 10 39  1  0
 12 11  1  6
 12 18  1  0
 12 13  1  0
 13 14  1  0
 14 15  1  0
 15 16  1  0
 15 18  1  0
 15 40  1  1
 16 17  1  0
 16 41  1  0
 16 42  1  0
 17 43  1  0
 18 27  1  0
 18 19  1  6
 19 20  2  0
 19 21  1  0
 21 22  1  0
 21 44  1  0
 22 27  2  0
 22 23  1  0
 23 24  2  0
 23 45  1  0
 24 25  1  0
 24 46  1  0
 25 26  2  0
 25 47  1  0
 26 27  1  0
 26 48  1  0
M  END
>  <i_m_ct_stereo_status>  (143) 
1

>  <s_m_source_file>  (143) 
/var/tmp/pbs.5076255.sched01/tmpnk13i6y_/41i0yhob8r.sdf

>  <i_m_source_file_index>  (143) 
18

>  <i_lp_mmshare_version>  (143) 
48012

>  <i_f3d_flags>  (143) 
0

>  <s_epik_input>  (143) 
W2NIXTFbY0hdW2NIXVtjSF1jMmMxTihbQ0gzXSlbQ0BIXTNbQ0BASF0oW0NIM10pTjRPW0NAQEhdKFtDSDJdW09IXSlbQ0BAXTUoW0NAXTIzNCljNmMoW05IXUM1PU8pW2NIXVtjSF1bY0hdW2NIXTY=

>  <s_epik_cmdline>  (143) 
J2VwaWtfcHl0aG9uJywgJy1waHQnLCAnMi4wJywgJy1waCcsICc3LjAnLCAnLXRuJywgJzgnLCAnLW1hJywgJzIwMCcsICctaW1hZScsICc8aW5maWxlLm1hZT4nLCAnLW9tYWUnLCAnPG91dGZpbGUubWFlPic=

>  <r_epik_Ionization_Penalty>  (143) 
0.0364566

>  <r_epik_Ionization_Penalty_Charging>  (143) 
0

>  <r_epik_Ionization_Penalty_Neutral>  (143) 
0.0364566

>  <r_epik_State_Penalty>  (143) 
0.0302634

>  <r_epik_Charging_Adjusted_Penalty>  (143) 
0.0302634

>  <i_epik_Tot_Q>  (143) 
0

>  <i_epik_Tot_abs_Q>  (143) 
0

>  <s_epik_Chemistry_Notes>  (143) 
This compound has a N-S or N-O group and may undergo hydrolysis at high or low pH.

>  <s_lp_Force_Field>  (143) 
OPLS3e

>  <r_lp_Energy>  (143) 
44.7307

>  <b_lp_Chiralities_Consistent>  (143) 
1

>  <s_lp_Variant>  (143) 
50:0-1

>  <s_i_glide_gridfile>  (143) 
pfpi4k_grid

>  <i_i_glide_lignum>  (143) 
18

>  <i_i_glide_rotatable_bonds>  (143) 
2

>  <r_i_docking_score>  (143) 
-3.35868

>  <r_i_glide_ligand_efficiency>  (143) 
-0.124396

>  <r_i_glide_ligand_efficiency_sa>  (143) 
-0.373187

>  <r_i_glide_ligand_efficiency_ln>  (143) 
-0.781846

>  <r_i_glide_gscore>  (143) 
-3.35868

>  <r_i_glide_lipo>  (143) 
-1.33008

>  <r_i_glide_hbond>  (143) 
0

>  <r_i_glide_metal>  (143) 
-0

>  <r_i_glide_rewards>  (143) 
-1.18185

>  <r_i_glide_evdw>  (143) 
-24.3946

>  <r_i_glide_ecoul>  (143) 
1.51662

>  <r_i_glide_erotb>  (143) 
0.14548

>  <r_i_glide_esite>  (143) 
0

>  <r_i_glide_emodel>  (143) 
-27.1284

>  <r_i_glide_energy>  (143) 
-22.8779

>  <r_i_glide_einternal>  (143) 
0.526356

>  <r_i_glide_intrahb_reward>  (143) 
-0

>  <i_i_glide_confnum>  (143) 
3

>  <i_i_glide_posenum>  (143) 
20

>  <r_i_glide_eff_state_penalty>  (143) 
0

>  <ligand_id>  (143) 
50

>  <original_smiles>  (143) 
CC1C2N(C)c3ccccc3C23N1OC(CO)C31C(=O)Nc2ccccc21

>  <smiles>  (143) 
[H]OC([H])([H])C1([H])ON2C([H])(C([H])([H])[H])C3([H])N(C([H])([H])[H])c4c([H])c([H])c([H])c([H])c4C23C12C(=O)N([H])c1c([H])c([H])c([H])c([H])c12

$$$$
50:0:2
     RDKit          3D

 48 53  0  0  1  0  0  0  0  0999 V2000
    2.2751   -5.6725    4.1674 C   0  0  0  0  0  0  0  0  0  0  0  0
    2.4271   -4.5517    3.1460 C   0  0  2  0  0  0  0  0  0  0  0  0
    2.4653   -4.8514    1.6348 C   0  0  2  0  0  0  0  0  0  0  0  0
    2.3500   -6.2369    1.1471 N   0  0  0  0  0  0  0  0  0  0  0  0
    1.1276   -6.9884    1.2578 C   0  0  0  0  0  0  0  0  0  0  0  0
    3.6580   -6.7918    1.1310 C   0  0  0  0  0  0  0  0  0  0  0  0
    4.0269   -8.1308    0.9093 C   0  0  0  0  0  0  0  0  0  0  0  0
    5.3779   -8.4893    1.0846 C   0  0  0  0  0  0  0  0  0  0  0  0
    6.3328   -7.5329    1.4984 C   0  0  0  0  0  0  0  0  0  0  0  0
    5.9519   -6.1922    1.6716 C   0  0  0  0  0  0  0  0  0  0  0  0
    4.6036   -5.8300    1.4413 C   0  0  0  0  0  0  0  0  0  0  0  0
    3.9409   -4.4790    1.6405 C   0  0  2  0  0  0  0  0  0  0  0  0
    3.8104   -4.0706    3.0372 N   0  0  0  0  0  0  0  0  0  0  0  0
    3.7687   -2.5776    3.0108 O   0  0  0  0  0  0  0  0  0  0  0  0
    3.7348   -2.1453    1.6539 C   0  0  1  0  0  0  0  0  0  0  0  0
    4.3428   -0.7351    1.5035 C   0  0  0  0  0  0  0  0  0  0  0  0
    4.2225   -0.3217    0.1728 O   0  0  0  0  0  0  0  0  0  0  0  0
    4.3744   -3.2703    0.8312 C   0  0  1  0  0  0  0  0  0  0  0  0
    5.9076   -3.1663    0.6971 C   0  0  0  0  0  0  0  0  0  0  0  0
    6.6529   -2.9928    1.6556 O   0  0  0  0  0  0  0  0  0  0  0  0
    6.3077   -3.3017   -0.5860 N   0  0  0  0  0  0  0  0  0  0  0  0
    5.1887   -3.3737   -1.4203 C   0  0  0  0  0  0  0  0  0  0  0  0
    5.1604   -3.4477   -2.8282 C   0  0  0  0  0  0  0  0  0  0  0  0
    3.8969   -3.3989   -3.4476 C   0  0  0  0  0  0  0  0  0  0  0  0
    2.7073   -3.2620   -2.6792 C   0  0  0  0  0  0  0  0  0  0  0  0
    2.7625   -3.2184   -1.2810 C   0  0  0  0  0  0  0  0  0  0  0  0
    4.0332   -3.2999   -0.6555 C   0  0  0  0  0  0  0  0  0  0  0  0
    1.2425   -6.0270    4.1655 H   0  0  0  0  0  0  0  0  0  0  0  0
    2.5181   -5.3524    5.1748 H   0  0  0  0  0  0  0  0  0  0  0  0
    2.9105   -6.5238    3.9167 H   0  0  0  0  0  0  0  0  0  0  0  0
    1.8161   -3.6926    3.3375 H   0  0  0  0  0  0  0  0  0  0  0  0
    1.8753   -4.1083    1.1190 H   0  0  0  0  0  0  0  0  0  0  0  0
    1.0781   -7.8056    0.5679 H   0  0  0  0  0  0  0  0  0  0  0  0
    0.2812   -6.3140    1.0242 H   0  0  0  0  0  0  0  0  0  0  0  0
    0.9596   -7.3594    2.2738 H   0  0  0  0  0  0  0  0  0  0  0  0
    3.2830   -8.8633    0.6390 H   0  0  0  0  0  0  0  0  0  0  0  0
    5.6637   -9.5093    0.9025 H   0  0  0  0  0  0  0  0  0  0  0  0
    7.3524   -7.8511    1.6730 H   0  0  0  0  0  0  0  0  0  0  0  0
    6.6756   -5.5008    2.0584 H   0  0  0  0  0  0  0  0  0  0  0  0
    2.6736   -2.0728    1.4093 H   0  0  0  0  0  0  0  0  0  0  0  0
    3.8003   -0.0193    2.1228 H   0  0  0  0  0  0  0  0  0  0  0  0
    5.3887   -0.6599    1.7968 H   0  0  0  0  0  0  0  0  0  0  0  0
    3.3133   -0.3712   -0.1056 H   0  0  0  0  0  0  0  0  0  0  0  0
    7.2523   -3.3174   -0.9223 H   0  0  0  0  0  0  0  0  0  0  0  0
    6.0696   -3.5182   -3.3904 H   0  0  0  0  0  0  0  0  0  0  0  0
    3.8137   -3.4828   -4.5154 H   0  0  0  0  0  0  0  0  0  0  0  0
    1.7480   -3.2384   -3.1635 H   0  0  0  0  0  0  0  0  0  0  0  0
    1.8661   -3.1187   -0.7040 H   0  0  0  0  0  0  0  0  0  0  0  0
  1  2  1  0
  1 28  1  0
  1 29  1  0
  1 30  1  0
  2 13  1  0
  2  3  1  0
  2 31  1  6
  3 12  1  0
  3  4  1  0
  3 32  1  6
  4  5  1  0
  4  6  1  0
  5 33  1  0
  5 34  1  0
  5 35  1  0
  6 11  2  0
  6  7  1  0
  7  8  2  0
  7 36  1  0
  8  9  1  0
  8 37  1  0
  9 10  2  0
  9 38  1  0
 10 11  1  0
 10 39  1  0
 12 11  1  1
 12 18  1  0
 12 13  1  0
 13 14  1  0
 14 15  1  0
 15 16  1  0
 15 18  1  0
 15 40  1  6
 16 17  1  0
 16 41  1  0
 16 42  1  0
 17 43  1  0
 18 27  1  0
 18 19  1  6
 19 20  2  0
 19 21  1  0
 21 22  1  0
 21 44  1  0
 22 27  2  0
 22 23  1  0
 23 24  2  0
 23 45  1  0
 24 25  1  0
 24 46  1  0
 25 26  2  0
 25 47  1  0
 26 27  1  0
 26 48  1  0
M  END
>  <i_m_ct_stereo_status>  (144) 
1

>  <s_m_source_file>  (144) 
/var/tmp/pbs.5076255.sched01/tmpnk13i6y_/41i0yhob8r.sdf

>  <i_m_source_file_index>  (144) 
18

>  <i_lp_mmshare_version>  (144) 
48012

>  <i_f3d_flags>  (144) 
0

>  <s_epik_input>  (144) 
W2NIXTFbY0hdW2NIXVtjSF1jMmMxTihbQ0gzXSlbQ0BIXTNbQ0BASF0oW0NIM10pTjRPW0NAQEhdKFtDSDJdW09IXSlbQ0BAXTUoW0NAXTIzNCljNmMoW05IXUM1PU8pW2NIXVtjSF1bY0hdW2NIXTY=

>  <s_epik_cmdline>  (144) 
J2VwaWtfcHl0aG9uJywgJy1waHQnLCAnMi4wJywgJy1waCcsICc3LjAnLCAnLXRuJywgJzgnLCAnLW1hJywgJzIwMCcsICctaW1hZScsICc8aW5maWxlLm1hZT4nLCAnLW9tYWUnLCAnPG91dGZpbGUubWFlPic=

>  <r_epik_Ionization_Penalty>  (144) 
0.0364566

>  <r_epik_Ionization_Penalty_Charging>  (144) 
0

>  <r_epik_Ionization_Penalty_Neutral>  (144) 
0.0364566

>  <r_epik_State_Penalty>  (144) 
0.0302634

>  <r_epik_Charging_Adjusted_Penalty>  (144) 
0.0302634

>  <i_epik_Tot_Q>  (144) 
0

>  <i_epik_Tot_abs_Q>  (144) 
0

>  <s_epik_Chemistry_Notes>  (144) 
This compound has a N-S or N-O group and may undergo hydrolysis at high or low pH.

>  <s_lp_Force_Field>  (144) 
OPLS3e

>  <r_lp_Energy>  (144) 
44.7307

>  <b_lp_Chiralities_Consistent>  (144) 
1

>  <s_lp_Variant>  (144) 
50:0-1

>  <s_i_glide_gridfile>  (144) 
pfpi4k_grid

>  <i_i_glide_lignum>  (144) 
18

>  <i_i_glide_rotatable_bonds>  (144) 
2

>  <r_i_docking_score>  (144) 
-3.10918

>  <r_i_glide_ligand_efficiency>  (144) 
-0.115155

>  <r_i_glide_ligand_efficiency_sa>  (144) 
-0.345464

>  <r_i_glide_ligand_efficiency_ln>  (144) 
-0.723766

>  <r_i_glide_gscore>  (144) 
-3.10918

>  <r_i_glide_lipo>  (144) 
-0.973448

>  <r_i_glide_hbond>  (144) 
0

>  <r_i_glide_metal>  (144) 
-0

>  <r_i_glide_rewards>  (144) 
-1.02616

>  <r_i_glide_evdw>  (144) 
-24.4214

>  <r_i_glide_ecoul>  (144) 
-0.0915445

>  <r_i_glide_erotb>  (144) 
0.14548

>  <r_i_glide_esite>  (144) 
-0.0202504

>  <r_i_glide_emodel>  (144) 
-28.5491

>  <r_i_glide_energy>  (144) 
-24.513

>  <r_i_glide_einternal>  (144) 
0.262204

>  <r_i_glide_intrahb_reward>  (144) 
-0

>  <i_i_glide_confnum>  (144) 
5

>  <i_i_glide_posenum>  (144) 
6

>  <r_i_glide_eff_state_penalty>  (144) 
0

>  <ligand_id>  (144) 
50

>  <original_smiles>  (144) 
CC1C2N(C)c3ccccc3C23N1OC(CO)C31C(=O)Nc2ccccc21

>  <smiles>  (144) 
[H]OC([H])([H])C1([H])ON2C([H])(C([H])([H])[H])C3([H])N(C([H])([H])[H])c4c([H])c([H])c([H])c([H])c4C23C12C(=O)N([H])c1c([H])c([H])c([H])c([H])c12

$$$$
50:1:0
     RDKit          3D

 49 54  0  0  1  0  0  0  0  0999 V2000
    5.0204   -5.3845    4.3043 C   0  0  0  0  0  0  0  0  0  0  0  0
    4.1454   -4.4830    3.4385 C   0  0  2  0  0  0  0  0  0  0  0  0
    4.0332   -4.7047    1.9158 C   0  0  2  0  0  0  0  0  0  0  0  0
    4.8791   -5.7833    1.2964 N   0  0  1  0  0  0  0  0  0  0  0  0
    4.2316   -6.3503    0.0926 C   0  0  0  0  0  0  0  0  0  0  0  0
    6.1878   -5.1270    0.9638 C   0  0  0  0  0  0  0  0  0  0  0  0
    7.3666   -5.7713    0.5345 C   0  0  0  0  0  0  0  0  0  0  0  0
    8.5261   -4.9869    0.3575 C   0  0  0  0  0  0  0  0  0  0  0  0
    8.5048   -3.6097    0.6498 C   0  0  0  0  0  0  0  0  0  0  0  0
    7.2954   -2.9941    1.0448 C   0  0  0  0  0  0  0  0  0  0  0  0
    6.1263   -3.7683    1.2118 C   0  0  0  0  0  0  0  0  0  0  0  0
    4.7637   -3.3505    1.7461 C   0  0  2  0  0  0  0  0  0  0  0  0
    4.7402   -3.1547    3.1972 N   0  0  0  0  0  0  0  0  0  0  0  0
    3.7089   -2.0950    3.4230 O   0  0  0  0  0  0  0  0  0  0  0  0
    3.0037   -1.8296    2.1998 C   0  0  1  0  0  0  0  0  0  0  0  0
    2.3647   -0.4223    2.2188 C   0  0  0  0  0  0  0  0  0  0  0  0
    2.2129    0.1308    0.9323 O   0  0  0  0  0  0  0  0  0  0  0  0
    4.0194   -2.1713    1.1026 C   0  0  1  0  0  0  0  0  0  0  0  0
    4.9403   -0.9873    0.7031 C   0  0  0  0  0  0  0  0  0  0  0  0
    5.5387   -0.2592    1.5122 O   0  0  0  0  0  0  0  0  0  0  0  0
    5.0219   -0.8920   -0.6324 N   0  0  0  0  0  0  0  0  0  0  0  0
    4.1012   -1.7545   -1.2357 C   0  0  0  0  0  0  0  0  0  0  0  0
    3.7856   -1.8656   -2.5979 C   0  0  0  0  0  0  0  0  0  0  0  0
    2.7312   -2.7406   -2.9398 C   0  0  0  0  0  0  0  0  0  0  0  0
    2.0365   -3.4433   -1.9510 C   0  0  0  0  0  0  0  0  0  0  0  0
    2.4177   -3.3765   -0.6000 C   0  0  0  0  0  0  0  0  0  0  0  0
    3.4498   -2.4750   -0.2671 C   0  0  0  0  0  0  0  0  0  0  0  0
    4.6080   -6.3957    4.3228 H   0  0  0  0  0  0  0  0  0  0  0  0
    5.0742   -5.0227    5.3346 H   0  0  0  0  0  0  0  0  0  0  0  0
    6.0328   -5.4263    3.9163 H   0  0  0  0  0  0  0  0  0  0  0  0
    3.1783   -4.2819    3.8681 H   0  0  0  0  0  0  0  0  0  0  0  0
    2.9801   -4.6985    1.6783 H   0  0  0  0  0  0  0  0  0  0  0  0
    4.9110   -7.1408   -0.2731 H   0  0  0  0  0  0  0  0  0  0  0  0
    4.1340   -5.5453   -0.6650 H   0  0  0  0  0  0  0  0  0  0  0  0
    3.2419   -6.7578    0.3847 H   0  0  0  0  0  0  0  0  0  0  0  0
    7.3950   -6.8308    0.3554 H   0  0  0  0  0  0  0  0  0  0  0  0
    9.4276   -5.4791    0.0141 H   0  0  0  0  0  0  0  0  0  0  0  0
    9.4284   -3.0376    0.6503 H   0  0  0  0  0  0  0  0  0  0  0  0
    7.3250   -1.9703    1.3768 H   0  0  0  0  0  0  0  0  0  0  0  0
    2.1926   -2.5544    2.1635 H   0  0  0  0  0  0  0  0  0  0  0  0
    1.4014   -0.4652    2.7022 H   0  0  0  0  0  0  0  0  0  0  0  0
    2.9520    0.2921    2.7889 H   0  0  0  0  0  0  0  0  0  0  0  0
    1.6081   -0.3495    0.3422 H   0  0  0  0  0  0  0  0  0  0  0  0
    5.4730   -0.1387   -1.1177 H   0  0  0  0  0  0  0  0  0  0  0  0
    4.2866   -1.2897   -3.3350 H   0  0  0  0  0  0  0  0  0  0  0  0
    2.4148   -2.8464   -3.9528 H   0  0  0  0  0  0  0  0  0  0  0  0
    1.2178   -4.0890   -2.1987 H   0  0  0  0  0  0  0  0  0  0  0  0
    1.9248   -3.9276    0.1757 H   0  0  0  0  0  0  0  0  0  0  0  0
    5.0002   -6.4836    2.0171 H   0  0  0  0  0  0  0  0  0  0  0  0
  1  2  1  0
  1 28  1  0
  1 29  1  0
  1 30  1  0
  2 13  1  0
  2  3  1  0
  2 31  1  1
  3 12  1  0
  3  4  1  0
  3 32  1  6
  4  5  1  0
  4  6  1  0
  4 49  1  1
  5 33  1  0
  5 34  1  0
  5 35  1  0
  6 11  2  0
  6  7  1  0
  7  8  2  0
  7 36  1  0
  8  9  1  0
  8 37  1  0
  9 10  2  0
  9 38  1  0
 10 11  1  0
 10 39  1  0
 12 11  1  6
 12 18  1  0
 12 13  1  0
 13 14  1  0
 14 15  1  0
 15 16  1  0
 15 18  1  0
 15 40  1  6
 16 17  1  0
 16 41  1  0
 16 42  1  0
 17 43  1  0
 18 27  1  0
 18 19  1  6
 19 20  2  0
 19 21  1  0
 21 22  1  0
 21 44  1  0
 22 27  2  0
 22 23  1  0
 23 24  2  0
 23 45  1  0
 24 25  1  0
 24 46  1  0
 25 26  2  0
 25 47  1  0
 26 27  1  0
 26 48  1  0
M  CHG  1   4   1
M  END
>  <i_m_ct_stereo_status>  (145) 
1

>  <s_m_source_file>  (145) 
/var/tmp/pbs.5076255.sched01/tmpnk13i6y_/41i0yhob8r.sdf

>  <i_m_source_file_index>  (145) 
19

>  <i_lp_mmshare_version>  (145) 
48012

>  <i_f3d_flags>  (145) 
0

>  <s_epik_input>  (145) 
W2NIXTFbY0hdW2NIXVtjSF1jMmMxTihbQ0gzXSlbQ0BIXTNbQ0BASF0oW0NIM10pTjRPW0NAQEhdKFtDSDJdW09IXSlbQ0BAXTUoW0NAXTIzNCljNmMoW05IXUM1PU8pW2NIXVtjSF1bY0hdW2NIXTY=

>  <s_epik_cmdline>  (145) 
J2VwaWtfcHl0aG9uJywgJy1waHQnLCAnMi4wJywgJy1waCcsICc3LjAnLCAnLXRuJywgJzgnLCAnLW1hJywgJzIwMCcsICctaW1hZScsICc8aW5maWxlLm1hZT4nLCAnLW9tYWUnLCAnPG91dGZpbGUubWFlPic=

>  <r_epik_Ionization_Penalty>  (145) 
1.67352

>  <r_epik_Ionization_Penalty_Charging>  (145) 
1.6735

>  <r_epik_Ionization_Penalty_Neutral>  (145) 
1.64456e-05

>  <r_epik_State_Penalty>  (145) 
1.77735

>  <r_epik_Charging_Adjusted_Penalty>  (145) 
3.45085

>  <i_epik_Tot_Q>  (145) 
1

>  <i_epik_Tot_abs_Q>  (145) 
1

>  <s_epik_Chemistry_Notes>  (145) 
This compound has a N-S or N-O group and may undergo hydrolysis at high or low pH.

>  <s_lp_Force_Field>  (145) 
OPLS3e

>  <r_lp_Energy>  (145) 
45.9428

>  <b_lp_Chiralities_Consistent>  (145) 
1

>  <s_lp_Variant>  (145) 
50:0-2

>  <s_i_glide_gridfile>  (145) 
pfpi4k_grid

>  <i_i_glide_lignum>  (145) 
19

>  <i_i_glide_rotatable_bonds>  (145) 
2

>  <r_i_docking_score>  (145) 
-4.1712

>  <r_i_glide_ligand_efficiency>  (145) 
-0.154489

>  <r_i_glide_ligand_efficiency_sa>  (145) 
-0.463467

>  <r_i_glide_ligand_efficiency_ln>  (145) 
-0.970987

>  <r_i_glide_gscore>  (145) 
-4.1712

>  <r_i_glide_lipo>  (145) 
-0.715256

>  <r_i_glide_hbond>  (145) 
-0.401578

>  <r_i_glide_metal>  (145) 
-0

>  <r_i_glide_rewards>  (145) 
-1.09967

>  <r_i_glide_evdw>  (145) 
-16.2906

>  <r_i_glide_ecoul>  (145) 
-8.30928

>  <r_i_glide_erotb>  (145) 
0.144763

>  <r_i_glide_esite>  (145) 
-0.0385363

>  <r_i_glide_emodel>  (145) 
-27.4222

>  <r_i_glide_energy>  (145) 
-24.5999

>  <r_i_glide_einternal>  (145) 
4.4417

>  <r_i_glide_intrahb_reward>  (145) 
-0

>  <i_i_glide_confnum>  (145) 
1

>  <i_i_glide_posenum>  (145) 
20

>  <r_i_glide_eff_state_penalty>  (145) 
0

>  <ligand_id>  (145) 
50

>  <original_smiles>  (145) 
CC1C2N(C)c3ccccc3C23N1OC(CO)C31C(=O)Nc2ccccc21

>  <smiles>  (145) 
[H]OC([H])([H])C1([H])ON2C([H])(C([H])([H])[H])C3([H])C2(c2c([H])c([H])c([H])c([H])c2[N+]3([H])C([H])([H])[H])C12C(=O)N([H])c1c([H])c([H])c([H])c([H])c12

$$$$
50:1:1
     RDKit          3D

 49 54  0  0  1  0  0  0  0  0999 V2000
    4.5719   -5.0776    4.2165 C   0  0  0  0  0  0  0  0  0  0  0  0
    3.8350   -4.1923    3.2274 C   0  0  2  0  0  0  0  0  0  0  0  0
    3.8488   -4.5199    1.7181 C   0  0  2  0  0  0  0  0  0  0  0  0
    4.6858   -5.6857    1.2722 N   0  0  1  0  0  0  0  0  0  0  0  0
    4.1281   -6.2964    0.0596 C   0  0  0  0  0  0  0  0  0  0  0  0
    6.0543   -5.1411    0.9984 C   0  0  0  0  0  0  0  0  0  0  0  0
    7.2054   -5.8852    0.7023 C   0  0  0  0  0  0  0  0  0  0  0  0
    8.4323   -5.1980    0.6092 C   0  0  0  0  0  0  0  0  0  0  0  0
    8.4848   -3.8099    0.8602 C   0  0  0  0  0  0  0  0  0  0  0  0
    7.2965   -3.0819    1.0730 C   0  0  0  0  0  0  0  0  0  0  0  0
    6.0623   -3.7569    1.1303 C   0  0  0  0  0  0  0  0  0  0  0  0
    4.6893   -3.2397    1.5077 C   0  0  2  0  0  0  0  0  0  0  0  0
    4.5677   -2.9533    2.9373 N   0  0  0  0  0  0  0  0  0  0  0  0
    3.5940   -1.8360    3.0349 O   0  0  0  0  0  0  0  0  0  0  0  0
    3.0043   -1.6069    1.7495 C   0  0  1  0  0  0  0  0  0  0  0  0
    2.4671   -0.1539    1.5706 C   0  0  0  0  0  0  0  0  0  0  0  0
    1.0616   -0.1054    1.6585 O   0  0  0  0  0  0  0  0  0  0  0  0
    4.0732   -2.0789    0.7497 C   0  0  1  0  0  0  0  0  0  0  0  0
    5.1010   -0.9990    0.3476 C   0  0  0  0  0  0  0  0  0  0  0  0
    5.6649   -0.2468    1.1437 O   0  0  0  0  0  0  0  0  0  0  0  0
    5.2908   -1.0055   -0.9862 N   0  0  0  0  0  0  0  0  0  0  0  0
    4.3793   -1.8315   -1.6062 C   0  0  0  0  0  0  0  0  0  0  0  0
    4.1733   -2.0272   -2.9811 C   0  0  0  0  0  0  0  0  0  0  0  0
    3.1083   -2.8532   -3.3656 C   0  0  0  0  0  0  0  0  0  0  0  0
    2.2878   -3.4360   -2.3897 C   0  0  0  0  0  0  0  0  0  0  0  0
    2.5090   -3.2631   -1.0215 C   0  0  0  0  0  0  0  0  0  0  0  0
    3.5882   -2.4479   -0.6394 C   0  0  0  0  0  0  0  0  0  0  0  0
    4.0932   -6.0594    4.2545 H   0  0  0  0  0  0  0  0  0  0  0  0
    4.5616   -4.6662    5.2274 H   0  0  0  0  0  0  0  0  0  0  0  0
    5.6111   -5.2232    3.9261 H   0  0  0  0  0  0  0  0  0  0  0  0
    2.8440   -3.9078    3.5464 H   0  0  0  0  0  0  0  0  0  0  0  0
    2.8350   -4.4654    1.3556 H   0  0  0  0  0  0  0  0  0  0  0  0
    4.7396   -7.1569   -0.2368 H   0  0  0  0  0  0  0  0  0  0  0  0
    4.1742   -5.5495   -0.7401 H   0  0  0  0  0  0  0  0  0  0  0  0
    3.0904   -6.6199    0.2223 H   0  0  0  0  0  0  0  0  0  0  0  0
    7.1505   -6.9494    0.5586 H   0  0  0  0  0  0  0  0  0  0  0  0
    9.3231   -5.7566    0.3646 H   0  0  0  0  0  0  0  0  0  0  0  0
    9.4350   -3.2933    0.8514 H   0  0  0  0  0  0  0  0  0  0  0  0
    7.3648   -2.0391    1.3386 H   0  0  0  0  0  0  0  0  0  0  0  0
    2.1496   -2.2812    1.7120 H   0  0  0  0  0  0  0  0  0  0  0  0
    2.9124    0.5747    2.2523 H   0  0  0  0  0  0  0  0  0  0  0  0
    2.6543    0.2067    0.5666 H   0  0  0  0  0  0  0  0  0  0  0  0
    0.7133   -0.2872    0.7783 H   0  0  0  0  0  0  0  0  0  0  0  0
    5.8459   -0.3441   -1.4906 H   0  0  0  0  0  0  0  0  0  0  0  0
    4.8047   -1.5501   -3.7119 H   0  0  0  0  0  0  0  0  0  0  0  0
    2.8934   -3.0400   -4.4079 H   0  0  0  0  0  0  0  0  0  0  0  0
    1.4601   -4.0601   -2.7024 H   0  0  0  0  0  0  0  0  0  0  0  0
    1.8503   -3.6962   -0.2909 H   0  0  0  0  0  0  0  0  0  0  0  0
    4.6983   -6.3599    2.0231 H   0  0  0  0  0  0  0  0  0  0  0  0
  1  2  1  0
  1 28  1  0
  1 29  1  0
  1 30  1  0
  2 13  1  0
  2  3  1  0
  2 31  1  1
  3 12  1  0
  3  4  1  0
  3 32  1  6
  4  5  1  0
  4  6  1  0
  4 49  1  1
  5 33  1  0
  5 34  1  0
  5 35  1  0
  6 11  2  0
  6  7  1  0
  7  8  2  0
  7 36  1  0
  8  9  1  0
  8 37  1  0
  9 10  2  0
  9 38  1  0
 10 11  1  0
 10 39  1  0
 12 11  1  6
 12 18  1  0
 12 13  1  0
 13 14  1  0
 14 15  1  0
 15 16  1  0
 15 18  1  0
 15 40  1  1
 16 17  1  0
 16 41  1  0
 16 42  1  0
 17 43  1  0
 18 27  1  0
 18 19  1  6
 19 20  2  0
 19 21  1  0
 21 22  1  0
 21 44  1  0
 22 27  2  0
 22 23  1  0
 23 24  2  0
 23 45  1  0
 24 25  1  0
 24 46  1  0
 25 26  2  0
 25 47  1  0
 26 27  1  0
 26 48  1  0
M  CHG  1   4   1
M  END
>  <i_m_ct_stereo_status>  (146) 
1

>  <s_m_source_file>  (146) 
/var/tmp/pbs.5076255.sched01/tmpnk13i6y_/41i0yhob8r.sdf

>  <i_m_source_file_index>  (146) 
19

>  <i_lp_mmshare_version>  (146) 
48012

>  <i_f3d_flags>  (146) 
0

>  <s_epik_input>  (146) 
W2NIXTFbY0hdW2NIXVtjSF1jMmMxTihbQ0gzXSlbQ0BIXTNbQ0BASF0oW0NIM10pTjRPW0NAQEhdKFtDSDJdW09IXSlbQ0BAXTUoW0NAXTIzNCljNmMoW05IXUM1PU8pW2NIXVtjSF1bY0hdW2NIXTY=

>  <s_epik_cmdline>  (146) 
J2VwaWtfcHl0aG9uJywgJy1waHQnLCAnMi4wJywgJy1waCcsICc3LjAnLCAnLXRuJywgJzgnLCAnLW1hJywgJzIwMCcsICctaW1hZScsICc8aW5maWxlLm1hZT4nLCAnLW9tYWUnLCAnPG91dGZpbGUubWFlPic=

>  <r_epik_Ionization_Penalty>  (146) 
1.67352

>  <r_epik_Ionization_Penalty_Charging>  (146) 
1.6735

>  <r_epik_Ionization_Penalty_Neutral>  (146) 
1.64456e-05

>  <r_epik_State_Penalty>  (146) 
1.77735

>  <r_epik_Charging_Adjusted_Penalty>  (146) 
3.45085

>  <i_epik_Tot_Q>  (146) 
1

>  <i_epik_Tot_abs_Q>  (146) 
1

>  <s_epik_Chemistry_Notes>  (146) 
This compound has a N-S or N-O group and may undergo hydrolysis at high or low pH.

>  <s_lp_Force_Field>  (146) 
OPLS3e

>  <r_lp_Energy>  (146) 
45.9428

>  <b_lp_Chiralities_Consistent>  (146) 
1

>  <s_lp_Variant>  (146) 
50:0-2

>  <s_i_glide_gridfile>  (146) 
pfpi4k_grid

>  <i_i_glide_lignum>  (146) 
19

>  <i_i_glide_rotatable_bonds>  (146) 
2

>  <r_i_docking_score>  (146) 
-3.77349

>  <r_i_glide_ligand_efficiency>  (146) 
-0.139759

>  <r_i_glide_ligand_efficiency_sa>  (146) 
-0.419277

>  <r_i_glide_ligand_efficiency_ln>  (146) 
-0.878407

>  <r_i_glide_gscore>  (146) 
-3.77349

>  <r_i_glide_lipo>  (146) 
-0.922245

>  <r_i_glide_hbond>  (146) 
-0.205258

>  <r_i_glide_metal>  (146) 
-0

>  <r_i_glide_rewards>  (146) 
-1.0948

>  <r_i_glide_evdw>  (146) 
-19.8166

>  <r_i_glide_ecoul>  (146) 
-4.37482

>  <r_i_glide_erotb>  (146) 
0.144763

>  <r_i_glide_esite>  (146) 
-0.0489029

>  <r_i_glide_emodel>  (146) 
-28.2605

>  <r_i_glide_energy>  (146) 
-24.1915

>  <r_i_glide_einternal>  (146) 
1.91187

>  <r_i_glide_intrahb_reward>  (146) 
-0

>  <i_i_glide_confnum>  (146) 
2

>  <i_i_glide_posenum>  (146) 
11

>  <r_i_glide_eff_state_penalty>  (146) 
0

>  <ligand_id>  (146) 
50

>  <original_smiles>  (146) 
CC1C2N(C)c3ccccc3C23N1OC(CO)C31C(=O)Nc2ccccc21

>  <smiles>  (146) 
[H]OC([H])([H])C1([H])ON2C([H])(C([H])([H])[H])C3([H])C2(c2c([H])c([H])c([H])c([H])c2[N+]3([H])C([H])([H])[H])C12C(=O)N([H])c1c([H])c([H])c([H])c([H])c12

$$$$
50:1:2
     RDKit          3D

 49 54  0  0  1  0  0  0  0  0999 V2000
    5.3905   -1.2327    2.6498 C   0  0  0  0  0  0  0  0  0  0  0  0
    5.2206   -2.6667    3.1455 C   0  0  2  0  0  0  0  0  0  0  0  0
    5.7993   -3.8449    2.3211 C   0  0  2  0  0  0  0  0  0  0  0  0
    6.4591   -3.5473    0.9976 N   0  0  1  0  0  0  0  0  0  0  0  0
    7.5314   -4.5130    0.6786 C   0  0  0  0  0  0  0  0  0  0  0  0
    5.3592   -3.5712   -0.0231 C   0  0  0  0  0  0  0  0  0  0  0  0
    5.4819   -3.2015   -1.3752 C   0  0  0  0  0  0  0  0  0  0  0  0
    4.2990   -3.1651   -2.1406 C   0  0  0  0  0  0  0  0  0  0  0  0
    3.0503   -3.4445   -1.5455 C   0  0  0  0  0  0  0  0  0  0  0  0
    2.9656   -3.8236   -0.1897 C   0  0  0  0  0  0  0  0  0  0  0  0
    4.1559   -3.9388    0.5643 C   0  0  0  0  0  0  0  0  0  0  0  0
    4.3425   -4.2641    2.0401 C   0  0  2  0  0  0  0  0  0  0  0  0
    3.8653   -3.1769    2.8939 N   0  0  0  0  0  0  0  0  0  0  0  0
    3.3624   -3.8431    4.1166 O   0  0  0  0  0  0  0  0  0  0  0  0
    3.7730   -5.2098    4.1202 C   0  0  1  0  0  0  0  0  0  0  0  0
    2.8709   -6.1091    5.0114 C   0  0  0  0  0  0  0  0  0  0  0  0
    3.1853   -5.9247    6.3724 O   0  0  0  0  0  0  0  0  0  0  0  0
    3.8440   -5.5819    2.6300 C   0  0  1  0  0  0  0  0  0  0  0  0
    2.4968   -6.0591    2.0152 C   0  0  0  0  0  0  0  0  0  0  0  0
    1.4097   -5.4809    2.1594 O   0  0  0  0  0  0  0  0  0  0  0  0
    2.6948   -7.1595    1.2792 N   0  0  0  0  0  0  0  0  0  0  0  0
    3.9990   -7.6376    1.4407 C   0  0  0  0  0  0  0  0  0  0  0  0
    4.5631   -8.8036    0.8997 C   0  0  0  0  0  0  0  0  0  0  0  0
    5.8850   -9.1208    1.2813 C   0  0  0  0  0  0  0  0  0  0  0  0
    6.5930   -8.3051    2.1752 C   0  0  0  0  0  0  0  0  0  0  0  0
    6.0128   -7.1342    2.7068 C   0  0  0  0  0  0  0  0  0  0  0  0
    4.7041   -6.8006    2.2830 C   0  0  0  0  0  0  0  0  0  0  0  0
    6.4477   -0.9530    2.6861 H   0  0  0  0  0  0  0  0  0  0  0  0
    4.8430   -0.5159    3.2627 H   0  0  0  0  0  0  0  0  0  0  0  0
    5.0543   -1.1174    1.6220 H   0  0  0  0  0  0  0  0  0  0  0  0
    5.4226   -2.7778    4.1930 H   0  0  0  0  0  0  0  0  0  0  0  0
    6.3434   -4.5105    2.9771 H   0  0  0  0  0  0  0  0  0  0  0  0
    7.9799   -4.2304   -0.2815 H   0  0  0  0  0  0  0  0  0  0  0  0
    7.1161   -5.5238    0.5795 H   0  0  0  0  0  0  0  0  0  0  0  0
    8.3097   -4.5081    1.4515 H   0  0  0  0  0  0  0  0  0  0  0  0
    6.4411   -2.9630   -1.7964 H   0  0  0  0  0  0  0  0  0  0  0  0
    4.3558   -2.9163   -3.1850 H   0  0  0  0  0  0  0  0  0  0  0  0
    2.1504   -3.3723   -2.1393 H   0  0  0  0  0  0  0  0  0  0  0  0
    2.0003   -3.9654    0.2563 H   0  0  0  0  0  0  0  0  0  0  0  0
    4.7737   -5.2243    4.5553 H   0  0  0  0  0  0  0  0  0  0  0  0
    1.8007   -5.9707    4.8574 H   0  0  0  0  0  0  0  0  0  0  0  0
    3.0733   -7.1585    4.8085 H   0  0  0  0  0  0  0  0  0  0  0  0
    2.9935   -5.0322    6.6077 H   0  0  0  0  0  0  0  0  0  0  0  0
    1.9858   -7.6546    0.7641 H   0  0  0  0  0  0  0  0  0  0  0  0
    4.0055   -9.4413    0.2459 H   0  0  0  0  0  0  0  0  0  0  0  0
    6.3378  -10.0185    0.8961 H   0  0  0  0  0  0  0  0  0  0  0  0
    7.5912   -8.5795    2.4813 H   0  0  0  0  0  0  0  0  0  0  0  0
    6.5579   -6.5401    3.4097 H   0  0  0  0  0  0  0  0  0  0  0  0
    6.8565   -2.6222    1.0751 H   0  0  0  0  0  0  0  0  0  0  0  0
  1  2  1  0
  1 28  1  0
  1 29  1  0
  1 30  1  0
  2 13  1  0
  2  3  1  0
  2 31  1  1
  3 12  1  0
  3  4  1  0
  3 32  1  1
  4  5  1  0
  4  6  1  0
  4 49  1  1
  5 33  1  0
  5 34  1  0
  5 35  1  0
  6 11  2  0
  6  7  1  0
  7  8  2  0
  7 36  1  0
  8  9  1  0
  8 37  1  0
  9 10  2  0
  9 38  1  0
 10 11  1  0
 10 39  1  0
 12 11  1  6
 12 18  1  0
 12 13  1  0
 13 14  1  0
 14 15  1  0
 15 16  1  0
 15 18  1  0
 15 40  1  1
 16 17  1  0
 16 41  1  0
 16 42  1  0
 17 43  1  0
 18 27  1  0
 18 19  1  6
 19 20  2  0
 19 21  1  0
 21 22  1  0
 21 44  1  0
 22 27  2  0
 22 23  1  0
 23 24  2  0
 23 45  1  0
 24 25  1  0
 24 46  1  0
 25 26  2  0
 25 47  1  0
 26 27  1  0
 26 48  1  0
M  CHG  1   4   1
M  END
>  <i_m_ct_stereo_status>  (147) 
1

>  <s_m_source_file>  (147) 
/var/tmp/pbs.5076255.sched01/tmpnk13i6y_/41i0yhob8r.sdf

>  <i_m_source_file_index>  (147) 
19

>  <i_lp_mmshare_version>  (147) 
48012

>  <i_f3d_flags>  (147) 
0

>  <s_epik_input>  (147) 
W2NIXTFbY0hdW2NIXVtjSF1jMmMxTihbQ0gzXSlbQ0BIXTNbQ0BASF0oW0NIM10pTjRPW0NAQEhdKFtDSDJdW09IXSlbQ0BAXTUoW0NAXTIzNCljNmMoW05IXUM1PU8pW2NIXVtjSF1bY0hdW2NIXTY=

>  <s_epik_cmdline>  (147) 
J2VwaWtfcHl0aG9uJywgJy1waHQnLCAnMi4wJywgJy1waCcsICc3LjAnLCAnLXRuJywgJzgnLCAnLW1hJywgJzIwMCcsICctaW1hZScsICc8aW5maWxlLm1hZT4nLCAnLW9tYWUnLCAnPG91dGZpbGUubWFlPic=

>  <r_epik_Ionization_Penalty>  (147) 
1.67352

>  <r_epik_Ionization_Penalty_Charging>  (147) 
1.6735

>  <r_epik_Ionization_Penalty_Neutral>  (147) 
1.64456e-05

>  <r_epik_State_Penalty>  (147) 
1.77735

>  <r_epik_Charging_Adjusted_Penalty>  (147) 
3.45085

>  <i_epik_Tot_Q>  (147) 
1

>  <i_epik_Tot_abs_Q>  (147) 
1

>  <s_epik_Chemistry_Notes>  (147) 
This compound has a N-S or N-O group and may undergo hydrolysis at high or low pH.

>  <s_lp_Force_Field>  (147) 
OPLS3e

>  <r_lp_Energy>  (147) 
45.9428

>  <b_lp_Chiralities_Consistent>  (147) 
1

>  <s_lp_Variant>  (147) 
50:0-2

>  <s_i_glide_gridfile>  (147) 
pfpi4k_grid

>  <i_i_glide_lignum>  (147) 
19

>  <i_i_glide_rotatable_bonds>  (147) 
2

>  <r_i_docking_score>  (147) 
-2.7657

>  <r_i_glide_ligand_efficiency>  (147) 
-0.102433

>  <r_i_glide_ligand_efficiency_sa>  (147) 
-0.3073

>  <r_i_glide_ligand_efficiency_ln>  (147) 
-0.643809

>  <r_i_glide_gscore>  (147) 
-2.7657

>  <r_i_glide_lipo>  (147) 
-0.788836

>  <r_i_glide_hbond>  (147) 
-0.0434403

>  <r_i_glide_metal>  (147) 
-0

>  <r_i_glide_rewards>  (147) 
-0.925569

>  <r_i_glide_evdw>  (147) 
-22.5698

>  <r_i_glide_ecoul>  (147) 
-0.0930937

>  <r_i_glide_erotb>  (147) 
0.144763

>  <r_i_glide_esite>  (147) 
-0.0101614

>  <r_i_glide_emodel>  (147) 
-26.1359

>  <r_i_glide_energy>  (147) 
-22.6629

>  <r_i_glide_einternal>  (147) 
0.172483

>  <r_i_glide_intrahb_reward>  (147) 
-0

>  <i_i_glide_confnum>  (147) 
6

>  <i_i_glide_posenum>  (147) 
22

>  <r_i_glide_eff_state_penalty>  (147) 
0

>  <ligand_id>  (147) 
50

>  <original_smiles>  (147) 
CC1C2N(C)c3ccccc3C23N1OC(CO)C31C(=O)Nc2ccccc21

>  <smiles>  (147) 
[H]OC([H])([H])C1([H])ON2C([H])(C([H])([H])[H])C3([H])C2(c2c([H])c([H])c([H])c([H])c2[N+]3([H])C([H])([H])[H])C12C(=O)N([H])c1c([H])c([H])c([H])c([H])c12

$$$$
50:2:0
     RDKit          3D

 49 54  0  0  1  0  0  0  0  0999 V2000
    6.2101   -0.5159    0.4340 C   0  0  0  0  0  0  0  0  0  0  0  0
    6.1227   -1.7116    1.3710 C   0  0  2  0  0  0  0  0  0  0  0  0
    6.3323   -3.1662    0.8791 C   0  0  2  0  0  0  0  0  0  0  0  0
    6.5827   -3.5140   -0.5654 N   0  0  2  0  0  0  0  0  0  0  0  0
    7.7188   -2.8476   -1.2419 C   0  0  0  0  0  0  0  0  0  0  0  0
    5.2607   -3.4886   -1.2633 C   0  0  0  0  0  0  0  0  0  0  0  0
    5.0206   -3.5172   -2.6531 C   0  0  0  0  0  0  0  0  0  0  0  0
    3.6892   -3.3499   -3.0853 C   0  0  0  0  0  0  0  0  0  0  0  0
    2.6539   -3.1247   -2.1494 C   0  0  0  0  0  0  0  0  0  0  0  0
    2.9242   -3.1292   -0.7607 C   0  0  0  0  0  0  0  0  0  0  0  0
    4.2426   -3.3683   -0.3220 C   0  0  0  0  0  0  0  0  0  0  0  0
    4.8170   -3.3585    1.0874 C   0  0  2  0  0  0  0  0  0  0  0  0
    4.7333   -2.0342    1.6836 N   0  0  0  0  0  0  0  0  0  0  0  0
    4.6236   -2.2700    3.1410 O   0  0  0  0  0  0  0  0  0  0  0  0
    4.7960   -3.6608    3.4139 C   0  0  1  0  0  0  0  0  0  0  0  0
    4.1009   -4.1111    4.7271 C   0  0  0  0  0  0  0  0  0  0  0  0
    4.8707   -3.7346    5.8411 O   0  0  0  0  0  0  0  0  0  0  0  0
    4.3534   -4.3710    2.1252 C   0  0  1  0  0  0  0  0  0  0  0  0
    2.8318   -4.6657    2.0598 C   0  0  0  0  0  0  0  0  0  0  0  0
    1.9542   -3.8607    2.3734 O   0  0  0  0  0  0  0  0  0  0  0  0
    2.6263   -5.9307    1.6483 N   0  0  0  0  0  0  0  0  0  0  0  0
    3.8285   -6.6350    1.5807 C   0  0  0  0  0  0  0  0  0  0  0  0
    4.0268   -7.9846    1.2792 C   0  0  0  0  0  0  0  0  0  0  0  0
    5.3464   -8.4827    1.3370 C   0  0  0  0  0  0  0  0  0  0  0  0
    6.4187   -7.6410    1.7113 C   0  0  0  0  0  0  0  0  0  0  0  0
    6.2000   -6.2871    2.0147 C   0  0  0  0  0  0  0  0  0  0  0  0
    4.8811   -5.7804    1.9150 C   0  0  0  0  0  0  0  0  0  0  0  0
    7.2593   -0.3466    0.1744 H   0  0  0  0  0  0  0  0  0  0  0  0
    5.8343    0.3916    0.8942 H   0  0  0  0  0  0  0  0  0  0  0  0
    5.6443   -0.6759   -0.4867 H   0  0  0  0  0  0  0  0  0  0  0  0
    6.6082   -1.5408    2.3115 H   0  0  0  0  0  0  0  0  0  0  0  0
    6.9716   -3.6903    1.5836 H   0  0  0  0  0  0  0  0  0  0  0  0
    7.9746   -3.4567   -2.1209 H   0  0  0  0  0  0  0  0  0  0  0  0
    8.6014   -2.8113   -0.5882 H   0  0  0  0  0  0  0  0  0  0  0  0
    7.4492   -1.8582   -1.5880 H   0  0  0  0  0  0  0  0  0  0  0  0
    5.8296   -3.6786   -3.3404 H   0  0  0  0  0  0  0  0  0  0  0  0
    3.4602   -3.4233   -4.1371 H   0  0  0  0  0  0  0  0  0  0  0  0
    1.6411   -2.9724   -2.4990 H   0  0  0  0  0  0  0  0  0  0  0  0
    2.1404   -2.9006   -0.0600 H   0  0  0  0  0  0  0  0  0  0  0  0
    5.8606   -3.8115    3.5544 H   0  0  0  0  0  0  0  0  0  0  0  0
    3.0762   -3.7711    4.8413 H   0  0  0  0  0  0  0  0  0  0  0  0
    4.0700   -5.1991    4.7615 H   0  0  0  0  0  0  0  0  0  0  0  0
    4.8399   -2.7918    5.9228 H   0  0  0  0  0  0  0  0  0  0  0  0
    1.7332   -6.3712    1.5073 H   0  0  0  0  0  0  0  0  0  0  0  0
    3.2053   -8.6244    1.0179 H   0  0  0  0  0  0  0  0  0  0  0  0
    5.5316   -9.5199    1.1130 H   0  0  0  0  0  0  0  0  0  0  0  0
    7.4175   -8.0432    1.7801 H   0  0  0  0  0  0  0  0  0  0  0  0
    7.0184   -5.6669    2.3260 H   0  0  0  0  0  0  0  0  0  0  0  0
    6.8458   -4.4845   -0.4884 H   0  0  0  0  0  0  0  0  0  0  0  0
  1  2  1  0
  1 28  1  0
  1 29  1  0
  1 30  1  0
  2 13  1  0
  2  3  1  0
  2 31  1  1
  3 12  1  0
  3  4  1  0
  3 32  1  1
  4  5  1  0
  4  6  1  0
  4 49  1  1
  5 33  1  0
  5 34  1  0
  5 35  1  0
  6 11  2  0
  6  7  1  0
  7  8  2  0
  7 36  1  0
  8  9  1  0
  8 37  1  0
  9 10  2  0
  9 38  1  0
 10 11  1  0
 10 39  1  0
 12 11  1  6
 12 18  1  0
 12 13  1  0
 13 14  1  0
 14 15  1  0
 15 16  1  0
 15 18  1  0
 15 40  1  1
 16 17  1  0
 16 41  1  0
 16 42  1  0
 17 43  1  0
 18 27  1  0
 18 19  1  1
 19 20  2  0
 19 21  1  0
 21 22  1  0
 21 44  1  0
 22 27  2  0
 22 23  1  0
 23 24  2  0
 23 45  1  0
 24 25  1  0
 24 46  1  0
 25 26  2  0
 25 47  1  0
 26 27  1  0
 26 48  1  0
M  CHG  1   4   1
M  END
>  <i_m_ct_stereo_status>  (148) 
1

>  <s_m_source_file>  (148) 
/var/tmp/pbs.5076255.sched01/tmpnk13i6y_/41i0yhob8r.sdf

>  <i_m_source_file_index>  (148) 
20

>  <i_lp_mmshare_version>  (148) 
48012

>  <i_f3d_flags>  (148) 
0

>  <s_epik_input>  (148) 
W2NIXTFbY0hdW2NIXVtjSF1jMmMxTihbQ0gzXSlbQ0BIXTNbQ0BASF0oW0NIM10pTjRPW0NAQEhdKFtDSDJdW09IXSlbQ0BAXTUoW0NAXTIzNCljNmMoW05IXUM1PU8pW2NIXVtjSF1bY0hdW2NIXTY=

>  <s_epik_cmdline>  (148) 
J2VwaWtfcHl0aG9uJywgJy1waHQnLCAnMi4wJywgJy1waCcsICc3LjAnLCAnLXRuJywgJzgnLCAnLW1hJywgJzIwMCcsICctaW1hZScsICc8aW5maWxlLm1hZT4nLCAnLW9tYWUnLCAnPG91dGZpbGUubWFlPic=

>  <r_epik_Ionization_Penalty>  (148) 
1.67352

>  <r_epik_Ionization_Penalty_Charging>  (148) 
1.6735

>  <r_epik_Ionization_Penalty_Neutral>  (148) 
1.64456e-05

>  <r_epik_State_Penalty>  (148) 
1.77735

>  <r_epik_Charging_Adjusted_Penalty>  (148) 
3.45085

>  <i_epik_Tot_Q>  (148) 
1

>  <i_epik_Tot_abs_Q>  (148) 
1

>  <s_epik_Chemistry_Notes>  (148) 
This compound has a N-S or N-O group and may undergo hydrolysis at high or low pH.

>  <s_lp_Force_Field>  (148) 
OPLS3e

>  <r_lp_Energy>  (148) 
48.7618

>  <b_lp_Chiralities_Consistent>  (148) 
1

>  <s_lp_Variant>  (148) 
50:0-3

>  <s_i_glide_gridfile>  (148) 
pfpi4k_grid

>  <i_i_glide_lignum>  (148) 
20

>  <i_i_glide_rotatable_bonds>  (148) 
2

>  <r_i_docking_score>  (148) 
-2.67072

>  <r_i_glide_ligand_efficiency>  (148) 
-0.0989155

>  <r_i_glide_ligand_efficiency_sa>  (148) 
-0.296747

>  <r_i_glide_ligand_efficiency_ln>  (148) 
-0.6217

>  <r_i_glide_gscore>  (148) 
-2.67072

>  <r_i_glide_lipo>  (148) 
-0.991619

>  <r_i_glide_hbond>  (148) 
0

>  <r_i_glide_metal>  (148) 
-0

>  <r_i_glide_rewards>  (148) 
-0.974495

>  <r_i_glide_evdw>  (148) 
-25.2403

>  <r_i_glide_ecoul>  (148) 
2.85264

>  <r_i_glide_erotb>  (148) 
0.144763

>  <r_i_glide_esite>  (148) 
-0.0152488

>  <r_i_glide_emodel>  (148) 
-26.3645

>  <r_i_glide_energy>  (148) 
-22.3877

>  <r_i_glide_einternal>  (148) 
0.231515

>  <r_i_glide_intrahb_reward>  (148) 
-0

>  <i_i_glide_confnum>  (148) 
3

>  <i_i_glide_posenum>  (148) 
13

>  <r_i_glide_eff_state_penalty>  (148) 
0

>  <ligand_id>  (148) 
50

>  <original_smiles>  (148) 
CC1C2N(C)c3ccccc3C23N1OC(CO)C31C(=O)Nc2ccccc21

>  <smiles>  (148) 
[H]OC([H])([H])C1([H])ON2C([H])(C([H])([H])[H])C3([H])C2(c2c([H])c([H])c([H])c([H])c2[N+]3([H])C([H])([H])[H])C12C(=O)N([H])c1c([H])c([H])c([H])c([H])c12

$$$$
50:2:1
     RDKit          3D

 49 54  0  0  1  0  0  0  0  0999 V2000
    2.5148   -0.4024    2.4000 C   0  0  0  0  0  0  0  0  0  0  0  0
    2.8763   -1.7524    3.0144 C   0  0  2  0  0  0  0  0  0  0  0  0
    4.1739   -2.5128    2.6296 C   0  0  2  0  0  0  0  0  0  0  0  0
    5.1443   -2.0136    1.5934 N   0  0  2  0  0  0  0  0  0  0  0  0
    5.6740   -0.6470    1.7582 C   0  0  0  0  0  0  0  0  0  0  0  0
    4.5735   -2.3725    0.2565 C   0  0  0  0  0  0  0  0  0  0  0  0
    5.0186   -1.9262   -1.0048 C   0  0  0  0  0  0  0  0  0  0  0  0
    4.2595   -2.3012   -2.1342 C   0  0  0  0  0  0  0  0  0  0  0  0
    3.0799   -3.0626   -1.9785 C   0  0  0  0  0  0  0  0  0  0  0  0
    2.6824   -3.5206   -0.7031 C   0  0  0  0  0  0  0  0  0  0  0  0
    3.4784   -3.1969    0.4202 C   0  0  0  0  0  0  0  0  0  0  0  0
    3.2600   -3.5145    1.8931 C   0  0  2  0  0  0  0  0  0  0  0  0
    2.0820   -2.8401    2.4198 N   0  0  0  0  0  0  0  0  0  0  0  0
    1.5645   -3.7385    3.4892 O   0  0  0  0  0  0  0  0  0  0  0  0
    2.5136   -4.7822    3.7412 C   0  0  1  0  0  0  0  0  0  0  0  0
    1.8635   -6.0471    4.3579 C   0  0  0  0  0  0  0  0  0  0  0  0
    1.5890   -5.8500    5.7277 O   0  0  0  0  0  0  0  0  0  0  0  0
    3.2237   -4.9551    2.3885 C   0  0  1  0  0  0  0  0  0  0  0  0
    2.5073   -5.9127    1.3988 C   0  0  0  0  0  0  0  0  0  0  0  0
    1.3015   -5.8629    1.1167 O   0  0  0  0  0  0  0  0  0  0  0  0
    3.3839   -6.7828    0.8844 N   0  0  0  0  0  0  0  0  0  0  0  0
    4.6328   -6.6553    1.4949 C   0  0  0  0  0  0  0  0  0  0  0  0
    5.7818   -7.4318    1.2747 C   0  0  0  0  0  0  0  0  0  0  0  0
    6.9195   -7.1517    2.0577 C   0  0  0  0  0  0  0  0  0  0  0  0
    6.8826   -6.1534    3.0515 C   0  0  0  0  0  0  0  0  0  0  0  0
    5.7123   -5.3898    3.2605 C   0  0  0  0  0  0  0  0  0  0  0  0
    4.5865   -5.6452    2.4339 C   0  0  0  0  0  0  0  0  0  0  0  0
    3.1594    0.3799    2.8041 H   0  0  0  0  0  0  0  0  0  0  0  0
    1.4879   -0.1207    2.6260 H   0  0  0  0  0  0  0  0  0  0  0  0
    2.6199   -0.4112    1.3176 H   0  0  0  0  0  0  0  0  0  0  0  0
    2.7167   -1.7705    4.0858 H   0  0  0  0  0  0  0  0  0  0  0  0
    4.6610   -2.8835    3.5268 H   0  0  0  0  0  0  0  0  0  0  0  0
    6.5877   -0.5786    1.1568 H   0  0  0  0  0  0  0  0  0  0  0  0
    5.9388   -0.4609    2.8079 H   0  0  0  0  0  0  0  0  0  0  0  0
    4.9690    0.1161    1.4006 H   0  0  0  0  0  0  0  0  0  0  0  0
    5.8957   -1.3135   -1.0967 H   0  0  0  0  0  0  0  0  0  0  0  0
    4.5744   -1.9862   -3.1178 H   0  0  0  0  0  0  0  0  0  0  0  0
    2.4805   -3.3088   -2.8450 H   0  0  0  0  0  0  0  0  0  0  0  0
    1.7603   -4.0619   -0.6096 H   0  0  0  0  0  0  0  0  0  0  0  0
    3.2136   -4.3801    4.4733 H   0  0  0  0  0  0  0  0  0  0  0  0
    0.9740   -6.3884    3.8365 H   0  0  0  0  0  0  0  0  0  0  0  0
    2.5734   -6.8659    4.3145 H   0  0  0  0  0  0  0  0  0  0  0  0
    1.3213   -6.6724    6.1115 H   0  0  0  0  0  0  0  0  0  0  0  0
    3.1836   -7.4867    0.1978 H   0  0  0  0  0  0  0  0  0  0  0  0
    5.7849   -8.2210    0.5460 H   0  0  0  0  0  0  0  0  0  0  0  0
    7.8213   -7.7240    1.9190 H   0  0  0  0  0  0  0  0  0  0  0  0
    7.7479   -5.9683    3.6630 H   0  0  0  0  0  0  0  0  0  0  0  0
    5.6937   -4.6486    4.0336 H   0  0  0  0  0  0  0  0  0  0  0  0
    5.9393   -2.6269    1.7324 H   0  0  0  0  0  0  0  0  0  0  0  0
  1  2  1  0
  1 28  1  0
  1 29  1  0
  1 30  1  0
  2 13  1  0
  2  3  1  0
  2 31  1  1
  3 12  1  0
  3  4  1  0
  3 32  1  1
  4  5  1  0
  4  6  1  0
  4 49  1  1
  5 33  1  0
  5 34  1  0
  5 35  1  0
  6 11  2  0
  6  7  1  0
  7  8  2  0
  7 36  1  0
  8  9  1  0
  8 37  1  0
  9 10  2  0
  9 38  1  0
 10 11  1  0
 10 39  1  0
 12 11  1  6
 12 18  1  0
 12 13  1  0
 13 14  1  0
 14 15  1  0
 15 16  1  0
 15 18  1  0
 15 40  1  1
 16 17  1  0
 16 41  1  0
 16 42  1  0
 17 43  1  0
 18 27  1  0
 18 19  1  6
 19 20  2  0
 19 21  1  0
 21 22  1  0
 21 44  1  0
 22 27  2  0
 22 23  1  0
 23 24  2  0
 23 45  1  0
 24 25  1  0
 24 46  1  0
 25 26  2  0
 25 47  1  0
 26 27  1  0
 26 48  1  0
M  CHG  1   4   1
M  END
>  <i_m_ct_stereo_status>  (149) 
1

>  <s_m_source_file>  (149) 
/var/tmp/pbs.5076255.sched01/tmpnk13i6y_/41i0yhob8r.sdf

>  <i_m_source_file_index>  (149) 
20

>  <i_lp_mmshare_version>  (149) 
48012

>  <i_f3d_flags>  (149) 
0

>  <s_epik_input>  (149) 
W2NIXTFbY0hdW2NIXVtjSF1jMmMxTihbQ0gzXSlbQ0BIXTNbQ0BASF0oW0NIM10pTjRPW0NAQEhdKFtDSDJdW09IXSlbQ0BAXTUoW0NAXTIzNCljNmMoW05IXUM1PU8pW2NIXVtjSF1bY0hdW2NIXTY=

>  <s_epik_cmdline>  (149) 
J2VwaWtfcHl0aG9uJywgJy1waHQnLCAnMi4wJywgJy1waCcsICc3LjAnLCAnLXRuJywgJzgnLCAnLW1hJywgJzIwMCcsICctaW1hZScsICc8aW5maWxlLm1hZT4nLCAnLW9tYWUnLCAnPG91dGZpbGUubWFlPic=

>  <r_epik_Ionization_Penalty>  (149) 
1.67352

>  <r_epik_Ionization_Penalty_Charging>  (149) 
1.6735

>  <r_epik_Ionization_Penalty_Neutral>  (149) 
1.64456e-05

>  <r_epik_State_Penalty>  (149) 
1.77735

>  <r_epik_Charging_Adjusted_Penalty>  (149) 
3.45085

>  <i_epik_Tot_Q>  (149) 
1

>  <i_epik_Tot_abs_Q>  (149) 
1

>  <s_epik_Chemistry_Notes>  (149) 
This compound has a N-S or N-O group and may undergo hydrolysis at high or low pH.

>  <s_lp_Force_Field>  (149) 
OPLS3e

>  <r_lp_Energy>  (149) 
48.7618

>  <b_lp_Chiralities_Consistent>  (149) 
1

>  <s_lp_Variant>  (149) 
50:0-3

>  <s_i_glide_gridfile>  (149) 
pfpi4k_grid

>  <i_i_glide_lignum>  (149) 
20

>  <i_i_glide_rotatable_bonds>  (149) 
2

>  <r_i_docking_score>  (149) 
-2.54262

>  <r_i_glide_ligand_efficiency>  (149) 
-0.0941711

>  <r_i_glide_ligand_efficiency_sa>  (149) 
-0.282513

>  <r_i_glide_ligand_efficiency_ln>  (149) 
-0.59188

>  <r_i_glide_gscore>  (149) 
-2.54262

>  <r_i_glide_lipo>  (149) 
-0.329854

>  <r_i_glide_hbond>  (149) 
-0.154534

>  <r_i_glide_metal>  (149) 
-0

>  <r_i_glide_rewards>  (149) 
-0.924425

>  <r_i_glide_evdw>  (149) 
-22.0226

>  <r_i_glide_ecoul>  (149) 
-1.02775

>  <r_i_glide_erotb>  (149) 
0.144763

>  <r_i_glide_esite>  (149) 
-0.0232765

>  <r_i_glide_emodel>  (149) 
-26.4319

>  <r_i_glide_energy>  (149) 
-23.0504

>  <r_i_glide_einternal>  (149) 
0.5958

>  <r_i_glide_intrahb_reward>  (149) 
-0

>  <i_i_glide_confnum>  (149) 
3

>  <i_i_glide_posenum>  (149) 
1

>  <r_i_glide_eff_state_penalty>  (149) 
0

>  <ligand_id>  (149) 
50

>  <original_smiles>  (149) 
CC1C2N(C)c3ccccc3C23N1OC(CO)C31C(=O)Nc2ccccc21

>  <smiles>  (149) 
[H]OC([H])([H])C1([H])ON2C([H])(C([H])([H])[H])C3([H])C2(c2c([H])c([H])c([H])c([H])c2[N+]3([H])C([H])([H])[H])C12C(=O)N([H])c1c([H])c([H])c([H])c([H])c12

$$$$
50:2:2
     RDKit          3D

 49 54  0  0  1  0  0  0  0  0999 V2000
    2.4869   -0.3710    2.3651 C   0  0  0  0  0  0  0  0  0  0  0  0
    2.8442   -1.7063    3.0105 C   0  0  2  0  0  0  0  0  0  0  0  0
    4.1534   -2.4663    2.6684 C   0  0  2  0  0  0  0  0  0  0  0  0
    5.1483   -1.9830    1.6449 N   0  0  2  0  0  0  0  0  0  0  0  0
    5.6606   -0.6071    1.7930 C   0  0  0  0  0  0  0  0  0  0  0  0
    4.6038   -2.3673    0.3039 C   0  0  0  0  0  0  0  0  0  0  0  0
    5.0719   -1.9419   -0.9566 C   0  0  0  0  0  0  0  0  0  0  0  0
    4.3348   -2.3370   -2.0954 C   0  0  0  0  0  0  0  0  0  0  0  0
    3.1582   -3.1055   -1.9482 C   0  0  0  0  0  0  0  0  0  0  0  0
    2.7359   -3.5394   -0.6715 C   0  0  0  0  0  0  0  0  0  0  0  0
    3.5081   -3.1921    0.4599 C   0  0  0  0  0  0  0  0  0  0  0  0
    3.2572   -3.4860    1.9332 C   0  0  2  0  0  0  0  0  0  0  0  0
    2.0676   -2.8126    2.4268 N   0  0  0  0  0  0  0  0  0  0  0  0
    1.5378   -3.6955    3.5068 O   0  0  0  0  0  0  0  0  0  0  0  0
    2.4934   -4.7238    3.7884 C   0  0  1  0  0  0  0  0  0  0  0  0
    1.8308   -5.9734    4.4098 C   0  0  0  0  0  0  0  0  0  0  0  0
    1.5405   -5.7414    5.7649 O   0  0  0  0  0  0  0  0  0  0  0  0
    3.2227   -4.9185    2.4516 C   0  0  1  0  0  0  0  0  0  0  0  0
    2.5330   -5.9013    1.4696 C   0  0  0  0  0  0  0  0  0  0  0  0
    1.3303   -5.8609    1.1632 O   0  0  0  0  0  0  0  0  0  0  0  0
    3.4202   -6.7758    0.9883 N   0  0  0  0  0  0  0  0  0  0  0  0
    4.6602   -6.6304    1.6201 C   0  0  0  0  0  0  0  0  0  0  0  0
    5.8158   -7.3969    1.4358 C   0  0  0  0  0  0  0  0  0  0  0  0
    6.9393   -7.0987    2.2371 C   0  0  0  0  0  0  0  0  0  0  0  0
    6.8734   -6.0788    3.2102 C   0  0  0  0  0  0  0  0  0  0  0  0
    5.6936   -5.3241    3.3788 C   0  0  0  0  0  0  0  0  0  0  0  0
    4.5909   -5.5963    2.5350 C   0  0  0  0  0  0  0  0  0  0  0  0
    3.1180    0.4264    2.7652 H   0  0  0  0  0  0  0  0  0  0  0  0
    1.4549   -0.0932    2.5629 H   0  0  0  0  0  0  0  0  0  0  0  0
    2.6142   -0.3992    1.2824 H   0  0  0  0  0  0  0  0  0  0  0  0
    2.6654   -1.7024    4.0786 H   0  0  0  0  0  0  0  0  0  0  0  0
    4.6256   -2.8154    3.5822 H   0  0  0  0  0  0  0  0  0  0  0  0
    6.5863   -0.5485    1.2072 H   0  0  0  0  0  0  0  0  0  0  0  0
    5.9026   -0.4007    2.8447 H   0  0  0  0  0  0  0  0  0  0  0  0
    4.9575    0.1437    1.4060 H   0  0  0  0  0  0  0  0  0  0  0  0
    5.9480   -1.3274   -1.0427 H   0  0  0  0  0  0  0  0  0  0  0  0
    4.6733   -2.0446   -3.0786 H   0  0  0  0  0  0  0  0  0  0  0  0
    2.5776   -3.3663   -2.8225 H   0  0  0  0  0  0  0  0  0  0  0  0
    1.8217   -4.0899   -0.5895 H   0  0  0  0  0  0  0  0  0  0  0  0
    3.1809   -4.3072    4.5247 H   0  0  0  0  0  0  0  0  0  0  0  0
    0.9428   -6.3186    3.8903 H   0  0  0  0  0  0  0  0  0  0  0  0
    2.5350   -6.7989    4.3963 H   0  0  0  0  0  0  0  0  0  0  0  0
    0.9131   -5.0374    5.8258 H   0  0  0  0  0  0  0  0  0  0  0  0
    3.2383   -7.4963    0.3133 H   0  0  0  0  0  0  0  0  0  0  0  0
    5.8427   -8.1988    0.7244 H   0  0  0  0  0  0  0  0  0  0  0  0
    7.8467   -7.6652    2.1286 H   0  0  0  0  0  0  0  0  0  0  0  0
    7.7241   -5.8809    3.8406 H   0  0  0  0  0  0  0  0  0  0  0  0
    5.6550   -4.5696    4.1411 H   0  0  0  0  0  0  0  0  0  0  0  0
    5.9402   -2.5880    1.8114 H   0  0  0  0  0  0  0  0  0  0  0  0
  1  2  1  0
  1 28  1  0
  1 29  1  0
  1 30  1  0
  2 13  1  0
  2  3  1  0
  2 31  1  1
  3 12  1  0
  3  4  1  0
  3 32  1  1
  4  5  1  0
  4  6  1  0
  4 49  1  1
  5 33  1  0
  5 34  1  0
  5 35  1  0
  6 11  2  0
  6  7  1  0
  7  8  2  0
  7 36  1  0
  8  9  1  0
  8 37  1  0
  9 10  2  0
  9 38  1  0
 10 11  1  0
 10 39  1  0
 12 11  1  6
 12 18  1  0
 12 13  1  0
 13 14  1  0
 14 15  1  0
 15 16  1  0
 15 18  1  0
 15 40  1  1
 16 17  1  0
 16 41  1  0
 16 42  1  0
 17 43  1  0
 18 27  1  0
 18 19  1  6
 19 20  2  0
 19 21  1  0
 21 22  1  0
 21 44  1  0
 22 27  2  0
 22 23  1  0
 23 24  2  0
 23 45  1  0
 24 25  1  0
 24 46  1  0
 25 26  2  0
 25 47  1  0
 26 27  1  0
 26 48  1  0
M  CHG  1   4   1
M  END
>  <i_m_ct_stereo_status>  (150) 
1

>  <s_m_source_file>  (150) 
/var/tmp/pbs.5076255.sched01/tmpnk13i6y_/41i0yhob8r.sdf

>  <i_m_source_file_index>  (150) 
20

>  <i_lp_mmshare_version>  (150) 
48012

>  <i_f3d_flags>  (150) 
0

>  <s_epik_input>  (150) 
W2NIXTFbY0hdW2NIXVtjSF1jMmMxTihbQ0gzXSlbQ0BIXTNbQ0BASF0oW0NIM10pTjRPW0NAQEhdKFtDSDJdW09IXSlbQ0BAXTUoW0NAXTIzNCljNmMoW05IXUM1PU8pW2NIXVtjSF1bY0hdW2NIXTY=

>  <s_epik_cmdline>  (150) 
J2VwaWtfcHl0aG9uJywgJy1waHQnLCAnMi4wJywgJy1waCcsICc3LjAnLCAnLXRuJywgJzgnLCAnLW1hJywgJzIwMCcsICctaW1hZScsICc8aW5maWxlLm1hZT4nLCAnLW9tYWUnLCAnPG91dGZpbGUubWFlPic=

>  <r_epik_Ionization_Penalty>  (150) 
1.67352

>  <r_epik_Ionization_Penalty_Charging>  (150) 
1.6735

>  <r_epik_Ionization_Penalty_Neutral>  (150) 
1.64456e-05

>  <r_epik_State_Penalty>  (150) 
1.77735

>  <r_epik_Charging_Adjusted_Penalty>  (150) 
3.45085

>  <i_epik_Tot_Q>  (150) 
1

>  <i_epik_Tot_abs_Q>  (150) 
1

>  <s_epik_Chemistry_Notes>  (150) 
This compound has a N-S or N-O group and may undergo hydrolysis at high or low pH.

>  <s_lp_Force_Field>  (150) 
OPLS3e

>  <r_lp_Energy>  (150) 
48.7618

>  <b_lp_Chiralities_Consistent>  (150) 
1

>  <s_lp_Variant>  (150) 
50:0-3

>  <s_i_glide_gridfile>  (150) 
pfpi4k_grid

>  <i_i_glide_lignum>  (150) 
20

>  <i_i_glide_rotatable_bonds>  (150) 
2

>  <r_i_docking_score>  (150) 
-2.51685

>  <r_i_glide_ligand_efficiency>  (150) 
-0.0932166

>  <r_i_glide_ligand_efficiency_sa>  (150) 
-0.27965

>  <r_i_glide_ligand_efficiency_ln>  (150) 
-0.585881

>  <r_i_glide_gscore>  (150) 
-2.51685

>  <r_i_glide_lipo>  (150) 
-0.304635

>  <r_i_glide_hbond>  (150) 
-0.151181

>  <r_i_glide_metal>  (150) 
-0

>  <r_i_glide_rewards>  (150) 
-0.924425

>  <r_i_glide_evdw>  (150) 
-22.0801

>  <r_i_glide_ecoul>  (150) 
-1.03595

>  <r_i_glide_erotb>  (150) 
0.144763

>  <r_i_glide_esite>  (150) 
-0.0219752

>  <r_i_glide_emodel>  (150) 
-26.8349

>  <r_i_glide_energy>  (150) 
-23.116

>  <r_i_glide_einternal>  (150) 
0.235573

>  <r_i_glide_intrahb_reward>  (150) 
-0

>  <i_i_glide_confnum>  (150) 
3

>  <i_i_glide_posenum>  (150) 
7

>  <r_i_glide_eff_state_penalty>  (150) 
0

>  <ligand_id>  (150) 
50

>  <original_smiles>  (150) 
CC1C2N(C)c3ccccc3C23N1OC(CO)C31C(=O)Nc2ccccc21

>  <smiles>  (150) 
[H]OC([H])([H])C1([H])ON2C([H])(C([H])([H])[H])C3([H])C2(c2c([H])c([H])c([H])c([H])c2[N+]3([H])C([H])([H])[H])C12C(=O)N([H])c1c([H])c([H])c([H])c([H])c12

$$$$
51:0:0
     RDKit          3D

 57 60  0  0  1  0  0  0  0  0999 V2000
   -0.3229   -9.7343    2.9128 C   0  0  0  0  0  0  0  0  0  0  0  0
    0.6019   -8.6470    2.3487 C   0  0  2  0  0  0  0  0  0  0  0  0
    2.0890   -9.0749    2.2994 C   0  0  0  0  0  0  0  0  0  0  0  0
    3.0368   -8.4190    3.3259 C   0  0  0  0  0  0  0  0  0  0  0  0
    2.7306   -6.9383    3.6589 C   0  0  1  0  0  0  0  0  0  0  0  0
    3.3103   -5.9030    2.6355 C   0  0  1  0  0  0  0  0  0  0  0  0
    2.7952   -5.9553    1.1746 C   0  0  0  0  0  0  0  0  0  0  0  0
    3.4925   -4.9218    0.2716 C   0  0  0  0  0  0  0  0  0  0  0  0
    3.4695   -3.4677    0.8089 C   0  0  2  0  0  0  0  0  0  0  0  0
    4.2775   -2.5989   -0.0777 N   0  0  0  0  0  0  0  0  0  0  0  0
    3.6259   -2.2406   -1.3404 C   0  0  0  0  0  0  0  0  0  0  0  0
    5.5531   -2.1964    0.1806 C   0  0  0  0  0  0  0  0  0  0  0  0
    6.2122   -1.5106   -0.6002 O   0  0  0  0  0  0  0  0  0  0  0  0
    6.2126   -2.5680    1.5134 C   0  0  0  0  0  0  0  0  0  0  0  0
    5.4326   -3.6030    2.3463 C   0  0  0  0  0  0  0  0  0  0  0  0
    3.8944   -3.3860    2.3049 C   0  0  1  0  0  0  0  0  0  0  0  0
    3.5837   -1.9743    2.8814 C   0  0  0  0  0  0  0  0  0  0  0  0
    3.1474   -4.4634    3.1760 C   0  0  1  0  0  0  0  0  0  0  0  0
    1.6374   -4.1995    3.4209 C   0  0  0  0  0  0  0  0  0  0  0  0
    1.0328   -5.2163    4.4050 C   0  0  0  0  0  0  0  0  0  0  0  0
    1.2522   -6.7239    4.0769 C   0  0  2  0  0  0  0  0  0  0  0  0
    0.9308   -7.4879    5.3865 C   0  0  0  0  0  0  0  0  0  0  0  0
    0.3154   -7.2736    2.9727 C   0  0  0  0  0  0  0  0  0  0  0  0
   -0.6795   -6.6625    2.6065 O   0  0  0  0  0  0  0  0  0  0  0  0
   -1.3709   -9.4611    2.7942 H   0  0  0  0  0  0  0  0  0  0  0  0
   -0.1502   -9.9192    3.9718 H   0  0  0  0  0  0  0  0  0  0  0  0
   -0.1814  -10.6762    2.3876 H   0  0  0  0  0  0  0  0  0  0  0  0
    0.3132   -8.5228    1.3055 H   0  0  0  0  0  0  0  0  0  0  0  0
    2.1648  -10.1566    2.4265 H   0  0  0  0  0  0  0  0  0  0  0  0
    2.4731   -8.9152    1.2946 H   0  0  0  0  0  0  0  0  0  0  0  0
    2.9847   -9.0021    4.2486 H   0  0  0  0  0  0  0  0  0  0  0  0
    4.0717   -8.5251    2.9895 H   0  0  0  0  0  0  0  0  0  0  0  0
    3.3142   -6.7531    4.5619 H   0  0  0  0  0  0  0  0  0  0  0  0
    4.3711   -6.1374    2.5886 H   0  0  0  0  0  0  0  0  0  0  0  0
    2.9846   -6.9354    0.7494 H   0  0  0  0  0  0  0  0  0  0  0  0
    1.7193   -5.8018    1.1238 H   0  0  0  0  0  0  0  0  0  0  0  0
    4.5165   -5.2462    0.0858 H   0  0  0  0  0  0  0  0  0  0  0  0
    2.9927   -4.9471   -0.6994 H   0  0  0  0  0  0  0  0  0  0  0  0
    2.4384   -3.1215    0.7478 H   0  0  0  0  0  0  0  0  0  0  0  0
    4.1431   -1.4606   -1.9019 H   0  0  0  0  0  0  0  0  0  0  0  0
    2.6172   -1.8733   -1.1676 H   0  0  0  0  0  0  0  0  0  0  0  0
    3.5574   -3.1108   -1.9930 H   0  0  0  0  0  0  0  0  0  0  0  0
    7.2196   -2.9322    1.3084 H   0  0  0  0  0  0  0  0  0  0  0  0
    6.3378   -1.6512    2.0917 H   0  0  0  0  0  0  0  0  0  0  0  0
    5.6976   -4.5801    1.9395 H   0  0  0  0  0  0  0  0  0  0  0  0
    5.7912   -3.6074    3.3754 H   0  0  0  0  0  0  0  0  0  0  0  0
    3.7911   -1.9328    3.9529 H   0  0  0  0  0  0  0  0  0  0  0  0
    2.5418   -1.6952    2.7233 H   0  0  0  0  0  0  0  0  0  0  0  0
    4.1628   -1.1785    2.4141 H   0  0  0  0  0  0  0  0  0  0  0  0
    3.6220   -4.4328    4.1603 H   0  0  0  0  0  0  0  0  0  0  0  0
    1.4839   -3.2171    3.8659 H   0  0  0  0  0  0  0  0  0  0  0  0
    1.0747   -4.1949    2.4916 H   0  0  0  0  0  0  0  0  0  0  0  0
    1.4541   -5.0034    5.3851 H   0  0  0  0  0  0  0  0  0  0  0  0
   -0.0318   -5.0080    4.5017 H   0  0  0  0  0  0  0  0  0  0  0  0
    1.5637   -7.1475    6.2063 H   0  0  0  0  0  0  0  0  0  0  0  0
    1.0800   -8.5640    5.3042 H   0  0  0  0  0  0  0  0  0  0  0  0
   -0.1051   -7.3335    5.6922 H   0  0  0  0  0  0  0  0  0  0  0  0
  1  2  1  0
  1 25  1  0
  1 26  1  0
  1 27  1  0
  2 23  1  0
  2  3  1  0
  2 28  1  6
  3  4  1  0
  3 29  1  0
  3 30  1  0
  4  5  1  0
  4 31  1  0
  4 32  1  0
  5 21  1  0
  5  6  1  0
  5 33  1  1
  6 18  1  0
  6  7  1  0
  6 34  1  6
  7  8  1  0
  7 35  1  0
  7 36  1  0
  8  9  1  0
  8 37  1  0
  8 38  1  0
  9 16  1  0
  9 10  1  0
  9 39  1  1
 10 11  1  0
 10 12  1  0
 11 40  1  0
 11 41  1  0
 11 42  1  0
 12 13  2  0
 12 14  1  0
 14 15  1  0
 14 43  1  0
 14 44  1  0
 15 16  1  0
 15 45  1  0
 15 46  1  0
 16 17  1  1
 16 18  1  0
 17 47  1  0
 17 48  1  0
 17 49  1  0
 18 19  1  0
 18 50  1  1
 19 20  1  0
 19 51  1  0
 19 52  1  0
 20 21  1  0
 20 53  1  0
 20 54  1  0
 21 22  1  1
 21 23  1  0
 22 55  1  0
 22 56  1  0
 22 57  1  0
 23 24  2  0
M  END
>  <i_m_ct_stereo_status>  (151) 
1

>  <s_m_source_file>  (151) 
/var/tmp/pbs.5076255.sched01/tmpnk13i6y_/41i0yhob8r.sdf

>  <i_m_source_file_index>  (151) 
21

>  <i_lp_mmshare_version>  (151) 
48012

>  <i_f3d_flags>  (151) 
0

>  <s_epik_input>  (151) 
W0NIMl0xW0NIMl1bQ0BASF0oW0NIM10pQyg9TylbQ0BdKFtDSDNdKShbQ0gyXVtDSDJdW0NAQEhdMjMpW0NAQEhdMVtDQEhdMltDSDJdW0NIMl1bQ0BASF0oW0NAQF0zNFtDSDNdKU4oW0NIM10pQyg9TylbQ0gyXVtDSDJdNA==

>  <s_epik_cmdline>  (151) 
J2VwaWtfcHl0aG9uJywgJy1waHQnLCAnMi4wJywgJy1waCcsICc3LjAnLCAnLXRuJywgJzgnLCAnLW1hJywgJzIwMCcsICctaW1hZScsICc8aW5maWxlLm1hZT4nLCAnLW9tYWUnLCAnPG91dGZpbGUubWFlPic=

>  <r_lp_tautomer_probability>  (151) 
1

>  <r_epik_Ionization_Penalty>  (151) 
1.68683e-07

>  <r_epik_Ionization_Penalty_Charging>  (151) 
0

>  <r_epik_Ionization_Penalty_Neutral>  (151) 
1.68683e-07

>  <r_epik_State_Penalty>  (151) 
-0

>  <r_epik_Charging_Adjusted_Penalty>  (151) 
0

>  <i_epik_Tot_Q>  (151) 
0

>  <i_epik_Tot_abs_Q>  (151) 
0

>  <s_lp_Force_Field>  (151) 
OPLS3e

>  <r_lp_Energy>  (151) 
55.4932

>  <b_lp_Chiralities_Consistent>  (151) 
1

>  <s_lp_Variant>  (151) 
51:0-1

>  <s_i_glide_gridfile>  (151) 
pfpi4k_grid

>  <i_i_glide_lignum>  (151) 
21

>  <i_i_glide_rotatable_bonds>  (151) 
0

>  <r_i_docking_score>  (151) 
-3.56265

>  <r_i_glide_ligand_efficiency>  (151) 
-0.148444

>  <r_i_glide_ligand_efficiency_sa>  (151) 
-0.428186

>  <r_i_glide_ligand_efficiency_ln>  (151) 
-0.852707

>  <r_i_glide_gscore>  (151) 
-3.56265

>  <r_i_glide_lipo>  (151) 
-0.166566

>  <r_i_glide_hbond>  (151) 
-0.259706

>  <r_i_glide_metal>  (151) 
-0

>  <r_i_glide_rewards>  (151) 
-1.17927

>  <r_i_glide_evdw>  (151) 
-18.6415

>  <r_i_glide_ecoul>  (151) 
-6.47709

>  <r_i_glide_erotb>  (151) 
0

>  <r_i_glide_esite>  (151) 
-0.0534758

>  <r_i_glide_emodel>  (151) 
-31.1242

>  <r_i_glide_energy>  (151) 
-25.1186

>  <r_i_glide_einternal>  (151) 
0

>  <r_i_glide_intrahb_reward>  (151) 
-0

>  <i_i_glide_confnum>  (151) 
1

>  <i_i_glide_posenum>  (151) 
36

>  <r_i_glide_eff_state_penalty>  (151) 
0

>  <ligand_id>  (151) 
51

>  <original_smiles>  (151) 
CC1CCC2C3CCC4N(C)C(=O)CCC4(C)C3CCC2(C)C1=O

>  <smiles>  (151) 
[H]C([H])([H])N1C(=O)C([H])([H])C([H])([H])C2(C([H])([H])[H])C1([H])C([H])([H])C([H])([H])C1([H])C3([H])C([H])([H])C([H])([H])C([H])(C([H])([H])[H])C(=O)C3(C([H])([H])[H])C([H])([H])C([H])([H])C12[H]

$$$$
51:0:1
     RDKit          3D

 57 60  0  0  1  0  0  0  0  0999 V2000
   -0.4211   -9.3583    3.2182 C   0  0  0  0  0  0  0  0  0  0  0  0
    0.5317   -8.3807    2.5123 C   0  0  2  0  0  0  0  0  0  0  0  0
    1.8208   -9.0652    1.9854 C   0  0  0  0  0  0  0  0  0  0  0  0
    3.1316   -8.7752    2.7444 C   0  0  0  0  0  0  0  0  0  0  0  0
    3.2704   -7.3404    3.3016 C   0  0  1  0  0  0  0  0  0  0  0  0
    3.7718   -6.2776    2.2676 C   0  0  1  0  0  0  0  0  0  0  0  0
    2.8821   -5.9877    1.0342 C   0  0  0  0  0  0  0  0  0  0  0  0
    3.5265   -4.9761    0.0732 C   0  0  0  0  0  0  0  0  0  0  0  0
    3.9806   -3.6519    0.7379 C   0  0  2  0  0  0  0  0  0  0  0  0
    4.6939   -2.8172   -0.2564 N   0  0  0  0  0  0  0  0  0  0  0  0
    3.8230   -2.1314   -1.2185 C   0  0  0  0  0  0  0  0  0  0  0  0
    6.0471   -2.7072   -0.3503 C   0  0  0  0  0  0  0  0  0  0  0  0
    6.6109   -2.0151   -1.1969 O   0  0  0  0  0  0  0  0  0  0  0  0
    6.9443   -3.4165    0.6745 C   0  0  0  0  0  0  0  0  0  0  0  0
    6.2046   -4.4055    1.5939 C   0  0  0  0  0  0  0  0  0  0  0  0
    4.8031   -3.8960    2.0376 C   0  0  1  0  0  0  0  0  0  0  0  0
    4.9879   -2.5652    2.8230 C   0  0  0  0  0  0  0  0  0  0  0  0
    4.0925   -4.9414    2.9749 C   0  0  1  0  0  0  0  0  0  0  0  0
    2.8015   -4.4433    3.6783 C   0  0  0  0  0  0  0  0  0  0  0  0
    2.2682   -5.4763    4.6875 C   0  0  0  0  0  0  0  0  0  0  0  0
    2.0428   -6.9229    4.1585 C   0  0  2  0  0  0  0  0  0  0  0  0
    1.9249   -7.8195    5.4204 C   0  0  0  0  0  0  0  0  0  0  0  0
    0.7427   -7.0974    3.3362 C   0  0  0  0  0  0  0  0  0  0  0  0
   -0.1510   -6.2586    3.3612 O   0  0  0  0  0  0  0  0  0  0  0  0
   -1.3719   -8.8806    3.4477 H   0  0  0  0  0  0  0  0  0  0  0  0
   -0.0111   -9.7396    4.1515 H   0  0  0  0  0  0  0  0  0  0  0  0
   -0.6426  -10.2164    2.5860 H   0  0  0  0  0  0  0  0  0  0  0  0
    0.0020   -8.0569    1.6176 H   0  0  0  0  0  0  0  0  0  0  0  0
    1.6814  -10.1486    1.9759 H   0  0  0  0  0  0  0  0  0  0  0  0
    1.9481   -8.8207    0.9331 H   0  0  0  0  0  0  0  0  0  0  0  0
    3.2007   -9.4831    3.5729 H   0  0  0  0  0  0  0  0  0  0  0  0
    3.9847   -9.0197    2.1055 H   0  0  0  0  0  0  0  0  0  0  0  0
    4.1007   -7.4182    4.0065 H   0  0  0  0  0  0  0  0  0  0  0  0
    4.6978   -6.6940    1.8827 H   0  0  0  0  0  0  0  0  0  0  0  0
    2.7217   -6.9036    0.4810 H   0  0  0  0  0  0  0  0  0  0  0  0
    1.8975   -5.6274    1.3256 H   0  0  0  0  0  0  0  0  0  0  0  0
    4.3624   -5.4532   -0.4389 H   0  0  0  0  0  0  0  0  0  0  0  0
    2.7993   -4.7494   -0.7075 H   0  0  0  0  0  0  0  0  0  0  0  0
    3.0764   -3.1132    1.0233 H   0  0  0  0  0  0  0  0  0  0  0  0
    4.3370   -1.3880   -1.8283 H   0  0  0  0  0  0  0  0  0  0  0  0
    3.0122   -1.6082   -0.7125 H   0  0  0  0  0  0  0  0  0  0  0  0
    3.3839   -2.8534   -1.9060 H   0  0  0  0  0  0  0  0  0  0  0  0
    7.7567   -3.9237    0.1497 H   0  0  0  0  0  0  0  0  0  0  0  0
    7.4162   -2.6388    1.2738 H   0  0  0  0  0  0  0  0  0  0  0  0
    6.1187   -5.3340    1.0288 H   0  0  0  0  0  0  0  0  0  0  0  0
    6.8245   -4.6502    2.4574 H   0  0  0  0  0  0  0  0  0  0  0  0
    5.4752   -2.7385    3.7830 H   0  0  0  0  0  0  0  0  0  0  0  0
    4.0330   -2.0757    3.0106 H   0  0  0  0  0  0  0  0  0  0  0  0
    5.5849   -1.8267    2.2905 H   0  0  0  0  0  0  0  0  0  0  0  0
    4.8026   -5.1592    3.7739 H   0  0  0  0  0  0  0  0  0  0  0  0
    2.9948   -3.5355    4.2472 H   0  0  0  0  0  0  0  0  0  0  0  0
    2.0263   -4.1730    2.9637 H   0  0  0  0  0  0  0  0  0  0  0  0
    2.9808   -5.5072    5.5114 H   0  0  0  0  0  0  0  0  0  0  0  0
    1.3477   -5.0916    5.1265 H   0  0  0  0  0  0  0  0  0  0  0  0
    2.8159   -7.7426    6.0450 H   0  0  0  0  0  0  0  0  0  0  0  0
    1.8006   -8.8755    5.1870 H   0  0  0  0  0  0  0  0  0  0  0  0
    1.0749   -7.5279    6.0369 H   0  0  0  0  0  0  0  0  0  0  0  0
  1  2  1  0
  1 25  1  0
  1 26  1  0
  1 27  1  0
  2 23  1  0
  2  3  1  0
  2 28  1  6
  3  4  1  0
  3 29  1  0
  3 30  1  0
  4  5  1  0
  4 31  1  0
  4 32  1  0
  5 21  1  0
  5  6  1  0
  5 33  1  1
  6 18  1  0
  6  7  1  0
  6 34  1  6
  7  8  1  0
  7 35  1  0
  7 36  1  0
  8  9  1  0
  8 37  1  0
  8 38  1  0
  9 16  1  0
  9 10  1  0
  9 39  1  1
 10 11  1  0
 10 12  1  0
 11 40  1  0
 11 41  1  0
 11 42  1  0
 12 13  2  0
 12 14  1  0
 14 15  1  0
 14 43  1  0
 14 44  1  0
 15 16  1  0
 15 45  1  0
 15 46  1  0
 16 17  1  1
 16 18  1  0
 17 47  1  0
 17 48  1  0
 17 49  1  0
 18 19  1  0
 18 50  1  1
 19 20  1  0
 19 51  1  0
 19 52  1  0
 20 21  1  0
 20 53  1  0
 20 54  1  0
 21 22  1  1
 21 23  1  0
 22 55  1  0
 22 56  1  0
 22 57  1  0
 23 24  2  0
M  END
>  <i_m_ct_stereo_status>  (152) 
1

>  <s_m_source_file>  (152) 
/var/tmp/pbs.5076255.sched01/tmpnk13i6y_/41i0yhob8r.sdf

>  <i_m_source_file_index>  (152) 
21

>  <i_lp_mmshare_version>  (152) 
48012

>  <i_f3d_flags>  (152) 
0

>  <s_epik_input>  (152) 
W0NIMl0xW0NIMl1bQ0BASF0oW0NIM10pQyg9TylbQ0BdKFtDSDNdKShbQ0gyXVtDSDJdW0NAQEhdMjMpW0NAQEhdMVtDQEhdMltDSDJdW0NIMl1bQ0BASF0oW0NAQF0zNFtDSDNdKU4oW0NIM10pQyg9TylbQ0gyXVtDSDJdNA==

>  <s_epik_cmdline>  (152) 
J2VwaWtfcHl0aG9uJywgJy1waHQnLCAnMi4wJywgJy1waCcsICc3LjAnLCAnLXRuJywgJzgnLCAnLW1hJywgJzIwMCcsICctaW1hZScsICc8aW5maWxlLm1hZT4nLCAnLW9tYWUnLCAnPG91dGZpbGUubWFlPic=

>  <r_lp_tautomer_probability>  (152) 
1

>  <r_epik_Ionization_Penalty>  (152) 
1.68683e-07

>  <r_epik_Ionization_Penalty_Charging>  (152) 
0

>  <r_epik_Ionization_Penalty_Neutral>  (152) 
1.68683e-07

>  <r_epik_State_Penalty>  (152) 
-0

>  <r_epik_Charging_Adjusted_Penalty>  (152) 
0

>  <i_epik_Tot_Q>  (152) 
0

>  <i_epik_Tot_abs_Q>  (152) 
0

>  <s_lp_Force_Field>  (152) 
OPLS3e

>  <r_lp_Energy>  (152) 
55.4932

>  <b_lp_Chiralities_Consistent>  (152) 
1

>  <s_lp_Variant>  (152) 
51:0-1

>  <s_i_glide_gridfile>  (152) 
pfpi4k_grid

>  <i_i_glide_lignum>  (152) 
21

>  <i_i_glide_rotatable_bonds>  (152) 
0

>  <r_i_docking_score>  (152) 
-3.44563

>  <r_i_glide_ligand_efficiency>  (152) 
-0.143568

>  <r_i_glide_ligand_efficiency_sa>  (152) 
-0.414122

>  <r_i_glide_ligand_efficiency_ln>  (152) 
-0.824698

>  <r_i_glide_gscore>  (152) 
-3.44563

>  <r_i_glide_lipo>  (152) 
-0.305802

>  <r_i_glide_hbond>  (152) 
-0.276481

>  <r_i_glide_metal>  (152) 
-0

>  <r_i_glide_rewards>  (152) 
-1.15383

>  <r_i_glide_evdw>  (152) 
-18.8846

>  <r_i_glide_ecoul>  (152) 
-4.8997

>  <r_i_glide_erotb>  (152) 
0

>  <r_i_glide_esite>  (152) 
-0.0303334

>  <r_i_glide_emodel>  (152) 
-29.6079

>  <r_i_glide_energy>  (152) 
-23.7843

>  <r_i_glide_einternal>  (152) 
0

>  <r_i_glide_intrahb_reward>  (152) 
-0

>  <i_i_glide_confnum>  (152) 
2

>  <i_i_glide_posenum>  (152) 
1

>  <r_i_glide_eff_state_penalty>  (152) 
0

>  <ligand_id>  (152) 
51

>  <original_smiles>  (152) 
CC1CCC2C3CCC4N(C)C(=O)CCC4(C)C3CCC2(C)C1=O

>  <smiles>  (152) 
[H]C([H])([H])N1C(=O)C([H])([H])C([H])([H])C2(C([H])([H])[H])C1([H])C([H])([H])C([H])([H])C1([H])C3([H])C([H])([H])C([H])([H])C([H])(C([H])([H])[H])C(=O)C3(C([H])([H])[H])C([H])([H])C([H])([H])C12[H]

$$$$
51:0:2
     RDKit          3D

 57 60  0  0  1  0  0  0  0  0999 V2000
    1.8024   -6.7726    6.0237 C   0  0  0  0  0  0  0  0  0  0  0  0
    2.1588   -6.2935    4.6089 C   0  0  2  0  0  0  0  0  0  0  0  0
    3.4586   -6.9400    4.0625 C   0  0  0  0  0  0  0  0  0  0  0  0
    4.7102   -6.0425    3.9815 C   0  0  0  0  0  0  0  0  0  0  0  0
    4.4429   -4.5692    3.6042 C   0  0  1  0  0  0  0  0  0  0  0  0
    4.2869   -4.2984    2.0701 C   0  0  1  0  0  0  0  0  0  0  0  0
    3.1073   -4.9748    1.3265 C   0  0  0  0  0  0  0  0  0  0  0  0
    3.1173   -4.6645   -0.1791 C   0  0  0  0  0  0  0  0  0  0  0  0
    3.1974   -3.1579   -0.5329 C   0  0  2  0  0  0  0  0  0  0  0  0
    3.3330   -3.0024   -1.9995 N   0  0  0  0  0  0  0  0  0  0  0  0
    2.0957   -3.2076   -2.7533 C   0  0  0  0  0  0  0  0  0  0  0  0
    4.4968   -2.7627   -2.6535 C   0  0  0  0  0  0  0  0  0  0  0  0
    4.5727   -2.6775   -3.8801 O   0  0  0  0  0  0  0  0  0  0  0  0
    5.7889   -2.5327   -1.8542 C   0  0  0  0  0  0  0  0  0  0  0  0
    5.6743   -2.8619   -0.3553 C   0  0  0  0  0  0  0  0  0  0  0  0
    4.3152   -2.4217    0.2607 C   0  0  1  0  0  0  0  0  0  0  0  0
    4.1731   -0.8804    0.0984 C   0  0  0  0  0  0  0  0  0  0  0  0
    4.2511   -2.7774    1.7916 C   0  0  1  0  0  0  0  0  0  0  0  0
    3.0562   -2.1679    2.5726 C   0  0  0  0  0  0  0  0  0  0  0  0
    3.1667   -2.4372    4.0829 C   0  0  0  0  0  0  0  0  0  0  0  0
    3.3680   -3.9181    4.5179 C   0  0  2  0  0  0  0  0  0  0  0  0
    3.8560   -3.8625    5.9898 C   0  0  0  0  0  0  0  0  0  0  0  0
    2.0656   -4.7566    4.4913 C   0  0  0  0  0  0  0  0  0  0  0  0
    0.9589   -4.2221    4.4136 O   0  0  0  0  0  0  0  0  0  0  0  0
    0.8176   -6.4157    6.3187 H   0  0  0  0  0  0  0  0  0  0  0  0
    2.5170   -6.4350    6.7709 H   0  0  0  0  0  0  0  0  0  0  0  0
    1.7701   -7.8604    6.0746 H   0  0  0  0  0  0  0  0  0  0  0  0
    1.3633   -6.6733    3.9681 H   0  0  0  0  0  0  0  0  0  0  0  0
    3.7186   -7.8100    4.6705 H   0  0  0  0  0  0  0  0  0  0  0  0
    3.2550   -7.3691    3.0827 H   0  0  0  0  0  0  0  0  0  0  0  0
    5.2087   -6.0730    4.9523 H   0  0  0  0  0  0  0  0  0  0  0  0
    5.4295   -6.4830    3.2884 H   0  0  0  0  0  0  0  0  0  0  0  0
    5.3761   -4.0630    3.8580 H   0  0  0  0  0  0  0  0  0  0  0  0
    5.1945   -4.7072    1.6353 H   0  0  0  0  0  0  0  0  0  0  0  0
    3.1632   -6.0550    1.4324 H   0  0  0  0  0  0  0  0  0  0  0  0
    2.1488   -4.6762    1.7446 H   0  0  0  0  0  0  0  0  0  0  0  0
    3.9411   -5.2040   -0.6465 H   0  0  0  0  0  0  0  0  0  0  0  0
    2.2062   -5.0819   -0.6072 H   0  0  0  0  0  0  0  0  0  0  0  0
    2.2450   -2.7106   -0.2462 H   0  0  0  0  0  0  0  0  0  0  0  0
    2.1418   -2.9108   -3.7993 H   0  0  0  0  0  0  0  0  0  0  0  0
    1.2677   -2.6680   -2.3088 H   0  0  0  0  0  0  0  0  0  0  0  0
    1.8204   -4.2563   -2.7312 H   0  0  0  0  0  0  0  0  0  0  0  0
    6.5924   -3.1121   -2.3112 H   0  0  0  0  0  0  0  0  0  0  0  0
    6.0667   -1.4856   -1.9759 H   0  0  0  0  0  0  0  0  0  0  0  0
    5.8061   -3.9408   -0.2736 H   0  0  0  0  0  0  0  0  0  0  0  0
    6.5111   -2.4191    0.1872 H   0  0  0  0  0  0  0  0  0  0  0  0
    4.8886   -0.3487    0.7261 H   0  0  0  0  0  0  0  0  0  0  0  0
    3.1687   -0.5457    0.3596 H   0  0  0  0  0  0  0  0  0  0  0  0
    4.3268   -0.5405   -0.9231 H   0  0  0  0  0  0  0  0  0  0  0  0
    5.1455   -2.3447    2.2370 H   0  0  0  0  0  0  0  0  0  0  0  0
    3.0248   -1.0871    2.4573 H   0  0  0  0  0  0  0  0  0  0  0  0
    2.0994   -2.5212    2.1957 H   0  0  0  0  0  0  0  0  0  0  0  0
    4.0013   -1.8406    4.4514 H   0  0  0  0  0  0  0  0  0  0  0  0
    2.2874   -2.0210    4.5708 H   0  0  0  0  0  0  0  0  0  0  0  0
    4.7717   -3.2782    6.0780 H   0  0  0  0  0  0  0  0  0  0  0  0
    4.0704   -4.8446    6.4055 H   0  0  0  0  0  0  0  0  0  0  0  0
    3.1119   -3.3959    6.6364 H   0  0  0  0  0  0  0  0  0  0  0  0
  1  2  1  0
  1 25  1  0
  1 26  1  0
  1 27  1  0
  2 23  1  0
  2  3  1  0
  2 28  1  6
  3  4  1  0
  3 29  1  0
  3 30  1  0
  4  5  1  0
  4 31  1  0
  4 32  1  0
  5 21  1  0
  5  6  1  0
  5 33  1  1
  6 18  1  0
  6  7  1  0
  6 34  1  6
  7  8  1  0
  7 35  1  0
  7 36  1  0
  8  9  1  0
  8 37  1  0
  8 38  1  0
  9 16  1  0
  9 10  1  0
  9 39  1  1
 10 11  1  0
 10 12  1  0
 11 40  1  0
 11 41  1  0
 11 42  1  0
 12 13  2  0
 12 14  1  0
 14 15  1  0
 14 43  1  0
 14 44  1  0
 15 16  1  0
 15 45  1  0
 15 46  1  0
 16 17  1  1
 16 18  1  0
 17 47  1  0
 17 48  1  0
 17 49  1  0
 18 19  1  0
 18 50  1  1
 19 20  1  0
 19 51  1  0
 19 52  1  0
 20 21  1  0
 20 53  1  0
 20 54  1  0
 21 22  1  1
 21 23  1  0
 22 55  1  0
 22 56  1  0
 22 57  1  0
 23 24  2  0
M  END
>  <i_m_ct_stereo_status>  (153) 
1

>  <s_m_source_file>  (153) 
/var/tmp/pbs.5076255.sched01/tmpnk13i6y_/41i0yhob8r.sdf

>  <i_m_source_file_index>  (153) 
21

>  <i_lp_mmshare_version>  (153) 
48012

>  <i_f3d_flags>  (153) 
0

>  <s_epik_input>  (153) 
W0NIMl0xW0NIMl1bQ0BASF0oW0NIM10pQyg9TylbQ0BdKFtDSDNdKShbQ0gyXVtDSDJdW0NAQEhdMjMpW0NAQEhdMVtDQEhdMltDSDJdW0NIMl1bQ0BASF0oW0NAQF0zNFtDSDNdKU4oW0NIM10pQyg9TylbQ0gyXVtDSDJdNA==

>  <s_epik_cmdline>  (153) 
J2VwaWtfcHl0aG9uJywgJy1waHQnLCAnMi4wJywgJy1waCcsICc3LjAnLCAnLXRuJywgJzgnLCAnLW1hJywgJzIwMCcsICctaW1hZScsICc8aW5maWxlLm1hZT4nLCAnLW9tYWUnLCAnPG91dGZpbGUubWFlPic=

>  <r_lp_tautomer_probability>  (153) 
1

>  <r_epik_Ionization_Penalty>  (153) 
1.68683e-07

>  <r_epik_Ionization_Penalty_Charging>  (153) 
0

>  <r_epik_Ionization_Penalty_Neutral>  (153) 
1.68683e-07

>  <r_epik_State_Penalty>  (153) 
-0

>  <r_epik_Charging_Adjusted_Penalty>  (153) 
0

>  <i_epik_Tot_Q>  (153) 
0

>  <i_epik_Tot_abs_Q>  (153) 
0

>  <s_lp_Force_Field>  (153) 
OPLS3e

>  <r_lp_Energy>  (153) 
55.4932

>  <b_lp_Chiralities_Consistent>  (153) 
1

>  <s_lp_Variant>  (153) 
51:0-1

>  <s_i_glide_gridfile>  (153) 
pfpi4k_grid

>  <i_i_glide_lignum>  (153) 
21

>  <i_i_glide_rotatable_bonds>  (153) 
0

>  <r_i_docking_score>  (153) 
-2.9891

>  <r_i_glide_ligand_efficiency>  (153) 
-0.124546

>  <r_i_glide_ligand_efficiency_sa>  (153) 
-0.359252

>  <r_i_glide_ligand_efficiency_ln>  (153) 
-0.715429

>  <r_i_glide_gscore>  (153) 
-2.9891

>  <r_i_glide_lipo>  (153) 
-0.270626

>  <r_i_glide_hbond>  (153) 
-0.0901676

>  <r_i_glide_metal>  (153) 
-0

>  <r_i_glide_rewards>  (153) 
-1.26537

>  <r_i_glide_evdw>  (153) 
-20.0828

>  <r_i_glide_ecoul>  (153) 
-2.28616

>  <r_i_glide_erotb>  (153) 
0

>  <r_i_glide_esite>  (153) 
-0.0158719

>  <r_i_glide_emodel>  (153) 
-27.3594

>  <r_i_glide_energy>  (153) 
-22.369

>  <r_i_glide_einternal>  (153) 
0

>  <r_i_glide_intrahb_reward>  (153) 
-0

>  <i_i_glide_confnum>  (153) 
2

>  <i_i_glide_posenum>  (153) 
12

>  <r_i_glide_eff_state_penalty>  (153) 
0

>  <ligand_id>  (153) 
51

>  <original_smiles>  (153) 
CC1CCC2C3CCC4N(C)C(=O)CCC4(C)C3CCC2(C)C1=O

>  <smiles>  (153) 
[H]C([H])([H])N1C(=O)C([H])([H])C([H])([H])C2(C([H])([H])[H])C1([H])C([H])([H])C([H])([H])C1([H])C3([H])C([H])([H])C([H])([H])C([H])(C([H])([H])[H])C(=O)C3(C([H])([H])[H])C([H])([H])C([H])([H])C12[H]

$$$$
52:0:0
     RDKit          3D

 13 14  0  0  1  0  0  0  0  0999 V2000
    0.6257  -11.3131    3.4016 F   0  0  0  0  0  0  0  0  0  0  0  0
    0.5676  -10.0481    2.9243 C   0  0  0  0  0  0  0  0  0  0  0  0
   -0.6632   -9.3422    2.8831 C   0  0  0  0  0  0  0  0  0  0  0  0
   -0.8030   -8.0960    2.4292 N   0  0  0  0  0  0  0  0  0  0  0  0
    0.3130   -7.5009    1.9688 C   0  0  0  0  0  0  0  0  0  0  0  0
    0.4842   -6.2848    1.4486 N   0  0  0  0  0  0  0  0  0  0  0  0
    1.8273   -6.2458    1.1974 C   0  0  0  0  0  0  0  0  0  0  0  0
    2.5234   -7.3299    1.5138 N   0  0  0  0  0  0  0  0  0  0  0  0
    1.5598   -8.1514    1.9981 N   0  0  0  0  0  0  0  0  0  0  0  0
    1.7031   -9.4214    2.4680 C   0  0  0  0  0  0  0  0  0  0  0  0
   -1.5654   -9.8294    3.2420 H   0  0  0  0  0  0  0  0  0  0  0  0
    2.3120   -5.3815    0.7645 H   0  0  0  0  0  0  0  0  0  0  0  0
    2.6900   -9.8742    2.4534 H   0  0  0  0  0  0  0  0  0  0  0  0
  1  2  1  0
  2 10  2  0
  2  3  1  0
  3  4  2  0
  3 11  1  0
  4  5  1  0
  5  9  1  0
  5  6  2  0
  6  7  1  0
  7  8  2  0
  7 12  1  0
  8  9  1  0
  9 10  1  0
 10 13  1  0
M  END
>  <i_m_ct_stereo_status>  (154) 
1

>  <s_m_source_file>  (154) 
/var/tmp/pbs.5076255.sched01/tmpnk13i6y_/41i0yhob8r.sdf

>  <i_m_source_file_index>  (154) 
22

>  <i_lp_mmshare_version>  (154) 
48012

>  <i_f3d_flags>  (154) 
0

>  <s_epik_input>  (154) 
bjFbY0hdYyhGKVtjSF1uKGMxMiluW2NIXW4y

>  <s_epik_cmdline>  (154) 
J2VwaWtfcHl0aG9uJywgJy1waHQnLCAnMi4wJywgJy1waCcsICc3LjAnLCAnLXRuJywgJzgnLCAnLW1hJywgJzIwMCcsICctaW1hZScsICc8aW5maWxlLm1hZT4nLCAnLW9tYWUnLCAnPG91dGZpbGUubWFlPic=

>  <r_lp_tautomer_probability>  (154) 
1

>  <r_epik_Ionization_Penalty>  (154) 
8.84582e-09

>  <r_epik_Ionization_Penalty_Charging>  (154) 
0

>  <r_epik_Ionization_Penalty_Neutral>  (154) 
8.84582e-09

>  <r_epik_State_Penalty>  (154) 
-0

>  <r_epik_Charging_Adjusted_Penalty>  (154) 
0

>  <i_epik_Tot_Q>  (154) 
0

>  <i_epik_Tot_abs_Q>  (154) 
0

>  <s_lp_Force_Field>  (154) 
OPLS3e

>  <r_lp_Energy>  (154) 
14.3656

>  <b_lp_Chiralities_Consistent>  (154) 
1

>  <s_lp_Variant>  (154) 
52:0-1

>  <s_i_glide_gridfile>  (154) 
pfpi4k_grid

>  <i_i_glide_lignum>  (154) 
22

>  <i_i_glide_rotatable_bonds>  (154) 
0

>  <r_i_docking_score>  (154) 
-4.48979

>  <r_i_glide_ligand_efficiency>  (154) 
-0.448979

>  <r_i_glide_ligand_efficiency_sa>  (154) 
-0.967296

>  <r_i_glide_ligand_efficiency_ln>  (154) 
-1.35948

>  <r_i_glide_gscore>  (154) 
-4.48979

>  <r_i_glide_lipo>  (154) 
-0.127223

>  <r_i_glide_hbond>  (154) 
-0.164422

>  <r_i_glide_metal>  (154) 
-0

>  <r_i_glide_rewards>  (154) 
-2.40861

>  <r_i_glide_evdw>  (154) 
-14.3414

>  <r_i_glide_ecoul>  (154) 
-6.20654

>  <r_i_glide_erotb>  (154) 
0

>  <r_i_glide_esite>  (154) 
-0.141489

>  <r_i_glide_emodel>  (154) 
-27.2966

>  <r_i_glide_energy>  (154) 
-20.548

>  <r_i_glide_einternal>  (154) 
0

>  <r_i_glide_intrahb_reward>  (154) 
-0

>  <i_i_glide_confnum>  (154) 
1

>  <i_i_glide_posenum>  (154) 
5

>  <r_i_glide_eff_state_penalty>  (154) 
0

>  <ligand_id>  (154) 
52

>  <original_smiles>  (154) 
Fc1cnc2ncnn2c1

>  <smiles>  (154) 
[H]c1nc2nc([H])c(F)c([H])n2n1

$$$$
52:0:1
     RDKit          3D

 13 14  0  0  1  0  0  0  0  0999 V2000
   -1.8324    4.5345    4.0788 F   0  0  0  0  0  0  0  0  0  0  0  0
   -1.7393    3.2853    4.5959 C   0  0  0  0  0  0  0  0  0  0  0  0
   -2.2375    2.9975    5.8920 C   0  0  0  0  0  0  0  0  0  0  0  0
   -2.1822    1.8076    6.4801 N   0  0  0  0  0  0  0  0  0  0  0  0
   -1.6142    0.8215    5.7655 C   0  0  0  0  0  0  0  0  0  0  0  0
   -1.4355   -0.4587    6.0779 N   0  0  0  0  0  0  0  0  0  0  0  0
   -0.8000   -0.9626    4.9792 C   0  0  0  0  0  0  0  0  0  0  0  0
   -0.5800   -0.1116    3.9845 N   0  0  0  0  0  0  0  0  0  0  0  0
   -1.1007    1.0425    4.4760 N   0  0  0  0  0  0  0  0  0  0  0  0
   -1.1532    2.2661    3.8796 C   0  0  0  0  0  0  0  0  0  0  0  0
   -2.7056    3.7886    6.4658 H   0  0  0  0  0  0  0  0  0  0  0  0
   -0.4978   -1.9997    4.9073 H   0  0  0  0  0  0  0  0  0  0  0  0
   -0.7336    2.3715    2.8837 H   0  0  0  0  0  0  0  0  0  0  0  0
  1  2  1  0
  2 10  2  0
  2  3  1  0
  3  4  2  0
  3 11  1  0
  4  5  1  0
  5  9  1  0
  5  6  2  0
  6  7  1  0
  7  8  2  0
  7 12  1  0
  8  9  1  0
  9 10  1  0
 10 13  1  0
M  END
>  <i_m_ct_stereo_status>  (155) 
1

>  <s_m_source_file>  (155) 
/var/tmp/pbs.5076255.sched01/tmpnk13i6y_/41i0yhob8r.sdf

>  <i_m_source_file_index>  (155) 
22

>  <i_lp_mmshare_version>  (155) 
48012

>  <i_f3d_flags>  (155) 
0

>  <s_epik_input>  (155) 
bjFbY0hdYyhGKVtjSF1uKGMxMiluW2NIXW4y

>  <s_epik_cmdline>  (155) 
J2VwaWtfcHl0aG9uJywgJy1waHQnLCAnMi4wJywgJy1waCcsICc3LjAnLCAnLXRuJywgJzgnLCAnLW1hJywgJzIwMCcsICctaW1hZScsICc8aW5maWxlLm1hZT4nLCAnLW9tYWUnLCAnPG91dGZpbGUubWFlPic=

>  <r_lp_tautomer_probability>  (155) 
1

>  <r_epik_Ionization_Penalty>  (155) 
8.84582e-09

>  <r_epik_Ionization_Penalty_Charging>  (155) 
0

>  <r_epik_Ionization_Penalty_Neutral>  (155) 
8.84582e-09

>  <r_epik_State_Penalty>  (155) 
-0

>  <r_epik_Charging_Adjusted_Penalty>  (155) 
0

>  <i_epik_Tot_Q>  (155) 
0

>  <i_epik_Tot_abs_Q>  (155) 
0

>  <s_lp_Force_Field>  (155) 
OPLS3e

>  <r_lp_Energy>  (155) 
14.3656

>  <b_lp_Chiralities_Consistent>  (155) 
1

>  <s_lp_Variant>  (155) 
52:0-1

>  <s_i_glide_gridfile>  (155) 
pfpi4k_grid

>  <i_i_glide_lignum>  (155) 
22

>  <i_i_glide_rotatable_bonds>  (155) 
0

>  <r_i_docking_score>  (155) 
-3.87255

>  <r_i_glide_ligand_efficiency>  (155) 
-0.387255

>  <r_i_glide_ligand_efficiency_sa>  (155) 
-0.834317

>  <r_i_glide_ligand_efficiency_ln>  (155) 
-1.17258

>  <r_i_glide_gscore>  (155) 
-3.87255

>  <r_i_glide_lipo>  (155) 
-0.0532761

>  <r_i_glide_hbond>  (155) 
-0.102002

>  <r_i_glide_metal>  (155) 
-0

>  <r_i_glide_rewards>  (155) 
-2.25

>  <r_i_glide_evdw>  (155) 
-11.5176

>  <r_i_glide_ecoul>  (155) 
-4.60865

>  <r_i_glide_erotb>  (155) 
0

>  <r_i_glide_esite>  (155) 
-0.2001

>  <r_i_glide_emodel>  (155) 
-21.9485

>  <r_i_glide_energy>  (155) 
-16.1262

>  <r_i_glide_einternal>  (155) 
0

>  <r_i_glide_intrahb_reward>  (155) 
-0

>  <i_i_glide_confnum>  (155) 
2

>  <i_i_glide_posenum>  (155) 
14

>  <r_i_glide_eff_state_penalty>  (155) 
0

>  <ligand_id>  (155) 
52

>  <original_smiles>  (155) 
Fc1cnc2ncnn2c1

>  <smiles>  (155) 
[H]c1nc2nc([H])c(F)c([H])n2n1

$$$$
52:0:2
     RDKit          3D

 13 14  0  0  1  0  0  0  0  0999 V2000
    1.8054   -3.8757    4.0892 F   0  0  0  0  0  0  0  0  0  0  0  0
    0.9068   -2.9878    4.5763 C   0  0  0  0  0  0  0  0  0  0  0  0
    0.1999   -3.2561    5.7746 C   0  0  0  0  0  0  0  0  0  0  0  0
   -0.7042   -2.4439    6.3203 N   0  0  0  0  0  0  0  0  0  0  0  0
   -0.9354   -1.2880    5.6723 C   0  0  0  0  0  0  0  0  0  0  0  0
   -1.7702   -0.2951    5.9710 N   0  0  0  0  0  0  0  0  0  0  0  0
   -1.5704    0.5923    4.9513 C   0  0  0  0  0  0  0  0  0  0  0  0
   -0.6831    0.2408    4.0280 N   0  0  0  0  0  0  0  0  0  0  0  0
   -0.2657   -0.9665    4.4806 N   0  0  0  0  0  0  0  0  0  0  0  0
    0.6554   -1.8011    3.9230 C   0  0  0  0  0  0  0  0  0  0  0  0
    0.3870   -4.1856    6.3003 H   0  0  0  0  0  0  0  0  0  0  0  0
   -2.1055    1.5300    4.8907 H   0  0  0  0  0  0  0  0  0  0  0  0
    1.1349   -1.4925    3.0008 H   0  0  0  0  0  0  0  0  0  0  0  0
  1  2  1  0
  2 10  2  0
  2  3  1  0
  3  4  2  0
  3 11  1  0
  4  5  1  0
  5  9  1  0
  5  6  2  0
  6  7  1  0
  7  8  2  0
  7 12  1  0
  8  9  1  0
  9 10  1  0
 10 13  1  0
M  END
>  <i_m_ct_stereo_status>  (156) 
1

>  <s_m_source_file>  (156) 
/var/tmp/pbs.5076255.sched01/tmpnk13i6y_/41i0yhob8r.sdf

>  <i_m_source_file_index>  (156) 
22

>  <i_lp_mmshare_version>  (156) 
48012

>  <i_f3d_flags>  (156) 
0

>  <s_epik_input>  (156) 
bjFbY0hdYyhGKVtjSF1uKGMxMiluW2NIXW4y

>  <s_epik_cmdline>  (156) 
J2VwaWtfcHl0aG9uJywgJy1waHQnLCAnMi4wJywgJy1waCcsICc3LjAnLCAnLXRuJywgJzgnLCAnLW1hJywgJzIwMCcsICctaW1hZScsICc8aW5maWxlLm1hZT4nLCAnLW9tYWUnLCAnPG91dGZpbGUubWFlPic=

>  <r_lp_tautomer_probability>  (156) 
1

>  <r_epik_Ionization_Penalty>  (156) 
8.84582e-09

>  <r_epik_Ionization_Penalty_Charging>  (156) 
0

>  <r_epik_Ionization_Penalty_Neutral>  (156) 
8.84582e-09

>  <r_epik_State_Penalty>  (156) 
-0

>  <r_epik_Charging_Adjusted_Penalty>  (156) 
0

>  <i_epik_Tot_Q>  (156) 
0

>  <i_epik_Tot_abs_Q>  (156) 
0

>  <s_lp_Force_Field>  (156) 
OPLS3e

>  <r_lp_Energy>  (156) 
14.3656

>  <b_lp_Chiralities_Consistent>  (156) 
1

>  <s_lp_Variant>  (156) 
52:0-1

>  <s_i_glide_gridfile>  (156) 
pfpi4k_grid

>  <i_i_glide_lignum>  (156) 
22

>  <i_i_glide_rotatable_bonds>  (156) 
0

>  <r_i_docking_score>  (156) 
-3.7514

>  <r_i_glide_ligand_efficiency>  (156) 
-0.37514

>  <r_i_glide_ligand_efficiency_sa>  (156) 
-0.808215

>  <r_i_glide_ligand_efficiency_ln>  (156) 
-1.1359

>  <r_i_glide_gscore>  (156) 
-3.7514

>  <r_i_glide_lipo>  (156) 
-0.0228983

>  <r_i_glide_hbond>  (156) 
-0.136113

>  <r_i_glide_metal>  (156) 
-0

>  <r_i_glide_rewards>  (156) 
-2.2554

>  <r_i_glide_evdw>  (156) 
-9.53768

>  <r_i_glide_ecoul>  (156) 
-5.04721

>  <r_i_glide_erotb>  (156) 
0

>  <r_i_glide_esite>  (156) 
-0.10303

>  <r_i_glide_emodel>  (156) 
-20.2253

>  <r_i_glide_energy>  (156) 
-14.5849

>  <r_i_glide_einternal>  (156) 
0

>  <r_i_glide_intrahb_reward>  (156) 
-0

>  <i_i_glide_confnum>  (156) 
1

>  <i_i_glide_posenum>  (156) 
3

>  <r_i_glide_eff_state_penalty>  (156) 
0

>  <ligand_id>  (156) 
52

>  <original_smiles>  (156) 
Fc1cnc2ncnn2c1

>  <smiles>  (156) 
[H]c1nc2nc([H])c(F)c([H])n2n1

$$$$
53:0:0
     RDKit          3D

 43 48  0  0  1  0  0  0  0  0999 V2000
    4.3968   -7.1573    0.8343 C   0  0  0  0  0  0  0  0  0  0  0  0
    3.6117   -6.0701    1.5451 C   0  0  0  0  0  0  0  0  0  0  0  0
    3.9824   -4.8653    1.9972 C   0  0  0  0  0  0  0  0  0  0  0  0
    2.8090   -4.2099    2.6930 C   0  0  1  0  0  0  0  0  0  0  0  0
    2.3620   -2.8325    2.1622 C   0  0  0  0  0  0  0  0  0  0  0  0
    3.3016   -2.0377    1.2375 C   0  0  2  0  0  0  0  0  0  0  0  0
    3.5578   -2.6451   -0.1520 C   0  0  0  0  0  0  0  0  0  0  0  0
    5.0830   -2.7202   -0.1929 C   0  0  1  0  0  0  0  0  0  0  0  0
    5.4429   -1.5990    0.5993 O   0  0  0  0  0  0  0  0  0  0  0  0
    4.6971   -1.6899    1.7940 C   0  0  1  0  0  0  0  0  0  0  0  0
    4.7794   -0.3099    2.4679 C   0  0  0  0  0  0  0  0  0  0  0  0
    5.4235   -2.8012    2.5890 C   0  0  1  0  0  0  0  0  0  0  0  0
    5.0166   -2.7887    4.3359 Cl  0  0  0  0  0  0  0  0  0  0  0  0
    5.3731   -4.2125    1.9278 C   0  0  1  0  0  0  0  0  0  0  0  0
    6.3594   -5.1823    2.6303 C   0  0  0  0  0  0  0  0  0  0  0  0
    5.7152   -4.0048    0.4121 C   0  0  2  0  0  0  0  0  0  0  0  0
    7.1550   -3.8526   -0.1010 C   0  0  0  0  0  0  0  0  0  0  0  0
    8.1725   -4.2073    0.4945 O   0  0  0  0  0  0  0  0  0  0  0  0
    7.1029   -3.2614   -1.4545 C   0  0  2  0  0  0  0  0  0  0  0  0
    7.0183   -1.8641   -1.5143 O   0  0  0  0  0  0  0  0  0  0  0  0
    5.7620   -2.5524   -1.5204 C   0  0  2  0  0  0  0  0  0  0  0  0
    1.7759   -5.1704    2.5182 O   0  0  0  0  0  0  0  0  0  0  0  0
    2.1958   -6.2595    1.8628 C   0  0  0  0  0  0  0  0  0  0  0  0
    1.5011   -7.2240    1.5699 O   0  0  0  0  0  0  0  0  0  0  0  0
    3.8570   -7.4173   -0.0672 H   0  0  0  0  0  0  0  0  0  0  0  0
    4.4628   -8.0572    1.4503 H   0  0  0  0  0  0  0  0  0  0  0  0
    5.3973   -6.8723    0.5202 H   0  0  0  0  0  0  0  0  0  0  0  0
    3.0128   -4.1618    3.7570 H   0  0  0  0  0  0  0  0  0  0  0  0
    1.4368   -2.9558    1.6195 H   0  0  0  0  0  0  0  0  0  0  0  0
    2.0814   -2.2117    3.0148 H   0  0  0  0  0  0  0  0  0  0  0  0
    2.7911   -1.0911    1.0477 H   0  0  0  0  0  0  0  0  0  0  0  0
    3.0669   -3.5967   -0.3393 H   0  0  0  0  0  0  0  0  0  0  0  0
    3.2063   -1.9410   -0.9066 H   0  0  0  0  0  0  0  0  0  0  0  0
    4.1746   -0.2616    3.3733 H   0  0  0  0  0  0  0  0  0  0  0  0
    4.4257    0.4756    1.7969 H   0  0  0  0  0  0  0  0  0  0  0  0
    5.8077   -0.0647    2.7435 H   0  0  0  0  0  0  0  0  0  0  0  0
    6.4613   -2.4856    2.5545 H   0  0  0  0  0  0  0  0  0  0  0  0
    7.3430   -4.7511    2.7044 H   0  0  0  0  0  0  0  0  0  0  0  0
    6.5308   -6.1182    2.1099 H   0  0  0  0  0  0  0  0  0  0  0  0
    6.0257   -5.4170    3.6479 H   0  0  0  0  0  0  0  0  0  0  0  0
    5.3343   -4.8545   -0.1471 H   0  0  0  0  0  0  0  0  0  0  0  0
    7.5077   -3.7504   -2.3314 H   0  0  0  0  0  0  0  0  0  0  0  0
    5.1864   -2.5482   -2.4538 H   0  0  0  0  0  0  0  0  0  0  0  0
  1  2  1  0
  1 25  1  0
  1 26  1  0
  1 27  1  0
  2 23  1  0
  2  3  2  0
  3 14  1  0
  3  4  1  0
  4  5  1  0
  4 22  1  0
  4 28  1  1
  5  6  1  0
  5 29  1  0
  5 30  1  0
  6 10  1  0
  6  7  1  0
  6 31  1  6
  8  7  1  6
  7 32  1  0
  7 33  1  0
  8 16  1  0
  8 21  1  0
  8  9  1  0
  9 10  1  0
 10 11  1  1
 10 12  1  0
 11 34  1  0
 11 35  1  0
 11 36  1  0
 12 13  1  0
 12 14  1  0
 12 37  1  1
 14 15  1  1
 14 16  1  0
 15 38  1  0
 15 39  1  0
 15 40  1  0
 16 17  1  0
 16 41  1  6
 17 18  2  0
 17 19  1  0
 19 21  1  0
 19 20  1  0
 19 42  1  6
 20 21  1  0
 21 43  1  6
 22 23  1  0
 23 24  2  0
M  END
>  <i_m_ct_stereo_status>  (157) 
1

>  <s_m_source_file>  (157) 
/var/tmp/pbs.5076255.sched01/tmpnk13i6y_/41i0yhob8r.sdf

>  <i_m_source_file_index>  (157) 
23

>  <i_lp_mmshare_version>  (157) 
48012

>  <i_f3d_flags>  (157) 
0

>  <s_epik_input>  (157) 
Q2xbQ0BASF0xW0NAXShPMikoW0NIM10pW0NAQEhdKFtDSDJdMylbQ0gyXVtDQEBIXShPQyg9TylDPTRbQ0gzXSlDNFtDQEBdMShbQ0gzXSlbQ0BASF0oW0NAXTIzNSlDKD1PKVtDQEhdNltDQEBIXTVPNg==

>  <s_epik_cmdline>  (157) 
J2VwaWtfcHl0aG9uJywgJy1waHQnLCAnMi4wJywgJy1waCcsICc3LjAnLCAnLXRuJywgJzgnLCAnLW1hJywgJzIwMCcsICctaW1hZScsICc8aW5maWxlLm1hZT4nLCAnLW9tYWUnLCAnPG91dGZpbGUubWFlPic=

>  <r_lp_tautomer_probability>  (157) 
1

>  <r_epik_Ionization_Penalty>  (157) 
2.19731e-09

>  <r_epik_Ionization_Penalty_Charging>  (157) 
0

>  <r_epik_Ionization_Penalty_Neutral>  (157) 
2.19731e-09

>  <r_epik_State_Penalty>  (157) 
-0

>  <r_epik_Charging_Adjusted_Penalty>  (157) 
0

>  <i_epik_Tot_Q>  (157) 
0

>  <i_epik_Tot_abs_Q>  (157) 
0

>  <s_epik_Chemistry_Notes>  (157) 
This compound has an ester and may undergo hydrolysis at high or low pH.

>  <s_lp_Force_Field>  (157) 
OPLS3e

>  <r_lp_Energy>  (157) 
23.8821

>  <b_lp_Chiralities_Consistent>  (157) 
1

>  <s_lp_Variant>  (157) 
53:0-1

>  <s_i_glide_gridfile>  (157) 
pfpi4k_grid

>  <i_i_glide_lignum>  (157) 
23

>  <i_i_glide_rotatable_bonds>  (157) 
0

>  <r_i_docking_score>  (157) 
-3.54876

>  <r_i_glide_ligand_efficiency>  (157) 
-0.147865

>  <r_i_glide_ligand_efficiency_sa>  (157) 
-0.426516

>  <r_i_glide_ligand_efficiency_ln>  (157) 
-0.849381

>  <r_i_glide_gscore>  (157) 
-3.54876

>  <r_i_glide_lipo>  (157) 
-0.648758

>  <r_i_glide_hbond>  (157) 
-0.132396

>  <r_i_glide_metal>  (157) 
-0

>  <r_i_glide_rewards>  (157) 
-1.17727

>  <r_i_glide_evdw>  (157) 
-15.5719

>  <r_i_glide_ecoul>  (157) 
-5.29691

>  <r_i_glide_erotb>  (157) 
0

>  <r_i_glide_esite>  (157) 
-0.0172069

>  <r_i_glide_emodel>  (157) 
-24.7559

>  <r_i_glide_energy>  (157) 
-20.8688

>  <r_i_glide_einternal>  (157) 
0

>  <r_i_glide_intrahb_reward>  (157) 
-0

>  <i_i_glide_confnum>  (157) 
1

>  <i_i_glide_posenum>  (157) 
29

>  <r_i_glide_eff_state_penalty>  (157) 
0

>  <ligand_id>  (157) 
53

>  <original_smiles>  (157) 
CC1=C2C(CC3CC45OC3(C)C(Cl)C2(C)C4C(=O)C2OC25)OC1=O

>  <smiles>  (157) 
[H]C([H])([H])C1=C2C([H])(OC1=O)C([H])([H])C1([H])C([H])([H])C34OC1(C([H])([H])[H])C([H])(Cl)C2(C([H])([H])[H])C3([H])C(=O)C1([H])OC14[H]

$$$$
53:0:1
     RDKit          3D

 43 48  0  0  1  0  0  0  0  0999 V2000
    5.1465   -3.8808   -2.3037 C   0  0  0  0  0  0  0  0  0  0  0  0
    5.4715   -3.0364   -1.0957 C   0  0  0  0  0  0  0  0  0  0  0  0
    4.7771   -2.7991    0.0265 C   0  0  0  0  0  0  0  0  0  0  0  0
    5.4590   -1.6939    0.7773 C   0  0  1  0  0  0  0  0  0  0  0  0
    5.8302   -2.0382    2.2105 C   0  0  0  0  0  0  0  0  0  0  0  0
    5.2032   -3.2578    2.9151 C   0  0  2  0  0  0  0  0  0  0  0  0
    5.5969   -4.6356    2.3803 C   0  0  0  0  0  0  0  0  0  0  0  0
    4.2267   -5.2627    2.0798 C   0  0  1  0  0  0  0  0  0  0  0  0
    3.4061   -4.6500    3.0772 O   0  0  0  0  0  0  0  0  0  0  0  0
    3.6599   -3.2632    3.0230 C   0  0  1  0  0  0  0  0  0  0  0  0
    3.1251   -2.6806    4.3390 C   0  0  0  0  0  0  0  0  0  0  0  0
    2.8628   -2.8003    1.7641 C   0  0  1  0  0  0  0  0  0  0  0  0
    2.6129   -1.0256    1.7352 Cl  0  0  0  0  0  0  0  0  0  0  0  0
    3.4462   -3.4136    0.4403 C   0  0  1  0  0  0  0  0  0  0  0  0
    2.5150   -3.1296   -0.7325 C   0  0  0  0  0  0  0  0  0  0  0  0
    3.6704   -4.9350    0.6741 C   0  0  2  0  0  0  0  0  0  0  0  0
    2.5242   -5.9402    0.6338 C   0  0  0  0  0  0  0  0  0  0  0  0
    1.4326   -5.7775    0.0839 O   0  0  0  0  0  0  0  0  0  0  0  0
    2.9607   -7.1988    1.3497 C   0  0  2  0  0  0  0  0  0  0  0  0
    2.7913   -7.2386    2.7523 O   0  0  0  0  0  0  0  0  0  0  0  0
    4.0645   -6.7526    2.2785 C   0  0  2  0  0  0  0  0  0  0  0  0
    6.6420   -1.4938    0.0356 O   0  0  0  0  0  0  0  0  0  0  0  0
    6.7129   -2.2639   -1.0422 C   0  0  0  0  0  0  0  0  0  0  0  0
    7.6278   -2.3055   -1.8409 O   0  0  0  0  0  0  0  0  0  0  0  0
    6.0242   -4.4301   -2.4807 H   0  0  0  0  0  0  0  0  0  0  0  0
    4.9884   -3.2967   -3.2125 H   0  0  0  0  0  0  0  0  0  0  0  0
    4.3740   -4.6061   -2.1170 H   0  0  0  0  0  0  0  0  0  0  0  0
    4.8844   -0.7740    0.7249 H   0  0  0  0  0  0  0  0  0  0  0  0
    6.8849   -2.2516    2.0982 H   0  0  0  0  0  0  0  0  0  0  0  0
    5.7345   -1.1488    2.8405 H   0  0  0  0  0  0  0  0  0  0  0  0
    5.5866   -3.2407    3.9264 H   0  0  0  0  0  0  0  0  0  0  0  0
    6.2779   -4.6315    1.5213 H   0  0  0  0  0  0  0  0  0  0  0  0
    6.0872   -5.2136    3.1661 H   0  0  0  0  0  0  0  0  0  0  0  0
    3.3450   -1.6175    4.4217 H   0  0  0  0  0  0  0  0  0  0  0  0
    3.5653   -3.1808    5.1998 H   0  0  0  0  0  0  0  0  0  0  0  0
    2.0448   -2.8092    4.4023 H   0  0  0  0  0  0  0  0  0  0  0  0
    1.8577   -3.1886    1.8986 H   0  0  0  0  0  0  0  0  0  0  0  0
    1.4818   -3.2594   -0.4344 H   0  0  0  0  0  0  0  0  0  0  0  0
    2.6519   -3.7302   -1.6200 H   0  0  0  0  0  0  0  0  0  0  0  0
    2.6727   -2.0868   -1.0297 H   0  0  0  0  0  0  0  0  0  0  0  0
    4.3585   -5.2988   -0.0726 H   0  0  0  0  0  0  0  0  0  0  0  0
    3.0481   -8.1508    0.8473 H   0  0  0  0  0  0  0  0  0  0  0  0
    4.9399   -7.3899    2.3456 H   0  0  0  0  0  0  0  0  0  0  0  0
  1  2  1  0
  1 25  1  0
  1 26  1  0
  1 27  1  0
  2 23  1  0
  2  3  2  0
  3 14  1  0
  3  4  1  0
  4  5  1  0
  4 22  1  0
  4 28  1  1
  5  6  1  0
  5 29  1  0
  5 30  1  0
  6 10  1  0
  6  7  1  0
  6 31  1  1
  8  7  1  6
  7 32  1  0
  7 33  1  0
  8 16  1  0
  8 21  1  0
  8  9  1  0
  9 10  1  0
 10 11  1  1
 10 12  1  0
 11 34  1  0
 11 35  1  0
 11 36  1  0
 12 13  1  0
 12 14  1  0
 12 37  1  1
 14 15  1  6
 14 16  1  0
 15 38  1  0
 15 39  1  0
 15 40  1  0
 16 17  1  0
 16 41  1  6
 17 18  2  0
 17 19  1  0
 19 21  1  0
 19 20  1  0
 19 42  1  6
 20 21  1  0
 21 43  1  1
 22 23  1  0
 23 24  2  0
M  END
>  <i_m_ct_stereo_status>  (158) 
1

>  <s_m_source_file>  (158) 
/var/tmp/pbs.5076255.sched01/tmpnk13i6y_/41i0yhob8r.sdf

>  <i_m_source_file_index>  (158) 
23

>  <i_lp_mmshare_version>  (158) 
48012

>  <i_f3d_flags>  (158) 
0

>  <s_epik_input>  (158) 
Q2xbQ0BASF0xW0NAXShPMikoW0NIM10pW0NAQEhdKFtDSDJdMylbQ0gyXVtDQEBIXShPQyg9TylDPTRbQ0gzXSlDNFtDQEBdMShbQ0gzXSlbQ0BASF0oW0NAXTIzNSlDKD1PKVtDQEhdNltDQEBIXTVPNg==

>  <s_epik_cmdline>  (158) 
J2VwaWtfcHl0aG9uJywgJy1waHQnLCAnMi4wJywgJy1waCcsICc3LjAnLCAnLXRuJywgJzgnLCAnLW1hJywgJzIwMCcsICctaW1hZScsICc8aW5maWxlLm1hZT4nLCAnLW9tYWUnLCAnPG91dGZpbGUubWFlPic=

>  <r_lp_tautomer_probability>  (158) 
1

>  <r_epik_Ionization_Penalty>  (158) 
2.19731e-09

>  <r_epik_Ionization_Penalty_Charging>  (158) 
0

>  <r_epik_Ionization_Penalty_Neutral>  (158) 
2.19731e-09

>  <r_epik_State_Penalty>  (158) 
-0

>  <r_epik_Charging_Adjusted_Penalty>  (158) 
0

>  <i_epik_Tot_Q>  (158) 
0

>  <i_epik_Tot_abs_Q>  (158) 
0

>  <s_epik_Chemistry_Notes>  (158) 
This compound has an ester and may undergo hydrolysis at high or low pH.

>  <s_lp_Force_Field>  (158) 
OPLS3e

>  <r_lp_Energy>  (158) 
23.8821

>  <b_lp_Chiralities_Consistent>  (158) 
1

>  <s_lp_Variant>  (158) 
53:0-1

>  <s_i_glide_gridfile>  (158) 
pfpi4k_grid

>  <i_i_glide_lignum>  (158) 
23

>  <i_i_glide_rotatable_bonds>  (158) 
0

>  <r_i_docking_score>  (158) 
-3.14982

>  <r_i_glide_ligand_efficiency>  (158) 
-0.131242

>  <r_i_glide_ligand_efficiency_sa>  (158) 
-0.378569

>  <r_i_glide_ligand_efficiency_ln>  (158) 
-0.753896

>  <r_i_glide_gscore>  (158) 
-3.14982

>  <r_i_glide_lipo>  (158) 
-0.335806

>  <r_i_glide_hbond>  (158) 
-0.417727

>  <r_i_glide_metal>  (158) 
-0

>  <r_i_glide_rewards>  (158) 
-1.01732

>  <r_i_glide_evdw>  (158) 
-13.8364

>  <r_i_glide_ecoul>  (158) 
-3.98967

>  <r_i_glide_erotb>  (158) 
0

>  <r_i_glide_esite>  (158) 
-0.0886928

>  <r_i_glide_emodel>  (158) 
-20.6777

>  <r_i_glide_energy>  (158) 
-17.8261

>  <r_i_glide_einternal>  (158) 
0

>  <r_i_glide_intrahb_reward>  (158) 
-0

>  <i_i_glide_confnum>  (158) 
1

>  <i_i_glide_posenum>  (158) 
2

>  <r_i_glide_eff_state_penalty>  (158) 
0

>  <ligand_id>  (158) 
53

>  <original_smiles>  (158) 
CC1=C2C(CC3CC45OC3(C)C(Cl)C2(C)C4C(=O)C2OC25)OC1=O

>  <smiles>  (158) 
[H]C([H])([H])C1=C2C([H])(OC1=O)C([H])([H])C1([H])C([H])([H])C34OC1(C([H])([H])[H])C([H])(Cl)C2(C([H])([H])[H])C3([H])C(=O)C1([H])OC14[H]

$$$$
53:0:2
     RDKit          3D

 43 48  0  0  1  0  0  0  0  0999 V2000
    5.7455   -5.0217    2.8191 C   0  0  0  0  0  0  0  0  0  0  0  0
    4.5216   -4.6216    2.0129 C   0  0  0  0  0  0  0  0  0  0  0  0
    4.2629   -3.5436    1.2682 C   0  0  0  0  0  0  0  0  0  0  0  0
    2.8465   -3.6365    0.7496 C   0  0  1  0  0  0  0  0  0  0  0  0
    2.6566   -3.6199   -0.7803 C   0  0  0  0  0  0  0  0  0  0  0  0
    3.8277   -3.1390   -1.6631 C   0  0  2  0  0  0  0  0  0  0  0  0
    5.0502   -4.0676   -1.6843 C   0  0  0  0  0  0  0  0  0  0  0  0
    6.1740   -3.1310   -1.3213 C   0  0  1  0  0  0  0  0  0  0  0  0
    5.7130   -1.8808   -1.8577 O   0  0  0  0  0  0  0  0  0  0  0  0
    4.3724   -1.7301   -1.4164 C   0  0  1  0  0  0  0  0  0  0  0  0
    3.7720   -0.6872   -2.3942 C   0  0  0  0  0  0  0  0  0  0  0  0
    4.5451   -1.2442    0.0720 C   0  0  1  0  0  0  0  0  0  0  0  0
    3.1401   -0.5226    0.9260 Cl  0  0  0  0  0  0  0  0  0  0  0  0
    5.1798   -2.3455    0.9720 C   0  0  1  0  0  0  0  0  0  0  0  0
    5.5568   -1.6586    2.3042 C   0  0  0  0  0  0  0  0  0  0  0  0
    6.3874   -2.9478    0.2085 C   0  0  2  0  0  0  0  0  0  0  0  0
    7.7167   -2.2610    0.2297 C   0  0  0  0  0  0  0  0  0  0  0  0
    8.0131   -1.2158    0.8116 O   0  0  0  0  0  0  0  0  0  0  0  0
    8.5421   -2.9128   -0.7859 C   0  0  2  0  0  0  0  0  0  0  0  0
    8.3618   -2.2523   -2.0210 O   0  0  0  0  0  0  0  0  0  0  0  0
    7.5576   -3.4244   -1.8391 C   0  0  2  0  0  0  0  0  0  0  0  0
    2.3898   -4.8777    1.2856 O   0  0  0  0  0  0  0  0  0  0  0  0
    3.3298   -5.4750    2.0274 C   0  0  0  0  0  0  0  0  0  0  0  0
    3.1879   -6.5440    2.6213 O   0  0  0  0  0  0  0  0  0  0  0  0
    6.0355   -6.0416    2.5601 H   0  0  0  0  0  0  0  0  0  0  0  0
    5.5264   -4.9946    3.8919 H   0  0  0  0  0  0  0  0  0  0  0  0
    6.6080   -4.3882    2.6268 H   0  0  0  0  0  0  0  0  0  0  0  0
    2.2597   -2.8446    1.2071 H   0  0  0  0  0  0  0  0  0  0  0  0
    2.4093   -4.6171   -1.1009 H   0  0  0  0  0  0  0  0  0  0  0  0
    1.7787   -3.0349   -1.0306 H   0  0  0  0  0  0  0  0  0  0  0  0
    3.4401   -3.1840   -2.6852 H   0  0  0  0  0  0  0  0  0  0  0  0
    4.9892   -4.9533   -1.0439 H   0  0  0  0  0  0  0  0  0  0  0  0
    5.2028   -4.4101   -2.7061 H   0  0  0  0  0  0  0  0  0  0  0  0
    2.7067   -0.6164   -2.1805 H   0  0  0  0  0  0  0  0  0  0  0  0
    3.8442   -1.0019   -3.4483 H   0  0  0  0  0  0  0  0  0  0  0  0
    4.2701    0.2535   -2.2987 H   0  0  0  0  0  0  0  0  0  0  0  0
    5.2164   -0.3984    0.0011 H   0  0  0  0  0  0  0  0  0  0  0  0
    6.0326   -0.6864    2.1530 H   0  0  0  0  0  0  0  0  0  0  0  0
    6.2076   -2.2642    2.9124 H   0  0  0  0  0  0  0  0  0  0  0  0
    4.6566   -1.4588    2.9020 H   0  0  0  0  0  0  0  0  0  0  0  0
    6.6326   -3.9037    0.6225 H   0  0  0  0  0  0  0  0  0  0  0  0
    9.5270   -3.3288   -0.6318 H   0  0  0  0  0  0  0  0  0  0  0  0
    7.7468   -4.0567   -2.7274 H   0  0  0  0  0  0  0  0  0  0  0  0
  1  2  1  0
  1 25  1  0
  1 26  1  0
  1 27  1  0
  2 23  1  0
  2  3  2  0
  3 14  1  0
  3  4  1  0
  4  5  1  0
  4 22  1  0
  4 28  1  1
  5  6  1  0
  5 29  1  0
  5 30  1  0
  6 10  1  0
  6  7  1  0
  6 31  1  6
  8  7  1  1
  7 32  1  0
  7 33  1  0
  8 16  1  0
  8 21  1  0
  8  9  1  0
  9 10  1  0
 10 11  1  6
 10 12  1  0
 11 34  1  0
 11 35  1  0
 11 36  1  0
 12 13  1  0
 12 14  1  0
 12 37  1  6
 14 15  1  1
 14 16  1  0
 15 38  1  0
 15 39  1  0
 15 40  1  0
 16 17  1  0
 16 41  1  1
 17 18  2  0
 17 19  1  0
 19 21  1  0
 19 20  1  0
 19 42  1  1
 20 21  1  0
 21 43  1  6
 22 23  1  0
 23 24  2  0
M  END
>  <i_m_ct_stereo_status>  (159) 
1

>  <s_m_source_file>  (159) 
/var/tmp/pbs.5076255.sched01/tmpnk13i6y_/41i0yhob8r.sdf

>  <i_m_source_file_index>  (159) 
23

>  <i_lp_mmshare_version>  (159) 
48012

>  <i_f3d_flags>  (159) 
0

>  <s_epik_input>  (159) 
Q2xbQ0BASF0xW0NAXShPMikoW0NIM10pW0NAQEhdKFtDSDJdMylbQ0gyXVtDQEBIXShPQyg9TylDPTRbQ0gzXSlDNFtDQEBdMShbQ0gzXSlbQ0BASF0oW0NAXTIzNSlDKD1PKVtDQEhdNltDQEBIXTVPNg==

>  <s_epik_cmdline>  (159) 
J2VwaWtfcHl0aG9uJywgJy1waHQnLCAnMi4wJywgJy1waCcsICc3LjAnLCAnLXRuJywgJzgnLCAnLW1hJywgJzIwMCcsICctaW1hZScsICc8aW5maWxlLm1hZT4nLCAnLW9tYWUnLCAnPG91dGZpbGUubWFlPic=

>  <r_lp_tautomer_probability>  (159) 
1

>  <r_epik_Ionization_Penalty>  (159) 
2.19731e-09

>  <r_epik_Ionization_Penalty_Charging>  (159) 
0

>  <r_epik_Ionization_Penalty_Neutral>  (159) 
2.19731e-09

>  <r_epik_State_Penalty>  (159) 
-0

>  <r_epik_Charging_Adjusted_Penalty>  (159) 
0

>  <i_epik_Tot_Q>  (159) 
0

>  <i_epik_Tot_abs_Q>  (159) 
0

>  <s_epik_Chemistry_Notes>  (159) 
This compound has an ester and may undergo hydrolysis at high or low pH.

>  <s_lp_Force_Field>  (159) 
OPLS3e

>  <r_lp_Energy>  (159) 
23.8821

>  <b_lp_Chiralities_Consistent>  (159) 
1

>  <s_lp_Variant>  (159) 
53:0-1

>  <s_i_glide_gridfile>  (159) 
pfpi4k_grid

>  <i_i_glide_lignum>  (159) 
23

>  <i_i_glide_rotatable_bonds>  (159) 
0

>  <r_i_docking_score>  (159) 
-2.52814

>  <r_i_glide_ligand_efficiency>  (159) 
-0.105339

>  <r_i_glide_ligand_efficiency_sa>  (159) 
-0.303851

>  <r_i_glide_ligand_efficiency_ln>  (159) 
-0.6051

>  <r_i_glide_gscore>  (159) 
-2.52814

>  <r_i_glide_lipo>  (159) 
-0.341815

>  <r_i_glide_hbond>  (159) 
-0.13404

>  <r_i_glide_metal>  (159) 
-0

>  <r_i_glide_rewards>  (159) 
-1.17175

>  <r_i_glide_evdw>  (159) 
-12.4198

>  <r_i_glide_ecoul>  (159) 
-1.73025

>  <r_i_glide_erotb>  (159) 
0

>  <r_i_glide_esite>  (159) 
0

>  <r_i_glide_emodel>  (159) 
-14.5877

>  <r_i_glide_energy>  (159) 
-14.1501

>  <r_i_glide_einternal>  (159) 
0

>  <r_i_glide_intrahb_reward>  (159) 
-0

>  <i_i_glide_confnum>  (159) 
2

>  <i_i_glide_posenum>  (159) 
26

>  <r_i_glide_eff_state_penalty>  (159) 
0

>  <ligand_id>  (159) 
53

>  <original_smiles>  (159) 
CC1=C2C(CC3CC45OC3(C)C(Cl)C2(C)C4C(=O)C2OC25)OC1=O

>  <smiles>  (159) 
[H]C([H])([H])C1=C2C([H])(OC1=O)C([H])([H])C1([H])C([H])([H])C34OC1(C([H])([H])[H])C([H])(Cl)C2(C([H])([H])[H])C3([H])C(=O)C1([H])OC14[H]

$$$$
54:0:0
     RDKit          3D

 75 80  0  0  1  0  0  0  0  0999 V2000
   -2.8137    3.0713    9.7742 C   0  0  0  0  0  0  0  0  0  0  0  0
   -1.5471    3.0238   10.6694 C   0  0  0  0  0  0  0  0  0  0  0  0
   -1.3561    4.3266   11.4276 C   0  0  0  0  0  0  0  0  0  0  0  0
   -0.3407    2.8525    9.9315 O   0  0  0  0  0  0  0  0  0  0  0  0
    0.7309    2.1735   10.4286 C   0  0  0  0  0  0  0  0  0  0  0  0
    0.8627    1.7342   11.5353 O   0  0  0  0  0  0  0  0  0  0  0  0
    1.8278    1.9204    9.3437 C   0  0  2  0  0  0  0  0  0  0  0  0
    2.2638    3.1632    8.5303 C   0  0  0  0  0  0  0  0  0  0  0  0
    1.7526    3.0001    7.0600 C   0  0  2  0  0  0  0  0  0  0  0  0
    2.7187    3.4564    5.9192 C   0  0  1  0  0  0  0  0  0  0  0  0
    4.2445    3.4271    6.2199 C   0  0  0  0  0  0  0  0  0  0  0  0
    2.3161    2.7603    4.5605 C   0  0  1  0  0  0  0  0  0  0  0  0
    3.4088    1.9683    4.1073 O   0  0  0  0  0  0  0  0  0  0  0  0
    0.9420    1.9200    4.5427 C   0  0  2  0  0  0  0  0  0  0  0  0
    1.0924    1.0689    3.4101 O   0  0  0  0  0  0  0  0  0  0  0  0
   -0.3678    2.8379    4.0875 C   0  0  2  0  0  0  0  0  0  0  0  0
   -1.1064    2.2145    2.8459 C   0  0  0  0  0  0  0  0  0  0  0  0
   -0.0678    4.3456    3.7187 C   0  0  1  0  0  0  0  0  0  0  0  0
   -1.0886    5.0174    2.9635 O   0  0  0  0  0  0  0  0  0  0  0  0
    0.4776    5.3652    4.7346 C   0  0  0  0  0  0  0  0  0  0  0  0
    0.2672    5.1585    6.2666 C   0  0  0  0  0  0  0  0  0  0  0  0
    0.3240    3.7341    6.8885 C   0  0  1  0  0  0  0  0  0  0  0  0
   -1.0003    2.9752    6.5556 C   0  0  1  0  0  0  0  0  0  0  0  0
   -1.4713    2.8414    5.1300 C   0  0  1  0  0  0  0  0  0  0  0  0
   -2.5629    3.7229    4.9221 O   0  0  0  0  0  0  0  0  0  0  0  0
   -1.2007    1.6264    7.2016 C   0  0  1  0  0  0  0  0  0  0  0  0
   -2.5872    1.3036    7.2532 O   0  0  0  0  0  0  0  0  0  0  0  0
   -0.2880    0.4787    6.7405 C   0  0  2  0  0  0  0  0  0  0  0  0
   -1.0646   -0.5194    6.0720 O   0  0  0  0  0  0  0  0  0  0  0  0
    0.2942   -0.0252    8.1181 C   0  0  1  0  0  0  0  0  0  0  0  0
    0.5164   -1.4249    8.1696 O   0  0  0  0  0  0  0  0  0  0  0  0
    1.6057    0.7836    8.3051 C   0  0  1  0  0  0  0  0  0  0  0  0
    1.8228    1.4670    6.9437 C   0  0  1  0  0  0  0  0  0  0  0  0
    0.9488    0.8741    5.8358 C   0  0  2  0  0  0  0  0  0  0  0  0
    1.6589   -0.4705    5.4260 C   0  0  0  0  0  0  0  0  0  0  0  0
   -3.6766    3.4307   10.3486 H   0  0  0  0  0  0  0  0  0  0  0  0
   -3.0159    2.0903    9.3359 H   0  0  0  0  0  0  0  0  0  0  0  0
   -2.6863    3.8030    8.9766 H   0  0  0  0  0  0  0  0  0  0  0  0
   -1.6785    2.1719   11.3164 H   0  0  0  0  0  0  0  0  0  0  0  0
   -2.2492    4.5680   12.0129 H   0  0  0  0  0  0  0  0  0  0  0  0
   -1.1686    5.1211   10.7016 H   0  0  0  0  0  0  0  0  0  0  0  0
   -0.4896    4.2574   12.0943 H   0  0  0  0  0  0  0  0  0  0  0  0
    2.6850    1.6249    9.9534 H   0  0  0  0  0  0  0  0  0  0  0  0
    1.9792    4.1004    9.0000 H   0  0  0  0  0  0  0  0  0  0  0  0
    3.3513    3.1456    8.5760 H   0  0  0  0  0  0  0  0  0  0  0  0
    2.6196    4.5228    5.8265 H   0  0  0  0  0  0  0  0  0  0  0  0
    4.6242    2.4359    6.4706 H   0  0  0  0  0  0  0  0  0  0  0  0
    4.5125    4.1078    7.0252 H   0  0  0  0  0  0  0  0  0  0  0  0
    4.8100    3.7750    5.3529 H   0  0  0  0  0  0  0  0  0  0  0  0
    2.3302    3.5213    3.7879 H   0  0  0  0  0  0  0  0  0  0  0  0
    3.9085    2.4786    3.4881 H   0  0  0  0  0  0  0  0  0  0  0  0
    1.1531    1.6030    2.6364 H   0  0  0  0  0  0  0  0  0  0  0  0
   -2.0509    2.7185    2.6166 H   0  0  0  0  0  0  0  0  0  0  0  0
   -1.3702    1.1635    2.9835 H   0  0  0  0  0  0  0  0  0  0  0  0
   -0.5108    2.2965    1.9344 H   0  0  0  0  0  0  0  0  0  0  0  0
    0.6736    4.2946    2.9176 H   0  0  0  0  0  0  0  0  0  0  0  0
   -0.7901    5.0593    2.0436 H   0  0  0  0  0  0  0  0  0  0  0  0
    1.5236    5.5568    4.5049 H   0  0  0  0  0  0  0  0  0  0  0  0
    0.0509    6.3420    4.5068 H   0  0  0  0  0  0  0  0  0  0  0  0
    0.9688    5.8108    6.7901 H   0  0  0  0  0  0  0  0  0  0  0  0
   -0.7070    5.5872    6.5028 H   0  0  0  0  0  0  0  0  0  0  0  0
    0.1123    4.0317    7.9074 H   0  0  0  0  0  0  0  0  0  0  0  0
   -1.7393    3.6114    7.0252 H   0  0  0  0  0  0  0  0  0  0  0  0
   -1.9828    1.8941    4.9772 H   0  0  0  0  0  0  0  0  0  0  0  0
   -2.9491    3.5014    4.0890 H   0  0  0  0  0  0  0  0  0  0  0  0
   -1.0833    1.8001    8.2322 H   0  0  0  0  0  0  0  0  0  0  0  0
   -3.0265    1.9669    7.7415 H   0  0  0  0  0  0  0  0  0  0  0  0
   -1.3960   -0.1255    5.2897 H   0  0  0  0  0  0  0  0  0  0  0  0
   -0.3698    0.0944    8.9735 H   0  0  0  0  0  0  0  0  0  0  0  0
    1.1689   -1.6374    7.5358 H   0  0  0  0  0  0  0  0  0  0  0  0
    2.4116    0.0637    8.4637 H   0  0  0  0  0  0  0  0  0  0  0  0
    2.8593    1.2055    6.7131 H   0  0  0  0  0  0  0  0  0  0  0  0
    1.9886   -1.0694    6.2753 H   0  0  0  0  0  0  0  0  0  0  0  0
    2.5755   -0.3074    4.8623 H   0  0  0  0  0  0  0  0  0  0  0  0
    1.0109   -1.1135    4.8232 H   0  0  0  0  0  0  0  0  0  0  0  0
  1  2  1  0
  1 36  1  0
  1 37  1  0
  1 38  1  0
  2  3  1  0
  2  4  1  0
  2 39  1  0
  3 40  1  0
  3 41  1  0
  3 42  1  0
  4  5  1  0
  5  6  2  0
  5  7  1  0
  7 32  1  0
  7  8  1  0
  7 43  1  1
  9  8  1  1
  8 44  1  0
  8 45  1  0
  9 22  1  0
  9 33  1  0
  9 10  1  0
 10 11  1  0
 10 12  1  0
 10 46  1  6
 11 47  1  0
 11 48  1  0
 11 49  1  0
 12 13  1  0
 12 14  1  0
 12 50  1  6
 13 51  1  0
 14 34  1  0
 14 15  1  6
 14 16  1  0
 15 52  1  0
 16 24  1  0
 16 17  1  6
 16 18  1  0
 17 53  1  0
 17 54  1  0
 17 55  1  0
 18 19  1  0
 18 20  1  0
 18 56  1  6
 19 57  1  0
 20 21  1  0
 20 58  1  0
 20 59  1  0
 21 22  1  0
 21 60  1  0
 21 61  1  0
 22 23  1  0
 22 62  1  1
 23 24  1  0
 23 26  1  0
 23 63  1  1
 24 25  1  0
 24 64  1  1
 25 65  1  0
 26 27  1  0
 26 28  1  0
 26 66  1  1
 27 67  1  0
 28 34  1  0
 28 29  1  6
 28 30  1  0
 29 68  1  0
 30 31  1  0
 30 32  1  0
 30 69  1  1
 31 70  1  0
 32 33  1  0
 32 71  1  1
 33 34  1  0
 33 72  1  6
 34 35  1  6
 35 73  1  0
 35 74  1  0
 35 75  1  0
M  END
>  <i_m_ct_stereo_status>  (160) 
1

>  <s_m_source_file>  (160) 
/var/tmp/pbs.5076255.sched01/tmpnk13i6y_/41i0yhob8r.sdf

>  <i_m_source_file_index>  (160) 
24

>  <i_lp_mmshare_version>  (160) 
48012

>  <i_f3d_flags>  (160) 
0

>  <s_epik_input>  (160) 
W0NIM11bQ0hdKFtDSDNdKU9DKD1PKVtDQEhdKFtDSDJdMSlbQ0BIXShbQ0BIXTIzKVtDQEhdKFtPSF0pW0NAQF0oW09IXSkoW0NAQEhdNFtPSF0pW0NAQF0zKFtDSDNdKVtDQF0oW09IXSkoW0NASF0oW09IXSlbQ0BASF01W0NIM10pW0NAXShbQ0gzXSkoW0NAQEhdKFtPSF0pW0NIMl1bQ0gyXTYpW0NASF0oW09IXSlbQ0BASF00W0NASF02W0NAQF0xMjU=

>  <s_epik_cmdline>  (160) 
J2VwaWtfcHl0aG9uJywgJy1waHQnLCAnMi4wJywgJy1waCcsICc3LjAnLCAnLXRuJywgJzgnLCAnLW1hJywgJzIwMCcsICctaW1hZScsICc8aW5maWxlLm1hZT4nLCAnLW9tYWUnLCAnPG91dGZpbGUubWFlPic=

>  <r_lp_tautomer_probability>  (160) 
1

>  <r_epik_Ionization_Penalty>  (160) 
2.44857e-06

>  <r_epik_Ionization_Penalty_Charging>  (160) 
0

>  <r_epik_Ionization_Penalty_Neutral>  (160) 
2.44857e-06

>  <r_epik_State_Penalty>  (160) 
-0

>  <r_epik_Charging_Adjusted_Penalty>  (160) 
0

>  <i_epik_Tot_Q>  (160) 
0

>  <i_epik_Tot_abs_Q>  (160) 
0

>  <s_epik_Chemistry_Notes>  (160) 
This compound has an ester and may undergo hydrolysis at high or low pH.

>  <s_lp_Force_Field>  (160) 
OPLS3e

>  <r_lp_Energy>  (160) 
165.642

>  <b_lp_Chiralities_Consistent>  (160) 
1

>  <s_lp_Variant>  (160) 
54:0-1

>  <s_i_glide_gridfile>  (160) 
pfpi4k_grid

>  <i_i_glide_lignum>  (160) 
24

>  <i_i_glide_rotatable_bonds>  (160) 
10

>  <r_i_docking_score>  (160) 
-3.28695

>  <r_i_glide_ligand_efficiency>  (160) 
-0.0939129

>  <r_i_glide_ligand_efficiency_sa>  (160) 
-0.307195

>  <r_i_glide_ligand_efficiency_ln>  (160) 
-0.721559

>  <r_i_glide_gscore>  (160) 
-3.28695

>  <r_i_glide_lipo>  (160) 
-0.00845717

>  <r_i_glide_hbond>  (160) 
0

>  <r_i_glide_metal>  (160) 
-0

>  <r_i_glide_rewards>  (160) 
-0.0232473

>  <r_i_glide_evdw>  (160) 
-21.9193

>  <r_i_glide_ecoul>  (160) 
-15.4553

>  <r_i_glide_erotb>  (160) 
0.165395

>  <r_i_glide_esite>  (160) 
-0.00637547

>  <r_i_glide_emodel>  (160) 
-42.0507

>  <r_i_glide_energy>  (160) 
-37.3746

>  <r_i_glide_einternal>  (160) 
3.71082

>  <r_i_glide_intrahb_reward>  (160) 
-0

>  <i_i_glide_confnum>  (160) 
4

>  <i_i_glide_posenum>  (160) 
16

>  <r_i_glide_eff_state_penalty>  (160) 
0

>  <ligand_id>  (160) 
54

>  <original_smiles>  (160) 
CC(C)OC(=O)C1CC23C(C)C(O)C4(O)C5(C)C(O)CCC2C(C5O)C(O)C2(O)C(O)C1C3C24C

>  <smiles>  (160) 
[H]OC1([H])C2([H])C([H])(O[H])C3(C([H])([H])[H])C([H])(O[H])C([H])([H])C([H])([H])C2([H])C24C([H])([H])C([H])(C(=O)OC([H])(C([H])([H])[H])C([H])([H])[H])C5([H])C([H])(O[H])C1(O[H])C(C([H])([H])[H])(C52[H])C3(O[H])C([H])(O[H])C4([H])C([H])([H])[H]

$$$$
54:0:1
     RDKit          3D

 75 80  0  0  1  0  0  0  0  0999 V2000
   -2.8523    3.0106    9.7421 C   0  0  0  0  0  0  0  0  0  0  0  0
   -1.5955    2.9727   10.6542 C   0  0  0  0  0  0  0  0  0  0  0  0
   -1.4559    4.2721   11.4161 C   0  0  0  0  0  0  0  0  0  0  0  0
   -0.3936    2.8125    9.9125 O   0  0  0  0  0  0  0  0  0  0  0  0
    0.6804    2.1226   10.3913 C   0  0  0  0  0  0  0  0  0  0  0  0
    0.7883    1.6373   11.4991 O   0  0  0  0  0  0  0  0  0  0  0  0
    1.7932    1.8895    9.3357 C   0  0  2  0  0  0  0  0  0  0  0  0
    2.2389    3.1386    8.5403 C   0  0  0  0  0  0  0  0  0  0  0  0
    1.7479    2.9835    7.0624 C   0  0  2  0  0  0  0  0  0  0  0  0
    2.7347    3.4594    5.9404 C   0  0  1  0  0  0  0  0  0  0  0  0
    4.2558    3.4246    6.2668 C   0  0  0  0  0  0  0  0  0  0  0  0
    2.3566    2.7838    4.5668 C   0  0  1  0  0  0  0  0  0  0  0  0
    3.4430    1.9862    4.1205 O   0  0  0  0  0  0  0  0  0  0  0  0
    0.9861    1.9382    4.5203 C   0  0  2  0  0  0  0  0  0  0  0  0
    1.1557    1.0987    3.3740 O   0  0  0  0  0  0  0  0  0  0  0  0
   -0.3172    2.8511    4.0623 C   0  0  2  0  0  0  0  0  0  0  0  0
   -1.0336    2.2388    2.7946 C   0  0  0  0  0  0  0  0  0  0  0  0
   -0.0111    4.3728    3.6736 C   0  0  1  0  0  0  0  0  0  0  0  0
   -1.0365    5.0507    2.9304 O   0  0  0  0  0  0  0  0  0  0  0  0
    0.5072    5.3790    4.7408 C   0  0  0  0  0  0  0  0  0  0  0  0
    0.2711    5.1362    6.2653 C   0  0  0  0  0  0  0  0  0  0  0  0
    0.3103    3.6949    6.8672 C   0  0  1  0  0  0  0  0  0  0  0  0
   -1.0063    2.9229    6.5141 C   0  0  1  0  0  0  0  0  0  0  0  0
   -1.4388    2.8276    5.0818 C   0  0  1  0  0  0  0  0  0  0  0  0
   -2.5448    3.6938    4.8638 O   0  0  0  0  0  0  0  0  0  0  0  0
   -1.2309    1.5570    7.1428 C   0  0  1  0  0  0  0  0  0  0  0  0
   -2.6051    1.2019    7.1538 O   0  0  0  0  0  0  0  0  0  0  0  0
   -0.2685    0.4365    6.6708 C   0  0  2  0  0  0  0  0  0  0  0  0
   -0.9594   -0.5732    5.9529 O   0  0  0  0  0  0  0  0  0  0  0  0
    0.2939   -0.0506    8.0602 C   0  0  1  0  0  0  0  0  0  0  0  0
    0.5155   -1.4520    8.1198 O   0  0  0  0  0  0  0  0  0  0  0  0
    1.5969    0.7659    8.2788 C   0  0  1  0  0  0  0  0  0  0  0  0
    1.8352    1.4615    6.9292 C   0  0  1  0  0  0  0  0  0  0  0  0
    0.9740    0.8811    5.8038 C   0  0  2  0  0  0  0  0  0  0  0  0
    1.7057   -0.4524    5.3810 C   0  0  0  0  0  0  0  0  0  0  0  0
   -3.7320    3.3680   10.2997 H   0  0  0  0  0  0  0  0  0  0  0  0
   -3.0260    2.0264    9.2896 H   0  0  0  0  0  0  0  0  0  0  0  0
   -2.7204    3.7415    8.9360 H   0  0  0  0  0  0  0  0  0  0  0  0
   -1.7180    2.1311   11.3124 H   0  0  0  0  0  0  0  0  0  0  0  0
   -2.3670    4.4991   11.9767 H   0  0  0  0  0  0  0  0  0  0  0  0
   -1.2701    5.0715   10.7011 H   0  0  0  0  0  0  0  0  0  0  0  0
   -0.6083    4.2248   12.1054 H   0  0  0  0  0  0  0  0  0  0  0  0
    2.6426    1.5859    9.9539 H   0  0  0  0  0  0  0  0  0  0  0  0
    1.9379    4.0660    9.0197 H   0  0  0  0  0  0  0  0  0  0  0  0
    3.3237    3.1150    8.6073 H   0  0  0  0  0  0  0  0  0  0  0  0
    2.6328    4.5235    5.8651 H   0  0  0  0  0  0  0  0  0  0  0  0
    4.6320    2.4324    6.5177 H   0  0  0  0  0  0  0  0  0  0  0  0
    4.5048    4.0992    7.0857 H   0  0  0  0  0  0  0  0  0  0  0  0
    4.8337    3.7840    5.4118 H   0  0  0  0  0  0  0  0  0  0  0  0
    2.3831    3.5583    3.8053 H   0  0  0  0  0  0  0  0  0  0  0  0
    3.9136    2.4602    3.4524 H   0  0  0  0  0  0  0  0  0  0  0  0
    1.2256    1.6422    2.6146 H   0  0  0  0  0  0  0  0  0  0  0  0
   -1.9743    2.7507    2.5592 H   0  0  0  0  0  0  0  0  0  0  0  0
   -1.2965    1.1854    2.9292 H   0  0  0  0  0  0  0  0  0  0  0  0
   -0.4165    2.3288    1.8979 H   0  0  0  0  0  0  0  0  0  0  0  0
    0.7474    4.3321    2.8969 H   0  0  0  0  0  0  0  0  0  0  0  0
   -0.7176    5.1236    2.0243 H   0  0  0  0  0  0  0  0  0  0  0  0
    1.5536    5.5703    4.5312 H   0  0  0  0  0  0  0  0  0  0  0  0
    0.0847    6.3581    4.5176 H   0  0  0  0  0  0  0  0  0  0  0  0
    0.9647    5.7902    6.8093 H   0  0  0  0  0  0  0  0  0  0  0  0
   -0.7008    5.5712    6.4980 H   0  0  0  0  0  0  0  0  0  0  0  0
    0.0962    3.9992    7.8870 H   0  0  0  0  0  0  0  0  0  0  0  0
   -1.7526    3.5514    6.9779 H   0  0  0  0  0  0  0  0  0  0  0  0
   -1.9366    1.8822    4.8991 H   0  0  0  0  0  0  0  0  0  0  0  0
   -2.8495    3.5537    3.9839 H   0  0  0  0  0  0  0  0  0  0  0  0
   -1.1009    1.7612    8.1784 H   0  0  0  0  0  0  0  0  0  0  0  0
   -3.0656    1.6430    6.4473 H   0  0  0  0  0  0  0  0  0  0  0  0
   -1.3566   -0.1659    5.2145 H   0  0  0  0  0  0  0  0  0  0  0  0
   -0.3892    0.0676    8.8961 H   0  0  0  0  0  0  0  0  0  0  0  0
    1.1506   -1.6500    7.4634 H   0  0  0  0  0  0  0  0  0  0  0  0
    2.3918    0.0379    8.4462 H   0  0  0  0  0  0  0  0  0  0  0  0
    2.8794    1.2005    6.7147 H   0  0  0  0  0  0  0  0  0  0  0  0
    2.0131   -1.0663    6.2330 H   0  0  0  0  0  0  0  0  0  0  0  0
    2.6415   -0.2875    4.8249 H   0  0  0  0  0  0  0  0  0  0  0  0
    1.0689   -1.0962    4.7547 H   0  0  0  0  0  0  0  0  0  0  0  0
  1  2  1  0
  1 36  1  0
  1 37  1  0
  1 38  1  0
  2  3  1  0
  2  4  1  0
  2 39  1  0
  3 40  1  0
  3 41  1  0
  3 42  1  0
  4  5  1  0
  5  6  2  0
  5  7  1  0
  7 32  1  0
  7  8  1  0
  7 43  1  1
  9  8  1  1
  8 44  1  0
  8 45  1  0
  9 22  1  0
  9 33  1  0
  9 10  1  0
 10 11  1  0
 10 12  1  0
 10 46  1  6
 11 47  1  0
 11 48  1  0
 11 49  1  0
 12 13  1  0
 12 14  1  0
 12 50  1  6
 13 51  1  0
 14 34  1  0
 14 15  1  6
 14 16  1  0
 15 52  1  0
 16 24  1  0
 16 17  1  6
 16 18  1  0
 17 53  1  0
 17 54  1  0
 17 55  1  0
 18 19  1  0
 18 20  1  0
 18 56  1  6
 19 57  1  0
 20 21  1  0
 20 58  1  0
 20 59  1  0
 21 22  1  0
 21 60  1  0
 21 61  1  0
 22 23  1  0
 22 62  1  1
 23 24  1  0
 23 26  1  0
 23 63  1  1
 24 25  1  0
 24 64  1  1
 25 65  1  0
 26 27  1  0
 26 28  1  0
 26 66  1  1
 27 67  1  0
 28 34  1  0
 28 29  1  6
 28 30  1  0
 29 68  1  0
 30 31  1  0
 30 32  1  0
 30 69  1  1
 31 70  1  0
 32 33  1  0
 32 71  1  1
 33 34  1  0
 33 72  1  6
 34 35  1  6
 35 73  1  0
 35 74  1  0
 35 75  1  0
M  END
>  <i_m_ct_stereo_status>  (161) 
1

>  <s_m_source_file>  (161) 
/var/tmp/pbs.5076255.sched01/tmpnk13i6y_/41i0yhob8r.sdf

>  <i_m_source_file_index>  (161) 
24

>  <i_lp_mmshare_version>  (161) 
48012

>  <i_f3d_flags>  (161) 
0

>  <s_epik_input>  (161) 
W0NIM11bQ0hdKFtDSDNdKU9DKD1PKVtDQEhdKFtDSDJdMSlbQ0BIXShbQ0BIXTIzKVtDQEhdKFtPSF0pW0NAQF0oW09IXSkoW0NAQEhdNFtPSF0pW0NAQF0zKFtDSDNdKVtDQF0oW09IXSkoW0NASF0oW09IXSlbQ0BASF01W0NIM10pW0NAXShbQ0gzXSkoW0NAQEhdKFtPSF0pW0NIMl1bQ0gyXTYpW0NASF0oW09IXSlbQ0BASF00W0NASF02W0NAQF0xMjU=

>  <s_epik_cmdline>  (161) 
J2VwaWtfcHl0aG9uJywgJy1waHQnLCAnMi4wJywgJy1waCcsICc3LjAnLCAnLXRuJywgJzgnLCAnLW1hJywgJzIwMCcsICctaW1hZScsICc8aW5maWxlLm1hZT4nLCAnLW9tYWUnLCAnPG91dGZpbGUubWFlPic=

>  <r_lp_tautomer_probability>  (161) 
1

>  <r_epik_Ionization_Penalty>  (161) 
2.44857e-06

>  <r_epik_Ionization_Penalty_Charging>  (161) 
0

>  <r_epik_Ionization_Penalty_Neutral>  (161) 
2.44857e-06

>  <r_epik_State_Penalty>  (161) 
-0

>  <r_epik_Charging_Adjusted_Penalty>  (161) 
0

>  <i_epik_Tot_Q>  (161) 
0

>  <i_epik_Tot_abs_Q>  (161) 
0

>  <s_epik_Chemistry_Notes>  (161) 
This compound has an ester and may undergo hydrolysis at high or low pH.

>  <s_lp_Force_Field>  (161) 
OPLS3e

>  <r_lp_Energy>  (161) 
165.642

>  <b_lp_Chiralities_Consistent>  (161) 
1

>  <s_lp_Variant>  (161) 
54:0-1

>  <s_i_glide_gridfile>  (161) 
pfpi4k_grid

>  <i_i_glide_lignum>  (161) 
24

>  <i_i_glide_rotatable_bonds>  (161) 
10

>  <r_i_docking_score>  (161) 
-3.25883

>  <r_i_glide_ligand_efficiency>  (161) 
-0.0931095

>  <r_i_glide_ligand_efficiency_sa>  (161) 
-0.304567

>  <r_i_glide_ligand_efficiency_ln>  (161) 
-0.715386

>  <r_i_glide_gscore>  (161) 
-3.25883

>  <r_i_glide_lipo>  (161) 
-0.00913789

>  <r_i_glide_hbond>  (161) 
0

>  <r_i_glide_metal>  (161) 
-0

>  <r_i_glide_rewards>  (161) 
-0.0232473

>  <r_i_glide_evdw>  (161) 
-20.6673

>  <r_i_glide_ecoul>  (161) 
-15.6769

>  <r_i_glide_erotb>  (161) 
0.165395

>  <r_i_glide_esite>  (161) 
-0.00693763

>  <r_i_glide_emodel>  (161) 
-41.9397

>  <r_i_glide_energy>  (161) 
-36.3442

>  <r_i_glide_einternal>  (161) 
3.91699

>  <r_i_glide_intrahb_reward>  (161) 
-0

>  <i_i_glide_confnum>  (161) 
3

>  <i_i_glide_posenum>  (161) 
39

>  <r_i_glide_eff_state_penalty>  (161) 
0

>  <ligand_id>  (161) 
54

>  <original_smiles>  (161) 
CC(C)OC(=O)C1CC23C(C)C(O)C4(O)C5(C)C(O)CCC2C(C5O)C(O)C2(O)C(O)C1C3C24C

>  <smiles>  (161) 
[H]OC1([H])C2([H])C([H])(O[H])C3(C([H])([H])[H])C([H])(O[H])C([H])([H])C([H])([H])C2([H])C24C([H])([H])C([H])(C(=O)OC([H])(C([H])([H])[H])C([H])([H])[H])C5([H])C([H])(O[H])C1(O[H])C(C([H])([H])[H])(C52[H])C3(O[H])C([H])(O[H])C4([H])C([H])([H])[H]

$$$$
54:0:2
     RDKit          3D

 75 80  0  0  1  0  0  0  0  0999 V2000
    5.2569   -2.7582    2.4704 C   0  0  0  0  0  0  0  0  0  0  0  0
    4.4518   -2.2385    3.6643 C   0  0  0  0  0  0  0  0  0  0  0  0
    3.2843   -3.1729    4.0162 C   0  0  0  0  0  0  0  0  0  0  0  0
    3.9549   -0.9405    3.3512 O   0  0  0  0  0  0  0  0  0  0  0  0
    3.8136   -0.0123    4.3164 C   0  0  0  0  0  0  0  0  0  0  0  0
    4.1124   -0.1653    5.5038 O   0  0  0  0  0  0  0  0  0  0  0  0
    3.2233    1.3063    3.7827 C   0  0  2  0  0  0  0  0  0  0  0  0
    3.3379    2.5444    4.7144 C   0  0  0  0  0  0  0  0  0  0  0  0
    1.9031    2.9066    5.2249 C   0  0  2  0  0  0  0  0  0  0  0  0
    1.5480    4.4226    5.3073 C   0  0  1  0  0  0  0  0  0  0  0  0
    2.3073    5.3938    4.3646 C   0  0  0  0  0  0  0  0  0  0  0  0
   -0.0221    4.6009    5.2783 C   0  0  1  0  0  0  0  0  0  0  0  0
   -0.3955    5.3411    4.1173 O   0  0  0  0  0  0  0  0  0  0  0  0
   -0.9063    3.2613    5.4218 C   0  0  2  0  0  0  0  0  0  0  0  0
   -2.1661    3.7031    4.9274 O   0  0  0  0  0  0  0  0  0  0  0  0
   -1.2713    2.8608    6.9742 C   0  0  2  0  0  0  0  0  0  0  0  0
   -2.8204    2.7837    7.2074 C   0  0  0  0  0  0  0  0  0  0  0  0
   -0.7738    3.8882    8.0788 C   0  0  1  0  0  0  0  0  0  0  0  0
   -1.4250    3.8246    9.3428 O   0  0  0  0  0  0  0  0  0  0  0  0
    0.7441    4.0798    8.3635 C   0  0  0  0  0  0  0  0  0  0  0  0
    1.8008    3.0030    7.9620 C   0  0  0  0  0  0  0  0  0  0  0  0
    1.6562    2.1748    6.6462 C   0  0  1  0  0  0  0  0  0  0  0  0
    0.5954    1.0590    6.8790 C   0  0  1  0  0  0  0  0  0  0  0  0
   -0.8169    1.4361    7.3231 C   0  0  1  0  0  0  0  0  0  0  0  0
   -0.9590    1.1002    8.6942 O   0  0  0  0  0  0  0  0  0  0  0  0
    0.4958    0.0612    5.7669 C   0  0  1  0  0  0  0  0  0  0  0  0
   -0.0358   -1.1708    6.2319 O   0  0  0  0  0  0  0  0  0  0  0  0
   -0.2061    0.5952    4.4836 C   0  0  2  0  0  0  0  0  0  0  0  0
   -1.4688   -0.0386    4.3398 O   0  0  0  0  0  0  0  0  0  0  0  0
    0.8012    0.1315    3.3800 C   0  0  1  0  0  0  0  0  0  0  0  0
    0.2102   -0.1318    2.1250 O   0  0  0  0  0  0  0  0  0  0  0  0
    1.7751    1.3124    3.2500 C   0  0  1  0  0  0  0  0  0  0  0  0
    1.0922    2.4658    3.9881 C   0  0  1  0  0  0  0  0  0  0  0  0
   -0.3771    2.1785    4.2964 C   0  0  2  0  0  0  0  0  0  0  0  0
   -1.1281    2.4441    2.9332 C   0  0  0  0  0  0  0  0  0  0  0  0
    5.6521   -3.7550    2.6772 H   0  0  0  0  0  0  0  0  0  0  0  0
    6.1031   -2.1007    2.2628 H   0  0  0  0  0  0  0  0  0  0  0  0
    4.6412   -2.8176    1.5703 H   0  0  0  0  0  0  0  0  0  0  0  0
    5.1352   -2.1867    4.5141 H   0  0  0  0  0  0  0  0  0  0  0  0
    3.6421   -4.1722    4.2546 H   0  0  0  0  0  0  0  0  0  0  0  0
    2.5853   -3.2652    3.1860 H   0  0  0  0  0  0  0  0  0  0  0  0
    2.7289   -2.8156    4.8811 H   0  0  0  0  0  0  0  0  0  0  0  0
    3.8223    1.5172    2.9017 H   0  0  0  0  0  0  0  0  0  0  0  0
    4.0714    2.4316    5.5172 H   0  0  0  0  0  0  0  0  0  0  0  0
    3.7437    3.3289    4.0802 H   0  0  0  0  0  0  0  0  0  0  0  0
    1.9540    4.7853    6.2363 H   0  0  0  0  0  0  0  0  0  0  0  0
    2.1753    5.1731    3.3059 H   0  0  0  0  0  0  0  0  0  0  0  0
    3.3761    5.3950    4.5734 H   0  0  0  0  0  0  0  0  0  0  0  0
    1.9745    6.4176    4.5286 H   0  0  0  0  0  0  0  0  0  0  0  0
   -0.2644    5.3267    6.0410 H   0  0  0  0  0  0  0  0  0  0  0  0
    0.0285    4.9715    3.3513 H   0  0  0  0  0  0  0  0  0  0  0  0
   -2.0805    3.7568    3.9859 H   0  0  0  0  0  0  0  0  0  0  0  0
   -3.0883    2.3789    8.1822 H   0  0  0  0  0  0  0  0  0  0  0  0
   -3.3141    2.1465    6.4836 H   0  0  0  0  0  0  0  0  0  0  0  0
   -3.2798    3.7673    7.1505 H   0  0  0  0  0  0  0  0  0  0  0  0
   -1.1652    4.8595    7.7882 H   0  0  0  0  0  0  0  0  0  0  0  0
   -1.1877    3.0341    9.8045 H   0  0  0  0  0  0  0  0  0  0  0  0
    1.0286    5.0610    7.9934 H   0  0  0  0  0  0  0  0  0  0  0  0
    0.8840    4.2360    9.4345 H   0  0  0  0  0  0  0  0  0  0  0  0
    2.7853    3.4810    7.9578 H   0  0  0  0  0  0  0  0  0  0  0  0
    1.8606    2.2919    8.7895 H   0  0  0  0  0  0  0  0  0  0  0  0
    2.5479    1.5535    6.7296 H   0  0  0  0  0  0  0  0  0  0  0  0
    1.0186    0.4680    7.6924 H   0  0  0  0  0  0  0  0  0  0  0  0
   -1.5257    0.7627    6.8377 H   0  0  0  0  0  0  0  0  0  0  0  0
   -0.2870    1.5644    9.1755 H   0  0  0  0  0  0  0  0  0  0  0  0
    1.5314   -0.1982    5.6013 H   0  0  0  0  0  0  0  0  0  0  0  0
    0.1270   -1.8273    5.5682 H   0  0  0  0  0  0  0  0  0  0  0  0
   -1.8974    0.3503    3.5856 H   0  0  0  0  0  0  0  0  0  0  0  0
    1.3006   -0.8116    3.6058 H   0  0  0  0  0  0  0  0  0  0  0  0
    0.8951   -0.2630    1.4790 H   0  0  0  0  0  0  0  0  0  0  0  0
    1.8471    1.5887    2.1973 H   0  0  0  0  0  0  0  0  0  0  0  0
    1.1313    3.2730    3.2587 H   0  0  0  0  0  0  0  0  0  0  0  0
   -0.6307    2.0417    2.0613 H   0  0  0  0  0  0  0  0  0  0  0  0
   -1.1649    3.4956    2.6683 H   0  0  0  0  0  0  0  0  0  0  0  0
   -2.1508    2.0654    2.9259 H   0  0  0  0  0  0  0  0  0  0  0  0
  1  2  1  0
  1 36  1  0
  1 37  1  0
  1 38  1  0
  2  3  1  0
  2  4  1  0
  2 39  1  0
  3 40  1  0
  3 41  1  0
  3 42  1  0
  4  5  1  0
  5  6  2  0
  5  7  1  0
  7 32  1  0
  7  8  1  0
  7 43  1  6
  9  8  1  6
  8 44  1  0
  8 45  1  0
  9 22  1  0
  9 33  1  0
  9 10  1  0
 10 11  1  0
 10 12  1  0
 10 46  1  1
 11 47  1  0
 11 48  1  0
 11 49  1  0
 12 13  1  0
 12 14  1  0
 12 50  1  1
 13 51  1  0
 14 34  1  0
 14 15  1  6
 14 16  1  0
 15 52  1  0
 16 24  1  0
 16 17  1  6
 16 18  1  0
 17 53  1  0
 17 54  1  0
 17 55  1  0
 18 19  1  0
 18 20  1  0
 18 56  1  6
 19 57  1  0
 20 21  1  0
 20 58  1  0
 20 59  1  0
 21 22  1  0
 21 60  1  0
 21 61  1  0
 22 23  1  0
 22 62  1  1
 23 24  1  0
 23 26  1  0
 23 63  1  1
 24 25  1  0
 24 64  1  6
 25 65  1  0
 26 27  1  0
 26 28  1  0
 26 66  1  6
 27 67  1  0
 28 34  1  0
 28 29  1  6
 28 30  1  0
 29 68  1  0
 30 31  1  0
 30 32  1  0
 30 69  1  1
 31 70  1  0
 32 33  1  0
 32 71  1  6
 33 34  1  0
 33 72  1  6
 34 35  1  6
 35 73  1  0
 35 74  1  0
 35 75  1  0
M  END
>  <i_m_ct_stereo_status>  (162) 
1

>  <s_m_source_file>  (162) 
/var/tmp/pbs.5076255.sched01/tmpnk13i6y_/41i0yhob8r.sdf

>  <i_m_source_file_index>  (162) 
24

>  <i_lp_mmshare_version>  (162) 
48012

>  <i_f3d_flags>  (162) 
0

>  <s_epik_input>  (162) 
W0NIM11bQ0hdKFtDSDNdKU9DKD1PKVtDQEhdKFtDSDJdMSlbQ0BIXShbQ0BIXTIzKVtDQEhdKFtPSF0pW0NAQF0oW09IXSkoW0NAQEhdNFtPSF0pW0NAQF0zKFtDSDNdKVtDQF0oW09IXSkoW0NASF0oW09IXSlbQ0BASF01W0NIM10pW0NAXShbQ0gzXSkoW0NAQEhdKFtPSF0pW0NIMl1bQ0gyXTYpW0NASF0oW09IXSlbQ0BASF00W0NASF02W0NAQF0xMjU=

>  <s_epik_cmdline>  (162) 
J2VwaWtfcHl0aG9uJywgJy1waHQnLCAnMi4wJywgJy1waCcsICc3LjAnLCAnLXRuJywgJzgnLCAnLW1hJywgJzIwMCcsICctaW1hZScsICc8aW5maWxlLm1hZT4nLCAnLW9tYWUnLCAnPG91dGZpbGUubWFlPic=

>  <r_lp_tautomer_probability>  (162) 
1

>  <r_epik_Ionization_Penalty>  (162) 
2.44857e-06

>  <r_epik_Ionization_Penalty_Charging>  (162) 
0

>  <r_epik_Ionization_Penalty_Neutral>  (162) 
2.44857e-06

>  <r_epik_State_Penalty>  (162) 
-0

>  <r_epik_Charging_Adjusted_Penalty>  (162) 
0

>  <i_epik_Tot_Q>  (162) 
0

>  <i_epik_Tot_abs_Q>  (162) 
0

>  <s_epik_Chemistry_Notes>  (162) 
This compound has an ester and may undergo hydrolysis at high or low pH.

>  <s_lp_Force_Field>  (162) 
OPLS3e

>  <r_lp_Energy>  (162) 
165.642

>  <b_lp_Chiralities_Consistent>  (162) 
1

>  <s_lp_Variant>  (162) 
54:0-1

>  <s_i_glide_gridfile>  (162) 
pfpi4k_grid

>  <i_i_glide_lignum>  (162) 
24

>  <i_i_glide_rotatable_bonds>  (162) 
10

>  <r_i_docking_score>  (162) 
-2.81223

>  <r_i_glide_ligand_efficiency>  (162) 
-0.0803493

>  <r_i_glide_ligand_efficiency_sa>  (162) 
-0.262828

>  <r_i_glide_ligand_efficiency_ln>  (162) 
-0.617346

>  <r_i_glide_gscore>  (162) 
-2.81223

>  <r_i_glide_lipo>  (162) 
-0.279255

>  <r_i_glide_hbond>  (162) 
0

>  <r_i_glide_metal>  (162) 
-0

>  <r_i_glide_rewards>  (162) 
-0.0262726

>  <r_i_glide_evdw>  (162) 
-25.7634

>  <r_i_glide_ecoul>  (162) 
-9.22615

>  <r_i_glide_erotb>  (162) 
0.165395

>  <r_i_glide_esite>  (162) 
0

>  <r_i_glide_emodel>  (162) 
-42.3149

>  <r_i_glide_energy>  (162) 
-34.9896

>  <r_i_glide_einternal>  (162) 
1.83953

>  <r_i_glide_intrahb_reward>  (162) 
-0

>  <i_i_glide_confnum>  (162) 
3

>  <i_i_glide_posenum>  (162) 
31

>  <r_i_glide_eff_state_penalty>  (162) 
0

>  <ligand_id>  (162) 
54

>  <original_smiles>  (162) 
CC(C)OC(=O)C1CC23C(C)C(O)C4(O)C5(C)C(O)CCC2C(C5O)C(O)C2(O)C(O)C1C3C24C

>  <smiles>  (162) 
[H]OC1([H])C2([H])C([H])(O[H])C3(C([H])([H])[H])C([H])(O[H])C([H])([H])C([H])([H])C2([H])C24C([H])([H])C([H])(C(=O)OC([H])(C([H])([H])[H])C([H])([H])[H])C5([H])C([H])(O[H])C1(O[H])C(C([H])([H])[H])(C52[H])C3(O[H])C([H])(O[H])C4([H])C([H])([H])[H]

$$$$
55:0:0
     RDKit          3D

 42 45  0  0  1  0  0  0  0  0999 V2000
    6.8086   -1.8543   -0.7716 O   0  0  0  0  0  0  0  0  0  0  0  0
    5.6337   -2.2183   -0.7381 C   0  0  0  0  0  0  0  0  0  0  0  0
    4.7523   -2.0737   -1.9325 C   0  0  0  0  0  0  0  0  0  0  0  0
    4.0784   -3.1551   -2.5716 C   0  0  0  0  0  0  0  0  0  0  0  0
    3.2831   -2.7586   -3.6118 C   0  0  0  0  0  0  0  0  0  0  0  0
    3.4160   -1.0519   -3.9041 S   0  0  0  0  0  0  0  0  0  0  0  0
    4.5083   -0.8742   -2.5516 C   0  0  0  0  0  0  0  0  0  0  0  0
    5.0767   -2.7479    0.3806 N   0  0  0  0  0  0  0  0  0  0  0  0
    5.7579   -2.9249    1.6568 C   0  0  2  0  0  0  0  0  0  0  0  0
    6.0410   -4.4383    1.7791 C   0  0  0  0  0  0  0  0  0  0  0  0
    4.7378   -5.2730    1.6939 C   0  0  0  0  0  0  0  0  0  0  0  0
    3.7301   -4.7505    0.6339 C   0  0  1  0  0  0  0  0  0  0  0  0
    2.3157   -5.3390    0.8118 C   0  0  0  0  0  0  0  0  0  0  0  0
    2.4227   -6.7337    1.0377 O   0  0  0  0  0  0  0  0  0  0  0  0
    1.4067   -7.3839    1.6497 C   0  0  0  0  0  0  0  0  0  0  0  0
    1.7247   -8.6020    2.0794 N   0  0  0  0  0  0  0  0  0  0  0  0
    0.7581   -9.3137    2.6942 C   0  0  0  0  0  0  0  0  0  0  0  0
   -0.5353   -8.7879    2.8833 C   0  0  0  0  0  0  0  0  0  0  0  0
   -0.7611   -7.4938    2.3859 C   0  0  0  0  0  0  0  0  0  0  0  0
    0.2059   -6.7823    1.7659 N   0  0  0  0  0  0  0  0  0  0  0  0
    3.7043   -3.1908    0.6218 C   0  0  1  0  0  0  0  0  0  0  0  0
    3.3778   -2.5761    1.9972 C   0  0  0  0  0  0  0  0  0  0  0  0
    4.7353   -2.4186    2.6868 C   0  0  0  0  0  0  0  0  0  0  0  0
    4.1677   -4.1746   -2.2375 H   0  0  0  0  0  0  0  0  0  0  0  0
    2.6348   -3.3797   -4.2165 H   0  0  0  0  0  0  0  0  0  0  0  0
    4.8770    0.1097   -2.2854 H   0  0  0  0  0  0  0  0  0  0  0  0
    6.6808   -2.3484    1.7312 H   0  0  0  0  0  0  0  0  0  0  0  0
    6.7283   -4.7356    0.9836 H   0  0  0  0  0  0  0  0  0  0  0  0
    6.5476   -4.6571    2.7161 H   0  0  0  0  0  0  0  0  0  0  0  0
    4.9890   -6.3151    1.4837 H   0  0  0  0  0  0  0  0  0  0  0  0
    4.2523   -5.2623    2.6698 H   0  0  0  0  0  0  0  0  0  0  0  0
    4.1100   -5.1117   -0.3244 H   0  0  0  0  0  0  0  0  0  0  0  0
    1.8211   -4.8759    1.6616 H   0  0  0  0  0  0  0  0  0  0  0  0
    1.7051   -5.1543   -0.0727 H   0  0  0  0  0  0  0  0  0  0  0  0
    1.0202  -10.3035    3.0405 H   0  0  0  0  0  0  0  0  0  0  0  0
   -1.3033   -9.3571    3.3879 H   0  0  0  0  0  0  0  0  0  0  0  0
   -1.7273   -7.0148    2.4901 H   0  0  0  0  0  0  0  0  0  0  0  0
    2.9909   -2.8142   -0.1136 H   0  0  0  0  0  0  0  0  0  0  0  0
    2.9023   -1.6029    1.8637 H   0  0  0  0  0  0  0  0  0  0  0  0
    2.7052   -3.1803    2.6049 H   0  0  0  0  0  0  0  0  0  0  0  0
    4.7810   -2.9844    3.6162 H   0  0  0  0  0  0  0  0  0  0  0  0
    4.9022   -1.3685    2.9294 H   0  0  0  0  0  0  0  0  0  0  0  0
  1  2  2  0
  2  3  1  0
  2  8  1  0
  3  7  2  0
  3  4  1  0
  4  5  2  0
  4 24  1  0
  5  6  1  0
  5 25  1  0
  6  7  1  0
  7 26  1  0
  8 21  1  0
  8  9  1  0
  9 23  1  0
  9 10  1  0
  9 27  1  6
 10 11  1  0
 10 28  1  0
 10 29  1  0
 11 12  1  0
 11 30  1  0
 11 31  1  0
 12 13  1  0
 12 21  1  0
 12 32  1  6
 13 14  1  0
 13 33  1  0
 13 34  1  0
 14 15  1  0
 15 20  1  0
 15 16  2  0
 16 17  1  0
 17 18  2  0
 17 35  1  0
 18 19  1  0
 18 36  1  0
 19 20  2  0
 19 37  1  0
 21 22  1  0
 21 38  1  6
 22 23  1  0
 22 39  1  0
 22 40  1  0
 23 41  1  0
 23 42  1  0
M  END
>  <i_m_ct_stereo_status>  (163) 
1

>  <s_m_source_file>  (163) 
/var/tmp/pbs.5076255.sched01/tmpnk13i6y_/41i0yhob8r.sdf

>  <i_m_source_file_index>  (163) 
25

>  <i_lp_mmshare_version>  (163) 
48012

>  <i_f3d_flags>  (163) 
0

>  <s_epik_input>  (163) 
W2NIXTFzW2NIXVtjSF1jMUMoPU8pTihbQ0BIXTIzKVtDQEhdKFtDSDJdW0NIMl0zKVtDQEBIXShbQ0gyXVtDSDJdMilbQ0gyXU9jNG5bY0hdW2NIXVtjSF1uNA==

>  <s_epik_cmdline>  (163) 
J2VwaWtfcHl0aG9uJywgJy1waHQnLCAnMi4wJywgJy1waCcsICc3LjAnLCAnLXRuJywgJzgnLCAnLW1hJywgJzIwMCcsICctaW1hZScsICc8aW5maWxlLm1hZT4nLCAnLW9tYWUnLCAnPG91dGZpbGUubWFlPic=

>  <r_lp_tautomer_probability>  (163) 
1

>  <r_epik_Ionization_Penalty>  (163) 
7.78494e-07

>  <r_epik_Ionization_Penalty_Charging>  (163) 
0

>  <r_epik_Ionization_Penalty_Neutral>  (163) 
7.78494e-07

>  <r_epik_State_Penalty>  (163) 
-0

>  <r_epik_Charging_Adjusted_Penalty>  (163) 
0

>  <i_epik_Tot_Q>  (163) 
0

>  <i_epik_Tot_abs_Q>  (163) 
0

>  <s_lp_Force_Field>  (163) 
OPLS3e

>  <r_lp_Energy>  (163) 
43.4794

>  <b_lp_Chiralities_Consistent>  (163) 
1

>  <s_lp_Variant>  (163) 
55:0-1

>  <s_i_glide_gridfile>  (163) 
pfpi4k_grid

>  <i_i_glide_lignum>  (163) 
25

>  <i_i_glide_rotatable_bonds>  (163) 
5

>  <r_i_docking_score>  (163) 
-3.80852

>  <r_i_glide_ligand_efficiency>  (163) 
-0.165588

>  <r_i_glide_ligand_efficiency_sa>  (163) 
-0.470909

>  <r_i_glide_ligand_efficiency_ln>  (163) 
-0.920934

>  <r_i_glide_gscore>  (163) 
-3.80852

>  <r_i_glide_lipo>  (163) 
-0.589059

>  <r_i_glide_hbond>  (163) 
-0.196733

>  <r_i_glide_metal>  (163) 
-0

>  <r_i_glide_rewards>  (163) 
-1.19833

>  <r_i_glide_evdw>  (163) 
-33.0844

>  <r_i_glide_ecoul>  (163) 
-6.48573

>  <r_i_glide_erotb>  (163) 
0.865983

>  <r_i_glide_esite>  (163) 
-0.0632954

>  <r_i_glide_emodel>  (163) 
-47.0666

>  <r_i_glide_energy>  (163) 
-39.5701

>  <r_i_glide_einternal>  (163) 
3.85413

>  <r_i_glide_intrahb_reward>  (163) 
-0

>  <i_i_glide_confnum>  (163) 
5

>  <i_i_glide_posenum>  (163) 
32

>  <r_i_glide_eff_state_penalty>  (163) 
0

>  <ligand_id>  (163) 
55

>  <original_smiles>  (163) 
O=C(c1ccsc1)N1C2CCC(COc3ncccn3)C1CC2

>  <smiles>  (163) 
[H]c1nc(OC([H])([H])C2([H])C([H])([H])C([H])([H])C3([H])N(C(=O)c4c([H])sc([H])c4[H])C2([H])C([H])([H])C3([H])[H])nc([H])c1[H]

$$$$
55:0:1
     RDKit          3D

 42 45  0  0  1  0  0  0  0  0999 V2000
    6.2865   -1.4847   -0.6181 O   0  0  0  0  0  0  0  0  0  0  0  0
    5.1945   -2.0541   -0.6486 C   0  0  0  0  0  0  0  0  0  0  0  0
    4.6338   -2.5365   -1.9355 C   0  0  0  0  0  0  0  0  0  0  0  0
    5.3636   -3.3569   -2.8491 C   0  0  0  0  0  0  0  0  0  0  0  0
    4.6114   -3.7418   -3.9300 C   0  0  0  0  0  0  0  0  0  0  0  0
    3.0269   -3.0353   -3.9004 S   0  0  0  0  0  0  0  0  0  0  0  0
    3.3821   -2.2275   -2.4024 C   0  0  0  0  0  0  0  0  0  0  0  0
    4.4924   -2.3422    0.4732 N   0  0  0  0  0  0  0  0  0  0  0  0
    4.9301   -2.0543    1.8401 C   0  0  2  0  0  0  0  0  0  0  0  0
    5.3774   -3.4046    2.4553 C   0  0  0  0  0  0  0  0  0  0  0  0
    4.2509   -4.4698    2.4148 C   0  0  0  0  0  0  0  0  0  0  0  0
    3.4305   -4.4448    1.0982 C   0  0  1  0  0  0  0  0  0  0  0  0
    2.1039   -5.2098    1.2301 C   0  0  0  0  0  0  0  0  0  0  0  0
    2.3455   -6.5745    1.5271 O   0  0  0  0  0  0  0  0  0  0  0  0
    1.3174   -7.3445    1.9657 C   0  0  0  0  0  0  0  0  0  0  0  0
    1.6904   -8.5701    2.3268 N   0  0  0  0  0  0  0  0  0  0  0  0
    0.7291   -9.3992    2.7809 C   0  0  0  0  0  0  0  0  0  0  0  0
   -0.6125   -8.9867    2.8779 C   0  0  0  0  0  0  0  0  0  0  0  0
   -0.8941   -7.6736    2.4714 C   0  0  0  0  0  0  0  0  0  0  0  0
    0.0649   -6.8389    2.0099 N   0  0  0  0  0  0  0  0  0  0  0  0
    3.1816   -2.9859    0.6346 C   0  0  1  0  0  0  0  0  0  0  0  0
    2.5071   -2.0963    1.6938 C   0  0  0  0  0  0  0  0  0  0  0  0
    3.6623   -1.4906    2.5004 C   0  0  0  0  0  0  0  0  0  0  0  0
    6.3818   -3.6738   -2.6708 H   0  0  0  0  0  0  0  0  0  0  0  0
    4.9077   -4.3804   -4.7497 H   0  0  0  0  0  0  0  0  0  0  0  0
    2.6207   -1.5987   -1.9461 H   0  0  0  0  0  0  0  0  0  0  0  0
    5.7426   -1.3251    1.8902 H   0  0  0  0  0  0  0  0  0  0  0  0
    6.2480   -3.7774    1.9116 H   0  0  0  0  0  0  0  0  0  0  0  0
    5.6974   -3.2599    3.4862 H   0  0  0  0  0  0  0  0  0  0  0  0
    4.6596   -5.4694    2.5880 H   0  0  0  0  0  0  0  0  0  0  0  0
    3.5682   -4.2750    3.2432 H   0  0  0  0  0  0  0  0  0  0  0  0
    4.0225   -4.9354    0.3214 H   0  0  0  0  0  0  0  0  0  0  0  0
    1.5026   -4.7636    2.0211 H   0  0  0  0  0  0  0  0  0  0  0  0
    1.5351   -5.1490    0.3015 H   0  0  0  0  0  0  0  0  0  0  0  0
    1.0387  -10.3942    3.0651 H   0  0  0  0  0  0  0  0  0  0  0  0
   -1.3773   -9.6544    3.2527 H   0  0  0  0  0  0  0  0  0  0  0  0
   -1.9003   -7.2788    2.5154 H   0  0  0  0  0  0  0  0  0  0  0  0
    2.5522   -3.0188   -0.2524 H   0  0  0  0  0  0  0  0  0  0  0  0
    1.9601   -1.2990    1.1951 H   0  0  0  0  0  0  0  0  0  0  0  0
    1.7962   -2.6253    2.3256 H   0  0  0  0  0  0  0  0  0  0  0  0
    3.5926   -1.7537    3.5550 H   0  0  0  0  0  0  0  0  0  0  0  0
    3.6334   -0.4009    2.4210 H   0  0  0  0  0  0  0  0  0  0  0  0
  1  2  2  0
  2  3  1  0
  2  8  1  0
  3  7  2  0
  3  4  1  0
  4  5  2  0
  4 24  1  0
  5  6  1  0
  5 25  1  0
  6  7  1  0
  7 26  1  0
  8 21  1  0
  8  9  1  0
  9 23  1  0
  9 10  1  0
  9 27  1  6
 10 11  1  0
 10 28  1  0
 10 29  1  0
 11 12  1  0
 11 30  1  0
 11 31  1  0
 12 13  1  0
 12 21  1  0
 12 32  1  6
 13 14  1  0
 13 33  1  0
 13 34  1  0
 14 15  1  0
 15 20  1  0
 15 16  2  0
 16 17  1  0
 17 18  2  0
 17 35  1  0
 18 19  1  0
 18 36  1  0
 19 20  2  0
 19 37  1  0
 21 22  1  0
 21 38  1  6
 22 23  1  0
 22 39  1  0
 22 40  1  0
 23 41  1  0
 23 42  1  0
M  END
>  <i_m_ct_stereo_status>  (164) 
1

>  <s_m_source_file>  (164) 
/var/tmp/pbs.5076255.sched01/tmpnk13i6y_/41i0yhob8r.sdf

>  <i_m_source_file_index>  (164) 
25

>  <i_lp_mmshare_version>  (164) 
48012

>  <i_f3d_flags>  (164) 
0

>  <s_epik_input>  (164) 
W2NIXTFzW2NIXVtjSF1jMUMoPU8pTihbQ0BIXTIzKVtDQEhdKFtDSDJdW0NIMl0zKVtDQEBIXShbQ0gyXVtDSDJdMilbQ0gyXU9jNG5bY0hdW2NIXVtjSF1uNA==

>  <s_epik_cmdline>  (164) 
J2VwaWtfcHl0aG9uJywgJy1waHQnLCAnMi4wJywgJy1waCcsICc3LjAnLCAnLXRuJywgJzgnLCAnLW1hJywgJzIwMCcsICctaW1hZScsICc8aW5maWxlLm1hZT4nLCAnLW9tYWUnLCAnPG91dGZpbGUubWFlPic=

>  <r_lp_tautomer_probability>  (164) 
1

>  <r_epik_Ionization_Penalty>  (164) 
7.78494e-07

>  <r_epik_Ionization_Penalty_Charging>  (164) 
0

>  <r_epik_Ionization_Penalty_Neutral>  (164) 
7.78494e-07

>  <r_epik_State_Penalty>  (164) 
-0

>  <r_epik_Charging_Adjusted_Penalty>  (164) 
0

>  <i_epik_Tot_Q>  (164) 
0

>  <i_epik_Tot_abs_Q>  (164) 
0

>  <s_lp_Force_Field>  (164) 
OPLS3e

>  <r_lp_Energy>  (164) 
43.4794

>  <b_lp_Chiralities_Consistent>  (164) 
1

>  <s_lp_Variant>  (164) 
55:0-1

>  <s_i_glide_gridfile>  (164) 
pfpi4k_grid

>  <i_i_glide_lignum>  (164) 
25

>  <i_i_glide_rotatable_bonds>  (164) 
5

>  <r_i_docking_score>  (164) 
-3.28807

>  <r_i_glide_ligand_efficiency>  (164) 
-0.14296

>  <r_i_glide_ligand_efficiency_sa>  (164) 
-0.406558

>  <r_i_glide_ligand_efficiency_ln>  (164) 
-0.795086

>  <r_i_glide_gscore>  (164) 
-3.28807

>  <r_i_glide_lipo>  (164) 
-0.44718

>  <r_i_glide_hbond>  (164) 
-0.175868

>  <r_i_glide_metal>  (164) 
-0

>  <r_i_glide_rewards>  (164) 
-1.16306

>  <r_i_glide_evdw>  (164) 
-32.8426

>  <r_i_glide_ecoul>  (164) 
-4.4583

>  <r_i_glide_erotb>  (164) 
0.865983

>  <r_i_glide_esite>  (164) 
-0.057071

>  <r_i_glide_emodel>  (164) 
-44.3061

>  <r_i_glide_energy>  (164) 
-37.3009

>  <r_i_glide_einternal>  (164) 
2.09568

>  <r_i_glide_intrahb_reward>  (164) 
-0

>  <i_i_glide_confnum>  (164) 
5

>  <i_i_glide_posenum>  (164) 
9

>  <r_i_glide_eff_state_penalty>  (164) 
0

>  <ligand_id>  (164) 
55

>  <original_smiles>  (164) 
O=C(c1ccsc1)N1C2CCC(COc3ncccn3)C1CC2

>  <smiles>  (164) 
[H]c1nc(OC([H])([H])C2([H])C([H])([H])C([H])([H])C3([H])N(C(=O)c4c([H])sc([H])c4[H])C2([H])C([H])([H])C3([H])[H])nc([H])c1[H]

$$$$
55:0:2
     RDKit          3D

 42 45  0  0  1  0  0  0  0  0999 V2000
    6.1764   -1.2371   -0.2495 O   0  0  0  0  0  0  0  0  0  0  0  0
    5.0737   -1.7947   -0.3520 C   0  0  0  0  0  0  0  0  0  0  0  0
    4.3938   -1.9009   -1.6828 C   0  0  0  0  0  0  0  0  0  0  0  0
    3.7880   -3.0869   -2.2170 C   0  0  0  0  0  0  0  0  0  0  0  0
    3.1724   -2.8840   -3.4142 C   0  0  0  0  0  0  0  0  0  0  0  0
    3.4177   -1.2614   -3.9910 S   0  0  0  0  0  0  0  0  0  0  0  0
    4.3205   -0.8537   -2.5596 C   0  0  0  0  0  0  0  0  0  0  0  0
    4.4130   -2.2646    0.7326 N   0  0  0  0  0  0  0  0  0  0  0  0
    4.8737   -2.1816    2.1210 C   0  0  2  0  0  0  0  0  0  0  0  0
    5.3521   -3.6015    2.5082 C   0  0  0  0  0  0  0  0  0  0  0  0
    4.2283   -4.6571    2.3453 C   0  0  0  0  0  0  0  0  0  0  0  0
    3.3700   -4.4410    1.0697 C   0  0  1  0  0  0  0  0  0  0  0  0
    2.0595   -5.2486    1.0998 C   0  0  0  0  0  0  0  0  0  0  0  0
    2.3366   -6.6251    1.2804 O   0  0  0  0  0  0  0  0  0  0  0  0
    1.3762   -7.4281    1.7991 C   0  0  0  0  0  0  0  0  0  0  0  0
    1.8031   -8.6467    2.0949 N   0  0  0  0  0  0  0  0  0  0  0  0
    0.9079   -9.5031    2.6315 C   0  0  0  0  0  0  0  0  0  0  0  0
   -0.4242   -9.1147    2.8800 C   0  0  0  0  0  0  0  0  0  0  0  0
   -0.7667   -7.7997    2.5277 C   0  0  0  0  0  0  0  0  0  0  0  0
    0.1300   -6.9492    1.9796 N   0  0  0  0  0  0  0  0  0  0  0  0
    3.1021   -2.9175    0.8347 C   0  0  1  0  0  0  0  0  0  0  0  0
    2.4452   -2.2143    2.0346 C   0  0  0  0  0  0  0  0  0  0  0  0
    3.6170   -1.7424    2.8942 C   0  0  0  0  0  0  0  0  0  0  0  0
    3.7737   -4.0303   -1.6963 H   0  0  0  0  0  0  0  0  0  0  0  0
    2.5940   -3.6066   -3.9687 H   0  0  0  0  0  0  0  0  0  0  0  0
    4.6955    0.1571   -2.4269 H   0  0  0  0  0  0  0  0  0  0  0  0
    5.6756   -1.4556    2.2649 H   0  0  0  0  0  0  0  0  0  0  0  0
    6.2084   -3.8690    1.8841 H   0  0  0  0  0  0  0  0  0  0  0  0
    5.7070   -3.6141    3.5373 H   0  0  0  0  0  0  0  0  0  0  0  0
    4.6618   -5.6599    2.3279 H   0  0  0  0  0  0  0  0  0  0  0  0
    3.5750   -4.6159    3.2190 H   0  0  0  0  0  0  0  0  0  0  0  0
    3.9790   -4.8371    0.2519 H   0  0  0  0  0  0  0  0  0  0  0  0
    1.4357   -4.8762    1.9093 H   0  0  0  0  0  0  0  0  0  0  0  0
    1.5105   -5.1320    0.1655 H   0  0  0  0  0  0  0  0  0  0  0  0
    1.2612  -10.5014    2.8569 H   0  0  0  0  0  0  0  0  0  0  0  0
   -1.1383   -9.8038    3.3169 H   0  0  0  0  0  0  0  0  0  0  0  0
   -1.7716   -7.4163    2.6872 H   0  0  0  0  0  0  0  0  0  0  0  0
    2.4509   -2.7454   -0.0256 H   0  0  0  0  0  0  0  0  0  0  0  0
    1.8689   -1.3604    1.6767 H   0  0  0  0  0  0  0  0  0  0  0  0
    1.7603   -2.8449    2.5991 H   0  0  0  0  0  0  0  0  0  0  0  0
    3.5765   -2.1785    3.8917 H   0  0  0  0  0  0  0  0  0  0  0  0
    3.5761   -0.6569    2.9999 H   0  0  0  0  0  0  0  0  0  0  0  0
  1  2  2  0
  2  3  1  0
  2  8  1  0
  3  7  2  0
  3  4  1  0
  4  5  2  0
  4 24  1  0
  5  6  1  0
  5 25  1  0
  6  7  1  0
  7 26  1  0
  8 21  1  0
  8  9  1  0
  9 23  1  0
  9 10  1  0
  9 27  1  6
 10 11  1  0
 10 28  1  0
 10 29  1  0
 11 12  1  0
 11 30  1  0
 11 31  1  0
 12 13  1  0
 12 21  1  0
 12 32  1  6
 13 14  1  0
 13 33  1  0
 13 34  1  0
 14 15  1  0
 15 20  1  0
 15 16  2  0
 16 17  1  0
 17 18  2  0
 17 35  1  0
 18 19  1  0
 18 36  1  0
 19 20  2  0
 19 37  1  0
 21 22  1  0
 21 38  1  6
 22 23  1  0
 22 39  1  0
 22 40  1  0
 23 41  1  0
 23 42  1  0
M  END
>  <i_m_ct_stereo_status>  (165) 
1

>  <s_m_source_file>  (165) 
/var/tmp/pbs.5076255.sched01/tmpnk13i6y_/41i0yhob8r.sdf

>  <i_m_source_file_index>  (165) 
25

>  <i_lp_mmshare_version>  (165) 
48012

>  <i_f3d_flags>  (165) 
0

>  <s_epik_input>  (165) 
W2NIXTFzW2NIXVtjSF1jMUMoPU8pTihbQ0BIXTIzKVtDQEhdKFtDSDJdW0NIMl0zKVtDQEBIXShbQ0gyXVtDSDJdMilbQ0gyXU9jNG5bY0hdW2NIXVtjSF1uNA==

>  <s_epik_cmdline>  (165) 
J2VwaWtfcHl0aG9uJywgJy1waHQnLCAnMi4wJywgJy1waCcsICc3LjAnLCAnLXRuJywgJzgnLCAnLW1hJywgJzIwMCcsICctaW1hZScsICc8aW5maWxlLm1hZT4nLCAnLW9tYWUnLCAnPG91dGZpbGUubWFlPic=

>  <r_lp_tautomer_probability>  (165) 
1

>  <r_epik_Ionization_Penalty>  (165) 
7.78494e-07

>  <r_epik_Ionization_Penalty_Charging>  (165) 
0

>  <r_epik_Ionization_Penalty_Neutral>  (165) 
7.78494e-07

>  <r_epik_State_Penalty>  (165) 
-0

>  <r_epik_Charging_Adjusted_Penalty>  (165) 
0

>  <i_epik_Tot_Q>  (165) 
0

>  <i_epik_Tot_abs_Q>  (165) 
0

>  <s_lp_Force_Field>  (165) 
OPLS3e

>  <r_lp_Energy>  (165) 
43.4794

>  <b_lp_Chiralities_Consistent>  (165) 
1

>  <s_lp_Variant>  (165) 
55:0-1

>  <s_i_glide_gridfile>  (165) 
pfpi4k_grid

>  <i_i_glide_lignum>  (165) 
25

>  <i_i_glide_rotatable_bonds>  (165) 
5

>  <r_i_docking_score>  (165) 
-3.2029

>  <r_i_glide_ligand_efficiency>  (165) 
-0.139257

>  <r_i_glide_ligand_efficiency_sa>  (165) 
-0.396027

>  <r_i_glide_ligand_efficiency_ln>  (165) 
-0.774491

>  <r_i_glide_gscore>  (165) 
-3.2029

>  <r_i_glide_lipo>  (165) 
-0.386881

>  <r_i_glide_hbond>  (165) 
-0.0550947

>  <r_i_glide_metal>  (165) 
-0

>  <r_i_glide_rewards>  (165) 
-1.16306

>  <r_i_glide_evdw>  (165) 
-33.595

>  <r_i_glide_ecoul>  (165) 
-4.88024

>  <r_i_glide_erotb>  (165) 
0.865983

>  <r_i_glide_esite>  (165) 
-0.0520591

>  <r_i_glide_emodel>  (165) 
-45.3698

>  <r_i_glide_energy>  (165) 
-38.4753

>  <r_i_glide_einternal>  (165) 
1.86288

>  <r_i_glide_intrahb_reward>  (165) 
-0

>  <i_i_glide_confnum>  (165) 
5

>  <i_i_glide_posenum>  (165) 
16

>  <r_i_glide_eff_state_penalty>  (165) 
0

>  <ligand_id>  (165) 
55

>  <original_smiles>  (165) 
O=C(c1ccsc1)N1C2CCC(COc3ncccn3)C1CC2

>  <smiles>  (165) 
[H]c1nc(OC([H])([H])C2([H])C([H])([H])C([H])([H])C3([H])N(C(=O)c4c([H])sc([H])c4[H])C2([H])C([H])([H])C3([H])[H])nc([H])c1[H]

$$$$
56:0:0
     RDKit          3D

 54 57  0  0  1  0  0  0  0  0999 V2000
    0.5652   -9.4958    3.6214 C   0  0  0  0  0  0  0  0  0  0  0  0
    0.9388   -8.2392    3.3155 C   0  0  0  0  0  0  0  0  0  0  0  0
   -0.0221   -7.1393    3.1810 C   0  0  0  0  0  0  0  0  0  0  0  0
   -1.2472   -7.2073    3.2847 O   0  0  0  0  0  0  0  0  0  0  0  0
    0.6419   -6.0138    2.9089 O   0  0  0  0  0  0  0  0  0  0  0  0
    2.0590   -6.1462    2.9013 C   0  0  1  0  0  0  0  0  0  0  0  0
    2.3385   -7.7154    3.0813 C   0  0  2  0  0  0  0  0  0  0  0  0
    3.1596   -8.6259    2.0369 C   0  0  0  0  0  0  0  0  0  0  0  0
    4.6210   -8.2630    1.5237 C   0  0  0  0  0  0  0  0  0  0  0  0
    4.5806   -6.8980    0.8300 C   0  0  2  0  0  0  0  0  0  0  0  0
    5.4784   -5.6715    0.4091 C   0  0  1  0  0  0  0  0  0  0  0  0
    4.8126   -4.5601   -0.4674 C   0  0  0  0  0  0  0  0  0  0  0  0
    3.6493   -3.6209    0.1035 C   0  0  1  0  0  0  0  0  0  0  0  0
    2.7036   -3.4309   -0.9508 O   0  0  0  0  0  0  0  0  0  0  0  0
    2.9363   -2.3313   -1.7836 C   0  0  0  0  0  0  0  0  0  0  0  0
    4.0864   -2.4608   -2.5661 O   0  0  0  0  0  0  0  0  0  0  0  0
    3.8871   -3.2261   -3.7440 C   0  0  0  0  0  0  0  0  0  0  0  0
    2.8512   -3.9647    1.4339 C   0  0  0  0  0  0  0  0  0  0  0  0
    2.7592   -5.4729    1.6830 C   0  0  2  0  0  0  0  0  0  0  0  0
    1.9099   -5.9838    0.4687 C   0  0  0  0  0  0  0  0  0  0  0  0
    4.1998   -5.9551    1.9147 C   0  0  2  0  0  0  0  0  0  0  0  0
    5.6436   -5.3144    1.8561 C   0  0  0  0  0  0  0  0  0  0  0  0
    6.8058   -6.0844    2.5342 C   0  0  0  0  0  0  0  0  0  0  0  0
    5.9272   -3.8659    2.3153 C   0  0  0  0  0  0  0  0  0  0  0  0
    1.2865  -10.2921    3.7270 H   0  0  0  0  0  0  0  0  0  0  0  0
   -0.4747   -9.7529    3.7840 H   0  0  0  0  0  0  0  0  0  0  0  0
    2.4000   -5.6450    3.8083 H   0  0  0  0  0  0  0  0  0  0  0  0
    2.8553   -7.8246    4.0354 H   0  0  0  0  0  0  0  0  0  0  0  0
    3.2521   -9.6143    2.4924 H   0  0  0  0  0  0  0  0  0  0  0  0
    2.5389   -8.8255    1.1654 H   0  0  0  0  0  0  0  0  0  0  0  0
    5.3084   -8.3163    2.3660 H   0  0  0  0  0  0  0  0  0  0  0  0
    4.9575   -9.0248    0.8199 H   0  0  0  0  0  0  0  0  0  0  0  0
    3.9654   -7.0283   -0.0495 H   0  0  0  0  0  0  0  0  0  0  0  0
    6.4124   -6.0229   -0.0252 H   0  0  0  0  0  0  0  0  0  0  0  0
    5.5973   -3.9013   -0.8362 H   0  0  0  0  0  0  0  0  0  0  0  0
    4.4575   -5.0368   -1.3774 H   0  0  0  0  0  0  0  0  0  0  0  0
    4.0829   -2.6388    0.2927 H   0  0  0  0  0  0  0  0  0  0  0  0
    2.0581   -2.2006   -2.4184 H   0  0  0  0  0  0  0  0  0  0  0  0
    3.0177   -1.4224   -1.1816 H   0  0  0  0  0  0  0  0  0  0  0  0
    4.8288   -3.3276   -4.2831 H   0  0  0  0  0  0  0  0  0  0  0  0
    3.1720   -2.7422   -4.4099 H   0  0  0  0  0  0  0  0  0  0  0  0
    3.5285   -4.2275   -3.5196 H   0  0  0  0  0  0  0  0  0  0  0  0
    3.2976   -3.4963    2.3086 H   0  0  0  0  0  0  0  0  0  0  0  0
    1.8566   -3.5204    1.3888 H   0  0  0  0  0  0  0  0  0  0  0  0
    2.3532   -5.7928   -0.4989 H   0  0  0  0  0  0  0  0  0  0  0  0
    0.9648   -5.4592    0.4206 H   0  0  0  0  0  0  0  0  0  0  0  0
    1.6498   -7.0357    0.5043 H   0  0  0  0  0  0  0  0  0  0  0  0
    4.3270   -6.3458    2.9274 H   0  0  0  0  0  0  0  0  0  0  0  0
    6.6207   -6.2523    3.5966 H   0  0  0  0  0  0  0  0  0  0  0  0
    7.7589   -5.5568    2.4547 H   0  0  0  0  0  0  0  0  0  0  0  0
    7.0070   -7.0505    2.0721 H   0  0  0  0  0  0  0  0  0  0  0  0
    5.8015   -3.7626    3.3946 H   0  0  0  0  0  0  0  0  0  0  0  0
    5.3321   -3.0909    1.8632 H   0  0  0  0  0  0  0  0  0  0  0  0
    6.9482   -3.5678    2.0718 H   0  0  0  0  0  0  0  0  0  0  0  0
  1  2  2  0
  1 25  1  0
  1 26  1  0
  2  7  1  0
  2  3  1  0
  3  4  2  0
  3  5  1  0
  5  6  1  0
  6 19  1  0
  6  7  1  0
  6 27  1  1
  7  8  1  0
  7 28  1  1
  8  9  1  0
  8 29  1  0
  8 30  1  0
  9 10  1  0
  9 31  1  0
  9 32  1  0
 10 21  1  0
 10 11  1  0
 10 33  1  6
 11 22  1  0
 11 12  1  0
 11 34  1  6
 12 13  1  0
 12 35  1  0
 12 36  1  0
 13 14  1  0
 13 18  1  0
 13 37  1  1
 14 15  1  0
 15 16  1  0
 15 38  1  0
 15 39  1  0
 16 17  1  0
 17 40  1  0
 17 41  1  0
 17 42  1  0
 18 19  1  0
 18 43  1  0
 18 44  1  0
 19 20  1  6
 19 21  1  0
 20 45  1  0
 20 46  1  0
 20 47  1  0
 21 22  1  0
 21 48  1  1
 22 23  1  0
 22 24  1  0
 23 49  1  0
 23 50  1  0
 23 51  1  0
 24 52  1  0
 24 53  1  0
 24 54  1  0
M  END
>  <i_m_ct_stereo_status>  (166) 
1

>  <s_m_source_file>  (166) 
/var/tmp/pbs.5076255.sched01/tmpnk13i6y_/41i0yhob8r.sdf

>  <i_m_source_file_index>  (166) 
26

>  <i_lp_mmshare_version>  (166) 
48012

>  <i_f3d_flags>  (166) 
0

>  <s_epik_input>  (166) 
Tz1DKE8xKUMoPVtDSDJdKVtDQEhdKFtDQEhdMVtDQEBdMjNbQ0gzXSlbQ0gyXVtDSDJdW0NAQEhdNFtDQEhdKEMoW0NAQEhdMzQpKFtDSDNdKVtDSDNdKVtDSDJdW0NASF0oW0NIMl0yKU9bQ0gyXU9bQ0gzXQ==

>  <s_epik_cmdline>  (166) 
J2VwaWtfcHl0aG9uJywgJy1waHQnLCAnMi4wJywgJy1waCcsICc3LjAnLCAnLXRuJywgJzgnLCAnLW1hJywgJzIwMCcsICctaW1hZScsICc8aW5maWxlLm1hZT4nLCAnLW9tYWUnLCAnPG91dGZpbGUubWFlPic=

>  <r_lp_tautomer_probability>  (166) 
1

>  <r_epik_Ionization_Penalty>  (166) 
1.2131e-12

>  <r_epik_Ionization_Penalty_Charging>  (166) 
0

>  <r_epik_Ionization_Penalty_Neutral>  (166) 
1.2131e-12

>  <r_epik_State_Penalty>  (166) 
-0

>  <r_epik_Charging_Adjusted_Penalty>  (166) 
0

>  <i_epik_Tot_Q>  (166) 
0

>  <i_epik_Tot_abs_Q>  (166) 
0

>  <s_epik_Chemistry_Notes>  (166) 
This compound has an ester and may undergo hydrolysis at high or low pH. This compound contains an acetal/aminal-like group ( X-CH(R)-Y where X, Y are N, S, or O) that may be acid/base labile, releasing an aldehyde.

>  <s_lp_Force_Field>  (166) 
OPLS3e

>  <r_lp_Energy>  (166) 
136.764

>  <b_lp_Chiralities_Consistent>  (166) 
1

>  <s_lp_Variant>  (166) 
56:0-1

>  <s_i_glide_gridfile>  (166) 
pfpi4k_grid

>  <i_i_glide_lignum>  (166) 
26

>  <i_i_glide_rotatable_bonds>  (166) 
3

>  <r_i_docking_score>  (166) 
-2.9189

>  <r_i_glide_ligand_efficiency>  (166) 
-0.121621

>  <r_i_glide_ligand_efficiency_sa>  (166) 
-0.350815

>  <r_i_glide_ligand_efficiency_ln>  (166) 
-0.698627

>  <r_i_glide_gscore>  (166) 
-2.9189

>  <r_i_glide_lipo>  (166) 
-0.497322

>  <r_i_glide_hbond>  (166) 
-0.118831

>  <r_i_glide_metal>  (166) 
-0

>  <r_i_glide_rewards>  (166) 
-1.12875

>  <r_i_glide_evdw>  (166) 
-21.8815

>  <r_i_glide_ecoul>  (166) 
-1.92056

>  <r_i_glide_erotb>  (166) 
0.337229

>  <r_i_glide_esite>  (166) 
-0.129068

>  <r_i_glide_emodel>  (166) 
-27.7872

>  <r_i_glide_energy>  (166) 
-23.802

>  <r_i_glide_einternal>  (166) 
1.50069

>  <r_i_glide_intrahb_reward>  (166) 
-0

>  <i_i_glide_confnum>  (166) 
4

>  <i_i_glide_posenum>  (166) 
9

>  <r_i_glide_eff_state_penalty>  (166) 
0

>  <ligand_id>  (166) 
56

>  <original_smiles>  (166) 
C=C1C(=O)OC2C1CCC1C3CC(OCOC)CC2(C)C1C3(C)C

>  <smiles>  (166) 
[H]C([H])=C1C(=O)OC2([H])C1([H])C([H])([H])C([H])([H])C1([H])C3([H])C([H])([H])C([H])(OC([H])([H])OC([H])([H])[H])C([H])([H])C2(C([H])([H])[H])C1([H])C3(C([H])([H])[H])C([H])([H])[H]

$$$$
56:0:1
     RDKit          3D

 54 57  0  0  1  0  0  0  0  0999 V2000
    4.6809   -0.8012   -2.2599 C   0  0  0  0  0  0  0  0  0  0  0  0
    4.6843   -1.9762   -1.6080 C   0  0  0  0  0  0  0  0  0  0  0  0
    4.6994   -3.2564   -2.3178 C   0  0  0  0  0  0  0  0  0  0  0  0
    4.6930   -3.4083   -3.5398 O   0  0  0  0  0  0  0  0  0  0  0  0
    4.7332   -4.2437   -1.4167 O   0  0  0  0  0  0  0  0  0  0  0  0
    4.7865   -3.8163   -0.0622 C   0  0  1  0  0  0  0  0  0  0  0  0
    4.6895   -2.2164   -0.1171 C   0  0  2  0  0  0  0  0  0  0  0  0
    3.5683   -1.3349    0.6300 C   0  0  0  0  0  0  0  0  0  0  0  0
    3.2555   -1.4560    2.1832 C   0  0  0  0  0  0  0  0  0  0  0  0
    2.8221   -2.8927    2.4950 C   0  0  2  0  0  0  0  0  0  0  0  0
    2.7250   -3.9420    3.6662 C   0  0  1  0  0  0  0  0  0  0  0  0
    2.0162   -5.2867    3.3331 C   0  0  0  0  0  0  0  0  0  0  0  0
    2.6361   -6.3658    2.3151 C   0  0  1  0  0  0  0  0  0  0  0  0
    1.5682   -6.9737    1.5755 O   0  0  0  0  0  0  0  0  0  0  0  0
    0.6302   -7.7033    2.3209 C   0  0  0  0  0  0  0  0  0  0  0  0
   -0.3624   -6.8852    2.8648 O   0  0  0  0  0  0  0  0  0  0  0  0
   -1.2917   -7.5866    3.6716 C   0  0  0  0  0  0  0  0  0  0  0  0
    3.8077   -5.9942    1.3060 C   0  0  0  0  0  0  0  0  0  0  0  0
    3.7715   -4.5192    0.8901 C   0  0  2  0  0  0  0  0  0  0  0  0
    2.4178   -4.4135    0.1134 C   0  0  0  0  0  0  0  0  0  0  0  0
    4.0272   -3.7041    2.1745 C   0  0  2  0  0  0  0  0  0  0  0  0
    4.2182   -4.0184    3.7146 C   0  0  0  0  0  0  0  0  0  0  0  0
    4.8290   -2.9164    4.6109 C   0  0  0  0  0  0  0  0  0  0  0  0
    4.9674   -5.2720    4.2258 C   0  0  0  0  0  0  0  0  0  0  0  0
    4.6799    0.1383   -1.7308 H   0  0  0  0  0  0  0  0  0  0  0  0
    4.7018   -0.7590   -3.3406 H   0  0  0  0  0  0  0  0  0  0  0  0
    5.7901   -4.0772    0.2751 H   0  0  0  0  0  0  0  0  0  0  0  0
    5.6478   -1.8408    0.2403 H   0  0  0  0  0  0  0  0  0  0  0  0
    3.8314   -0.2885    0.4656 H   0  0  0  0  0  0  0  0  0  0  0  0
    2.6242   -1.4351    0.0982 H   0  0  0  0  0  0  0  0  0  0  0  0
    4.1231   -1.1125    2.7433 H   0  0  0  0  0  0  0  0  0  0  0  0
    2.4504   -0.7653    2.4376 H   0  0  0  0  0  0  0  0  0  0  0  0
    1.8842   -3.0458    1.9740 H   0  0  0  0  0  0  0  0  0  0  0  0
    2.2990   -3.4657    4.5504 H   0  0  0  0  0  0  0  0  0  0  0  0
    1.8223   -5.8128    4.2664 H   0  0  0  0  0  0  0  0  0  0  0  0
    1.0323   -4.9913    2.9753 H   0  0  0  0  0  0  0  0  0  0  0  0
    3.0447   -7.1933    2.8909 H   0  0  0  0  0  0  0  0  0  0  0  0
    0.1478   -8.4004    1.6358 H   0  0  0  0  0  0  0  0  0  0  0  0
    1.1204   -8.2963    3.0994 H   0  0  0  0  0  0  0  0  0  0  0  0
   -1.9813   -6.8827    4.1301 H   0  0  0  0  0  0  0  0  0  0  0  0
   -0.8063   -8.1333    4.4758 H   0  0  0  0  0  0  0  0  0  0  0  0
   -1.8734   -8.2850    3.0772 H   0  0  0  0  0  0  0  0  0  0  0  0
    4.7888   -6.1976    1.7287 H   0  0  0  0  0  0  0  0  0  0  0  0
    3.7584   -6.6414    0.4285 H   0  0  0  0  0  0  0  0  0  0  0  0
    1.5602   -4.6960    0.7032 H   0  0  0  0  0  0  0  0  0  0  0  0
    2.4050   -5.1161   -0.7188 H   0  0  0  0  0  0  0  0  0  0  0  0
    2.2144   -3.4456   -0.3281 H   0  0  0  0  0  0  0  0  0  0  0  0
    4.9558   -3.1334    2.0979 H   0  0  0  0  0  0  0  0  0  0  0  0
    5.8134   -2.6155    4.2644 H   0  0  0  0  0  0  0  0  0  0  0  0
    4.9328   -3.2372    5.6499 H   0  0  0  0  0  0  0  0  0  0  0  0
    4.2098   -2.0218    4.6755 H   0  0  0  0  0  0  0  0  0  0  0  0
    6.0323   -5.2171    3.9877 H   0  0  0  0  0  0  0  0  0  0  0  0
    4.6091   -6.2168    3.8500 H   0  0  0  0  0  0  0  0  0  0  0  0
    4.8832   -5.3763    5.3108 H   0  0  0  0  0  0  0  0  0  0  0  0
  1  2  2  0
  1 25  1  0
  1 26  1  0
  2  7  1  0
  2  3  1  0
  3  4  2  0
  3  5  1  0
  5  6  1  0
  6 19  1  0
  6  7  1  0
  6 27  1  1
  7  8  1  0
  7 28  1  1
  8  9  1  0
  8 29  1  0
  8 30  1  0
  9 10  1  0
  9 31  1  0
  9 32  1  0
 10 21  1  0
 10 11  1  0
 10 33  1  6
 11 22  1  0
 11 12  1  0
 11 34  1  1
 12 13  1  0
 12 35  1  0
 12 36  1  0
 13 14  1  0
 13 18  1  0
 13 37  1  1
 14 15  1  0
 15 16  1  0
 15 38  1  0
 15 39  1  0
 16 17  1  0
 17 40  1  0
 17 41  1  0
 17 42  1  0
 18 19  1  0
 18 43  1  0
 18 44  1  0
 19 20  1  6
 19 21  1  0
 20 45  1  0
 20 46  1  0
 20 47  1  0
 21 22  1  0
 21 48  1  6
 22 23  1  0
 22 24  1  0
 23 49  1  0
 23 50  1  0
 23 51  1  0
 24 52  1  0
 24 53  1  0
 24 54  1  0
M  END
>  <i_m_ct_stereo_status>  (167) 
1

>  <s_m_source_file>  (167) 
/var/tmp/pbs.5076255.sched01/tmpnk13i6y_/41i0yhob8r.sdf

>  <i_m_source_file_index>  (167) 
26

>  <i_lp_mmshare_version>  (167) 
48012

>  <i_f3d_flags>  (167) 
0

>  <s_epik_input>  (167) 
Tz1DKE8xKUMoPVtDSDJdKVtDQEhdKFtDQEhdMVtDQEBdMjNbQ0gzXSlbQ0gyXVtDSDJdW0NAQEhdNFtDQEhdKEMoW0NAQEhdMzQpKFtDSDNdKVtDSDNdKVtDSDJdW0NASF0oW0NIMl0yKU9bQ0gyXU9bQ0gzXQ==

>  <s_epik_cmdline>  (167) 
J2VwaWtfcHl0aG9uJywgJy1waHQnLCAnMi4wJywgJy1waCcsICc3LjAnLCAnLXRuJywgJzgnLCAnLW1hJywgJzIwMCcsICctaW1hZScsICc8aW5maWxlLm1hZT4nLCAnLW9tYWUnLCAnPG91dGZpbGUubWFlPic=

>  <r_lp_tautomer_probability>  (167) 
1

>  <r_epik_Ionization_Penalty>  (167) 
1.2131e-12

>  <r_epik_Ionization_Penalty_Charging>  (167) 
0

>  <r_epik_Ionization_Penalty_Neutral>  (167) 
1.2131e-12

>  <r_epik_State_Penalty>  (167) 
-0

>  <r_epik_Charging_Adjusted_Penalty>  (167) 
0

>  <i_epik_Tot_Q>  (167) 
0

>  <i_epik_Tot_abs_Q>  (167) 
0

>  <s_epik_Chemistry_Notes>  (167) 
This compound has an ester and may undergo hydrolysis at high or low pH. This compound contains an acetal/aminal-like group ( X-CH(R)-Y where X, Y are N, S, or O) that may be acid/base labile, releasing an aldehyde.

>  <s_lp_Force_Field>  (167) 
OPLS3e

>  <r_lp_Energy>  (167) 
136.764

>  <b_lp_Chiralities_Consistent>  (167) 
1

>  <s_lp_Variant>  (167) 
56:0-1

>  <s_i_glide_gridfile>  (167) 
pfpi4k_grid

>  <i_i_glide_lignum>  (167) 
26

>  <i_i_glide_rotatable_bonds>  (167) 
3

>  <r_i_docking_score>  (167) 
-2.74204

>  <r_i_glide_ligand_efficiency>  (167) 
-0.114252

>  <r_i_glide_ligand_efficiency_sa>  (167) 
-0.329559

>  <r_i_glide_ligand_efficiency_ln>  (167) 
-0.656296

>  <r_i_glide_gscore>  (167) 
-2.74204

>  <r_i_glide_lipo>  (167) 
-0.123829

>  <r_i_glide_hbond>  (167) 
-0.142

>  <r_i_glide_metal>  (167) 
-0

>  <r_i_glide_rewards>  (167) 
-1.20745

>  <r_i_glide_evdw>  (167) 
-21.6152

>  <r_i_glide_ecoul>  (167) 
-3.21068

>  <r_i_glide_erotb>  (167) 
0.337229

>  <r_i_glide_esite>  (167) 
-0.0436293

>  <r_i_glide_emodel>  (167) 
-27.6813

>  <r_i_glide_energy>  (167) 
-24.8258

>  <r_i_glide_einternal>  (167) 
2.9389

>  <r_i_glide_intrahb_reward>  (167) 
-0

>  <i_i_glide_confnum>  (167) 
4

>  <i_i_glide_posenum>  (167) 
40

>  <r_i_glide_eff_state_penalty>  (167) 
0

>  <ligand_id>  (167) 
56

>  <original_smiles>  (167) 
C=C1C(=O)OC2C1CCC1C3CC(OCOC)CC2(C)C1C3(C)C

>  <smiles>  (167) 
[H]C([H])=C1C(=O)OC2([H])C1([H])C([H])([H])C([H])([H])C1([H])C3([H])C([H])([H])C([H])(OC([H])([H])OC([H])([H])[H])C([H])([H])C2(C([H])([H])[H])C1([H])C3(C([H])([H])[H])C([H])([H])[H]

$$$$
56:0:2
     RDKit          3D

 54 57  0  0  1  0  0  0  0  0999 V2000
    0.5283  -10.1237    3.5175 C   0  0  0  0  0  0  0  0  0  0  0  0
    0.8378   -8.8310    3.3054 C   0  0  0  0  0  0  0  0  0  0  0  0
   -0.1785   -7.7733    3.2446 C   0  0  0  0  0  0  0  0  0  0  0  0
   -1.3978   -7.9103    3.3341 O   0  0  0  0  0  0  0  0  0  0  0  0
    0.4345   -6.5971    3.0657 O   0  0  0  0  0  0  0  0  0  0  0  0
    1.8556   -6.6639    3.0580 C   0  0  1  0  0  0  0  0  0  0  0  0
    2.2098   -8.2272    3.1258 C   0  0  2  0  0  0  0  0  0  0  0  0
    3.0787   -9.0231    2.0278 C   0  0  0  0  0  0  0  0  0  0  0  0
    4.5250   -8.5591    1.5594 C   0  0  0  0  0  0  0  0  0  0  0  0
    4.4257   -7.1527    0.9663 C   0  0  2  0  0  0  0  0  0  0  0  0
    5.2733   -5.8653    0.6527 C   0  0  1  0  0  0  0  0  0  0  0  0
    4.5646   -4.7306   -0.1395 C   0  0  0  0  0  0  0  0  0  0  0  0
    3.3492   -3.8744    0.4676 C   0  0  1  0  0  0  0  0  0  0  0  0
    2.4113   -3.6391   -0.5874 O   0  0  0  0  0  0  0  0  0  0  0  0
    2.7893   -2.6854   -1.5450 C   0  0  0  0  0  0  0  0  0  0  0  0
    3.9373   -3.0493   -2.2439 O   0  0  0  0  0  0  0  0  0  0  0  0
    4.4504   -2.0546   -3.1018 C   0  0  0  0  0  0  0  0  0  0  0  0
    2.5656   -4.3489    1.7664 C   0  0  0  0  0  0  0  0  0  0  0  0
    2.5311   -5.8740    1.8971 C   0  0  2  0  0  0  0  0  0  0  0  0
    1.7063   -6.3232    0.6374 C   0  0  0  0  0  0  0  0  0  0  0  0
    3.9922   -6.3094    2.1096 C   0  0  2  0  0  0  0  0  0  0  0  0
    5.4053   -5.6017    2.1200 C   0  0  0  0  0  0  0  0  0  0  0  0
    6.5989   -6.3582    2.7508 C   0  0  0  0  0  0  0  0  0  0  0  0
    5.6119   -4.1778    2.6850 C   0  0  0  0  0  0  0  0  0  0  0  0
    1.2846  -10.8924    3.5736 H   0  0  0  0  0  0  0  0  0  0  0  0
   -0.4994  -10.4329    3.6578 H   0  0  0  0  0  0  0  0  0  0  0  0
    2.1716   -6.2140    3.9997 H   0  0  0  0  0  0  0  0  0  0  0  0
    2.7216   -8.3842    4.0765 H   0  0  0  0  0  0  0  0  0  0  0  0
    3.2118  -10.0370    2.4100 H   0  0  0  0  0  0  0  0  0  0  0  0
    2.4755   -9.1818    1.1364 H   0  0  0  0  0  0  0  0  0  0  0  0
    5.2099   -8.6459    2.4042 H   0  0  0  0  0  0  0  0  0  0  0  0
    4.9000   -9.2558    0.8093 H   0  0  0  0  0  0  0  0  0  0  0  0
    3.8215   -7.2345    0.0742 H   0  0  0  0  0  0  0  0  0  0  0  0
    6.2206   -6.1476    0.1927 H   0  0  0  0  0  0  0  0  0  0  0  0
    5.3342   -4.0207   -0.4381 H   0  0  0  0  0  0  0  0  0  0  0  0
    4.2308   -5.1717   -1.0782 H   0  0  0  0  0  0  0  0  0  0  0  0
    3.7151   -2.8809    0.7196 H   0  0  0  0  0  0  0  0  0  0  0  0
    1.9707   -2.6043   -2.2614 H   0  0  0  0  0  0  0  0  0  0  0  0
    2.9285   -1.7153   -1.0627 H   0  0  0  0  0  0  0  0  0  0  0  0
    5.3864   -2.4167   -3.5215 H   0  0  0  0  0  0  0  0  0  0  0  0
    4.6688   -1.1303   -2.5727 H   0  0  0  0  0  0  0  0  0  0  0  0
    3.7615   -1.8518   -3.9175 H   0  0  0  0  0  0  0  0  0  0  0  0
    2.9893   -3.9342    2.6775 H   0  0  0  0  0  0  0  0  0  0  0  0
    1.5575   -3.9476    1.7646 H   0  0  0  0  0  0  0  0  0  0  0  0
    2.1458   -6.0526   -0.3194 H   0  0  0  0  0  0  0  0  0  0  0  0
    0.7242   -5.8567    0.6384 H   0  0  0  0  0  0  0  0  0  0  0  0
    1.4883   -7.3841    0.6113 H   0  0  0  0  0  0  0  0  0  0  0  0
    4.1286   -6.7636    3.0941 H   0  0  0  0  0  0  0  0  0  0  0  0
    6.4165   -6.6127    3.7970 H   0  0  0  0  0  0  0  0  0  0  0  0
    7.5232   -5.7773    2.7143 H   0  0  0  0  0  0  0  0  0  0  0  0
    6.8504   -7.2759    2.2174 H   0  0  0  0  0  0  0  0  0  0  0  0
    5.4859   -4.1559    3.7679 H   0  0  0  0  0  0  0  0  0  0  0  0
    4.9853   -3.4053    2.2787 H   0  0  0  0  0  0  0  0  0  0  0  0
    6.6143   -3.8130    2.4576 H   0  0  0  0  0  0  0  0  0  0  0  0
  1  2  2  0
  1 25  1  0
  1 26  1  0
  2  7  1  0
  2  3  1  0
  3  4  2  0
  3  5  1  0
  5  6  1  0
  6 19  1  0
  6  7  1  0
  6 27  1  1
  7  8  1  0
  7 28  1  1
  8  9  1  0
  8 29  1  0
  8 30  1  0
  9 10  1  0
  9 31  1  0
  9 32  1  0
 10 21  1  0
 10 11  1  0
 10 33  1  6
 11 22  1  0
 11 12  1  0
 11 34  1  6
 12 13  1  0
 12 35  1  0
 12 36  1  0
 13 14  1  0
 13 18  1  0
 13 37  1  1
 14 15  1  0
 15 16  1  0
 15 38  1  0
 15 39  1  0
 16 17  1  0
 17 40  1  0
 17 41  1  0
 17 42  1  0
 18 19  1  0
 18 43  1  0
 18 44  1  0
 19 20  1  6
 19 21  1  0
 20 45  1  0
 20 46  1  0
 20 47  1  0
 21 22  1  0
 21 48  1  1
 22 23  1  0
 22 24  1  0
 23 49  1  0
 23 50  1  0
 23 51  1  0
 24 52  1  0
 24 53  1  0
 24 54  1  0
M  END
>  <i_m_ct_stereo_status>  (168) 
1

>  <s_m_source_file>  (168) 
/var/tmp/pbs.5076255.sched01/tmpnk13i6y_/41i0yhob8r.sdf

>  <i_m_source_file_index>  (168) 
26

>  <i_lp_mmshare_version>  (168) 
48012

>  <i_f3d_flags>  (168) 
0

>  <s_epik_input>  (168) 
Tz1DKE8xKUMoPVtDSDJdKVtDQEhdKFtDQEhdMVtDQEBdMjNbQ0gzXSlbQ0gyXVtDSDJdW0NAQEhdNFtDQEhdKEMoW0NAQEhdMzQpKFtDSDNdKVtDSDNdKVtDSDJdW0NASF0oW0NIMl0yKU9bQ0gyXU9bQ0gzXQ==

>  <s_epik_cmdline>  (168) 
J2VwaWtfcHl0aG9uJywgJy1waHQnLCAnMi4wJywgJy1waCcsICc3LjAnLCAnLXRuJywgJzgnLCAnLW1hJywgJzIwMCcsICctaW1hZScsICc8aW5maWxlLm1hZT4nLCAnLW9tYWUnLCAnPG91dGZpbGUubWFlPic=

>  <r_lp_tautomer_probability>  (168) 
1

>  <r_epik_Ionization_Penalty>  (168) 
1.2131e-12

>  <r_epik_Ionization_Penalty_Charging>  (168) 
0

>  <r_epik_Ionization_Penalty_Neutral>  (168) 
1.2131e-12

>  <r_epik_State_Penalty>  (168) 
-0

>  <r_epik_Charging_Adjusted_Penalty>  (168) 
0

>  <i_epik_Tot_Q>  (168) 
0

>  <i_epik_Tot_abs_Q>  (168) 
0

>  <s_epik_Chemistry_Notes>  (168) 
This compound has an ester and may undergo hydrolysis at high or low pH. This compound contains an acetal/aminal-like group ( X-CH(R)-Y where X, Y are N, S, or O) that may be acid/base labile, releasing an aldehyde.

>  <s_lp_Force_Field>  (168) 
OPLS3e

>  <r_lp_Energy>  (168) 
136.764

>  <b_lp_Chiralities_Consistent>  (168) 
1

>  <s_lp_Variant>  (168) 
56:0-1

>  <s_i_glide_gridfile>  (168) 
pfpi4k_grid

>  <i_i_glide_lignum>  (168) 
26

>  <i_i_glide_rotatable_bonds>  (168) 
3

>  <r_i_docking_score>  (168) 
-2.55308

>  <r_i_glide_ligand_efficiency>  (168) 
-0.106378

>  <r_i_glide_ligand_efficiency_sa>  (168) 
-0.306848

>  <r_i_glide_ligand_efficiency_ln>  (168) 
-0.611069

>  <r_i_glide_gscore>  (168) 
-2.55308

>  <r_i_glide_lipo>  (168) 
-0.377212

>  <r_i_glide_hbond>  (168) 
0

>  <r_i_glide_metal>  (168) 
-0

>  <r_i_glide_rewards>  (168) 
-1.12875

>  <r_i_glide_evdw>  (168) 
-22.8232

>  <r_i_glide_ecoul>  (168) 
-1.02892

>  <r_i_glide_erotb>  (168) 
0.337229

>  <r_i_glide_esite>  (168) 
-0.0888471

>  <r_i_glide_emodel>  (168) 
-26.7205

>  <r_i_glide_energy>  (168) 
-23.8521

>  <r_i_glide_einternal>  (168) 
2.11725

>  <r_i_glide_intrahb_reward>  (168) 
-0

>  <i_i_glide_confnum>  (168) 
4

>  <i_i_glide_posenum>  (168) 
22

>  <r_i_glide_eff_state_penalty>  (168) 
0

>  <ligand_id>  (168) 
56

>  <original_smiles>  (168) 
C=C1C(=O)OC2C1CCC1C3CC(OCOC)CC2(C)C1C3(C)C

>  <smiles>  (168) 
[H]C([H])=C1C(=O)OC2([H])C1([H])C([H])([H])C([H])([H])C1([H])C3([H])C([H])([H])C([H])(OC([H])([H])OC([H])([H])[H])C([H])([H])C2(C([H])([H])[H])C1([H])C3(C([H])([H])[H])C([H])([H])[H]

$$$$
58:0:0
     RDKit          3D

 59 64  0  0  1  0  0  0  0  0999 V2000
   -4.7142    4.3912    1.8286 C   0  0  0  0  0  0  0  0  0  0  0  0
   -3.9220    3.4028    2.4760 O   0  0  0  0  0  0  0  0  0  0  0  0
   -2.7278    3.7350    3.0028 C   0  0  0  0  0  0  0  0  0  0  0  0
   -2.1856    4.8364    2.8811 O   0  0  0  0  0  0  0  0  0  0  0  0
   -2.1611    2.6212    3.8544 C   0  0  2  0  0  0  0  0  0  0  0  0
   -0.8773    2.8869    4.6136 C   0  0  1  0  0  0  0  0  0  0  0  0
   -0.8331    2.2814    5.8955 O   0  0  0  0  0  0  0  0  0  0  0  0
    0.3615    1.6816    6.3451 C   0  0  2  0  0  0  0  0  0  0  0  0
    0.2990    1.5555    7.7446 O   0  0  0  0  0  0  0  0  0  0  0  0
    0.0703    2.7412    8.5087 C   0  0  0  0  0  0  0  0  0  0  0  0
    1.6122    2.5625    5.9991 C   0  0  0  0  0  0  0  0  0  0  0  0
    2.4167    2.2536    4.6812 C   0  0  0  0  0  0  0  0  0  0  0  0
    2.3721    3.4483    3.7041 C   0  0  0  0  0  0  0  0  0  0  0  0
    3.9035    2.1134    5.1216 C   0  0  0  0  0  0  0  0  0  0  0  0
    2.0282    0.9646    3.9438 C   0  0  0  0  0  0  0  0  0  0  0  0
    2.8094    0.4133    3.0993 N   0  0  0  0  0  0  0  0  0  0  0  0
    2.4218   -0.9088    3.0140 C   0  0  0  0  0  0  0  0  0  0  0  0
    3.0631   -1.9349    2.3026 C   0  0  0  0  0  0  0  0  0  0  0  0
    2.5792   -3.2543    2.4642 C   0  0  0  0  0  0  0  0  0  0  0  0
    1.5091   -3.5399    3.3449 C   0  0  0  0  0  0  0  0  0  0  0  0
    1.1173   -4.8514    3.4814 O   0  0  0  0  0  0  0  0  0  0  0  0
    0.6605   -5.2586    4.7695 C   0  0  0  0  0  0  0  0  0  0  0  0
    0.8552   -2.4685    4.0100 C   0  0  0  0  0  0  0  0  0  0  0  0
    1.3284   -1.1618    3.8207 C   0  0  0  0  0  0  0  0  0  0  0  0
    0.7897    0.1532    4.3379 C   0  0  2  0  0  0  0  0  0  0  0  0
   -0.5631    0.4424    3.6298 C   0  0  1  0  0  0  0  0  0  0  0  0
   -1.5794   -0.3343    4.5065 C   0  0  0  0  0  0  0  0  0  0  0  0
   -0.9772   -0.4241    5.9238 C   0  0  0  0  0  0  0  0  0  0  0  0
    0.4265    0.2098    5.8261 C   0  0  2  0  0  0  0  0  0  0  0  0
   -0.8585    1.9411    3.4393 C   0  0  1  0  0  0  0  0  0  0  0  0
   -5.6669    3.9700    1.5218 H   0  0  0  0  0  0  0  0  0  0  0  0
   -4.2197    4.7849    0.9463 H   0  0  0  0  0  0  0  0  0  0  0  0
   -4.9412    5.2267    2.4852 H   0  0  0  0  0  0  0  0  0  0  0  0
   -2.9118    2.0381    4.3732 H   0  0  0  0  0  0  0  0  0  0  0  0
   -0.4178    3.8708    4.5546 H   0  0  0  0  0  0  0  0  0  0  0  0
    0.0615    2.4794    9.5669 H   0  0  0  0  0  0  0  0  0  0  0  0
   -0.8941    3.1962    8.2770 H   0  0  0  0  0  0  0  0  0  0  0  0
    0.8527    3.4910    8.3794 H   0  0  0  0  0  0  0  0  0  0  0  0
    1.3408    3.6214    6.0599 H   0  0  0  0  0  0  0  0  0  0  0  0
    2.2945    2.4277    6.8397 H   0  0  0  0  0  0  0  0  0  0  0  0
    2.6338    4.3864    4.1969 H   0  0  0  0  0  0  0  0  0  0  0  0
    1.3917    3.5704    3.2488 H   0  0  0  0  0  0  0  0  0  0  0  0
    3.0702    3.3018    2.8775 H   0  0  0  0  0  0  0  0  0  0  0  0
    4.2538    2.9839    5.6780 H   0  0  0  0  0  0  0  0  0  0  0  0
    4.5763    1.9831    4.2744 H   0  0  0  0  0  0  0  0  0  0  0  0
    4.0418    1.2386    5.7616 H   0  0  0  0  0  0  0  0  0  0  0  0
    3.9118   -1.7248    1.6660 H   0  0  0  0  0  0  0  0  0  0  0  0
    3.0526   -4.0659    1.9294 H   0  0  0  0  0  0  0  0  0  0  0  0
    0.3208   -6.2976    4.7372 H   0  0  0  0  0  0  0  0  0  0  0  0
   -0.1756   -4.6695    5.1499 H   0  0  0  0  0  0  0  0  0  0  0  0
    1.4900   -5.1916    5.4768 H   0  0  0  0  0  0  0  0  0  0  0  0
   -0.0005   -2.6345    4.6369 H   0  0  0  0  0  0  0  0  0  0  0  0
   -0.5581    0.0294    2.6218 H   0  0  0  0  0  0  0  0  0  0  0  0
   -2.5832    0.0686    4.5146 H   0  0  0  0  0  0  0  0  0  0  0  0
   -1.6941   -1.3402    4.1080 H   0  0  0  0  0  0  0  0  0  0  0  0
   -1.6053    0.0596    6.6718 H   0  0  0  0  0  0  0  0  0  0  0  0
   -0.8903   -1.4682    6.2248 H   0  0  0  0  0  0  0  0  0  0  0  0
    1.1682   -0.3219    6.4274 H   0  0  0  0  0  0  0  0  0  0  0  0
   -0.3840    2.3380    2.5406 H   0  0  0  0  0  0  0  0  0  0  0  0
  1  2  1  0
  1 31  1  0
  1 32  1  0
  1 33  1  0
  2  3  1  0
  3  4  2  0
  3  5  1  0
  5 30  1  0
  5  6  1  0
  5 34  1  1
  6 30  1  0
  6  7  1  0
  6 35  1  6
  7  8  1  0
  8 29  1  0
  8  9  1  1
  8 11  1  0
  9 10  1  0
 10 36  1  0
 10 37  1  0
 10 38  1  0
 11 12  1  0
 11 39  1  0
 11 40  1  0
 12 13  1  0
 12 14  1  0
 12 15  1  0
 13 41  1  0
 13 42  1  0
 13 43  1  0
 14 44  1  0
 14 45  1  0
 14 46  1  0
 15 25  1  0
 15 16  2  0
 16 17  1  0
 17 24  2  0
 17 18  1  0
 18 19  2  0
 18 47  1  0
 19 20  1  0
 19 48  1  0
 20 21  1  0
 20 23  2  0
 21 22  1  0
 22 49  1  0
 22 50  1  0
 22 51  1  0
 23 24  1  0
 23 52  1  0
 25 24  1  6
 25 29  1  0
 25 26  1  0
 26 27  1  0
 26 30  1  0
 26 53  1  6
 27 28  1  0
 27 54  1  0
 27 55  1  0
 28 29  1  0
 28 56  1  0
 28 57  1  0
 29 58  1  1
 30 59  1  6
M  END
>  <i_m_ct_stereo_status>  (169) 
1

>  <s_m_source_file>  (169) 
/var/tmp/pbs.5076255.sched01/tmpnk13i6y_/41i0yhob8r.sdf

>  <i_m_source_file_index>  (169) 
28

>  <i_lp_mmshare_version>  (169) 
48012

>  <i_f3d_flags>  (169) 
0

>  <s_epik_input>  (169) 
W0NIM11PQyg9TylbQ0BASF0xW0NAQEhdKE8yKVtDQEhdMVtDQEBIXTNbQ0gyXVtDSDJdW0NAQEhdNFtDQEBdMihPW0NIM10pW0NIMl1DKFtDSDNdKShbQ0gzXSlDKFtDQF0zNDUpPU5jNmM1W2NIXWMoW2NIXVtjSF02KU9bQ0gzXQ==

>  <s_epik_cmdline>  (169) 
J2VwaWtfcHl0aG9uJywgJy1waHQnLCAnMi4wJywgJy1waCcsICc3LjAnLCAnLXRuJywgJzgnLCAnLW1hJywgJzIwMCcsICctaW1hZScsICc8aW5maWxlLm1hZT4nLCAnLW9tYWUnLCAnPG91dGZpbGUubWFlPic=

>  <r_lp_tautomer_probability>  (169) 
1

>  <r_epik_Ionization_Penalty>  (169) 
0.0451078

>  <r_epik_Ionization_Penalty_Charging>  (169) 
0

>  <r_epik_Ionization_Penalty_Neutral>  (169) 
0.0451078

>  <r_epik_State_Penalty>  (169) 
0.0382718

>  <r_epik_Charging_Adjusted_Penalty>  (169) 
0.0382718

>  <i_epik_Tot_Q>  (169) 
0

>  <i_epik_Tot_abs_Q>  (169) 
0

>  <s_epik_Chemistry_Notes>  (169) 
This compound has an ester and may undergo hydrolysis at high or low pH. This compound has an imine and may undergo hydrolysis.

>  <s_lp_Force_Field>  (169) 
OPLS3e

>  <r_lp_Energy>  (169) 
70.6594

>  <b_lp_Chiralities_Consistent>  (169) 
1

>  <s_lp_Variant>  (169) 
58:0-1

>  <s_i_glide_gridfile>  (169) 
pfpi4k_grid

>  <i_i_glide_lignum>  (169) 
28

>  <i_i_glide_rotatable_bonds>  (169) 
4

>  <r_i_docking_score>  (169) 
-2.37818

>  <r_i_glide_ligand_efficiency>  (169) 
-0.0792726

>  <r_i_glide_ligand_efficiency_sa>  (169) 
-0.246318

>  <r_i_glide_ligand_efficiency_ln>  (169) 
-0.540348

>  <r_i_glide_gscore>  (169) 
-2.37818

>  <r_i_glide_lipo>  (169) 
-0.199553

>  <r_i_glide_hbond>  (169) 
-0.16

>  <r_i_glide_metal>  (169) 
-0

>  <r_i_glide_rewards>  (169) 
-0.603472

>  <r_i_glide_evdw>  (169) 
-23.4245

>  <r_i_glide_ecoul>  (169) 
-1.9514

>  <r_i_glide_erotb>  (169) 
0.116404

>  <r_i_glide_esite>  (169) 
-0.0676207

>  <r_i_glide_emodel>  (169) 
-26.3592

>  <r_i_glide_energy>  (169) 
-25.3759

>  <r_i_glide_einternal>  (169) 
5.51258

>  <r_i_glide_intrahb_reward>  (169) 
-0

>  <i_i_glide_confnum>  (169) 
3

>  <i_i_glide_posenum>  (169) 
27

>  <r_i_glide_eff_state_penalty>  (169) 
0

>  <ligand_id>  (169) 
58

>  <original_smiles>  (169) 
COC(=O)C1C2OC3(OC)CC(C)(C)C4=Nc5ccc(OC)cc5C45C(CCC35)C21

>  <smiles>  (169) 
[H]c1c([H])c(OC([H])([H])[H])c([H])c2c1N=C1C23C2([H])C([H])([H])C([H])([H])C3([H])C3([H])C([H])(OC2(OC([H])([H])[H])C([H])([H])C1(C([H])([H])[H])C([H])([H])[H])C3([H])C(=O)OC([H])([H])[H]

$$$$
58:0:1
     RDKit          3D

 59 64  0  0  1  0  0  0  0  0999 V2000
    1.7915   -9.2936    2.0449 C   0  0  0  0  0  0  0  0  0  0  0  0
    2.0962   -8.0271    2.6098 O   0  0  0  0  0  0  0  0  0  0  0  0
    1.4399   -6.9135    2.2252 C   0  0  0  0  0  0  0  0  0  0  0  0
    0.5360   -6.8422    1.3891 O   0  0  0  0  0  0  0  0  0  0  0  0
    1.9883   -5.6857    2.8963 C   0  0  2  0  0  0  0  0  0  0  0  0
    1.9368   -5.6197    4.4031 C   0  0  1  0  0  0  0  0  0  0  0  0
    3.0618   -4.9770    4.9766 O   0  0  0  0  0  0  0  0  0  0  0  0
    2.8812   -4.1041    6.0663 C   0  0  2  0  0  0  0  0  0  0  0  0
    4.1126   -3.9588    6.7255 O   0  0  0  0  0  0  0  0  0  0  0  0
    4.7643   -5.1463    7.1778 C   0  0  0  0  0  0  0  0  0  0  0  0
    1.8515   -4.6824    7.0993 C   0  0  0  0  0  0  0  0  0  0  0  0
    0.3495   -4.2271    7.0030 C   0  0  0  0  0  0  0  0  0  0  0  0
   -0.5798   -5.4265    6.7192 C   0  0  0  0  0  0  0  0  0  0  0  0
   -0.0323   -3.7402    8.4318 C   0  0  0  0  0  0  0  0  0  0  0  0
    0.0547   -3.0846    6.0180 C   0  0  0  0  0  0  0  0  0  0  0  0
   -1.0161   -2.3968    6.0942 N   0  0  0  0  0  0  0  0  0  0  0  0
   -0.7647   -1.2021    5.4489 C   0  0  0  0  0  0  0  0  0  0  0  0
   -1.6081   -0.0871    5.4004 C   0  0  0  0  0  0  0  0  0  0  0  0
   -1.1209    1.0958    4.8020 C   0  0  0  0  0  0  0  0  0  0  0  0
    0.2018    1.1569    4.2818 C   0  0  0  0  0  0  0  0  0  0  0  0
    0.7486    2.2868    3.7140 O   0  0  0  0  0  0  0  0  0  0  0  0
   -0.0772    3.4294    3.5347 C   0  0  0  0  0  0  0  0  0  0  0  0
    1.0230    0.0060    4.3401 C   0  0  0  0  0  0  0  0  0  0  0  0
    0.5136   -1.1741    4.9158 C   0  0  0  0  0  0  0  0  0  0  0  0
    1.1085   -2.5648    5.0328 C   0  0  2  0  0  0  0  0  0  0  0  0
    1.1722   -3.1935    3.6147 C   0  0  1  0  0  0  0  0  0  0  0  0
    2.5154   -2.6525    3.0665 C   0  0  0  0  0  0  0  0  0  0  0  0
    3.4228   -2.3832    4.2863 C   0  0  0  0  0  0  0  0  0  0  0  0
    2.5543   -2.6705    5.5301 C   0  0  2  0  0  0  0  0  0  0  0  0
    1.0234   -4.7292    3.6021 C   0  0  1  0  0  0  0  0  0  0  0  0
    2.4017  -10.0578    2.5301 H   0  0  0  0  0  0  0  0  0  0  0  0
    2.0130   -9.3285    0.9774 H   0  0  0  0  0  0  0  0  0  0  0  0
    0.7449   -9.5508    2.2023 H   0  0  0  0  0  0  0  0  0  0  0  0
    2.8657   -5.2735    2.4112 H   0  0  0  0  0  0  0  0  0  0  0  0
    1.5548   -6.4839    4.9433 H   0  0  0  0  0  0  0  0  0  0  0  0
    5.6959   -4.8633    7.6674 H   0  0  0  0  0  0  0  0  0  0  0  0
    5.0198   -5.8161    6.3547 H   0  0  0  0  0  0  0  0  0  0  0  0
    4.1803   -5.6997    7.9154 H   0  0  0  0  0  0  0  0  0  0  0  0
    1.9418   -5.7734    7.1360 H   0  0  0  0  0  0  0  0  0  0  0  0
    2.2264   -4.3660    8.0724 H   0  0  0  0  0  0  0  0  0  0  0  0
   -0.3808   -6.2599    7.3966 H   0  0  0  0  0  0  0  0  0  0  0  0
   -0.4706   -5.7942    5.7020 H   0  0  0  0  0  0  0  0  0  0  0  0
   -1.6299   -5.1473    6.8338 H   0  0  0  0  0  0  0  0  0  0  0  0
    0.1835   -4.4897    9.1958 H   0  0  0  0  0  0  0  0  0  0  0  0
   -1.0907   -3.4980    8.5205 H   0  0  0  0  0  0  0  0  0  0  0  0
    0.5254   -2.8389    8.6973 H   0  0  0  0  0  0  0  0  0  0  0  0
   -2.6022   -0.1180    5.8160 H   0  0  0  0  0  0  0  0  0  0  0  0
   -1.7747    1.9532    4.7692 H   0  0  0  0  0  0  0  0  0  0  0  0
    0.5032    4.2213    3.0656 H   0  0  0  0  0  0  0  0  0  0  0  0
   -0.4408    3.8203    4.4834 H   0  0  0  0  0  0  0  0  0  0  0  0
   -0.9244    3.2124    2.8851 H   0  0  0  0  0  0  0  0  0  0  0  0
    2.0221    0.0507    3.9407 H   0  0  0  0  0  0  0  0  0  0  0  0
    0.3596   -2.8057    3.0029 H   0  0  0  0  0  0  0  0  0  0  0  0
    2.9967   -3.2805    2.3229 H   0  0  0  0  0  0  0  0  0  0  0  0
    2.3316   -1.7098    2.5484 H   0  0  0  0  0  0  0  0  0  0  0  0
    4.3467   -2.9651    4.2611 H   0  0  0  0  0  0  0  0  0  0  0  0
    3.7252   -1.3360    4.2885 H   0  0  0  0  0  0  0  0  0  0  0  0
    2.7370   -1.9638    6.3431 H   0  0  0  0  0  0  0  0  0  0  0  0
   -0.0129   -5.0482    3.6669 H   0  0  0  0  0  0  0  0  0  0  0  0
  1  2  1  0
  1 31  1  0
  1 32  1  0
  1 33  1  0
  2  3  1  0
  3  4  2  0
  3  5  1  0
  5 30  1  0
  5  6  1  0
  5 34  1  6
  6 30  1  0
  6  7  1  0
  6 35  1  1
  7  8  1  0
  8 29  1  0
  8  9  1  1
  8 11  1  0
  9 10  1  0
 10 36  1  0
 10 37  1  0
 10 38  1  0
 11 12  1  0
 11 39  1  0
 11 40  1  0
 12 13  1  0
 12 14  1  0
 12 15  1  0
 13 41  1  0
 13 42  1  0
 13 43  1  0
 14 44  1  0
 14 45  1  0
 14 46  1  0
 15 25  1  0
 15 16  2  0
 16 17  1  0
 17 24  2  0
 17 18  1  0
 18 19  2  0
 18 47  1  0
 19 20  1  0
 19 48  1  0
 20 21  1  0
 20 23  2  0
 21 22  1  0
 22 49  1  0
 22 50  1  0
 22 51  1  0
 23 24  1  0
 23 52  1  0
 25 24  1  6
 25 29  1  0
 25 26  1  0
 26 27  1  0
 26 30  1  0
 26 53  1  6
 27 28  1  0
 27 54  1  0
 27 55  1  0
 28 29  1  0
 28 56  1  0
 28 57  1  0
 29 58  1  1
 30 59  1  1
M  END
>  <i_m_ct_stereo_status>  (170) 
1

>  <s_m_source_file>  (170) 
/var/tmp/pbs.5076255.sched01/tmpnk13i6y_/41i0yhob8r.sdf

>  <i_m_source_file_index>  (170) 
28

>  <i_lp_mmshare_version>  (170) 
48012

>  <i_f3d_flags>  (170) 
0

>  <s_epik_input>  (170) 
W0NIM11PQyg9TylbQ0BASF0xW0NAQEhdKE8yKVtDQEhdMVtDQEBIXTNbQ0gyXVtDSDJdW0NAQEhdNFtDQEBdMihPW0NIM10pW0NIMl1DKFtDSDNdKShbQ0gzXSlDKFtDQF0zNDUpPU5jNmM1W2NIXWMoW2NIXVtjSF02KU9bQ0gzXQ==

>  <s_epik_cmdline>  (170) 
J2VwaWtfcHl0aG9uJywgJy1waHQnLCAnMi4wJywgJy1waCcsICc3LjAnLCAnLXRuJywgJzgnLCAnLW1hJywgJzIwMCcsICctaW1hZScsICc8aW5maWxlLm1hZT4nLCAnLW9tYWUnLCAnPG91dGZpbGUubWFlPic=

>  <r_lp_tautomer_probability>  (170) 
1

>  <r_epik_Ionization_Penalty>  (170) 
0.0451078

>  <r_epik_Ionization_Penalty_Charging>  (170) 
0

>  <r_epik_Ionization_Penalty_Neutral>  (170) 
0.0451078

>  <r_epik_State_Penalty>  (170) 
0.0382718

>  <r_epik_Charging_Adjusted_Penalty>  (170) 
0.0382718

>  <i_epik_Tot_Q>  (170) 
0

>  <i_epik_Tot_abs_Q>  (170) 
0

>  <s_epik_Chemistry_Notes>  (170) 
This compound has an ester and may undergo hydrolysis at high or low pH. This compound has an imine and may undergo hydrolysis.

>  <s_lp_Force_Field>  (170) 
OPLS3e

>  <r_lp_Energy>  (170) 
70.6594

>  <b_lp_Chiralities_Consistent>  (170) 
1

>  <s_lp_Variant>  (170) 
58:0-1

>  <s_i_glide_gridfile>  (170) 
pfpi4k_grid

>  <i_i_glide_lignum>  (170) 
28

>  <i_i_glide_rotatable_bonds>  (170) 
4

>  <r_i_docking_score>  (170) 
-2.27662

>  <r_i_glide_ligand_efficiency>  (170) 
-0.0758874

>  <r_i_glide_ligand_efficiency_sa>  (170) 
-0.2358

>  <r_i_glide_ligand_efficiency_ln>  (170) 
-0.517273

>  <r_i_glide_gscore>  (170) 
-2.27662

>  <r_i_glide_lipo>  (170) 
-0.192678

>  <r_i_glide_hbond>  (170) 
-0.0257787

>  <r_i_glide_metal>  (170) 
-0

>  <r_i_glide_rewards>  (170) 
-0.603472

>  <r_i_glide_evdw>  (170) 
-21.7633

>  <r_i_glide_ecoul>  (170) 
-2.91153

>  <r_i_glide_erotb>  (170) 
0.116404

>  <r_i_glide_esite>  (170) 
-0.0462029

>  <r_i_glide_emodel>  (170) 
-28.1737

>  <r_i_glide_energy>  (170) 
-24.6748

>  <r_i_glide_einternal>  (170) 
0.721765

>  <r_i_glide_intrahb_reward>  (170) 
-0

>  <i_i_glide_confnum>  (170) 
4

>  <i_i_glide_posenum>  (170) 
34

>  <r_i_glide_eff_state_penalty>  (170) 
0

>  <ligand_id>  (170) 
58

>  <original_smiles>  (170) 
COC(=O)C1C2OC3(OC)CC(C)(C)C4=Nc5ccc(OC)cc5C45C(CCC35)C21

>  <smiles>  (170) 
[H]c1c([H])c(OC([H])([H])[H])c([H])c2c1N=C1C23C2([H])C([H])([H])C([H])([H])C3([H])C3([H])C([H])(OC2(OC([H])([H])[H])C([H])([H])C1(C([H])([H])[H])C([H])([H])[H])C3([H])C(=O)OC([H])([H])[H]

$$$$
58:0:2
     RDKit          3D

 59 64  0  0  1  0  0  0  0  0999 V2000
   -1.4821   -4.6455    7.3465 C   0  0  0  0  0  0  0  0  0  0  0  0
   -0.2798   -3.9898    6.9645 O   0  0  0  0  0  0  0  0  0  0  0  0
   -0.3165   -2.8269    6.2840 C   0  0  0  0  0  0  0  0  0  0  0  0
   -1.3480   -2.2521    5.9270 O   0  0  0  0  0  0  0  0  0  0  0  0
    1.0766   -2.2917    6.0170 C   0  0  2  0  0  0  0  0  0  0  0  0
    1.2272   -0.8194    5.6937 C   0  0  1  0  0  0  0  0  0  0  0  0
    2.4012   -0.2401    6.2409 O   0  0  0  0  0  0  0  0  0  0  0  0
    3.1397    0.6894    5.4804 C   0  0  2  0  0  0  0  0  0  0  0  0
    3.9565    1.4306    6.3511 O   0  0  0  0  0  0  0  0  0  0  0  0
    3.3220    2.1237    7.4267 C   0  0  0  0  0  0  0  0  0  0  0  0
    2.1953    1.6995    4.7401 C   0  0  0  0  0  0  0  0  0  0  0  0
    1.7913    1.3999    3.2526 C   0  0  0  0  0  0  0  0  0  0  0  0
    0.2660    1.2035    3.1113 C   0  0  0  0  0  0  0  0  0  0  0  0
    2.1132    2.7033    2.4690 C   0  0  0  0  0  0  0  0  0  0  0  0
    2.5463    0.2451    2.5728 C   0  0  0  0  0  0  0  0  0  0  0  0
    2.6077    0.1435    1.3065 N   0  0  0  0  0  0  0  0  0  0  0  0
    3.6862   -0.6649    1.0145 C   0  0  0  0  0  0  0  0  0  0  0  0
    4.1794   -0.9752   -0.2595 C   0  0  0  0  0  0  0  0  0  0  0  0
    5.3899   -1.6924   -0.3534 C   0  0  0  0  0  0  0  0  0  0  0  0
    6.0913   -2.0888    0.8194 C   0  0  0  0  0  0  0  0  0  0  0  0
    7.2876   -2.7710    0.7988 O   0  0  0  0  0  0  0  0  0  0  0  0
    7.8481   -3.1301   -0.4571 C   0  0  0  0  0  0  0  0  0  0  0  0
    5.5401   -1.7877    2.0896 C   0  0  0  0  0  0  0  0  0  0  0  0
    4.3216   -1.0867    2.1673 C   0  0  0  0  0  0  0  0  0  0  0  0
    3.4490   -0.7171    3.3569 C   0  0  2  0  0  0  0  0  0  0  0  0
    2.8315   -2.0196    3.9471 C   0  0  1  0  0  0  0  0  0  0  0  0
    3.9491   -2.5128    4.8999 C   0  0  0  0  0  0  0  0  0  0  0  0
    4.7456   -1.2676    5.3463 C   0  0  0  0  0  0  0  0  0  0  0  0
    4.1475   -0.0804    4.5622 C   0  0  2  0  0  0  0  0  0  0  0  0
    1.4462   -1.8319    4.5993 C   0  0  1  0  0  0  0  0  0  0  0  0
   -1.2580   -5.5397    7.9305 H   0  0  0  0  0  0  0  0  0  0  0  0
   -2.0559   -4.9577    6.4796 H   0  0  0  0  0  0  0  0  0  0  0  0
   -2.1096   -4.0045    7.9638 H   0  0  0  0  0  0  0  0  0  0  0  0
    1.8583   -2.7319    6.6272 H   0  0  0  0  0  0  0  0  0  0  0  0
    0.3419   -0.1880    5.7185 H   0  0  0  0  0  0  0  0  0  0  0  0
    4.0871    2.6472    7.9997 H   0  0  0  0  0  0  0  0  0  0  0  0
    2.8114    1.4431    8.1099 H   0  0  0  0  0  0  0  0  0  0  0  0
    2.6136    2.8819    7.0886 H   0  0  0  0  0  0  0  0  0  0  0  0
    1.3171    1.9043    5.3611 H   0  0  0  0  0  0  0  0  0  0  0  0
    2.7372    2.6455    4.7457 H   0  0  0  0  0  0  0  0  0  0  0  0
   -0.2914    2.0121    3.5903 H   0  0  0  0  0  0  0  0  0  0  0  0
   -0.0685    0.2633    3.5434 H   0  0  0  0  0  0  0  0  0  0  0  0
   -0.0292    1.1820    2.0588 H   0  0  0  0  0  0  0  0  0  0  0  0
    1.6403    3.5877    2.8993 H   0  0  0  0  0  0  0  0  0  0  0  0
    1.7980    2.6524    1.4268 H   0  0  0  0  0  0  0  0  0  0  0  0
    3.1870    2.8858    2.4620 H   0  0  0  0  0  0  0  0  0  0  0  0
    3.6515   -0.6574   -1.1468 H   0  0  0  0  0  0  0  0  0  0  0  0
    5.7669   -1.9160   -1.3391 H   0  0  0  0  0  0  0  0  0  0  0  0
    8.7778   -3.6707   -0.2926 H   0  0  0  0  0  0  0  0  0  0  0  0
    8.0857   -2.2560   -1.0598 H   0  0  0  0  0  0  0  0  0  0  0  0
    7.1804   -3.7830   -1.0175 H   0  0  0  0  0  0  0  0  0  0  0  0
    6.0591   -2.1002    2.9780 H   0  0  0  0  0  0  0  0  0  0  0  0
    2.6809   -2.7556    3.1569 H   0  0  0  0  0  0  0  0  0  0  0  0
    3.6088   -3.1076    5.7424 H   0  0  0  0  0  0  0  0  0  0  0  0
    4.6139   -3.1788    4.3494 H   0  0  0  0  0  0  0  0  0  0  0  0
    4.7298   -1.1227    6.4286 H   0  0  0  0  0  0  0  0  0  0  0  0
    5.7935   -1.3905    5.0745 H   0  0  0  0  0  0  0  0  0  0  0  0
    4.9073    0.6335    4.2338 H   0  0  0  0  0  0  0  0  0  0  0  0
    0.6436   -1.8766    3.8645 H   0  0  0  0  0  0  0  0  0  0  0  0
  1  2  1  0
  1 31  1  0
  1 32  1  0
  1 33  1  0
  2  3  1  0
  3  4  2  0
  3  5  1  0
  5 30  1  0
  5  6  1  0
  5 34  1  1
  6 30  1  0
  6  7  1  0
  6 35  1  6
  7  8  1  0
  8 29  1  0
  8  9  1  1
  8 11  1  0
  9 10  1  0
 10 36  1  0
 10 37  1  0
 10 38  1  0
 11 12  1  0
 11 39  1  0
 11 40  1  0
 12 13  1  0
 12 14  1  0
 12 15  1  0
 13 41  1  0
 13 42  1  0
 13 43  1  0
 14 44  1  0
 14 45  1  0
 14 46  1  0
 15 25  1  0
 15 16  2  0
 16 17  1  0
 17 24  2  0
 17 18  1  0
 18 19  2  0
 18 47  1  0
 19 20  1  0
 19 48  1  0
 20 21  1  0
 20 23  2  0
 21 22  1  0
 22 49  1  0
 22 50  1  0
 22 51  1  0
 23 24  1  0
 23 52  1  0
 25 24  1  6
 25 29  1  0
 25 26  1  0
 26 27  1  0
 26 30  1  0
 26 53  1  6
 27 28  1  0
 27 54  1  0
 27 55  1  0
 28 29  1  0
 28 56  1  0
 28 57  1  0
 29 58  1  6
 30 59  1  6
M  END
>  <i_m_ct_stereo_status>  (171) 
1

>  <s_m_source_file>  (171) 
/var/tmp/pbs.5076255.sched01/tmpnk13i6y_/41i0yhob8r.sdf

>  <i_m_source_file_index>  (171) 
28

>  <i_lp_mmshare_version>  (171) 
48012

>  <i_f3d_flags>  (171) 
0

>  <s_epik_input>  (171) 
W0NIM11PQyg9TylbQ0BASF0xW0NAQEhdKE8yKVtDQEhdMVtDQEBIXTNbQ0gyXVtDSDJdW0NAQEhdNFtDQEBdMihPW0NIM10pW0NIMl1DKFtDSDNdKShbQ0gzXSlDKFtDQF0zNDUpPU5jNmM1W2NIXWMoW2NIXVtjSF02KU9bQ0gzXQ==

>  <s_epik_cmdline>  (171) 
J2VwaWtfcHl0aG9uJywgJy1waHQnLCAnMi4wJywgJy1waCcsICc3LjAnLCAnLXRuJywgJzgnLCAnLW1hJywgJzIwMCcsICctaW1hZScsICc8aW5maWxlLm1hZT4nLCAnLW9tYWUnLCAnPG91dGZpbGUubWFlPic=

>  <r_lp_tautomer_probability>  (171) 
1

>  <r_epik_Ionization_Penalty>  (171) 
0.0451078

>  <r_epik_Ionization_Penalty_Charging>  (171) 
0

>  <r_epik_Ionization_Penalty_Neutral>  (171) 
0.0451078

>  <r_epik_State_Penalty>  (171) 
0.0382718

>  <r_epik_Charging_Adjusted_Penalty>  (171) 
0.0382718

>  <i_epik_Tot_Q>  (171) 
0

>  <i_epik_Tot_abs_Q>  (171) 
0

>  <s_epik_Chemistry_Notes>  (171) 
This compound has an ester and may undergo hydrolysis at high or low pH. This compound has an imine and may undergo hydrolysis.

>  <s_lp_Force_Field>  (171) 
OPLS3e

>  <r_lp_Energy>  (171) 
70.6594

>  <b_lp_Chiralities_Consistent>  (171) 
1

>  <s_lp_Variant>  (171) 
58:0-1

>  <s_i_glide_gridfile>  (171) 
pfpi4k_grid

>  <i_i_glide_lignum>  (171) 
28

>  <i_i_glide_rotatable_bonds>  (171) 
4

>  <r_i_docking_score>  (171) 
-2.25164

>  <r_i_glide_ligand_efficiency>  (171) 
-0.0750548

>  <r_i_glide_ligand_efficiency_sa>  (171) 
-0.233213

>  <r_i_glide_ligand_efficiency_ln>  (171) 
-0.511598

>  <r_i_glide_gscore>  (171) 
-2.25164

>  <r_i_glide_lipo>  (171) 
-0.467062

>  <r_i_glide_hbond>  (171) 
0

>  <r_i_glide_metal>  (171) 
-0

>  <r_i_glide_rewards>  (171) 
-0.603472

>  <r_i_glide_evdw>  (171) 
-24.3521

>  <r_i_glide_ecoul>  (171) 
-0.32249

>  <r_i_glide_erotb>  (171) 
0.116404

>  <r_i_glide_esite>  (171) 
-0.0315372

>  <r_i_glide_emodel>  (171) 
-28.2915

>  <r_i_glide_energy>  (171) 
-24.6746

>  <r_i_glide_einternal>  (171) 
0.285361

>  <r_i_glide_intrahb_reward>  (171) 
-0

>  <i_i_glide_confnum>  (171) 
3

>  <i_i_glide_posenum>  (171) 
13

>  <r_i_glide_eff_state_penalty>  (171) 
0

>  <ligand_id>  (171) 
58

>  <original_smiles>  (171) 
COC(=O)C1C2OC3(OC)CC(C)(C)C4=Nc5ccc(OC)cc5C45C(CCC35)C21

>  <smiles>  (171) 
[H]c1c([H])c(OC([H])([H])[H])c([H])c2c1N=C1C23C2([H])C([H])([H])C([H])([H])C3([H])C3([H])C([H])(OC2(OC([H])([H])[H])C([H])([H])C1(C([H])([H])[H])C([H])([H])[H])C3([H])C(=O)OC([H])([H])[H]

$$$$
58:1:0
     RDKit          3D

 60 65  0  0  1  0  0  0  0  0999 V2000
    0.8115   -4.5956    8.3431 C   0  0  0  0  0  0  0  0  0  0  0  0
   -0.3114   -3.9663    7.7336 O   0  0  0  0  0  0  0  0  0  0  0  0
   -0.2053   -3.1701    6.6319 C   0  0  0  0  0  0  0  0  0  0  0  0
   -1.1932   -2.6517    6.1132 O   0  0  0  0  0  0  0  0  0  0  0  0
    1.2018   -2.9424    6.0870 C   0  0  2  0  0  0  0  0  0  0  0  0
    1.5041   -1.6137    5.4515 C   0  0  1  0  0  0  0  0  0  0  0  0
    2.8147   -1.1770    5.7796 O   0  0  0  0  0  0  0  0  0  0  0  0
    3.6021   -0.5758    4.7786 C   0  0  2  0  0  0  0  0  0  0  0  0
    4.6320    0.1534    5.4017 O   0  0  0  0  0  0  0  0  0  0  0  0
    4.2565    1.1519    6.3519 C   0  0  0  0  0  0  0  0  0  0  0  0
    2.7492    0.4287    3.9245 C   0  0  0  0  0  0  0  0  0  0  0  0
    2.1369   -0.0759    2.5824 C   0  0  0  0  0  0  0  0  0  0  0  0
    0.5973   -0.0390    2.5875 C   0  0  0  0  0  0  0  0  0  0  0  0
    2.5807    0.9163    1.4841 C   0  0  0  0  0  0  0  0  0  0  0  0
    2.6060   -1.4532    2.1735 C   0  0  0  0  0  0  0  0  0  0  0  0
    2.5090   -1.8809    0.9451 N   0  0  0  0  0  0  0  0  0  0  0  0
    3.4344   -2.9123    0.6619 C   0  0  0  0  0  0  0  0  0  0  0  0
    3.7058   -3.5466   -0.5592 C   0  0  0  0  0  0  0  0  0  0  0  0
    4.7556   -4.4872   -0.5543 C   0  0  0  0  0  0  0  0  0  0  0  0
    5.5091   -4.7603    0.6177 C   0  0  0  0  0  0  0  0  0  0  0  0
    6.5380   -5.6660    0.4844 O   0  0  0  0  0  0  0  0  0  0  0  0
    7.3351   -5.9646    1.6219 C   0  0  0  0  0  0  0  0  0  0  0  0
    5.1803   -4.1073    1.8400 C   0  0  0  0  0  0  0  0  0  0  0  0
    4.1098   -3.1904    1.8413 C   0  0  0  0  0  0  0  0  0  0  0  0
    3.4376   -2.4215    2.9823 C   0  0  2  0  0  0  0  0  0  0  0  0
    2.6626   -3.4308    3.8769 C   0  0  1  0  0  0  0  0  0  0  0  0
    3.7859   -3.9379    4.8244 C   0  0  0  0  0  0  0  0  0  0  0  0
    4.8217   -2.8013    4.9488 C   0  0  0  0  0  0  0  0  0  0  0  0
    4.3549   -1.6964    3.9738 C   0  0  2  0  0  0  0  0  0  0  0  0
    1.4251   -2.8403    4.5785 C   0  0  1  0  0  0  0  0  0  0  0  0
    0.5290   -5.1780    9.2228 H   0  0  0  0  0  0  0  0  0  0  0  0
    1.5419   -3.8561    8.6752 H   0  0  0  0  0  0  0  0  0  0  0  0
    1.2866   -5.2803    7.6389 H   0  0  0  0  0  0  0  0  0  0  0  0
    2.0238   -3.3331    6.6690 H   0  0  0  0  0  0  0  0  0  0  0  0
    0.7265   -0.8504    5.4681 H   0  0  0  0  0  0  0  0  0  0  0  0
    5.1620    1.6264    6.7276 H   0  0  0  0  0  0  0  0  0  0  0  0
    3.7317    0.7257    7.2079 H   0  0  0  0  0  0  0  0  0  0  0  0
    3.6451    1.9467    5.9233 H   0  0  0  0  0  0  0  0  0  0  0  0
    1.9875    0.8894    4.5594 H   0  0  0  0  0  0  0  0  0  0  0  0
    3.4210    1.2518    3.6941 H   0  0  0  0  0  0  0  0  0  0  0  0
    0.2098    0.9490    2.8514 H   0  0  0  0  0  0  0  0  0  0  0  0
    0.1708   -0.7527    3.2889 H   0  0  0  0  0  0  0  0  0  0  0  0
    0.1954   -0.2816    1.6006 H   0  0  0  0  0  0  0  0  0  0  0  0
    2.2924    1.9469    1.7167 H   0  0  0  0  0  0  0  0  0  0  0  0
    2.1314    0.6679    0.5171 H   0  0  0  0  0  0  0  0  0  0  0  0
    3.6668    0.9245    1.3523 H   0  0  0  0  0  0  0  0  0  0  0  0
    3.1316   -3.3374   -1.4555 H   0  0  0  0  0  0  0  0  0  0  0  0
    5.0002   -5.0160   -1.4665 H   0  0  0  0  0  0  0  0  0  0  0  0
    8.1042   -6.6859    1.3414 H   0  0  0  0  0  0  0  0  0  0  0  0
    6.7404   -6.4098    2.4212 H   0  0  0  0  0  0  0  0  0  0  0  0
    7.8433   -5.0755    1.9981 H   0  0  0  0  0  0  0  0  0  0  0  0
    5.7269   -4.3042    2.7494 H   0  0  0  0  0  0  0  0  0  0  0  0
    2.2871   -4.2669    3.2859 H   0  0  0  0  0  0  0  0  0  0  0  0
    3.4679   -4.3111    5.7913 H   0  0  0  0  0  0  0  0  0  0  0  0
    4.2599   -4.8067    4.3736 H   0  0  0  0  0  0  0  0  0  0  0  0
    4.9463   -2.4490    5.9747 H   0  0  0  0  0  0  0  0  0  0  0  0
    5.7990   -3.1706    4.6404 H   0  0  0  0  0  0  0  0  0  0  0  0
    5.1858   -1.2187    3.4494 H   0  0  0  0  0  0  0  0  0  0  0  0
    0.5256   -2.8888    3.9623 H   0  0  0  0  0  0  0  0  0  0  0  0
    1.9192   -1.4313    0.2308 H   0  0  0  0  0  0  0  0  0  0  0  0
  1  2  1  0
  1 31  1  0
  1 32  1  0
  1 33  1  0
  2  3  1  0
  3  4  2  0
  3  5  1  0
  5 30  1  0
  5  6  1  0
  5 34  1  1
  6 30  1  0
  6  7  1  0
  6 35  1  6
  7  8  1  0
  8 29  1  0
  8  9  1  1
  8 11  1  0
  9 10  1  0
 10 36  1  0
 10 37  1  0
 10 38  1  0
 11 12  1  0
 11 39  1  0
 11 40  1  0
 12 13  1  0
 12 14  1  0
 12 15  1  0
 13 41  1  0
 13 42  1  0
 13 43  1  0
 14 44  1  0
 14 45  1  0
 14 46  1  0
 15 25  1  0
 15 16  2  0
 16 17  1  0
 16 60  1  0
 17 24  2  0
 17 18  1  0
 18 19  2  0
 18 47  1  0
 19 20  1  0
 19 48  1  0
 20 21  1  0
 20 23  2  0
 21 22  1  0
 22 49  1  0
 22 50  1  0
 22 51  1  0
 23 24  1  0
 23 52  1  0
 25 24  1  6
 25 29  1  0
 25 26  1  0
 26 27  1  0
 26 30  1  0
 26 53  1  6
 27 28  1  0
 27 54  1  0
 27 55  1  0
 28 29  1  0
 28 56  1  0
 28 57  1  0
 29 58  1  6
 30 59  1  6
M  CHG  1  16   1
M  END
>  <i_m_ct_stereo_status>  (172) 
1

>  <s_m_source_file>  (172) 
/var/tmp/pbs.5076255.sched01/tmpnk13i6y_/41i0yhob8r.sdf

>  <i_m_source_file_index>  (172) 
29

>  <i_lp_mmshare_version>  (172) 
48012

>  <i_f3d_flags>  (172) 
0

>  <s_epik_input>  (172) 
W0NIM11PQyg9TylbQ0BASF0xW0NAQEhdKE8yKVtDQEhdMVtDQEBIXTNbQ0gyXVtDSDJdW0NAQEhdNFtDQEBdMihPW0NIM10pW0NIMl1DKFtDSDNdKShbQ0gzXSlDKFtDQF0zNDUpPU5jNmM1W2NIXWMoW2NIXVtjSF02KU9bQ0gzXQ==

>  <s_epik_cmdline>  (172) 
J2VwaWtfcHl0aG9uJywgJy1waHQnLCAnMi4wJywgJy1waCcsICc3LjAnLCAnLXRuJywgJzgnLCAnLW1hJywgJzIwMCcsICctaW1hZScsICc8aW5maWxlLm1hZT4nLCAnLW9tYWUnLCAnPG91dGZpbGUubWFlPic=

>  <r_epik_Ionization_Penalty>  (172) 
1.54822

>  <r_epik_Ionization_Penalty_Charging>  (172) 
1.54822

>  <r_epik_Ionization_Penalty_Neutral>  (172) 
1.61817e-13

>  <r_epik_State_Penalty>  (172) 
1.64222

>  <r_epik_Charging_Adjusted_Penalty>  (172) 
3.19044

>  <i_epik_Tot_Q>  (172) 
1

>  <i_epik_Tot_abs_Q>  (172) 
1

>  <s_epik_Chemistry_Notes>  (172) 
This compound has an ester and may undergo hydrolysis at high or low pH. This compound has an imine and may undergo hydrolysis.

>  <s_lp_Force_Field>  (172) 
OPLS3e

>  <r_lp_Energy>  (172) 
77.335

>  <b_lp_Chiralities_Consistent>  (172) 
1

>  <s_lp_Variant>  (172) 
58:0-2

>  <s_i_glide_gridfile>  (172) 
pfpi4k_grid

>  <i_i_glide_lignum>  (172) 
29

>  <i_i_glide_rotatable_bonds>  (172) 
4

>  <r_i_docking_score>  (172) 
-3.5003

>  <r_i_glide_ligand_efficiency>  (172) 
-0.116677

>  <r_i_glide_ligand_efficiency_sa>  (172) 
-0.362542

>  <r_i_glide_ligand_efficiency_ln>  (172) 
-0.795307

>  <r_i_glide_gscore>  (172) 
-3.5003

>  <r_i_glide_lipo>  (172) 
-0.245815

>  <r_i_glide_hbond>  (172) 
-0.2

>  <r_i_glide_metal>  (172) 
-0

>  <r_i_glide_rewards>  (172) 
-0.5966

>  <r_i_glide_evdw>  (172) 
-18.9623

>  <r_i_glide_ecoul>  (172) 
-10.1098

>  <r_i_glide_erotb>  (172) 
0.115891

>  <r_i_glide_esite>  (172) 
-0.10919

>  <r_i_glide_emodel>  (172) 
-35.6085

>  <r_i_glide_energy>  (172) 
-29.0721

>  <r_i_glide_einternal>  (172) 
4.83212

>  <r_i_glide_intrahb_reward>  (172) 
-0

>  <i_i_glide_confnum>  (172) 
3

>  <i_i_glide_posenum>  (172) 
3

>  <r_i_glide_eff_state_penalty>  (172) 
0

>  <ligand_id>  (172) 
58

>  <original_smiles>  (172) 
COC(=O)C1C2OC3(OC)CC(C)(C)C4=Nc5ccc(OC)cc5C45C(CCC35)C21

>  <smiles>  (172) 
[H]c1c([H])c2c(c([H])c1OC([H])([H])[H])C13C(=[N+]2[H])C(C([H])([H])[H])(C([H])([H])[H])C([H])([H])C2(OC([H])([H])[H])OC4([H])C([H])(C(=O)OC([H])([H])[H])C4([H])C1([H])C([H])([H])C([H])([H])C23[H]

$$$$
58:1:1
     RDKit          3D

 60 65  0  0  1  0  0  0  0  0999 V2000
    2.7822   -3.6856   -0.4831 C   0  0  0  0  0  0  0  0  0  0  0  0
    3.1757   -4.4885    0.6197 O   0  0  0  0  0  0  0  0  0  0  0  0
    2.4187   -5.5290    1.0063 C   0  0  0  0  0  0  0  0  0  0  0  0
    1.3511   -5.8627    0.4860 O   0  0  0  0  0  0  0  0  0  0  0  0
    3.0299   -6.2535    2.1930 C   0  0  2  0  0  0  0  0  0  0  0  0
    2.9381   -7.7608    2.2169 C   0  0  1  0  0  0  0  0  0  0  0  0
    4.0905   -8.3885    2.7606 O   0  0  0  0  0  0  0  0  0  0  0  0
    3.9495   -9.5101    3.5997 C   0  0  2  0  0  0  0  0  0  0  0  0
    5.1821  -10.1888    3.6429 O   0  0  0  0  0  0  0  0  0  0  0  0
    5.8481  -10.4376    2.4039 C   0  0  0  0  0  0  0  0  0  0  0  0
    2.8595  -10.5050    3.0496 C   0  0  0  0  0  0  0  0  0  0  0  0
    1.3956  -10.4076    3.6241 C   0  0  0  0  0  0  0  0  0  0  0  0
    0.3632  -10.0203    2.5417 C   0  0  0  0  0  0  0  0  0  0  0  0
    1.0059  -11.8213    4.1306 C   0  0  0  0  0  0  0  0  0  0  0  0
    1.2554   -9.4341    4.7761 C   0  0  0  0  0  0  0  0  0  0  0  0
    0.2384   -9.4769    5.5839 N   0  0  0  0  0  0  0  0  0  0  0  0
    0.5731   -8.9300    6.8553 C   0  0  0  0  0  0  0  0  0  0  0  0
   -0.1784   -8.8976    8.0345 C   0  0  0  0  0  0  0  0  0  0  0  0
    0.4290   -8.3393    9.1793 C   0  0  0  0  0  0  0  0  0  0  0  0
    1.7546   -7.8529    9.1431 C   0  0  0  0  0  0  0  0  0  0  0  0
    2.2441   -7.3531   10.3317 O   0  0  0  0  0  0  0  0  0  0  0  0
    3.5878   -6.9000   10.3741 C   0  0  0  0  0  0  0  0  0  0  0  0
    2.4869   -7.8955    7.9242 C   0  0  0  0  0  0  0  0  0  0  0  0
    1.8646   -8.4262    6.7744 C   0  0  0  0  0  0  0  0  0  0  0  0
    2.3209   -8.4981    5.3193 C   0  0  2  0  0  0  0  0  0  0  0  0
    2.3585   -7.0621    4.7178 C   0  0  1  0  0  0  0  0  0  0  0  0
    3.7502   -6.5580    5.1861 C   0  0  0  0  0  0  0  0  0  0  0  0
    4.6501   -7.8017    5.3327 C   0  0  0  0  0  0  0  0  0  0  0  0
    3.7376   -9.0220    5.0721 C   0  0  2  0  0  0  0  0  0  0  0  0
    2.1102   -6.9753    3.1971 C   0  0  1  0  0  0  0  0  0  0  0  0
    3.5194   -2.9033   -0.6705 H   0  0  0  0  0  0  0  0  0  0  0  0
    1.8243   -3.1917   -0.3064 H   0  0  0  0  0  0  0  0  0  0  0  0
    2.6995   -4.2665   -1.3993 H   0  0  0  0  0  0  0  0  0  0  0  0
    3.9642   -5.8362    2.5566 H   0  0  0  0  0  0  0  0  0  0  0  0
    2.4979   -8.2620    1.3599 H   0  0  0  0  0  0  0  0  0  0  0  0
    6.7629  -10.9927    2.6079 H   0  0  0  0  0  0  0  0  0  0  0  0
    6.1368   -9.5126    1.9056 H   0  0  0  0  0  0  0  0  0  0  0  0
    5.2629  -11.0381    1.7161 H   0  0  0  0  0  0  0  0  0  0  0  0
    2.8681  -10.4831    1.9542 H   0  0  0  0  0  0  0  0  0  0  0  0
    3.2441  -11.4985    3.2691 H   0  0  0  0  0  0  0  0  0  0  0  0
    0.4015  -10.6878    1.6920 H   0  0  0  0  0  0  0  0  0  0  0  0
    0.5290   -9.0148    2.1638 H   0  0  0  0  0  0  0  0  0  0  0  0
   -0.6612  -10.0548    2.9320 H   0  0  0  0  0  0  0  0  0  0  0  0
    1.0709  -12.5463    3.3199 H   0  0  0  0  0  0  0  0  0  0  0  0
   -0.0141  -11.8946    4.5052 H   0  0  0  0  0  0  0  0  0  0  0  0
    1.6650  -12.1611    4.9316 H   0  0  0  0  0  0  0  0  0  0  0  0
   -1.1927   -9.2662    8.0593 H   0  0  0  0  0  0  0  0  0  0  0  0
   -0.1255   -8.2813   10.1012 H   0  0  0  0  0  0  0  0  0  0  0  0
    3.8221   -6.5637   11.3856 H   0  0  0  0  0  0  0  0  0  0  0  0
    3.7368   -6.0555    9.6995 H   0  0  0  0  0  0  0  0  0  0  0  0
    4.2844   -7.7013   10.1203 H   0  0  0  0  0  0  0  0  0  0  0  0
    3.4963   -7.5203    7.8718 H   0  0  0  0  0  0  0  0  0  0  0  0
    1.5813   -6.4483    5.1729 H   0  0  0  0  0  0  0  0  0  0  0  0
    4.1942   -5.7969    4.5520 H   0  0  0  0  0  0  0  0  0  0  0  0
    3.6452   -6.0795    6.1560 H   0  0  0  0  0  0  0  0  0  0  0  0
    5.5235   -7.7684    4.6751 H   0  0  0  0  0  0  0  0  0  0  0  0
    5.0494   -7.8466    6.3451 H   0  0  0  0  0  0  0  0  0  0  0  0
    3.9617   -9.8635    5.7330 H   0  0  0  0  0  0  0  0  0  0  0  0
    1.0474   -6.9581    2.9600 H   0  0  0  0  0  0  0  0  0  0  0  0
   -0.5855  -10.0795    5.4270 H   0  0  0  0  0  0  0  0  0  0  0  0
  1  2  1  0
  1 31  1  0
  1 32  1  0
  1 33  1  0
  2  3  1  0
  3  4  2  0
  3  5  1  0
  5 30  1  0
  5  6  1  0
  5 34  1  1
  6 30  1  0
  6  7  1  0
  6 35  1  6
  7  8  1  0
  8 29  1  0
  8  9  1  1
  8 11  1  0
  9 10  1  0
 10 36  1  0
 10 37  1  0
 10 38  1  0
 11 12  1  0
 11 39  1  0
 11 40  1  0
 12 13  1  0
 12 14  1  0
 12 15  1  0
 13 41  1  0
 13 42  1  0
 13 43  1  0
 14 44  1  0
 14 45  1  0
 14 46  1  0
 15 25  1  0
 15 16  2  0
 16 17  1  0
 16 60  1  0
 17 24  2  0
 17 18  1  0
 18 19  2  0
 18 47  1  0
 19 20  1  0
 19 48  1  0
 20 21  1  0
 20 23  2  0
 21 22  1  0
 22 49  1  0
 22 50  1  0
 22 51  1  0
 23 24  1  0
 23 52  1  0
 25 24  1  1
 25 29  1  0
 25 26  1  0
 26 27  1  0
 26 30  1  0
 26 53  1  1
 27 28  1  0
 27 54  1  0
 27 55  1  0
 28 29  1  0
 28 56  1  0
 28 57  1  0
 29 58  1  1
 30 59  1  1
M  CHG  1  16   1
M  END
>  <i_m_ct_stereo_status>  (173) 
1

>  <s_m_source_file>  (173) 
/var/tmp/pbs.5076255.sched01/tmpnk13i6y_/41i0yhob8r.sdf

>  <i_m_source_file_index>  (173) 
29

>  <i_lp_mmshare_version>  (173) 
48012

>  <i_f3d_flags>  (173) 
0

>  <s_epik_input>  (173) 
W0NIM11PQyg9TylbQ0BASF0xW0NAQEhdKE8yKVtDQEhdMVtDQEBIXTNbQ0gyXVtDSDJdW0NAQEhdNFtDQEBdMihPW0NIM10pW0NIMl1DKFtDSDNdKShbQ0gzXSlDKFtDQF0zNDUpPU5jNmM1W2NIXWMoW2NIXVtjSF02KU9bQ0gzXQ==

>  <s_epik_cmdline>  (173) 
J2VwaWtfcHl0aG9uJywgJy1waHQnLCAnMi4wJywgJy1waCcsICc3LjAnLCAnLXRuJywgJzgnLCAnLW1hJywgJzIwMCcsICctaW1hZScsICc8aW5maWxlLm1hZT4nLCAnLW9tYWUnLCAnPG91dGZpbGUubWFlPic=

>  <r_epik_Ionization_Penalty>  (173) 
1.54822

>  <r_epik_Ionization_Penalty_Charging>  (173) 
1.54822

>  <r_epik_Ionization_Penalty_Neutral>  (173) 
1.61817e-13

>  <r_epik_State_Penalty>  (173) 
1.64222

>  <r_epik_Charging_Adjusted_Penalty>  (173) 
3.19044

>  <i_epik_Tot_Q>  (173) 
1

>  <i_epik_Tot_abs_Q>  (173) 
1

>  <s_epik_Chemistry_Notes>  (173) 
This compound has an ester and may undergo hydrolysis at high or low pH. This compound has an imine and may undergo hydrolysis.

>  <s_lp_Force_Field>  (173) 
OPLS3e

>  <r_lp_Energy>  (173) 
77.335

>  <b_lp_Chiralities_Consistent>  (173) 
1

>  <s_lp_Variant>  (173) 
58:0-2

>  <s_i_glide_gridfile>  (173) 
pfpi4k_grid

>  <i_i_glide_lignum>  (173) 
29

>  <i_i_glide_rotatable_bonds>  (173) 
4

>  <r_i_docking_score>  (173) 
-3.44387

>  <r_i_glide_ligand_efficiency>  (173) 
-0.114796

>  <r_i_glide_ligand_efficiency_sa>  (173) 
-0.356697

>  <r_i_glide_ligand_efficiency_ln>  (173) 
-0.782484

>  <r_i_glide_gscore>  (173) 
-3.44387

>  <r_i_glide_lipo>  (173) 
-0.199065

>  <r_i_glide_hbond>  (173) 
-0.36

>  <r_i_glide_metal>  (173) 
-0

>  <r_i_glide_rewards>  (173) 
-0.5966

>  <r_i_glide_evdw>  (173) 
-18.9681

>  <r_i_glide_ecoul>  (173) 
-8.75644

>  <r_i_glide_erotb>  (173) 
0.115891

>  <r_i_glide_esite>  (173) 
-0.142223

>  <r_i_glide_emodel>  (173) 
-36.3187

>  <r_i_glide_energy>  (173) 
-27.7245

>  <r_i_glide_einternal>  (173) 
0.423726

>  <r_i_glide_intrahb_reward>  (173) 
-0

>  <i_i_glide_confnum>  (173) 
1

>  <i_i_glide_posenum>  (173) 
18

>  <r_i_glide_eff_state_penalty>  (173) 
0

>  <ligand_id>  (173) 
58

>  <original_smiles>  (173) 
COC(=O)C1C2OC3(OC)CC(C)(C)C4=Nc5ccc(OC)cc5C45C(CCC35)C21

>  <smiles>  (173) 
[H]c1c([H])c2c(c([H])c1OC([H])([H])[H])C13C(=[N+]2[H])C(C([H])([H])[H])(C([H])([H])[H])C([H])([H])C2(OC([H])([H])[H])OC4([H])C([H])(C(=O)OC([H])([H])[H])C4([H])C1([H])C([H])([H])C([H])([H])C23[H]

$$$$
58:1:2
     RDKit          3D

 60 65  0  0  1  0  0  0  0  0999 V2000
    1.1122   -3.4620    9.2027 C   0  0  0  0  0  0  0  0  0  0  0  0
   -0.0892   -3.3397    8.4420 O   0  0  0  0  0  0  0  0  0  0  0  0
   -0.0845   -3.0418    7.1126 C   0  0  0  0  0  0  0  0  0  0  0  0
   -1.1284   -2.9497    6.4658 O   0  0  0  0  0  0  0  0  0  0  0  0
    1.2737   -2.7712    6.4860 C   0  0  2  0  0  0  0  0  0  0  0  0
    1.5074   -1.4100    5.8962 C   0  0  1  0  0  0  0  0  0  0  0  0
    2.8200   -0.9333    6.1486 O   0  0  0  0  0  0  0  0  0  0  0  0
    3.5228   -0.2770    5.1173 C   0  0  2  0  0  0  0  0  0  0  0  0
    4.5643    0.4665    5.6959 O   0  0  0  0  0  0  0  0  0  0  0  0
    4.2236    1.4336    6.6924 C   0  0  0  0  0  0  0  0  0  0  0  0
    2.5869    0.7227    4.3454 C   0  0  0  0  0  0  0  0  0  0  0  0
    1.9063    0.2446    3.0135 C   0  0  0  0  0  0  0  0  0  0  0  0
    0.3664    0.2338    3.1260 C   0  0  0  0  0  0  0  0  0  0  0  0
    2.2625    1.2886    1.9247 C   0  0  0  0  0  0  0  0  0  0  0  0
    2.3723   -1.1187    2.5402 C   0  0  0  0  0  0  0  0  0  0  0  0
    2.2182   -1.5231    1.3149 N   0  0  0  0  0  0  0  0  0  0  0  0
    3.1588   -2.5070    0.9515 C   0  0  0  0  0  0  0  0  0  0  0  0
    3.3809   -3.0924   -0.3027 C   0  0  0  0  0  0  0  0  0  0  0  0
    4.4527   -4.0002   -0.3907 C   0  0  0  0  0  0  0  0  0  0  0  0
    5.2900   -4.2784    0.7239 C   0  0  0  0  0  0  0  0  0  0  0  0
    6.3362   -5.1507    0.4977 O   0  0  0  0  0  0  0  0  0  0  0  0
    7.2738   -5.3667    1.5407 C   0  0  0  0  0  0  0  0  0  0  0  0
    5.0177   -3.6665    1.9845 C   0  0  0  0  0  0  0  0  0  0  0  0
    3.9222   -2.7863    2.0776 C   0  0  0  0  0  0  0  0  0  0  0  0
    3.2961   -2.0724    3.2752 C   0  0  2  0  0  0  0  0  0  0  0  0
    2.6177   -3.1316    4.1842 C   0  0  1  0  0  0  0  0  0  0  0  0
    3.8079   -3.6271    5.0522 C   0  0  0  0  0  0  0  0  0  0  0  0
    4.8159   -2.4619    5.1467 C   0  0  0  0  0  0  0  0  0  0  0  0
    4.2550   -1.3482    4.2316 C   0  0  2  0  0  0  0  0  0  0  0  0
    1.4083   -2.6020    4.9778 C   0  0  1  0  0  0  0  0  0  0  0  0
    0.9105   -3.6807   10.2526 H   0  0  0  0  0  0  0  0  0  0  0  0
    1.6911   -2.5363    9.1648 H   0  0  0  0  0  0  0  0  0  0  0  0
    1.7269   -4.2795    8.8194 H   0  0  0  0  0  0  0  0  0  0  0  0
    2.1293   -3.1838    7.0019 H   0  0  0  0  0  0  0  0  0  0  0  0
    0.7081   -0.6697    5.9830 H   0  0  0  0  0  0  0  0  0  0  0  0
    5.1377    1.9225    7.0278 H   0  0  0  0  0  0  0  0  0  0  0  0
    3.7559    0.9779    7.5656 H   0  0  0  0  0  0  0  0  0  0  0  0
    3.5716    2.2231    6.3177 H   0  0  0  0  0  0  0  0  0  0  0  0
    1.8557    1.1448    5.0409 H   0  0  0  0  0  0  0  0  0  0  0  0
    3.2199    1.5704    4.0971 H   0  0  0  0  0  0  0  0  0  0  0  0
   -0.0249    1.2036    3.4471 H   0  0  0  0  0  0  0  0  0  0  0  0
    0.0128   -0.5092    3.8375 H   0  0  0  0  0  0  0  0  0  0  0  0
   -0.1011   -0.0029    2.1661 H   0  0  0  0  0  0  0  0  0  0  0  0
    1.9637    2.2970    2.2153 H   0  0  0  0  0  0  0  0  0  0  0  0
    1.7783    1.0810    0.9718 H   0  0  0  0  0  0  0  0  0  0  0  0
    3.3378    1.3219    1.7472 H   0  0  0  0  0  0  0  0  0  0  0  0
    2.7453   -2.8656   -1.1518 H   0  0  0  0  0  0  0  0  0  0  0  0
    4.6541   -4.4947   -1.3316 H   0  0  0  0  0  0  0  0  0  0  0  0
    8.0363   -6.0665    1.1980 H   0  0  0  0  0  0  0  0  0  0  0  0
    6.8069   -5.8003    2.4258 H   0  0  0  0  0  0  0  0  0  0  0  0
    7.7786   -4.4387    1.8091 H   0  0  0  0  0  0  0  0  0  0  0  0
    5.6264   -3.8737    2.8508 H   0  0  0  0  0  0  0  0  0  0  0  0
    2.2275   -3.9645    3.6000 H   0  0  0  0  0  0  0  0  0  0  0  0
    3.5667   -4.0394    6.0274 H   0  0  0  0  0  0  0  0  0  0  0  0
    4.2822   -4.4685    4.5509 H   0  0  0  0  0  0  0  0  0  0  0  0
    4.9936   -2.1356    6.1749 H   0  0  0  0  0  0  0  0  0  0  0  0
    5.7827   -2.7949    4.7739 H   0  0  0  0  0  0  0  0  0  0  0  0
    5.0379   -0.8316    3.6747 H   0  0  0  0  0  0  0  0  0  0  0  0
    0.4774   -2.6593    4.4114 H   0  0  0  0  0  0  0  0  0  0  0  0
    1.6188   -1.0614    0.5995 H   0  0  0  0  0  0  0  0  0  0  0  0
  1  2  1  0
  1 31  1  0
  1 32  1  0
  1 33  1  0
  2  3  1  0
  3  4  2  0
  3  5  1  0
  5 30  1  0
  5  6  1  0
  5 34  1  1
  6 30  1  0
  6  7  1  0
  6 35  1  6
  7  8  1  0
  8 29  1  0
  8  9  1  1
  8 11  1  0
  9 10  1  0
 10 36  1  0
 10 37  1  0
 10 38  1  0
 11 12  1  0
 11 39  1  0
 11 40  1  0
 12 13  1  0
 12 14  1  0
 12 15  1  0
 13 41  1  0
 13 42  1  0
 13 43  1  0
 14 44  1  0
 14 45  1  0
 14 46  1  0
 15 25  1  0
 15 16  2  0
 16 17  1  0
 16 60  1  0
 17 24  2  0
 17 18  1  0
 18 19  2  0
 18 47  1  0
 19 20  1  0
 19 48  1  0
 20 21  1  0
 20 23  2  0
 21 22  1  0
 22 49  1  0
 22 50  1  0
 22 51  1  0
 23 24  1  0
 23 52  1  0
 25 24  1  6
 25 29  1  0
 25 26  1  0
 26 27  1  0
 26 30  1  0
 26 53  1  6
 27 28  1  0
 27 54  1  0
 27 55  1  0
 28 29  1  0
 28 56  1  0
 28 57  1  0
 29 58  1  6
 30 59  1  6
M  CHG  1  16   1
M  END
>  <i_m_ct_stereo_status>  (174) 
1

>  <s_m_source_file>  (174) 
/var/tmp/pbs.5076255.sched01/tmpnk13i6y_/41i0yhob8r.sdf

>  <i_m_source_file_index>  (174) 
29

>  <i_lp_mmshare_version>  (174) 
48012

>  <i_f3d_flags>  (174) 
0

>  <s_epik_input>  (174) 
W0NIM11PQyg9TylbQ0BASF0xW0NAQEhdKE8yKVtDQEhdMVtDQEBIXTNbQ0gyXVtDSDJdW0NAQEhdNFtDQEBdMihPW0NIM10pW0NIMl1DKFtDSDNdKShbQ0gzXSlDKFtDQF0zNDUpPU5jNmM1W2NIXWMoW2NIXVtjSF02KU9bQ0gzXQ==

>  <s_epik_cmdline>  (174) 
J2VwaWtfcHl0aG9uJywgJy1waHQnLCAnMi4wJywgJy1waCcsICc3LjAnLCAnLXRuJywgJzgnLCAnLW1hJywgJzIwMCcsICctaW1hZScsICc8aW5maWxlLm1hZT4nLCAnLW9tYWUnLCAnPG91dGZpbGUubWFlPic=

>  <r_epik_Ionization_Penalty>  (174) 
1.54822

>  <r_epik_Ionization_Penalty_Charging>  (174) 
1.54822

>  <r_epik_Ionization_Penalty_Neutral>  (174) 
1.61817e-13

>  <r_epik_State_Penalty>  (174) 
1.64222

>  <r_epik_Charging_Adjusted_Penalty>  (174) 
3.19044

>  <i_epik_Tot_Q>  (174) 
1

>  <i_epik_Tot_abs_Q>  (174) 
1

>  <s_epik_Chemistry_Notes>  (174) 
This compound has an ester and may undergo hydrolysis at high or low pH. This compound has an imine and may undergo hydrolysis.

>  <s_lp_Force_Field>  (174) 
OPLS3e

>  <r_lp_Energy>  (174) 
77.335

>  <b_lp_Chiralities_Consistent>  (174) 
1

>  <s_lp_Variant>  (174) 
58:0-2

>  <s_i_glide_gridfile>  (174) 
pfpi4k_grid

>  <i_i_glide_lignum>  (174) 
29

>  <i_i_glide_rotatable_bonds>  (174) 
4

>  <r_i_docking_score>  (174) 
-3.42852

>  <r_i_glide_ligand_efficiency>  (174) 
-0.114284

>  <r_i_glide_ligand_efficiency_sa>  (174) 
-0.355106

>  <r_i_glide_ligand_efficiency_ln>  (174) 
-0.778996

>  <r_i_glide_gscore>  (174) 
-3.42852

>  <r_i_glide_lipo>  (174) 
-0.216

>  <r_i_glide_hbond>  (174) 
-0.218142

>  <r_i_glide_metal>  (174) 
-0

>  <r_i_glide_rewards>  (174) 
-0.596704

>  <r_i_glide_evdw>  (174) 
-18.6095

>  <r_i_glide_ecoul>  (174) 
-9.67906

>  <r_i_glide_erotb>  (174) 
0.115891

>  <r_i_glide_esite>  (174) 
-0.131228

>  <r_i_glide_emodel>  (174) 
-34.5601

>  <r_i_glide_energy>  (174) 
-28.2885

>  <r_i_glide_einternal>  (174) 
4.93592

>  <r_i_glide_intrahb_reward>  (174) 
-0

>  <i_i_glide_confnum>  (174) 
1

>  <i_i_glide_posenum>  (174) 
25

>  <r_i_glide_eff_state_penalty>  (174) 
0

>  <ligand_id>  (174) 
58

>  <original_smiles>  (174) 
COC(=O)C1C2OC3(OC)CC(C)(C)C4=Nc5ccc(OC)cc5C45C(CCC35)C21

>  <smiles>  (174) 
[H]c1c([H])c2c(c([H])c1OC([H])([H])[H])C13C(=[N+]2[H])C(C([H])([H])[H])(C([H])([H])[H])C([H])([H])C2(OC([H])([H])[H])OC4([H])C([H])(C(=O)OC([H])([H])[H])C4([H])C1([H])C([H])([H])C([H])([H])C23[H]

$$$$
59:0:0
     RDKit          3D

 65 68  0  0  1  0  0  0  0  0999 V2000
    4.3091   -9.2436    0.9838 C   0  0  0  0  0  0  0  0  0  0  0  0
    4.7354   -7.7631    0.8411 C   0  0  0  0  0  0  0  0  0  0  0  0
    6.1641   -7.5776    1.3938 C   0  0  0  0  0  0  0  0  0  0  0  0
    3.7057   -6.7050    1.3696 C   0  0  2  0  0  0  0  0  0  0  0  0
    4.1478   -5.2977    0.8936 C   0  0  0  0  0  0  0  0  0  0  0  0
    3.4164   -6.7802    2.9084 C   0  0  2  0  0  0  0  0  0  0  0  0
    2.7728   -8.1240    3.3567 C   0  0  0  0  0  0  0  0  0  0  0  0
    1.8823   -7.8447    4.5788 C   0  0  0  0  0  0  0  0  0  0  0  0
    2.2310   -6.4060    4.9243 C   0  0  2  0  0  0  0  0  0  0  0  0
    1.3771   -5.6640    5.9737 C   0  0  2  0  0  0  0  0  0  0  0  0
   -0.1485   -5.6968    5.7456 C   0  0  0  0  0  0  0  0  0  0  0  0
   -0.8931   -5.0042    6.8833 C   0  0  0  0  0  0  0  0  0  0  0  0
   -0.4328   -3.5454    7.0515 C   0  0  2  0  0  0  0  0  0  0  0  0
   -0.9846   -2.6597    5.9110 C   0  0  0  0  0  0  0  0  0  0  0  0
   -0.5646   -1.2127    6.0766 C   0  0  0  0  0  0  0  0  0  0  0  0
   -1.3948   -0.2974    6.0796 O   0  0  0  0  0  0  0  0  0  0  0  0
    0.9215   -0.9625    6.2781 C   0  0  0  0  0  0  0  0  0  0  0  0
    1.5011   -1.8990    7.3631 C   0  0  0  0  0  0  0  0  0  0  0  0
    1.1160   -3.4115    7.2827 C   0  0  1  0  0  0  0  0  0  0  0  0
    1.4442   -3.9888    8.6856 C   0  0  0  0  0  0  0  0  0  0  0  0
    1.9586   -4.2334    6.2257 C   0  0  2  0  0  0  0  0  0  0  0  0
    2.3442   -3.5091    4.9045 C   0  0  0  0  0  0  0  0  0  0  0  0
    3.1950   -4.3681    3.9419 C   0  0  0  0  0  0  0  0  0  0  0  0
    2.4998   -5.7033    3.5763 C   0  0  1  0  0  0  0  0  0  0  0  0
    1.2287   -5.4666    2.7186 C   0  0  0  0  0  0  0  0  0  0  0  0
    4.2828   -9.5835    2.0145 H   0  0  0  0  0  0  0  0  0  0  0  0
    5.0254   -9.8942    0.4631 H   0  0  0  0  0  0  0  0  0  0  0  0
    3.3358   -9.4260    0.5174 H   0  0  0  0  0  0  0  0  0  0  0  0
    4.7889   -7.5879   -0.2335 H   0  0  0  0  0  0  0  0  0  0  0  0
    6.2124   -7.7989    2.4593 H   0  0  0  0  0  0  0  0  0  0  0  0
    6.5349   -6.5660    1.2446 H   0  0  0  0  0  0  0  0  0  0  0  0
    6.8658   -8.2445    0.8934 H   0  0  0  0  0  0  0  0  0  0  0  0
    2.7688   -6.9165    0.8489 H   0  0  0  0  0  0  0  0  0  0  0  0
    4.9759   -4.9141    1.4885 H   0  0  0  0  0  0  0  0  0  0  0  0
    3.3543   -4.5618    0.9495 H   0  0  0  0  0  0  0  0  0  0  0  0
    4.4638   -5.3063   -0.1469 H   0  0  0  0  0  0  0  0  0  0  0  0
    4.3824   -6.7190    3.4121 H   0  0  0  0  0  0  0  0  0  0  0  0
    2.1511   -8.5568    2.5769 H   0  0  0  0  0  0  0  0  0  0  0  0
    3.5431   -8.8453    3.6099 H   0  0  0  0  0  0  0  0  0  0  0  0
    0.8248   -7.9753    4.3254 H   0  0  0  0  0  0  0  0  0  0  0  0
    2.1129   -8.5299    5.3981 H   0  0  0  0  0  0  0  0  0  0  0  0
    3.2039   -6.4882    5.4120 H   0  0  0  0  0  0  0  0  0  0  0  0
    1.5287   -6.2325    6.8946 H   0  0  0  0  0  0  0  0  0  0  0  0
   -0.4296   -5.2370    4.8081 H   0  0  0  0  0  0  0  0  0  0  0  0
   -0.4864   -6.7300    5.6866 H   0  0  0  0  0  0  0  0  0  0  0  0
   -1.9649   -5.0441    6.7009 H   0  0  0  0  0  0  0  0  0  0  0  0
   -0.7305   -5.5582    7.8048 H   0  0  0  0  0  0  0  0  0  0  0  0
   -0.9154   -3.1862    7.9623 H   0  0  0  0  0  0  0  0  0  0  0  0
   -0.6411   -3.0068    4.9395 H   0  0  0  0  0  0  0  0  0  0  0  0
   -2.0729   -2.6997    5.9029 H   0  0  0  0  0  0  0  0  0  0  0  0
    1.4240   -1.0901    5.3210 H   0  0  0  0  0  0  0  0  0  0  0  0
    1.0795    0.0760    6.5613 H   0  0  0  0  0  0  0  0  0  0  0  0
    2.5838   -1.7954    7.3899 H   0  0  0  0  0  0  0  0  0  0  0  0
    1.1549   -1.5052    8.3210 H   0  0  0  0  0  0  0  0  0  0  0  0
    2.4952   -3.8430    8.9329 H   0  0  0  0  0  0  0  0  0  0  0  0
    1.2437   -5.0526    8.7672 H   0  0  0  0  0  0  0  0  0  0  0  0
    0.8630   -3.4966    9.4664 H   0  0  0  0  0  0  0  0  0  0  0  0
    2.9306   -4.3957    6.6987 H   0  0  0  0  0  0  0  0  0  0  0  0
    1.4586   -3.1489    4.3905 H   0  0  0  0  0  0  0  0  0  0  0  0
    2.9379   -2.6306    5.1430 H   0  0  0  0  0  0  0  0  0  0  0  0
    3.4253   -3.7827    3.0538 H   0  0  0  0  0  0  0  0  0  0  0  0
    4.1587   -4.5730    4.4148 H   0  0  0  0  0  0  0  0  0  0  0  0
    0.6077   -4.6641    3.1057 H   0  0  0  0  0  0  0  0  0  0  0  0
    0.6172   -6.3625    2.6446 H   0  0  0  0  0  0  0  0  0  0  0  0
    1.4658   -5.1667    1.7030 H   0  0  0  0  0  0  0  0  0  0  0  0
  1  2  1  0
  1 26  1  0
  1 27  1  0
  1 28  1  0
  2  3  1  0
  2  4  1  0
  2 29  1  0
  3 30  1  0
  3 31  1  0
  3 32  1  0
  4  5  1  0
  4  6  1  0
  4 33  1  6
  5 34  1  0
  5 35  1  0
  5 36  1  0
  6 24  1  0
  6  7  1  0
  6 37  1  1
  7  8  1  0
  7 38  1  0
  7 39  1  0
  8  9  1  0
  8 40  1  0
  8 41  1  0
  9 24  1  0
  9 10  1  0
  9 42  1  1
 10 21  1  0
 10 11  1  0
 10 43  1  1
 11 12  1  0
 11 44  1  0
 11 45  1  0
 12 13  1  0
 12 46  1  0
 12 47  1  0
 13 19  1  0
 13 14  1  0
 13 48  1  1
 14 15  1  0
 14 49  1  0
 14 50  1  0
 15 16  2  0
 15 17  1  0
 17 18  1  0
 17 51  1  0
 17 52  1  0
 18 19  1  0
 18 53  1  0
 18 54  1  0
 19 20  1  1
 19 21  1  0
 20 55  1  0
 20 56  1  0
 20 57  1  0
 21 22  1  0
 21 58  1  1
 22 23  1  0
 22 59  1  0
 22 60  1  0
 23 24  1  0
 23 61  1  0
 23 62  1  0
 24 25  1  6
 25 63  1  0
 25 64  1  0
 25 65  1  0
M  END
>  <i_m_ct_stereo_status>  (175) 
1

>  <s_m_source_file>  (175) 
/var/tmp/pbs.5076255.sched01/tmpnk13i6y_/41i0yhob8r.sdf

>  <i_m_source_file_index>  (175) 
30

>  <i_lp_mmshare_version>  (175) 
48012

>  <i_f3d_flags>  (175) 
0

>  <s_epik_input>  (175) 
W0NIM11bQ0hdKFtDSDNdKVtDQEhdKFtDSDNdKVtDQEhdKFtDSDJdW0NIMl0xKVtDQF0oW0NIM10pKFtDSDJdW0NIMl1bQ0BIXTIzKVtDQEhdMVtDQEBIXTJbQ0gyXVtDSDJdW0NAQEhdKFtDQEBdMzRbQ0gzXSlbQ0gyXUMoPU8pW0NIMl1bQ0gyXTQ=

>  <s_epik_cmdline>  (175) 
J2VwaWtfcHl0aG9uJywgJy1waHQnLCAnMi4wJywgJy1waCcsICc3LjAnLCAnLXRuJywgJzgnLCAnLW1hJywgJzIwMCcsICctaW1hZScsICc8aW5maWxlLm1hZT4nLCAnLW9tYWUnLCAnPG91dGZpbGUubWFlPic=

>  <r_lp_tautomer_probability>  (175) 
1

>  <r_epik_Ionization_Penalty>  (175) 
1.2156e-13

>  <r_epik_Ionization_Penalty_Charging>  (175) 
0

>  <r_epik_Ionization_Penalty_Neutral>  (175) 
1.2156e-13

>  <r_epik_State_Penalty>  (175) 
-0

>  <r_epik_Charging_Adjusted_Penalty>  (175) 
0

>  <i_epik_Tot_Q>  (175) 
0

>  <i_epik_Tot_abs_Q>  (175) 
0

>  <s_lp_Force_Field>  (175) 
OPLS3e

>  <r_lp_Energy>  (175) 
53.2256

>  <b_lp_Chiralities_Consistent>  (175) 
1

>  <s_lp_Variant>  (175) 
59:0-1

>  <s_i_glide_gridfile>  (175) 
pfpi4k_grid

>  <i_i_glide_lignum>  (175) 
30

>  <i_i_glide_rotatable_bonds>  (175) 
2

>  <r_i_docking_score>  (175) 
-2.36092

>  <r_i_glide_ligand_efficiency>  (175) 
-0.0944369

>  <r_i_glide_ligand_efficiency_sa>  (175) 
-0.276135

>  <r_i_glide_ligand_efficiency_ln>  (175) 
-0.559609

>  <r_i_glide_gscore>  (175) 
-2.36092

>  <r_i_glide_lipo>  (175) 
-0.316369

>  <r_i_glide_hbond>  (175) 
-0.0986999

>  <r_i_glide_metal>  (175) 
-0

>  <r_i_glide_rewards>  (175) 
-1.05972

>  <r_i_glide_evdw>  (175) 
-15.7687

>  <r_i_glide_ecoul>  (175) 
-1.39075

>  <r_i_glide_erotb>  (175) 
0.159934

>  <r_i_glide_esite>  (175) 
-0.0490144

>  <r_i_glide_emodel>  (175) 
-18.9418

>  <r_i_glide_energy>  (175) 
-17.1595

>  <r_i_glide_einternal>  (175) 
0.420999

>  <r_i_glide_intrahb_reward>  (175) 
-0

>  <i_i_glide_confnum>  (175) 
3

>  <i_i_glide_posenum>  (175) 
5

>  <r_i_glide_eff_state_penalty>  (175) 
0

>  <ligand_id>  (175) 
59

>  <original_smiles>  (175) 
CC(C)C(C)C1CCC2C3CCC4CC(=O)CCC4(C)C3CCC12C

>  <smiles>  (175) 
[H]C([H])([H])C([H])(C([H])([H])[H])C([H])(C([H])([H])[H])C1([H])C([H])([H])C([H])([H])C2([H])C3([H])C([H])([H])C([H])([H])C4([H])C([H])([H])C(=O)C([H])([H])C([H])([H])C4(C([H])([H])[H])C3([H])C([H])([H])C([H])([H])C12C([H])([H])[H]

$$$$
59:0:1
     RDKit          3D

 65 68  0  0  1  0  0  0  0  0999 V2000
    2.6960  -11.1691    3.1003 C   0  0  0  0  0  0  0  0  0  0  0  0
    2.7492   -9.8794    2.2451 C   0  0  0  0  0  0  0  0  0  0  0  0
    4.2103   -9.4439    2.0201 C   0  0  0  0  0  0  0  0  0  0  0  0
    1.7907   -8.7123    2.6621 C   0  0  2  0  0  0  0  0  0  0  0  0
    1.6245   -7.7465    1.4531 C   0  0  0  0  0  0  0  0  0  0  0  0
    2.1906   -7.9744    3.9874 C   0  0  2  0  0  0  0  0  0  0  0  0
    2.1088   -8.8643    5.2654 C   0  0  0  0  0  0  0  0  0  0  0  0
    1.7690   -7.9669    6.4592 C   0  0  0  0  0  0  0  0  0  0  0  0
    1.9309   -6.5722    5.8718 C   0  0  2  0  0  0  0  0  0  0  0  0
    1.4907   -5.3540    6.7119 C   0  0  2  0  0  0  0  0  0  0  0  0
    0.0579   -5.4237    7.2663 C   0  0  0  0  0  0  0  0  0  0  0  0
   -0.2572   -4.2122    8.1457 C   0  0  0  0  0  0  0  0  0  0  0  0
   -0.0645   -2.8897    7.3807 C   0  0  2  0  0  0  0  0  0  0  0  0
   -1.2087   -2.6959    6.3689 C   0  0  0  0  0  0  0  0  0  0  0  0
   -1.0678   -1.3850    5.6171 C   0  0  0  0  0  0  0  0  0  0  0  0
   -1.9926   -0.5707    5.5744 O   0  0  0  0  0  0  0  0  0  0  0  0
    0.2748   -1.1399    4.9472 C   0  0  0  0  0  0  0  0  0  0  0  0
    1.4426   -1.4286    5.9201 C   0  0  0  0  0  0  0  0  0  0  0  0
    1.3598   -2.7477    6.7529 C   0  0  1  0  0  0  0  0  0  0  0  0
    2.3719   -2.5463    7.9084 C   0  0  0  0  0  0  0  0  0  0  0  0
    1.8238   -4.0301    5.9555 C   0  0  2  0  0  0  0  0  0  0  0  0
    1.4477   -4.1000    4.4495 C   0  0  0  0  0  0  0  0  0  0  0  0
    1.9451   -5.3737    3.7271 C   0  0  0  0  0  0  0  0  0  0  0  0
    1.4485   -6.6697    4.4105 C   0  0  1  0  0  0  0  0  0  0  0  0
   -0.0931   -6.8461    4.2747 C   0  0  0  0  0  0  0  0  0  0  0  0
    3.1157  -11.0419    4.1030 H   0  0  0  0  0  0  0  0  0  0  0  0
    3.2330  -11.9760    2.5917 H   0  0  0  0  0  0  0  0  0  0  0  0
    1.6734  -11.5245    3.1866 H   0  0  0  0  0  0  0  0  0  0  0  0
    2.3912  -10.1998    1.2655 H   0  0  0  0  0  0  0  0  0  0  0  0
    4.7005   -9.1736    2.9502 H   0  0  0  0  0  0  0  0  0  0  0  0
    4.2947   -8.5997    1.3387 H   0  0  0  0  0  0  0  0  0  0  0  0
    4.7858  -10.2553    1.5786 H   0  0  0  0  0  0  0  0  0  0  0  0
    0.8051   -9.1551    2.8075 H   0  0  0  0  0  0  0  0  0  0  0  0
    2.5253   -7.1491    1.2852 H   0  0  0  0  0  0  0  0  0  0  0  0
    0.7794   -7.0657    1.5394 H   0  0  0  0  0  0  0  0  0  0  0  0
    1.4129   -8.3031    0.5450 H   0  0  0  0  0  0  0  0  0  0  0  0
    3.2395   -7.6822    3.8907 H   0  0  0  0  0  0  0  0  0  0  0  0
    1.3356   -9.6203    5.1757 H   0  0  0  0  0  0  0  0  0  0  0  0
    3.0574   -9.3661    5.4479 H   0  0  0  0  0  0  0  0  0  0  0  0
    0.7565   -8.1617    6.8202 H   0  0  0  0  0  0  0  0  0  0  0  0
    2.4574   -8.1302    7.2834 H   0  0  0  0  0  0  0  0  0  0  0  0
    3.0174   -6.4386    5.8098 H   0  0  0  0  0  0  0  0  0  0  0  0
    2.1285   -5.3966    7.5948 H   0  0  0  0  0  0  0  0  0  0  0  0
   -0.6939   -5.4914    6.4904 H   0  0  0  0  0  0  0  0  0  0  0  0
   -0.0563   -6.3239    7.8697 H   0  0  0  0  0  0  0  0  0  0  0  0
   -1.2813   -4.2956    8.5180 H   0  0  0  0  0  0  0  0  0  0  0  0
    0.3907   -4.2377    9.0250 H   0  0  0  0  0  0  0  0  0  0  0  0
   -0.1705   -2.0943    8.1210 H   0  0  0  0  0  0  0  0  0  0  0  0
   -1.1825   -3.5079    5.6550 H   0  0  0  0  0  0  0  0  0  0  0  0
   -2.1802   -2.7374    6.8593 H   0  0  0  0  0  0  0  0  0  0  0  0
    0.3366   -1.7591    4.0548 H   0  0  0  0  0  0  0  0  0  0  0  0
    0.3280   -0.1133    4.5928 H   0  0  0  0  0  0  0  0  0  0  0  0
    2.3855   -1.3877    5.3717 H   0  0  0  0  0  0  0  0  0  0  0  0
    1.4740   -0.5837    6.6140 H   0  0  0  0  0  0  0  0  0  0  0  0
    3.3731   -2.3476    7.5202 H   0  0  0  0  0  0  0  0  0  0  0  0
    2.4411   -3.4135    8.5621 H   0  0  0  0  0  0  0  0  0  0  0  0
    2.0888   -1.6946    8.5308 H   0  0  0  0  0  0  0  0  0  0  0  0
    2.9144   -3.9707    5.9194 H   0  0  0  0  0  0  0  0  0  0  0  0
    0.3736   -4.0128    4.3153 H   0  0  0  0  0  0  0  0  0  0  0  0
    1.8972   -3.2545    3.9262 H   0  0  0  0  0  0  0  0  0  0  0  0
    1.6505   -5.3299    2.6818 H   0  0  0  0  0  0  0  0  0  0  0  0
    3.0397   -5.3591    3.7187 H   0  0  0  0  0  0  0  0  0  0  0  0
   -0.6304   -5.9276    4.4889 H   0  0  0  0  0  0  0  0  0  0  0  0
   -0.4626   -7.6139    4.9565 H   0  0  0  0  0  0  0  0  0  0  0  0
   -0.4055   -7.1397    3.2754 H   0  0  0  0  0  0  0  0  0  0  0  0
  1  2  1  0
  1 26  1  0
  1 27  1  0
  1 28  1  0
  2  3  1  0
  2  4  1  0
  2 29  1  0
  3 30  1  0
  3 31  1  0
  3 32  1  0
  4  5  1  0
  4  6  1  0
  4 33  1  1
  5 34  1  0
  5 35  1  0
  5 36  1  0
  6 24  1  0
  6  7  1  0
  6 37  1  6
  7  8  1  0
  7 38  1  0
  7 39  1  0
  8  9  1  0
  8 40  1  0
  8 41  1  0
  9 24  1  0
  9 10  1  0
  9 42  1  6
 10 21  1  0
 10 11  1  0
 10 43  1  1
 11 12  1  0
 11 44  1  0
 11 45  1  0
 12 13  1  0
 12 46  1  0
 12 47  1  0
 13 19  1  0
 13 14  1  0
 13 48  1  1
 14 15  1  0
 14 49  1  0
 14 50  1  0
 15 16  2  0
 15 17  1  0
 17 18  1  0
 17 51  1  0
 17 52  1  0
 18 19  1  0
 18 53  1  0
 18 54  1  0
 19 20  1  1
 19 21  1  0
 20 55  1  0
 20 56  1  0
 20 57  1  0
 21 22  1  0
 21 58  1  6
 22 23  1  0
 22 59  1  0
 22 60  1  0
 23 24  1  0
 23 61  1  0
 23 62  1  0
 24 25  1  1
 25 63  1  0
 25 64  1  0
 25 65  1  0
M  END
>  <i_m_ct_stereo_status>  (176) 
1

>  <s_m_source_file>  (176) 
/var/tmp/pbs.5076255.sched01/tmpnk13i6y_/41i0yhob8r.sdf

>  <i_m_source_file_index>  (176) 
30

>  <i_lp_mmshare_version>  (176) 
48012

>  <i_f3d_flags>  (176) 
0

>  <s_epik_input>  (176) 
W0NIM11bQ0hdKFtDSDNdKVtDQEhdKFtDSDNdKVtDQEhdKFtDSDJdW0NIMl0xKVtDQF0oW0NIM10pKFtDSDJdW0NIMl1bQ0BIXTIzKVtDQEhdMVtDQEBIXTJbQ0gyXVtDSDJdW0NAQEhdKFtDQEBdMzRbQ0gzXSlbQ0gyXUMoPU8pW0NIMl1bQ0gyXTQ=

>  <s_epik_cmdline>  (176) 
J2VwaWtfcHl0aG9uJywgJy1waHQnLCAnMi4wJywgJy1waCcsICc3LjAnLCAnLXRuJywgJzgnLCAnLW1hJywgJzIwMCcsICctaW1hZScsICc8aW5maWxlLm1hZT4nLCAnLW9tYWUnLCAnPG91dGZpbGUubWFlPic=

>  <r_lp_tautomer_probability>  (176) 
1

>  <r_epik_Ionization_Penalty>  (176) 
1.2156e-13

>  <r_epik_Ionization_Penalty_Charging>  (176) 
0

>  <r_epik_Ionization_Penalty_Neutral>  (176) 
1.2156e-13

>  <r_epik_State_Penalty>  (176) 
-0

>  <r_epik_Charging_Adjusted_Penalty>  (176) 
0

>  <i_epik_Tot_Q>  (176) 
0

>  <i_epik_Tot_abs_Q>  (176) 
0

>  <s_lp_Force_Field>  (176) 
OPLS3e

>  <r_lp_Energy>  (176) 
53.2256

>  <b_lp_Chiralities_Consistent>  (176) 
1

>  <s_lp_Variant>  (176) 
59:0-1

>  <s_i_glide_gridfile>  (176) 
pfpi4k_grid

>  <i_i_glide_lignum>  (176) 
30

>  <i_i_glide_rotatable_bonds>  (176) 
2

>  <r_i_docking_score>  (176) 
-1.95786

>  <r_i_glide_ligand_efficiency>  (176) 
-0.0783146

>  <r_i_glide_ligand_efficiency_sa>  (176) 
-0.228993

>  <r_i_glide_ligand_efficiency_ln>  (176) 
-0.464073

>  <r_i_glide_gscore>  (176) 
-1.95786

>  <r_i_glide_lipo>  (176) 
-0.00878906

>  <r_i_glide_hbond>  (176) 
-0.0359037

>  <r_i_glide_metal>  (176) 
-0

>  <r_i_glide_rewards>  (176) 
-1.05972

>  <r_i_glide_evdw>  (176) 
-15.8936

>  <r_i_glide_ecoul>  (176) 
-1.13835

>  <r_i_glide_erotb>  (176) 
0.159934

>  <r_i_glide_esite>  (176) 
-0.0479499

>  <r_i_glide_emodel>  (176) 
-18.3968

>  <r_i_glide_energy>  (176) 
-17.0319

>  <r_i_glide_einternal>  (176) 
0.714092

>  <r_i_glide_intrahb_reward>  (176) 
-0

>  <i_i_glide_confnum>  (176) 
3

>  <i_i_glide_posenum>  (176) 
40

>  <r_i_glide_eff_state_penalty>  (176) 
0

>  <ligand_id>  (176) 
59

>  <original_smiles>  (176) 
CC(C)C(C)C1CCC2C3CCC4CC(=O)CCC4(C)C3CCC12C

>  <smiles>  (176) 
[H]C([H])([H])C([H])(C([H])([H])[H])C([H])(C([H])([H])[H])C1([H])C([H])([H])C([H])([H])C2([H])C3([H])C([H])([H])C([H])([H])C4([H])C([H])([H])C(=O)C([H])([H])C([H])([H])C4(C([H])([H])[H])C3([H])C([H])([H])C([H])([H])C12C([H])([H])[H]

$$$$
59:0:2
     RDKit          3D

 65 68  0  0  1  0  0  0  0  0999 V2000
    2.5682  -11.0503    2.9362 C   0  0  0  0  0  0  0  0  0  0  0  0
    3.4359   -9.9172    2.3372 C   0  0  0  0  0  0  0  0  0  0  0  0
    4.8821  -10.0286    2.8477 C   0  0  0  0  0  0  0  0  0  0  0  0
    2.8393   -8.4754    2.4365 C   0  0  2  0  0  0  0  0  0  0  0  0
    3.6110   -7.5254    1.4918 C   0  0  0  0  0  0  0  0  0  0  0  0
    2.7343   -7.9071    3.8935 C   0  0  2  0  0  0  0  0  0  0  0  0
    1.9937   -8.8605    4.8651 C   0  0  0  0  0  0  0  0  0  0  0  0
    1.3113   -8.0140    5.9482 C   0  0  0  0  0  0  0  0  0  0  0  0
    1.8490   -6.6135    5.6771 C   0  0  2  0  0  0  0  0  0  0  0  0
    1.2150   -5.4121    6.4119 C   0  0  2  0  0  0  0  0  0  0  0  0
   -0.3159   -5.2990    6.3045 C   0  0  0  0  0  0  0  0  0  0  0  0
   -0.8510   -4.1299    7.1275 C   0  0  0  0  0  0  0  0  0  0  0  0
   -0.2064   -2.8012    6.6901 C   0  0  2  0  0  0  0  0  0  0  0  0
   -0.7885   -2.3395    5.3362 C   0  0  0  0  0  0  0  0  0  0  0  0
   -0.1887   -1.0162    4.9016 C   0  0  0  0  0  0  0  0  0  0  0  0
   -0.9096   -0.0572    4.5833 O   0  0  0  0  0  0  0  0  0  0  0  0
    1.3240   -0.9338    4.8931 C   0  0  0  0  0  0  0  0  0  0  0  0
    1.9243   -1.4731    6.2118 C   0  0  0  0  0  0  0  0  0  0  0  0
    1.3607   -2.8245    6.7499 C   0  0  1  0  0  0  0  0  0  0  0  0
    1.7828   -2.8752    8.2398 C   0  0  0  0  0  0  0  0  0  0  0  0
    1.9774   -4.0961    6.0452 C   0  0  2  0  0  0  0  0  0  0  0  0
    2.2843   -3.9924    4.5245 C   0  0  0  0  0  0  0  0  0  0  0  0
    2.9149   -5.2676    3.9162 C   0  0  0  0  0  0  0  0  0  0  0  0
    2.0365   -6.5206    4.1434 C   0  0  1  0  0  0  0  0  0  0  0  0
    0.7205   -6.4314    3.3298 C   0  0  0  0  0  0  0  0  0  0  0  0
    2.4643  -10.9507    4.0228 H   0  0  0  0  0  0  0  0  0  0  0  0
    2.9664  -12.0364    2.6198 H   0  0  0  0  0  0  0  0  0  0  0  0
    1.5657  -11.0280    2.5078 H   0  0  0  0  0  0  0  0  0  0  0  0
    3.4773  -10.1246    1.2710 H   0  0  0  0  0  0  0  0  0  0  0  0
    4.9353   -9.8869    3.9237 H   0  0  0  0  0  0  0  0  0  0  0  0
    5.5428   -9.3030    2.3793 H   0  0  0  0  0  0  0  0  0  0  0  0
    5.2896  -11.0136    2.6207 H   0  0  0  0  0  0  0  0  0  0  0  0
    1.8329   -8.5673    2.0209 H   0  0  0  0  0  0  0  0  0  0  0  0
    4.5756   -7.2313    1.9062 H   0  0  0  0  0  0  0  0  0  0  0  0
    3.0549   -6.6144    1.2861 H   0  0  0  0  0  0  0  0  0  0  0  0
    3.8094   -7.9849    0.5256 H   0  0  0  0  0  0  0  0  0  0  0  0
    3.7570   -7.7985    4.2653 H   0  0  0  0  0  0  0  0  0  0  0  0
    1.2528   -9.4642    4.3443 H   0  0  0  0  0  0  0  0  0  0  0  0
    2.6860   -9.5793    5.2962 H   0  0  0  0  0  0  0  0  0  0  0  0
    0.2250   -8.0558    5.8443 H   0  0  0  0  0  0  0  0  0  0  0  0
    1.5571   -8.3451    6.9602 H   0  0  0  0  0  0  0  0  0  0  0  0
    2.8568   -6.6352    6.0935 H   0  0  0  0  0  0  0  0  0  0  0  0
    1.4011   -5.6095    7.4688 H   0  0  0  0  0  0  0  0  0  0  0  0
   -0.6370   -5.1905    5.2779 H   0  0  0  0  0  0  0  0  0  0  0  0
   -0.7704   -6.2177    6.6724 H   0  0  0  0  0  0  0  0  0  0  0  0
   -1.9376   -4.0804    7.0348 H   0  0  0  0  0  0  0  0  0  0  0  0
   -0.6478   -4.3159    8.1816 H   0  0  0  0  0  0  0  0  0  0  0  0
   -0.5360   -2.0521    7.4101 H   0  0  0  0  0  0  0  0  0  0  0  0
   -0.5862   -3.0666    4.5525 H   0  0  0  0  0  0  0  0  0  0  0  0
   -1.8685   -2.2292    5.4093 H   0  0  0  0  0  0  0  0  0  0  0  0
    1.6895   -1.4885    4.0294 H   0  0  0  0  0  0  0  0  0  0  0  0
    1.6372    0.0971    4.7353 H   0  0  0  0  0  0  0  0  0  0  0  0
    3.0054   -1.5351    6.1183 H   0  0  0  0  0  0  0  0  0  0  0  0
    1.7405   -0.7010    6.9642 H   0  0  0  0  0  0  0  0  0  0  0  0
    2.8666   -2.8085    8.3363 H   0  0  0  0  0  0  0  0  0  0  0  0
    1.4712   -3.7887    8.7393 H   0  0  0  0  0  0  0  0  0  0  0  0
    1.3569   -2.0423    8.7982 H   0  0  0  0  0  0  0  0  0  0  0  0
    2.9761   -4.2117    6.4785 H   0  0  0  0  0  0  0  0  0  0  0  0
    1.3870   -3.7275    3.9712 H   0  0  0  0  0  0  0  0  0  0  0  0
    2.9967   -3.1874    4.3612 H   0  0  0  0  0  0  0  0  0  0  0  0
    3.0996   -5.0982    2.8576 H   0  0  0  0  0  0  0  0  0  0  0  0
    3.8967   -5.4213    4.3688 H   0  0  0  0  0  0  0  0  0  0  0  0
    0.2319   -5.4671    3.4206 H   0  0  0  0  0  0  0  0  0  0  0  0
    0.0101   -7.1968    3.6359 H   0  0  0  0  0  0  0  0  0  0  0  0
    0.9026   -6.5591    2.2651 H   0  0  0  0  0  0  0  0  0  0  0  0
  1  2  1  0
  1 26  1  0
  1 27  1  0
  1 28  1  0
  2  3  1  0
  2  4  1  0
  2 29  1  0
  3 30  1  0
  3 31  1  0
  3 32  1  0
  4  5  1  0
  4  6  1  0
  4 33  1  6
  5 34  1  0
  5 35  1  0
  5 36  1  0
  6 24  1  0
  6  7  1  0
  6 37  1  1
  7  8  1  0
  7 38  1  0
  7 39  1  0
  8  9  1  0
  8 40  1  0
  8 41  1  0
  9 24  1  0
  9 10  1  0
  9 42  1  1
 10 21  1  0
 10 11  1  0
 10 43  1  1
 11 12  1  0
 11 44  1  0
 11 45  1  0
 12 13  1  0
 12 46  1  0
 12 47  1  0
 13 19  1  0
 13 14  1  0
 13 48  1  1
 14 15  1  0
 14 49  1  0
 14 50  1  0
 15 16  2  0
 15 17  1  0
 17 18  1  0
 17 51  1  0
 17 52  1  0
 18 19  1  0
 18 53  1  0
 18 54  1  0
 19 20  1  1
 19 21  1  0
 20 55  1  0
 20 56  1  0
 20 57  1  0
 21 22  1  0
 21 58  1  1
 22 23  1  0
 22 59  1  0
 22 60  1  0
 23 24  1  0
 23 61  1  0
 23 62  1  0
 24 25  1  6
 25 63  1  0
 25 64  1  0
 25 65  1  0
M  END
>  <i_m_ct_stereo_status>  (177) 
1

>  <s_m_source_file>  (177) 
/var/tmp/pbs.5076255.sched01/tmpnk13i6y_/41i0yhob8r.sdf

>  <i_m_source_file_index>  (177) 
30

>  <i_lp_mmshare_version>  (177) 
48012

>  <i_f3d_flags>  (177) 
0

>  <s_epik_input>  (177) 
W0NIM11bQ0hdKFtDSDNdKVtDQEhdKFtDSDNdKVtDQEhdKFtDSDJdW0NIMl0xKVtDQF0oW0NIM10pKFtDSDJdW0NIMl1bQ0BIXTIzKVtDQEhdMVtDQEBIXTJbQ0gyXVtDSDJdW0NAQEhdKFtDQEBdMzRbQ0gzXSlbQ0gyXUMoPU8pW0NIMl1bQ0gyXTQ=

>  <s_epik_cmdline>  (177) 
J2VwaWtfcHl0aG9uJywgJy1waHQnLCAnMi4wJywgJy1waCcsICc3LjAnLCAnLXRuJywgJzgnLCAnLW1hJywgJzIwMCcsICctaW1hZScsICc8aW5maWxlLm1hZT4nLCAnLW9tYWUnLCAnPG91dGZpbGUubWFlPic=

>  <r_lp_tautomer_probability>  (177) 
1

>  <r_epik_Ionization_Penalty>  (177) 
1.2156e-13

>  <r_epik_Ionization_Penalty_Charging>  (177) 
0

>  <r_epik_Ionization_Penalty_Neutral>  (177) 
1.2156e-13

>  <r_epik_State_Penalty>  (177) 
-0

>  <r_epik_Charging_Adjusted_Penalty>  (177) 
0

>  <i_epik_Tot_Q>  (177) 
0

>  <i_epik_Tot_abs_Q>  (177) 
0

>  <s_lp_Force_Field>  (177) 
OPLS3e

>  <r_lp_Energy>  (177) 
53.2256

>  <b_lp_Chiralities_Consistent>  (177) 
1

>  <s_lp_Variant>  (177) 
59:0-1

>  <s_i_glide_gridfile>  (177) 
pfpi4k_grid

>  <i_i_glide_lignum>  (177) 
30

>  <i_i_glide_rotatable_bonds>  (177) 
2

>  <r_i_docking_score>  (177) 
-1.75936

>  <r_i_glide_ligand_efficiency>  (177) 
-0.0703744

>  <r_i_glide_ligand_efficiency_sa>  (177) 
-0.205776

>  <r_i_glide_ligand_efficiency_ln>  (177) 
-0.417021

>  <r_i_glide_gscore>  (177) 
-1.75936

>  <r_i_glide_lipo>  (177) 
-0.0848118

>  <r_i_glide_hbond>  (177) 
0

>  <r_i_glide_metal>  (177) 
-0

>  <r_i_glide_rewards>  (177) 
-1.05972

>  <r_i_glide_evdw>  (177) 
-15.3621

>  <r_i_glide_ecoul>  (177) 
0.0754633

>  <r_i_glide_erotb>  (177) 
0.159934

>  <r_i_glide_esite>  (177) 
-0.0179749

>  <r_i_glide_emodel>  (177) 
-15.6115

>  <r_i_glide_energy>  (177) 
-15.2866

>  <r_i_glide_einternal>  (177) 
0.496467

>  <r_i_glide_intrahb_reward>  (177) 
-0

>  <i_i_glide_confnum>  (177) 
2

>  <i_i_glide_posenum>  (177) 
37

>  <r_i_glide_eff_state_penalty>  (177) 
0

>  <ligand_id>  (177) 
59

>  <original_smiles>  (177) 
CC(C)C(C)C1CCC2C3CCC4CC(=O)CCC4(C)C3CCC12C

>  <smiles>  (177) 
[H]C([H])([H])C([H])(C([H])([H])[H])C([H])(C([H])([H])[H])C1([H])C([H])([H])C([H])([H])C2([H])C3([H])C([H])([H])C([H])([H])C4([H])C([H])([H])C(=O)C([H])([H])C([H])([H])C4(C([H])([H])[H])C3([H])C([H])([H])C([H])([H])C12C([H])([H])[H]

$$$$
60:0:0
     RDKit          3D

 30 33  0  0  1  0  0  0  0  0999 V2000
    2.2520   -0.8204    1.2830 N   0  0  0  0  0  0  0  0  0  0  0  0
    3.6389   -1.3433    1.3834 C   0  0  2  0  0  0  0  0  0  0  0  0
    4.5768   -0.7059    0.3513 C   0  0  2  0  0  0  0  0  0  0  0  0
    4.2239   -1.0828   -1.1245 C   0  0  0  0  0  0  0  0  0  0  0  0
    4.6624   -2.5133   -1.5546 C   0  0  1  0  0  0  0  0  0  0  0  0
    6.1657   -2.6340   -1.2859 C   0  0  0  0  0  0  0  0  0  0  0  0
    6.1908   -2.6341    0.2580 C   0  0  1  0  0  0  0  0  0  0  0  0
    6.0171   -1.1640    0.6858 C   0  0  0  0  0  0  0  0  0  0  0  0
    4.9580   -3.4810    0.6341 C   0  0  2  0  0  0  0  0  0  0  0  0
    4.1428   -3.6142   -0.6400 C   0  0  1  0  0  0  0  0  0  0  0  0
    2.8723   -3.5351    0.1803 C   0  0  0  0  0  0  0  0  0  0  0  0
    3.6863   -2.8561    1.2835 C   0  0  2  0  0  0  0  0  0  0  0  0
    1.8471   -1.0386    0.3655 H   0  0  0  0  0  0  0  0  0  0  0  0
    2.2675    0.1793    1.3880 H   0  0  0  0  0  0  0  0  0  0  0  0
    3.9793   -1.0504    2.3745 H   0  0  0  0  0  0  0  0  0  0  0  0
    4.5249    0.3730    0.4747 H   0  0  0  0  0  0  0  0  0  0  0  0
    3.1500   -0.9618   -1.2986 H   0  0  0  0  0  0  0  0  0  0  0  0
    4.7061   -0.3622   -1.7811 H   0  0  0  0  0  0  0  0  0  0  0  0
    4.4132   -2.7069   -2.5994 H   0  0  0  0  0  0  0  0  0  0  0  0
    6.5326   -3.5847   -1.6670 H   0  0  0  0  0  0  0  0  0  0  0  0
    6.7557   -1.8498   -1.7556 H   0  0  0  0  0  0  0  0  0  0  0  0
    7.1300   -3.0466    0.6381 H   0  0  0  0  0  0  0  0  0  0  0  0
    6.7399   -0.5293    0.1733 H   0  0  0  0  0  0  0  0  0  0  0  0
    6.2251   -1.0477    1.7515 H   0  0  0  0  0  0  0  0  0  0  0  0
    5.1735   -4.4657    1.0473 H   0  0  0  0  0  0  0  0  0  0  0  0
    4.2544   -4.6154   -1.0593 H   0  0  0  0  0  0  0  0  0  0  0  0
    2.1080   -2.9224   -0.2923 H   0  0  0  0  0  0  0  0  0  0  0  0
    2.5037   -4.5200    0.4696 H   0  0  0  0  0  0  0  0  0  0  0  0
    3.4770   -3.3553    2.2303 H   0  0  0  0  0  0  0  0  0  0  0  0
    1.6871   -1.2353    1.9961 H   0  0  0  0  0  0  0  0  0  0  0  0
  1  2  1  0
  1 13  1  0
  1 14  1  0
  1 30  1  0
  2 12  1  0
  2  3  1  0
  2 15  1  1
  3  8  1  0
  3  4  1  0
  3 16  1  6
  4  5  1  0
  4 17  1  0
  4 18  1  0
  5 10  1  0
  5  6  1  0
  5 19  1  6
  6  7  1  0
  6 20  1  0
  6 21  1  0
  7  8  1  0
  7  9  1  0
  7 22  1  6
  8 23  1  0
  8 24  1  0
  9 12  1  0
  9 10  1  0
  9 25  1  1
 10 11  1  0
 10 26  1  6
 11 12  1  0
 11 27  1  0
 11 28  1  0
 12 29  1  1
M  CHG  1   1   1
M  END
>  <i_m_ct_stereo_status>  (178) 
1

>  <s_m_source_file>  (178) 
/var/tmp/pbs.5076255.sched01/tmpnk13i6y_/41i0yhob8r.sdf

>  <i_m_source_file_index>  (178) 
31

>  <i_lp_mmshare_version>  (178) 
48012

>  <i_f3d_flags>  (178) 
2

>  <s_epik_input>  (178) 
W05IMl1bQ0BIXShbQ0BIXTEyKVtDQEBIXTNbQ0BIXTRbQ0BIXShbQ0gyXTIpW0NIMl1bQ0BIXShbQ0gyXTEpW0NIXTRbQ0gyXTM=

>  <s_epik_cmdline>  (178) 
J2VwaWtfcHl0aG9uJywgJy1waHQnLCAnMi4wJywgJy1waCcsICc3LjAnLCAnLXRuJywgJzgnLCAnLW1hJywgJzIwMCcsICctaW1hZScsICc8aW5maWxlLm1hZT4nLCAnLW9tYWUnLCAnPG91dGZpbGUubWFlPic=

>  <r_lp_tautomer_probability>  (178) 
1

>  <r_epik_Ionization_Penalty>  (178) 
0.000184398

>  <r_epik_Ionization_Penalty_Charging>  (178) 
0.000184398

>  <r_epik_Ionization_Penalty_Neutral>  (178) 
0

>  <r_epik_State_Penalty>  (178) 
-0

>  <r_epik_Charging_Adjusted_Penalty>  (178) 
0.000184398

>  <i_epik_Tot_Q>  (178) 
1

>  <i_epik_Tot_abs_Q>  (178) 
1

>  <s_lp_Force_Field>  (178) 
OPLS3e

>  <r_lp_Energy>  (178) 
48.8956

>  <b_lp_Chiralities_Consistent>  (178) 
0

>  <s_lp_Variant>  (178) 
60:0-1

>  <s_i_glide_gridfile>  (178) 
pfpi4k_grid

>  <i_i_glide_lignum>  (178) 
31

>  <i_i_glide_rotatable_bonds>  (178) 
0

>  <r_i_docking_score>  (178) 
-4.58114

>  <r_i_glide_ligand_efficiency>  (178) 
-0.381761

>  <r_i_glide_ligand_efficiency_sa>  (178) 
-0.874015

>  <r_i_glide_ligand_efficiency_ln>  (178) 
-1.31457

>  <r_i_glide_gscore>  (178) 
-4.58114

>  <r_i_glide_lipo>  (178) 
-0.319338

>  <r_i_glide_hbond>  (178) 
-0.2

>  <r_i_glide_metal>  (178) 
-0

>  <r_i_glide_rewards>  (178) 
-2.25

>  <r_i_glide_evdw>  (178) 
-14.9057

>  <r_i_glide_ecoul>  (178) 
-6.53437

>  <r_i_glide_erotb>  (178) 
0

>  <r_i_glide_esite>  (178) 
-0.0863607

>  <r_i_glide_emodel>  (178) 
-29.2419

>  <r_i_glide_energy>  (178) 
-21.44

>  <r_i_glide_einternal>  (178) 
0

>  <r_i_glide_intrahb_reward>  (178) 
-0

>  <i_i_glide_confnum>  (178) 
1

>  <i_i_glide_posenum>  (178) 
2

>  <r_i_glide_eff_state_penalty>  (178) 
0

>  <ligand_id>  (178) 
60

>  <original_smiles>  (178) 
NC1C2CC3CC(C2)C2C3CC12

>  <smiles>  (178) 
[H]C1([H])C2([H])C([H])([H])C3([H])C([H])([H])C1([H])C1([H])C2([H])C([H])([H])C1([H])C3([H])[N+]([H])([H])[H]

$$$$
60:0:1
     RDKit          3D

 30 33  0  0  1  0  0  0  0  0999 V2000
    2.2161   -3.4548   -2.5125 N   0  0  0  0  0  0  0  0  0  0  0  0
    3.0352   -2.4600   -1.8202 C   0  0  2  0  0  0  0  0  0  0  0  0
    4.4414   -2.3159   -2.4070 C   0  0  2  0  0  0  0  0  0  0  0  0
    5.3199   -3.5874   -2.2080 C   0  0  0  0  0  0  0  0  0  0  0  0
    5.8969   -3.7539   -0.7628 C   0  0  1  0  0  0  0  0  0  0  0  0
    6.6756   -2.4810   -0.4314 C   0  0  0  0  0  0  0  0  0  0  0  0
    5.5239   -1.4652   -0.2916 C   0  0  1  0  0  0  0  0  0  0  0  0
    5.0958   -1.0976   -1.7267 C   0  0  0  0  0  0  0  0  0  0  0  0
    4.4147   -2.2773    0.4197 C   0  0  2  0  0  0  0  0  0  0  0  0
    4.8453   -3.7279    0.3348 C   0  0  1  0  0  0  0  0  0  0  0  0
    3.3958   -4.1357    0.1518 C   0  0  0  0  0  0  0  0  0  0  0  0
    3.1154   -2.7055   -0.3154 C   0  0  2  0  0  0  0  0  0  0  0  0
    2.6182   -4.3846   -2.4154 H   0  0  0  0  0  0  0  0  0  0  0  0
    2.1541   -3.2277   -3.4868 H   0  0  0  0  0  0  0  0  0  0  0  0
    2.5676   -1.4962   -1.9863 H   0  0  0  0  0  0  0  0  0  0  0  0
    4.3421   -2.1040   -3.4692 H   0  0  0  0  0  0  0  0  0  0  0  0
    4.7613   -4.4782   -2.4941 H   0  0  0  0  0  0  0  0  0  0  0  0
    6.1600   -3.5298   -2.9031 H   0  0  0  0  0  0  0  0  0  0  0  0
    6.5129   -4.6456   -0.6821 H   0  0  0  0  0  0  0  0  0  0  0  0
    7.1865   -2.5995    0.5235 H   0  0  0  0  0  0  0  0  0  0  0  0
    7.4302   -2.2372   -1.1800 H   0  0  0  0  0  0  0  0  0  0  0  0
    5.8364   -0.5818    0.2684 H   0  0  0  0  0  0  0  0  0  0  0  0
    5.9549   -0.7921   -2.3141 H   0  0  0  0  0  0  0  0  0  0  0  0
    4.4239   -0.2380   -1.7220 H   0  0  0  0  0  0  0  0  0  0  0  0
    4.2245   -1.9896    1.4549 H   0  0  0  0  0  0  0  0  0  0  0  0
    5.2209   -4.0712    1.2991 H   0  0  0  0  0  0  0  0  0  0  0  0
    3.2590   -4.9201   -0.5907 H   0  0  0  0  0  0  0  0  0  0  0  0
    2.9084   -4.3721    1.1016 H   0  0  0  0  0  0  0  0  0  0  0  0
    2.2586   -2.3131    0.2353 H   0  0  0  0  0  0  0  0  0  0  0  0
    1.2857   -3.4659   -2.1275 H   0  0  0  0  0  0  0  0  0  0  0  0
  1  2  1  0
  1 13  1  0
  1 14  1  0
  1 30  1  0
  2 12  1  0
  2  3  1  0
  2 15  1  1
  3  8  1  0
  3  4  1  0
  3 16  1  6
  4  5  1  0
  4 17  1  0
  4 18  1  0
  5 10  1  0
  5  6  1  0
  5 19  1  6
  6  7  1  0
  6 20  1  0
  6 21  1  0
  7  8  1  0
  7  9  1  0
  7 22  1  1
  8 23  1  0
  8 24  1  0
  9 12  1  0
  9 10  1  0
  9 25  1  1
 10 11  1  0
 10 26  1  1
 11 12  1  0
 11 27  1  0
 11 28  1  0
 12 29  1  1
M  CHG  1   1   1
M  END
>  <i_m_ct_stereo_status>  (179) 
1

>  <s_m_source_file>  (179) 
/var/tmp/pbs.5076255.sched01/tmpnk13i6y_/41i0yhob8r.sdf

>  <i_m_source_file_index>  (179) 
31

>  <i_lp_mmshare_version>  (179) 
48012

>  <i_f3d_flags>  (179) 
2

>  <s_epik_input>  (179) 
W05IMl1bQ0BIXShbQ0BIXTEyKVtDQEBIXTNbQ0BIXTRbQ0BIXShbQ0gyXTIpW0NIMl1bQ0BIXShbQ0gyXTEpW0NIXTRbQ0gyXTM=

>  <s_epik_cmdline>  (179) 
J2VwaWtfcHl0aG9uJywgJy1waHQnLCAnMi4wJywgJy1waCcsICc3LjAnLCAnLXRuJywgJzgnLCAnLW1hJywgJzIwMCcsICctaW1hZScsICc8aW5maWxlLm1hZT4nLCAnLW9tYWUnLCAnPG91dGZpbGUubWFlPic=

>  <r_lp_tautomer_probability>  (179) 
1

>  <r_epik_Ionization_Penalty>  (179) 
0.000184398

>  <r_epik_Ionization_Penalty_Charging>  (179) 
0.000184398

>  <r_epik_Ionization_Penalty_Neutral>  (179) 
0

>  <r_epik_State_Penalty>  (179) 
-0

>  <r_epik_Charging_Adjusted_Penalty>  (179) 
0.000184398

>  <i_epik_Tot_Q>  (179) 
1

>  <i_epik_Tot_abs_Q>  (179) 
1

>  <s_lp_Force_Field>  (179) 
OPLS3e

>  <r_lp_Energy>  (179) 
48.8956

>  <b_lp_Chiralities_Consistent>  (179) 
0

>  <s_lp_Variant>  (179) 
60:0-1

>  <s_i_glide_gridfile>  (179) 
pfpi4k_grid

>  <i_i_glide_lignum>  (179) 
31

>  <i_i_glide_rotatable_bonds>  (179) 
0

>  <r_i_docking_score>  (179) 
-4.33186

>  <r_i_glide_ligand_efficiency>  (179) 
-0.360988

>  <r_i_glide_ligand_efficiency_sa>  (179) 
-0.826457

>  <r_i_glide_ligand_efficiency_ln>  (179) 
-1.24303

>  <r_i_glide_gscore>  (179) 
-4.33186

>  <r_i_glide_lipo>  (179) 
-0.29441

>  <r_i_glide_hbond>  (179) 
0

>  <r_i_glide_metal>  (179) 
-0

>  <r_i_glide_rewards>  (179) 
-2.25

>  <r_i_glide_evdw>  (179) 
-13.85

>  <r_i_glide_ecoul>  (179) 
-7.29965

>  <r_i_glide_erotb>  (179) 
0

>  <r_i_glide_esite>  (179) 
0

>  <r_i_glide_emodel>  (179) 
-28.5295

>  <r_i_glide_energy>  (179) 
-21.1497

>  <r_i_glide_einternal>  (179) 
0

>  <r_i_glide_intrahb_reward>  (179) 
-0

>  <i_i_glide_confnum>  (179) 
2

>  <i_i_glide_posenum>  (179) 
9

>  <r_i_glide_eff_state_penalty>  (179) 
0

>  <ligand_id>  (179) 
60

>  <original_smiles>  (179) 
NC1C2CC3CC(C2)C2C3CC12

>  <smiles>  (179) 
[H]C1([H])C2([H])C([H])([H])C3([H])C([H])([H])C1([H])C1([H])C2([H])C([H])([H])C1([H])C3([H])[N+]([H])([H])[H]

$$$$
60:0:2
     RDKit          3D

 30 33  0  0  1  0  0  0  0  0999 V2000
    3.2908   -4.9309   -0.3139 N   0  0  0  0  0  0  0  0  0  0  0  0
    4.6410   -4.3417   -0.3495 C   0  0  2  0  0  0  0  0  0  0  0  0
    4.9508   -3.5734    0.9452 C   0  0  2  0  0  0  0  0  0  0  0  0
    4.0493   -2.3103    1.1432 C   0  0  0  0  0  0  0  0  0  0  0  0
    4.4565   -1.0861    0.2662 C   0  0  1  0  0  0  0  0  0  0  0  0
    5.9310   -0.7921    0.5507 C   0  0  0  0  0  0  0  0  0  0  0  0
    6.6095   -2.0115   -0.1117 C   0  0  1  0  0  0  0  0  0  0  0  0
    6.4388   -3.1759    0.8832 C   0  0  0  0  0  0  0  0  0  0  0  0
    5.7808   -2.2307   -1.3980 C   0  0  2  0  0  0  0  0  0  0  0  0
    4.5289   -1.3852   -1.2315 C   0  0  1  0  0  0  0  0  0  0  0  0
    3.7193   -2.4670   -1.9277 C   0  0  0  0  0  0  0  0  0  0  0  0
    4.8384   -3.4527   -1.5738 C   0  0  2  0  0  0  0  0  0  0  0  0
    2.6209   -4.1796   -0.2396 H   0  0  0  0  0  0  0  0  0  0  0  0
    3.2050   -5.5689    0.4621 H   0  0  0  0  0  0  0  0  0  0  0  0
    5.3199   -5.1952   -0.4204 H   0  0  0  0  0  0  0  0  0  0  0  0
    4.8092   -4.2525    1.7850 H   0  0  0  0  0  0  0  0  0  0  0  0
    2.9975   -2.5544    0.9789 H   0  0  0  0  0  0  0  0  0  0  0  0
    4.1187   -2.0093    2.1890 H   0  0  0  0  0  0  0  0  0  0  0  0
    3.8197   -0.2242    0.4747 H   0  0  0  0  0  0  0  0  0  0  0  0
    6.2267    0.1309    0.0534 H   0  0  0  0  0  0  0  0  0  0  0  0
    6.1606   -0.6676    1.6087 H   0  0  0  0  0  0  0  0  0  0  0  0
    7.6697   -1.8252   -0.3049 H   0  0  0  0  0  0  0  0  0  0  0  0
    6.7810   -2.8769    1.8729 H   0  0  0  0  0  0  0  0  0  0  0  0
    7.0634   -4.0224    0.5905 H   0  0  0  0  0  0  0  0  0  0  0  0
    6.2979   -1.9884   -2.3193 H   0  0  0  0  0  0  0  0  0  0  0  0
    4.5807   -0.4798   -1.8410 H   0  0  0  0  0  0  0  0  0  0  0  0
    2.7445   -2.6366   -1.4712 H   0  0  0  0  0  0  0  0  0  0  0  0
    3.6345   -2.2928   -2.9979 H   0  0  0  0  0  0  0  0  0  0  0  0
    5.1095   -4.0302   -2.4597 H   0  0  0  0  0  0  0  0  0  0  0  0
    3.1374   -5.4358   -1.1934 H   0  0  0  0  0  0  0  0  0  0  0  0
  1  2  1  0
  1 13  1  0
  1 14  1  0
  1 30  1  0
  2 12  1  0
  2  3  1  0
  2 15  1  6
  3  8  1  0
  3  4  1  0
  3 16  1  1
  4  5  1  0
  4 17  1  0
  4 18  1  0
  5 10  1  0
  5  6  1  0
  5 19  1  6
  6  7  1  0
  6 20  1  0
  6 21  1  0
  7  8  1  0
  7  9  1  0
  7 22  1  6
  8 23  1  0
  8 24  1  0
  9 12  1  0
  9 10  1  0
  9 25  1  6
 10 11  1  0
 10 26  1  6
 11 12  1  0
 11 27  1  0
 11 28  1  0
 12 29  1  6
M  CHG  1   1   1
M  END
>  <i_m_ct_stereo_status>  (180) 
1

>  <s_m_source_file>  (180) 
/var/tmp/pbs.5076255.sched01/tmpnk13i6y_/41i0yhob8r.sdf

>  <i_m_source_file_index>  (180) 
31

>  <i_lp_mmshare_version>  (180) 
48012

>  <i_f3d_flags>  (180) 
2

>  <s_epik_input>  (180) 
W05IMl1bQ0BIXShbQ0BIXTEyKVtDQEBIXTNbQ0BIXTRbQ0BIXShbQ0gyXTIpW0NIMl1bQ0BIXShbQ0gyXTEpW0NIXTRbQ0gyXTM=

>  <s_epik_cmdline>  (180) 
J2VwaWtfcHl0aG9uJywgJy1waHQnLCAnMi4wJywgJy1waCcsICc3LjAnLCAnLXRuJywgJzgnLCAnLW1hJywgJzIwMCcsICctaW1hZScsICc8aW5maWxlLm1hZT4nLCAnLW9tYWUnLCAnPG91dGZpbGUubWFlPic=

>  <r_lp_tautomer_probability>  (180) 
1

>  <r_epik_Ionization_Penalty>  (180) 
0.000184398

>  <r_epik_Ionization_Penalty_Charging>  (180) 
0.000184398

>  <r_epik_Ionization_Penalty_Neutral>  (180) 
0

>  <r_epik_State_Penalty>  (180) 
-0

>  <r_epik_Charging_Adjusted_Penalty>  (180) 
0.000184398

>  <i_epik_Tot_Q>  (180) 
1

>  <i_epik_Tot_abs_Q>  (180) 
1

>  <s_lp_Force_Field>  (180) 
OPLS3e

>  <r_lp_Energy>  (180) 
48.8956

>  <b_lp_Chiralities_Consistent>  (180) 
0

>  <s_lp_Variant>  (180) 
60:0-1

>  <s_i_glide_gridfile>  (180) 
pfpi4k_grid

>  <i_i_glide_lignum>  (180) 
31

>  <i_i_glide_rotatable_bonds>  (180) 
0

>  <r_i_docking_score>  (180) 
-4.31581

>  <r_i_glide_ligand_efficiency>  (180) 
-0.359651

>  <r_i_glide_ligand_efficiency_sa>  (180) 
-0.823395

>  <r_i_glide_ligand_efficiency_ln>  (180) 
-1.23843

>  <r_i_glide_gscore>  (180) 
-4.31581

>  <r_i_glide_lipo>  (180) 
-0.272148

>  <r_i_glide_hbond>  (180) 
0

>  <r_i_glide_metal>  (180) 
-0

>  <r_i_glide_rewards>  (180) 
-2.25

>  <r_i_glide_evdw>  (180) 
-15.5966

>  <r_i_glide_ecoul>  (180) 
-6.45155

>  <r_i_glide_erotb>  (180) 
0

>  <r_i_glide_esite>  (180) 
-0.0461037

>  <r_i_glide_emodel>  (180) 
-29.386

>  <r_i_glide_energy>  (180) 
-22.0481

>  <r_i_glide_einternal>  (180) 
0

>  <r_i_glide_intrahb_reward>  (180) 
-0

>  <i_i_glide_confnum>  (180) 
2

>  <i_i_glide_posenum>  (180) 
24

>  <r_i_glide_eff_state_penalty>  (180) 
0

>  <ligand_id>  (180) 
60

>  <original_smiles>  (180) 
NC1C2CC3CC(C2)C2C3CC12

>  <smiles>  (180) 
[H]C1([H])C2([H])C([H])([H])C3([H])C([H])([H])C1([H])C1([H])C2([H])C([H])([H])C1([H])C3([H])[N+]([H])([H])[H]

$$$$
61:0:0
     RDKit          3D

 90 95  0  0  1  0  0  0  0  0999 V2000
    4.9531    0.2535    4.2857 C   0  0  0  0  0  0  0  0  0  0  0  0
    4.4054   -0.7972    3.3101 C   0  0  0  0  0  0  0  0  0  0  0  0
    3.1620   -1.4808    3.8997 C   0  0  0  0  0  0  0  0  0  0  0  0
    5.5055   -1.8008    2.9344 C   0  0  0  0  0  0  0  0  0  0  0  0
    5.1140   -2.8201    1.8576 C   0  0  0  0  0  0  0  0  0  0  0  0
    4.5962   -4.1708    2.4340 C   0  0  0  0  0  0  0  0  0  0  0  0
    5.6738   -5.2374    2.7886 C   0  0  2  0  0  0  0  0  0  0  0  0
    6.3558   -5.6477    1.4557 C   0  0  0  0  0  0  0  0  0  0  0  0
    5.0329   -6.3838    3.6812 C   0  0  2  0  0  0  0  0  0  0  0  0
    4.7170   -5.8032    5.1246 C   0  0  0  0  0  0  0  0  0  0  0  0
    3.2660   -5.8542    5.7019 C   0  0  0  0  0  0  0  0  0  0  0  0
    2.3153   -6.9405    5.1494 C   0  0  2  0  0  0  0  0  0  0  0  0
    0.8176   -6.5100    5.2668 C   0  0  0  0  0  0  0  0  0  0  0  0
    0.1724   -6.1589    3.8604 C   0  0  0  0  0  0  0  0  0  0  0  0
    0.0630   -7.2575    2.6810 C   0  0  2  0  0  0  0  0  0  0  0  0
    0.5548   -6.6403    1.3680 C   0  0  0  0  0  0  0  0  0  0  0  0
    1.7668   -6.3407    1.3058 O   0  0  0  0  0  0  0  0  0  0  0  0
   -0.2707   -6.3046    0.4923 O   0  0  0  0  0  0  0  0  0  0  0  0
   -1.3844   -7.8374    2.6154 C   0  0  0  0  0  0  0  0  0  0  0  0
   -1.3934   -9.1216    3.4665 C   0  0  0  0  0  0  0  0  0  0  0  0
   -0.0028   -9.7702    3.2576 C   0  0  1  0  0  0  0  0  0  0  0  0
    0.8190   -8.5856    2.9161 C   0  0  1  0  0  0  0  0  0  0  0  0
    2.3139   -8.9314    2.9905 C   0  0  2  0  0  0  0  0  0  0  0  0
    2.9618   -9.5996    1.7937 C   0  0  0  0  0  0  0  0  0  0  0  0
    4.4991   -9.4658    1.6970 C   0  0  1  0  0  0  0  0  0  0  0  0
    4.9676   -8.1681    1.3742 O   0  0  0  0  0  0  0  0  0  0  0  0
    5.6565   -8.7369    2.4757 C   0  0  2  0  0  0  0  0  0  0  0  0
    6.9947   -9.4010    2.1462 C   0  0  0  0  0  0  0  0  0  0  0  0
    5.7716   -7.7999    3.7808 C   0  0  1  0  0  0  0  0  0  0  0  0
    7.2758   -7.4242    4.0837 C   0  0  0  0  0  0  0  0  0  0  0  0
    5.4321   -8.6921    5.0451 C   0  0  0  0  0  0  0  0  0  0  0  0
    4.1544   -8.6494    5.9522 C   0  0  0  0  0  0  0  0  0  0  0  0
    2.6999   -8.5012    5.4231 C   0  0  2  0  0  0  0  0  0  0  0  0
    2.3279   -9.6744    4.3600 C   0  0  2  0  0  0  0  0  0  0  0  0
    3.2564  -10.9237    4.4016 C   0  0  0  0  0  0  0  0  0  0  0  0
    0.8520  -10.3278    4.4505 C   0  0  1  0  0  0  0  0  0  0  0  0
    0.2170  -10.1474    5.6938 O   0  0  0  0  0  0  0  0  0  0  0  0
    5.2811   -0.2026    5.2213 H   0  0  0  0  0  0  0  0  0  0  0  0
    4.1873    0.9921    4.5214 H   0  0  0  0  0  0  0  0  0  0  0  0
    5.8044    0.7833    3.8572 H   0  0  0  0  0  0  0  0  0  0  0  0
    4.1042   -0.2771    2.3998 H   0  0  0  0  0  0  0  0  0  0  0  0
    3.4168   -2.0841    4.7731 H   0  0  0  0  0  0  0  0  0  0  0  0
    2.6828   -2.1254    3.1642 H   0  0  0  0  0  0  0  0  0  0  0  0
    2.4159   -0.7459    4.2022 H   0  0  0  0  0  0  0  0  0  0  0  0
    6.3684   -1.2425    2.5640 H   0  0  0  0  0  0  0  0  0  0  0  0
    5.8168   -2.3335    3.8317 H   0  0  0  0  0  0  0  0  0  0  0  0
    4.3729   -2.3790    1.1904 H   0  0  0  0  0  0  0  0  0  0  0  0
    5.9759   -2.9562    1.2064 H   0  0  0  0  0  0  0  0  0  0  0  0
    3.9648   -3.9906    3.3045 H   0  0  0  0  0  0  0  0  0  0  0  0
    3.9137   -4.5981    1.6985 H   0  0  0  0  0  0  0  0  0  0  0  0
    6.4176   -4.7483    3.4120 H   0  0  0  0  0  0  0  0  0  0  0  0
    5.6032   -5.9058    0.7074 H   0  0  0  0  0  0  0  0  0  0  0  0
    7.0695   -6.4701    1.5343 H   0  0  0  0  0  0  0  0  0  0  0  0
    6.9272   -4.8172    1.0450 H   0  0  0  0  0  0  0  0  0  0  0  0
    4.1229   -6.5256    3.1314 H   0  0  0  0  0  0  0  0  0  0  0  0
    5.3806   -6.2463    5.8604 H   0  0  0  0  0  0  0  0  0  0  0  0
    5.0189   -4.7572    5.1784 H   0  0  0  0  0  0  0  0  0  0  0  0
    3.2860   -5.8832    6.7931 H   0  0  0  0  0  0  0  0  0  0  0  0
    2.8238   -4.8853    5.4684 H   0  0  0  0  0  0  0  0  0  0  0  0
    2.4257   -6.6583    4.1278 H   0  0  0  0  0  0  0  0  0  0  0  0
    0.2232   -7.2807    5.7634 H   0  0  0  0  0  0  0  0  0  0  0  0
    0.7225   -5.6358    5.9110 H   0  0  0  0  0  0  0  0  0  0  0  0
   -0.8225   -5.8124    4.1045 H   0  0  0  0  0  0  0  0  0  0  0  0
    0.6836   -5.2739    3.4802 H   0  0  0  0  0  0  0  0  0  0  0  0
   -2.1624   -7.1368    2.9276 H   0  0  0  0  0  0  0  0  0  0  0  0
   -1.6194   -8.1441    1.6018 H   0  0  0  0  0  0  0  0  0  0  0  0
   -1.5616   -8.8387    4.5055 H   0  0  0  0  0  0  0  0  0  0  0  0
   -2.1923   -9.7976    3.1666 H   0  0  0  0  0  0  0  0  0  0  0  0
   -0.0100  -10.4576    2.4101 H   0  0  0  0  0  0  0  0  0  0  0  0
    0.7336   -8.2638    3.9012 H   0  0  0  0  0  0  0  0  0  0  0  0
    2.9197   -8.0640    2.9682 H   0  0  0  0  0  0  0  0  0  0  0  0
    2.6905  -10.6558    1.7673 H   0  0  0  0  0  0  0  0  0  0  0  0
    2.5401   -9.1768    0.8782 H   0  0  0  0  0  0  0  0  0  0  0  0
    4.8384  -10.2171    0.9882 H   0  0  0  0  0  0  0  0  0  0  0  0
    7.3450  -10.0170    2.9765 H   0  0  0  0  0  0  0  0  0  0  0  0
    7.7442   -8.6563    1.8785 H   0  0  0  0  0  0  0  0  0  0  0  0
    6.9120  -10.0680    1.2901 H   0  0  0  0  0  0  0  0  0  0  0  0
    7.8609   -8.2963    4.3786 H   0  0  0  0  0  0  0  0  0  0  0  0
    7.3319   -6.7453    4.9304 H   0  0  0  0  0  0  0  0  0  0  0  0
    7.8246   -6.9347    3.2788 H   0  0  0  0  0  0  0  0  0  0  0  0
    5.7028   -9.7226    4.8243 H   0  0  0  0  0  0  0  0  0  0  0  0
    6.1839   -8.4883    5.8064 H   0  0  0  0  0  0  0  0  0  0  0  0
    4.1810   -9.5740    6.5307 H   0  0  0  0  0  0  0  0  0  0  0  0
    4.3070   -7.9318    6.7568 H   0  0  0  0  0  0  0  0  0  0  0  0
    2.1275   -8.7351    6.3198 H   0  0  0  0  0  0  0  0  0  0  0  0
    3.3901  -11.3031    5.4137 H   0  0  0  0  0  0  0  0  0  0  0  0
    4.2213  -10.7621    3.9509 H   0  0  0  0  0  0  0  0  0  0  0  0
    2.8587  -11.7562    3.8216 H   0  0  0  0  0  0  0  0  0  0  0  0
    0.8608  -11.4051    4.3202 H   0  0  0  0  0  0  0  0  0  0  0  0
   -0.6525  -10.5578    5.6150 H   0  0  0  0  0  0  0  0  0  0  0  0
  1  2  1  0
  1 38  1  0
  1 39  1  0
  1 40  1  0
  2  3  1  0
  2  4  1  0
  2 41  1  0
  3 42  1  0
  3 43  1  0
  3 44  1  0
  4  5  1  0
  4 45  1  0
  4 46  1  0
  5  6  1  0
  5 47  1  0
  5 48  1  0
  6  7  1  0
  6 49  1  0
  6 50  1  0
  7  8  1  0
  7  9  1  0
  7 51  1  1
  8 52  1  0
  8 53  1  0
  8 54  1  0
  9 29  1  0
  9 10  1  0
  9 55  1  6
 10 11  1  0
 10 56  1  0
 10 57  1  0
 11 12  1  0
 11 58  1  0
 11 59  1  0
 12 33  1  0
 12 13  1  0
 12 60  1  6
 13 14  1  0
 13 61  1  0
 13 62  1  0
 14 15  1  0
 14 63  1  0
 14 64  1  0
 15 22  1  0
 15 16  1  6
 15 19  1  0
 16 17  2  0
 16 18  1  0
 19 20  1  0
 19 65  1  0
 19 66  1  0
 20 21  1  0
 20 67  1  0
 20 68  1  0
 21 36  1  0
 21 22  1  0
 21 69  1  6
 22 23  1  0
 22 70  1  6
 23 34  1  0
 23 24  1  0
 23 71  1  1
 24 25  1  0
 24 72  1  0
 24 73  1  0
 25 27  1  0
 25 26  1  0
 25 74  1  6
 26 27  1  0
 27 28  1  6
 27 29  1  0
 28 75  1  0
 28 76  1  0
 28 77  1  0
 29 30  1  1
 29 31  1  0
 30 78  1  0
 30 79  1  0
 30 80  1  0
 31 32  1  0
 31 81  1  0
 31 82  1  0
 32 33  1  0
 32 83  1  0
 32 84  1  0
 33 34  1  0
 33 85  1  1
 34 35  1  6
 34 36  1  0
 35 86  1  0
 35 87  1  0
 35 88  1  0
 36 37  1  0
 36 89  1  6
 37 90  1  0
M  CHG  1  18  -1
M  END
>  <i_m_ct_stereo_status>  (181) 
1

>  <s_m_source_file>  (181) 
/var/tmp/pbs.5076255.sched01/tmpnk13i6y_/41i0yhob8r.sdf

>  <i_m_source_file_index>  (181) 
32

>  <i_lp_mmshare_version>  (181) 
48012

>  <i_f3d_flags>  (181) 
0

>  <s_epik_input>  (181) 
W0NIM11bQ0hdKFtDSDNdKVtDSDJdW0NIMl1bQ0gyXVtDQEhdKFtDSDNdKVtDQEhdKFtDSDJdW0NIMl1bQ0BIXShbQ0gyXVtDSDJdMSlbQ0hdMltDSDJdW0NIMl0zKVtDQF0zKFtDSDNdKVtDQEBdKE80KShbQ0gzXSlbQ0BIXTRbQ0gyXVtDQEBIXTVbQ0BdMihbQ0gzXSlbQ0BASF0oW09IXSlbQ0BASF0oW0NIMl1bQ0gyXTYpW0NAQEhdNVtDQF0xNkMoPU8pW09IXQ==

>  <s_epik_cmdline>  (181) 
J2VwaWtfcHl0aG9uJywgJy1waHQnLCAnMi4wJywgJy1waCcsICc3LjAnLCAnLXRuJywgJzgnLCAnLW1hJywgJzIwMCcsICctaW1hZScsICc8aW5maWxlLm1hZT4nLCAnLW9tYWUnLCAnPG91dGZpbGUubWFlPic=

>  <r_epik_Ionization_Penalty>  (181) 
0.00769579

>  <r_epik_Ionization_Penalty_Charging>  (181) 
0.00769146

>  <r_epik_Ionization_Penalty_Neutral>  (181) 
4.32965e-06

>  <r_epik_State_Penalty>  (181) 
0.00575903

>  <r_epik_Charging_Adjusted_Penalty>  (181) 
0.0134505

>  <i_epik_Tot_Q>  (181) 
-1

>  <i_epik_Tot_abs_Q>  (181) 
1

>  <s_lp_Force_Field>  (181) 
OPLS3e

>  <r_lp_Energy>  (181) 
223.462

>  <b_lp_Chiralities_Consistent>  (181) 
1

>  <s_lp_Variant>  (181) 
61:0-1

>  <s_i_glide_gridfile>  (181) 
pfpi4k_grid

>  <i_i_glide_lignum>  (181) 
32

>  <i_i_glide_rotatable_bonds>  (181) 
7

>  <r_i_docking_score>  (181) 
-2.71352

>  <r_i_glide_ligand_efficiency>  (181) 
-0.0733383

>  <r_i_glide_ligand_efficiency_sa>  (181) 
-0.24438

>  <r_i_glide_ligand_efficiency_ln>  (181) 
-0.588498

>  <r_i_glide_gscore>  (181) 
-2.71352

>  <r_i_glide_lipo>  (181) 
-0.415163

>  <r_i_glide_hbond>  (181) 
-0.373722

>  <r_i_glide_metal>  (181) 
-0

>  <r_i_glide_rewards>  (181) 
0

>  <r_i_glide_evdw>  (181) 
-23.3608

>  <r_i_glide_ecoul>  (181) 
-6.44912

>  <r_i_glide_erotb>  (181) 
0.310777

>  <r_i_glide_esite>  (181) 
-0.1

>  <r_i_glide_emodel>  (181) 
-34.4419

>  <r_i_glide_energy>  (181) 
-29.81

>  <r_i_glide_einternal>  (181) 
4.79467

>  <r_i_glide_intrahb_reward>  (181) 
-0

>  <i_i_glide_confnum>  (181) 
1

>  <i_i_glide_posenum>  (181) 
20

>  <r_i_glide_eff_state_penalty>  (181) 
0

>  <ligand_id>  (181) 
61

>  <original_smiles>  (181) 
CC(C)CCCC(C)C1CCC2CCC3(C(=O)O)CCC4C3C3CC5OC5(C)C1(C)CCC2C3(C)C4O

>  <smiles>  (181) 
[H]OC1([H])C2([H])C([H])([H])C([H])([H])C3(C(=O)[O-])C([H])([H])C([H])([H])C4([H])C([H])([H])C([H])([H])C([H])(C([H])(C([H])([H])[H])C([H])([H])C([H])([H])C([H])([H])C([H])(C([H])([H])[H])C([H])([H])[H])C5(C([H])([H])[H])C([H])([H])C([H])([H])C4([H])C1(C([H])([H])[H])C([H])(C([H])([H])C1([H])OC15C([H])([H])[H])C23[H]

$$$$
61:0:1
     RDKit          3D

 90 95  0  0  1  0  0  0  0  0999 V2000
    3.2770    0.4669    1.5601 C   0  0  0  0  0  0  0  0  0  0  0  0
    4.4884   -0.3758    1.9702 C   0  0  0  0  0  0  0  0  0  0  0  0
    5.5279   -0.4277    0.8306 C   0  0  0  0  0  0  0  0  0  0  0  0
    4.0051   -1.7653    2.4264 C   0  0  0  0  0  0  0  0  0  0  0  0
    5.1394   -2.7182    2.8290 C   0  0  0  0  0  0  0  0  0  0  0  0
    4.6544   -4.1023    3.3201 C   0  0  0  0  0  0  0  0  0  0  0  0
    5.7644   -5.1890    3.5058 C   0  0  2  0  0  0  0  0  0  0  0  0
    6.4686   -5.3626    2.1311 C   0  0  0  0  0  0  0  0  0  0  0  0
    5.1630   -6.4907    4.1789 C   0  0  2  0  0  0  0  0  0  0  0  0
    4.7632   -6.1517    5.6711 C   0  0  0  0  0  0  0  0  0  0  0  0
    3.2970   -6.3651    6.1657 C   0  0  0  0  0  0  0  0  0  0  0  0
    2.4323   -7.4011    5.4129 C   0  0  2  0  0  0  0  0  0  0  0  0
    0.9045   -7.0785    5.5220 C   0  0  0  0  0  0  0  0  0  0  0  0
    0.2887   -6.5466    4.1608 C   0  0  0  0  0  0  0  0  0  0  0  0
    0.2898   -7.4604    2.8341 C   0  0  2  0  0  0  0  0  0  0  0  0
    0.7513   -6.6144    1.6318 C   0  0  0  0  0  0  0  0  0  0  0  0
    1.9257   -6.1980    1.6606 O   0  0  0  0  0  0  0  0  0  0  0  0
   -0.0941   -6.2923    0.7681 O   0  0  0  0  0  0  0  0  0  0  0  0
   -1.1048   -8.1078    2.5991 C   0  0  0  0  0  0  0  0  0  0  0  0
   -1.0416   -9.5020    3.2551 C   0  0  0  0  0  0  0  0  0  0  0  0
    0.3848  -10.0340    3.0215 C   0  0  1  0  0  0  0  0  0  0  0  0
    1.1318   -8.7565    2.8850 C   0  0  1  0  0  0  0  0  0  0  0  0
    2.6418   -9.0322    2.9884 C   0  0  2  0  0  0  0  0  0  0  0  0
    3.3578   -9.4960    1.7452 C   0  0  0  0  0  0  0  0  0  0  0  0
    4.8852   -9.2856    1.7437 C   0  0  1  0  0  0  0  0  0  0  0  0
    5.2875   -7.9228    1.6269 O   0  0  0  0  0  0  0  0  0  0  0  0
    5.9685   -8.6075    2.6773 C   0  0  2  0  0  0  0  0  0  0  0  0
    7.3555   -9.1270    2.3244 C   0  0  0  0  0  0  0  0  0  0  0  0
    5.9812   -7.8638    4.0975 C   0  0  1  0  0  0  0  0  0  0  0  0
    7.4423   -7.4590    4.5259 C   0  0  0  0  0  0  0  0  0  0  0  0
    5.6560   -8.9520    5.2068 C   0  0  0  0  0  0  0  0  0  0  0  0
    4.3479   -9.1117    6.0474 C   0  0  0  0  0  0  0  0  0  0  0  0
    2.9164   -8.9566    5.4680 C   0  0  2  0  0  0  0  0  0  0  0  0
    2.6538   -9.9787    4.2300 C   0  0  2  0  0  0  0  0  0  0  0  0
    3.6523  -11.1760    4.1344 C   0  0  0  0  0  0  0  0  0  0  0  0
    1.2286  -10.7158    4.1583 C   0  0  1  0  0  0  0  0  0  0  0  0
    0.6022  -10.7108    5.4189 O   0  0  0  0  0  0  0  0  0  0  0  0
    2.7584    0.0540    0.6935 H   0  0  0  0  0  0  0  0  0  0  0  0
    3.6046    1.4557    1.2909 H   0  0  0  0  0  0  0  0  0  0  0  0
    2.5565    0.5760    2.3715 H   0  0  0  0  0  0  0  0  0  0  0  0
    4.9619    0.1167    2.8207 H   0  0  0  0  0  0  0  0  0  0  0  0
    5.1407   -0.9444   -0.0472 H   0  0  0  0  0  0  0  0  0  0  0  0
    6.4553   -0.9073    1.1427 H   0  0  0  0  0  0  0  0  0  0  0  0
    5.8206    0.5625    0.5065 H   0  0  0  0  0  0  0  0  0  0  0  0
    3.3155   -1.6443    3.2630 H   0  0  0  0  0  0  0  0  0  0  0  0
    3.4324   -2.2173    1.6143 H   0  0  0  0  0  0  0  0  0  0  0  0
    5.7363   -2.8352    1.9309 H   0  0  0  0  0  0  0  0  0  0  0  0
    5.7786   -2.2539    3.5805 H   0  0  0  0  0  0  0  0  0  0  0  0
    4.0934   -3.9522    4.2415 H   0  0  0  0  0  0  0  0  0  0  0  0
    3.9243   -4.4779    2.6031 H   0  0  0  0  0  0  0  0  0  0  0  0
    6.4955   -4.7900    4.2069 H   0  0  0  0  0  0  0  0  0  0  0  0
    5.7344   -5.5078    1.3396 H   0  0  0  0  0  0  0  0  0  0  0  0
    7.1860   -6.1693    2.0520 H   0  0  0  0  0  0  0  0  0  0  0  0
    7.0435   -4.4764    1.8736 H   0  0  0  0  0  0  0  0  0  0  0  0
    4.2894   -6.5916    3.5694 H   0  0  0  0  0  0  0  0  0  0  0  0
    5.4277   -6.6639    6.3650 H   0  0  0  0  0  0  0  0  0  0  0  0
    5.0044   -5.1125    5.8952 H   0  0  0  0  0  0  0  0  0  0  0  0
    3.2785   -6.5579    7.2407 H   0  0  0  0  0  0  0  0  0  0  0  0
    2.8074   -5.3961    6.0546 H   0  0  0  0  0  0  0  0  0  0  0  0
    2.5651   -6.9648    4.4513 H   0  0  0  0  0  0  0  0  0  0  0  0
    0.3450   -7.9442    5.8775 H   0  0  0  0  0  0  0  0  0  0  0  0
    0.7388   -6.3199    6.2867 H   0  0  0  0  0  0  0  0  0  0  0  0
   -0.7383   -6.2556    4.3748 H   0  0  0  0  0  0  0  0  0  0  0  0
    0.7817   -5.5985    3.9401 H   0  0  0  0  0  0  0  0  0  0  0  0
   -1.9347   -7.5137    2.9852 H   0  0  0  0  0  0  0  0  0  0  0  0
   -1.3009   -8.2626    1.5370 H   0  0  0  0  0  0  0  0  0  0  0  0
   -1.2310   -9.3568    4.3165 H   0  0  0  0  0  0  0  0  0  0  0  0
   -1.7854  -10.1737    2.8385 H   0  0  0  0  0  0  0  0  0  0  0  0
    0.4437  -10.5882    2.0820 H   0  0  0  0  0  0  0  0  0  0  0  0
    0.9940   -8.6096    3.9086 H   0  0  0  0  0  0  0  0  0  0  0  0
    3.1969   -8.1421    3.1147 H   0  0  0  0  0  0  0  0  0  0  0  0
    3.1298  -10.5489    1.5898 H   0  0  0  0  0  0  0  0  0  0  0  0
    2.9552   -8.9754    0.8802 H   0  0  0  0  0  0  0  0  0  0  0  0
    5.2831   -9.8987    0.9435 H   0  0  0  0  0  0  0  0  0  0  0  0
    7.7077   -9.8439    3.0661 H   0  0  0  0  0  0  0  0  0  0  0  0
    8.0753   -8.3262    2.1922 H   0  0  0  0  0  0  0  0  0  0  0  0
    7.3203   -9.6533    1.3721 H   0  0  0  0  0  0  0  0  0  0  0  0
    8.0779   -8.3285    4.7120 H   0  0  0  0  0  0  0  0  0  0  0  0
    7.4389   -6.9086    5.4639 H   0  0  0  0  0  0  0  0  0  0  0  0
    8.0043   -6.8337    3.8403 H   0  0  0  0  0  0  0  0  0  0  0  0
    5.9953   -9.9193    4.8516 H   0  0  0  0  0  0  0  0  0  0  0  0
    6.3627   -8.8218    6.0250 H   0  0  0  0  0  0  0  0  0  0  0  0
    4.4008  -10.1114    6.4838 H   0  0  0  0  0  0  0  0  0  0  0  0
    4.4214   -8.5150    6.9543 H   0  0  0  0  0  0  0  0  0  0  0  0
    2.3431   -9.3360    6.3111 H   0  0  0  0  0  0  0  0  0  0  0  0
    3.7554  -11.6909    5.0902 H   0  0  0  0  0  0  0  0  0  0  0  0
    4.6294  -10.9085    3.7630 H   0  0  0  0  0  0  0  0  0  0  0  0
    3.3249  -11.9344    3.4239 H   0  0  0  0  0  0  0  0  0  0  0  0
    1.2984  -11.7676    3.8774 H   0  0  0  0  0  0  0  0  0  0  0  0
    1.0214  -11.3700    5.9700 H   0  0  0  0  0  0  0  0  0  0  0  0
  1  2  1  0
  1 38  1  0
  1 39  1  0
  1 40  1  0
  2  3  1  0
  2  4  1  0
  2 41  1  0
  3 42  1  0
  3 43  1  0
  3 44  1  0
  4  5  1  0
  4 45  1  0
  4 46  1  0
  5  6  1  0
  5 47  1  0
  5 48  1  0
  6  7  1  0
  6 49  1  0
  6 50  1  0
  7  8  1  0
  7  9  1  0
  7 51  1  1
  8 52  1  0
  8 53  1  0
  8 54  1  0
  9 29  1  0
  9 10  1  0
  9 55  1  6
 10 11  1  0
 10 56  1  0
 10 57  1  0
 11 12  1  0
 11 58  1  0
 11 59  1  0
 12 33  1  0
 12 13  1  0
 12 60  1  6
 13 14  1  0
 13 61  1  0
 13 62  1  0
 14 15  1  0
 14 63  1  0
 14 64  1  0
 15 22  1  0
 15 16  1  6
 15 19  1  0
 16 17  2  0
 16 18  1  0
 19 20  1  0
 19 65  1  0
 19 66  1  0
 20 21  1  0
 20 67  1  0
 20 68  1  0
 21 36  1  0
 21 22  1  0
 21 69  1  6
 22 23  1  0
 22 70  1  6
 23 34  1  0
 23 24  1  0
 23 71  1  1
 24 25  1  0
 24 72  1  0
 24 73  1  0
 25 27  1  0
 25 26  1  0
 25 74  1  6
 26 27  1  0
 27 28  1  6
 27 29  1  0
 28 75  1  0
 28 76  1  0
 28 77  1  0
 29 30  1  1
 29 31  1  0
 30 78  1  0
 30 79  1  0
 30 80  1  0
 31 32  1  0
 31 81  1  0
 31 82  1  0
 32 33  1  0
 32 83  1  0
 32 84  1  0
 33 34  1  0
 33 85  1  1
 34 35  1  6
 34 36  1  0
 35 86  1  0
 35 87  1  0
 35 88  1  0
 36 37  1  0
 36 89  1  6
 37 90  1  0
M  CHG  1  18  -1
M  END
>  <i_m_ct_stereo_status>  (182) 
1

>  <s_m_source_file>  (182) 
/var/tmp/pbs.5076255.sched01/tmpnk13i6y_/41i0yhob8r.sdf

>  <i_m_source_file_index>  (182) 
32

>  <i_lp_mmshare_version>  (182) 
48012

>  <i_f3d_flags>  (182) 
0

>  <s_epik_input>  (182) 
W0NIM11bQ0hdKFtDSDNdKVtDSDJdW0NIMl1bQ0gyXVtDQEhdKFtDSDNdKVtDQEhdKFtDSDJdW0NIMl1bQ0BIXShbQ0gyXVtDSDJdMSlbQ0hdMltDSDJdW0NIMl0zKVtDQF0zKFtDSDNdKVtDQEBdKE80KShbQ0gzXSlbQ0BIXTRbQ0gyXVtDQEBIXTVbQ0BdMihbQ0gzXSlbQ0BASF0oW09IXSlbQ0BASF0oW0NIMl1bQ0gyXTYpW0NAQEhdNVtDQF0xNkMoPU8pW09IXQ==

>  <s_epik_cmdline>  (182) 
J2VwaWtfcHl0aG9uJywgJy1waHQnLCAnMi4wJywgJy1waCcsICc3LjAnLCAnLXRuJywgJzgnLCAnLW1hJywgJzIwMCcsICctaW1hZScsICc8aW5maWxlLm1hZT4nLCAnLW9tYWUnLCAnPG91dGZpbGUubWFlPic=

>  <r_epik_Ionization_Penalty>  (182) 
0.00769579

>  <r_epik_Ionization_Penalty_Charging>  (182) 
0.00769146

>  <r_epik_Ionization_Penalty_Neutral>  (182) 
4.32965e-06

>  <r_epik_State_Penalty>  (182) 
0.00575903

>  <r_epik_Charging_Adjusted_Penalty>  (182) 
0.0134505

>  <i_epik_Tot_Q>  (182) 
-1

>  <i_epik_Tot_abs_Q>  (182) 
1

>  <s_lp_Force_Field>  (182) 
OPLS3e

>  <r_lp_Energy>  (182) 
223.462

>  <b_lp_Chiralities_Consistent>  (182) 
1

>  <s_lp_Variant>  (182) 
61:0-1

>  <s_i_glide_gridfile>  (182) 
pfpi4k_grid

>  <i_i_glide_lignum>  (182) 
32

>  <i_i_glide_rotatable_bonds>  (182) 
7

>  <r_i_docking_score>  (182) 
-2.64589

>  <r_i_glide_ligand_efficiency>  (182) 
-0.0715106

>  <r_i_glide_ligand_efficiency_sa>  (182) 
-0.238289

>  <r_i_glide_ligand_efficiency_ln>  (182) 
-0.573832

>  <r_i_glide_gscore>  (182) 
-2.64589

>  <r_i_glide_lipo>  (182) 
-0.580073

>  <r_i_glide_hbond>  (182) 
-0.378443

>  <r_i_glide_metal>  (182) 
-0

>  <r_i_glide_rewards>  (182) 
0

>  <r_i_glide_evdw>  (182) 
-21.7888

>  <r_i_glide_ecoul>  (182) 
-5.46236

>  <r_i_glide_erotb>  (182) 
0.310777

>  <r_i_glide_esite>  (182) 
-0.0893568

>  <r_i_glide_emodel>  (182) 
-33.525

>  <r_i_glide_energy>  (182) 
-27.2512

>  <r_i_glide_einternal>  (182) 
1.22726

>  <r_i_glide_intrahb_reward>  (182) 
-0

>  <i_i_glide_confnum>  (182) 
1

>  <i_i_glide_posenum>  (182) 
29

>  <r_i_glide_eff_state_penalty>  (182) 
0

>  <ligand_id>  (182) 
61

>  <original_smiles>  (182) 
CC(C)CCCC(C)C1CCC2CCC3(C(=O)O)CCC4C3C3CC5OC5(C)C1(C)CCC2C3(C)C4O

>  <smiles>  (182) 
[H]OC1([H])C2([H])C([H])([H])C([H])([H])C3(C(=O)[O-])C([H])([H])C([H])([H])C4([H])C([H])([H])C([H])([H])C([H])(C([H])(C([H])([H])[H])C([H])([H])C([H])([H])C([H])([H])C([H])(C([H])([H])[H])C([H])([H])[H])C5(C([H])([H])[H])C([H])([H])C([H])([H])C4([H])C1(C([H])([H])[H])C([H])(C([H])([H])C1([H])OC15C([H])([H])[H])C23[H]

$$$$
61:0:2
     RDKit          3D

 90 95  0  0  1  0  0  0  0  0999 V2000
    2.3809   -0.0794    2.2689 C   0  0  0  0  0  0  0  0  0  0  0  0
    3.5087   -1.0502    2.6376 C   0  0  0  0  0  0  0  0  0  0  0  0
    4.5386   -0.3724    3.5552 C   0  0  0  0  0  0  0  0  0  0  0  0
    4.1528   -1.6452    1.3719 C   0  0  0  0  0  0  0  0  0  0  0  0
    5.2374   -2.7073    1.6231 C   0  0  0  0  0  0  0  0  0  0  0  0
    4.7225   -3.9975    2.3072 C   0  0  0  0  0  0  0  0  0  0  0  0
    5.7607   -5.1438    2.4712 C   0  0  2  0  0  0  0  0  0  0  0  0
    6.2096   -5.5590    1.0490 C   0  0  0  0  0  0  0  0  0  0  0  0
    5.1991   -6.2861    3.4135 C   0  0  2  0  0  0  0  0  0  0  0  0
    5.0222   -5.6977    4.8723 C   0  0  0  0  0  0  0  0  0  0  0  0
    3.6230   -5.7342    5.5671 C   0  0  0  0  0  0  0  0  0  0  0  0
    2.6241   -6.8200    5.1019 C   0  0  2  0  0  0  0  0  0  0  0  0
    1.1435   -6.3846    5.3408 C   0  0  0  0  0  0  0  0  0  0  0  0
    0.3923   -6.0352    4.0037 C   0  0  0  0  0  0  0  0  0  0  0  0
    0.1864   -7.1474    2.8667 C   0  0  2  0  0  0  0  0  0  0  0  0
    0.5867   -6.5734    1.5015 C   0  0  0  0  0  0  0  0  0  0  0  0
    1.7573   -6.2109    1.3343 O   0  0  0  0  0  0  0  0  0  0  0  0
   -0.3194   -6.2804    0.6793 O   0  0  0  0  0  0  0  0  0  0  0  0
   -1.2628   -7.7164    2.8919 C   0  0  0  0  0  0  0  0  0  0  0  0
   -1.2119   -8.9971    3.7452 C   0  0  0  0  0  0  0  0  0  0  0  0
    0.1560   -9.6540    3.4494 C   0  0  1  0  0  0  0  0  0  0  0  0
    0.9496   -8.4782    3.0165 C   0  0  1  0  0  0  0  0  0  0  0  0
    2.4413   -8.8364    2.9768 C   0  0  2  0  0  0  0  0  0  0  0  0
    2.9723   -9.5269    1.7432 C   0  0  0  0  0  0  0  0  0  0  0  0
    4.4861   -9.3969    1.5212 C   0  0  1  0  0  0  0  0  0  0  0  0
    4.9156   -8.0835    1.1295 O   0  0  0  0  0  0  0  0  0  0  0  0
    5.7009   -8.6599    2.1897 C   0  0  2  0  0  0  0  0  0  0  0  0
    7.0005   -9.3193    1.7547 C   0  0  0  0  0  0  0  0  0  0  0  0
    5.9401   -7.7066    3.4508 C   0  0  1  0  0  0  0  0  0  0  0  0
    7.4565   -7.3215    3.6107 C   0  0  0  0  0  0  0  0  0  0  0  0
    5.7219   -8.5782    4.7577 C   0  0  0  0  0  0  0  0  0  0  0  0
    4.5251   -8.5262    5.7691 C   0  0  0  0  0  0  0  0  0  0  0  0
    3.0322   -8.3766    5.3576 C   0  0  2  0  0  0  0  0  0  0  0  0
    2.5663   -9.5600    4.3489 C   0  0  2  0  0  0  0  0  0  0  0  0
    3.4924  -10.8122    4.3250 C   0  0  0  0  0  0  0  0  0  0  0  0
    1.1082  -10.2077    4.5749 C   0  0  1  0  0  0  0  0  0  0  0  0
    0.6367  -10.0472    5.8996 O   0  0  0  0  0  0  0  0  0  0  0  0
    2.7532    0.7784    1.7071 H   0  0  0  0  0  0  0  0  0  0  0  0
    1.8872    0.2924    3.1667 H   0  0  0  0  0  0  0  0  0  0  0  0
    1.6229   -0.5755    1.6598 H   0  0  0  0  0  0  0  0  0  0  0  0
    3.0362   -1.8568    3.1959 H   0  0  0  0  0  0  0  0  0  0  0  0
    5.0683    0.4282    3.0403 H   0  0  0  0  0  0  0  0  0  0  0  0
    5.2799   -1.0815    3.9224 H   0  0  0  0  0  0  0  0  0  0  0  0
    4.0518    0.0559    4.4298 H   0  0  0  0  0  0  0  0  0  0  0  0
    3.3777   -2.0845    0.7396 H   0  0  0  0  0  0  0  0  0  0  0  0
    4.5826   -0.8391    0.7740 H   0  0  0  0  0  0  0  0  0  0  0  0
    5.6292   -2.9217    0.6321 H   0  0  0  0  0  0  0  0  0  0  0  0
    6.0791   -2.2920    2.1775 H   0  0  0  0  0  0  0  0  0  0  0  0
    4.3281   -3.7278    3.2820 H   0  0  0  0  0  0  0  0  0  0  0  0
    3.8673   -4.3748    1.7460 H   0  0  0  0  0  0  0  0  0  0  0  0
    6.6165   -4.7117    2.9747 H   0  0  0  0  0  0  0  0  0  0  0  0
    5.3479   -5.7756    0.4198 H   0  0  0  0  0  0  0  0  0  0  0  0
    6.8621   -6.4202    0.9914 H   0  0  0  0  0  0  0  0  0  0  0  0
    6.7756   -4.7671    0.5673 H   0  0  0  0  0  0  0  0  0  0  0  0
    4.2469   -6.4182    2.9379 H   0  0  0  0  0  0  0  0  0  0  0  0
    5.7486   -6.1401    5.5509 H   0  0  0  0  0  0  0  0  0  0  0  0
    5.3489   -4.6573    4.9019 H   0  0  0  0  0  0  0  0  0  0  0  0
    3.7347   -5.7512    6.6530 H   0  0  0  0  0  0  0  0  0  0  0  0
    3.1667   -4.7651    5.3549 H   0  0  0  0  0  0  0  0  0  0  0  0
    2.6517   -6.5488    4.0739 H   0  0  0  0  0  0  0  0  0  0  0  0
    0.5954   -7.1462    5.8945 H   0  0  0  0  0  0  0  0  0  0  0  0
    1.1084   -5.5063    5.9814 H   0  0  0  0  0  0  0  0  0  0  0  0
   -0.5841   -5.6605    4.2827 H   0  0  0  0  0  0  0  0  0  0  0  0
    0.8815   -5.1701    3.5573 H   0  0  0  0  0  0  0  0  0  0  0  0
   -2.0135   -7.0275    3.2705 H   0  0  0  0  0  0  0  0  0  0  0  0
   -1.5971   -8.0282    1.8966 H   0  0  0  0  0  0  0  0  0  0  0  0
   -1.3009   -8.7365    4.8029 H   0  0  0  0  0  0  0  0  0  0  0  0
   -2.0440   -9.6350    3.4600 H   0  0  0  0  0  0  0  0  0  0  0  0
    0.0801  -10.3538    2.6152 H   0  0  0  0  0  0  0  0  0  0  0  0
    0.9449   -8.1649    4.0081 H   0  0  0  0  0  0  0  0  0  0  0  0
    3.0419   -7.9713    2.8915 H   0  0  0  0  0  0  0  0  0  0  0  0
    2.7099  -10.5840    1.7439 H   0  0  0  0  0  0  0  0  0  0  0  0
    2.4808   -9.1059    0.8708 H   0  0  0  0  0  0  0  0  0  0  0  0
    4.7811  -10.1407    0.7962 H   0  0  0  0  0  0  0  0  0  0  0  0
    7.4038   -9.9282    2.5694 H   0  0  0  0  0  0  0  0  0  0  0  0
    7.7272   -8.5757    1.4113 H   0  0  0  0  0  0  0  0  0  0  0  0
    6.8464   -9.9936    0.9143 H   0  0  0  0  0  0  0  0  0  0  0  0
    8.0857   -8.1814    3.8364 H   0  0  0  0  0  0  0  0  0  0  0  0
    7.6074   -6.6248    4.4291 H   0  0  0  0  0  0  0  0  0  0  0  0
    7.9268   -6.8455    2.7617 H   0  0  0  0  0  0  0  0  0  0  0  0
    5.9737   -9.6095    4.5287 H   0  0  0  0  0  0  0  0  0  0  0  0
    6.5397   -8.3593    5.4434 H   0  0  0  0  0  0  0  0  0  0  0  0
    4.5972   -9.4463    6.3521 H   0  0  0  0  0  0  0  0  0  0  0  0
    4.7449   -7.7997    6.5497 H   0  0  0  0  0  0  0  0  0  0  0  0
    2.5425   -8.5910    6.3048 H   0  0  0  0  0  0  0  0  0  0  0  0
    3.7070  -11.1835    5.3279 H   0  0  0  0  0  0  0  0  0  0  0  0
    4.4217  -10.6616    3.7958 H   0  0  0  0  0  0  0  0  0  0  0  0
    3.0455  -11.6488    3.7869 H   0  0  0  0  0  0  0  0  0  0  0  0
    1.0983  -11.2889    4.4325 H   0  0  0  0  0  0  0  0  0  0  0  0
    0.9466  -10.7901    6.4149 H   0  0  0  0  0  0  0  0  0  0  0  0
  1  2  1  0
  1 38  1  0
  1 39  1  0
  1 40  1  0
  2  3  1  0
  2  4  1  0
  2 41  1  0
  3 42  1  0
  3 43  1  0
  3 44  1  0
  4  5  1  0
  4 45  1  0
  4 46  1  0
  5  6  1  0
  5 47  1  0
  5 48  1  0
  6  7  1  0
  6 49  1  0
  6 50  1  0
  7  8  1  0
  7  9  1  0
  7 51  1  1
  8 52  1  0
  8 53  1  0
  8 54  1  0
  9 29  1  0
  9 10  1  0
  9 55  1  6
 10 11  1  0
 10 56  1  0
 10 57  1  0
 11 12  1  0
 11 58  1  0
 11 59  1  0
 12 33  1  0
 12 13  1  0
 12 60  1  6
 13 14  1  0
 13 61  1  0
 13 62  1  0
 14 15  1  0
 14 63  1  0
 14 64  1  0
 15 22  1  0
 15 16  1  6
 15 19  1  0
 16 17  2  0
 16 18  1  0
 19 20  1  0
 19 65  1  0
 19 66  1  0
 20 21  1  0
 20 67  1  0
 20 68  1  0
 21 36  1  0
 21 22  1  0
 21 69  1  6
 22 23  1  0
 22 70  1  6
 23 34  1  0
 23 24  1  0
 23 71  1  1
 24 25  1  0
 24 72  1  0
 24 73  1  0
 25 27  1  0
 25 26  1  0
 25 74  1  6
 26 27  1  0
 27 28  1  6
 27 29  1  0
 28 75  1  0
 28 76  1  0
 28 77  1  0
 29 30  1  6
 29 31  1  0
 30 78  1  0
 30 79  1  0
 30 80  1  0
 31 32  1  0
 31 81  1  0
 31 82  1  0
 32 33  1  0
 32 83  1  0
 32 84  1  0
 33 34  1  0
 33 85  1  1
 34 35  1  6
 34 36  1  0
 35 86  1  0
 35 87  1  0
 35 88  1  0
 36 37  1  0
 36 89  1  6
 37 90  1  0
M  CHG  1  18  -1
M  END
>  <i_m_ct_stereo_status>  (183) 
1

>  <s_m_source_file>  (183) 
/var/tmp/pbs.5076255.sched01/tmpnk13i6y_/41i0yhob8r.sdf

>  <i_m_source_file_index>  (183) 
32

>  <i_lp_mmshare_version>  (183) 
48012

>  <i_f3d_flags>  (183) 
0

>  <s_epik_input>  (183) 
W0NIM11bQ0hdKFtDSDNdKVtDSDJdW0NIMl1bQ0gyXVtDQEhdKFtDSDNdKVtDQEhdKFtDSDJdW0NIMl1bQ0BIXShbQ0gyXVtDSDJdMSlbQ0hdMltDSDJdW0NIMl0zKVtDQF0zKFtDSDNdKVtDQEBdKE80KShbQ0gzXSlbQ0BIXTRbQ0gyXVtDQEBIXTVbQ0BdMihbQ0gzXSlbQ0BASF0oW09IXSlbQ0BASF0oW0NIMl1bQ0gyXTYpW0NAQEhdNVtDQF0xNkMoPU8pW09IXQ==

>  <s_epik_cmdline>  (183) 
J2VwaWtfcHl0aG9uJywgJy1waHQnLCAnMi4wJywgJy1waCcsICc3LjAnLCAnLXRuJywgJzgnLCAnLW1hJywgJzIwMCcsICctaW1hZScsICc8aW5maWxlLm1hZT4nLCAnLW9tYWUnLCAnPG91dGZpbGUubWFlPic=

>  <r_epik_Ionization_Penalty>  (183) 
0.00769579

>  <r_epik_Ionization_Penalty_Charging>  (183) 
0.00769146

>  <r_epik_Ionization_Penalty_Neutral>  (183) 
4.32965e-06

>  <r_epik_State_Penalty>  (183) 
0.00575903

>  <r_epik_Charging_Adjusted_Penalty>  (183) 
0.0134505

>  <i_epik_Tot_Q>  (183) 
-1

>  <i_epik_Tot_abs_Q>  (183) 
1

>  <s_lp_Force_Field>  (183) 
OPLS3e

>  <r_lp_Energy>  (183) 
223.462

>  <b_lp_Chiralities_Consistent>  (183) 
1

>  <s_lp_Variant>  (183) 
61:0-1

>  <s_i_glide_gridfile>  (183) 
pfpi4k_grid

>  <i_i_glide_lignum>  (183) 
32

>  <i_i_glide_rotatable_bonds>  (183) 
7

>  <r_i_docking_score>  (183) 
-2.55571

>  <r_i_glide_ligand_efficiency>  (183) 
-0.0690732

>  <r_i_glide_ligand_efficiency_sa>  (183) 
-0.230167

>  <r_i_glide_ligand_efficiency_ln>  (183) 
-0.554273

>  <r_i_glide_gscore>  (183) 
-2.55571

>  <r_i_glide_lipo>  (183) 
-0.313082

>  <r_i_glide_hbond>  (183) 
-0.399704

>  <r_i_glide_metal>  (183) 
-0

>  <r_i_glide_rewards>  (183) 
0

>  <r_i_glide_evdw>  (183) 
-23.9431

>  <r_i_glide_ecoul>  (183) 
-5.71031

>  <r_i_glide_erotb>  (183) 
0.310777

>  <r_i_glide_esite>  (183) 
-0.1

>  <r_i_glide_emodel>  (183) 
-35.085

>  <r_i_glide_energy>  (183) 
-29.6534

>  <r_i_glide_einternal>  (183) 
1.95002

>  <r_i_glide_intrahb_reward>  (183) 
-0

>  <i_i_glide_confnum>  (183) 
5

>  <i_i_glide_posenum>  (183) 
18

>  <r_i_glide_eff_state_penalty>  (183) 
0

>  <ligand_id>  (183) 
61

>  <original_smiles>  (183) 
CC(C)CCCC(C)C1CCC2CCC3(C(=O)O)CCC4C3C3CC5OC5(C)C1(C)CCC2C3(C)C4O

>  <smiles>  (183) 
[H]OC1([H])C2([H])C([H])([H])C([H])([H])C3(C(=O)[O-])C([H])([H])C([H])([H])C4([H])C([H])([H])C([H])([H])C([H])(C([H])(C([H])([H])[H])C([H])([H])C([H])([H])C([H])([H])C([H])(C([H])([H])[H])C([H])([H])[H])C5(C([H])([H])[H])C([H])([H])C([H])([H])C4([H])C1(C([H])([H])[H])C([H])(C([H])([H])C1([H])OC15C([H])([H])[H])C23[H]

$$$$
63:0:0
     RDKit          3D

 39 41  0  0  1  0  0  0  0  0999 V2000
    7.8711   -8.0068    2.4066 C   0  0  0  0  0  0  0  0  0  0  0  0
    6.5644   -7.6478    1.8537 N   0  0  0  0  0  0  0  0  0  0  0  0
    5.5004   -8.5160    1.7271 C   0  0  0  0  0  0  0  0  0  0  0  0
    4.4707   -7.7715    1.1668 C   0  0  0  0  0  0  0  0  0  0  0  0
    4.9812   -6.5337    0.9817 N   0  0  0  0  0  0  0  0  0  0  0  0
    6.2360   -6.4343    1.3801 C   0  0  0  0  0  0  0  0  0  0  0  0
    7.1056   -5.1901    1.3080 C   0  0  0  0  0  0  0  0  0  0  0  0
    6.9117   -4.3562    0.1146 N   0  0  0  0  0  0  0  0  0  0  0  0
    8.0385   -3.4566   -0.1181 C   0  0  0  0  0  0  0  0  0  0  0  0
    7.8642   -2.6027   -1.3910 C   0  0  0  0  0  0  0  0  0  0  0  0
    6.6043   -1.9096   -1.3469 O   0  0  0  0  0  0  0  0  0  0  0  0
    5.4673   -2.7620   -1.1525 C   0  0  0  0  0  0  0  0  0  0  0  0
    5.2475   -3.6507   -2.4034 C   0  0  0  0  0  0  0  0  0  0  0  0
    4.3969   -2.7778   -3.3291 C   0  0  0  0  0  0  0  0  0  0  0  0
    3.4128   -2.0929   -2.3946 C   0  0  0  0  0  0  0  0  0  0  0  0
    4.1755   -1.9195   -1.0631 C   0  0  0  0  0  0  0  0  0  0  0  0
    5.6779   -3.5630    0.1430 C   0  0  0  0  0  0  0  0  0  0  0  0
    7.7436   -8.9050    2.9971 H   0  0  0  0  0  0  0  0  0  0  0  0
    8.2428   -7.1994    3.0393 H   0  0  0  0  0  0  0  0  0  0  0  0
    8.5482   -8.1967    1.5770 H   0  0  0  0  0  0  0  0  0  0  0  0
    5.5143   -9.5491    2.0109 H   0  0  0  0  0  0  0  0  0  0  0  0
    3.4783   -8.0633    0.9044 H   0  0  0  0  0  0  0  0  0  0  0  0
    6.8870   -4.6305    2.2135 H   0  0  0  0  0  0  0  0  0  0  0  0
    8.1300   -5.5481    1.3552 H   0  0  0  0  0  0  0  0  0  0  0  0
    8.1785   -2.7983    0.7499 H   0  0  0  0  0  0  0  0  0  0  0  0
    8.9521   -4.0316   -0.2429 H   0  0  0  0  0  0  0  0  0  0  0  0
    8.6785   -1.8657   -1.4326 H   0  0  0  0  0  0  0  0  0  0  0  0
    7.9318   -3.2013   -2.2851 H   0  0  0  0  0  0  0  0  0  0  0  0
    6.1583   -3.9517   -2.9139 H   0  0  0  0  0  0  0  0  0  0  0  0
    4.6619   -4.5466   -2.1274 H   0  0  0  0  0  0  0  0  0  0  0  0
    5.0243   -2.0178   -3.7810 H   0  0  0  0  0  0  0  0  0  0  0  0
    3.9223   -3.3574   -4.1122 H   0  0  0  0  0  0  0  0  0  0  0  0
    3.0390   -1.1398   -2.7825 H   0  0  0  0  0  0  0  0  0  0  0  0
    2.5592   -2.7531   -2.2331 H   0  0  0  0  0  0  0  0  0  0  0  0
    3.5076   -2.2542   -0.2690 H   0  0  0  0  0  0  0  0  0  0  0  0
    4.3874   -0.8690   -0.8679 H   0  0  0  0  0  0  0  0  0  0  0  0
    4.7975   -4.1871    0.2637 H   0  0  0  0  0  0  0  0  0  0  0  0
    5.6903   -2.9067    1.0199 H   0  0  0  0  0  0  0  0  0  0  0  0
    4.4603   -5.7478    0.5546 H   0  0  0  0  0  0  0  0  0  0  0  0
  1  2  1  0
  1 18  1  0
  1 19  1  0
  1 20  1  0
  2  6  1  0
  2  3  1  0
  3  4  2  0
  3 21  1  0
  4  5  1  0
  4 22  1  0
  5  6  2  0
  5 39  1  0
  6  7  1  0
  7  8  1  0
  7 23  1  0
  7 24  1  0
  8 17  1  0
  8  9  1  0
  9 10  1  0
  9 25  1  0
  9 26  1  0
 10 11  1  0
 10 27  1  0
 10 28  1  0
 11 12  1  0
 12 16  1  0
 12 13  1  0
 12 17  1  0
 13 14  1  0
 13 29  1  0
 13 30  1  0
 14 15  1  0
 14 31  1  0
 14 32  1  0
 15 16  1  0
 15 33  1  0
 15 34  1  0
 16 35  1  0
 16 36  1  0
 17 37  1  0
 17 38  1  0
M  CHG  1   5   1
M  END
>  <i_m_ct_stereo_status>  (184) 
1

>  <s_m_source_file>  (184) 
/var/tmp/pbs.5076255.sched01/tmpnk13i6y_/41i0yhob8r.sdf

>  <i_m_source_file_index>  (184) 
35

>  <i_lp_mmshare_version>  (184) 
48012

>  <i_f3d_flags>  (184) 
0

>  <s_epik_input>  (184) 
W0NIM11uMVtjSF1bY0hdbmMxW0NIMl1OKFtDSDJdMilbQ0gyXVtDSDJdT0MyM1tDSDJdW0NIMl1bQ0gyXVtDSDJdMw==

>  <s_epik_cmdline>  (184) 
J2VwaWtfcHl0aG9uJywgJy1waHQnLCAnMi4wJywgJy1waCcsICc3LjAnLCAnLXRuJywgJzgnLCAnLW1hJywgJzIwMCcsICctaW1hZScsICc8aW5maWxlLm1hZT4nLCAnLW9tYWUnLCAnPG91dGZpbGUubWFlPic=

>  <r_lp_tautomer_probability>  (184) 
1

>  <r_epik_Ionization_Penalty>  (184) 
0.0174021

>  <r_epik_Ionization_Penalty_Charging>  (184) 
0

>  <r_epik_Ionization_Penalty_Neutral>  (184) 
0.0174021

>  <r_epik_State_Penalty>  (184) 
0.0135032

>  <r_epik_Charging_Adjusted_Penalty>  (184) 
0.0135032

>  <i_epik_Tot_Q>  (184) 
1

>  <i_epik_Tot_abs_Q>  (184) 
1

>  <s_lp_Force_Field>  (184) 
OPLS3e

>  <r_lp_Energy>  (184) 
25.5764

>  <b_lp_Chiralities_Consistent>  (184) 
1

>  <s_lp_Variant>  (184) 
63:0-1

>  <s_i_glide_gridfile>  (184) 
pfpi4k_grid

>  <i_i_glide_lignum>  (184) 
35

>  <i_i_glide_rotatable_bonds>  (184) 
2

>  <r_i_docking_score>  (184) 
-3.90133

>  <r_i_glide_ligand_efficiency>  (184) 
-0.22949

>  <r_i_glide_ligand_efficiency_sa>  (184) 
-0.590083

>  <r_i_glide_ligand_efficiency_ln>  (184) 
-1.01777

>  <r_i_glide_gscore>  (184) 
-3.90133

>  <r_i_glide_lipo>  (184) 
-0.72305

>  <r_i_glide_hbond>  (184) 
-0.16

>  <r_i_glide_metal>  (184) 
-0

>  <r_i_glide_rewards>  (184) 
-2.04238

>  <r_i_glide_evdw>  (184) 
-18.7808

>  <r_i_glide_ecoul>  (184) 
-4.35545

>  <r_i_glide_erotb>  (184) 
0.616455

>  <r_i_glide_esite>  (184) 
0

>  <r_i_glide_emodel>  (184) 
-29.5853

>  <r_i_glide_energy>  (184) 
-23.1362

>  <r_i_glide_einternal>  (184) 
1.55415

>  <r_i_glide_intrahb_reward>  (184) 
-0

>  <i_i_glide_confnum>  (184) 
2

>  <i_i_glide_posenum>  (184) 
3

>  <r_i_glide_eff_state_penalty>  (184) 
0

>  <ligand_id>  (184) 
63

>  <original_smiles>  (184) 
Cn1ccnc1CN1CCOC2(CCCC2)C1

>  <smiles>  (184) 
[H]c1c([H])[n+]([H])c(C([H])([H])N2C([H])([H])C([H])([H])OC3(C2([H])[H])C([H])([H])C([H])([H])C([H])([H])C3([H])[H])n1C([H])([H])[H]

$$$$
63:0:1
     RDKit          3D

 39 41  0  0  1  0  0  0  0  0999 V2000
    1.6959   -2.0493    2.4818 C   0  0  0  0  0  0  0  0  0  0  0  0
    1.9232   -0.6078    2.4384 N   0  0  0  0  0  0  0  0  0  0  0  0
    0.9531    0.3673    2.4903 C   0  0  0  0  0  0  0  0  0  0  0  0
    1.5971    1.5801    2.3952 C   0  0  0  0  0  0  0  0  0  0  0  0
    2.9301    1.2918    2.2945 N   0  0  0  0  0  0  0  0  0  0  0  0
    3.1347   -0.0272    2.3066 C   0  0  0  0  0  0  0  0  0  0  0  0
    4.4864   -0.6846    2.1597 C   0  0  0  0  0  0  0  0  0  0  0  0
    4.6605   -1.5034    0.9562 N   0  0  0  0  0  0  0  0  0  0  0  0
    6.0421   -1.9648    0.8037 C   0  0  0  0  0  0  0  0  0  0  0  0
    6.2617   -2.8029   -0.4783 C   0  0  0  0  0  0  0  0  0  0  0  0
    5.7814   -2.0703   -1.6103 O   0  0  0  0  0  0  0  0  0  0  0  0
    4.4087   -1.6724   -1.5069 C   0  0  0  0  0  0  0  0  0  0  0  0
    3.4799   -2.9022   -1.5124 C   0  0  0  0  0  0  0  0  0  0  0  0
    3.2031   -3.2123   -2.9916 C   0  0  0  0  0  0  0  0  0  0  0  0
    3.6861   -2.0082   -3.8042 C   0  0  0  0  0  0  0  0  0  0  0  0
    3.9924   -0.9151   -2.7676 C   0  0  0  0  0  0  0  0  0  0  0  0
    4.2536   -0.7974   -0.2580 C   0  0  0  0  0  0  0  0  0  0  0  0
    0.7176   -2.2209    2.9207 H   0  0  0  0  0  0  0  0  0  0  0  0
    2.4638   -2.5255    3.0872 H   0  0  0  0  0  0  0  0  0  0  0  0
    1.7242   -2.4248    1.4624 H   0  0  0  0  0  0  0  0  0  0  0  0
   -0.1016    0.1539    2.5634 H   0  0  0  0  0  0  0  0  0  0  0  0
    1.1975    2.5787    2.3747 H   0  0  0  0  0  0  0  0  0  0  0  0
    5.2074    0.1310    2.1817 H   0  0  0  0  0  0  0  0  0  0  0  0
    4.6287   -1.2978    3.0467 H   0  0  0  0  0  0  0  0  0  0  0  0
    6.7167   -1.1039    0.7768 H   0  0  0  0  0  0  0  0  0  0  0  0
    6.3246   -2.5633    1.6669 H   0  0  0  0  0  0  0  0  0  0  0  0
    7.3340   -3.0029   -0.6274 H   0  0  0  0  0  0  0  0  0  0  0  0
    5.7257   -3.7488   -0.4192 H   0  0  0  0  0  0  0  0  0  0  0  0
    3.9088   -3.7653   -0.9942 H   0  0  0  0  0  0  0  0  0  0  0  0
    2.5237   -2.6303   -1.0384 H   0  0  0  0  0  0  0  0  0  0  0  0
    3.7789   -4.0732   -3.2945 H   0  0  0  0  0  0  0  0  0  0  0  0
    2.1442   -3.4099   -3.1534 H   0  0  0  0  0  0  0  0  0  0  0  0
    4.6126   -2.2581   -4.3260 H   0  0  0  0  0  0  0  0  0  0  0  0
    2.9551   -1.6740   -4.5545 H   0  0  0  0  0  0  0  0  0  0  0  0
    3.0647   -0.3554   -2.6171 H   0  0  0  0  0  0  0  0  0  0  0  0
    4.7497   -0.2109   -3.1169 H   0  0  0  0  0  0  0  0  0  0  0  0
    3.2020   -0.5126   -0.1892 H   0  0  0  0  0  0  0  0  0  0  0  0
    4.8243    0.1351   -0.3444 H   0  0  0  0  0  0  0  0  0  0  0  0
    3.6759    1.9904    2.1761 H   0  0  0  0  0  0  0  0  0  0  0  0
  1  2  1  0
  1 18  1  0
  1 19  1  0
  1 20  1  0
  2  6  1  0
  2  3  1  0
  3  4  2  0
  3 21  1  0
  4  5  1  0
  4 22  1  0
  5  6  2  0
  5 39  1  0
  6  7  1  0
  7  8  1  0
  7 23  1  0
  7 24  1  0
  8 17  1  0
  8  9  1  0
  9 10  1  0
  9 25  1  0
  9 26  1  0
 10 11  1  0
 10 27  1  0
 10 28  1  0
 11 12  1  0
 12 16  1  0
 12 13  1  0
 12 17  1  0
 13 14  1  0
 13 29  1  0
 13 30  1  0
 14 15  1  0
 14 31  1  0
 14 32  1  0
 15 16  1  0
 15 33  1  0
 15 34  1  0
 16 35  1  0
 16 36  1  0
 17 37  1  0
 17 38  1  0
M  CHG  1   5   1
M  END
>  <i_m_ct_stereo_status>  (185) 
1

>  <s_m_source_file>  (185) 
/var/tmp/pbs.5076255.sched01/tmpnk13i6y_/41i0yhob8r.sdf

>  <i_m_source_file_index>  (185) 
35

>  <i_lp_mmshare_version>  (185) 
48012

>  <i_f3d_flags>  (185) 
0

>  <s_epik_input>  (185) 
W0NIM11uMVtjSF1bY0hdbmMxW0NIMl1OKFtDSDJdMilbQ0gyXVtDSDJdT0MyM1tDSDJdW0NIMl1bQ0gyXVtDSDJdMw==

>  <s_epik_cmdline>  (185) 
J2VwaWtfcHl0aG9uJywgJy1waHQnLCAnMi4wJywgJy1waCcsICc3LjAnLCAnLXRuJywgJzgnLCAnLW1hJywgJzIwMCcsICctaW1hZScsICc8aW5maWxlLm1hZT4nLCAnLW9tYWUnLCAnPG91dGZpbGUubWFlPic=

>  <r_lp_tautomer_probability>  (185) 
1

>  <r_epik_Ionization_Penalty>  (185) 
0.0174021

>  <r_epik_Ionization_Penalty_Charging>  (185) 
0

>  <r_epik_Ionization_Penalty_Neutral>  (185) 
0.0174021

>  <r_epik_State_Penalty>  (185) 
0.0135032

>  <r_epik_Charging_Adjusted_Penalty>  (185) 
0.0135032

>  <i_epik_Tot_Q>  (185) 
1

>  <i_epik_Tot_abs_Q>  (185) 
1

>  <s_lp_Force_Field>  (185) 
OPLS3e

>  <r_lp_Energy>  (185) 
25.5764

>  <b_lp_Chiralities_Consistent>  (185) 
1

>  <s_lp_Variant>  (185) 
63:0-1

>  <s_i_glide_gridfile>  (185) 
pfpi4k_grid

>  <i_i_glide_lignum>  (185) 
35

>  <i_i_glide_rotatable_bonds>  (185) 
2

>  <r_i_docking_score>  (185) 
-3.74147

>  <r_i_glide_ligand_efficiency>  (185) 
-0.220086

>  <r_i_glide_ligand_efficiency_sa>  (185) 
-0.565904

>  <r_i_glide_ligand_efficiency_ln>  (185) 
-0.976066

>  <r_i_glide_gscore>  (185) 
-3.74147

>  <r_i_glide_lipo>  (185) 
-0.359515

>  <r_i_glide_hbond>  (185) 
0

>  <r_i_glide_metal>  (185) 
-0

>  <r_i_glide_rewards>  (185) 
-1.81923

>  <r_i_glide_evdw>  (185) 
-20.46

>  <r_i_glide_ecoul>  (185) 
-7.52339

>  <r_i_glide_erotb>  (185) 
0.616455

>  <r_i_glide_esite>  (185) 
-0.0276699

>  <r_i_glide_emodel>  (185) 
-33.8793

>  <r_i_glide_energy>  (185) 
-27.9834

>  <r_i_glide_einternal>  (185) 
1.69918

>  <r_i_glide_intrahb_reward>  (185) 
-0

>  <i_i_glide_confnum>  (185) 
3

>  <i_i_glide_posenum>  (185) 
25

>  <r_i_glide_eff_state_penalty>  (185) 
0

>  <ligand_id>  (185) 
63

>  <original_smiles>  (185) 
Cn1ccnc1CN1CCOC2(CCCC2)C1

>  <smiles>  (185) 
[H]c1c([H])[n+]([H])c(C([H])([H])N2C([H])([H])C([H])([H])OC3(C2([H])[H])C([H])([H])C([H])([H])C([H])([H])C3([H])[H])n1C([H])([H])[H]

$$$$
63:0:2
     RDKit          3D

 39 41  0  0  1  0  0  0  0  0999 V2000
    1.4787   -1.6931    2.6265 C   0  0  0  0  0  0  0  0  0  0  0  0
    1.6664   -0.2439    2.6234 N   0  0  0  0  0  0  0  0  0  0  0  0
    0.6689    0.6977    2.4998 C   0  0  0  0  0  0  0  0  0  0  0  0
    1.2850    1.9305    2.5338 C   0  0  0  0  0  0  0  0  0  0  0  0
    2.6175    1.6858    2.6751 N   0  0  0  0  0  0  0  0  0  0  0  0
    2.8622    0.3700    2.7240 C   0  0  0  0  0  0  0  0  0  0  0  0
    4.2271   -0.2611    2.8437 C   0  0  0  0  0  0  0  0  0  0  0  0
    4.5848   -1.1939    1.7796 N   0  0  0  0  0  0  0  0  0  0  0  0
    5.9381   -1.7203    1.9438 C   0  0  0  0  0  0  0  0  0  0  0  0
    6.3468   -2.7021    0.8252 C   0  0  0  0  0  0  0  0  0  0  0  0
    6.1294   -2.0826   -0.4488 O   0  0  0  0  0  0  0  0  0  0  0  0
    4.7920   -1.6063   -0.6493 C   0  0  0  0  0  0  0  0  0  0  0  0
    3.7982   -2.7856   -0.7189 C   0  0  0  0  0  0  0  0  0  0  0  0
    3.7965   -3.2464   -2.1851 C   0  0  0  0  0  0  0  0  0  0  0  0
    4.5120   -2.1609   -3.0031 C   0  0  0  0  0  0  0  0  0  0  0  0
    4.6817   -0.9760   -2.0383 C   0  0  0  0  0  0  0  0  0  0  0  0
    4.4620   -0.5944    0.4516 C   0  0  0  0  0  0  0  0  0  0  0  0
    0.4460   -1.8989    2.8902 H   0  0  0  0  0  0  0  0  0  0  0  0
    2.1427   -2.1505    3.3605 H   0  0  0  0  0  0  0  0  0  0  0  0
    1.6890   -2.0707    1.6261 H   0  0  0  0  0  0  0  0  0  0  0  0
   -0.3690    0.4521    2.3749 H   0  0  0  0  0  0  0  0  0  0  0  0
    0.8663    2.9155    2.4486 H   0  0  0  0  0  0  0  0  0  0  0  0
    4.9460    0.5498    2.8739 H   0  0  0  0  0  0  0  0  0  0  0  0
    4.2531   -0.7513    3.8133 H   0  0  0  0  0  0  0  0  0  0  0  0
    6.6585   -0.8938    1.9708 H   0  0  0  0  0  0  0  0  0  0  0  0
    6.0081   -2.2354    2.9000 H   0  0  0  0  0  0  0  0  0  0  0  0
    7.4119   -2.9612    0.9099 H   0  0  0  0  0  0  0  0  0  0  0  0
    5.7606   -3.6127    0.8874 H   0  0  0  0  0  0  0  0  0  0  0  0
    4.0502   -3.6090   -0.0504 H   0  0  0  0  0  0  0  0  0  0  0  0
    2.7899   -2.4155   -0.4809 H   0  0  0  0  0  0  0  0  0  0  0  0
    4.3453   -4.1727   -2.2752 H   0  0  0  0  0  0  0  0  0  0  0  0
    2.7743   -3.4064   -2.5327 H   0  0  0  0  0  0  0  0  0  0  0  0
    5.5000   -2.5149   -3.3070 H   0  0  0  0  0  0  0  0  0  0  0  0
    3.9574   -1.8815   -3.9083 H   0  0  0  0  0  0  0  0  0  0  0  0
    3.7885   -0.3540   -2.1228 H   0  0  0  0  0  0  0  0  0  0  0  0
    5.5388   -0.3475   -2.2815 H   0  0  0  0  0  0  0  0  0  0  0  0
    3.4449   -0.2408    0.2888 H   0  0  0  0  0  0  0  0  0  0  0  0
    5.1080    0.2897    0.3954 H   0  0  0  0  0  0  0  0  0  0  0  0
    3.3458    2.4057    2.6920 H   0  0  0  0  0  0  0  0  0  0  0  0
  1  2  1  0
  1 18  1  0
  1 19  1  0
  1 20  1  0
  2  6  1  0
  2  3  1  0
  3  4  2  0
  3 21  1  0
  4  5  1  0
  4 22  1  0
  5  6  2  0
  5 39  1  0
  6  7  1  0
  7  8  1  0
  7 23  1  0
  7 24  1  0
  8 17  1  0
  8  9  1  0
  9 10  1  0
  9 25  1  0
  9 26  1  0
 10 11  1  0
 10 27  1  0
 10 28  1  0
 11 12  1  0
 12 16  1  0
 12 13  1  0
 12 17  1  0
 13 14  1  0
 13 29  1  0
 13 30  1  0
 14 15  1  0
 14 31  1  0
 14 32  1  0
 15 16  1  0
 15 33  1  0
 15 34  1  0
 16 35  1  0
 16 36  1  0
 17 37  1  0
 17 38  1  0
M  CHG  1   5   1
M  END
>  <i_m_ct_stereo_status>  (186) 
1

>  <s_m_source_file>  (186) 
/var/tmp/pbs.5076255.sched01/tmpnk13i6y_/41i0yhob8r.sdf

>  <i_m_source_file_index>  (186) 
35

>  <i_lp_mmshare_version>  (186) 
48012

>  <i_f3d_flags>  (186) 
0

>  <s_epik_input>  (186) 
W0NIM11uMVtjSF1bY0hdbmMxW0NIMl1OKFtDSDJdMilbQ0gyXVtDSDJdT0MyM1tDSDJdW0NIMl1bQ0gyXVtDSDJdMw==

>  <s_epik_cmdline>  (186) 
J2VwaWtfcHl0aG9uJywgJy1waHQnLCAnMi4wJywgJy1waCcsICc3LjAnLCAnLXRuJywgJzgnLCAnLW1hJywgJzIwMCcsICctaW1hZScsICc8aW5maWxlLm1hZT4nLCAnLW9tYWUnLCAnPG91dGZpbGUubWFlPic=

>  <r_lp_tautomer_probability>  (186) 
1

>  <r_epik_Ionization_Penalty>  (186) 
0.0174021

>  <r_epik_Ionization_Penalty_Charging>  (186) 
0

>  <r_epik_Ionization_Penalty_Neutral>  (186) 
0.0174021

>  <r_epik_State_Penalty>  (186) 
0.0135032

>  <r_epik_Charging_Adjusted_Penalty>  (186) 
0.0135032

>  <i_epik_Tot_Q>  (186) 
1

>  <i_epik_Tot_abs_Q>  (186) 
1

>  <s_lp_Force_Field>  (186) 
OPLS3e

>  <r_lp_Energy>  (186) 
25.5764

>  <b_lp_Chiralities_Consistent>  (186) 
1

>  <s_lp_Variant>  (186) 
63:0-1

>  <s_i_glide_gridfile>  (186) 
pfpi4k_grid

>  <i_i_glide_lignum>  (186) 
35

>  <i_i_glide_rotatable_bonds>  (186) 
2

>  <r_i_docking_score>  (186) 
-3.65352

>  <r_i_glide_ligand_efficiency>  (186) 
-0.214913

>  <r_i_glide_ligand_efficiency_sa>  (186) 
-0.552601

>  <r_i_glide_ligand_efficiency_ln>  (186) 
-0.953121

>  <r_i_glide_gscore>  (186) 
-3.65352

>  <r_i_glide_lipo>  (186) 
-0.462779

>  <r_i_glide_hbond>  (186) 
0

>  <r_i_glide_metal>  (186) 
-0

>  <r_i_glide_rewards>  (186) 
-1.82422

>  <r_i_glide_evdw>  (186) 
-18.6877

>  <r_i_glide_ecoul>  (186) 
-6.7879

>  <r_i_glide_erotb>  (186) 
0.616455

>  <r_i_glide_esite>  (186) 
-0.0304065

>  <r_i_glide_emodel>  (186) 
-31.9623

>  <r_i_glide_energy>  (186) 
-25.4756

>  <r_i_glide_einternal>  (186) 
0.712137

>  <r_i_glide_intrahb_reward>  (186) 
-0

>  <i_i_glide_confnum>  (186) 
3

>  <i_i_glide_posenum>  (186) 
23

>  <r_i_glide_eff_state_penalty>  (186) 
0

>  <ligand_id>  (186) 
63

>  <original_smiles>  (186) 
Cn1ccnc1CN1CCOC2(CCCC2)C1

>  <smiles>  (186) 
[H]c1c([H])[n+]([H])c(C([H])([H])N2C([H])([H])C([H])([H])OC3(C2([H])[H])C([H])([H])C([H])([H])C([H])([H])C3([H])[H])n1C([H])([H])[H]

$$$$
63:1:0
     RDKit          3D

 38 40  0  0  1  0  0  0  0  0999 V2000
    4.5791   -7.7065    0.4834 C   0  0  0  0  0  0  0  0  0  0  0  0
    3.8664   -6.6727    1.2081 N   0  0  0  0  0  0  0  0  0  0  0  0
    2.5468   -6.7438    1.6325 C   0  0  0  0  0  0  0  0  0  0  0  0
    2.2659   -5.5566    2.2706 C   0  0  0  0  0  0  0  0  0  0  0  0
    3.4039   -4.7574    2.2577 N   0  0  0  0  0  0  0  0  0  0  0  0
    4.3187   -5.4575    1.5973 C   0  0  0  0  0  0  0  0  0  0  0  0
    5.7010   -4.9519    1.2988 C   0  0  0  0  0  0  0  0  0  0  0  0
    5.8107   -4.2221    0.0342 N   0  0  0  0  0  0  0  0  0  0  0  0
    7.1845   -3.8054   -0.2427 C   0  0  0  0  0  0  0  0  0  0  0  0
    7.3227   -3.0049   -1.5580 C   0  0  0  0  0  0  0  0  0  0  0  0
    6.3794   -1.9246   -1.5938 O   0  0  0  0  0  0  0  0  0  0  0  0
    5.0188   -2.3133   -1.3431 C   0  0  0  0  0  0  0  0  0  0  0  0
    4.4210   -3.1344   -2.5111 C   0  0  0  0  0  0  0  0  0  0  0  0
    3.8319   -2.1225   -3.4951 C   0  0  0  0  0  0  0  0  0  0  0  0
    3.8250   -0.7623   -2.7891 C   0  0  0  0  0  0  0  0  0  0  0  0
    4.1360   -1.0574   -1.3223 C   0  0  0  0  0  0  0  0  0  0  0  0
    4.9471   -3.0506    0.0024 C   0  0  0  0  0  0  0  0  0  0  0  0
    4.0585   -8.6595    0.6009 H   0  0  0  0  0  0  0  0  0  0  0  0
    5.5893   -7.8271    0.8744 H   0  0  0  0  0  0  0  0  0  0  0  0
    4.6157   -7.4520   -0.5764 H   0  0  0  0  0  0  0  0  0  0  0  0
    1.9287   -7.6130    1.4508 H   0  0  0  0  0  0  0  0  0  0  0  0
    1.3504   -5.2205    2.7254 H   0  0  0  0  0  0  0  0  0  0  0  0
    5.9883   -4.2989    2.1232 H   0  0  0  0  0  0  0  0  0  0  0  0
    6.4058   -5.7813    1.3076 H   0  0  0  0  0  0  0  0  0  0  0  0
    7.5548   -3.1943    0.5799 H   0  0  0  0  0  0  0  0  0  0  0  0
    7.8334   -4.6778   -0.3028 H   0  0  0  0  0  0  0  0  0  0  0  0
    8.3341   -2.5990   -1.6665 H   0  0  0  0  0  0  0  0  0  0  0  0
    7.1749   -3.6581   -2.4170 H   0  0  0  0  0  0  0  0  0  0  0  0
    5.1188   -3.8092   -3.0100 H   0  0  0  0  0  0  0  0  0  0  0  0
    3.6121   -3.7657   -2.1299 H   0  0  0  0  0  0  0  0  0  0  0  0
    4.4390   -2.0698   -4.3945 H   0  0  0  0  0  0  0  0  0  0  0  0
    2.8275   -2.4365   -3.7784 H   0  0  0  0  0  0  0  0  0  0  0  0
    4.6052   -0.1205   -3.1997 H   0  0  0  0  0  0  0  0  0  0  0  0
    2.8702   -0.2490   -2.9077 H   0  0  0  0  0  0  0  0  0  0  0  0
    3.1912   -1.2649   -0.8096 H   0  0  0  0  0  0  0  0  0  0  0  0
    4.6033   -0.2212   -0.8004 H   0  0  0  0  0  0  0  0  0  0  0  0
    3.9095   -3.3397    0.1598 H   0  0  0  0  0  0  0  0  0  0  0  0
    5.1992   -2.3829    0.8291 H   0  0  0  0  0  0  0  0  0  0  0  0
  1  2  1  0
  1 18  1  0
  1 19  1  0
  1 20  1  0
  2  6  1  0
  2  3  1  0
  3  4  2  0
  3 21  1  0
  4  5  1  0
  4 22  1  0
  5  6  2  0
  6  7  1  0
  7  8  1  0
  7 23  1  0
  7 24  1  0
  8 17  1  0
  8  9  1  0
  9 10  1  0
  9 25  1  0
  9 26  1  0
 10 11  1  0
 10 27  1  0
 10 28  1  0
 11 12  1  0
 12 16  1  0
 12 13  1  0
 12 17  1  0
 13 14  1  0
 13 29  1  0
 13 30  1  0
 14 15  1  0
 14 31  1  0
 14 32  1  0
 15 16  1  0
 15 33  1  0
 15 34  1  0
 16 35  1  0
 16 36  1  0
 17 37  1  0
 17 38  1  0
M  END
>  <i_m_ct_stereo_status>  (187) 
1

>  <s_m_source_file>  (187) 
/var/tmp/pbs.5076255.sched01/tmpnk13i6y_/41i0yhob8r.sdf

>  <i_m_source_file_index>  (187) 
36

>  <i_lp_mmshare_version>  (187) 
48012

>  <i_f3d_flags>  (187) 
0

>  <s_epik_input>  (187) 
W0NIM11uMVtjSF1bY0hdbmMxW0NIMl1OKFtDSDJdMilbQ0gyXVtDSDJdT0MyM1tDSDJdW0NIMl1bQ0gyXVtDSDJdMw==

>  <s_epik_cmdline>  (187) 
J2VwaWtfcHl0aG9uJywgJy1waHQnLCAnMi4wJywgJy1waCcsICc3LjAnLCAnLXRuJywgJzgnLCAnLW1hJywgJzIwMCcsICctaW1hZScsICc8aW5maWxlLm1hZT4nLCAnLW9tYWUnLCAnPG91dGZpbGUubWFlPic=

>  <r_lp_tautomer_probability>  (187) 
1

>  <r_epik_Ionization_Penalty>  (187) 
2.1127

>  <r_epik_Ionization_Penalty_Charging>  (187) 
2.11031

>  <r_epik_Ionization_Penalty_Neutral>  (187) 
0.00238673

>  <r_epik_State_Penalty>  (187) 
2.24717

>  <r_epik_Charging_Adjusted_Penalty>  (187) 
4.35747

>  <i_epik_Tot_Q>  (187) 
0

>  <i_epik_Tot_abs_Q>  (187) 
0

>  <s_lp_Force_Field>  (187) 
OPLS3e

>  <r_lp_Energy>  (187) 
20.1268

>  <b_lp_Chiralities_Consistent>  (187) 
1

>  <s_lp_Variant>  (187) 
63:0-2

>  <s_i_glide_gridfile>  (187) 
pfpi4k_grid

>  <i_i_glide_lignum>  (187) 
36

>  <i_i_glide_rotatable_bonds>  (187) 
2

>  <r_i_docking_score>  (187) 
-3.2411

>  <r_i_glide_ligand_efficiency>  (187) 
-0.190653

>  <r_i_glide_ligand_efficiency_sa>  (187) 
-0.490223

>  <r_i_glide_ligand_efficiency_ln>  (187) 
-0.845532

>  <r_i_glide_gscore>  (187) 
-3.2411

>  <r_i_glide_lipo>  (187) 
-0.501487

>  <r_i_glide_hbond>  (187) 
-0.156011

>  <r_i_glide_metal>  (187) 
-0

>  <r_i_glide_rewards>  (187) 
-1.94605

>  <r_i_glide_evdw>  (187) 
-20.3109

>  <r_i_glide_ecoul>  (187) 
-1.61977

>  <r_i_glide_erotb>  (187) 
0.620956

>  <r_i_glide_esite>  (187) 
0

>  <r_i_glide_emodel>  (187) 
-26.5118

>  <r_i_glide_energy>  (187) 
-21.9306

>  <r_i_glide_einternal>  (187) 
0.202782

>  <r_i_glide_intrahb_reward>  (187) 
-0

>  <i_i_glide_confnum>  (187) 
3

>  <i_i_glide_posenum>  (187) 
1

>  <r_i_glide_eff_state_penalty>  (187) 
0

>  <ligand_id>  (187) 
63

>  <original_smiles>  (187) 
Cn1ccnc1CN1CCOC2(CCCC2)C1

>  <smiles>  (187) 
[H]c1nc(C([H])([H])N2C([H])([H])C([H])([H])OC3(C2([H])[H])C([H])([H])C([H])([H])C([H])([H])C3([H])[H])n(C([H])([H])[H])c1[H]

$$$$
63:1:1
     RDKit          3D

 38 40  0  0  1  0  0  0  0  0999 V2000
    2.4954    1.0884    1.7789 C   0  0  0  0  0  0  0  0  0  0  0  0
    2.2779   -0.2137    2.3964 N   0  0  0  0  0  0  0  0  0  0  0  0
    1.0521   -0.6669    2.8739 C   0  0  0  0  0  0  0  0  0  0  0  0
    1.2610   -1.9188    3.3729 C   0  0  0  0  0  0  0  0  0  0  0  0
    2.5999   -2.2626    3.2226 N   0  0  0  0  0  0  0  0  0  0  0  0
    3.1534   -1.2059    2.6304 C   0  0  0  0  0  0  0  0  0  0  0  0
    4.6094   -1.1408    2.2463 C   0  0  0  0  0  0  0  0  0  0  0  0
    4.9164   -1.7918    0.9720 N   0  0  0  0  0  0  0  0  0  0  0  0
    6.3555   -1.8658    0.7280 C   0  0  0  0  0  0  0  0  0  0  0  0
    6.7062   -2.4992   -0.6401 C   0  0  0  0  0  0  0  0  0  0  0  0
    5.9658   -1.8831   -1.7052 O   0  0  0  0  0  0  0  0  0  0  0  0
    4.5463   -1.8107   -1.4886 C   0  0  0  0  0  0  0  0  0  0  0  0
    3.8692   -3.1959   -1.6037 C   0  0  0  0  0  0  0  0  0  0  0  0
    3.5308   -3.3851   -3.0819 C   0  0  0  0  0  0  0  0  0  0  0  0
    3.7158   -2.0255   -3.7626 C   0  0  0  0  0  0  0  0  0  0  0  0
    3.8945   -1.0139   -2.6331 C   0  0  0  0  0  0  0  0  0  0  0  0
    4.2777   -1.1255   -0.1441 C   0  0  0  0  0  0  0  0  0  0  0  0
    1.5412    1.5053    1.4533 H   0  0  0  0  0  0  0  0  0  0  0  0
    3.1237    0.9992    0.9008 H   0  0  0  0  0  0  0  0  0  0  0  0
    2.9756    1.7658    2.4862 H   0  0  0  0  0  0  0  0  0  0  0  0
    0.1520   -0.0649    2.7970 H   0  0  0  0  0  0  0  0  0  0  0  0
    0.5484   -2.6107    3.8279 H   0  0  0  0  0  0  0  0  0  0  0  0
    4.9349   -0.1034    2.2390 H   0  0  0  0  0  0  0  0  0  0  0  0
    5.1582   -1.6354    3.0422 H   0  0  0  0  0  0  0  0  0  0  0  0
    6.7837   -0.8674    0.7781 H   0  0  0  0  0  0  0  0  0  0  0  0
    6.8275   -2.4610    1.5075 H   0  0  0  0  0  0  0  0  0  0  0  0
    7.7758   -2.4006   -0.8568 H   0  0  0  0  0  0  0  0  0  0  0  0
    6.5202   -3.5733   -0.6085 H   0  0  0  0  0  0  0  0  0  0  0  0
    4.4523   -4.0391   -1.2315 H   0  0  0  0  0  0  0  0  0  0  0  0
    2.9427   -3.1934   -1.0238 H   0  0  0  0  0  0  0  0  0  0  0  0
    4.1910   -4.1272   -3.5283 H   0  0  0  0  0  0  0  0  0  0  0  0
    2.5061   -3.7442   -3.1644 H   0  0  0  0  0  0  0  0  0  0  0  0
    4.6117   -2.0362   -4.3706 H   0  0  0  0  0  0  0  0  0  0  0  0
    2.8701   -1.7720   -4.4018 H   0  0  0  0  0  0  0  0  0  0  0  0
    2.9003   -0.6701   -2.3345 H   0  0  0  0  0  0  0  0  0  0  0  0
    4.4590   -0.1247   -2.9301 H   0  0  0  0  0  0  0  0  0  0  0  0
    3.1990   -1.0996    0.0047 H   0  0  0  0  0  0  0  0  0  0  0  0
    4.6249   -0.0948   -0.1927 H   0  0  0  0  0  0  0  0  0  0  0  0
  1  2  1  0
  1 18  1  0
  1 19  1  0
  1 20  1  0
  2  6  1  0
  2  3  1  0
  3  4  2  0
  3 21  1  0
  4  5  1  0
  4 22  1  0
  5  6  2  0
  6  7  1  0
  7  8  1  0
  7 23  1  0
  7 24  1  0
  8 17  1  0
  8  9  1  0
  9 10  1  0
  9 25  1  0
  9 26  1  0
 10 11  1  0
 10 27  1  0
 10 28  1  0
 11 12  1  0
 12 16  1  0
 12 13  1  0
 12 17  1  0
 13 14  1  0
 13 29  1  0
 13 30  1  0
 14 15  1  0
 14 31  1  0
 14 32  1  0
 15 16  1  0
 15 33  1  0
 15 34  1  0
 16 35  1  0
 16 36  1  0
 17 37  1  0
 17 38  1  0
M  END
>  <i_m_ct_stereo_status>  (188) 
1

>  <s_m_source_file>  (188) 
/var/tmp/pbs.5076255.sched01/tmpnk13i6y_/41i0yhob8r.sdf

>  <i_m_source_file_index>  (188) 
36

>  <i_lp_mmshare_version>  (188) 
48012

>  <i_f3d_flags>  (188) 
0

>  <s_epik_input>  (188) 
W0NIM11uMVtjSF1bY0hdbmMxW0NIMl1OKFtDSDJdMilbQ0gyXVtDSDJdT0MyM1tDSDJdW0NIMl1bQ0gyXVtDSDJdMw==

>  <s_epik_cmdline>  (188) 
J2VwaWtfcHl0aG9uJywgJy1waHQnLCAnMi4wJywgJy1waCcsICc3LjAnLCAnLXRuJywgJzgnLCAnLW1hJywgJzIwMCcsICctaW1hZScsICc8aW5maWxlLm1hZT4nLCAnLW9tYWUnLCAnPG91dGZpbGUubWFlPic=

>  <r_lp_tautomer_probability>  (188) 
1

>  <r_epik_Ionization_Penalty>  (188) 
2.1127

>  <r_epik_Ionization_Penalty_Charging>  (188) 
2.11031

>  <r_epik_Ionization_Penalty_Neutral>  (188) 
0.00238673

>  <r_epik_State_Penalty>  (188) 
2.24717

>  <r_epik_Charging_Adjusted_Penalty>  (188) 
4.35747

>  <i_epik_Tot_Q>  (188) 
0

>  <i_epik_Tot_abs_Q>  (188) 
0

>  <s_lp_Force_Field>  (188) 
OPLS3e

>  <r_lp_Energy>  (188) 
20.1268

>  <b_lp_Chiralities_Consistent>  (188) 
1

>  <s_lp_Variant>  (188) 
63:0-2

>  <s_i_glide_gridfile>  (188) 
pfpi4k_grid

>  <i_i_glide_lignum>  (188) 
36

>  <i_i_glide_rotatable_bonds>  (188) 
2

>  <r_i_docking_score>  (188) 
-2.92785

>  <r_i_glide_ligand_efficiency>  (188) 
-0.172227

>  <r_i_glide_ligand_efficiency_sa>  (188) 
-0.442843

>  <r_i_glide_ligand_efficiency_ln>  (188) 
-0.763811

>  <r_i_glide_gscore>  (188) 
-2.92785

>  <r_i_glide_lipo>  (188) 
-0.348797

>  <r_i_glide_hbond>  (188) 
-0.0775144

>  <r_i_glide_metal>  (188) 
-0

>  <r_i_glide_rewards>  (188) 
-1.8046

>  <r_i_glide_evdw>  (188) 
-21.2003

>  <r_i_glide_ecoul>  (188) 
-1.56486

>  <r_i_glide_erotb>  (188) 
0.620956

>  <r_i_glide_esite>  (188) 
-0.0231525

>  <r_i_glide_emodel>  (188) 
-26.8227

>  <r_i_glide_energy>  (188) 
-22.7652

>  <r_i_glide_einternal>  (188) 
0.0986941

>  <r_i_glide_intrahb_reward>  (188) 
-0

>  <i_i_glide_confnum>  (188) 
3

>  <i_i_glide_posenum>  (188) 
26

>  <r_i_glide_eff_state_penalty>  (188) 
0

>  <ligand_id>  (188) 
63

>  <original_smiles>  (188) 
Cn1ccnc1CN1CCOC2(CCCC2)C1

>  <smiles>  (188) 
[H]c1nc(C([H])([H])N2C([H])([H])C([H])([H])OC3(C2([H])[H])C([H])([H])C([H])([H])C([H])([H])C3([H])[H])n(C([H])([H])[H])c1[H]

$$$$
63:1:2
     RDKit          3D

 38 40  0  0  1  0  0  0  0  0999 V2000
    2.5488   -3.0062    3.1412 C   0  0  0  0  0  0  0  0  0  0  0  0
    2.2920   -1.6202    2.7941 N   0  0  0  0  0  0  0  0  0  0  0  0
    1.0651   -0.9752    2.9018 C   0  0  0  0  0  0  0  0  0  0  0  0
    1.2328    0.3092    2.4469 C   0  0  0  0  0  0  0  0  0  0  0  0
    2.5818    0.4762    2.0880 N   0  0  0  0  0  0  0  0  0  0  0  0
    3.1449   -0.7080    2.2989 C   0  0  0  0  0  0  0  0  0  0  0  0
    4.5782   -1.0047    1.9818 C   0  0  0  0  0  0  0  0  0  0  0  0
    4.7803   -1.6788    0.7052 N   0  0  0  0  0  0  0  0  0  0  0  0
    6.1926   -1.9641    0.4599 C   0  0  0  0  0  0  0  0  0  0  0  0
    6.4512   -2.6414   -0.9035 C   0  0  0  0  0  0  0  0  0  0  0  0
    5.8053   -1.9096   -1.9595 O   0  0  0  0  0  0  0  0  0  0  0  0
    4.4114   -1.6268   -1.7487 C   0  0  0  0  0  0  0  0  0  0  0  0
    3.5391   -2.9026   -1.8689 C   0  0  0  0  0  0  0  0  0  0  0  0
    3.1787   -3.0564   -3.3469 C   0  0  0  0  0  0  0  0  0  0  0  0
    3.5776   -1.7497   -4.0398 C   0  0  0  0  0  0  0  0  0  0  0  0
    3.8991   -0.7629   -2.9184 C   0  0  0  0  0  0  0  0  0  0  0  0
    4.2438   -0.9026   -0.4051 C   0  0  0  0  0  0  0  0  0  0  0  0
    1.7543   -3.3707    3.7937 H   0  0  0  0  0  0  0  0  0  0  0  0
    3.4938   -3.1018    3.6730 H   0  0  0  0  0  0  0  0  0  0  0  0
    2.5791   -3.6179    2.2395 H   0  0  0  0  0  0  0  0  0  0  0  0
    0.1773   -1.4752    3.2765 H   0  0  0  0  0  0  0  0  0  0  0  0
    0.5210    1.1144    2.3453 H   0  0  0  0  0  0  0  0  0  0  0  0
    5.0975   -0.0511    1.9826 H   0  0  0  0  0  0  0  0  0  0  0  0
    5.0040   -1.6011    2.7864 H   0  0  0  0  0  0  0  0  0  0  0  0
    6.7635   -1.0359    0.5005 H   0  0  0  0  0  0  0  0  0  0  0  0
    6.5823   -2.6129    1.2456 H   0  0  0  0  0  0  0  0  0  0  0  0
    7.5219   -2.7053   -1.1251 H   0  0  0  0  0  0  0  0  0  0  0  0
    6.1153   -3.6763   -0.8660 H   0  0  0  0  0  0  0  0  0  0  0  0
    3.9769   -3.8263   -1.4917 H   0  0  0  0  0  0  0  0  0  0  0  0
    2.6200   -2.7622   -1.2918 H   0  0  0  0  0  0  0  0  0  0  0  0
    3.7143   -3.8970   -3.7844 H   0  0  0  0  0  0  0  0  0  0  0  0
    2.1108   -3.2579   -3.4284 H   0  0  0  0  0  0  0  0  0  0  0  0
    4.4709   -1.9021   -4.6428 H   0  0  0  0  0  0  0  0  0  0  0  0
    2.7844   -1.3769   -4.6878 H   0  0  0  0  0  0  0  0  0  0  0  0
    2.9632   -0.2677   -2.6476 H   0  0  0  0  0  0  0  0  0  0  0  0
    4.5934    0.0249   -3.2181 H   0  0  0  0  0  0  0  0  0  0  0  0
    3.1795   -0.7185   -0.2644 H   0  0  0  0  0  0  0  0  0  0  0  0
    4.7089    0.0830   -0.4238 H   0  0  0  0  0  0  0  0  0  0  0  0
  1  2  1  0
  1 18  1  0
  1 19  1  0
  1 20  1  0
  2  6  1  0
  2  3  1  0
  3  4  2  0
  3 21  1  0
  4  5  1  0
  4 22  1  0
  5  6  2  0
  6  7  1  0
  7  8  1  0
  7 23  1  0
  7 24  1  0
  8 17  1  0
  8  9  1  0
  9 10  1  0
  9 25  1  0
  9 26  1  0
 10 11  1  0
 10 27  1  0
 10 28  1  0
 11 12  1  0
 12 16  1  0
 12 13  1  0
 12 17  1  0
 13 14  1  0
 13 29  1  0
 13 30  1  0
 14 15  1  0
 14 31  1  0
 14 32  1  0
 15 16  1  0
 15 33  1  0
 15 34  1  0
 16 35  1  0
 16 36  1  0
 17 37  1  0
 17 38  1  0
M  END
>  <i_m_ct_stereo_status>  (189) 
1

>  <s_m_source_file>  (189) 
/var/tmp/pbs.5076255.sched01/tmpnk13i6y_/41i0yhob8r.sdf

>  <i_m_source_file_index>  (189) 
36

>  <i_lp_mmshare_version>  (189) 
48012

>  <i_f3d_flags>  (189) 
0

>  <s_epik_input>  (189) 
W0NIM11uMVtjSF1bY0hdbmMxW0NIMl1OKFtDSDJdMilbQ0gyXVtDSDJdT0MyM1tDSDJdW0NIMl1bQ0gyXVtDSDJdMw==

>  <s_epik_cmdline>  (189) 
J2VwaWtfcHl0aG9uJywgJy1waHQnLCAnMi4wJywgJy1waCcsICc3LjAnLCAnLXRuJywgJzgnLCAnLW1hJywgJzIwMCcsICctaW1hZScsICc8aW5maWxlLm1hZT4nLCAnLW9tYWUnLCAnPG91dGZpbGUubWFlPic=

>  <r_lp_tautomer_probability>  (189) 
1

>  <r_epik_Ionization_Penalty>  (189) 
2.1127

>  <r_epik_Ionization_Penalty_Charging>  (189) 
2.11031

>  <r_epik_Ionization_Penalty_Neutral>  (189) 
0.00238673

>  <r_epik_State_Penalty>  (189) 
2.24717

>  <r_epik_Charging_Adjusted_Penalty>  (189) 
4.35747

>  <i_epik_Tot_Q>  (189) 
0

>  <i_epik_Tot_abs_Q>  (189) 
0

>  <s_lp_Force_Field>  (189) 
OPLS3e

>  <r_lp_Energy>  (189) 
20.1268

>  <b_lp_Chiralities_Consistent>  (189) 
1

>  <s_lp_Variant>  (189) 
63:0-2

>  <s_i_glide_gridfile>  (189) 
pfpi4k_grid

>  <i_i_glide_lignum>  (189) 
36

>  <i_i_glide_rotatable_bonds>  (189) 
2

>  <r_i_docking_score>  (189) 
-2.87537

>  <r_i_glide_ligand_efficiency>  (189) 
-0.169139

>  <r_i_glide_ligand_efficiency_sa>  (189) 
-0.434904

>  <r_i_glide_ligand_efficiency_ln>  (189) 
-0.750119

>  <r_i_glide_gscore>  (189) 
-2.87537

>  <r_i_glide_lipo>  (189) 
-0.394668

>  <r_i_glide_hbond>  (189) 
-0.0238206

>  <r_i_glide_metal>  (189) 
-0

>  <r_i_glide_rewards>  (189) 
-1.8046

>  <r_i_glide_evdw>  (189) 
-21.6592

>  <r_i_glide_ecoul>  (189) 
-1.15003

>  <r_i_glide_erotb>  (189) 
0.620956

>  <r_i_glide_esite>  (189) 
-0.0177712

>  <r_i_glide_emodel>  (189) 
-26.7956

>  <r_i_glide_energy>  (189) 
-22.8092

>  <r_i_glide_einternal>  (189) 
0.267884

>  <r_i_glide_intrahb_reward>  (189) 
-0

>  <i_i_glide_confnum>  (189) 
3

>  <i_i_glide_posenum>  (189) 
23

>  <r_i_glide_eff_state_penalty>  (189) 
0

>  <ligand_id>  (189) 
63

>  <original_smiles>  (189) 
Cn1ccnc1CN1CCOC2(CCCC2)C1

>  <smiles>  (189) 
[H]c1nc(C([H])([H])N2C([H])([H])C([H])([H])OC3(C2([H])[H])C([H])([H])C([H])([H])C([H])([H])C3([H])[H])n(C([H])([H])[H])c1[H]

$$$$
66:0:0
     RDKit          3D

 31 33  0  0  1  0  0  0  0  0999 V2000
   -0.7393    0.9264    1.7819 O   0  0  0  0  0  0  0  0  0  0  0  0
    0.3136    1.6740    2.3578 C   0  0  0  0  0  0  0  0  0  0  0  0
   -0.1842    2.4426    3.5976 C   0  0  2  0  0  0  0  0  0  0  0  0
   -0.3502    1.5613    4.7097 O   0  0  0  0  0  0  0  0  0  0  0  0
   -1.5158    1.8842    5.4100 C   0  0  1  0  0  0  0  0  0  0  0  0
   -1.2240    1.9035    6.8803 N   0  0  0  0  0  0  0  0  0  0  0  0
   -0.0579    1.4225    7.4816 C   0  0  0  0  0  0  0  0  0  0  0  0
   -0.1142    1.6206    8.8404 C   0  0  0  0  0  0  0  0  0  0  0  0
   -1.3809    2.2352    9.1066 C   0  0  0  0  0  0  0  0  0  0  0  0
   -2.0737    2.7086   10.2463 C   0  0  0  0  0  0  0  0  0  0  0  0
   -3.2934    3.2642   10.0896 N   0  0  0  0  0  0  0  0  0  0  0  0
   -3.8262    3.3435    8.8772 C   0  0  0  0  0  0  0  0  0  0  0  0
   -3.3201    2.9124    7.7166 N   0  0  0  0  0  0  0  0  0  0  0  0
   -2.0630    2.3820    7.8697 C   0  0  0  0  0  0  0  0  0  0  0  0
   -1.9860    3.2531    4.8840 C   0  0  1  0  0  0  0  0  0  0  0  0
   -1.3578    4.3280    5.5619 O   0  0  0  0  0  0  0  0  0  0  0  0
   -1.5183    3.1948    3.4451 C   0  0  1  0  0  0  0  0  0  0  0  0
   -1.3929    4.4902    2.8944 O   0  0  0  0  0  0  0  0  0  0  0  0
   -0.6278    0.8622    0.8363 H   0  0  0  0  0  0  0  0  0  0  0  0
    1.1785    1.0392    2.5772 H   0  0  0  0  0  0  0  0  0  0  0  0
    0.6448    2.3939    1.6180 H   0  0  0  0  0  0  0  0  0  0  0  0
    0.5898    3.1470    3.9054 H   0  0  0  0  0  0  0  0  0  0  0  0
   -2.2311    1.0753    5.2645 H   0  0  0  0  0  0  0  0  0  0  0  0
    0.7387    1.0046    6.8860 H   0  0  0  0  0  0  0  0  0  0  0  0
    0.6437    1.3872    9.5714 H   0  0  0  0  0  0  0  0  0  0  0  0
   -1.6847    2.6320   11.2527 H   0  0  0  0  0  0  0  0  0  0  0  0
   -4.8273    3.7512    8.8532 H   0  0  0  0  0  0  0  0  0  0  0  0
   -3.0715    3.3193    4.9584 H   0  0  0  0  0  0  0  0  0  0  0  0
   -0.4239    4.1737    5.5292 H   0  0  0  0  0  0  0  0  0  0  0  0
   -2.2500    2.6132    2.8866 H   0  0  0  0  0  0  0  0  0  0  0  0
   -0.8225    4.4380    2.1112 H   0  0  0  0  0  0  0  0  0  0  0  0
  1  2  1  0
  1 19  1  0
  2  3  1  0
  2 20  1  0
  2 21  1  0
  3 17  1  0
  3  4  1  0
  3 22  1  1
  4  5  1  0
  5  6  1  0
  5 15  1  0
  5 23  1  1
  6 14  1  0
  6  7  1  0
  7  8  2  0
  7 24  1  0
  8  9  1  0
  8 25  1  0
  9 14  2  0
  9 10  1  0
 10 11  2  0
 10 26  1  0
 11 12  1  0
 12 13  2  0
 12 27  1  0
 13 14  1  0
 15 16  1  0
 15 17  1  0
 15 28  1  6
 16 29  1  0
 17 18  1  0
 17 30  1  6
 18 31  1  0
M  END
>  <i_m_ct_stereo_status>  (190) 
1

>  <s_m_source_file>  (190) 
/var/tmp/pbs.5076255.sched01/tmpnk13i6y_/41i0yhob8r.sdf

>  <i_m_source_file_index>  (190) 
40

>  <i_lp_mmshare_version>  (190) 
48012

>  <i_f3d_flags>  (190) 
0

>  <s_epik_input>  (190) 
W09IXVtDSDJdW0NAQEhdMU9bQ0BIXShbQ0BASF0oW09IXSlbQ0BIXTFbT0hdKW4oW2NIXVtjSF0yKWMoYzIzKW5bY0hdbltjSF0z

>  <s_epik_cmdline>  (190) 
J2VwaWtfcHl0aG9uJywgJy1waHQnLCAnMi4wJywgJy1waCcsICc3LjAnLCAnLXRuJywgJzgnLCAnLW1hJywgJzIwMCcsICctaW1hZScsICc8aW5maWxlLm1hZT4nLCAnLW9tYWUnLCAnPG91dGZpbGUubWFlPic=

>  <r_lp_tautomer_probability>  (190) 
1

>  <r_epik_Ionization_Penalty>  (190) 
1.46324e-05

>  <r_epik_Ionization_Penalty_Charging>  (190) 
0

>  <r_epik_Ionization_Penalty_Neutral>  (190) 
1.46324e-05

>  <r_epik_State_Penalty>  (190) 
-0

>  <r_epik_Charging_Adjusted_Penalty>  (190) 
0

>  <i_epik_Tot_Q>  (190) 
0

>  <i_epik_Tot_abs_Q>  (190) 
0

>  <s_epik_Chemistry_Notes>  (190) 
This compound contains an acetal/aminal-like group ( X-CH(R)-Y where X, Y are N, S, or O) that may be acid/base labile, releasing an aldehyde.

>  <s_lp_Force_Field>  (190) 
OPLS3e

>  <r_lp_Energy>  (190) 
20.4452

>  <b_lp_Chiralities_Consistent>  (190) 
1

>  <s_lp_Variant>  (190) 
66:0-1

>  <s_i_glide_gridfile>  (190) 
pfpi4k_grid

>  <i_i_glide_lignum>  (190) 
40

>  <i_i_glide_rotatable_bonds>  (190) 
5

>  <r_i_docking_score>  (190) 
-3.85887

>  <r_i_glide_ligand_efficiency>  (190) 
-0.214381

>  <r_i_glide_ligand_efficiency_sa>  (190) 
-0.561838

>  <r_i_glide_ligand_efficiency_ln>  (190) 
-0.991902

>  <r_i_glide_gscore>  (190) 
-3.85887

>  <r_i_glide_lipo>  (190) 
0

>  <r_i_glide_hbond>  (190) 
0

>  <r_i_glide_metal>  (190) 
-0

>  <r_i_glide_rewards>  (190) 
-1.75805

>  <r_i_glide_evdw>  (190) 
-15.9335

>  <r_i_glide_ecoul>  (190) 
-11.0398

>  <r_i_glide_erotb>  (190) 
0.388692

>  <r_i_glide_esite>  (190) 
-0.0368698

>  <r_i_glide_emodel>  (190) 
-32.586

>  <r_i_glide_energy>  (190) 
-26.9733

>  <r_i_glide_einternal>  (190) 
5.31073

>  <r_i_glide_intrahb_reward>  (190) 
-0

>  <i_i_glide_confnum>  (190) 
5

>  <i_i_glide_posenum>  (190) 
27

>  <r_i_glide_eff_state_penalty>  (190) 
0

>  <ligand_id>  (190) 
66

>  <original_smiles>  (190) 
OCC1OC(n2ccc3cncnc32)C(O)C1O

>  <smiles>  (190) 
[H]OC([H])([H])C1([H])OC([H])(n2c([H])c([H])c3c([H])nc([H])nc32)C([H])(O[H])C1([H])O[H]

$$$$
66:0:1
     RDKit          3D

 31 33  0  0  1  0  0  0  0  0999 V2000
    2.6049    0.2957   -4.7415 O   0  0  0  0  0  0  0  0  0  0  0  0
    3.8670    0.0313   -4.1895 C   0  0  0  0  0  0  0  0  0  0  0  0
    3.8043   -1.0413   -3.0930 C   0  0  2  0  0  0  0  0  0  0  0  0
    5.0441   -1.0358   -2.3833 O   0  0  0  0  0  0  0  0  0  0  0  0
    5.4367   -2.3466   -2.0692 C   0  0  1  0  0  0  0  0  0  0  0  0
    5.7381   -2.4881   -0.6064 N   0  0  0  0  0  0  0  0  0  0  0  0
    6.5480   -3.4993   -0.0819 C   0  0  0  0  0  0  0  0  0  0  0  0
    6.5290   -3.4490    1.2842 C   0  0  0  0  0  0  0  0  0  0  0  0
    5.6791   -2.3494    1.6396 C   0  0  0  0  0  0  0  0  0  0  0  0
    5.2145   -1.7439    2.8285 C   0  0  0  0  0  0  0  0  0  0  0  0
    4.3652   -0.6928    2.7502 N   0  0  0  0  0  0  0  0  0  0  0  0
    3.9787   -0.2575    1.5518 C   0  0  0  0  0  0  0  0  0  0  0  0
    4.3332   -0.7040    0.3605 N   0  0  0  0  0  0  0  0  0  0  0  0
    5.1947   -1.7697    0.4378 C   0  0  0  0  0  0  0  0  0  0  0  0
    4.2939   -3.2760   -2.4933 C   0  0  1  0  0  0  0  0  0  0  0  0
    3.3422   -3.5254   -1.4681 O   0  0  0  0  0  0  0  0  0  0  0  0
    3.6987   -2.4751   -3.6239 C   0  0  1  0  0  0  0  0  0  0  0  0
    2.3924   -2.9148   -3.8960 O   0  0  0  0  0  0  0  0  0  0  0  0
    2.0919    0.7218   -4.0725 H   0  0  0  0  0  0  0  0  0  0  0  0
    4.5582   -0.2705   -4.9734 H   0  0  0  0  0  0  0  0  0  0  0  0
    4.2175    0.9753   -3.7765 H   0  0  0  0  0  0  0  0  0  0  0  0
    3.0222   -0.8326   -2.3593 H   0  0  0  0  0  0  0  0  0  0  0  0
    6.3841   -2.5646   -2.5689 H   0  0  0  0  0  0  0  0  0  0  0  0
    7.0459   -4.2116   -0.7202 H   0  0  0  0  0  0  0  0  0  0  0  0
    7.0277   -4.1133    1.9703 H   0  0  0  0  0  0  0  0  0  0  0  0
    5.5086   -2.0893    3.8065 H   0  0  0  0  0  0  0  0  0  0  0  0
    3.3051    0.5783    1.5537 H   0  0  0  0  0  0  0  0  0  0  0  0
    4.7263   -4.2205   -2.8217 H   0  0  0  0  0  0  0  0  0  0  0  0
    2.9227   -4.3536   -1.6793 H   0  0  0  0  0  0  0  0  0  0  0  0
    4.3244   -2.5896   -4.5053 H   0  0  0  0  0  0  0  0  0  0  0  0
    1.8913   -2.8114   -3.0963 H   0  0  0  0  0  0  0  0  0  0  0  0
  1  2  1  0
  1 19  1  0
  2  3  1  0
  2 20  1  0
  2 21  1  0
  3 17  1  0
  3  4  1  0
  3 22  1  1
  4  5  1  0
  5  6  1  0
  5 15  1  0
  5 23  1  6
  6 14  1  0
  6  7  1  0
  7  8  2  0
  7 24  1  0
  8  9  1  0
  8 25  1  0
  9 14  2  0
  9 10  1  0
 10 11  2  0
 10 26  1  0
 11 12  1  0
 12 13  2  0
 12 27  1  0
 13 14  1  0
 15 16  1  0
 15 17  1  0
 15 28  1  6
 16 29  1  0
 17 18  1  0
 17 30  1  6
 18 31  1  0
M  END
>  <i_m_ct_stereo_status>  (191) 
1

>  <s_m_source_file>  (191) 
/var/tmp/pbs.5076255.sched01/tmpnk13i6y_/41i0yhob8r.sdf

>  <i_m_source_file_index>  (191) 
40

>  <i_lp_mmshare_version>  (191) 
48012

>  <i_f3d_flags>  (191) 
0

>  <s_epik_input>  (191) 
W09IXVtDSDJdW0NAQEhdMU9bQ0BIXShbQ0BASF0oW09IXSlbQ0BIXTFbT0hdKW4oW2NIXVtjSF0yKWMoYzIzKW5bY0hdbltjSF0z

>  <s_epik_cmdline>  (191) 
J2VwaWtfcHl0aG9uJywgJy1waHQnLCAnMi4wJywgJy1waCcsICc3LjAnLCAnLXRuJywgJzgnLCAnLW1hJywgJzIwMCcsICctaW1hZScsICc8aW5maWxlLm1hZT4nLCAnLW9tYWUnLCAnPG91dGZpbGUubWFlPic=

>  <r_lp_tautomer_probability>  (191) 
1

>  <r_epik_Ionization_Penalty>  (191) 
1.46324e-05

>  <r_epik_Ionization_Penalty_Charging>  (191) 
0

>  <r_epik_Ionization_Penalty_Neutral>  (191) 
1.46324e-05

>  <r_epik_State_Penalty>  (191) 
-0

>  <r_epik_Charging_Adjusted_Penalty>  (191) 
0

>  <i_epik_Tot_Q>  (191) 
0

>  <i_epik_Tot_abs_Q>  (191) 
0

>  <s_epik_Chemistry_Notes>  (191) 
This compound contains an acetal/aminal-like group ( X-CH(R)-Y where X, Y are N, S, or O) that may be acid/base labile, releasing an aldehyde.

>  <s_lp_Force_Field>  (191) 
OPLS3e

>  <r_lp_Energy>  (191) 
20.4452

>  <b_lp_Chiralities_Consistent>  (191) 
1

>  <s_lp_Variant>  (191) 
66:0-1

>  <s_i_glide_gridfile>  (191) 
pfpi4k_grid

>  <i_i_glide_lignum>  (191) 
40

>  <i_i_glide_rotatable_bonds>  (191) 
5

>  <r_i_docking_score>  (191) 
-3.74178

>  <r_i_glide_ligand_efficiency>  (191) 
-0.207877

>  <r_i_glide_ligand_efficiency_sa>  (191) 
-0.544791

>  <r_i_glide_ligand_efficiency_ln>  (191) 
-0.961805

>  <r_i_glide_gscore>  (191) 
-3.74178

>  <r_i_glide_lipo>  (191) 
-0.809501

>  <r_i_glide_hbond>  (191) 
0

>  <r_i_glide_metal>  (191) 
-0

>  <r_i_glide_rewards>  (191) 
-1.85496

>  <r_i_glide_evdw>  (191) 
-26.1657

>  <r_i_glide_ecoul>  (191) 
-2.044

>  <r_i_glide_erotb>  (191) 
0.555274

>  <r_i_glide_esite>  (191) 
-0.0177083

>  <r_i_glide_emodel>  (191) 
-35.5379

>  <r_i_glide_energy>  (191) 
-28.2097

>  <r_i_glide_einternal>  (191) 
1.63617

>  <r_i_glide_intrahb_reward>  (191) 
-0

>  <i_i_glide_confnum>  (191) 
4

>  <i_i_glide_posenum>  (191) 
2

>  <r_i_glide_eff_state_penalty>  (191) 
0

>  <ligand_id>  (191) 
66

>  <original_smiles>  (191) 
OCC1OC(n2ccc3cncnc32)C(O)C1O

>  <smiles>  (191) 
[H]OC([H])([H])C1([H])OC([H])(n2c([H])c([H])c3c([H])nc([H])nc32)C([H])(O[H])C1([H])O[H]

$$$$
66:0:2
     RDKit          3D

 31 33  0  0  1  0  0  0  0  0999 V2000
    1.6747   -0.9061    1.6852 O   0  0  0  0  0  0  0  0  0  0  0  0
    1.6478    0.2390    2.5040 C   0  0  0  0  0  0  0  0  0  0  0  0
    0.4822    0.1359    3.4997 C   0  0  2  0  0  0  0  0  0  0  0  0
    0.4225    1.3259    4.2868 O   0  0  0  0  0  0  0  0  0  0  0  0
    0.1318    1.0332    5.6289 C   0  0  1  0  0  0  0  0  0  0  0  0
   -1.0041    1.8922    6.0867 N   0  0  0  0  0  0  0  0  0  0  0  0
   -1.9262    2.5357    5.2755 C   0  0  0  0  0  0  0  0  0  0  0  0
   -2.8577    3.1940    6.0363 C   0  0  0  0  0  0  0  0  0  0  0  0
   -2.4938    2.9662    7.4027 C   0  0  0  0  0  0  0  0  0  0  0  0
   -2.9939    3.3311    8.6736 C   0  0  0  0  0  0  0  0  0  0  0  0
   -2.3440    2.9127    9.7769 N   0  0  0  0  0  0  0  0  0  0  0  0
   -1.2633    2.1443    9.6547 C   0  0  0  0  0  0  0  0  0  0  0  0
   -0.7029    1.6769    8.5310 N   0  0  0  0  0  0  0  0  0  0  0  0
   -1.3378    2.1434    7.4147 C   0  0  0  0  0  0  0  0  0  0  0  0
   -0.2070   -0.4646    5.7029 C   0  0  1  0  0  0  0  0  0  0  0  0
   -1.5976   -0.7112    5.5188 O   0  0  0  0  0  0  0  0  0  0  0  0
    0.6341   -0.9755    4.5439 C   0  0  1  0  0  0  0  0  0  0  0  0
    0.2307   -2.2522    4.0902 O   0  0  0  0  0  0  0  0  0  0  0  0
    1.2989   -0.7135    0.8111 H   0  0  0  0  0  0  0  0  0  0  0  0
    2.5951    0.3131    3.0372 H   0  0  0  0  0  0  0  0  0  0  0  0
    1.5709    1.1315    1.8851 H   0  0  0  0  0  0  0  0  0  0  0  0
   -0.4679    0.0392    2.9760 H   0  0  0  0  0  0  0  0  0  0  0  0
    0.9931    1.3224    6.2402 H   0  0  0  0  0  0  0  0  0  0  0  0
   -1.8748    2.4450    4.1981 H   0  0  0  0  0  0  0  0  0  0  0  0
   -3.7092    3.7367    5.6867 H   0  0  0  0  0  0  0  0  0  0  0  0
   -3.8708    3.9483    8.8100 H   0  0  0  0  0  0  0  0  0  0  0  0
   -0.8186    1.8438   10.5818 H   0  0  0  0  0  0  0  0  0  0  0  0
    0.1153   -0.8700    6.6617 H   0  0  0  0  0  0  0  0  0  0  0  0
   -1.8559   -0.2896    4.7115 H   0  0  0  0  0  0  0  0  0  0  0  0
    1.6738   -1.0236    4.8601 H   0  0  0  0  0  0  0  0  0  0  0  0
    0.7187   -2.4331    3.2969 H   0  0  0  0  0  0  0  0  0  0  0  0
  1  2  1  0
  1 19  1  0
  2  3  1  0
  2 20  1  0
  2 21  1  0
  3 17  1  0
  3  4  1  0
  3 22  1  6
  4  5  1  0
  5  6  1  0
  5 15  1  0
  5 23  1  1
  6 14  1  0
  6  7  1  0
  7  8  2  0
  7 24  1  0
  8  9  1  0
  8 25  1  0
  9 14  2  0
  9 10  1  0
 10 11  2  0
 10 26  1  0
 11 12  1  0
 12 13  2  0
 12 27  1  0
 13 14  1  0
 15 16  1  0
 15 17  1  0
 15 28  1  1
 16 29  1  0
 17 18  1  0
 17 30  1  1
 18 31  1  0
M  END
>  <i_m_ct_stereo_status>  (192) 
1

>  <s_m_source_file>  (192) 
/var/tmp/pbs.5076255.sched01/tmpnk13i6y_/41i0yhob8r.sdf

>  <i_m_source_file_index>  (192) 
40

>  <i_lp_mmshare_version>  (192) 
48012

>  <i_f3d_flags>  (192) 
0

>  <s_epik_input>  (192) 
W09IXVtDSDJdW0NAQEhdMU9bQ0BIXShbQ0BASF0oW09IXSlbQ0BIXTFbT0hdKW4oW2NIXVtjSF0yKWMoYzIzKW5bY0hdbltjSF0z

>  <s_epik_cmdline>  (192) 
J2VwaWtfcHl0aG9uJywgJy1waHQnLCAnMi4wJywgJy1waCcsICc3LjAnLCAnLXRuJywgJzgnLCAnLW1hJywgJzIwMCcsICctaW1hZScsICc8aW5maWxlLm1hZT4nLCAnLW9tYWUnLCAnPG91dGZpbGUubWFlPic=

>  <r_lp_tautomer_probability>  (192) 
1

>  <r_epik_Ionization_Penalty>  (192) 
1.46324e-05

>  <r_epik_Ionization_Penalty_Charging>  (192) 
0

>  <r_epik_Ionization_Penalty_Neutral>  (192) 
1.46324e-05

>  <r_epik_State_Penalty>  (192) 
-0

>  <r_epik_Charging_Adjusted_Penalty>  (192) 
0

>  <i_epik_Tot_Q>  (192) 
0

>  <i_epik_Tot_abs_Q>  (192) 
0

>  <s_epik_Chemistry_Notes>  (192) 
This compound contains an acetal/aminal-like group ( X-CH(R)-Y where X, Y are N, S, or O) that may be acid/base labile, releasing an aldehyde.

>  <s_lp_Force_Field>  (192) 
OPLS3e

>  <r_lp_Energy>  (192) 
20.4452

>  <b_lp_Chiralities_Consistent>  (192) 
1

>  <s_lp_Variant>  (192) 
66:0-1

>  <s_i_glide_gridfile>  (192) 
pfpi4k_grid

>  <i_i_glide_lignum>  (192) 
40

>  <i_i_glide_rotatable_bonds>  (192) 
5

>  <r_i_docking_score>  (192) 
-3.56165

>  <r_i_glide_ligand_efficiency>  (192) 
-0.197869

>  <r_i_glide_ligand_efficiency_sa>  (192) 
-0.518565

>  <r_i_glide_ligand_efficiency_ln>  (192) 
-0.915504

>  <r_i_glide_gscore>  (192) 
-3.56165

>  <r_i_glide_lipo>  (192) 
-0.287324

>  <r_i_glide_hbond>  (192) 
0

>  <r_i_glide_metal>  (192) 
-0

>  <r_i_glide_rewards>  (192) 
-2.1961

>  <r_i_glide_evdw>  (192) 
-16.0752

>  <r_i_glide_ecoul>  (192) 
-5.04305

>  <r_i_glide_erotb>  (192) 
0.555274

>  <r_i_glide_esite>  (192) 
-0.0732809

>  <r_i_glide_emodel>  (192) 
-33.2582

>  <r_i_glide_energy>  (192) 
-21.1183

>  <r_i_glide_einternal>  (192) 
1.22734

>  <r_i_glide_intrahb_reward>  (192) 
-0.5

>  <i_i_glide_confnum>  (192) 
1

>  <i_i_glide_posenum>  (192) 
15

>  <r_i_glide_eff_state_penalty>  (192) 
0

>  <ligand_id>  (192) 
66

>  <original_smiles>  (192) 
OCC1OC(n2ccc3cncnc32)C(O)C1O

>  <smiles>  (192) 
[H]OC([H])([H])C1([H])OC([H])(n2c([H])c([H])c3c([H])nc([H])nc32)C([H])(O[H])C1([H])O[H]

$$$$
67:0:0
     RDKit          3D

 48 52  0  0  1  0  0  0  0  0999 V2000
    3.8251    0.1385   -3.7894 C   0  0  0  0  0  0  0  0  0  0  0  0
    4.0351   -1.3021   -3.3356 C   0  0  0  0  0  0  0  0  0  0  0  0
    4.2043   -2.2053   -4.1544 O   0  0  0  0  0  0  0  0  0  0  0  0
    4.0018   -1.4415   -1.9911 O   0  0  0  0  0  0  0  0  0  0  0  0
    4.0257   -2.7321   -1.3768 C   0  0  2  0  0  0  0  0  0  0  0  0
    2.6256   -3.3113   -1.4555 C   0  0  0  0  0  0  0  0  0  0  0  0
    2.0205   -4.2568   -0.7214 C   0  0  0  0  0  0  0  0  0  0  0  0
    2.5929   -5.0955    0.3551 C   0  0  0  0  0  0  0  0  0  0  0  0
    1.8454   -5.7812    1.0520 O   0  0  0  0  0  0  0  0  0  0  0  0
    4.1203   -5.1696    0.5447 C   0  0  2  0  0  0  0  0  0  0  0  0
    4.6490   -5.6090   -0.6985 O   0  0  0  0  0  0  0  0  0  0  0  0
    4.6090   -6.1872    1.6438 C   0  0  1  0  0  0  0  0  0  0  0  0
    6.1632   -6.3229    1.6399 C   0  0  0  0  0  0  0  0  0  0  0  0
    6.9690   -5.0705    1.3241 C   0  0  0  0  0  0  0  0  0  0  0  0
    8.3769   -4.9514    1.2727 C   0  0  0  0  0  0  0  0  0  0  0  0
    8.9452   -3.7219    0.8640 C   0  0  0  0  0  0  0  0  0  0  0  0
    8.1331   -2.6330    0.4591 C   0  0  0  0  0  0  0  0  0  0  0  0
    8.6928   -1.4565    0.0784 O   0  0  0  0  0  0  0  0  0  0  0  0
    6.7309   -2.7507    0.4628 C   0  0  0  0  0  0  0  0  0  0  0  0
    6.2262   -3.9324    0.9537 C   0  0  0  0  0  0  0  0  0  0  0  0
    4.7257   -3.8020    0.9646 C   0  0  2  0  0  0  0  0  0  0  0  0
    4.2212   -3.4539    2.4027 C   0  0  0  0  0  0  0  0  0  0  0  0
    4.5092   -4.5510    3.4369 C   0  0  0  0  0  0  0  0  0  0  0  0
    4.0761   -5.8655    2.9840 N   0  0  0  0  0  0  0  0  0  0  0  0
    4.3018   -6.8997    3.9935 C   0  0  0  0  0  0  0  0  0  0  0  0
    4.5104   -2.5185    0.0765 C   0  0  1  0  0  0  0  0  0  0  0  0
    5.7913   -1.8530    0.0549 O   0  0  0  0  0  0  0  0  0  0  0  0
    4.5588    0.8035   -3.3314 H   0  0  0  0  0  0  0  0  0  0  0  0
    2.8312    0.4712   -3.4967 H   0  0  0  0  0  0  0  0  0  0  0  0
    3.8982    0.2246   -4.8756 H   0  0  0  0  0  0  0  0  0  0  0  0
    4.7151   -3.3778   -1.9267 H   0  0  0  0  0  0  0  0  0  0  0  0
    2.0095   -2.8537   -2.2170 H   0  0  0  0  0  0  0  0  0  0  0  0
    1.0052   -4.4888   -1.0133 H   0  0  0  0  0  0  0  0  0  0  0  0
    3.9384   -5.8265   -1.2977 H   0  0  0  0  0  0  0  0  0  0  0  0
    4.2180   -7.1669    1.3793 H   0  0  0  0  0  0  0  0  0  0  0  0
    6.5457   -6.7586    2.5612 H   0  0  0  0  0  0  0  0  0  0  0  0
    6.4343   -7.0432    0.8760 H   0  0  0  0  0  0  0  0  0  0  0  0
    9.0110   -5.7840    1.5602 H   0  0  0  0  0  0  0  0  0  0  0  0
   10.0055   -3.5783    0.8888 H   0  0  0  0  0  0  0  0  0  0  0  0
    9.6075   -1.4976   -0.1961 H   0  0  0  0  0  0  0  0  0  0  0  0
    4.6456   -2.5107    2.7494 H   0  0  0  0  0  0  0  0  0  0  0  0
    3.1433   -3.2968    2.3788 H   0  0  0  0  0  0  0  0  0  0  0  0
    5.5725   -4.5591    3.6735 H   0  0  0  0  0  0  0  0  0  0  0  0
    3.9939   -4.3048    4.3667 H   0  0  0  0  0  0  0  0  0  0  0  0
    3.7347   -6.6764    4.8985 H   0  0  0  0  0  0  0  0  0  0  0  0
    5.3487   -6.9696    4.2912 H   0  0  0  0  0  0  0  0  0  0  0  0
    3.9825   -7.8815    3.6422 H   0  0  0  0  0  0  0  0  0  0  0  0
    3.8008   -1.8404    0.5567 H   0  0  0  0  0  0  0  0  0  0  0  0
  1  2  1  0
  1 28  1  0
  1 29  1  0
  1 30  1  0
  2  3  2  0
  2  4  1  0
  4  5  1  0
  5 26  1  0
  5  6  1  0
  5 31  1  6
  6  7  2  0
  6 32  1  0
  7  8  1  0
  7 33  1  0
  8  9  2  0
  8 10  1  0
 10 21  1  0
 10 11  1  6
 10 12  1  0
 11 34  1  0
 12 24  1  0
 12 13  1  0
 12 35  1  6
 13 14  1  0
 13 36  1  0
 13 37  1  0
 14 20  2  0
 14 15  1  0
 15 16  2  0
 15 38  1  0
 16 17  1  0
 16 39  1  0
 17 18  1  0
 17 19  2  0
 18 40  1  0
 19 27  1  0
 19 20  1  0
 20 21  1  0
 21 22  1  1
 21 26  1  0
 22 23  1  0
 22 41  1  0
 22 42  1  0
 23 24  1  0
 23 43  1  0
 23 44  1  0
 24 25  1  0
 25 45  1  0
 25 46  1  0
 25 47  1  0
 26 27  1  0
 26 48  1  1
M  END
>  <i_m_ct_stereo_status>  (193) 
1

>  <s_m_source_file>  (193) 
/var/tmp/pbs.5076255.sched01/tmpnk13i6y_/41i0yhob8r.sdf

>  <i_m_source_file_index>  (193) 
41

>  <i_lp_mmshare_version>  (193) 
48012

>  <i_f3d_flags>  (193) 
0

>  <s_epik_input>  (193) 
Tz1DMVtDSF09W0NIXVtDQEBIXShPQyg9TylbQ0gzXSlbQ0BASF0yT2MoYyhbT0hdKVtjSF1bY0hdMyljNGMzW0NIMl1bQ0BIXShbQ0BAXTEoW0NAXTI0NSlbT0hdKU4oW0NIM10pW0NIMl1bQ0gyXTU=

>  <s_epik_cmdline>  (193) 
J2VwaWtfcHl0aG9uJywgJy1waHQnLCAnMi4wJywgJy1waCcsICc3LjAnLCAnLXRuJywgJzgnLCAnLW1hJywgJzIwMCcsICctaW1hZScsICc8aW5maWxlLm1hZT4nLCAnLW9tYWUnLCAnPG91dGZpbGUubWFlPic=

>  <r_lp_tautomer_probability>  (193) 
1

>  <r_epik_Ionization_Penalty>  (193) 
0.387366

>  <r_epik_Ionization_Penalty_Charging>  (193) 
0

>  <r_epik_Ionization_Penalty_Neutral>  (193) 
0.387366

>  <r_epik_State_Penalty>  (193) 
0.396462

>  <r_epik_Charging_Adjusted_Penalty>  (193) 
0.396462

>  <i_epik_Tot_Q>  (193) 
0

>  <i_epik_Tot_abs_Q>  (193) 
0

>  <s_epik_Chemistry_Notes>  (193) 
This compound has an ester and may undergo hydrolysis at high or low pH.

>  <s_lp_Force_Field>  (193) 
OPLS3e

>  <r_lp_Energy>  (193) 
50.2657

>  <b_lp_Chiralities_Consistent>  (193) 
1

>  <s_lp_Variant>  (193) 
67:0-1

>  <s_i_glide_gridfile>  (193) 
pfpi4k_grid

>  <i_i_glide_lignum>  (193) 
41

>  <i_i_glide_rotatable_bonds>  (193) 
4

>  <r_i_docking_score>  (193) 
-5.06301

>  <r_i_glide_ligand_efficiency>  (193) 
-0.187519

>  <r_i_glide_ligand_efficiency_sa>  (193) 
-0.562557

>  <r_i_glide_ligand_efficiency_ln>  (193) 
-1.17859

>  <r_i_glide_gscore>  (193) 
-5.06301

>  <r_i_glide_lipo>  (193) 
-0.938272

>  <r_i_glide_hbond>  (193) 
-0.341501

>  <r_i_glide_metal>  (193) 
-0

>  <r_i_glide_rewards>  (193) 
-1.05867

>  <r_i_glide_evdw>  (193) 
-20.8639

>  <r_i_glide_ecoul>  (193) 
-11.8322

>  <r_i_glide_erotb>  (193) 
0.139949

>  <r_i_glide_esite>  (193) 
-0.0464968

>  <r_i_glide_emodel>  (193) 
-40.6283

>  <r_i_glide_energy>  (193) 
-32.6961

>  <r_i_glide_einternal>  (193) 
4.96766

>  <r_i_glide_intrahb_reward>  (193) 
-0

>  <i_i_glide_confnum>  (193) 
1

>  <i_i_glide_posenum>  (193) 
8

>  <r_i_glide_eff_state_penalty>  (193) 
0

>  <ligand_id>  (193) 
67

>  <original_smiles>  (193) 
CC(=O)OC1C=CC(=O)C2(O)C3Cc4ccc(O)c5c4C2(CCN3C)C1O5

>  <smiles>  (193) 
[H]Oc1c([H])c([H])c2c3c1OC1([H])C([H])(OC(=O)C([H])([H])[H])C([H])=C([H])C(=O)C4(O[H])C([H])(N(C([H])([H])[H])C([H])([H])C([H])([H])C314)C2([H])[H]

$$$$
67:0:1
     RDKit          3D

 48 52  0  0  1  0  0  0  0  0999 V2000
    3.6472   -2.6314   -4.1203 C   0  0  0  0  0  0  0  0  0  0  0  0
    3.8690   -1.3294   -3.3453 C   0  0  0  0  0  0  0  0  0  0  0  0
    3.8848   -0.2483   -3.9321 O   0  0  0  0  0  0  0  0  0  0  0  0
    4.0409   -1.4556   -2.0060 O   0  0  0  0  0  0  0  0  0  0  0  0
    4.0094   -2.7159   -1.3359 C   0  0  2  0  0  0  0  0  0  0  0  0
    2.5929   -3.2735   -1.3859 C   0  0  0  0  0  0  0  0  0  0  0  0
    2.0175   -4.2557   -0.7120 C   0  0  0  0  0  0  0  0  0  0  0  0
    2.6008   -5.1183    0.3559 C   0  0  0  0  0  0  0  0  0  0  0  0
    1.8548   -5.8050    1.0549 O   0  0  0  0  0  0  0  0  0  0  0  0
    4.1280   -5.1770    0.5415 C   0  0  2  0  0  0  0  0  0  0  0  0
    4.6541   -5.6030   -0.7083 O   0  0  0  0  0  0  0  0  0  0  0  0
    4.6205   -6.1953    1.6410 C   0  0  1  0  0  0  0  0  0  0  0  0
    6.1747   -6.3339    1.6331 C   0  0  0  0  0  0  0  0  0  0  0  0
    6.9780   -5.0723    1.3259 C   0  0  0  0  0  0  0  0  0  0  0  0
    8.3817   -4.9523    1.2784 C   0  0  0  0  0  0  0  0  0  0  0  0
    8.9531   -3.7185    0.8777 C   0  0  0  0  0  0  0  0  0  0  0  0
    8.1523   -2.6408    0.4642 C   0  0  0  0  0  0  0  0  0  0  0  0
    8.7055   -1.4599    0.0767 O   0  0  0  0  0  0  0  0  0  0  0  0
    6.7401   -2.7511    0.4691 C   0  0  0  0  0  0  0  0  0  0  0  0
    6.2340   -3.9393    0.9578 C   0  0  0  0  0  0  0  0  0  0  0  0
    4.7340   -3.8023    0.9713 C   0  0  2  0  0  0  0  0  0  0  0  0
    4.2275   -3.4589    2.4058 C   0  0  0  0  0  0  0  0  0  0  0  0
    4.5203   -4.5535    3.4399 C   0  0  0  0  0  0  0  0  0  0  0  0
    4.0901   -5.8688    2.9832 N   0  0  0  0  0  0  0  0  0  0  0  0
    4.3101   -6.9013    3.9949 C   0  0  0  0  0  0  0  0  0  0  0  0
    4.5216   -2.5071    0.1035 C   0  0  1  0  0  0  0  0  0  0  0  0
    5.8122   -1.8566    0.0608 O   0  0  0  0  0  0  0  0  0  0  0  0
    2.7682   -3.1626   -3.7752 H   0  0  0  0  0  0  0  0  0  0  0  0
    4.5370   -3.2685   -4.0608 H   0  0  0  0  0  0  0  0  0  0  0  0
    3.4548   -2.3837   -5.1542 H   0  0  0  0  0  0  0  0  0  0  0  0
    4.6864   -3.3887   -1.8610 H   0  0  0  0  0  0  0  0  0  0  0  0
    1.9486   -2.7678   -2.0977 H   0  0  0  0  0  0  0  0  0  0  0  0
    0.9992   -4.4900   -0.9769 H   0  0  0  0  0  0  0  0  0  0  0  0
    3.9384   -5.8316   -1.3016 H   0  0  0  0  0  0  0  0  0  0  0  0
    4.2254   -7.1751    1.3803 H   0  0  0  0  0  0  0  0  0  0  0  0
    6.5573   -6.7591    2.5600 H   0  0  0  0  0  0  0  0  0  0  0  0
    6.4476   -7.0574    0.8732 H   0  0  0  0  0  0  0  0  0  0  0  0
    9.0125   -5.7856    1.5607 H   0  0  0  0  0  0  0  0  0  0  0  0
   10.0200   -3.5875    0.8965 H   0  0  0  0  0  0  0  0  0  0  0  0
    9.6248   -1.5070   -0.1975 H   0  0  0  0  0  0  0  0  0  0  0  0
    4.6549   -2.5152    2.7515 H   0  0  0  0  0  0  0  0  0  0  0  0
    3.1486   -3.2987    2.3825 H   0  0  0  0  0  0  0  0  0  0  0  0
    5.5829   -4.5596    3.6774 H   0  0  0  0  0  0  0  0  0  0  0  0
    4.0016   -4.3081    4.3675 H   0  0  0  0  0  0  0  0  0  0  0  0
    3.7411   -6.6742    4.8971 H   0  0  0  0  0  0  0  0  0  0  0  0
    5.3559   -6.9721    4.2926 H   0  0  0  0  0  0  0  0  0  0  0  0
    3.9882   -7.8810    3.6426 H   0  0  0  0  0  0  0  0  0  0  0  0
    3.8212   -1.8244    0.5867 H   0  0  0  0  0  0  0  0  0  0  0  0
  1  2  1  0
  1 28  1  0
  1 29  1  0
  1 30  1  0
  2  3  2  0
  2  4  1  0
  4  5  1  0
  5 26  1  0
  5  6  1  0
  5 31  1  6
  6  7  2  0
  6 32  1  0
  7  8  1  0
  7 33  1  0
  8  9  2  0
  8 10  1  0
 10 21  1  0
 10 11  1  6
 10 12  1  0
 11 34  1  0
 12 24  1  0
 12 13  1  0
 12 35  1  6
 13 14  1  0
 13 36  1  0
 13 37  1  0
 14 20  2  0
 14 15  1  0
 15 16  2  0
 15 38  1  0
 16 17  1  0
 16 39  1  0
 17 18  1  0
 17 19  2  0
 18 40  1  0
 19 27  1  0
 19 20  1  0
 20 21  1  0
 21 22  1  1
 21 26  1  0
 22 23  1  0
 22 41  1  0
 22 42  1  0
 23 24  1  0
 23 43  1  0
 23 44  1  0
 24 25  1  0
 25 45  1  0
 25 46  1  0
 25 47  1  0
 26 27  1  0
 26 48  1  1
M  END
>  <i_m_ct_stereo_status>  (194) 
1

>  <s_m_source_file>  (194) 
/var/tmp/pbs.5076255.sched01/tmpnk13i6y_/41i0yhob8r.sdf

>  <i_m_source_file_index>  (194) 
41

>  <i_lp_mmshare_version>  (194) 
48012

>  <i_f3d_flags>  (194) 
0

>  <s_epik_input>  (194) 
Tz1DMVtDSF09W0NIXVtDQEBIXShPQyg9TylbQ0gzXSlbQ0BASF0yT2MoYyhbT0hdKVtjSF1bY0hdMyljNGMzW0NIMl1bQ0BIXShbQ0BAXTEoW0NAXTI0NSlbT0hdKU4oW0NIM10pW0NIMl1bQ0gyXTU=

>  <s_epik_cmdline>  (194) 
J2VwaWtfcHl0aG9uJywgJy1waHQnLCAnMi4wJywgJy1waCcsICc3LjAnLCAnLXRuJywgJzgnLCAnLW1hJywgJzIwMCcsICctaW1hZScsICc8aW5maWxlLm1hZT4nLCAnLW9tYWUnLCAnPG91dGZpbGUubWFlPic=

>  <r_lp_tautomer_probability>  (194) 
1

>  <r_epik_Ionization_Penalty>  (194) 
0.387366

>  <r_epik_Ionization_Penalty_Charging>  (194) 
0

>  <r_epik_Ionization_Penalty_Neutral>  (194) 
0.387366

>  <r_epik_State_Penalty>  (194) 
0.396462

>  <r_epik_Charging_Adjusted_Penalty>  (194) 
0.396462

>  <i_epik_Tot_Q>  (194) 
0

>  <i_epik_Tot_abs_Q>  (194) 
0

>  <s_epik_Chemistry_Notes>  (194) 
This compound has an ester and may undergo hydrolysis at high or low pH.

>  <s_lp_Force_Field>  (194) 
OPLS3e

>  <r_lp_Energy>  (194) 
50.2657

>  <b_lp_Chiralities_Consistent>  (194) 
1

>  <s_lp_Variant>  (194) 
67:0-1

>  <s_i_glide_gridfile>  (194) 
pfpi4k_grid

>  <i_i_glide_lignum>  (194) 
41

>  <i_i_glide_rotatable_bonds>  (194) 
4

>  <r_i_docking_score>  (194) 
-4.30826

>  <r_i_glide_ligand_efficiency>  (194) 
-0.159565

>  <r_i_glide_ligand_efficiency_sa>  (194) 
-0.478695

>  <r_i_glide_ligand_efficiency_ln>  (194) 
-1.00289

>  <r_i_glide_gscore>  (194) 
-4.30826

>  <r_i_glide_lipo>  (194) 
-0.851531

>  <r_i_glide_hbond>  (194) 
-0.0498437

>  <r_i_glide_metal>  (194) 
-0

>  <r_i_glide_rewards>  (194) 
-1.05348

>  <r_i_glide_evdw>  (194) 
-20.9797

>  <r_i_glide_ecoul>  (194) 
-9.31947

>  <r_i_glide_erotb>  (194) 
0.139949

>  <r_i_glide_esite>  (194) 
-0.0464411

>  <r_i_glide_emodel>  (194) 
-33.6353

>  <r_i_glide_energy>  (194) 
-30.2992

>  <r_i_glide_einternal>  (194) 
10.1227

>  <r_i_glide_intrahb_reward>  (194) 
-0

>  <i_i_glide_confnum>  (194) 
1

>  <i_i_glide_posenum>  (194) 
23

>  <r_i_glide_eff_state_penalty>  (194) 
0

>  <ligand_id>  (194) 
67

>  <original_smiles>  (194) 
CC(=O)OC1C=CC(=O)C2(O)C3Cc4ccc(O)c5c4C2(CCN3C)C1O5

>  <smiles>  (194) 
[H]Oc1c([H])c([H])c2c3c1OC1([H])C([H])(OC(=O)C([H])([H])[H])C([H])=C([H])C(=O)C4(O[H])C([H])(N(C([H])([H])[H])C([H])([H])C([H])([H])C314)C2([H])[H]

$$$$
67:0:2
     RDKit          3D

 48 52  0  0  1  0  0  0  0  0999 V2000
    3.8500    0.1620   -3.7843 C   0  0  0  0  0  0  0  0  0  0  0  0
    4.0594   -1.2791   -3.3345 C   0  0  0  0  0  0  0  0  0  0  0  0
    4.2115   -2.1821   -4.1566 O   0  0  0  0  0  0  0  0  0  0  0  0
    4.0448   -1.4175   -1.9893 O   0  0  0  0  0  0  0  0  0  0  0  0
    4.0585   -2.7082   -1.3744 C   0  0  2  0  0  0  0  0  0  0  0  0
    2.6526   -3.2836   -1.4549 C   0  0  0  0  0  0  0  0  0  0  0  0
    2.0480   -4.2348   -0.7228 C   0  0  0  0  0  0  0  0  0  0  0  0
    2.6193   -5.0693    0.3520 C   0  0  0  0  0  0  0  0  0  0  0  0
    1.8697   -5.7414    1.0589 O   0  0  0  0  0  0  0  0  0  0  0  0
    4.1490   -5.1380    0.5568 C   0  0  2  0  0  0  0  0  0  0  0  0
    4.7034   -5.5722   -0.6714 O   0  0  0  0  0  0  0  0  0  0  0  0
    4.6289   -6.1602    1.6495 C   0  0  1  0  0  0  0  0  0  0  0  0
    6.1804   -6.3118    1.6444 C   0  0  0  0  0  0  0  0  0  0  0  0
    6.9985   -5.0638    1.3240 C   0  0  0  0  0  0  0  0  0  0  0  0
    8.4010   -4.9474    1.2754 C   0  0  0  0  0  0  0  0  0  0  0  0
    8.9786   -3.7187    0.8661 C   0  0  0  0  0  0  0  0  0  0  0  0
    8.1724   -2.6320    0.4551 C   0  0  0  0  0  0  0  0  0  0  0  0
    8.7364   -1.4561    0.0752 O   0  0  0  0  0  0  0  0  0  0  0  0
    6.7721   -2.7404    0.4645 C   0  0  0  0  0  0  0  0  0  0  0  0
    6.2586   -3.9193    0.9556 C   0  0  0  0  0  0  0  0  0  0  0  0
    4.7625   -3.7747    0.9705 C   0  0  2  0  0  0  0  0  0  0  0  0
    4.2558   -3.4244    2.4053 C   0  0  0  0  0  0  0  0  0  0  0  0
    4.5357   -4.5227    3.4417 C   0  0  0  0  0  0  0  0  0  0  0  0
    4.0971   -5.8358    2.9876 N   0  0  0  0  0  0  0  0  0  0  0  0
    4.3109   -6.8703    3.9981 C   0  0  0  0  0  0  0  0  0  0  0  0
    4.5501   -2.4938    0.0787 C   0  0  1  0  0  0  0  0  0  0  0  0
    5.8361   -1.8374    0.0507 O   0  0  0  0  0  0  0  0  0  0  0  0
    4.5948    0.8246   -3.3404 H   0  0  0  0  0  0  0  0  0  0  0  0
    2.8639    0.5017   -3.4735 H   0  0  0  0  0  0  0  0  0  0  0  0
    3.9029    0.2491   -4.8717 H   0  0  0  0  0  0  0  0  0  0  0  0
    4.7447   -3.3557   -1.9257 H   0  0  0  0  0  0  0  0  0  0  0  0
    2.0409   -2.8162   -2.2132 H   0  0  0  0  0  0  0  0  0  0  0  0
    1.0241   -4.4489   -1.0085 H   0  0  0  0  0  0  0  0  0  0  0  0
    5.6403   -5.6449   -0.5790 H   0  0  0  0  0  0  0  0  0  0  0  0
    4.2287   -7.1351    1.3821 H   0  0  0  0  0  0  0  0  0  0  0  0
    6.5593   -6.7454    2.5696 H   0  0  0  0  0  0  0  0  0  0  0  0
    6.4452   -7.0292    0.8780 H   0  0  0  0  0  0  0  0  0  0  0  0
    9.0299   -5.7831    1.5680 H   0  0  0  0  0  0  0  0  0  0  0  0
   10.0403   -3.5830    0.8973 H   0  0  0  0  0  0  0  0  0  0  0  0
    9.6514   -1.4943   -0.2122 H   0  0  0  0  0  0  0  0  0  0  0  0
    4.6855   -2.4818    2.7523 H   0  0  0  0  0  0  0  0  0  0  0  0
    3.1767   -3.2613    2.3762 H   0  0  0  0  0  0  0  0  0  0  0  0
    5.5979   -4.5392    3.6766 H   0  0  0  0  0  0  0  0  0  0  0  0
    4.0189   -4.2722    4.3689 H   0  0  0  0  0  0  0  0  0  0  0  0
    3.7435   -6.6431    4.9019 H   0  0  0  0  0  0  0  0  0  0  0  0
    5.3566   -6.9458    4.2961 H   0  0  0  0  0  0  0  0  0  0  0  0
    3.9861   -7.8498    3.6457 H   0  0  0  0  0  0  0  0  0  0  0  0
    3.8414   -1.8120    0.5565 H   0  0  0  0  0  0  0  0  0  0  0  0
  1  2  1  0
  1 28  1  0
  1 29  1  0
  1 30  1  0
  2  3  2  0
  2  4  1  0
  4  5  1  0
  5 26  1  0
  5  6  1  0
  5 31  1  6
  6  7  2  0
  6 32  1  0
  7  8  1  0
  7 33  1  0
  8  9  2  0
  8 10  1  0
 10 21  1  0
 10 11  1  6
 10 12  1  0
 11 34  1  0
 12 24  1  0
 12 13  1  0
 12 35  1  6
 13 14  1  0
 13 36  1  0
 13 37  1  0
 14 20  2  0
 14 15  1  0
 15 16  2  0
 15 38  1  0
 16 17  1  0
 16 39  1  0
 17 18  1  0
 17 19  2  0
 18 40  1  0
 19 27  1  0
 19 20  1  0
 20 21  1  0
 21 22  1  1
 21 26  1  0
 22 23  1  0
 22 41  1  0
 22 42  1  0
 23 24  1  0
 23 43  1  0
 23 44  1  0
 24 25  1  0
 25 45  1  0
 25 46  1  0
 25 47  1  0
 26 27  1  0
 26 48  1  1
M  END
>  <i_m_ct_stereo_status>  (195) 
1

>  <s_m_source_file>  (195) 
/var/tmp/pbs.5076255.sched01/tmpnk13i6y_/41i0yhob8r.sdf

>  <i_m_source_file_index>  (195) 
41

>  <i_lp_mmshare_version>  (195) 
48012

>  <i_f3d_flags>  (195) 
0

>  <s_epik_input>  (195) 
Tz1DMVtDSF09W0NIXVtDQEBIXShPQyg9TylbQ0gzXSlbQ0BASF0yT2MoYyhbT0hdKVtjSF1bY0hdMyljNGMzW0NIMl1bQ0BIXShbQ0BAXTEoW0NAXTI0NSlbT0hdKU4oW0NIM10pW0NIMl1bQ0gyXTU=

>  <s_epik_cmdline>  (195) 
J2VwaWtfcHl0aG9uJywgJy1waHQnLCAnMi4wJywgJy1waCcsICc3LjAnLCAnLXRuJywgJzgnLCAnLW1hJywgJzIwMCcsICctaW1hZScsICc8aW5maWxlLm1hZT4nLCAnLW9tYWUnLCAnPG91dGZpbGUubWFlPic=

>  <r_lp_tautomer_probability>  (195) 
1

>  <r_epik_Ionization_Penalty>  (195) 
0.387366

>  <r_epik_Ionization_Penalty_Charging>  (195) 
0

>  <r_epik_Ionization_Penalty_Neutral>  (195) 
0.387366

>  <r_epik_State_Penalty>  (195) 
0.396462

>  <r_epik_Charging_Adjusted_Penalty>  (195) 
0.396462

>  <i_epik_Tot_Q>  (195) 
0

>  <i_epik_Tot_abs_Q>  (195) 
0

>  <s_epik_Chemistry_Notes>  (195) 
This compound has an ester and may undergo hydrolysis at high or low pH.

>  <s_lp_Force_Field>  (195) 
OPLS3e

>  <r_lp_Energy>  (195) 
50.2657

>  <b_lp_Chiralities_Consistent>  (195) 
1

>  <s_lp_Variant>  (195) 
67:0-1

>  <s_i_glide_gridfile>  (195) 
pfpi4k_grid

>  <i_i_glide_lignum>  (195) 
41

>  <i_i_glide_rotatable_bonds>  (195) 
4

>  <r_i_docking_score>  (195) 
-4.06624

>  <r_i_glide_ligand_efficiency>  (195) 
-0.150602

>  <r_i_glide_ligand_efficiency_sa>  (195) 
-0.451805

>  <r_i_glide_ligand_efficiency_ln>  (195) 
-0.946555

>  <r_i_glide_gscore>  (195) 
-4.06624

>  <r_i_glide_lipo>  (195) 
-0.897636

>  <r_i_glide_hbond>  (195) 
-0.358353

>  <r_i_glide_metal>  (195) 
-0

>  <r_i_glide_rewards>  (195) 
-1.06285

>  <r_i_glide_evdw>  (195) 
-20.8493

>  <r_i_glide_ecoul>  (195) 
-5.33137

>  <r_i_glide_erotb>  (195) 
0.139949

>  <r_i_glide_esite>  (195) 
-0.0451842

>  <r_i_glide_emodel>  (195) 
-34.0483

>  <r_i_glide_energy>  (195) 
-26.1806

>  <r_i_glide_einternal>  (195) 
1.07233

>  <r_i_glide_intrahb_reward>  (195) 
-0

>  <i_i_glide_confnum>  (195) 
1

>  <i_i_glide_posenum>  (195) 
38

>  <r_i_glide_eff_state_penalty>  (195) 
0

>  <ligand_id>  (195) 
67

>  <original_smiles>  (195) 
CC(=O)OC1C=CC(=O)C2(O)C3Cc4ccc(O)c5c4C2(CCN3C)C1O5

>  <smiles>  (195) 
[H]Oc1c([H])c([H])c2c3c1OC1([H])C([H])(OC(=O)C([H])([H])[H])C([H])=C([H])C(=O)C4(O[H])C([H])(N(C([H])([H])[H])C([H])([H])C([H])([H])C314)C2([H])[H]

$$$$
67:1:0
     RDKit          3D

 49 53  0  0  1  0  0  0  0  0999 V2000
    3.8381    0.0605   -3.8348 C   0  0  0  0  0  0  0  0  0  0  0  0
    4.0439   -1.3789   -3.3800 C   0  0  0  0  0  0  0  0  0  0  0  0
    4.1489   -2.2943   -4.1958 O   0  0  0  0  0  0  0  0  0  0  0  0
    4.0716   -1.5035   -2.0338 O   0  0  0  0  0  0  0  0  0  0  0  0
    4.0710   -2.7867   -1.4079 C   0  0  2  0  0  0  0  0  0  0  0  0
    2.6544   -3.3371   -1.4689 C   0  0  0  0  0  0  0  0  0  0  0  0
    2.0354   -4.2578   -0.7131 C   0  0  0  0  0  0  0  0  0  0  0  0
    2.6064   -5.0827    0.3789 C   0  0  0  0  0  0  0  0  0  0  0  0
    1.8773   -5.7127    1.1461 O   0  0  0  0  0  0  0  0  0  0  0  0
    4.1280   -5.1918    0.5579 C   0  0  2  0  0  0  0  0  0  0  0  0
    4.6364   -5.6664   -0.6763 O   0  0  0  0  0  0  0  0  0  0  0  0
    4.6008   -6.2206    1.6546 C   0  0  1  0  0  0  0  0  0  0  0  0
    6.1467   -6.3921    1.6444 C   0  0  0  0  0  0  0  0  0  0  0  0
    6.9810   -5.1467    1.3631 C   0  0  0  0  0  0  0  0  0  0  0  0
    8.3840   -5.0537    1.3317 C   0  0  0  0  0  0  0  0  0  0  0  0
    8.9797   -3.8475    0.8884 C   0  0  0  0  0  0  0  0  0  0  0  0
    8.1961   -2.7518    0.4504 C   0  0  0  0  0  0  0  0  0  0  0  0
    8.7870   -1.5858    0.0773 O   0  0  0  0  0  0  0  0  0  0  0  0
    6.7915   -2.8420    0.4462 C   0  0  0  0  0  0  0  0  0  0  0  0
    6.2603   -4.0022    0.9562 C   0  0  0  0  0  0  0  0  0  0  0  0
    4.7679   -3.8350    0.9532 C   0  0  2  0  0  0  0  0  0  0  0  0
    4.2715   -3.4508    2.3840 C   0  0  0  0  0  0  0  0  0  0  0  0
    4.5947   -4.5048    3.4486 C   0  0  0  0  0  0  0  0  0  0  0  0
    4.1176   -5.8433    3.0227 N   0  0  2  0  0  0  0  0  0  0  0  0
    4.3301   -6.8735    4.0757 C   0  0  0  0  0  0  0  0  0  0  0  0
    4.5761   -2.5645    0.0389 C   0  0  1  0  0  0  0  0  0  0  0  0
    5.8708   -1.9349    0.0014 O   0  0  0  0  0  0  0  0  0  0  0  0
    4.6061    0.7148   -3.4217 H   0  0  0  0  0  0  0  0  0  0  0  0
    2.8683    0.4133   -3.4898 H   0  0  0  0  0  0  0  0  0  0  0  0
    3.8536    0.1352   -4.9234 H   0  0  0  0  0  0  0  0  0  0  0  0
    4.7368   -3.4570   -1.9545 H   0  0  0  0  0  0  0  0  0  0  0  0
    2.0389   -2.8787   -2.2277 H   0  0  0  0  0  0  0  0  0  0  0  0
    1.0139   -4.4756   -0.9935 H   0  0  0  0  0  0  0  0  0  0  0  0
    3.9338   -5.8480   -1.2927 H   0  0  0  0  0  0  0  0  0  0  0  0
    4.1634   -7.1939    1.4452 H   0  0  0  0  0  0  0  0  0  0  0  0
    6.5262   -6.8684    2.5458 H   0  0  0  0  0  0  0  0  0  0  0  0
    6.4009   -7.0902    0.8551 H   0  0  0  0  0  0  0  0  0  0  0  0
    9.0002   -5.8839    1.6648 H   0  0  0  0  0  0  0  0  0  0  0  0
   10.0415   -3.7182    0.9613 H   0  0  0  0  0  0  0  0  0  0  0  0
    9.6885   -1.6506   -0.2324 H   0  0  0  0  0  0  0  0  0  0  0  0
    4.6999   -2.5022    2.6976 H   0  0  0  0  0  0  0  0  0  0  0  0
    3.1902   -3.2909    2.3791 H   0  0  0  0  0  0  0  0  0  0  0  0
    5.6630   -4.5244    3.6573 H   0  0  0  0  0  0  0  0  0  0  0  0
    4.1176   -4.2379    4.3888 H   0  0  0  0  0  0  0  0  0  0  0  0
    5.3710   -6.9405    4.3868 H   0  0  0  0  0  0  0  0  0  0  0  0
    4.0074   -7.8581    3.7463 H   0  0  0  0  0  0  0  0  0  0  0  0
    3.7574   -6.6202    4.9643 H   0  0  0  0  0  0  0  0  0  0  0  0
    3.8922   -1.8597    0.5133 H   0  0  0  0  0  0  0  0  0  0  0  0
    3.1094   -5.7722    2.9268 H   0  0  0  0  0  0  0  0  0  0  0  0
  1  2  1  0
  1 28  1  0
  1 29  1  0
  1 30  1  0
  2  3  2  0
  2  4  1  0
  4  5  1  0
  5 26  1  0
  5  6  1  0
  5 31  1  6
  6  7  2  0
  6 32  1  0
  7  8  1  0
  7 33  1  0
  8  9  2  0
  8 10  1  0
 10 21  1  0
 10 11  1  6
 10 12  1  0
 11 34  1  0
 12 24  1  0
 12 13  1  0
 12 35  1  6
 13 14  1  0
 13 36  1  0
 13 37  1  0
 14 20  2  0
 14 15  1  0
 15 16  2  0
 15 38  1  0
 16 17  1  0
 16 39  1  0
 17 18  1  0
 17 19  2  0
 18 40  1  0
 19 27  1  0
 19 20  1  0
 20 21  1  0
 21 22  1  1
 21 26  1  0
 22 23  1  0
 22 41  1  0
 22 42  1  0
 23 24  1  0
 23 43  1  0
 23 44  1  0
 24 25  1  0
 24 49  1  6
 25 45  1  0
 25 46  1  0
 25 47  1  0
 26 27  1  0
 26 48  1  1
M  CHG  1  24   1
M  END
>  <i_m_ct_stereo_status>  (196) 
1

>  <s_m_source_file>  (196) 
/var/tmp/pbs.5076255.sched01/tmpelb551ou/82hj6rxffr.sdf

>  <i_m_source_file_index>  (196) 
1

>  <i_lp_mmshare_version>  (196) 
48012

>  <i_f3d_flags>  (196) 
0

>  <s_epik_input>  (196) 
Tz1DMVtDSF09W0NIXVtDQEBIXShPQyg9TylbQ0gzXSlbQ0BASF0yT2MoYyhbT0hdKVtjSF1bY0hdMyljNGMzW0NIMl1bQ0BIXShbQ0BAXTEoW0NAXTI0NSlbT0hdKU4oW0NIM10pW0NIMl1bQ0gyXTU=

>  <s_epik_cmdline>  (196) 
J2VwaWtfcHl0aG9uJywgJy1waHQnLCAnMi4wJywgJy1waCcsICc3LjAnLCAnLXRuJywgJzgnLCAnLW1hJywgJzIwMCcsICctaW1hZScsICc8aW5maWxlLm1hZT4nLCAnLW9tYWUnLCAnPG91dGZpbGUubWFlPic=

>  <r_lp_tautomer_probability>  (196) 
1

>  <r_epik_Ionization_Penalty>  (196) 
0.4867

>  <r_epik_Ionization_Penalty_Charging>  (196) 
0.441332

>  <r_epik_Ionization_Penalty_Neutral>  (196) 
0.0453673

>  <r_epik_State_Penalty>  (196) 
0.46027

>  <r_epik_Charging_Adjusted_Penalty>  (196) 
0.901603

>  <i_epik_Tot_Q>  (196) 
1

>  <i_epik_Tot_abs_Q>  (196) 
1

>  <s_epik_Chemistry_Notes>  (196) 
This compound has an ester and may undergo hydrolysis at high or low pH.

>  <s_lp_Force_Field>  (196) 
OPLS3e

>  <r_lp_Energy>  (196) 
53.7332

>  <b_lp_Chiralities_Consistent>  (196) 
1

>  <s_lp_Variant>  (196) 
67:0-2

>  <s_i_glide_gridfile>  (196) 
pfpi4k_grid

>  <i_i_glide_lignum>  (196) 
1

>  <i_i_glide_rotatable_bonds>  (196) 
4

>  <r_i_docking_score>  (196) 
-5.76981

>  <r_i_glide_ligand_efficiency>  (196) 
-0.213697

>  <r_i_glide_ligand_efficiency_sa>  (196) 
-0.64109

>  <r_i_glide_ligand_efficiency_ln>  (196) 
-1.34312

>  <r_i_glide_gscore>  (196) 
-5.76981

>  <r_i_glide_lipo>  (196) 
-0.968456

>  <r_i_glide_hbond>  (196) 
-0.338004

>  <r_i_glide_metal>  (196) 
-0

>  <r_i_glide_rewards>  (196) 
-1.568

>  <r_i_glide_evdw>  (196) 
-20.2673

>  <r_i_glide_ecoul>  (196) 
-13.1755

>  <r_i_glide_erotb>  (196) 
0.139272

>  <r_i_glide_esite>  (196) 
-0.0449273

>  <r_i_glide_emodel>  (196) 
-47.6984

>  <r_i_glide_energy>  (196) 
-33.4428

>  <r_i_glide_einternal>  (196) 
5.30071

>  <r_i_glide_intrahb_reward>  (196) 
-0.5

>  <i_i_glide_confnum>  (196) 
1

>  <i_i_glide_posenum>  (196) 
6

>  <r_i_glide_eff_state_penalty>  (196) 
0

>  <ligand_id>  (196) 
67

>  <original_smiles>  (196) 
CC(=O)OC1C=CC(=O)C2(O)C3Cc4ccc(O)c5c4C2(CCN3C)C1O5

>  <smiles>  (196) 
[H]Oc1c([H])c([H])c2c3c1OC1([H])C([H])(OC(=O)C([H])([H])[H])C([H])=C([H])C(=O)C4(O[H])C31C([H])([H])C([H])([H])[N+]([H])(C([H])([H])[H])C4([H])C2([H])[H]

$$$$
67:1:1
     RDKit          3D

 49 53  0  0  1  0  0  0  0  0999 V2000
    3.6507   -0.1646   -3.5408 C   0  0  0  0  0  0  0  0  0  0  0  0
    3.8908   -1.6007   -3.0881 C   0  0  0  0  0  0  0  0  0  0  0  0
    4.1437   -2.4898   -3.9024 O   0  0  0  0  0  0  0  0  0  0  0  0
    3.7933   -1.7446   -1.7461 O   0  0  0  0  0  0  0  0  0  0  0  0
    3.9136   -3.0215   -1.1187 C   0  0  2  0  0  0  0  0  0  0  0  0
    2.5408   -3.6819   -1.0856 C   0  0  0  0  0  0  0  0  0  0  0  0
    2.0606   -4.6797   -0.3180 C   0  0  0  0  0  0  0  0  0  0  0  0
    2.7612   -5.4566    0.7311 C   0  0  0  0  0  0  0  0  0  0  0  0
    2.1368   -6.1496    1.5317 O   0  0  0  0  0  0  0  0  0  0  0  0
    4.2932   -5.4301    0.8056 C   0  0  2  0  0  0  0  0  0  0  0  0
    4.7534   -5.8694   -0.4520 O   0  0  0  0  0  0  0  0  0  0  0  0
    4.9286   -6.4327    1.8406 C   0  0  1  0  0  0  0  0  0  0  0  0
    6.4838   -6.4756    1.7131 C   0  0  0  0  0  0  0  0  0  0  0  0
    7.1815   -5.1541    1.4055 C   0  0  0  0  0  0  0  0  0  0  0  0
    8.5705   -4.9412    1.2977 C   0  0  0  0  0  0  0  0  0  0  0  0
    9.0275   -3.6797    0.8558 C   0  0  0  0  0  0  0  0  0  0  0  0
    8.1304   -2.6605    0.4713 C   0  0  0  0  0  0  0  0  0  0  0  0
    8.6180   -1.4574    0.0812 O   0  0  0  0  0  0  0  0  0  0  0  0
    6.7442   -2.8679    0.5413 C   0  0  0  0  0  0  0  0  0  0  0  0
    6.3433   -4.0736    1.0663 C   0  0  0  0  0  0  0  0  0  0  0  0
    4.8466   -4.0291    1.1682 C   0  0  2  0  0  0  0  0  0  0  0  0
    4.4207   -3.7075    2.6335 C   0  0  0  0  0  0  0  0  0  0  0  0
    4.9034   -4.7404    3.6582 C   0  0  0  0  0  0  0  0  0  0  0  0
    4.5107   -6.1100    3.2436 N   0  0  2  0  0  0  0  0  0  0  0  0
    4.8788   -7.1308    4.2641 C   0  0  0  0  0  0  0  0  0  0  0  0
    4.4934   -2.7725    0.2909 C   0  0  1  0  0  0  0  0  0  0  0  0
    5.7262   -2.0401    0.1694 O   0  0  0  0  0  0  0  0  0  0  0  0
    4.3378    0.5196   -3.0422 H   0  0  0  0  0  0  0  0  0  0  0  0
    2.6324    0.1385   -3.2961 H   0  0  0  0  0  0  0  0  0  0  0  0
    3.7843   -0.0678   -4.6196 H   0  0  0  0  0  0  0  0  0  0  0  0
    4.5867   -3.6441   -1.7108 H   0  0  0  0  0  0  0  0  0  0  0  0
    1.8504   -3.2648   -1.8115 H   0  0  0  0  0  0  0  0  0  0  0  0
    1.0426   -4.9888   -0.5255 H   0  0  0  0  0  0  0  0  0  0  0  0
    4.2079   -5.5046   -1.1400 H   0  0  0  0  0  0  0  0  0  0  0  0
    4.5567   -7.4375    1.6438 H   0  0  0  0  0  0  0  0  0  0  0  0
    6.9567   -6.9316    2.5793 H   0  0  0  0  0  0  0  0  0  0  0  0
    6.7342   -7.1399    0.8866 H   0  0  0  0  0  0  0  0  0  0  0  0
    9.2686   -5.7274    1.5649 H   0  0  0  0  0  0  0  0  0  0  0  0
   10.0770   -3.4573    0.8348 H   0  0  0  0  0  0  0  0  0  0  0  0
    9.5296   -1.4534   -0.2045 H   0  0  0  0  0  0  0  0  0  0  0  0
    4.7894   -2.7286    2.9336 H   0  0  0  0  0  0  0  0  0  0  0  0
    3.3329   -3.6409    2.7054 H   0  0  0  0  0  0  0  0  0  0  0  0
    5.9825   -4.6758    3.7940 H   0  0  0  0  0  0  0  0  0  0  0  0
    4.4713   -4.5266    4.6324 H   0  0  0  0  0  0  0  0  0  0  0  0
    5.9436   -7.1132    4.5041 H   0  0  0  0  0  0  0  0  0  0  0  0
    4.6149   -8.1382    3.9412 H   0  0  0  0  0  0  0  0  0  0  0  0
    4.3470   -6.9329    5.1945 H   0  0  0  0  0  0  0  0  0  0  0  0
    3.7884   -2.1291    0.8193 H   0  0  0  0  0  0  0  0  0  0  0  0
    3.4964   -6.1246    3.2160 H   0  0  0  0  0  0  0  0  0  0  0  0
  1  2  1  0
  1 28  1  0
  1 29  1  0
  1 30  1  0
  2  3  2  0
  2  4  1  0
  4  5  1  0
  5 26  1  0
  5  6  1  0
  5 31  1  6
  6  7  2  0
  6 32  1  0
  7  8  1  0
  7 33  1  0
  8  9  2  0
  8 10  1  0
 10 21  1  0
 10 11  1  6
 10 12  1  0
 11 34  1  0
 12 24  1  0
 12 13  1  0
 12 35  1  6
 13 14  1  0
 13 36  1  0
 13 37  1  0
 14 20  2  0
 14 15  1  0
 15 16  2  0
 15 38  1  0
 16 17  1  0
 16 39  1  0
 17 18  1  0
 17 19  2  0
 18 40  1  0
 19 27  1  0
 19 20  1  0
 20 21  1  0
 21 22  1  1
 21 26  1  0
 22 23  1  0
 22 41  1  0
 22 42  1  0
 23 24  1  0
 23 43  1  0
 23 44  1  0
 24 25  1  0
 24 49  1  6
 25 45  1  0
 25 46  1  0
 25 47  1  0
 26 27  1  0
 26 48  1  1
M  CHG  1  24   1
M  END
>  <i_m_ct_stereo_status>  (197) 
1

>  <s_m_source_file>  (197) 
/var/tmp/pbs.5076255.sched01/tmpelb551ou/82hj6rxffr.sdf

>  <i_m_source_file_index>  (197) 
1

>  <i_lp_mmshare_version>  (197) 
48012

>  <i_f3d_flags>  (197) 
0

>  <s_epik_input>  (197) 
Tz1DMVtDSF09W0NIXVtDQEBIXShPQyg9TylbQ0gzXSlbQ0BASF0yT2MoYyhbT0hdKVtjSF1bY0hdMyljNGMzW0NIMl1bQ0BIXShbQ0BAXTEoW0NAXTI0NSlbT0hdKU4oW0NIM10pW0NIMl1bQ0gyXTU=

>  <s_epik_cmdline>  (197) 
J2VwaWtfcHl0aG9uJywgJy1waHQnLCAnMi4wJywgJy1waCcsICc3LjAnLCAnLXRuJywgJzgnLCAnLW1hJywgJzIwMCcsICctaW1hZScsICc8aW5maWxlLm1hZT4nLCAnLW9tYWUnLCAnPG91dGZpbGUubWFlPic=

>  <r_lp_tautomer_probability>  (197) 
1

>  <r_epik_Ionization_Penalty>  (197) 
0.4867

>  <r_epik_Ionization_Penalty_Charging>  (197) 
0.441332

>  <r_epik_Ionization_Penalty_Neutral>  (197) 
0.0453673

>  <r_epik_State_Penalty>  (197) 
0.46027

>  <r_epik_Charging_Adjusted_Penalty>  (197) 
0.901603

>  <i_epik_Tot_Q>  (197) 
1

>  <i_epik_Tot_abs_Q>  (197) 
1

>  <s_epik_Chemistry_Notes>  (197) 
This compound has an ester and may undergo hydrolysis at high or low pH.

>  <s_lp_Force_Field>  (197) 
OPLS3e

>  <r_lp_Energy>  (197) 
53.7332

>  <b_lp_Chiralities_Consistent>  (197) 
1

>  <s_lp_Variant>  (197) 
67:0-2

>  <s_i_glide_gridfile>  (197) 
pfpi4k_grid

>  <i_i_glide_lignum>  (197) 
1

>  <i_i_glide_rotatable_bonds>  (197) 
4

>  <r_i_docking_score>  (197) 
-4.81495

>  <r_i_glide_ligand_efficiency>  (197) 
-0.178331

>  <r_i_glide_ligand_efficiency_sa>  (197) 
-0.534994

>  <r_i_glide_ligand_efficiency_ln>  (197) 
-1.12084

>  <r_i_glide_gscore>  (197) 
-4.81495

>  <r_i_glide_lipo>  (197) 
-0.905094

>  <r_i_glide_hbond>  (197) 
-0.147797

>  <r_i_glide_metal>  (197) 
-0

>  <r_i_glide_rewards>  (197) 
-1.4412

>  <r_i_glide_evdw>  (197) 
-22.4021

>  <r_i_glide_ecoul>  (197) 
-8.45188

>  <r_i_glide_erotb>  (197) 
0.0974904

>  <r_i_glide_esite>  (197) 
-0.0304577

>  <r_i_glide_emodel>  (197) 
-43.7493

>  <r_i_glide_energy>  (197) 
-30.8539

>  <r_i_glide_einternal>  (197) 
2.75392

>  <r_i_glide_intrahb_reward>  (197) 
-0.5

>  <i_i_glide_confnum>  (197) 
1

>  <i_i_glide_posenum>  (197) 
23

>  <r_i_glide_eff_state_penalty>  (197) 
0

>  <ligand_id>  (197) 
67

>  <original_smiles>  (197) 
CC(=O)OC1C=CC(=O)C2(O)C3Cc4ccc(O)c5c4C2(CCN3C)C1O5

>  <smiles>  (197) 
[H]Oc1c([H])c([H])c2c3c1OC1([H])C([H])(OC(=O)C([H])([H])[H])C([H])=C([H])C(=O)C4(O[H])C31C([H])([H])C([H])([H])[N+]([H])(C([H])([H])[H])C4([H])C2([H])[H]

$$$$
67:1:2
     RDKit          3D

 49 53  0  0  1  0  0  0  0  0999 V2000
    1.4503    2.5312    2.2725 C   0  0  0  0  0  0  0  0  0  0  0  0
    1.4687    1.0132    2.1361 C   0  0  0  0  0  0  0  0  0  0  0  0
    0.4477    0.3428    2.3040 O   0  0  0  0  0  0  0  0  0  0  0  0
    2.7070    0.5253    1.8832 O   0  0  0  0  0  0  0  0  0  0  0  0
    2.9742   -0.8796    1.8885 C   0  0  2  0  0  0  0  0  0  0  0  0
    2.9171   -1.3915    3.3315 C   0  0  0  0  0  0  0  0  0  0  0  0
    3.4666   -2.4798    3.9117 C   0  0  0  0  0  0  0  0  0  0  0  0
    4.2358   -3.5583    3.2477 C   0  0  0  0  0  0  0  0  0  0  0  0
    4.8990   -4.3608    3.9060 O   0  0  0  0  0  0  0  0  0  0  0  0
    4.2232   -3.7060    1.7112 C   0  0  2  0  0  0  0  0  0  0  0  0
    2.8644   -3.8551    1.3204 O   0  0  0  0  0  0  0  0  0  0  0  0
    4.9809   -4.9819    1.1762 C   0  0  1  0  0  0  0  0  0  0  0  0
    4.7672   -5.1450   -0.3516 C   0  0  0  0  0  0  0  0  0  0  0  0
    4.7826   -3.8665   -1.1937 C   0  0  0  0  0  0  0  0  0  0  0  0
    4.6823   -3.7641   -2.5928 C   0  0  0  0  0  0  0  0  0  0  0  0
    4.5177   -2.4949   -3.1934 C   0  0  0  0  0  0  0  0  0  0  0  0
    4.4084   -1.3285   -2.4033 C   0  0  0  0  0  0  0  0  0  0  0  0
    4.2109   -0.1267   -3.0078 O   0  0  0  0  0  0  0  0  0  0  0  0
    4.5027   -1.4066   -0.9987 C   0  0  0  0  0  0  0  0  0  0  0  0
    4.7374   -2.6596   -0.4750 C   0  0  0  0  0  0  0  0  0  0  0  0
    4.9032   -2.5000    1.0062 C   0  0  2  0  0  0  0  0  0  0  0  0
    6.4263   -2.4955    1.3533 C   0  0  0  0  0  0  0  0  0  0  0  0
    7.1508   -3.7946    0.9716 C   0  0  0  0  0  0  0  0  0  0  0  0
    6.4402   -4.9703    1.5269 N   0  0  2  0  0  0  0  0  0  0  0  0
    7.1707   -6.2385    1.2568 C   0  0  0  0  0  0  0  0  0  0  0  0
    4.3718   -1.0368    1.2427 C   0  0  1  0  0  0  0  0  0  0  0  0
    4.3800   -0.4243   -0.0624 O   0  0  0  0  0  0  0  0  0  0  0  0
    1.8141    3.0064    1.3641 H   0  0  0  0  0  0  0  0  0  0  0  0
    2.0882    2.8385    3.1000 H   0  0  0  0  0  0  0  0  0  0  0  0
    0.4418    2.8937    2.4806 H   0  0  0  0  0  0  0  0  0  0  0  0
    2.2100   -1.3754    1.2866 H   0  0  0  0  0  0  0  0  0  0  0  0
    2.3641   -0.7400    3.9936 H   0  0  0  0  0  0  0  0  0  0  0  0
    3.2842   -2.5996    4.9719 H   0  0  0  0  0  0  0  0  0  0  0  0
    2.8233   -3.8251    0.3753 H   0  0  0  0  0  0  0  0  0  0  0  0
    4.5689   -5.8676    1.6633 H   0  0  0  0  0  0  0  0  0  0  0  0
    5.4600   -5.8618   -0.7802 H   0  0  0  0  0  0  0  0  0  0  0  0
    3.7949   -5.6045   -0.5031 H   0  0  0  0  0  0  0  0  0  0  0  0
    4.6839   -4.6531   -3.2089 H   0  0  0  0  0  0  0  0  0  0  0  0
    4.4315   -2.4180   -4.2632 H   0  0  0  0  0  0  0  0  0  0  0  0
    3.9907    0.5513   -2.3889 H   0  0  0  0  0  0  0  0  0  0  0  0
    6.9369   -1.6622    0.8745 H   0  0  0  0  0  0  0  0  0  0  0  0
    6.5498   -2.3335    2.4248 H   0  0  0  0  0  0  0  0  0  0  0  0
    7.2484   -3.8759   -0.1122 H   0  0  0  0  0  0  0  0  0  0  0  0
    8.1719   -3.7813    1.3549 H   0  0  0  0  0  0  0  0  0  0  0  0
    7.3627   -6.3784    0.1937 H   0  0  0  0  0  0  0  0  0  0  0  0
    6.6252   -7.1062    1.6321 H   0  0  0  0  0  0  0  0  0  0  0  0
    8.1446   -6.2245    1.7470 H   0  0  0  0  0  0  0  0  0  0  0  0
    5.0789   -0.4762    1.8580 H   0  0  0  0  0  0  0  0  0  0  0  0
    6.4583   -4.8687    2.5404 H   0  0  0  0  0  0  0  0  0  0  0  0
  1  2  1  0
  1 28  1  0
  1 29  1  0
  1 30  1  0
  2  3  2  0
  2  4  1  0
  4  5  1  0
  5 26  1  0
  5  6  1  0
  5 31  1  6
  6  7  2  0
  6 32  1  0
  7  8  1  0
  7 33  1  0
  8  9  2  0
  8 10  1  0
 10 21  1  0
 10 11  1  6
 10 12  1  0
 11 34  1  0
 12 24  1  0
 12 13  1  0
 12 35  1  1
 13 14  1  0
 13 36  1  0
 13 37  1  0
 14 20  2  0
 14 15  1  0
 15 16  2  0
 15 38  1  0
 16 17  1  0
 16 39  1  0
 17 18  1  0
 17 19  2  0
 18 40  1  0
 19 27  1  0
 19 20  1  0
 20 21  1  0
 21 22  1  6
 21 26  1  0
 22 23  1  0
 22 41  1  0
 22 42  1  0
 23 24  1  0
 23 43  1  0
 23 44  1  0
 24 25  1  0
 24 49  1  1
 25 45  1  0
 25 46  1  0
 25 47  1  0
 26 27  1  0
 26 48  1  1
M  CHG  1  24   1
M  END
>  <i_m_ct_stereo_status>  (198) 
1

>  <s_m_source_file>  (198) 
/var/tmp/pbs.5076255.sched01/tmpelb551ou/82hj6rxffr.sdf

>  <i_m_source_file_index>  (198) 
1

>  <i_lp_mmshare_version>  (198) 
48012

>  <i_f3d_flags>  (198) 
0

>  <s_epik_input>  (198) 
Tz1DMVtDSF09W0NIXVtDQEBIXShPQyg9TylbQ0gzXSlbQ0BASF0yT2MoYyhbT0hdKVtjSF1bY0hdMyljNGMzW0NIMl1bQ0BIXShbQ0BAXTEoW0NAXTI0NSlbT0hdKU4oW0NIM10pW0NIMl1bQ0gyXTU=

>  <s_epik_cmdline>  (198) 
J2VwaWtfcHl0aG9uJywgJy1waHQnLCAnMi4wJywgJy1waCcsICc3LjAnLCAnLXRuJywgJzgnLCAnLW1hJywgJzIwMCcsICctaW1hZScsICc8aW5maWxlLm1hZT4nLCAnLW9tYWUnLCAnPG91dGZpbGUubWFlPic=

>  <r_lp_tautomer_probability>  (198) 
1

>  <r_epik_Ionization_Penalty>  (198) 
0.4867

>  <r_epik_Ionization_Penalty_Charging>  (198) 
0.441332

>  <r_epik_Ionization_Penalty_Neutral>  (198) 
0.0453673

>  <r_epik_State_Penalty>  (198) 
0.46027

>  <r_epik_Charging_Adjusted_Penalty>  (198) 
0.901603

>  <i_epik_Tot_Q>  (198) 
1

>  <i_epik_Tot_abs_Q>  (198) 
1

>  <s_epik_Chemistry_Notes>  (198) 
This compound has an ester and may undergo hydrolysis at high or low pH.

>  <s_lp_Force_Field>  (198) 
OPLS3e

>  <r_lp_Energy>  (198) 
53.7332

>  <b_lp_Chiralities_Consistent>  (198) 
1

>  <s_lp_Variant>  (198) 
67:0-2

>  <s_i_glide_gridfile>  (198) 
pfpi4k_grid

>  <i_i_glide_lignum>  (198) 
1

>  <i_i_glide_rotatable_bonds>  (198) 
4

>  <r_i_docking_score>  (198) 
-3.3458

>  <r_i_glide_ligand_efficiency>  (198) 
-0.123918

>  <r_i_glide_ligand_efficiency_sa>  (198) 
-0.371755

>  <r_i_glide_ligand_efficiency_ln>  (198) 
-0.778846

>  <r_i_glide_gscore>  (198) 
-3.3458

>  <r_i_glide_lipo>  (198) 
-0.493838

>  <r_i_glide_hbond>  (198) 
0

>  <r_i_glide_metal>  (198) 
-0

>  <r_i_glide_rewards>  (198) 
-1.3773

>  <r_i_glide_evdw>  (198) 
-27.3069

>  <r_i_glide_ecoul>  (198) 
-1.41952

>  <r_i_glide_erotb>  (198) 
0.139272

>  <r_i_glide_esite>  (198) 
-0.0356534

>  <r_i_glide_emodel>  (198) 
-40.0109

>  <r_i_glide_energy>  (198) 
-28.7264

>  <r_i_glide_einternal>  (198) 
1.29153

>  <r_i_glide_intrahb_reward>  (198) 
-0.5

>  <i_i_glide_confnum>  (198) 
5

>  <i_i_glide_posenum>  (198) 
39

>  <r_i_glide_eff_state_penalty>  (198) 
0

>  <ligand_id>  (198) 
67

>  <original_smiles>  (198) 
CC(=O)OC1C=CC(=O)C2(O)C3Cc4ccc(O)c5c4C2(CCN3C)C1O5

>  <smiles>  (198) 
[H]Oc1c([H])c([H])c2c3c1OC1([H])C([H])(OC(=O)C([H])([H])[H])C([H])=C([H])C(=O)C4(O[H])C31C([H])([H])C([H])([H])[N+]([H])(C([H])([H])[H])C4([H])C2([H])[H]

$$$$
67:2:0
     RDKit          3D

 48 52  0  0  1  0  0  0  0  0999 V2000
    3.8237    0.0288   -3.7579 C   0  0  0  0  0  0  0  0  0  0  0  0
    3.9935   -1.4148   -3.2996 C   0  0  0  0  0  0  0  0  0  0  0  0
    4.1988   -2.3163   -4.1111 O   0  0  0  0  0  0  0  0  0  0  0  0
    3.8825   -1.5598   -1.9621 O   0  0  0  0  0  0  0  0  0  0  0  0
    3.9382   -2.8495   -1.3496 C   0  0  2  0  0  0  0  0  0  0  0  0
    2.5418   -3.4538   -1.3968 C   0  0  0  0  0  0  0  0  0  0  0  0
    1.9659   -4.4183   -0.6616 C   0  0  0  0  0  0  0  0  0  0  0  0
    2.5894   -5.2236    0.4275 C   0  0  0  0  0  0  0  0  0  0  0  0
    1.9097   -5.8984    1.1959 O   0  0  0  0  0  0  0  0  0  0  0  0
    4.1145   -5.2716    0.5803 C   0  0  2  0  0  0  0  0  0  0  0  0
    4.6407   -5.7243   -0.6649 O   0  0  0  0  0  0  0  0  0  0  0  0
    4.6480   -6.3005    1.6490 C   0  0  1  0  0  0  0  0  0  0  0  0
    6.2016   -6.4096    1.6114 C   0  0  0  0  0  0  0  0  0  0  0  0
    6.9858   -5.1379    1.3418 C   0  0  0  0  0  0  0  0  0  0  0  0
    8.3830   -4.9863    1.2864 C   0  0  0  0  0  0  0  0  0  0  0  0
    8.9039   -3.7393    0.8528 C   0  0  0  0  0  0  0  0  0  0  0  0
    8.0431   -2.6868    0.4557 C   0  0  0  0  0  0  0  0  0  0  0  0
    8.5395   -1.4576    0.1456 O   0  0  0  0  0  0  0  0  0  0  0  0
    6.6499   -2.8312    0.4536 C   0  0  0  0  0  0  0  0  0  0  0  0
    6.2019   -4.0274    0.9602 C   0  0  0  0  0  0  0  0  0  0  0  0
    4.7102   -3.9064    0.9840 C   0  0  2  0  0  0  0  0  0  0  0  0
    4.2240   -3.5724    2.4252 C   0  0  0  0  0  0  0  0  0  0  0  0
    4.6073   -4.6329    3.4614 C   0  0  0  0  0  0  0  0  0  0  0  0
    4.1813   -5.9701    3.0203 N   0  0  2  0  0  0  0  0  0  0  0  0
    4.4494   -7.0011    4.0438 C   0  0  0  0  0  0  0  0  0  0  0  0
    4.4392   -2.6334    0.0937 C   0  0  1  0  0  0  0  0  0  0  0  0
    5.6902   -1.9462    0.0466 O   0  0  0  0  0  0  0  0  0  0  0  0
    4.5466    0.6790   -3.2644 H   0  0  0  0  0  0  0  0  0  0  0  0
    2.8233    0.3773   -3.5099 H   0  0  0  0  0  0  0  0  0  0  0  0
    3.9502    0.1166   -4.8386 H   0  0  0  0  0  0  0  0  0  0  0  0
    4.6248   -3.4895   -1.9093 H   0  0  0  0  0  0  0  0  0  0  0  0
    1.9098   -3.0055   -2.1470 H   0  0  0  0  0  0  0  0  0  0  0  0
    0.9447   -4.6724   -0.9241 H   0  0  0  0  0  0  0  0  0  0  0  0
    3.9448   -5.7619   -1.3314 H   0  0  0  0  0  0  0  0  0  0  0  0
    4.2603   -7.2905    1.4234 H   0  0  0  0  0  0  0  0  0  0  0  0
    6.6222   -6.8892    2.4866 H   0  0  0  0  0  0  0  0  0  0  0  0
    6.4791   -7.0743    0.7998 H   0  0  0  0  0  0  0  0  0  0  0  0
    9.0380   -5.7858    1.6046 H   0  0  0  0  0  0  0  0  0  0  0  0
    9.9634   -3.5464    0.9033 H   0  0  0  0  0  0  0  0  0  0  0  0
    4.6169   -2.6067    2.7494 H   0  0  0  0  0  0  0  0  0  0  0  0
    3.1382   -3.4490    2.4476 H   0  0  0  0  0  0  0  0  0  0  0  0
    5.6750   -4.5978    3.6575 H   0  0  0  0  0  0  0  0  0  0  0  0
    4.1485   -4.3934    4.4146 H   0  0  0  0  0  0  0  0  0  0  0  0
    5.4918   -7.0431    4.3497 H   0  0  0  0  0  0  0  0  0  0  0  0
    4.1671   -7.9970    3.7169 H   0  0  0  0  0  0  0  0  0  0  0  0
    3.8885   -6.8002    4.9536 H   0  0  0  0  0  0  0  0  0  0  0  0
    3.7440   -1.9565    0.5914 H   0  0  0  0  0  0  0  0  0  0  0  0
    3.1819   -5.9400    2.9474 H   0  0  0  0  0  0  0  0  0  0  0  0
  1  2  1  0
  1 28  1  0
  1 29  1  0
  1 30  1  0
  2  3  2  0
  2  4  1  0
  4  5  1  0
  5 26  1  0
  5  6  1  0
  5 31  1  6
  6  7  2  0
  6 32  1  0
  7  8  1  0
  7 33  1  0
  8  9  2  0
  8 10  1  0
 10 21  1  0
 10 11  1  6
 10 12  1  0
 11 34  1  0
 12 24  1  0
 12 13  1  0
 12 35  1  6
 13 14  1  0
 13 36  1  0
 13 37  1  0
 14 20  2  0
 14 15  1  0
 15 16  2  0
 15 38  1  0
 16 17  1  0
 16 39  1  0
 17 18  1  0
 17 19  2  0
 19 27  1  0
 19 20  1  0
 20 21  1  0
 21 22  1  1
 21 26  1  0
 22 23  1  0
 22 40  1  0
 22 41  1  0
 23 24  1  0
 23 42  1  0
 23 43  1  0
 24 25  1  0
 24 48  1  6
 25 44  1  0
 25 45  1  0
 25 46  1  0
 26 27  1  0
 26 47  1  1
M  CHG  2  18  -1  24   1
M  END
>  <i_m_ct_stereo_status>  (199) 
1

>  <s_m_source_file>  (199) 
/var/tmp/pbs.5076255.sched01/tmpelb551ou/82hj6rxffr.sdf

>  <i_m_source_file_index>  (199) 
2

>  <i_lp_mmshare_version>  (199) 
48012

>  <i_f3d_flags>  (199) 
0

>  <s_epik_input>  (199) 
Tz1DMVtDSF09W0NIXVtDQEBIXShPQyg9TylbQ0gzXSlbQ0BASF0yT2MoYyhbT0hdKVtjSF1bY0hdMyljNGMzW0NIMl1bQ0BIXShbQ0BAXTEoW0NAXTI0NSlbT0hdKU4oW0NIM10pW0NIMl1bQ0gyXTU=

>  <s_epik_cmdline>  (199) 
J2VwaWtfcHl0aG9uJywgJy1waHQnLCAnMi4wJywgJy1waCcsICc3LjAnLCAnLXRuJywgJzgnLCAnLW1hJywgJzIwMCcsICctaW1hZScsICc8aW5maWxlLm1hZT4nLCAnLW9tYWUnLCAnPG91dGZpbGUubWFlPic=

>  <r_epik_Ionization_Penalty>  (199) 
2.01056

>  <r_epik_Ionization_Penalty_Charging>  (199) 
2.00713

>  <r_epik_Ionization_Penalty_Neutral>  (199) 
0.00343554

>  <r_epik_State_Penalty>  (199) 
2.11841

>  <r_epik_Charging_Adjusted_Penalty>  (199) 
4.12554

>  <i_epik_Tot_Q>  (199) 
0

>  <i_epik_Tot_abs_Q>  (199) 
2

>  <s_epik_Chemistry_Notes>  (199) 
This compound has an ester and may undergo hydrolysis at high or low pH.

>  <s_lp_Force_Field>  (199) 
OPLS3e

>  <r_lp_Energy>  (199) 
50.8186

>  <b_lp_Chiralities_Consistent>  (199) 
1

>  <s_lp_Variant>  (199) 
67:0-3

>  <s_i_glide_gridfile>  (199) 
pfpi4k_grid

>  <i_i_glide_lignum>  (199) 
2

>  <i_i_glide_rotatable_bonds>  (199) 
3

>  <r_i_docking_score>  (199) 
-5.17805

>  <r_i_glide_ligand_efficiency>  (199) 
-0.19178

>  <r_i_glide_ligand_efficiency_sa>  (199) 
-0.575339

>  <r_i_glide_ligand_efficiency_ln>  (199) 
-1.20537

>  <r_i_glide_gscore>  (199) 
-5.17805

>  <r_i_glide_lipo>  (199) 
-0.962608

>  <r_i_glide_hbond>  (199) 
-0.374685

>  <r_i_glide_metal>  (199) 
-0

>  <r_i_glide_rewards>  (199) 
-1.53486

>  <r_i_glide_evdw>  (199) 
-19.4086

>  <r_i_glide_ecoul>  (199) 
-9.52871

>  <r_i_glide_erotb>  (199) 
0.139949

>  <r_i_glide_esite>  (199) 
-0.0461136

>  <r_i_glide_emodel>  (199) 
-47.0837

>  <r_i_glide_energy>  (199) 
-28.9373

>  <r_i_glide_einternal>  (199) 
4.26166

>  <r_i_glide_intrahb_reward>  (199) 
-0.5

>  <i_i_glide_confnum>  (199) 
1

>  <i_i_glide_posenum>  (199) 
20

>  <r_i_glide_eff_state_penalty>  (199) 
0

>  <ligand_id>  (199) 
67

>  <original_smiles>  (199) 
CC(=O)OC1C=CC(=O)C2(O)C3Cc4ccc(O)c5c4C2(CCN3C)C1O5

>  <smiles>  (199) 
[H]OC12C(=O)C([H])=C([H])C([H])(OC(=O)C([H])([H])[H])C3([H])Oc4c([O-])c([H])c([H])c5c4C31C([H])([H])C([H])([H])[N+]([H])(C([H])([H])[H])C2([H])C5([H])[H]

$$$$
67:2:1
     RDKit          3D

 48 52  0  0  1  0  0  0  0  0999 V2000
    3.8160    0.0856   -3.6064 C   0  0  0  0  0  0  0  0  0  0  0  0
    3.9804   -1.3681   -3.1733 C   0  0  0  0  0  0  0  0  0  0  0  0
    4.2053   -2.2518   -3.9996 O   0  0  0  0  0  0  0  0  0  0  0  0
    3.8535   -1.5366   -1.8397 O   0  0  0  0  0  0  0  0  0  0  0  0
    3.9358   -2.8333   -1.2449 C   0  0  2  0  0  0  0  0  0  0  0  0
    2.5507   -3.4561   -1.2676 C   0  0  0  0  0  0  0  0  0  0  0  0
    2.0348   -4.4615   -0.5322 C   0  0  0  0  0  0  0  0  0  0  0  0
    2.6996   -5.2856    0.5051 C   0  0  0  0  0  0  0  0  0  0  0  0
    2.0390   -5.9801    1.2759 O   0  0  0  0  0  0  0  0  0  0  0  0
    4.2328   -5.2958    0.6319 C   0  0  2  0  0  0  0  0  0  0  0  0
    4.7356   -5.6931   -0.6242 O   0  0  0  0  0  0  0  0  0  0  0  0
    4.8105   -6.3280    1.6706 C   0  0  1  0  0  0  0  0  0  0  0  0
    6.3642   -6.4002    1.5880 C   0  0  0  0  0  0  0  0  0  0  0  0
    7.0967   -5.0934    1.3296 C   0  0  0  0  0  0  0  0  0  0  0  0
    8.4891   -4.9025    1.2700 C   0  0  0  0  0  0  0  0  0  0  0  0
    8.9794   -3.6386    0.8651 C   0  0  0  0  0  0  0  0  0  0  0  0
    8.1002   -2.6126    0.4700 C   0  0  0  0  0  0  0  0  0  0  0  0
    8.6089   -1.4263    0.0825 O   0  0  0  0  0  0  0  0  0  0  0  0
    6.7078   -2.7808    0.4971 C   0  0  0  0  0  0  0  0  0  0  0  0
    6.2850   -3.9929    0.9855 C   0  0  0  0  0  0  0  0  0  0  0  0
    4.7877   -3.9157    1.0463 C   0  0  2  0  0  0  0  0  0  0  0  0
    4.3290   -3.6104    2.5075 C   0  0  0  0  0  0  0  0  0  0  0  0
    4.7673   -4.6802    3.5169 C   0  0  0  0  0  0  0  0  0  0  0  0
    4.3610   -6.0257    3.0608 N   0  0  2  0  0  0  0  0  0  0  0  0
    4.6813   -7.0715    4.0618 C   0  0  0  0  0  0  0  0  0  0  0  0
    4.4718   -2.6308    0.1876 C   0  0  1  0  0  0  0  0  0  0  0  0
    5.7183   -1.9220    0.1170 O   0  0  0  0  0  0  0  0  0  0  0  0
    4.5262    0.7301   -3.0874 H   0  0  0  0  0  0  0  0  0  0  0  0
    2.8083    0.4244   -3.3759 H   0  0  0  0  0  0  0  0  0  0  0  0
    3.9699    0.1977   -4.6804 H   0  0  0  0  0  0  0  0  0  0  0  0
    4.6170   -3.4540   -1.8300 H   0  0  0  0  0  0  0  0  0  0  0  0
    1.8867   -3.0168   -2.0008 H   0  0  0  0  0  0  0  0  0  0  0  0
    1.0195   -4.7434   -0.7711 H   0  0  0  0  0  0  0  0  0  0  0  0
    5.6806   -5.6738   -0.6133 H   0  0  0  0  0  0  0  0  0  0  0  0
    4.4284   -7.3210    1.4335 H   0  0  0  0  0  0  0  0  0  0  0  0
    6.8154   -6.8774    2.4538 H   0  0  0  0  0  0  0  0  0  0  0  0
    6.6403   -7.0444    0.7569 H   0  0  0  0  0  0  0  0  0  0  0  0
    9.1690   -5.6982    1.5368 H   0  0  0  0  0  0  0  0  0  0  0  0
   10.0339   -3.4334    0.8633 H   0  0  0  0  0  0  0  0  0  0  0  0
    4.7104   -2.6404    2.8356 H   0  0  0  0  0  0  0  0  0  0  0  0
    3.2395   -3.5222    2.5521 H   0  0  0  0  0  0  0  0  0  0  0  0
    5.8447   -4.6288    3.6798 H   0  0  0  0  0  0  0  0  0  0  0  0
    4.3173   -4.4707    4.4862 H   0  0  0  0  0  0  0  0  0  0  0  0
    5.7400   -7.0836    4.3325 H   0  0  0  0  0  0  0  0  0  0  0  0
    4.4100   -8.0677    3.7104 H   0  0  0  0  0  0  0  0  0  0  0  0
    4.1314   -6.8897    4.9859 H   0  0  0  0  0  0  0  0  0  0  0  0
    3.7647   -1.9829    0.7094 H   0  0  0  0  0  0  0  0  0  0  0  0
    3.3499   -6.0156    3.0035 H   0  0  0  0  0  0  0  0  0  0  0  0
  1  2  1  0
  1 28  1  0
  1 29  1  0
  1 30  1  0
  2  3  2  0
  2  4  1  0
  4  5  1  0
  5 26  1  0
  5  6  1  0
  5 31  1  6
  6  7  2  0
  6 32  1  0
  7  8  1  0
  7 33  1  0
  8  9  2  0
  8 10  1  0
 10 21  1  0
 10 11  1  6
 10 12  1  0
 11 34  1  0
 12 24  1  0
 12 13  1  0
 12 35  1  6
 13 14  1  0
 13 36  1  0
 13 37  1  0
 14 20  2  0
 14 15  1  0
 15 16  2  0
 15 38  1  0
 16 17  1  0
 16 39  1  0
 17 18  1  0
 17 19  2  0
 19 27  1  0
 19 20  1  0
 20 21  1  0
 21 22  1  1
 21 26  1  0
 22 23  1  0
 22 40  1  0
 22 41  1  0
 23 24  1  0
 23 42  1  0
 23 43  1  0
 24 25  1  0
 24 48  1  6
 25 44  1  0
 25 45  1  0
 25 46  1  0
 26 27  1  0
 26 47  1  1
M  CHG  2  18  -1  24   1
M  END
>  <i_m_ct_stereo_status>  (200) 
1

>  <s_m_source_file>  (200) 
/var/tmp/pbs.5076255.sched01/tmpelb551ou/82hj6rxffr.sdf

>  <i_m_source_file_index>  (200) 
2

>  <i_lp_mmshare_version>  (200) 
48012

>  <i_f3d_flags>  (200) 
0

>  <s_epik_input>  (200) 
Tz1DMVtDSF09W0NIXVtDQEBIXShPQyg9TylbQ0gzXSlbQ0BASF0yT2MoYyhbT0hdKVtjSF1bY0hdMyljNGMzW0NIMl1bQ0BIXShbQ0BAXTEoW0NAXTI0NSlbT0hdKU4oW0NIM10pW0NIMl1bQ0gyXTU=

>  <s_epik_cmdline>  (200) 
J2VwaWtfcHl0aG9uJywgJy1waHQnLCAnMi4wJywgJy1waCcsICc3LjAnLCAnLXRuJywgJzgnLCAnLW1hJywgJzIwMCcsICctaW1hZScsICc8aW5maWxlLm1hZT4nLCAnLW9tYWUnLCAnPG91dGZpbGUubWFlPic=

>  <r_epik_Ionization_Penalty>  (200) 
2.01056

>  <r_epik_Ionization_Penalty_Charging>  (200) 
2.00713

>  <r_epik_Ionization_Penalty_Neutral>  (200) 
0.00343554

>  <r_epik_State_Penalty>  (200) 
2.11841

>  <r_epik_Charging_Adjusted_Penalty>  (200) 
4.12554

>  <i_epik_Tot_Q>  (200) 
0

>  <i_epik_Tot_abs_Q>  (200) 
2

>  <s_epik_Chemistry_Notes>  (200) 
This compound has an ester and may undergo hydrolysis at high or low pH.

>  <s_lp_Force_Field>  (200) 
OPLS3e

>  <r_lp_Energy>  (200) 
50.8186

>  <b_lp_Chiralities_Consistent>  (200) 
1

>  <s_lp_Variant>  (200) 
67:0-3

>  <s_i_glide_gridfile>  (200) 
pfpi4k_grid

>  <i_i_glide_lignum>  (200) 
2

>  <i_i_glide_rotatable_bonds>  (200) 
3

>  <r_i_docking_score>  (200) 
-3.82641

>  <r_i_glide_ligand_efficiency>  (200) 
-0.141719

>  <r_i_glide_ligand_efficiency_sa>  (200) 
-0.425157

>  <r_i_glide_ligand_efficiency_ln>  (200) 
-0.890725

>  <r_i_glide_gscore>  (200) 
-3.82641

>  <r_i_glide_lipo>  (200) 
-0.876123

>  <r_i_glide_hbond>  (200) 
-0.290537

>  <r_i_glide_metal>  (200) 
-0

>  <r_i_glide_rewards>  (200) 
-1.46389

>  <r_i_glide_evdw>  (200) 
-19.7517

>  <r_i_glide_ecoul>  (200) 
-2.05267

>  <r_i_glide_erotb>  (200) 
0.139949

>  <r_i_glide_esite>  (200) 
-0.0403197

>  <r_i_glide_emodel>  (200) 
-38.2981

>  <r_i_glide_energy>  (200) 
-21.8044

>  <r_i_glide_einternal>  (200) 
0.0767935

>  <r_i_glide_intrahb_reward>  (200) 
-0.5

>  <i_i_glide_confnum>  (200) 
4

>  <i_i_glide_posenum>  (200) 
15

>  <r_i_glide_eff_state_penalty>  (200) 
0

>  <ligand_id>  (200) 
67

>  <original_smiles>  (200) 
CC(=O)OC1C=CC(=O)C2(O)C3Cc4ccc(O)c5c4C2(CCN3C)C1O5

>  <smiles>  (200) 
[H]OC12C(=O)C([H])=C([H])C([H])(OC(=O)C([H])([H])[H])C3([H])Oc4c([O-])c([H])c([H])c5c4C31C([H])([H])C([H])([H])[N+]([H])(C([H])([H])[H])C2([H])C5([H])[H]

$$$$
67:2:2
     RDKit          3D

 48 52  0  0  1  0  0  0  0  0999 V2000
   -1.7881   -2.0736    5.6815 C   0  0  0  0  0  0  0  0  0  0  0  0
   -0.5957   -3.0024    5.9934 C   0  0  0  0  0  0  0  0  0  0  0  0
   -0.7250   -3.9252    6.7973 O   0  0  0  0  0  0  0  0  0  0  0  0
    0.5894   -2.7500    5.3449 O   0  0  0  0  0  0  0  0  0  0  0  0
    0.8139   -1.6728    4.4280 C   0  0  2  0  0  0  0  0  0  0  0  0
    1.8217   -2.1344    3.3727 C   0  0  0  0  0  0  0  0  0  0  0  0
    2.5423   -1.4165    2.4764 C   0  0  0  0  0  0  0  0  0  0  0  0
    2.4781    0.0558    2.2704 C   0  0  0  0  0  0  0  0  0  0  0  0
    3.3613    0.6379    1.6414 O   0  0  0  0  0  0  0  0  0  0  0  0
    1.3140    0.8995    2.8421 C   0  0  2  0  0  0  0  0  0  0  0  0
    0.1131    0.3687    2.2861 O   0  0  0  0  0  0  0  0  0  0  0  0
    1.3304    2.4205    2.4357 C   0  0  1  0  0  0  0  0  0  0  0  0
    0.0190    3.1287    2.8809 C   0  0  0  0  0  0  0  0  0  0  0  0
   -0.5469    2.7472    4.2391 C   0  0  0  0  0  0  0  0  0  0  0  0
   -1.6775    3.3060    4.8758 C   0  0  0  0  0  0  0  0  0  0  0  0
   -2.1351    2.7090    6.0600 C   0  0  0  0  0  0  0  0  0  0  0  0
   -1.4704    1.5799    6.6003 C   0  0  0  0  0  0  0  0  0  0  0  0
   -2.0010    0.9664    7.6878 O   0  0  0  0  0  0  0  0  0  0  0  0
   -0.3075    1.0368    6.0113 C   0  0  0  0  0  0  0  0  0  0  0  0
    0.0879    1.6631    4.8709 C   0  0  0  0  0  0  0  0  0  0  0  0
    1.3101    0.9183    4.3968 C   0  0  2  0  0  0  0  0  0  0  0  0
    2.5592    1.6626    4.9122 C   0  0  0  0  0  0  0  0  0  0  0  0
    2.6519    3.0961    4.4088 C   0  0  0  0  0  0  0  0  0  0  0  0
    2.5426    3.1297    2.9413 N   0  0  2  0  0  0  0  0  0  0  0  0
    2.7179    4.5051    2.4258 C   0  0  0  0  0  0  0  0  0  0  0  0
    1.2789   -0.4131    5.2134 C   0  0  1  0  0  0  0  0  0  0  0  0
    0.4393   -0.0682    6.3443 O   0  0  0  0  0  0  0  0  0  0  0  0
   -1.9036   -1.9205    4.6158 H   0  0  0  0  0  0  0  0  0  0  0  0
   -1.6032   -1.0919    6.0905 H   0  0  0  0  0  0  0  0  0  0  0  0
   -2.7214   -2.4064    6.1379 H   0  0  0  0  0  0  0  0  0  0  0  0
   -0.0772   -1.5208    3.8349 H   0  0  0  0  0  0  0  0  0  0  0  0
    1.9385   -3.2078    3.3430 H   0  0  0  0  0  0  0  0  0  0  0  0
    3.1977   -1.9760    1.8154 H   0  0  0  0  0  0  0  0  0  0  0  0
    0.1324    0.4758    1.3413 H   0  0  0  0  0  0  0  0  0  0  0  0
    1.3742    2.5038    1.3465 H   0  0  0  0  0  0  0  0  0  0  0  0
    0.1010    4.2149    2.9187 H   0  0  0  0  0  0  0  0  0  0  0  0
   -0.7775    2.8809    2.1915 H   0  0  0  0  0  0  0  0  0  0  0  0
   -2.1944    4.1685    4.4630 H   0  0  0  0  0  0  0  0  0  0  0  0
   -3.0043    3.0855    6.5780 H   0  0  0  0  0  0  0  0  0  0  0  0
    2.5533    1.6827    6.0004 H   0  0  0  0  0  0  0  0  0  0  0  0
    3.4638    1.1275    4.6303 H   0  0  0  0  0  0  0  0  0  0  0  0
    1.8860    3.7174    4.8796 H   0  0  0  0  0  0  0  0  0  0  0  0
    3.6038    3.5258    4.7149 H   0  0  0  0  0  0  0  0  0  0  0  0
    2.0264    5.2338    2.8551 H   0  0  0  0  0  0  0  0  0  0  0  0
    2.5714    4.5360    1.3516 H   0  0  0  0  0  0  0  0  0  0  0  0
    3.7284    4.8627    2.6331 H   0  0  0  0  0  0  0  0  0  0  0  0
    2.2653   -0.6585    5.6183 H   0  0  0  0  0  0  0  0  0  0  0  0
    3.3295    2.6097    2.5714 H   0  0  0  0  0  0  0  0  0  0  0  0
  1  2  1  0
  1 28  1  0
  1 29  1  0
  1 30  1  0
  2  3  2  0
  2  4  1  0
  4  5  1  0
  5 26  1  0
  5  6  1  0
  5 31  1  6
  6  7  2  0
  6 32  1  0
  7  8  1  0
  7 33  1  0
  8  9  2  0
  8 10  1  0
 10 21  1  0
 10 11  1  6
 10 12  1  0
 11 34  1  0
 12 24  1  0
 12 13  1  0
 12 35  1  6
 13 14  1  0
 13 36  1  0
 13 37  1  0
 14 20  2  0
 14 15  1  0
 15 16  2  0
 15 38  1  0
 16 17  1  0
 16 39  1  0
 17 18  1  0
 17 19  2  0
 19 27  1  0
 19 20  1  0
 20 21  1  0
 21 22  1  1
 21 26  1  0
 22 23  1  0
 22 40  1  0
 22 41  1  0
 23 24  1  0
 23 42  1  0
 23 43  1  0
 24 25  1  0
 24 48  1  6
 25 44  1  0
 25 45  1  0
 25 46  1  0
 26 27  1  0
 26 47  1  1
M  CHG  2  18  -1  24   1
M  END
>  <i_m_ct_stereo_status>  (201) 
1

>  <s_m_source_file>  (201) 
/var/tmp/pbs.5076255.sched01/tmpelb551ou/82hj6rxffr.sdf

>  <i_m_source_file_index>  (201) 
2

>  <i_lp_mmshare_version>  (201) 
48012

>  <i_f3d_flags>  (201) 
0

>  <s_epik_input>  (201) 
Tz1DMVtDSF09W0NIXVtDQEBIXShPQyg9TylbQ0gzXSlbQ0BASF0yT2MoYyhbT0hdKVtjSF1bY0hdMyljNGMzW0NIMl1bQ0BIXShbQ0BAXTEoW0NAXTI0NSlbT0hdKU4oW0NIM10pW0NIMl1bQ0gyXTU=

>  <s_epik_cmdline>  (201) 
J2VwaWtfcHl0aG9uJywgJy1waHQnLCAnMi4wJywgJy1waCcsICc3LjAnLCAnLXRuJywgJzgnLCAnLW1hJywgJzIwMCcsICctaW1hZScsICc8aW5maWxlLm1hZT4nLCAnLW9tYWUnLCAnPG91dGZpbGUubWFlPic=

>  <r_epik_Ionization_Penalty>  (201) 
2.01056

>  <r_epik_Ionization_Penalty_Charging>  (201) 
2.00713

>  <r_epik_Ionization_Penalty_Neutral>  (201) 
0.00343554

>  <r_epik_State_Penalty>  (201) 
2.11841

>  <r_epik_Charging_Adjusted_Penalty>  (201) 
4.12554

>  <i_epik_Tot_Q>  (201) 
0

>  <i_epik_Tot_abs_Q>  (201) 
2

>  <s_epik_Chemistry_Notes>  (201) 
This compound has an ester and may undergo hydrolysis at high or low pH.

>  <s_lp_Force_Field>  (201) 
OPLS3e

>  <r_lp_Energy>  (201) 
50.8186

>  <b_lp_Chiralities_Consistent>  (201) 
1

>  <s_lp_Variant>  (201) 
67:0-3

>  <s_i_glide_gridfile>  (201) 
pfpi4k_grid

>  <i_i_glide_lignum>  (201) 
2

>  <i_i_glide_rotatable_bonds>  (201) 
3

>  <r_i_docking_score>  (201) 
-3.79313

>  <r_i_glide_ligand_efficiency>  (201) 
-0.140486

>  <r_i_glide_ligand_efficiency_sa>  (201) 
-0.421459

>  <r_i_glide_ligand_efficiency_ln>  (201) 
-0.882978

>  <r_i_glide_gscore>  (201) 
-3.79313

>  <r_i_glide_lipo>  (201) 
-0.0969782

>  <r_i_glide_hbond>  (201) 
-0.175931

>  <r_i_glide_metal>  (201) 
-0

>  <r_i_glide_rewards>  (201) 
-1.37693

>  <r_i_glide_evdw>  (201) 
-19.0256

>  <r_i_glide_ecoul>  (201) 
-8.32068

>  <r_i_glide_erotb>  (201) 
0.139949

>  <r_i_glide_esite>  (201) 
-0.0838558

>  <r_i_glide_emodel>  (201) 
-39.0649

>  <r_i_glide_energy>  (201) 
-27.3463

>  <r_i_glide_einternal>  (201) 
7.39

>  <r_i_glide_intrahb_reward>  (201) 
-0.5

>  <i_i_glide_confnum>  (201) 
5

>  <i_i_glide_posenum>  (201) 
33

>  <r_i_glide_eff_state_penalty>  (201) 
0

>  <ligand_id>  (201) 
67

>  <original_smiles>  (201) 
CC(=O)OC1C=CC(=O)C2(O)C3Cc4ccc(O)c5c4C2(CCN3C)C1O5

>  <smiles>  (201) 
[H]OC12C(=O)C([H])=C([H])C([H])(OC(=O)C([H])([H])[H])C3([H])Oc4c([O-])c([H])c([H])c5c4C31C([H])([H])C([H])([H])[N+]([H])(C([H])([H])[H])C2([H])C5([H])[H]

$$$$
69:0:0
     RDKit          3D

 32 38  0  0  1  0  0  0  0  0999 V2000
    2.5167   -2.7111   -3.8030 C   0  0  0  0  0  0  0  0  0  0  0  0
    2.8154   -2.5225   -2.3553 N   0  0  2  0  0  0  0  0  0  0  0  0
    3.5009   -1.2168   -1.9021 C   0  0  2  0  0  0  0  0  0  0  0  0
    4.9337   -1.2266   -0.7802 C   0  0  2  0  0  0  0  0  0  0  0  0
    5.7773   -2.6006   -0.2744 C   0  0  1  0  0  0  0  0  0  0  0  0
    4.7035   -3.1241    0.5771 C   0  0  1  0  0  0  0  0  0  0  0  0
    3.7745   -2.5926    1.2940 C   0  0  2  0  0  0  0  0  0  0  0  0
    3.5836   -4.3953    1.5190 C   0  0  2  0  0  0  0  0  0  0  0  0
    4.6853   -5.5617    0.9962 C   0  0  0  0  0  0  0  0  0  0  0  0
    4.9034   -6.5712    1.6492 O   0  0  0  0  0  0  0  0  0  0  0  0
    5.3623   -5.2319   -0.3313 O   0  0  0  0  0  0  0  0  0  0  0  0
    5.2510   -3.9184   -1.1556 C   0  0  1  0  0  0  0  0  0  0  0  0
    3.6870   -3.6288   -1.6852 C   0  0  2  0  0  0  0  0  0  0  0  0
    3.3034   -3.7579   -0.3294 C   0  0  1  0  0  0  0  0  0  0  0  0
    2.6926   -4.7721    0.4466 C   0  0  0  0  0  0  0  0  0  0  0  0
    1.7624   -5.5587    0.2913 O   0  0  0  0  0  0  0  0  0  0  0  0
    4.1438   -2.2437   -1.7301 C   0  0  2  0  0  0  0  0  0  0  0  0
    3.8121   -1.5346   -0.0673 C   0  0  2  0  0  0  0  0  0  0  0  0
    3.4155   -2.7370   -4.4215 H   0  0  0  0  0  0  0  0  0  0  0  0
    1.8584   -1.9332   -4.1922 H   0  0  0  0  0  0  0  0  0  0  0  0
    1.9989   -3.6583   -3.9488 H   0  0  0  0  0  0  0  0  0  0  0  0
    3.7521   -0.6292   -2.7842 H   0  0  0  0  0  0  0  0  0  0  0  0
    5.3309   -0.2635   -0.4742 H   0  0  0  0  0  0  0  0  0  0  0  0
    6.7778   -2.5259    0.1301 H   0  0  0  0  0  0  0  0  0  0  0  0
    5.4111   -3.3990    1.3985 H   0  0  0  0  0  0  0  0  0  0  0  0
    4.1248   -2.0884    2.1947 H   0  0  0  0  0  0  0  0  0  0  0  0
    3.1646   -4.6627    2.4872 H   0  0  0  0  0  0  0  0  0  0  0  0
    5.9244   -4.0338   -2.0078 H   0  0  0  0  0  0  0  0  0  0  0  0
    2.3606   -3.1919   -0.2608 H   0  0  0  0  0  0  0  0  0  0  0  0
    4.9605   -2.1591   -2.5603 H   0  0  0  0  0  0  0  0  0  0  0  0
    3.2242   -0.6150    0.1208 H   0  0  0  0  0  0  0  0  0  0  0  0
    1.9233   -2.4920   -1.8957 H   0  0  0  0  0  0  0  0  0  0  0  0
  1  2  1  0
  1 19  1  0
  1 20  1  0
  1 21  1  0
 13  2  1  1
  2  3  1  0
  2 32  1  1
  3 17  1  0
  3  4  1  0
  3 22  1  6
  4 18  1  0
  4  5  1  0
  4 23  1  1
  5 12  1  0
  5  6  1  0
  5 24  1  1
  6 14  1  0
  6  7  1  0
  6 25  1  1
  7 18  1  0
  7  8  1  0
  7 26  1  1
  8 15  1  0
  8  9  1  0
  8 27  1  1
  9 10  2  0
  9 11  1  0
 11 12  1  0
 12 13  1  0
 12 28  1  6
 13 14  1  0
 13 17  1  0
 14 15  1  0
 14 29  1  6
 15 16  2  0
 17 18  1  0
 17 30  1  6
 18 31  1  6
M  CHG  1   2   1
M  END
>  <i_m_ct_stereo_status>  (202) 
1

>  <s_m_source_file>  (202) 
/var/tmp/pbs.5076255.sched01/tmpelb551ou/82hj6rxffr.sdf

>  <i_m_source_file_index>  (202) 
4

>  <i_lp_mmshare_version>  (202) 
48012

>  <i_f3d_flags>  (202) 
0

>  <s_epik_input>  (202) 
QzEyM1tDQEhdNFtDQEhdNVtDQEhdNltDQEhdKE4xW0NIM10pW0NASF0zW0NASF02W0NAQEhdN1tDQEhdNVtDSF0yQyg9TylbQ0BIXTdDKD1PKU80

>  <s_epik_cmdline>  (202) 
J2VwaWtfcHl0aG9uJywgJy1waHQnLCAnMi4wJywgJy1waCcsICc3LjAnLCAnLXRuJywgJzgnLCAnLW1hJywgJzIwMCcsICctaW1hZScsICc8aW5maWxlLm1hZT4nLCAnLW9tYWUnLCAnPG91dGZpbGUubWFlPic=

>  <r_epik_Ionization_Penalty>  (202) 
0.0144735

>  <r_epik_Ionization_Penalty_Charging>  (202) 
0.0143808

>  <r_epik_Ionization_Penalty_Neutral>  (202) 
9.26672e-05

>  <r_epik_State_Penalty>  (202) 
0.0112451

>  <r_epik_Charging_Adjusted_Penalty>  (202) 
0.0256259

>  <i_epik_Tot_Q>  (202) 
1

>  <i_epik_Tot_abs_Q>  (202) 
1

>  <s_epik_Chemistry_Notes>  (202) 
This compound has an ester and may undergo hydrolysis at high or low pH.

>  <s_lp_Force_Field>  (202) 
OPLS3e

>  <r_lp_Energy>  (202) 
843.61

>  <b_lp_Chiralities_Consistent>  (202) 
1

>  <s_lp_Variant>  (202) 
69:0-1

>  <s_i_glide_gridfile>  (202) 
pfpi4k_grid

>  <i_i_glide_lignum>  (202) 
4

>  <i_i_glide_rotatable_bonds>  (202) 
0

>  <r_i_docking_score>  (202) 
-4.21111

>  <r_i_glide_ligand_efficiency>  (202) 
-0.23395

>  <r_i_glide_ligand_efficiency_sa>  (202) 
-0.613123

>  <r_i_glide_ligand_efficiency_ln>  (202) 
-1.08244

>  <r_i_glide_gscore>  (202) 
-4.21111

>  <r_i_glide_lipo>  (202) 
-0.249686

>  <r_i_glide_hbond>  (202) 
-0.197194

>  <r_i_glide_metal>  (202) 
-0

>  <r_i_glide_rewards>  (202) 
-1.83051

>  <r_i_glide_evdw>  (202) 
-17.0978

>  <r_i_glide_ecoul>  (202) 
-6.63894

>  <r_i_glide_erotb>  (202) 
0

>  <r_i_glide_esite>  (202) 
-0.0829848

>  <r_i_glide_emodel>  (202) 
-31.3195

>  <r_i_glide_energy>  (202) 
-23.7367

>  <r_i_glide_einternal>  (202) 
0

>  <r_i_glide_intrahb_reward>  (202) 
-0

>  <i_i_glide_confnum>  (202) 
1

>  <i_i_glide_posenum>  (202) 
1

>  <r_i_glide_eff_state_penalty>  (202) 
0

>  <ligand_id>  (202) 
69

>  <original_smiles>  (202) 
CN1C2C3C4C5C6C7C(=O)OC4C1(C5C7=O)C2C63

>  <smiles>  (202) 
[H]C12C(=O)OC3([H])C4([H])C5([H])C([H])(C1=O)C31C3([H])C([H])(C25[H])C4([H])C3([H])[N+]1([H])C([H])([H])[H]

$$$$
69:0:1
     RDKit          3D

 32 38  0  0  1  0  0  0  0  0999 V2000
    2.7492   -0.0990   -3.9044 C   0  0  0  0  0  0  0  0  0  0  0  0
    3.6803   -0.6859   -2.9017 N   0  0  2  0  0  0  0  0  0  0  0  0
    4.8864   -1.4663   -3.4277 C   0  0  2  0  0  0  0  0  0  0  0  0
    5.3594   -3.0917   -2.7676 C   0  0  2  0  0  0  0  0  0  0  0  0
    4.4682   -3.9893   -1.6512 C   0  0  1  0  0  0  0  0  0  0  0  0
    4.7169   -3.0880   -0.5243 C   0  0  1  0  0  0  0  0  0  0  0  0
    5.7038   -2.3414   -0.1630 C   0  0  2  0  0  0  0  0  0  0  0  0
    4.4426   -2.1543    1.1420 C   0  0  2  0  0  0  0  0  0  0  0  0
    3.0433   -3.0959    1.2942 C   0  0  0  0  0  0  0  0  0  0  0  0
    2.6124   -3.4058    2.3895 O   0  0  0  0  0  0  0  0  0  0  0  0
    2.4053   -3.5057   -0.0426 O   0  0  0  0  0  0  0  0  0  0  0  0
    2.9679   -3.2753   -1.4669 C   0  0  1  0  0  0  0  0  0  0  0  0
    3.0929   -1.6436   -1.8247 C   0  0  2  0  0  0  0  0  0  0  0  0
    3.8687   -1.5265   -0.6458 C   0  0  1  0  0  0  0  0  0  0  0  0
    3.6384   -1.0566    0.6726 C   0  0  0  0  0  0  0  0  0  0  0  0
    3.0640   -0.0990    1.1814 O   0  0  0  0  0  0  0  0  0  0  0  0
    4.1031   -2.1135   -2.7688 C   0  0  2  0  0  0  0  0  0  0  0  0
    5.7055   -2.1332   -1.8663 C   0  0  2  0  0  0  0  0  0  0  0  0
    2.2163   -0.8543   -4.4924 H   0  0  0  0  0  0  0  0  0  0  0  0
    3.2602    0.5905   -4.5776 H   0  0  0  0  0  0  0  0  0  0  0  0
    2.0196    0.5212   -3.3977 H   0  0  0  0  0  0  0  0  0  0  0  0
    4.7413   -1.5417   -4.5035 H   0  0  0  0  0  0  0  0  0  0  0  0
    6.2480   -3.5571   -3.1869 H   0  0  0  0  0  0  0  0  0  0  0  0
    4.6355   -5.0518   -1.5332 H   0  0  0  0  0  0  0  0  0  0  0  0
    4.8925   -3.9430    0.1733 H   0  0  0  0  0  0  0  0  0  0  0  0
    6.5824   -2.8898    0.1750 H   0  0  0  0  0  0  0  0  0  0  0  0
    4.8716   -1.9203    2.1179 H   0  0  0  0  0  0  0  0  0  0  0  0
    2.2734   -3.7579   -2.1598 H   0  0  0  0  0  0  0  0  0  0  0  0
    4.4875   -0.6280   -0.8035 H   0  0  0  0  0  0  0  0  0  0  0  0
    3.5565   -2.7458   -3.5857 H   0  0  0  0  0  0  0  0  0  0  0  0
    6.6461   -1.6683   -2.2132 H   0  0  0  0  0  0  0  0  0  0  0  0
    4.0755    0.0950   -2.4125 H   0  0  0  0  0  0  0  0  0  0  0  0
  1  2  1  0
  1 19  1  0
  1 20  1  0
  1 21  1  0
 13  2  1  1
  2  3  1  0
  2 32  1  1
  3 17  1  0
  3  4  1  0
  3 22  1  6
  4 18  1  0
  4  5  1  0
  4 23  1  6
  5 12  1  0
  5  6  1  0
  5 24  1  1
  6 14  1  0
  6  7  1  0
  6 25  1  1
  7 18  1  0
  7  8  1  0
  7 26  1  1
  8 15  1  0
  8  9  1  0
  8 27  1  1
  9 10  2  0
  9 11  1  0
 11 12  1  0
 12 13  1  0
 12 28  1  6
 13 14  1  0
 13 17  1  0
 14 15  1  0
 14 29  1  6
 15 16  2  0
 17 18  1  0
 17 30  1  6
 18 31  1  6
M  CHG  1   2   1
M  END
>  <i_m_ct_stereo_status>  (203) 
1

>  <s_m_source_file>  (203) 
/var/tmp/pbs.5076255.sched01/tmpelb551ou/82hj6rxffr.sdf

>  <i_m_source_file_index>  (203) 
4

>  <i_lp_mmshare_version>  (203) 
48012

>  <i_f3d_flags>  (203) 
0

>  <s_epik_input>  (203) 
QzEyM1tDQEhdNFtDQEhdNVtDQEhdNltDQEhdKE4xW0NIM10pW0NASF0zW0NASF02W0NAQEhdN1tDQEhdNVtDSF0yQyg9TylbQ0BIXTdDKD1PKU80

>  <s_epik_cmdline>  (203) 
J2VwaWtfcHl0aG9uJywgJy1waHQnLCAnMi4wJywgJy1waCcsICc3LjAnLCAnLXRuJywgJzgnLCAnLW1hJywgJzIwMCcsICctaW1hZScsICc8aW5maWxlLm1hZT4nLCAnLW9tYWUnLCAnPG91dGZpbGUubWFlPic=

>  <r_epik_Ionization_Penalty>  (203) 
0.0144735

>  <r_epik_Ionization_Penalty_Charging>  (203) 
0.0143808

>  <r_epik_Ionization_Penalty_Neutral>  (203) 
9.26672e-05

>  <r_epik_State_Penalty>  (203) 
0.0112451

>  <r_epik_Charging_Adjusted_Penalty>  (203) 
0.0256259

>  <i_epik_Tot_Q>  (203) 
1

>  <i_epik_Tot_abs_Q>  (203) 
1

>  <s_epik_Chemistry_Notes>  (203) 
This compound has an ester and may undergo hydrolysis at high or low pH.

>  <s_lp_Force_Field>  (203) 
OPLS3e

>  <r_lp_Energy>  (203) 
843.61

>  <b_lp_Chiralities_Consistent>  (203) 
1

>  <s_lp_Variant>  (203) 
69:0-1

>  <s_i_glide_gridfile>  (203) 
pfpi4k_grid

>  <i_i_glide_lignum>  (203) 
4

>  <i_i_glide_rotatable_bonds>  (203) 
0

>  <r_i_docking_score>  (203) 
-3.4181

>  <r_i_glide_ligand_efficiency>  (203) 
-0.189894

>  <r_i_glide_ligand_efficiency_sa>  (203) 
-0.497664

>  <r_i_glide_ligand_efficiency_ln>  (203) 
-0.878604

>  <r_i_glide_gscore>  (203) 
-3.4181

>  <r_i_glide_lipo>  (203) 
-0.50456

>  <r_i_glide_hbond>  (203) 
0

>  <r_i_glide_metal>  (203) 
-0

>  <r_i_glide_rewards>  (203) 
-1.74364

>  <r_i_glide_evdw>  (203) 
-13.7412

>  <r_i_glide_ecoul>  (203) 
-2.91845

>  <r_i_glide_erotb>  (203) 
0

>  <r_i_glide_esite>  (203) 
-0.0450655

>  <r_i_glide_emodel>  (203) 
-22.7183

>  <r_i_glide_energy>  (203) 
-16.6597

>  <r_i_glide_einternal>  (203) 
0

>  <r_i_glide_intrahb_reward>  (203) 
-0

>  <i_i_glide_confnum>  (203) 
2

>  <i_i_glide_posenum>  (203) 
36

>  <r_i_glide_eff_state_penalty>  (203) 
0

>  <ligand_id>  (203) 
69

>  <original_smiles>  (203) 
CN1C2C3C4C5C6C7C(=O)OC4C1(C5C7=O)C2C63

>  <smiles>  (203) 
[H]C12C(=O)OC3([H])C4([H])C5([H])C([H])(C1=O)C31C3([H])C([H])(C25[H])C4([H])C3([H])[N+]1([H])C([H])([H])[H]

$$$$
69:0:2
     RDKit          3D

 32 38  0  0  1  0  0  0  0  0999 V2000
    3.1320   -0.9940   -3.0299 C   0  0  0  0  0  0  0  0  0  0  0  0
    4.0051   -1.1596   -1.8383 N   0  0  2  0  0  0  0  0  0  0  0  0
    5.3287   -1.9390   -1.9821 C   0  0  2  0  0  0  0  0  0  0  0  0
    5.8082   -3.2223   -0.7866 C   0  0  2  0  0  0  0  0  0  0  0  0
    4.8334   -3.8300    0.4523 C   0  0  1  0  0  0  0  0  0  0  0  0
    4.8700   -2.6102    1.2679 C   0  0  1  0  0  0  0  0  0  0  0  0
    5.7391   -1.6805    1.4742 C   0  0  2  0  0  0  0  0  0  0  0  0
    4.3104   -1.2401    2.5190 C   0  0  2  0  0  0  0  0  0  0  0  0
    2.9808   -2.2389    2.8176 C   0  0  0  0  0  0  0  0  0  0  0  0
    2.4313   -2.2556    3.9089 O   0  0  0  0  0  0  0  0  0  0  0  0
    2.5552   -3.0940    1.6183 O   0  0  0  0  0  0  0  0  0  0  0  0
    3.2807   -3.2452    0.2557 C   0  0  1  0  0  0  0  0  0  0  0  0
    3.3483   -1.7998   -0.5828 C   0  0  2  0  0  0  0  0  0  0  0  0
    3.9416   -1.2508    0.5786 C   0  0  1  0  0  0  0  0  0  0  0  0
    3.4905   -0.4358    1.6417 C   0  0  0  0  0  0  0  0  0  0  0  0
    2.7808    0.5550    1.7469 O   0  0  0  0  0  0  0  0  0  0  0  0
    4.4982   -2.4223   -1.2275 C   0  0  2  0  0  0  0  0  0  0  0  0
    5.9647   -2.0005   -0.2038 C   0  0  2  0  0  0  0  0  0  0  0  0
    2.7400   -1.9398   -3.4098 H   0  0  0  0  0  0  0  0  0  0  0  0
    3.6476   -0.4862   -3.8493 H   0  0  0  0  0  0  0  0  0  0  0  0
    2.2837   -0.3693   -2.7561 H   0  0  0  0  0  0  0  0  0  0  0  0
    5.3644   -2.3709   -2.9824 H   0  0  0  0  0  0  0  0  0  0  0  0
    6.7653   -3.7076   -0.9421 H   0  0  0  0  0  0  0  0  0  0  0  0
    5.0488   -4.7793    0.9176 H   0  0  0  0  0  0  0  0  0  0  0  0
    5.0073   -3.1793    2.2214 H   0  0  0  0  0  0  0  0  0  0  0  0
    6.6079   -1.9918    2.0544 H   0  0  0  0  0  0  0  0  0  0  0  0
    4.5902   -0.6862    3.4140 H   0  0  0  0  0  0  0  0  0  0  0  0
    2.7141   -3.9913   -0.3043 H   0  0  0  0  0  0  0  0  0  0  0  0
    4.5128   -0.3832    0.2106 H   0  0  0  0  0  0  0  0  0  0  0  0
    4.1085   -3.3341   -1.8462 H   0  0  0  0  0  0  0  0  0  0  0  0
    6.8878   -1.5347   -0.5872 H   0  0  0  0  0  0  0  0  0  0  0  0
    4.2634   -0.2262   -1.5875 H   0  0  0  0  0  0  0  0  0  0  0  0
  1  2  1  0
  1 19  1  0
  1 20  1  0
  1 21  1  0
 13  2  1  1
  2  3  1  0
  2 32  1  1
  3 17  1  0
  3  4  1  0
  3 22  1  6
  4 18  1  0
  4  5  1  0
  4 23  1  6
  5 12  1  0
  5  6  1  0
  5 24  1  1
  6 14  1  0
  6  7  1  0
  6 25  1  1
  7 18  1  0
  7  8  1  0
  7 26  1  1
  8 15  1  0
  8  9  1  0
  8 27  1  1
  9 10  2  0
  9 11  1  0
 11 12  1  0
 12 13  1  0
 12 28  1  6
 13 14  1  0
 13 17  1  0
 14 15  1  0
 14 29  1  6
 15 16  2  0
 17 18  1  0
 17 30  1  6
 18 31  1  6
M  CHG  1   2   1
M  END
>  <i_m_ct_stereo_status>  (204) 
1

>  <s_m_source_file>  (204) 
/var/tmp/pbs.5076255.sched01/tmpelb551ou/82hj6rxffr.sdf

>  <i_m_source_file_index>  (204) 
4

>  <i_lp_mmshare_version>  (204) 
48012

>  <i_f3d_flags>  (204) 
0

>  <s_epik_input>  (204) 
QzEyM1tDQEhdNFtDQEhdNVtDQEhdNltDQEhdKE4xW0NIM10pW0NASF0zW0NASF02W0NAQEhdN1tDQEhdNVtDSF0yQyg9TylbQ0BIXTdDKD1PKU80

>  <s_epik_cmdline>  (204) 
J2VwaWtfcHl0aG9uJywgJy1waHQnLCAnMi4wJywgJy1waCcsICc3LjAnLCAnLXRuJywgJzgnLCAnLW1hJywgJzIwMCcsICctaW1hZScsICc8aW5maWxlLm1hZT4nLCAnLW9tYWUnLCAnPG91dGZpbGUubWFlPic=

>  <r_epik_Ionization_Penalty>  (204) 
0.0144735

>  <r_epik_Ionization_Penalty_Charging>  (204) 
0.0143808

>  <r_epik_Ionization_Penalty_Neutral>  (204) 
9.26672e-05

>  <r_epik_State_Penalty>  (204) 
0.0112451

>  <r_epik_Charging_Adjusted_Penalty>  (204) 
0.0256259

>  <i_epik_Tot_Q>  (204) 
1

>  <i_epik_Tot_abs_Q>  (204) 
1

>  <s_epik_Chemistry_Notes>  (204) 
This compound has an ester and may undergo hydrolysis at high or low pH.

>  <s_lp_Force_Field>  (204) 
OPLS3e

>  <r_lp_Energy>  (204) 
843.61

>  <b_lp_Chiralities_Consistent>  (204) 
1

>  <s_lp_Variant>  (204) 
69:0-1

>  <s_i_glide_gridfile>  (204) 
pfpi4k_grid

>  <i_i_glide_lignum>  (204) 
4

>  <i_i_glide_rotatable_bonds>  (204) 
0

>  <r_i_docking_score>  (204) 
-3.18329

>  <r_i_glide_ligand_efficiency>  (204) 
-0.17685

>  <r_i_glide_ligand_efficiency_sa>  (204) 
-0.463477

>  <r_i_glide_ligand_efficiency_ln>  (204) 
-0.818249

>  <r_i_glide_gscore>  (204) 
-3.18329

>  <r_i_glide_lipo>  (204) 
-0.302449

>  <r_i_glide_hbond>  (204) 
0

>  <r_i_glide_metal>  (204) 
-0

>  <r_i_glide_rewards>  (204) 
-1.74364

>  <r_i_glide_evdw>  (204) 
-16.2886

>  <r_i_glide_ecoul>  (204) 
-1.78161

>  <r_i_glide_erotb>  (204) 
0

>  <r_i_glide_esite>  (204) 
-0.0555296

>  <r_i_glide_emodel>  (204) 
-23.7615

>  <r_i_glide_energy>  (204) 
-18.0702

>  <r_i_glide_einternal>  (204) 
0

>  <r_i_glide_intrahb_reward>  (204) 
-0

>  <i_i_glide_confnum>  (204) 
2

>  <i_i_glide_posenum>  (204) 
3

>  <r_i_glide_eff_state_penalty>  (204) 
0

>  <ligand_id>  (204) 
69

>  <original_smiles>  (204) 
CN1C2C3C4C5C6C7C(=O)OC4C1(C5C7=O)C2C63

>  <smiles>  (204) 
[H]C12C(=O)OC3([H])C4([H])C5([H])C([H])(C1=O)C31C3([H])C([H])(C25[H])C4([H])C3([H])[N+]1([H])C([H])([H])[H]

$$$$
69:1:0
     RDKit          3D

 31 37  0  0  1  0  0  0  0  0999 V2000
    2.4530   -2.2984   -2.5752 C   0  0  0  0  0  0  0  0  0  0  0  0
    3.6572   -3.1011   -2.4428 N   0  0  0  0  0  0  0  0  0  0  0  0
    4.9727   -2.3800   -2.7770 C   0  0  2  0  0  0  0  0  0  0  0  0
    6.5573   -2.6088   -1.8671 C   0  0  2  0  0  0  0  0  0  0  0  0
    6.7181   -3.5468   -0.4536 C   0  0  1  0  0  0  0  0  0  0  0  0
    5.9209   -2.6472    0.3830 C   0  0  1  0  0  0  0  0  0  0  0  0
    5.7254   -1.3711    0.4154 C   0  0  2  0  0  0  0  0  0  0  0  0
    4.7244   -2.0499    1.7799 C   0  0  2  0  0  0  0  0  0  0  0  0
    4.7952   -3.6407    2.3419 C   0  0  0  0  0  0  0  0  0  0  0  0
    4.6913   -3.8946    3.5353 O   0  0  0  0  0  0  0  0  0  0  0  0
    5.0008   -4.6912    1.2482 O   0  0  0  0  0  0  0  0  0  0  0  0
    5.3156   -4.4471   -0.2512 C   0  0  1  0  0  0  0  0  0  0  0  0
    4.0868   -3.6440   -1.0444 C   0  0  2  0  0  0  0  0  0  0  0  0
    4.1822   -2.6577   -0.0177 C   0  0  1  0  0  0  0  0  0  0  0  0
    3.4491   -2.3475    1.1598 C   0  0  0  0  0  0  0  0  0  0  0  0
    2.2713   -2.3031    1.4951 O   0  0  0  0  0  0  0  0  0  0  0  0
    5.1324   -3.2247   -1.9585 C   0  0  2  0  0  0  0  0  0  0  0  0
    5.8129   -1.6447   -1.2845 C   0  0  2  0  0  0  0  0  0  0  0  0
    2.2417   -2.1039   -3.6307 H   0  0  0  0  0  0  0  0  0  0  0  0
    2.5393   -1.3316   -2.0735 H   0  0  0  0  0  0  0  0  0  0  0  0
    1.6003   -2.8469   -2.1704 H   0  0  0  0  0  0  0  0  0  0  0  0
    5.1678   -2.6720   -3.8062 H   0  0  0  0  0  0  0  0  0  0  0  0
    7.4696   -2.2201   -2.3125 H   0  0  0  0  0  0  0  0  0  0  0  0
    7.6887   -3.8725   -0.0978 H   0  0  0  0  0  0  0  0  0  0  0  0
    6.6221   -2.7300    1.2530 H   0  0  0  0  0  0  0  0  0  0  0  0
    6.5774   -0.7847    0.7639 H   0  0  0  0  0  0  0  0  0  0  0  0
    4.6086   -1.3544    2.6084 H   0  0  0  0  0  0  0  0  0  0  0  0
    5.4708   -5.4302   -0.6979 H   0  0  0  0  0  0  0  0  0  0  0  0
    3.7652   -1.7489   -0.4746 H   0  0  0  0  0  0  0  0  0  0  0  0
    5.5178   -4.1619   -2.5573 H   0  0  0  0  0  0  0  0  0  0  0  0
    5.8673   -0.6990   -1.8501 H   0  0  0  0  0  0  0  0  0  0  0  0
  1  2  1  0
  1 19  1  0
  1 20  1  0
  1 21  1  0
 13  2  1  1
  2  3  1  0
  3 17  1  0
  3  4  1  0
  3 22  1  6
  4 18  1  0
  4  5  1  0
  4 23  1  6
  5 12  1  0
  5  6  1  0
  5 24  1  1
  6 14  1  0
  6  7  1  0
  6 25  1  1
  7 18  1  0
  7  8  1  0
  7 26  1  1
  8 15  1  0
  8  9  1  0
  8 27  1  1
  9 10  2  0
  9 11  1  0
 11 12  1  0
 12 13  1  0
 12 28  1  6
 13 14  1  0
 13 17  1  0
 14 15  1  0
 14 29  1  6
 15 16  2  0
 17 18  1  0
 17 30  1  6
 18 31  1  6
M  END
>  <i_m_ct_stereo_status>  (205) 
1

>  <s_m_source_file>  (205) 
/var/tmp/pbs.5076255.sched01/tmpelb551ou/82hj6rxffr.sdf

>  <i_m_source_file_index>  (205) 
5

>  <i_lp_mmshare_version>  (205) 
48012

>  <i_f3d_flags>  (205) 
0

>  <s_epik_input>  (205) 
QzEyM1tDQEhdNFtDQEhdNVtDQEhdNltDQEhdKE4xW0NIM10pW0NASF0zW0NASF02W0NAQEhdN1tDQEhdNVtDSF0yQyg9TylbQ0BIXTdDKD1PKU80

>  <s_epik_cmdline>  (205) 
J2VwaWtfcHl0aG9uJywgJy1waHQnLCAnMi4wJywgJy1waCcsICc3LjAnLCAnLXRuJywgJzgnLCAnLW1hJywgJzIwMCcsICctaW1hZScsICc8aW5maWxlLm1hZT4nLCAnLW9tYWUnLCAnPG91dGZpbGUubWFlPic=

>  <r_epik_Ionization_Penalty>  (205) 
2.2103

>  <r_epik_Ionization_Penalty_Charging>  (205) 
0

>  <r_epik_Ionization_Penalty_Neutral>  (205) 
2.2103

>  <r_epik_State_Penalty>  (205) 
2.35446

>  <r_epik_Charging_Adjusted_Penalty>  (205) 
2.35446

>  <i_epik_Tot_Q>  (205) 
0

>  <i_epik_Tot_abs_Q>  (205) 
0

>  <s_epik_Chemistry_Notes>  (205) 
This compound has an ester and may undergo hydrolysis at high or low pH.

>  <s_lp_Force_Field>  (205) 
OPLS3e

>  <r_lp_Energy>  (205) 
836.228

>  <b_lp_Chiralities_Consistent>  (205) 
1

>  <s_lp_Variant>  (205) 
69:0-2

>  <s_i_glide_gridfile>  (205) 
pfpi4k_grid

>  <i_i_glide_lignum>  (205) 
5

>  <i_i_glide_rotatable_bonds>  (205) 
0

>  <r_i_docking_score>  (205) 
-3.09987

>  <r_i_glide_ligand_efficiency>  (205) 
-0.172215

>  <r_i_glide_ligand_efficiency_sa>  (205) 
-0.451331

>  <r_i_glide_ligand_efficiency_ln>  (205) 
-0.796805

>  <r_i_glide_gscore>  (205) 
-3.09987

>  <r_i_glide_lipo>  (205) 
-0.612331

>  <r_i_glide_hbond>  (205) 
0

>  <r_i_glide_metal>  (205) 
-0

>  <r_i_glide_rewards>  (205) 
-1.79081

>  <r_i_glide_evdw>  (205) 
-17.4756

>  <r_i_glide_ecoul>  (205) 
1.2869

>  <r_i_glide_erotb>  (205) 
0

>  <r_i_glide_esite>  (205) 
-0.0159774

>  <r_i_glide_emodel>  (205) 
-19.3331

>  <r_i_glide_energy>  (205) 
-16.1887

>  <r_i_glide_einternal>  (205) 
0

>  <r_i_glide_intrahb_reward>  (205) 
-0

>  <i_i_glide_confnum>  (205) 
2

>  <i_i_glide_posenum>  (205) 
32

>  <r_i_glide_eff_state_penalty>  (205) 
0

>  <ligand_id>  (205) 
69

>  <original_smiles>  (205) 
CN1C2C3C4C5C6C7C(=O)OC4C1(C5C7=O)C2C63

>  <smiles>  (205) 
[H]C([H])([H])N1C2([H])C3([H])C4([H])C5([H])OC(=O)C6([H])C(=O)C7([H])C4([H])C6([H])C3([H])C2([H])C157

$$$$
69:1:1
     RDKit          3D

 31 37  0  0  1  0  0  0  0  0999 V2000
    3.1100   -0.2959   -3.1930 C   0  0  0  0  0  0  0  0  0  0  0  0
    3.0628   -1.7384   -3.0457 N   0  0  0  0  0  0  0  0  0  0  0  0
    4.3337   -2.4847   -3.4735 C   0  0  2  0  0  0  0  0  0  0  0  0
    5.0234   -3.9442   -2.6011 C   0  0  2  0  0  0  0  0  0  0  0  0
    4.4365   -4.5562   -1.1234 C   0  0  1  0  0  0  0  0  0  0  0  0
    4.8579   -3.3986   -0.3361 C   0  0  1  0  0  0  0  0  0  0  0  0
    5.8452   -2.5719   -0.3990 C   0  0  2  0  0  0  0  0  0  0  0  0
    4.8616   -2.0605    1.0505 C   0  0  2  0  0  0  0  0  0  0  0  0
    3.5878   -2.9396    1.7300 C   0  0  0  0  0  0  0  0  0  0  0  0
    3.4152   -2.9701    2.9419 O   0  0  0  0  0  0  0  0  0  0  0  0
    2.7115   -3.6735    0.7147 O   0  0  0  0  0  0  0  0  0  0  0  0
    2.9606   -3.8272   -0.8078 C   0  0  1  0  0  0  0  0  0  0  0  0
    2.9421   -2.3683   -1.6223 C   0  0  2  0  0  0  0  0  0  0  0  0
    3.9141   -1.9230   -0.6744 C   0  0  1  0  0  0  0  0  0  0  0  0
    3.8909   -1.1342    0.5109 C   0  0  0  0  0  0  0  0  0  0  0  0
    3.4069   -0.0697    0.8801 O   0  0  0  0  0  0  0  0  0  0  0  0
    3.7615   -3.0524   -2.6018 C   0  0  2  0  0  0  0  0  0  0  0  0
    5.5130   -2.8079   -2.0737 C   0  0  2  0  0  0  0  0  0  0  0  0
    3.0793   -0.0217   -4.2513 H   0  0  0  0  0  0  0  0  0  0  0  0
    3.9915    0.1735   -2.7474 H   0  0  0  0  0  0  0  0  0  0  0  0
    2.2136    0.0890   -2.7188 H   0  0  0  0  0  0  0  0  0  0  0  0
    4.1078   -2.8258   -4.4824 H   0  0  0  0  0  0  0  0  0  0  0  0
    5.8009   -4.4947   -3.1076 H   0  0  0  0  0  0  0  0  0  0  0  0
    4.6838   -5.5533   -0.7840 H   0  0  0  0  0  0  0  0  0  0  0  0
    5.2202   -4.0374    0.5107 H   0  0  0  0  0  0  0  0  0  0  0  0
    6.8132   -3.0015   -0.1309 H   0  0  0  0  0  0  0  0  0  0  0  0
    5.4653   -1.5910    1.8227 H   0  0  0  0  0  0  0  0  0  0  0  0
    2.1667   -4.4780   -1.1730 H   0  0  0  0  0  0  0  0  0  0  0  0
    4.4318   -1.1035   -1.1900 H   0  0  0  0  0  0  0  0  0  0  0  0
    3.1099   -3.8609   -3.1506 H   0  0  0  0  0  0  0  0  0  0  0  0
    6.3321   -2.4478   -2.7189 H   0  0  0  0  0  0  0  0  0  0  0  0
  1  2  1  0
  1 19  1  0
  1 20  1  0
  1 21  1  0
 13  2  1  1
  2  3  1  0
  3 17  1  0
  3  4  1  0
  3 22  1  6
  4 18  1  0
  4  5  1  0
  4 23  1  6
  5 12  1  0
  5  6  1  0
  5 24  1  1
  6 14  1  0
  6  7  1  0
  6 25  1  1
  7 18  1  0
  7  8  1  0
  7 26  1  6
  8 15  1  0
  8  9  1  0
  8 27  1  1
  9 10  2  0
  9 11  1  0
 11 12  1  0
 12 13  1  0
 12 28  1  6
 13 14  1  0
 13 17  1  0
 14 15  1  0
 14 29  1  6
 15 16  2  0
 17 18  1  0
 17 30  1  6
 18 31  1  6
M  END
>  <i_m_ct_stereo_status>  (206) 
1

>  <s_m_source_file>  (206) 
/var/tmp/pbs.5076255.sched01/tmpelb551ou/82hj6rxffr.sdf

>  <i_m_source_file_index>  (206) 
5

>  <i_lp_mmshare_version>  (206) 
48012

>  <i_f3d_flags>  (206) 
0

>  <s_epik_input>  (206) 
QzEyM1tDQEhdNFtDQEhdNVtDQEhdNltDQEhdKE4xW0NIM10pW0NASF0zW0NASF02W0NAQEhdN1tDQEhdNVtDSF0yQyg9TylbQ0BIXTdDKD1PKU80

>  <s_epik_cmdline>  (206) 
J2VwaWtfcHl0aG9uJywgJy1waHQnLCAnMi4wJywgJy1waCcsICc3LjAnLCAnLXRuJywgJzgnLCAnLW1hJywgJzIwMCcsICctaW1hZScsICc8aW5maWxlLm1hZT4nLCAnLW9tYWUnLCAnPG91dGZpbGUubWFlPic=

>  <r_epik_Ionization_Penalty>  (206) 
2.2103

>  <r_epik_Ionization_Penalty_Charging>  (206) 
0

>  <r_epik_Ionization_Penalty_Neutral>  (206) 
2.2103

>  <r_epik_State_Penalty>  (206) 
2.35446

>  <r_epik_Charging_Adjusted_Penalty>  (206) 
2.35446

>  <i_epik_Tot_Q>  (206) 
0

>  <i_epik_Tot_abs_Q>  (206) 
0

>  <s_epik_Chemistry_Notes>  (206) 
This compound has an ester and may undergo hydrolysis at high or low pH.

>  <s_lp_Force_Field>  (206) 
OPLS3e

>  <r_lp_Energy>  (206) 
836.228

>  <b_lp_Chiralities_Consistent>  (206) 
1

>  <s_lp_Variant>  (206) 
69:0-2

>  <s_i_glide_gridfile>  (206) 
pfpi4k_grid

>  <i_i_glide_lignum>  (206) 
5

>  <i_i_glide_rotatable_bonds>  (206) 
0

>  <r_i_docking_score>  (206) 
-3.08555

>  <r_i_glide_ligand_efficiency>  (206) 
-0.171419

>  <r_i_glide_ligand_efficiency_sa>  (206) 
-0.449246

>  <r_i_glide_ligand_efficiency_ln>  (206) 
-0.793124

>  <r_i_glide_gscore>  (206) 
-3.08555

>  <r_i_glide_lipo>  (206) 
-0.349778

>  <r_i_glide_hbond>  (206) 
0

>  <r_i_glide_metal>  (206) 
-0

>  <r_i_glide_rewards>  (206) 
-1.75051

>  <r_i_glide_evdw>  (206) 
-17.9652

>  <r_i_glide_ecoul>  (206) 
-0.393417

>  <r_i_glide_erotb>  (206) 
0

>  <r_i_glide_esite>  (206) 
-0.0279832

>  <r_i_glide_emodel>  (206) 
-21.4289

>  <r_i_glide_energy>  (206) 
-18.3586

>  <r_i_glide_einternal>  (206) 
0

>  <r_i_glide_intrahb_reward>  (206) 
-0

>  <i_i_glide_confnum>  (206) 
1

>  <i_i_glide_posenum>  (206) 
5

>  <r_i_glide_eff_state_penalty>  (206) 
0

>  <ligand_id>  (206) 
69

>  <original_smiles>  (206) 
CN1C2C3C4C5C6C7C(=O)OC4C1(C5C7=O)C2C63

>  <smiles>  (206) 
[H]C([H])([H])N1C2([H])C3([H])C4([H])C5([H])OC(=O)C6([H])C(=O)C7([H])C4([H])C6([H])C3([H])C2([H])C157

$$$$
69:1:2
     RDKit          3D

 31 37  0  0  1  0  0  0  0  0999 V2000
   -2.6266    3.2865    2.8933 C   0  0  0  0  0  0  0  0  0  0  0  0
   -2.0023    3.5638    4.1856 N   0  0  0  0  0  0  0  0  0  0  0  0
   -2.5600    2.7466    5.3705 C   0  0  2  0  0  0  0  0  0  0  0  0
   -1.5396    2.0403    6.7403 C   0  0  2  0  0  0  0  0  0  0  0  0
    0.1602    2.0928    6.7712 C   0  0  1  0  0  0  0  0  0  0  0  0
    0.3411    1.1692    5.6500 C   0  0  1  0  0  0  0  0  0  0  0  0
   -0.3190    0.1535    5.2003 C   0  0  2  0  0  0  0  0  0  0  0  0
    1.1173    0.3442    4.0844 C   0  0  2  0  0  0  0  0  0  0  0  0
    2.4345    1.3690    4.3526 C   0  0  0  0  0  0  0  0  0  0  0  0
    3.5749    1.0232    4.0636 O   0  0  0  0  0  0  0  0  0  0  0  0
    2.0760    2.7106    4.9993 O   0  0  0  0  0  0  0  0  0  0  0  0
    0.6977    3.1363    5.5744 C   0  0  1  0  0  0  0  0  0  0  0  0
   -0.5035    3.2029    4.4117 C   0  0  2  0  0  0  0  0  0  0  0  0
   -0.1374    1.8643    4.0767 C   0  0  1  0  0  0  0  0  0  0  0  0
    0.6487    1.2526    3.0622 C   0  0  0  0  0  0  0  0  0  0  0  0
    0.7726    1.3527    1.8453 O   0  0  0  0  0  0  0  0  0  0  0  0
   -1.4063    3.0059    5.5321 C   0  0  2  0  0  0  0  0  0  0  0  0
   -1.6109    1.1783    5.7069 C   0  0  2  0  0  0  0  0  0  0  0  0
   -3.6441    3.6842    2.8863 H   0  0  0  0  0  0  0  0  0  0  0  0
   -2.6874    2.2247    2.6480 H   0  0  0  0  0  0  0  0  0  0  0  0
   -2.0665    3.7920    2.1076 H   0  0  0  0  0  0  0  0  0  0  0  0
   -3.2795    3.4084    5.8490 H   0  0  0  0  0  0  0  0  0  0  0  0
   -2.0491    1.6528    7.6204 H   0  0  0  0  0  0  0  0  0  0  0  0
    0.7222    1.9170    7.6953 H   0  0  0  0  0  0  0  0  0  0  0  0
    1.1765    0.6239    6.1528 H   0  0  0  0  0  0  0  0  0  0  0  0
   -0.2546   -0.7405    5.8223 H   0  0  0  0  0  0  0  0  0  0  0  0
    1.4485   -0.6036    3.6567 H   0  0  0  0  0  0  0  0  0  0  0  0
    0.8446    4.1203    6.0191 H   0  0  0  0  0  0  0  0  0  0  0  0
   -1.0364    1.4521    3.5967 H   0  0  0  0  0  0  0  0  0  0  0  0
   -1.3939    3.9631    6.2123 H   0  0  0  0  0  0  0  0  0  0  0  0
   -2.5729    0.6344    5.7615 H   0  0  0  0  0  0  0  0  0  0  0  0
  1  2  1  0
  1 19  1  0
  1 20  1  0
  1 21  1  0
 13  2  1  1
  2  3  1  0
  3 17  1  0
  3  4  1  0
  3 22  1  1
  4 18  1  0
  4  5  1  0
  4 23  1  1
  5 12  1  0
  5  6  1  0
  5 24  1  1
  6 14  1  0
  6  7  1  0
  6 25  1  6
  7 18  1  0
  7  8  1  0
  7 26  1  1
  8 15  1  0
  8  9  1  0
  8 27  1  6
  9 10  2  0
  9 11  1  0
 11 12  1  0
 12 13  1  0
 12 28  1  1
 13 14  1  0
 13 17  1  0
 14 15  1  0
 14 29  1  6
 15 16  2  0
 17 18  1  0
 17 30  1  1
 18 31  1  6
M  END
>  <i_m_ct_stereo_status>  (207) 
1

>  <s_m_source_file>  (207) 
/var/tmp/pbs.5076255.sched01/tmpelb551ou/82hj6rxffr.sdf

>  <i_m_source_file_index>  (207) 
5

>  <i_lp_mmshare_version>  (207) 
48012

>  <i_f3d_flags>  (207) 
0

>  <s_epik_input>  (207) 
QzEyM1tDQEhdNFtDQEhdNVtDQEhdNltDQEhdKE4xW0NIM10pW0NASF0zW0NASF02W0NAQEhdN1tDQEhdNVtDSF0yQyg9TylbQ0BIXTdDKD1PKU80

>  <s_epik_cmdline>  (207) 
J2VwaWtfcHl0aG9uJywgJy1waHQnLCAnMi4wJywgJy1waCcsICc3LjAnLCAnLXRuJywgJzgnLCAnLW1hJywgJzIwMCcsICctaW1hZScsICc8aW5maWxlLm1hZT4nLCAnLW9tYWUnLCAnPG91dGZpbGUubWFlPic=

>  <r_epik_Ionization_Penalty>  (207) 
2.2103

>  <r_epik_Ionization_Penalty_Charging>  (207) 
0

>  <r_epik_Ionization_Penalty_Neutral>  (207) 
2.2103

>  <r_epik_State_Penalty>  (207) 
2.35446

>  <r_epik_Charging_Adjusted_Penalty>  (207) 
2.35446

>  <i_epik_Tot_Q>  (207) 
0

>  <i_epik_Tot_abs_Q>  (207) 
0

>  <s_epik_Chemistry_Notes>  (207) 
This compound has an ester and may undergo hydrolysis at high or low pH.

>  <s_lp_Force_Field>  (207) 
OPLS3e

>  <r_lp_Energy>  (207) 
836.228

>  <b_lp_Chiralities_Consistent>  (207) 
1

>  <s_lp_Variant>  (207) 
69:0-2

>  <s_i_glide_gridfile>  (207) 
pfpi4k_grid

>  <i_i_glide_lignum>  (207) 
5

>  <i_i_glide_rotatable_bonds>  (207) 
0

>  <r_i_docking_score>  (207) 
-2.51928

>  <r_i_glide_ligand_efficiency>  (207) 
-0.13996

>  <r_i_glide_ligand_efficiency_sa>  (207) 
-0.366799

>  <r_i_glide_ligand_efficiency_ln>  (207) 
-0.647567

>  <r_i_glide_gscore>  (207) 
-2.51928

>  <r_i_glide_lipo>  (207) 
-0.000418823

>  <r_i_glide_hbond>  (207) 
0

>  <r_i_glide_metal>  (207) 
-0

>  <r_i_glide_rewards>  (207) 
-1.75051

>  <r_i_glide_evdw>  (207) 
-14.8088

>  <r_i_glide_ecoul>  (207) 
0.0423365

>  <r_i_glide_erotb>  (207) 
0

>  <r_i_glide_esite>  (207) 
-0.034255

>  <r_i_glide_emodel>  (207) 
-17.3252

>  <r_i_glide_energy>  (207) 
-14.7665

>  <r_i_glide_einternal>  (207) 
0

>  <r_i_glide_intrahb_reward>  (207) 
-0

>  <i_i_glide_confnum>  (207) 
2

>  <i_i_glide_posenum>  (207) 
28

>  <r_i_glide_eff_state_penalty>  (207) 
0

>  <ligand_id>  (207) 
69

>  <original_smiles>  (207) 
CN1C2C3C4C5C6C7C(=O)OC4C1(C5C7=O)C2C63

>  <smiles>  (207) 
[H]C([H])([H])N1C2([H])C3([H])C4([H])C5([H])OC(=O)C6([H])C(=O)C7([H])C4([H])C6([H])C3([H])C2([H])C157

$$$$
70:0:0
     RDKit          3D

 38 42  0  0  1  0  0  0  0  0999 V2000
    3.3349   -1.2025   -3.2451 C   0  0  0  0  0  0  0  0  0  0  0  0
    4.1435   -1.2615   -1.9597 C   0  0  0  0  0  0  0  0  0  0  0  0
    5.3609   -1.1291   -2.0538 O   0  0  0  0  0  0  0  0  0  0  0  0
    3.4778   -1.4570   -0.7931 N   0  0  0  0  0  0  0  0  0  0  0  0
    4.0175   -1.6194    0.5853 C   0  0  1  0  0  0  0  0  0  0  0  0
    3.7907   -0.3154    1.3772 C   0  0  0  0  0  0  0  0  0  0  0  0
    5.0301   -0.7293    2.1749 C   0  0  1  0  0  0  0  0  0  0  0  0
    4.5002   -1.4038    3.4743 C   0  0  0  0  0  0  0  0  0  0  0  0
    3.6784   -2.7072    3.2988 C   0  0  2  0  0  0  0  0  0  0  0  0
    4.5094   -3.5958    2.4689 C   0  0  0  0  0  0  0  0  0  0  0  0
    3.7858   -3.0552    1.1749 C   0  0  1  0  0  0  0  0  0  0  0  0
    2.6221   -3.0457    2.1837 C   0  0  0  0  0  0  0  0  0  0  0  0
    4.1961   -4.0723    0.1164 C   0  0  0  0  0  0  0  0  0  0  0  0
    5.6349   -3.7126   -0.3570 C   0  0  2  0  0  0  0  0  0  0  0  0
    6.8300   -3.9025    0.5086 C   0  0  0  0  0  0  0  0  0  0  0  0
    6.4211   -2.4623    0.2091 C   0  0  2  0  0  0  0  0  0  0  0  0
    5.4810   -1.3362    0.7570 C   0  0  1  0  0  0  0  0  0  0  0  0
    2.2509   -1.2271   -3.0814 H   0  0  0  0  0  0  0  0  0  0  0  0
    3.6012   -2.0441   -3.8912 H   0  0  0  0  0  0  0  0  0  0  0  0
    3.5851   -0.2878   -3.7904 H   0  0  0  0  0  0  0  0  0  0  0  0
    2.4569   -1.4521   -0.8425 H   0  0  0  0  0  0  0  0  0  0  0  0
    3.9318    0.5989    0.8040 H   0  0  0  0  0  0  0  0  0  0  0  0
    2.8587   -0.2617    1.9399 H   0  0  0  0  0  0  0  0  0  0  0  0
    5.6456    0.1424    2.4122 H   0  0  0  0  0  0  0  0  0  0  0  0
    5.3449   -1.5996    4.1392 H   0  0  0  0  0  0  0  0  0  0  0  0
    3.9016   -0.6876    4.0442 H   0  0  0  0  0  0  0  0  0  0  0  0
    3.4193   -3.1812    4.2526 H   0  0  0  0  0  0  0  0  0  0  0  0
    5.5519   -3.3418    2.6325 H   0  0  0  0  0  0  0  0  0  0  0  0
    4.3492   -4.6504    2.6942 H   0  0  0  0  0  0  0  0  0  0  0  0
    2.1531   -4.0204    2.3212 H   0  0  0  0  0  0  0  0  0  0  0  0
    1.8759   -2.2673    2.0245 H   0  0  0  0  0  0  0  0  0  0  0  0
    4.1870   -5.0977    0.4872 H   0  0  0  0  0  0  0  0  0  0  0  0
    3.5052   -4.0604   -0.7274 H   0  0  0  0  0  0  0  0  0  0  0  0
    5.7740   -3.9206   -1.4148 H   0  0  0  0  0  0  0  0  0  0  0  0
    6.7404   -4.3998    1.4604 H   0  0  0  0  0  0  0  0  0  0  0  0
    7.7125   -4.2342   -0.0289 H   0  0  0  0  0  0  0  0  0  0  0  0
    7.1390   -2.0100   -0.4797 H   0  0  0  0  0  0  0  0  0  0  0  0
    5.7910   -0.4391    0.2042 H   0  0  0  0  0  0  0  0  0  0  0  0
  1  2  1  0
  1 18  1  0
  1 19  1  0
  1 20  1  0
  2  3  2  0
  2  4  1  0
  5  4  1  6
  4 21  1  0
  5 11  1  0
  5 17  1  0
  5  6  1  0
  6  7  1  0
  6 22  1  0
  6 23  1  0
  7 17  1  0
  7  8  1  0
  7 24  1  1
  8  9  1  0
  8 25  1  0
  8 26  1  0
  9 12  1  0
  9 10  1  0
  9 27  1  1
 10 11  1  0
 10 28  1  0
 10 29  1  0
 11 12  1  0
 11 13  1  6
 12 30  1  0
 12 31  1  0
 13 14  1  0
 13 32  1  0
 13 33  1  0
 14 16  1  0
 14 15  1  0
 14 34  1  6
 15 16  1  0
 15 35  1  0
 15 36  1  0
 16 17  1  0
 16 37  1  6
 17 38  1  6
M  END
>  <i_m_ct_stereo_status>  (208) 
1

>  <s_m_source_file>  (208) 
/var/tmp/pbs.5076255.sched01/tmpelb551ou/82hj6rxffr.sdf

>  <i_m_source_file_index>  (208) 
6

>  <i_lp_mmshare_version>  (208) 
48012

>  <i_f3d_flags>  (208) 
0

>  <s_epik_input>  (208) 
W0NIM11DKD1PKVtOSF1bQ0BAXTEoW0NAQF0yMzQpW0NASF0oW0NAQEhdNVtDQEhdKFtDSDJdNClbQ0gyXTUpW0NAQEhdKFtDSDJdMSlbQ0gyXVtDQEhdKFtDSDJdMilbQ0gyXTM=

>  <s_epik_cmdline>  (208) 
J2VwaWtfcHl0aG9uJywgJy1waHQnLCAnMi4wJywgJy1waCcsICc3LjAnLCAnLXRuJywgJzgnLCAnLW1hJywgJzIwMCcsICctaW1hZScsICc8aW5maWxlLm1hZT4nLCAnLW9tYWUnLCAnPG91dGZpbGUubWFlPic=

>  <r_lp_tautomer_probability>  (208) 
1

>  <r_epik_Ionization_Penalty>  (208) 
5.42661e-06

>  <r_epik_Ionization_Penalty_Charging>  (208) 
0

>  <r_epik_Ionization_Penalty_Neutral>  (208) 
5.42661e-06

>  <r_epik_State_Penalty>  (208) 
-0

>  <r_epik_Charging_Adjusted_Penalty>  (208) 
0

>  <i_epik_Tot_Q>  (208) 
0

>  <i_epik_Tot_abs_Q>  (208) 
0

>  <s_lp_Force_Field>  (208) 
OPLS3e

>  <r_lp_Energy>  (208) 
114.106

>  <b_lp_Chiralities_Consistent>  (208) 
1

>  <s_lp_Variant>  (208) 
70:0-1

>  <s_i_glide_gridfile>  (208) 
pfpi4k_grid

>  <i_i_glide_lignum>  (208) 
6

>  <i_i_glide_rotatable_bonds>  (208) 
2

>  <r_i_docking_score>  (208) 
-4.46693

>  <r_i_glide_ligand_efficiency>  (208) 
-0.26276

>  <r_i_glide_ligand_efficiency_sa>  (208) 
-0.675631

>  <r_i_glide_ligand_efficiency_ln>  (208) 
-1.16532

>  <r_i_glide_gscore>  (208) 
-4.46693

>  <r_i_glide_lipo>  (208) 
-0.632721

>  <r_i_glide_hbond>  (208) 
-0.16

>  <r_i_glide_metal>  (208) 
-0

>  <r_i_glide_rewards>  (208) 
-1.83182

>  <r_i_glide_evdw>  (208) 
-21.6109

>  <r_i_glide_ecoul>  (208) 
-4.13418

>  <r_i_glide_erotb>  (208) 
0

>  <r_i_glide_esite>  (208) 
-0.141717

>  <r_i_glide_emodel>  (208) 
-28.753

>  <r_i_glide_energy>  (208) 
-25.745

>  <r_i_glide_einternal>  (208) 
9.03083

>  <r_i_glide_intrahb_reward>  (208) 
-0

>  <i_i_glide_confnum>  (208) 
1

>  <i_i_glide_posenum>  (208) 
7

>  <r_i_glide_eff_state_penalty>  (208) 
0

>  <ligand_id>  (208) 
70

>  <original_smiles>  (208) 
CC(=O)NC12CC3CC4CC1(C4)CC1CC1C32

>  <smiles>  (208) 
[H]N(C(=O)C([H])([H])[H])C12C([H])([H])C3([H])C([H])([H])C4([H])C([H])([H])C1(C4([H])[H])C([H])([H])C1([H])C([H])([H])C1([H])C32[H]

$$$$
70:0:1
     RDKit          3D

 38 42  0  0  1  0  0  0  0  0999 V2000
    3.0611   -1.8688   -3.5167 C   0  0  0  0  0  0  0  0  0  0  0  0
    3.9383   -1.6793   -2.2872 C   0  0  0  0  0  0  0  0  0  0  0  0
    4.9860   -1.0469   -2.4271 O   0  0  0  0  0  0  0  0  0  0  0  0
    3.5124   -2.2068   -1.1187 N   0  0  0  0  0  0  0  0  0  0  0  0
    4.1261   -2.1327    0.2322 C   0  0  1  0  0  0  0  0  0  0  0  0
    4.4791   -0.6739    0.5893 C   0  0  0  0  0  0  0  0  0  0  0  0
    5.5849   -1.2925    1.4399 C   0  0  1  0  0  0  0  0  0  0  0  0
    5.0139   -1.2845    2.8846 C   0  0  0  0  0  0  0  0  0  0  0  0
    3.7670   -2.1672    3.1418 C   0  0  2  0  0  0  0  0  0  0  0  0
    4.1182   -3.5092    2.6458 C   0  0  0  0  0  0  0  0  0  0  0  0
    3.4792   -3.1504    1.2457 C   0  0  1  0  0  0  0  0  0  0  0  0
    2.5276   -2.4073    2.2026 C   0  0  0  0  0  0  0  0  0  0  0  0
    3.3621   -4.5106    0.5639 C   0  0  0  0  0  0  0  0  0  0  0  0
    4.7523   -4.8728   -0.0261 C   0  0  2  0  0  0  0  0  0  0  0  0
    5.9097   -5.2302    0.8505 C   0  0  0  0  0  0  0  0  0  0  0  0
    5.9851   -3.9041    0.0807 C   0  0  2  0  0  0  0  0  0  0  0  0
    5.5959   -2.4069    0.2749 C   0  0  1  0  0  0  0  0  0  0  0  0
    2.1148   -2.3744   -3.2987 H   0  0  0  0  0  0  0  0  0  0  0  0
    3.6072   -2.4463   -4.2641 H   0  0  0  0  0  0  0  0  0  0  0  0
    2.8397   -0.8914   -3.9538 H   0  0  0  0  0  0  0  0  0  0  0  0
    2.6193   -2.6814   -1.1503 H   0  0  0  0  0  0  0  0  0  0  0  0
    4.8767   -0.0532   -0.2115 H   0  0  0  0  0  0  0  0  0  0  0  0
    3.6973   -0.1263    1.1173 H   0  0  0  0  0  0  0  0  0  0  0  0
    6.4906   -0.6910    1.3657 H   0  0  0  0  0  0  0  0  0  0  0  0
    5.8055   -1.5718    3.5797 H   0  0  0  0  0  0  0  0  0  0  0  0
    4.7788   -0.2597    3.1792 H   0  0  0  0  0  0  0  0  0  0  0  0
    3.4772   -2.1994    4.1966 H   0  0  0  0  0  0  0  0  0  0  0  0
    5.1939   -3.6238    2.7151 H   0  0  0  0  0  0  0  0  0  0  0  0
    3.6268   -4.3110    3.2021 H   0  0  0  0  0  0  0  0  0  0  0  0
    1.7600   -3.0453    2.6480 H   0  0  0  0  0  0  0  0  0  0  0  0
    2.0885   -1.4952    1.8007 H   0  0  0  0  0  0  0  0  0  0  0  0
    3.0518   -5.2993    1.2525 H   0  0  0  0  0  0  0  0  0  0  0  0
    2.6122   -4.5010   -0.2280 H   0  0  0  0  0  0  0  0  0  0  0  0
    4.6710   -5.4483   -0.9422 H   0  0  0  0  0  0  0  0  0  0  0  0
    5.7747   -5.3243    1.9165 H   0  0  0  0  0  0  0  0  0  0  0  0
    6.5602   -6.0124    0.4614 H   0  0  0  0  0  0  0  0  0  0  0  0
    6.6932   -3.9846   -0.7372 H   0  0  0  0  0  0  0  0  0  0  0  0
    6.1414   -1.8968   -0.5176 H   0  0  0  0  0  0  0  0  0  0  0  0
  1  2  1  0
  1 18  1  0
  1 19  1  0
  1 20  1  0
  2  3  2  0
  2  4  1  0
  5  4  1  6
  4 21  1  0
  5 11  1  0
  5 17  1  0
  5  6  1  0
  6  7  1  0
  6 22  1  0
  6 23  1  0
  7 17  1  0
  7  8  1  0
  7 24  1  1
  8  9  1  0
  8 25  1  0
  8 26  1  0
  9 12  1  0
  9 10  1  0
  9 27  1  1
 10 11  1  0
 10 28  1  0
 10 29  1  0
 11 12  1  0
 11 13  1  6
 12 30  1  0
 12 31  1  0
 13 14  1  0
 13 32  1  0
 13 33  1  0
 14 16  1  0
 14 15  1  0
 14 34  1  6
 15 16  1  0
 15 35  1  0
 15 36  1  0
 16 17  1  0
 16 37  1  6
 17 38  1  6
M  END
>  <i_m_ct_stereo_status>  (209) 
1

>  <s_m_source_file>  (209) 
/var/tmp/pbs.5076255.sched01/tmpelb551ou/82hj6rxffr.sdf

>  <i_m_source_file_index>  (209) 
6

>  <i_lp_mmshare_version>  (209) 
48012

>  <i_f3d_flags>  (209) 
0

>  <s_epik_input>  (209) 
W0NIM11DKD1PKVtOSF1bQ0BAXTEoW0NAQF0yMzQpW0NASF0oW0NAQEhdNVtDQEhdKFtDSDJdNClbQ0gyXTUpW0NAQEhdKFtDSDJdMSlbQ0gyXVtDQEhdKFtDSDJdMilbQ0gyXTM=

>  <s_epik_cmdline>  (209) 
J2VwaWtfcHl0aG9uJywgJy1waHQnLCAnMi4wJywgJy1waCcsICc3LjAnLCAnLXRuJywgJzgnLCAnLW1hJywgJzIwMCcsICctaW1hZScsICc8aW5maWxlLm1hZT4nLCAnLW9tYWUnLCAnPG91dGZpbGUubWFlPic=

>  <r_lp_tautomer_probability>  (209) 
1

>  <r_epik_Ionization_Penalty>  (209) 
5.42661e-06

>  <r_epik_Ionization_Penalty_Charging>  (209) 
0

>  <r_epik_Ionization_Penalty_Neutral>  (209) 
5.42661e-06

>  <r_epik_State_Penalty>  (209) 
-0

>  <r_epik_Charging_Adjusted_Penalty>  (209) 
0

>  <i_epik_Tot_Q>  (209) 
0

>  <i_epik_Tot_abs_Q>  (209) 
0

>  <s_lp_Force_Field>  (209) 
OPLS3e

>  <r_lp_Energy>  (209) 
114.106

>  <b_lp_Chiralities_Consistent>  (209) 
1

>  <s_lp_Variant>  (209) 
70:0-1

>  <s_i_glide_gridfile>  (209) 
pfpi4k_grid

>  <i_i_glide_lignum>  (209) 
6

>  <i_i_glide_rotatable_bonds>  (209) 
2

>  <r_i_docking_score>  (209) 
-4.13113

>  <r_i_glide_ligand_efficiency>  (209) 
-0.243008

>  <r_i_glide_ligand_efficiency_sa>  (209) 
-0.624841

>  <r_i_glide_ligand_efficiency_ln>  (209) 
-1.07772

>  <r_i_glide_gscore>  (209) 
-4.13113

>  <r_i_glide_lipo>  (209) 
-0.748721

>  <r_i_glide_hbond>  (209) 
0

>  <r_i_glide_metal>  (209) 
-0

>  <r_i_glide_rewards>  (209) 
-1.83182

>  <r_i_glide_evdw>  (209) 
-23.1488

>  <r_i_glide_ecoul>  (209) 
-1.97734

>  <r_i_glide_erotb>  (209) 
0

>  <r_i_glide_esite>  (209) 
-0.0965473

>  <r_i_glide_emodel>  (209) 
-30.3541

>  <r_i_glide_energy>  (209) 
-25.1262

>  <r_i_glide_einternal>  (209) 
4.1455

>  <r_i_glide_intrahb_reward>  (209) 
-0

>  <i_i_glide_confnum>  (209) 
1

>  <i_i_glide_posenum>  (209) 
40

>  <r_i_glide_eff_state_penalty>  (209) 
0

>  <ligand_id>  (209) 
70

>  <original_smiles>  (209) 
CC(=O)NC12CC3CC4CC1(C4)CC1CC1C32

>  <smiles>  (209) 
[H]N(C(=O)C([H])([H])[H])C12C([H])([H])C3([H])C([H])([H])C4([H])C([H])([H])C1(C4([H])[H])C([H])([H])C1([H])C([H])([H])C1([H])C32[H]

$$$$
70:0:2
     RDKit          3D

 38 42  0  0  1  0  0  0  0  0999 V2000
    2.5491   -2.8873   -3.2190 C   0  0  0  0  0  0  0  0  0  0  0  0
    2.6252   -3.0603   -1.6979 C   0  0  0  0  0  0  0  0  0  0  0  0
    1.8615   -3.8530   -1.1382 O   0  0  0  0  0  0  0  0  0  0  0  0
    3.5479   -2.3355   -1.0500 N   0  0  0  0  0  0  0  0  0  0  0  0
    3.9462   -2.4658    0.3678 C   0  0  1  0  0  0  0  0  0  0  0  0
    3.0112   -1.6134    1.2526 C   0  0  0  0  0  0  0  0  0  0  0  0
    4.2278   -1.4806    2.1614 C   0  0  1  0  0  0  0  0  0  0  0  0
    4.0415   -2.5634    3.2707 C   0  0  0  0  0  0  0  0  0  0  0  0
    4.0617   -4.0409    2.8030 C   0  0  2  0  0  0  0  0  0  0  0  0
    5.3032   -4.2049    2.0319 C   0  0  0  0  0  0  0  0  0  0  0  0
    4.5137   -3.8805    0.7115 C   0  0  1  0  0  0  0  0  0  0  0  0
    3.4540   -4.6656    1.4985 C   0  0  0  0  0  0  0  0  0  0  0  0
    5.4784   -4.2921   -0.3958 C   0  0  0  0  0  0  0  0  0  0  0  0
    6.5007   -3.1407   -0.5949 C   0  0  2  0  0  0  0  0  0  0  0  0
    7.5456   -2.8419    0.4262 C   0  0  0  0  0  0  0  0  0  0  0  0
    6.4354   -1.8050    0.2247 C   0  0  2  0  0  0  0  0  0  0  0  0
    5.0006   -1.4831    0.7466 C   0  0  1  0  0  0  0  0  0  0  0  0
    3.3165   -2.2124   -3.6046 H   0  0  0  0  0  0  0  0  0  0  0  0
    1.5724   -2.5041   -3.5182 H   0  0  0  0  0  0  0  0  0  0  0  0
    2.6723   -3.8536   -3.7089 H   0  0  0  0  0  0  0  0  0  0  0  0
    4.0520   -1.6522   -1.5895 H   0  0  0  0  0  0  0  0  0  0  0  0
    2.6828   -0.6609    0.8107 H   0  0  0  0  0  0  0  0  0  0  0  0
    2.1595   -2.1552    1.6665 H   0  0  0  0  0  0  0  0  0  0  0  0
    4.2671   -0.4833    2.5854 H   0  0  0  0  0  0  0  0  0  0  0  0
    4.8012   -2.4288    4.0407 H   0  0  0  0  0  0  0  0  0  0  0  0
    3.1051   -2.3923    3.8013 H   0  0  0  0  0  0  0  0  0  0  0  0
    4.0223   -4.7611    3.6198 H   0  0  0  0  0  0  0  0  0  0  0  0
    6.0158   -3.4737    2.3948 H   0  0  0  0  0  0  0  0  0  0  0  0
    5.7222   -5.2154    2.0815 H   0  0  0  0  0  0  0  0  0  0  0  0
    3.5661   -5.7497    1.4106 H   0  0  0  0  0  0  0  0  0  0  0  0
    2.4260   -4.3551    1.3239 H   0  0  0  0  0  0  0  0  0  0  0  0
    6.0072   -5.2110   -0.1574 H   0  0  0  0  0  0  0  0  0  0  0  0
    4.9630   -4.4951   -1.3329 H   0  0  0  0  0  0  0  0  0  0  0  0
    6.8374   -3.0614   -1.6202 H   0  0  0  0  0  0  0  0  0  0  0  0
    7.6385   -3.4906    1.2818 H   0  0  0  0  0  0  0  0  0  0  0  0
    8.5170   -2.5491    0.0280 H   0  0  0  0  0  0  0  0  0  0  0  0
    6.8350   -0.9342   -0.2781 H   0  0  0  0  0  0  0  0  0  0  0  0
    4.7745   -0.4971    0.3175 H   0  0  0  0  0  0  0  0  0  0  0  0
  1  2  1  0
  1 18  1  0
  1 19  1  0
  1 20  1  0
  2  3  2  0
  2  4  1  0
  5  4  1  6
  4 21  1  0
  5 11  1  0
  5 17  1  0
  5  6  1  0
  6  7  1  0
  6 22  1  0
  6 23  1  0
  7 17  1  0
  7  8  1  0
  7 24  1  1
  8  9  1  0
  8 25  1  0
  8 26  1  0
  9 12  1  0
  9 10  1  0
  9 27  1  1
 10 11  1  0
 10 28  1  0
 10 29  1  0
 11 12  1  0
 11 13  1  6
 12 30  1  0
 12 31  1  0
 13 14  1  0
 13 32  1  0
 13 33  1  0
 14 16  1  0
 14 15  1  0
 14 34  1  6
 15 16  1  0
 15 35  1  0
 15 36  1  0
 16 17  1  0
 16 37  1  6
 17 38  1  6
M  END
>  <i_m_ct_stereo_status>  (210) 
1

>  <s_m_source_file>  (210) 
/var/tmp/pbs.5076255.sched01/tmpelb551ou/82hj6rxffr.sdf

>  <i_m_source_file_index>  (210) 
6

>  <i_lp_mmshare_version>  (210) 
48012

>  <i_f3d_flags>  (210) 
0

>  <s_epik_input>  (210) 
W0NIM11DKD1PKVtOSF1bQ0BAXTEoW0NAQF0yMzQpW0NASF0oW0NAQEhdNVtDQEhdKFtDSDJdNClbQ0gyXTUpW0NAQEhdKFtDSDJdMSlbQ0gyXVtDQEhdKFtDSDJdMilbQ0gyXTM=

>  <s_epik_cmdline>  (210) 
J2VwaWtfcHl0aG9uJywgJy1waHQnLCAnMi4wJywgJy1waCcsICc3LjAnLCAnLXRuJywgJzgnLCAnLW1hJywgJzIwMCcsICctaW1hZScsICc8aW5maWxlLm1hZT4nLCAnLW9tYWUnLCAnPG91dGZpbGUubWFlPic=

>  <r_lp_tautomer_probability>  (210) 
1

>  <r_epik_Ionization_Penalty>  (210) 
5.42661e-06

>  <r_epik_Ionization_Penalty_Charging>  (210) 
0

>  <r_epik_Ionization_Penalty_Neutral>  (210) 
5.42661e-06

>  <r_epik_State_Penalty>  (210) 
-0

>  <r_epik_Charging_Adjusted_Penalty>  (210) 
0

>  <i_epik_Tot_Q>  (210) 
0

>  <i_epik_Tot_abs_Q>  (210) 
0

>  <s_lp_Force_Field>  (210) 
OPLS3e

>  <r_lp_Energy>  (210) 
114.106

>  <b_lp_Chiralities_Consistent>  (210) 
1

>  <s_lp_Variant>  (210) 
70:0-1

>  <s_i_glide_gridfile>  (210) 
pfpi4k_grid

>  <i_i_glide_lignum>  (210) 
6

>  <i_i_glide_rotatable_bonds>  (210) 
2

>  <r_i_docking_score>  (210) 
-3.47231

>  <r_i_glide_ligand_efficiency>  (210) 
-0.204253

>  <r_i_glide_ligand_efficiency_sa>  (210) 
-0.525193

>  <r_i_glide_ligand_efficiency_ln>  (210) 
-0.905848

>  <r_i_glide_gscore>  (210) 
-3.47231

>  <r_i_glide_lipo>  (210) 
-0.581206

>  <r_i_glide_hbond>  (210) 
-0.00434033

>  <r_i_glide_metal>  (210) 
-0

>  <r_i_glide_rewards>  (210) 
-1.85778

>  <r_i_glide_evdw>  (210) 
-21.0206

>  <r_i_glide_ecoul>  (210) 
0.507612

>  <r_i_glide_erotb>  (210) 
0

>  <r_i_glide_esite>  (210) 
-0.0540958

>  <r_i_glide_emodel>  (210) 
-26.3217

>  <r_i_glide_energy>  (210) 
-20.513

>  <r_i_glide_einternal>  (210) 
0.838655

>  <r_i_glide_intrahb_reward>  (210) 
-0

>  <i_i_glide_confnum>  (210) 
1

>  <i_i_glide_posenum>  (210) 
37

>  <r_i_glide_eff_state_penalty>  (210) 
0

>  <ligand_id>  (210) 
70

>  <original_smiles>  (210) 
CC(=O)NC12CC3CC4CC1(C4)CC1CC1C32

>  <smiles>  (210) 
[H]N(C(=O)C([H])([H])[H])C12C([H])([H])C3([H])C([H])([H])C4([H])C([H])([H])C1(C4([H])[H])C([H])([H])C1([H])C([H])([H])C1([H])C32[H]

$$$$
71:0:0
     RDKit          3D

 73 77  0  0  1  0  0  0  0  0999 V2000
    1.5292   -8.3341    2.5293 C   0  0  0  0  0  0  0  0  0  0  0  0
    0.2406   -7.6630    2.9847 C   0  0  0  0  0  0  0  0  0  0  0  0
   -0.9856   -8.5245    2.7868 C   0  0  0  0  0  0  0  0  0  0  0  0
    0.1200   -6.4212    3.5148 C   0  0  0  0  0  0  0  0  0  0  0  0
    1.2363   -5.5203    3.7645 C   0  0  0  0  0  0  0  0  0  0  0  0
    1.1092   -4.2110    4.0512 C   0  0  0  0  0  0  0  0  0  0  0  0
    2.2696   -3.2419    4.3222 C   0  0  2  0  0  0  0  0  0  0  0  0
    1.9754   -2.7016    5.7500 C   0  0  0  0  0  0  0  0  0  0  0  0
    2.5747   -2.1165    3.2004 C   0  0  1  0  0  0  0  0  0  0  0  0
    1.1397   -1.6008    2.8474 C   0  0  0  0  0  0  0  0  0  0  0  0
    3.1436   -0.7857    3.8976 C   0  0  0  0  0  0  0  0  0  0  0  0
    4.5402   -0.7412    4.5514 C   0  0  0  0  0  0  0  0  0  0  0  0
    4.9987    0.3307    4.9420 O   0  0  0  0  0  0  0  0  0  0  0  0
    5.2234   -2.0083    4.7413 C   0  0  0  0  0  0  0  0  0  0  0  0
    5.2566   -2.4869    6.1930 C   0  0  0  0  0  0  0  0  0  0  0  0
    5.4769   -2.7497    3.6418 C   0  0  0  0  0  0  0  0  0  0  0  0
    5.7033   -2.1479    2.2527 C   0  0  2  0  0  0  0  0  0  0  0  0
    5.5639   -0.7160    1.6317 C   0  0  0  0  0  0  0  0  0  0  0  0
    6.3532   -0.7207    0.5260 C   0  0  0  0  0  0  0  0  0  0  0  0
    6.3800   -1.9284   -0.1852 O   0  0  0  0  0  0  0  0  0  0  0  0
    5.2960   -2.7713    0.0559 C   0  0  0  0  0  0  0  0  0  0  0  0
    4.7874   -2.7571    1.3337 C   0  0  0  0  0  0  0  0  0  0  0  0
    3.2895   -2.5346    1.7264 C   0  0  2  0  0  0  0  0  0  0  0  0
    3.2059   -1.1471    1.0190 C   0  0  0  0  0  0  0  0  0  0  0  0
    4.2294   -0.2360    1.1620 C   0  0  0  0  0  0  0  0  0  0  0  0
    2.7518   -3.9108    1.2081 C   0  0  1  0  0  0  0  0  0  0  0  0
    2.2978   -3.9630   -0.2709 C   0  0  0  0  0  0  0  0  0  0  0  0
    3.7378   -5.1352    1.5469 C   0  0  0  0  0  0  0  0  0  0  0  0
    4.5221   -5.2538    2.9155 C   0  0  2  0  0  0  0  0  0  0  0  0
    5.4610   -4.2948    3.7421 C   0  0  1  0  0  0  0  0  0  0  0  0
    6.0407   -5.4687    2.9571 C   0  0  0  0  0  0  0  0  0  0  0  0
    6.4883   -6.6952    3.7451 C   0  0  0  0  0  0  0  0  0  0  0  0
    6.9472   -5.3495    1.7500 C   0  0  0  0  0  0  0  0  0  0  0  0
    1.7104   -9.2396    3.1084 H   0  0  0  0  0  0  0  0  0  0  0  0
    2.4284   -7.7321    2.6184 H   0  0  0  0  0  0  0  0  0  0  0  0
    1.4562   -8.6440    1.4843 H   0  0  0  0  0  0  0  0  0  0  0  0
   -0.8758   -9.4570    3.3458 H   0  0  0  0  0  0  0  0  0  0  0  0
   -1.1126   -8.7666    1.7273 H   0  0  0  0  0  0  0  0  0  0  0  0
   -1.8856   -8.0190    3.1389 H   0  0  0  0  0  0  0  0  0  0  0  0
   -0.8617   -6.0923    3.7892 H   0  0  0  0  0  0  0  0  0  0  0  0
    2.2126   -5.9406    3.7233 H   0  0  0  0  0  0  0  0  0  0  0  0
    0.1347   -3.7719    4.1148 H   0  0  0  0  0  0  0  0  0  0  0  0
    3.1422   -3.8552    4.4553 H   0  0  0  0  0  0  0  0  0  0  0  0
    1.9144   -3.5336    6.4568 H   0  0  0  0  0  0  0  0  0  0  0  0
    1.0316   -2.1564    5.8041 H   0  0  0  0  0  0  0  0  0  0  0  0
    2.7319   -2.0352    6.1597 H   0  0  0  0  0  0  0  0  0  0  0  0
    1.1173   -0.6081    2.3994 H   0  0  0  0  0  0  0  0  0  0  0  0
    0.4945   -1.5220    3.7193 H   0  0  0  0  0  0  0  0  0  0  0  0
    0.6376   -2.2515    2.1385 H   0  0  0  0  0  0  0  0  0  0  0  0
    3.0809    0.0766    3.2353 H   0  0  0  0  0  0  0  0  0  0  0  0
    2.4580   -0.4878    4.6880 H   0  0  0  0  0  0  0  0  0  0  0  0
    4.8839   -1.7238    6.8790 H   0  0  0  0  0  0  0  0  0  0  0  0
    6.2823   -2.6956    6.5006 H   0  0  0  0  0  0  0  0  0  0  0  0
    4.6635   -3.3856    6.3753 H   0  0  0  0  0  0  0  0  0  0  0  0
    6.7139   -2.5071    2.0662 H   0  0  0  0  0  0  0  0  0  0  0  0
    6.2108    0.0524   -0.2055 H   0  0  0  0  0  0  0  0  0  0  0  0
    4.7179   -2.8969   -0.8393 H   0  0  0  0  0  0  0  0  0  0  0  0
    2.2746   -0.8566    0.5586 H   0  0  0  0  0  0  0  0  0  0  0  0
    4.1362    0.7613    0.7533 H   0  0  0  0  0  0  0  0  0  0  0  0
    1.8241   -4.0740    1.7229 H   0  0  0  0  0  0  0  0  0  0  0  0
    3.1079   -4.1466   -0.9696 H   0  0  0  0  0  0  0  0  0  0  0  0
    1.7943   -3.0482   -0.5801 H   0  0  0  0  0  0  0  0  0  0  0  0
    1.6110   -4.7956   -0.4273 H   0  0  0  0  0  0  0  0  0  0  0  0
    3.1206   -6.0258    1.4744 H   0  0  0  0  0  0  0  0  0  0  0  0
    4.4466   -5.2709    0.7293 H   0  0  0  0  0  0  0  0  0  0  0  0
    4.0268   -5.9924    3.5211 H   0  0  0  0  0  0  0  0  0  0  0  0
    5.4852   -4.5334    4.7919 H   0  0  0  0  0  0  0  0  0  0  0  0
    7.5166   -6.5882    4.0940 H   0  0  0  0  0  0  0  0  0  0  0  0
    6.4091   -7.5909    3.1259 H   0  0  0  0  0  0  0  0  0  0  0  0
    5.8512   -6.8456    4.6142 H   0  0  0  0  0  0  0  0  0  0  0  0
    7.9786   -5.1908    2.0706 H   0  0  0  0  0  0  0  0  0  0  0  0
    6.6604   -4.5382    1.1075 H   0  0  0  0  0  0  0  0  0  0  0  0
    6.8932   -6.2687    1.1635 H   0  0  0  0  0  0  0  0  0  0  0  0
  1  2  1  0
  1 34  1  0
  1 35  1  0
  1 36  1  0
  2  3  1  0
  2  4  2  3
  3 37  1  0
  3 38  1  0
  3 39  1  0
  4  5  1  0
  4 40  1  0
  5  6  2  3
  5 41  1  0
  6  7  1  0
  6 42  1  0
  7  8  1  0
  7  9  1  0
  7 43  1  1
  8 44  1  0
  8 45  1  0
  8 46  1  0
  9 23  1  0
  9 10  1  6
  9 11  1  0
 10 47  1  0
 10 48  1  0
 10 49  1  0
 11 12  1  0
 11 50  1  0
 11 51  1  0
 12 13  2  0
 12 14  1  0
 14 15  1  0
 14 16  2  3
 15 52  1  0
 15 53  1  0
 15 54  1  0
 16 30  1  0
 16 17  1  0
 17 22  1  0
 17 18  1  0
 17 55  1  6
 18 25  1  0
 18 19  2  0
 19 20  1  0
 19 56  1  0
 20 21  1  0
 21 22  2  0
 21 57  1  0
 22 23  1  0
 23 24  1  6
 23 26  1  0
 24 25  2  0
 24 58  1  0
 25 59  1  0
 26 27  1  0
 26 28  1  0
 26 60  1  1
 27 61  1  0
 27 62  1  0
 27 63  1  0
 28 29  1  0
 28 64  1  0
 28 65  1  0
 29 31  1  0
 29 30  1  0
 29 66  1  1
 30 31  1  0
 30 67  1  1
 31 32  1  0
 31 33  1  0
 32 68  1  0
 32 69  1  0
 32 70  1  0
 33 71  1  0
 33 72  1  0
 33 73  1  0
M  END
>  <i_m_ct_stereo_status>  (211) 
1

>  <s_m_source_file>  (211) 
/var/tmp/pbs.5076255.sched01/tmpelb551ou/82hj6rxffr.sdf

>  <i_m_source_file_index>  (211) 
7

>  <i_lp_mmshare_version>  (211) 
48012

>  <i_f3d_flags>  (211) 
0

>  <s_epik_input>  (211) 
W0NIM11DKFtDSDNdKT1bQ0hdL1tDSF09W0NIXS9bQ0BIXShbQ0gzXSlbQ0BAXTEoW0NIM10pW0NIMl1DKD1PKS9DKFtDSDNdKT1DKFxbQ0hdKEMyW0NAQF0xMzQpQyhbQ0hdPVtDSF0zKT1bQ0hdT1tDSF09MilbQ0BIXTVbQ0BIXShDNShbQ0gzXSlbQ0gzXSlbQ0gyXVtDQEBIXTRbQ0gzXQ==

>  <s_epik_cmdline>  (211) 
J2VwaWtfcHl0aG9uJywgJy1waHQnLCAnMi4wJywgJy1waCcsICc3LjAnLCAnLXRuJywgJzgnLCAnLW1hJywgJzIwMCcsICctaW1hZScsICc8aW5maWxlLm1hZT4nLCAnLW9tYWUnLCAnPG91dGZpbGUubWFlPic=

>  <r_lp_tautomer_probability>  (211) 
1

>  <r_epik_Ionization_Penalty>  (211) 
0

>  <r_epik_Ionization_Penalty_Charging>  (211) 
0

>  <r_epik_Ionization_Penalty_Neutral>  (211) 
0

>  <r_epik_State_Penalty>  (211) 
-0

>  <r_epik_Charging_Adjusted_Penalty>  (211) 
0

>  <i_epik_Tot_Q>  (211) 
0

>  <i_epik_Tot_abs_Q>  (211) 
0

>  <s_lp_Force_Field>  (211) 
OPLS3e

>  <r_lp_Energy>  (211) 
278.068

>  <b_lp_Chiralities_Consistent>  (211) 
1

>  <s_lp_Variant>  (211) 
71:0-1

>  <s_i_glide_gridfile>  (211) 
pfpi4k_grid

>  <i_i_glide_lignum>  (211) 
7

>  <i_i_glide_rotatable_bonds>  (211) 
3

>  <r_i_docking_score>  (211) 
-2.06998

>  <r_i_glide_ligand_efficiency>  (211) 
-0.0627266

>  <r_i_glide_ligand_efficiency_sa>  (211) 
-0.201198

>  <r_i_glide_ligand_efficiency_ln>  (211) 
-0.460352

>  <r_i_glide_gscore>  (211) 
-2.06998

>  <r_i_glide_lipo>  (211) 
-0.548441

>  <r_i_glide_hbond>  (211) 
-0.00319564

>  <r_i_glide_metal>  (211) 
-0

>  <r_i_glide_rewards>  (211) 
-0.416519

>  <r_i_glide_evdw>  (211) 
-20.9568

>  <r_i_glide_ecoul>  (211) 
-2.38319

>  <r_i_glide_erotb>  (211) 
0.303497

>  <r_i_glide_esite>  (211) 
0

>  <r_i_glide_emodel>  (211) 
-23.9352

>  <r_i_glide_energy>  (211) 
-23.34

>  <r_i_glide_einternal>  (211) 
1.76011

>  <r_i_glide_intrahb_reward>  (211) 
-0

>  <i_i_glide_confnum>  (211) 
5

>  <i_i_glide_posenum>  (211) 
2

>  <r_i_glide_eff_state_penalty>  (211) 
0

>  <ligand_id>  (211) 
71

>  <original_smiles>  (211) 
CC(C)=CC=CC(C)C1(C)CC(=O)C(C)=C2C3C4=COC=C3C1(C=C4)C(C)CC1C2C1(C)C

>  <smiles>  (211) 
[H]C1=C2C([H])=C([H])C34C(=C([H])O1)C2([H])C(=C(C([H])([H])[H])C(=O)C([H])([H])C3(C([H])([H])[H])C([H])(C([H])=C([H])C([H])=C(C([H])([H])[H])C([H])([H])[H])C([H])([H])[H])C1([H])C([H])(C([H])([H])C4([H])C([H])([H])[H])C1(C([H])([H])[H])C([H])([H])[H]

$$$$
71:0:1
     RDKit          3D

 73 77  0  0  1  0  0  0  0  0999 V2000
    6.2806   -2.6436    0.2508 C   0  0  0  0  0  0  0  0  0  0  0  0
    5.7772   -3.6280   -0.7968 C   0  0  0  0  0  0  0  0  0  0  0  0
    5.7473   -3.0580   -2.2025 C   0  0  0  0  0  0  0  0  0  0  0  0
    5.3895   -4.9007   -0.5562 C   0  0  0  0  0  0  0  0  0  0  0  0
    5.4145   -5.5740    0.7306 C   0  0  0  0  0  0  0  0  0  0  0  0
    5.0193   -6.8487    0.9071 C   0  0  0  0  0  0  0  0  0  0  0  0
    4.9661   -7.5616    2.2582 C   0  0  2  0  0  0  0  0  0  0  0  0
    6.3343   -8.2922    2.3683 C   0  0  0  0  0  0  0  0  0  0  0  0
    3.6547   -8.4549    2.5799 C   0  0  1  0  0  0  0  0  0  0  0  0
    3.5924   -9.4367    1.3546 C   0  0  0  0  0  0  0  0  0  0  0  0
    4.0139   -9.5096    3.7351 C   0  0  0  0  0  0  0  0  0  0  0  0
    4.2928   -9.0708    5.1881 C   0  0  0  0  0  0  0  0  0  0  0  0
    4.4443   -9.9219    6.0617 O   0  0  0  0  0  0  0  0  0  0  0  0
    4.4711   -7.6510    5.4302 C   0  0  0  0  0  0  0  0  0  0  0  0
    5.9284   -7.2574    5.6727 C   0  0  0  0  0  0  0  0  0  0  0  0
    3.4462   -6.8228    5.1220 C   0  0  0  0  0  0  0  0  0  0  0  0
    1.9748   -7.2604    5.1315 C   0  0  2  0  0  0  0  0  0  0  0  0
    1.2212   -8.6262    5.3063 C   0  0  0  0  0  0  0  0  0  0  0  0
   -0.0405   -8.3030    5.7045 C   0  0  0  0  0  0  0  0  0  0  0  0
   -0.5620   -7.1399    5.1235 O   0  0  0  0  0  0  0  0  0  0  0  0
    0.0521   -6.7626    3.9313 C   0  0  0  0  0  0  0  0  0  0  0  0
    1.4068   -6.9924    3.8396 C   0  0  0  0  0  0  0  0  0  0  0  0
    2.1199   -7.7568    2.6733 C   0  0  2  0  0  0  0  0  0  0  0  0
    1.2798   -9.0568    2.8682 C   0  0  0  0  0  0  0  0  0  0  0  0
    1.0366   -9.5396    4.1358 C   0  0  0  0  0  0  0  0  0  0  0  0
    1.9357   -6.6594    1.5667 C   0  0  1  0  0  0  0  0  0  0  0  0
    0.6364   -6.7323    0.7323 C   0  0  0  0  0  0  0  0  0  0  0  0
    2.1928   -5.1754    2.1213 C   0  0  0  0  0  0  0  0  0  0  0  0
    3.3266   -4.8399    3.1691 C   0  0  2  0  0  0  0  0  0  0  0  0
    3.7525   -5.4071    4.5778 C   0  0  1  0  0  0  0  0  0  0  0  0
    3.0142   -4.0805    4.4653 C   0  0  0  0  0  0  0  0  0  0  0  0
    3.8204   -2.8028    4.6756 C   0  0  0  0  0  0  0  0  0  0  0  0
    1.6148   -3.8235    4.9924 C   0  0  0  0  0  0  0  0  0  0  0  0
    7.3177   -2.3815    0.0451 H   0  0  0  0  0  0  0  0  0  0  0  0
    6.2287   -3.0135    1.2720 H   0  0  0  0  0  0  0  0  0  0  0  0
    5.6920   -1.7255    0.2158 H   0  0  0  0  0  0  0  0  0  0  0  0
    6.7518   -2.7574   -2.5006 H   0  0  0  0  0  0  0  0  0  0  0  0
    5.0944   -2.1853   -2.2549 H   0  0  0  0  0  0  0  0  0  0  0  0
    5.3915   -3.7935   -2.9246 H   0  0  0  0  0  0  0  0  0  0  0  0
    5.0217   -5.4696   -1.4007 H   0  0  0  0  0  0  0  0  0  0  0  0
    5.7584   -5.0394    1.6023 H   0  0  0  0  0  0  0  0  0  0  0  0
    4.7138   -7.4233    0.0459 H   0  0  0  0  0  0  0  0  0  0  0  0
    5.0497   -6.7777    2.9908 H   0  0  0  0  0  0  0  0  0  0  0  0
    7.1496   -7.5776    2.2362 H   0  0  0  0  0  0  0  0  0  0  0  0
    6.4766   -9.0520    1.5986 H   0  0  0  0  0  0  0  0  0  0  0  0
    6.5149   -8.7580    3.3356 H   0  0  0  0  0  0  0  0  0  0  0  0
    3.0418  -10.3523    1.5761 H   0  0  0  0  0  0  0  0  0  0  0  0
    4.5678   -9.7946    1.0330 H   0  0  0  0  0  0  0  0  0  0  0  0
    3.1157   -9.0022    0.4796 H   0  0  0  0  0  0  0  0  0  0  0  0
    3.2823  -10.3096    3.7922 H   0  0  0  0  0  0  0  0  0  0  0  0
    4.8967  -10.0702    3.4384 H   0  0  0  0  0  0  0  0  0  0  0  0
    6.5764   -8.1325    5.7717 H   0  0  0  0  0  0  0  0  0  0  0  0
    6.0085   -6.7092    6.6136 H   0  0  0  0  0  0  0  0  0  0  0  0
    6.3606   -6.6425    4.8815 H   0  0  0  0  0  0  0  0  0  0  0  0
    1.5897   -6.5686    5.8845 H   0  0  0  0  0  0  0  0  0  0  0  0
   -0.8241   -9.0406    5.6590 H   0  0  0  0  0  0  0  0  0  0  0  0
   -0.6398   -6.8395    3.1191 H   0  0  0  0  0  0  0  0  0  0  0  0
    1.0237   -9.6464    1.9998 H   0  0  0  0  0  0  0  0  0  0  0  0
    0.5452  -10.4904    4.2736 H   0  0  0  0  0  0  0  0  0  0  0  0
    2.6495   -6.8581    0.7893 H   0  0  0  0  0  0  0  0  0  0  0  0
   -0.2225   -6.2606    1.2038 H   0  0  0  0  0  0  0  0  0  0  0  0
    0.3711   -7.7638    0.4961 H   0  0  0  0  0  0  0  0  0  0  0  0
    0.7787   -6.2121   -0.2174 H   0  0  0  0  0  0  0  0  0  0  0  0
    2.4144   -4.5649    1.2473 H   0  0  0  0  0  0  0  0  0  0  0  0
    1.2559   -4.7541    2.4844 H   0  0  0  0  0  0  0  0  0  0  0  0
    4.1284   -4.3481    2.6285 H   0  0  0  0  0  0  0  0  0  0  0  0
    4.7832   -5.2016    4.8137 H   0  0  0  0  0  0  0  0  0  0  0  0
    3.8811   -2.5512    5.7344 H   0  0  0  0  0  0  0  0  0  0  0  0
    3.3655   -1.9671    4.1411 H   0  0  0  0  0  0  0  0  0  0  0  0
    4.8369   -2.9156    4.2998 H   0  0  0  0  0  0  0  0  0  0  0  0
    1.6526   -3.6124    6.0630 H   0  0  0  0  0  0  0  0  0  0  0  0
    0.9555   -4.6595    4.8424 H   0  0  0  0  0  0  0  0  0  0  0  0
    1.1757   -2.9657    4.4775 H   0  0  0  0  0  0  0  0  0  0  0  0
  1  2  1  0
  1 34  1  0
  1 35  1  0
  1 36  1  0
  2  3  1  0
  2  4  2  3
  3 37  1  0
  3 38  1  0
  3 39  1  0
  4  5  1  0
  4 40  1  0
  5  6  2  3
  5 41  1  0
  6  7  1  0
  6 42  1  0
  7  8  1  0
  7  9  1  0
  7 43  1  1
  8 44  1  0
  8 45  1  0
  8 46  1  0
  9 23  1  0
  9 10  1  6
  9 11  1  0
 10 47  1  0
 10 48  1  0
 10 49  1  0
 11 12  1  0
 11 50  1  0
 11 51  1  0
 12 13  2  0
 12 14  1  0
 14 15  1  0
 14 16  2  3
 15 52  1  0
 15 53  1  0
 15 54  1  0
 16 30  1  0
 16 17  1  0
 17 22  1  0
 17 18  1  0
 17 55  1  1
 18 25  1  0
 18 19  2  0
 19 20  1  0
 19 56  1  0
 20 21  1  0
 21 22  2  0
 21 57  1  0
 22 23  1  0
 23 24  1  6
 23 26  1  0
 24 25  2  0
 24 58  1  0
 25 59  1  0
 26 27  1  0
 26 28  1  0
 26 60  1  6
 27 61  1  0
 27 62  1  0
 27 63  1  0
 28 29  1  0
 28 64  1  0
 28 65  1  0
 29 31  1  0
 29 30  1  0
 29 66  1  6
 30 31  1  0
 30 67  1  6
 31 32  1  0
 31 33  1  0
 32 68  1  0
 32 69  1  0
 32 70  1  0
 33 71  1  0
 33 72  1  0
 33 73  1  0
M  END
>  <i_m_ct_stereo_status>  (212) 
1

>  <s_m_source_file>  (212) 
/var/tmp/pbs.5076255.sched01/tmpelb551ou/82hj6rxffr.sdf

>  <i_m_source_file_index>  (212) 
7

>  <i_lp_mmshare_version>  (212) 
48012

>  <i_f3d_flags>  (212) 
0

>  <s_epik_input>  (212) 
W0NIM11DKFtDSDNdKT1bQ0hdL1tDSF09W0NIXS9bQ0BIXShbQ0gzXSlbQ0BAXTEoW0NIM10pW0NIMl1DKD1PKS9DKFtDSDNdKT1DKFxbQ0hdKEMyW0NAQF0xMzQpQyhbQ0hdPVtDSF0zKT1bQ0hdT1tDSF09MilbQ0BIXTVbQ0BIXShDNShbQ0gzXSlbQ0gzXSlbQ0gyXVtDQEBIXTRbQ0gzXQ==

>  <s_epik_cmdline>  (212) 
J2VwaWtfcHl0aG9uJywgJy1waHQnLCAnMi4wJywgJy1waCcsICc3LjAnLCAnLXRuJywgJzgnLCAnLW1hJywgJzIwMCcsICctaW1hZScsICc8aW5maWxlLm1hZT4nLCAnLW9tYWUnLCAnPG91dGZpbGUubWFlPic=

>  <r_lp_tautomer_probability>  (212) 
1

>  <r_epik_Ionization_Penalty>  (212) 
0

>  <r_epik_Ionization_Penalty_Charging>  (212) 
0

>  <r_epik_Ionization_Penalty_Neutral>  (212) 
0

>  <r_epik_State_Penalty>  (212) 
-0

>  <r_epik_Charging_Adjusted_Penalty>  (212) 
0

>  <i_epik_Tot_Q>  (212) 
0

>  <i_epik_Tot_abs_Q>  (212) 
0

>  <s_lp_Force_Field>  (212) 
OPLS3e

>  <r_lp_Energy>  (212) 
278.068

>  <b_lp_Chiralities_Consistent>  (212) 
1

>  <s_lp_Variant>  (212) 
71:0-1

>  <s_i_glide_gridfile>  (212) 
pfpi4k_grid

>  <i_i_glide_lignum>  (212) 
7

>  <i_i_glide_rotatable_bonds>  (212) 
3

>  <r_i_docking_score>  (212) 
-1.81586

>  <r_i_glide_ligand_efficiency>  (212) 
-0.0550261

>  <r_i_glide_ligand_efficiency_sa>  (212) 
-0.176498

>  <r_i_glide_ligand_efficiency_ln>  (212) 
-0.403838

>  <r_i_glide_gscore>  (212) 
-1.81586

>  <r_i_glide_lipo>  (212) 
-0.523144

>  <r_i_glide_hbond>  (212) 
0

>  <r_i_glide_metal>  (212) 
-0

>  <r_i_glide_rewards>  (212) 
-0.377399

>  <r_i_glide_evdw>  (212) 
-22.3841

>  <r_i_glide_ecoul>  (212) 
-0.656857

>  <r_i_glide_erotb>  (212) 
0.303497

>  <r_i_glide_esite>  (212) 
-0.00108233

>  <r_i_glide_emodel>  (212) 
-24.7733

>  <r_i_glide_energy>  (212) 
-23.041

>  <r_i_glide_einternal>  (212) 
1.13119

>  <r_i_glide_intrahb_reward>  (212) 
-0

>  <i_i_glide_confnum>  (212) 
5

>  <i_i_glide_posenum>  (212) 
22

>  <r_i_glide_eff_state_penalty>  (212) 
0

>  <ligand_id>  (212) 
71

>  <original_smiles>  (212) 
CC(C)=CC=CC(C)C1(C)CC(=O)C(C)=C2C3C4=COC=C3C1(C=C4)C(C)CC1C2C1(C)C

>  <smiles>  (212) 
[H]C1=C2C([H])=C([H])C34C(=C([H])O1)C2([H])C(=C(C([H])([H])[H])C(=O)C([H])([H])C3(C([H])([H])[H])C([H])(C([H])=C([H])C([H])=C(C([H])([H])[H])C([H])([H])[H])C([H])([H])[H])C1([H])C([H])(C([H])([H])C4([H])C([H])([H])[H])C1(C([H])([H])[H])C([H])([H])[H]

$$$$
71:0:2
     RDKit          3D

 73 77  0  0  1  0  0  0  0  0999 V2000
    0.8588   -9.1512    2.7439 C   0  0  0  0  0  0  0  0  0  0  0  0
   -0.3764   -8.2644    3.0287 C   0  0  0  0  0  0  0  0  0  0  0  0
   -1.6693   -8.9460    2.6886 C   0  0  0  0  0  0  0  0  0  0  0  0
   -0.3839   -7.0048    3.5354 C   0  0  0  0  0  0  0  0  0  0  0  0
    0.8260   -6.2893    3.9265 C   0  0  0  0  0  0  0  0  0  0  0  0
    0.8609   -4.9727    4.2565 C   0  0  0  0  0  0  0  0  0  0  0  0
    2.1573   -4.2221    4.6342 C   0  0  2  0  0  0  0  0  0  0  0  0
    1.8854   -3.6957    6.0715 C   0  0  0  0  0  0  0  0  0  0  0  0
    2.7101   -3.1136    3.5879 C   0  0  1  0  0  0  0  0  0  0  0  0
    1.4110   -2.3052    3.2440 C   0  0  0  0  0  0  0  0  0  0  0  0
    3.5176   -1.9724    4.3665 C   0  0  0  0  0  0  0  0  0  0  0  0
    4.8711   -2.2418    5.0454 C   0  0  0  0  0  0  0  0  0  0  0  0
    5.4817   -1.3100    5.5433 O   0  0  0  0  0  0  0  0  0  0  0  0
    5.2997   -3.6352    5.1507 C   0  0  0  0  0  0  0  0  0  0  0  0
    5.1815   -4.1907    6.5821 C   0  0  0  0  0  0  0  0  0  0  0  0
    5.4491   -4.3301    4.0186 C   0  0  0  0  0  0  0  0  0  0  0  0
    5.7941   -3.7163    2.6545 C   0  0  2  0  0  0  0  0  0  0  0  0
    5.9550   -2.2551    2.1232 C   0  0  0  0  0  0  0  0  0  0  0  0
    6.7520   -2.3542    1.0273 C   0  0  0  0  0  0  0  0  0  0  0  0
    6.5506   -3.5079    0.2543 O   0  0  0  0  0  0  0  0  0  0  0  0
    5.3062   -4.1209    0.4316 C   0  0  0  0  0  0  0  0  0  0  0  0
    4.7860   -4.0712    1.7042 C   0  0  0  0  0  0  0  0  0  0  0  0
    3.3558   -3.5757    2.0976 C   0  0  2  0  0  0  0  0  0  0  0  0
    3.5671   -2.1641    1.4686 C   0  0  0  0  0  0  0  0  0  0  0  0
    4.7497   -1.4879    1.6757 C   0  0  0  0  0  0  0  0  0  0  0  0
    2.5671   -4.7794    1.4892 C   0  0  1  0  0  0  0  0  0  0  0  0
    2.1537   -4.6445    0.0007 C   0  0  0  0  0  0  0  0  0  0  0  0
    3.2882   -6.1934    1.7716 C   0  0  0  0  0  0  0  0  0  0  0  0
    4.0389   -6.5585    3.1303 C   0  0  2  0  0  0  0  0  0  0  0  0
    5.1356   -5.8473    4.0044 C   0  0  1  0  0  0  0  0  0  0  0  0
    5.4765   -7.0693    3.1664 C   0  0  0  0  0  0  0  0  0  0  0  0
    5.6285   -8.4163    3.8700 C   0  0  0  0  0  0  0  0  0  0  0  0
    6.3874   -7.0692    1.9600 C   0  0  0  0  0  0  0  0  0  0  0  0
    0.8340  -10.0568    3.3565 H   0  0  0  0  0  0  0  0  0  0  0  0
    1.8253   -8.6948    2.9127 H   0  0  0  0  0  0  0  0  0  0  0  0
    0.8655   -9.4975    1.7057 H   0  0  0  0  0  0  0  0  0  0  0  0
   -1.7723   -9.8585    3.2771 H   0  0  0  0  0  0  0  0  0  0  0  0
   -1.7104   -9.2037    1.6268 H   0  0  0  0  0  0  0  0  0  0  0  0
   -2.5099   -8.2908    2.9279 H   0  0  0  0  0  0  0  0  0  0  0  0
   -1.3549   -6.5247    3.6673 H   0  0  0  0  0  0  0  0  0  0  0  0
    1.7065   -6.8727    3.9632 H   0  0  0  0  0  0  0  0  0  0  0  0
   -0.0485   -4.3606    4.2858 H   0  0  0  0  0  0  0  0  0  0  0  0
    2.9302   -4.9670    4.7829 H   0  0  0  0  0  0  0  0  0  0  0  0
    1.6402   -4.5282    6.7285 H   0  0  0  0  0  0  0  0  0  0  0  0
    1.0411   -3.0069    6.1079 H   0  0  0  0  0  0  0  0  0  0  0  0
    2.7182   -3.1898    6.5522 H   0  0  0  0  0  0  0  0  0  0  0  0
    1.6027   -1.2984    2.8733 H   0  0  0  0  0  0  0  0  0  0  0  0
    0.7716   -2.1509    4.1085 H   0  0  0  0  0  0  0  0  0  0  0  0
    0.8053   -2.7919    2.4877 H   0  0  0  0  0  0  0  0  0  0  0  0
    3.6517   -1.0752    3.7640 H   0  0  0  0  0  0  0  0  0  0  0  0
    2.8931   -1.5860    5.1678 H   0  0  0  0  0  0  0  0  0  0  0  0
    4.9402   -3.4077    7.3011 H   0  0  0  0  0  0  0  0  0  0  0  0
    6.1385   -4.6104    6.8937 H   0  0  0  0  0  0  0  0  0  0  0  0
    4.4148   -4.9595    6.6859 H   0  0  0  0  0  0  0  0  0  0  0  0
    6.7090   -4.2754    2.4470 H   0  0  0  0  0  0  0  0  0  0  0  0
    6.8158   -1.5236    0.3405 H   0  0  0  0  0  0  0  0  0  0  0  0
    4.7398   -4.0720   -0.4833 H   0  0  0  0  0  0  0  0  0  0  0  0
    2.7179   -1.6681    1.0183 H   0  0  0  0  0  0  0  0  0  0  0  0
    4.8629   -0.4695    1.3372 H   0  0  0  0  0  0  0  0  0  0  0  0
    1.5963   -4.7720    1.9550 H   0  0  0  0  0  0  0  0  0  0  0  0
    2.9220   -4.9333   -0.7047 H   0  0  0  0  0  0  0  0  0  0  0  0
    1.8176   -3.6344   -0.2475 H   0  0  0  0  0  0  0  0  0  0  0  0
    1.3221   -5.3090   -0.2260 H   0  0  0  0  0  0  0  0  0  0  0  0
    2.5076   -6.9381    1.6488 H   0  0  0  0  0  0  0  0  0  0  0  0
    3.9428   -6.4400    0.9396 H   0  0  0  0  0  0  0  0  0  0  0  0
    3.4717   -7.3182    3.6334 H   0  0  0  0  0  0  0  0  0  0  0  0
    5.0548   -6.1418    5.0372 H   0  0  0  0  0  0  0  0  0  0  0  0
    6.6382   -8.5487    4.2486 H   0  0  0  0  0  0  0  0  0  0  0  0
    5.3636   -9.2374    3.2035 H   0  0  0  0  0  0  0  0  0  0  0  0
    4.9552   -8.4914    4.7253 H   0  0  0  0  0  0  0  0  0  0  0  0
    7.4217   -7.1341    2.3007 H   0  0  0  0  0  0  0  0  0  0  0  0
    6.2613   -6.1754    1.3795 H   0  0  0  0  0  0  0  0  0  0  0  0
    6.1390   -7.9189    1.3201 H   0  0  0  0  0  0  0  0  0  0  0  0
  1  2  1  0
  1 34  1  0
  1 35  1  0
  1 36  1  0
  2  3  1  0
  2  4  2  3
  3 37  1  0
  3 38  1  0
  3 39  1  0
  4  5  1  0
  4 40  1  0
  5  6  2  3
  5 41  1  0
  6  7  1  0
  6 42  1  0
  7  8  1  0
  7  9  1  0
  7 43  1  1
  8 44  1  0
  8 45  1  0
  8 46  1  0
  9 23  1  0
  9 10  1  6
  9 11  1  0
 10 47  1  0
 10 48  1  0
 10 49  1  0
 11 12  1  0
 11 50  1  0
 11 51  1  0
 12 13  2  0
 12 14  1  0
 14 15  1  0
 14 16  2  3
 15 52  1  0
 15 53  1  0
 15 54  1  0
 16 30  1  0
 16 17  1  0
 17 22  1  0
 17 18  1  0
 17 55  1  6
 18 25  1  0
 18 19  2  0
 19 20  1  0
 19 56  1  0
 20 21  1  0
 21 22  2  0
 21 57  1  0
 22 23  1  0
 23 24  1  6
 23 26  1  0
 24 25  2  0
 24 58  1  0
 25 59  1  0
 26 27  1  0
 26 28  1  0
 26 60  1  1
 27 61  1  0
 27 62  1  0
 27 63  1  0
 28 29  1  0
 28 64  1  0
 28 65  1  0
 29 31  1  0
 29 30  1  0
 29 66  1  1
 30 31  1  0
 30 67  1  1
 31 32  1  0
 31 33  1  0
 32 68  1  0
 32 69  1  0
 32 70  1  0
 33 71  1  0
 33 72  1  0
 33 73  1  0
M  END
>  <i_m_ct_stereo_status>  (213) 
1

>  <s_m_source_file>  (213) 
/var/tmp/pbs.5076255.sched01/tmpelb551ou/82hj6rxffr.sdf

>  <i_m_source_file_index>  (213) 
7

>  <i_lp_mmshare_version>  (213) 
48012

>  <i_f3d_flags>  (213) 
0

>  <s_epik_input>  (213) 
W0NIM11DKFtDSDNdKT1bQ0hdL1tDSF09W0NIXS9bQ0BIXShbQ0gzXSlbQ0BAXTEoW0NIM10pW0NIMl1DKD1PKS9DKFtDSDNdKT1DKFxbQ0hdKEMyW0NAQF0xMzQpQyhbQ0hdPVtDSF0zKT1bQ0hdT1tDSF09MilbQ0BIXTVbQ0BIXShDNShbQ0gzXSlbQ0gzXSlbQ0gyXVtDQEBIXTRbQ0gzXQ==

>  <s_epik_cmdline>  (213) 
J2VwaWtfcHl0aG9uJywgJy1waHQnLCAnMi4wJywgJy1waCcsICc3LjAnLCAnLXRuJywgJzgnLCAnLW1hJywgJzIwMCcsICctaW1hZScsICc8aW5maWxlLm1hZT4nLCAnLW9tYWUnLCAnPG91dGZpbGUubWFlPic=

>  <r_lp_tautomer_probability>  (213) 
1

>  <r_epik_Ionization_Penalty>  (213) 
0

>  <r_epik_Ionization_Penalty_Charging>  (213) 
0

>  <r_epik_Ionization_Penalty_Neutral>  (213) 
0

>  <r_epik_State_Penalty>  (213) 
-0

>  <r_epik_Charging_Adjusted_Penalty>  (213) 
0

>  <i_epik_Tot_Q>  (213) 
0

>  <i_epik_Tot_abs_Q>  (213) 
0

>  <s_lp_Force_Field>  (213) 
OPLS3e

>  <r_lp_Energy>  (213) 
278.068

>  <b_lp_Chiralities_Consistent>  (213) 
1

>  <s_lp_Variant>  (213) 
71:0-1

>  <s_i_glide_gridfile>  (213) 
pfpi4k_grid

>  <i_i_glide_lignum>  (213) 
7

>  <i_i_glide_rotatable_bonds>  (213) 
3

>  <r_i_docking_score>  (213) 
-1.74799

>  <r_i_glide_ligand_efficiency>  (213) 
-0.0529693

>  <r_i_glide_ligand_efficiency_sa>  (213) 
-0.169901

>  <r_i_glide_ligand_efficiency_ln>  (213) 
-0.388744

>  <r_i_glide_gscore>  (213) 
-1.74799

>  <r_i_glide_lipo>  (213) 
-0.477249

>  <r_i_glide_hbond>  (213) 
0

>  <r_i_glide_metal>  (213) 
-0

>  <r_i_glide_rewards>  (213) 
-0.415213

>  <r_i_glide_evdw>  (213) 
-18.8938

>  <r_i_glide_ecoul>  (213) 
-1.4289

>  <r_i_glide_erotb>  (213) 
0.303497

>  <r_i_glide_esite>  (213) 
0

>  <r_i_glide_emodel>  (213) 
-20.4594

>  <r_i_glide_energy>  (213) 
-20.3227

>  <r_i_glide_einternal>  (213) 
1.0754

>  <r_i_glide_intrahb_reward>  (213) 
-0

>  <i_i_glide_confnum>  (213) 
5

>  <i_i_glide_posenum>  (213) 
12

>  <r_i_glide_eff_state_penalty>  (213) 
0

>  <ligand_id>  (213) 
71

>  <original_smiles>  (213) 
CC(C)=CC=CC(C)C1(C)CC(=O)C(C)=C2C3C4=COC=C3C1(C=C4)C(C)CC1C2C1(C)C

>  <smiles>  (213) 
[H]C1=C2C([H])=C([H])C34C(=C([H])O1)C2([H])C(=C(C([H])([H])[H])C(=O)C([H])([H])C3(C([H])([H])[H])C([H])(C([H])=C([H])C([H])=C(C([H])([H])[H])C([H])([H])[H])C([H])([H])[H])C1([H])C([H])(C([H])([H])C4([H])C([H])([H])[H])C1(C([H])([H])[H])C([H])([H])[H]

$$$$
71:1:0
     RDKit          3D

 73 77  0  0  1  0  0  0  0  0999 V2000
    4.8136  -10.0449    2.1033 C   0  0  0  0  0  0  0  0  0  0  0  0
    5.8638   -9.0066    2.4024 C   0  0  0  0  0  0  0  0  0  0  0  0
    6.7792   -9.2850    3.5692 C   0  0  0  0  0  0  0  0  0  0  0  0
    6.0405   -7.8662    1.7054 C   0  0  0  0  0  0  0  0  0  0  0  0
    5.2760   -7.4352    0.5473 C   0  0  0  0  0  0  0  0  0  0  0  0
    5.4674   -6.2509   -0.0862 C   0  0  0  0  0  0  0  0  0  0  0  0
    6.4693   -5.1313    0.1928 C   0  0  2  0  0  0  0  0  0  0  0  0
    7.9550   -5.7040    0.3147 C   0  0  0  0  0  0  0  0  0  0  0  0
    6.0143   -4.0100    1.2687 C   0  0  1  0  0  0  0  0  0  0  0  0
    6.0389   -4.8099    2.6168 C   0  0  0  0  0  0  0  0  0  0  0  0
    7.2475   -3.0430    1.4480 C   0  0  0  0  0  0  0  0  0  0  0  0
    7.7492   -2.0488    0.4273 C   0  0  0  0  0  0  0  0  0  0  0  0
    8.6414   -1.2580    0.7067 O   0  0  0  0  0  0  0  0  0  0  0  0
    7.2391   -2.1310   -0.8991 C   0  0  0  0  0  0  0  0  0  0  0  0
    8.2140   -2.7458   -1.8630 C   0  0  0  0  0  0  0  0  0  0  0  0
    5.8974   -1.9571   -1.0141 C   0  0  0  0  0  0  0  0  0  0  0  0
    5.0397   -1.1406   -0.0588 C   0  0  2  0  0  0  0  0  0  0  0  0
    5.2677   -0.3890    1.2949 C   0  0  0  0  0  0  0  0  0  0  0  0
    4.2661    0.5261    1.3711 C   0  0  0  0  0  0  0  0  0  0  0  0
    3.0372    0.1116    0.8849 O   0  0  0  0  0  0  0  0  0  0  0  0
    2.8734   -1.2716    0.7678 C   0  0  0  0  0  0  0  0  0  0  0  0
    3.9971   -1.9883    0.4625 C   0  0  0  0  0  0  0  0  0  0  0  0
    4.5173   -3.2225    1.2718 C   0  0  2  0  0  0  0  0  0  0  0  0
    4.6364   -2.3989    2.5953 C   0  0  0  0  0  0  0  0  0  0  0  0
    5.1854   -1.1393    2.5849 C   0  0  0  0  0  0  0  0  0  0  0  0
    3.3828   -4.2172    0.9061 C   0  0  1  0  0  0  0  0  0  0  0  0
    2.1767   -4.2626    1.8497 C   0  0  0  0  0  0  0  0  0  0  0  0
    2.9849   -4.0932   -0.6456 C   0  0  0  0  0  0  0  0  0  0  0  0
    4.0843   -3.8223   -1.7874 C   0  0  2  0  0  0  0  0  0  0  0  0
    5.1953   -2.7672   -2.0923 C   0  0  1  0  0  0  0  0  0  0  0  0
    3.8752   -2.7357   -2.8366 C   0  0  0  0  0  0  0  0  0  0  0  0
    3.8622   -3.2257   -4.2732 C   0  0  0  0  0  0  0  0  0  0  0  0
    2.8672   -1.6326   -2.7135 C   0  0  0  0  0  0  0  0  0  0  0  0
    4.1114  -10.0666    2.9491 H   0  0  0  0  0  0  0  0  0  0  0  0
    5.3046  -11.0268    1.9927 H   0  0  0  0  0  0  0  0  0  0  0  0
    4.2435   -9.8344    1.1851 H   0  0  0  0  0  0  0  0  0  0  0  0
    6.1911   -9.3443    4.4797 H   0  0  0  0  0  0  0  0  0  0  0  0
    7.5163   -8.4987    3.7107 H   0  0  0  0  0  0  0  0  0  0  0  0
    7.3243  -10.2144    3.4131 H   0  0  0  0  0  0  0  0  0  0  0  0
    6.8336   -7.2763    2.0820 H   0  0  0  0  0  0  0  0  0  0  0  0
    4.5106   -8.0377    0.0900 H   0  0  0  0  0  0  0  0  0  0  0  0
    4.8214   -6.1023   -0.9383 H   0  0  0  0  0  0  0  0  0  0  0  0
    6.4692   -4.5755   -0.7250 H   0  0  0  0  0  0  0  0  0  0  0  0
    8.2222   -6.4186   -0.4627 H   0  0  0  0  0  0  0  0  0  0  0  0
    8.1341   -6.2859    1.2126 H   0  0  0  0  0  0  0  0  0  0  0  0
    8.7272   -4.9293    0.2631 H   0  0  0  0  0  0  0  0  0  0  0  0
    6.0948   -4.1857    3.5046 H   0  0  0  0  0  0  0  0  0  0  0  0
    6.9365   -5.4123    2.7071 H   0  0  0  0  0  0  0  0  0  0  0  0
    5.1544   -5.4379    2.7422 H   0  0  0  0  0  0  0  0  0  0  0  0
    7.0109   -2.4754    2.3616 H   0  0  0  0  0  0  0  0  0  0  0  0
    8.1003   -3.6345    1.7336 H   0  0  0  0  0  0  0  0  0  0  0  0
    9.1604   -2.9226   -1.3514 H   0  0  0  0  0  0  0  0  0  0  0  0
    8.3894   -2.0234   -2.6606 H   0  0  0  0  0  0  0  0  0  0  0  0
    7.9318   -3.7149   -2.2705 H   0  0  0  0  0  0  0  0  0  0  0  0
    4.6383   -0.4251   -0.7846 H   0  0  0  0  0  0  0  0  0  0  0  0
    4.0502    0.9684    2.3316 H   0  0  0  0  0  0  0  0  0  0  0  0
    2.0710   -1.5871    1.4170 H   0  0  0  0  0  0  0  0  0  0  0  0
    4.4824   -2.9098    3.5335 H   0  0  0  0  0  0  0  0  0  0  0  0
    5.4087   -0.6240    3.5132 H   0  0  0  0  0  0  0  0  0  0  0  0
    3.7347   -5.2132    1.1108 H   0  0  0  0  0  0  0  0  0  0  0  0
    1.4712   -3.4677    1.6812 H   0  0  0  0  0  0  0  0  0  0  0  0
    2.4698   -4.1893    2.8928 H   0  0  0  0  0  0  0  0  0  0  0  0
    1.6425   -5.2028    1.7128 H   0  0  0  0  0  0  0  0  0  0  0  0
    2.4727   -5.0291   -0.8569 H   0  0  0  0  0  0  0  0  0  0  0  0
    2.1750   -3.3687   -0.7705 H   0  0  0  0  0  0  0  0  0  0  0  0
    4.4256   -4.7126   -2.2621 H   0  0  0  0  0  0  0  0  0  0  0  0
    5.9443   -3.2057   -2.7392 H   0  0  0  0  0  0  0  0  0  0  0  0
    4.1476   -2.3845   -4.8889 H   0  0  0  0  0  0  0  0  0  0  0  0
    2.8678   -3.5629   -4.5721 H   0  0  0  0  0  0  0  0  0  0  0  0
    4.5577   -4.0540   -4.4520 H   0  0  0  0  0  0  0  0  0  0  0  0
    3.1632   -0.7871   -3.3337 H   0  0  0  0  0  0  0  0  0  0  0  0
    2.7833   -1.3010   -1.6977 H   0  0  0  0  0  0  0  0  0  0  0  0
    1.8898   -2.0102   -3.0175 H   0  0  0  0  0  0  0  0  0  0  0  0
  1  2  1  0
  1 34  1  0
  1 35  1  0
  1 36  1  0
  2  3  1  0
  2  4  2  3
  3 37  1  0
  3 38  1  0
  3 39  1  0
  4  5  1  0
  4 40  1  0
  5  6  2  3
  5 41  1  0
  6  7  1  0
  6 42  1  0
  7  8  1  0
  7  9  1  0
  7 43  1  6
  8 44  1  0
  8 45  1  0
  8 46  1  0
  9 23  1  0
  9 10  1  1
  9 11  1  0
 10 47  1  0
 10 48  1  0
 10 49  1  0
 11 12  1  0
 11 50  1  0
 11 51  1  0
 12 13  2  0
 12 14  1  0
 14 15  1  0
 14 16  2  3
 15 52  1  0
 15 53  1  0
 15 54  1  0
 16 30  1  0
 16 17  1  0
 17 22  1  0
 17 18  1  0
 17 55  1  6
 18 25  1  0
 18 19  2  0
 19 20  1  0
 19 56  1  0
 20 21  1  0
 21 22  2  0
 21 57  1  0
 22 23  1  0
 23 24  1  1
 23 26  1  0
 24 25  2  0
 24 58  1  0
 25 59  1  0
 26 27  1  0
 26 28  1  0
 26 60  1  6
 27 61  1  0
 27 62  1  0
 27 63  1  0
 28 29  1  0
 28 64  1  0
 28 65  1  0
 29 31  1  0
 29 30  1  0
 29 66  1  6
 30 31  1  0
 30 67  1  6
 31 32  1  0
 31 33  1  0
 32 68  1  0
 32 69  1  0
 32 70  1  0
 33 71  1  0
 33 72  1  0
 33 73  1  0
M  END
>  <i_m_ct_stereo_status>  (214) 
1

>  <s_m_source_file>  (214) 
/var/tmp/pbs.5076255.sched01/tmpelb551ou/82hj6rxffr.sdf

>  <i_m_source_file_index>  (214) 
8

>  <i_lp_mmshare_version>  (214) 
48012

>  <i_f3d_flags>  (214) 
0

>  <s_epik_input>  (214) 
W0NIM11DKFtDSDNdKT1bQ0hdL1tDSF09W0NIXS9bQ0BIXShbQ0gzXSlbQ0BAXTEoW0NIM10pW0NIMl1DKD1PKS9DKFtDSDNdKT1DKFxbQ0hdKEMyW0NAQF0xMzQpQyhbQ0hdPVtDSF0zKT1bQ0hdT1tDSF09MilbQ0BIXTVbQ0BIXShDNShbQ0gzXSlbQ0gzXSlbQ0gyXVtDQEBIXTRbQ0gzXQ==

>  <s_epik_cmdline>  (214) 
J2VwaWtfcHl0aG9uJywgJy1waHQnLCAnMi4wJywgJy1waCcsICc3LjAnLCAnLXRuJywgJzgnLCAnLW1hJywgJzIwMCcsICctaW1hZScsICc8aW5maWxlLm1hZT4nLCAnLW9tYWUnLCAnPG91dGZpbGUubWFlPic=

>  <r_lp_tautomer_probability>  (214) 
1

>  <r_epik_Ionization_Penalty>  (214) 
0

>  <r_epik_Ionization_Penalty_Charging>  (214) 
0

>  <r_epik_Ionization_Penalty_Neutral>  (214) 
0

>  <r_epik_State_Penalty>  (214) 
-0

>  <r_epik_Charging_Adjusted_Penalty>  (214) 
0

>  <i_epik_Tot_Q>  (214) 
0

>  <i_epik_Tot_abs_Q>  (214) 
0

>  <s_lp_Force_Field>  (214) 
OPLS3e

>  <r_lp_Energy>  (214) 
279.826

>  <b_lp_Chiralities_Consistent>  (214) 
1

>  <s_lp_Variant>  (214) 
71:0-2

>  <s_i_glide_gridfile>  (214) 
pfpi4k_grid

>  <i_i_glide_lignum>  (214) 
8

>  <i_i_glide_rotatable_bonds>  (214) 
3

>  <r_i_docking_score>  (214) 
-1.37811

>  <r_i_glide_ligand_efficiency>  (214) 
-0.041761

>  <r_i_glide_ligand_efficiency_sa>  (214) 
-0.13395

>  <r_i_glide_ligand_efficiency_ln>  (214) 
-0.306486

>  <r_i_glide_gscore>  (214) 
-1.37811

>  <r_i_glide_lipo>  (214) 
-0.885775

>  <r_i_glide_hbond>  (214) 
0

>  <r_i_glide_metal>  (214) 
-0

>  <r_i_glide_rewards>  (214) 
-0.492556

>  <r_i_glide_evdw>  (214) 
-5.01935

>  <r_i_glide_ecoul>  (214) 
-1.16109

>  <r_i_glide_erotb>  (214) 
0.303497

>  <r_i_glide_esite>  (214) 
0

>  <r_i_glide_emodel>  (214) 
-3.8796

>  <r_i_glide_energy>  (214) 
-6.18044

>  <r_i_glide_einternal>  (214) 
3.27021

>  <r_i_glide_intrahb_reward>  (214) 
-0

>  <i_i_glide_confnum>  (214) 
6

>  <i_i_glide_posenum>  (214) 
22

>  <r_i_glide_eff_state_penalty>  (214) 
0

>  <ligand_id>  (214) 
71

>  <original_smiles>  (214) 
CC(C)=CC=CC(C)C1(C)CC(=O)C(C)=C2C3C4=COC=C3C1(C=C4)C(C)CC1C2C1(C)C

>  <smiles>  (214) 
[H]C1=C2C([H])=C([H])C34C(=C([H])O1)C2([H])C(=C(C([H])([H])[H])C(=O)C([H])([H])C3(C([H])([H])[H])C([H])(C([H])=C([H])C([H])=C(C([H])([H])[H])C([H])([H])[H])C([H])([H])[H])C1([H])C([H])(C([H])([H])C4([H])C([H])([H])[H])C1(C([H])([H])[H])C([H])([H])[H]

$$$$
71:4:0
     RDKit          3D

 73 77  0  0  1  0  0  0  0  0999 V2000
    3.6469   -1.2430   -3.4383 C   0  0  0  0  0  0  0  0  0  0  0  0
    3.0603   -2.3773   -2.6149 C   0  0  0  0  0  0  0  0  0  0  0  0
    2.2406   -3.3555   -3.4303 C   0  0  0  0  0  0  0  0  0  0  0  0
    3.2214   -2.5448   -1.2838 C   0  0  0  0  0  0  0  0  0  0  0  0
    3.9707   -1.6818   -0.3870 C   0  0  0  0  0  0  0  0  0  0  0  0
    4.1087   -1.9410    0.9274 C   0  0  0  0  0  0  0  0  0  0  0  0
    4.8654   -1.0505    1.9043 C   0  0  2  0  0  0  0  0  0  0  0  0
    6.3743   -1.1965    1.6051 C   0  0  0  0  0  0  0  0  0  0  0  0
    4.4124   -1.2224    3.4188 C   0  0  1  0  0  0  0  0  0  0  0  0
    5.0509   -2.5871    3.8399 C   0  0  0  0  0  0  0  0  0  0  0  0
    5.1417   -0.1360    4.3264 C   0  0  0  0  0  0  0  0  0  0  0  0
    4.7311    0.0139    5.8345 C   0  0  0  0  0  0  0  0  0  0  0  0
    5.4316   -0.5309    6.6881 O   0  0  0  0  0  0  0  0  0  0  0  0
    3.5267    0.8358    6.1993 C   0  0  0  0  0  0  0  0  0  0  0  0
    3.9601    2.2827    6.4423 C   0  0  0  0  0  0  0  0  0  0  0  0
    2.2066    0.3963    6.2586 C   0  0  0  0  0  0  0  0  0  0  0  0
    1.7443   -1.0642    6.0095 C   0  0  1  0  0  0  0  0  0  0  0  0
    0.5099   -1.7212    5.2901 C   0  0  0  0  0  0  0  0  0  0  0  0
    0.3705   -2.9591    5.8265 C   0  0  0  0  0  0  0  0  0  0  0  0
    1.5738   -3.5989    6.1293 O   0  0  0  0  0  0  0  0  0  0  0  0
    2.6673   -3.1115    5.4137 C   0  0  0  0  0  0  0  0  0  0  0  0
    2.6821   -1.7631    5.1506 C   0  0  0  0  0  0  0  0  0  0  0  0
    2.8269   -1.0394    3.7408 C   0  0  2  0  0  0  0  0  0  0  0  0
    1.6323   -1.7394    3.0754 C   0  0  0  0  0  0  0  0  0  0  0  0
    0.4846   -1.9154    3.8034 C   0  0  0  0  0  0  0  0  0  0  0  0
    2.3223    0.5295    3.4084 C   0  0  1  0  0  0  0  0  0  0  0  0
    2.4241    0.8810    1.8873 C   0  0  0  0  0  0  0  0  0  0  0  0
    0.8905    1.1270    3.8367 C   0  0  0  0  0  0  0  0  0  0  0  0
    0.7343    1.9447    5.1316 C   0  0  2  0  0  0  0  0  0  0  0  0
    1.1676    1.4382    6.4858 C   0  0  1  0  0  0  0  0  0  0  0  0
   -0.3230    1.6513    6.1836 C   0  0  0  0  0  0  0  0  0  0  0  0
   -1.0024    2.8496    6.8359 C   0  0  0  0  0  0  0  0  0  0  0  0
   -1.3166    0.5059    6.1511 C   0  0  0  0  0  0  0  0  0  0  0  0
    2.8442   -0.7119   -3.9525 H   0  0  0  0  0  0  0  0  0  0  0  0
    4.3185   -1.6471   -4.1961 H   0  0  0  0  0  0  0  0  0  0  0  0
    4.1995   -0.5124   -2.8515 H   0  0  0  0  0  0  0  0  0  0  0  0
    2.8534   -3.8253   -4.1981 H   0  0  0  0  0  0  0  0  0  0  0  0
    1.4171   -2.8413   -3.9243 H   0  0  0  0  0  0  0  0  0  0  0  0
    1.8168   -4.1377   -2.8032 H   0  0  0  0  0  0  0  0  0  0  0  0
    2.7387   -3.4030   -0.8399 H   0  0  0  0  0  0  0  0  0  0  0  0
    4.4447   -0.7895   -0.7647 H   0  0  0  0  0  0  0  0  0  0  0  0
    3.6621   -2.8335    1.3384 H   0  0  0  0  0  0  0  0  0  0  0  0
    4.6997   -0.0270    1.6117 H   0  0  0  0  0  0  0  0  0  0  0  0
    6.6153   -0.7929    0.6226 H   0  0  0  0  0  0  0  0  0  0  0  0
    6.6990   -2.2339    1.5871 H   0  0  0  0  0  0  0  0  0  0  0  0
    6.9983   -0.6665    2.3246 H   0  0  0  0  0  0  0  0  0  0  0  0
    5.0818   -2.7437    4.9187 H   0  0  0  0  0  0  0  0  0  0  0  0
    6.1002   -2.6437    3.5919 H   0  0  0  0  0  0  0  0  0  0  0  0
    4.5888   -3.4449    3.3515 H   0  0  0  0  0  0  0  0  0  0  0  0
    6.2098   -0.3444    4.3292 H   0  0  0  0  0  0  0  0  0  0  0  0
    5.0538    0.8473    3.8657 H   0  0  0  0  0  0  0  0  0  0  0  0
    4.8915    2.5131    5.9222 H   0  0  0  0  0  0  0  0  0  0  0  0
    4.1344    2.4535    7.5055 H   0  0  0  0  0  0  0  0  0  0  0  0
    3.2368    3.0162    6.0871 H   0  0  0  0  0  0  0  0  0  0  0  0
    1.7805   -1.4451    7.0346 H   0  0  0  0  0  0  0  0  0  0  0  0
   -0.2348   -3.6921    5.3190 H   0  0  0  0  0  0  0  0  0  0  0  0
    3.0305   -3.8721    4.7472 H   0  0  0  0  0  0  0  0  0  0  0  0
    1.6581   -1.9480    2.0182 H   0  0  0  0  0  0  0  0  0  0  0  0
   -0.3822   -2.3366    3.3328 H   0  0  0  0  0  0  0  0  0  0  0  0
    3.0206    1.2452    3.8210 H   0  0  0  0  0  0  0  0  0  0  0  0
    2.4043    0.0131    1.2329 H   0  0  0  0  0  0  0  0  0  0  0  0
    3.3226    1.4654    1.6947 H   0  0  0  0  0  0  0  0  0  0  0  0
    1.6321    1.5125    1.4885 H   0  0  0  0  0  0  0  0  0  0  0  0
    0.5867    1.8929    3.1261 H   0  0  0  0  0  0  0  0  0  0  0  0
    0.0697    0.4430    3.7045 H   0  0  0  0  0  0  0  0  0  0  0  0
    0.9428    3.0002    4.9596 H   0  0  0  0  0  0  0  0  0  0  0  0
    1.5212    2.1576    7.2152 H   0  0  0  0  0  0  0  0  0  0  0  0
   -1.3433    2.5935    7.8402 H   0  0  0  0  0  0  0  0  0  0  0  0
   -1.8631    3.1741    6.2466 H   0  0  0  0  0  0  0  0  0  0  0  0
   -0.3108    3.6886    6.9163 H   0  0  0  0  0  0  0  0  0  0  0  0
   -1.0284   -0.2361    6.8933 H   0  0  0  0  0  0  0  0  0  0  0  0
   -1.3774    0.0508    5.1669 H   0  0  0  0  0  0  0  0  0  0  0  0
   -2.3256    0.8507    6.3832 H   0  0  0  0  0  0  0  0  0  0  0  0
  1  2  1  0
  1 34  1  0
  1 35  1  0
  1 36  1  0
  2  3  1  0
  2  4  2  3
  3 37  1  0
  3 38  1  0
  3 39  1  0
  4  5  1  0
  4 40  1  0
  5  6  2  3
  5 41  1  0
  6  7  1  0
  6 42  1  0
  7  8  1  0
  7  9  1  0
  7 43  1  6
  8 44  1  0
  8 45  1  0
  8 46  1  0
  9 23  1  0
  9 10  1  1
  9 11  1  0
 10 47  1  0
 10 48  1  0
 10 49  1  0
 11 12  1  0
 11 50  1  0
 11 51  1  0
 12 13  2  0
 12 14  1  0
 14 15  1  0
 14 16  2  3
 15 52  1  0
 15 53  1  0
 15 54  1  0
 16 30  1  0
 16 17  1  0
 17 22  1  0
 17 18  1  0
 17 55  1  1
 18 25  1  0
 18 19  2  0
 19 20  1  0
 19 56  1  0
 20 21  1  0
 21 22  2  0
 21 57  1  0
 22 23  1  0
 23 24  1  6
 23 26  1  0
 24 25  2  0
 24 58  1  0
 25 59  1  0
 26 27  1  0
 26 28  1  0
 26 60  1  1
 27 61  1  0
 27 62  1  0
 27 63  1  0
 28 29  1  0
 28 64  1  0
 28 65  1  0
 29 31  1  0
 29 30  1  0
 29 66  1  6
 30 31  1  0
 30 67  1  1
 31 32  1  0
 31 33  1  0
 32 68  1  0
 32 69  1  0
 32 70  1  0
 33 71  1  0
 33 72  1  0
 33 73  1  0
M  END
>  <i_m_ct_stereo_status>  (215) 
1

>  <s_m_source_file>  (215) 
/var/tmp/pbs.5076255.sched01/tmpelb551ou/82hj6rxffr.sdf

>  <i_m_source_file_index>  (215) 
11

>  <i_lp_mmshare_version>  (215) 
48012

>  <i_f3d_flags>  (215) 
0

>  <s_epik_input>  (215) 
W0NIM11DKFtDSDNdKT1bQ0hdL1tDSF09W0NIXS9bQ0BIXShbQ0gzXSlbQ0BAXTEoW0NIM10pW0NIMl1DKD1PKS9DKFtDSDNdKT1DKFxbQ0hdKEMyW0NAQF0xMzQpQyhbQ0hdPVtDSF0zKT1bQ0hdT1tDSF09MilbQ0BIXTVbQ0BIXShDNShbQ0gzXSlbQ0gzXSlbQ0gyXVtDQEBIXTRbQ0gzXQ==

>  <s_epik_cmdline>  (215) 
J2VwaWtfcHl0aG9uJywgJy1waHQnLCAnMi4wJywgJy1waCcsICc3LjAnLCAnLXRuJywgJzgnLCAnLW1hJywgJzIwMCcsICctaW1hZScsICc8aW5maWxlLm1hZT4nLCAnLW9tYWUnLCAnPG91dGZpbGUubWFlPic=

>  <r_lp_tautomer_probability>  (215) 
1

>  <r_epik_Ionization_Penalty>  (215) 
0

>  <r_epik_Ionization_Penalty_Charging>  (215) 
0

>  <r_epik_Ionization_Penalty_Neutral>  (215) 
0

>  <r_epik_State_Penalty>  (215) 
-0

>  <r_epik_Charging_Adjusted_Penalty>  (215) 
0

>  <i_epik_Tot_Q>  (215) 
0

>  <i_epik_Tot_abs_Q>  (215) 
0

>  <s_lp_Force_Field>  (215) 
OPLS3e

>  <r_lp_Energy>  (215) 
276.199

>  <b_lp_Chiralities_Consistent>  (215) 
1

>  <s_lp_Variant>  (215) 
71:0-5

>  <s_i_glide_gridfile>  (215) 
pfpi4k_grid

>  <i_i_glide_lignum>  (215) 
11

>  <i_i_glide_rotatable_bonds>  (215) 
3

>  <r_i_docking_score>  (215) 
-2.23101

>  <r_i_glide_ligand_efficiency>  (215) 
-0.0676063

>  <r_i_glide_ligand_efficiency_sa>  (215) 
-0.216849

>  <r_i_glide_ligand_efficiency_ln>  (215) 
-0.496165

>  <r_i_glide_gscore>  (215) 
-2.23101

>  <r_i_glide_lipo>  (215) 
-0.797068

>  <r_i_glide_hbond>  (215) 
0

>  <r_i_glide_metal>  (215) 
-0

>  <r_i_glide_rewards>  (215) 
-0.39597

>  <r_i_glide_evdw>  (215) 
-21.6646

>  <r_i_glide_ecoul>  (215) 
-1.72158

>  <r_i_glide_erotb>  (215) 
0.303497

>  <r_i_glide_esite>  (215) 
0

>  <r_i_glide_emodel>  (215) 
-25.6222

>  <r_i_glide_energy>  (215) 
-23.3862

>  <r_i_glide_einternal>  (215) 
2.07175

>  <r_i_glide_intrahb_reward>  (215) 
-0

>  <i_i_glide_confnum>  (215) 
5

>  <i_i_glide_posenum>  (215) 
24

>  <r_i_glide_eff_state_penalty>  (215) 
0

>  <ligand_id>  (215) 
71

>  <original_smiles>  (215) 
CC(C)=CC=CC(C)C1(C)CC(=O)C(C)=C2C3C4=COC=C3C1(C=C4)C(C)CC1C2C1(C)C

>  <smiles>  (215) 
[H]C1=C2C([H])=C([H])C34C(=C([H])O1)C2([H])C(=C(C([H])([H])[H])C(=O)C([H])([H])C3(C([H])([H])[H])C([H])(C([H])=C([H])C([H])=C(C([H])([H])[H])C([H])([H])[H])C([H])([H])[H])C1([H])C([H])(C([H])([H])C4([H])C([H])([H])[H])C1(C([H])([H])[H])C([H])([H])[H]

$$$$
71:4:1
     RDKit          3D

 73 77  0  0  1  0  0  0  0  0999 V2000
    5.5627   -2.9910   -2.4554 C   0  0  0  0  0  0  0  0  0  0  0  0
    4.0924   -2.6039   -2.4903 C   0  0  0  0  0  0  0  0  0  0  0  0
    3.3257   -3.1613   -3.6715 C   0  0  0  0  0  0  0  0  0  0  0  0
    3.4594   -1.8437   -1.5745 C   0  0  0  0  0  0  0  0  0  0  0  0
    4.0630   -1.2485   -0.3946 C   0  0  0  0  0  0  0  0  0  0  0  0
    3.3670   -0.6187    0.5793 C   0  0  0  0  0  0  0  0  0  0  0  0
    3.9546    0.0213    1.8425 C   0  0  2  0  0  0  0  0  0  0  0  0
    5.4974   -0.0791    1.8514 C   0  0  0  0  0  0  0  0  0  0  0  0
    3.2420   -0.4042    3.2028 C   0  0  1  0  0  0  0  0  0  0  0  0
    3.3275   -1.9674    3.1414 C   0  0  0  0  0  0  0  0  0  0  0  0
    4.1468   -0.0190    4.4581 C   0  0  0  0  0  0  0  0  0  0  0  0
    3.6011   -0.2106    5.9146 C   0  0  0  0  0  0  0  0  0  0  0  0
    3.9304   -1.2192    6.5401 O   0  0  0  0  0  0  0  0  0  0  0  0
    2.7294    0.8495    6.5170 C   0  0  0  0  0  0  0  0  0  0  0  0
    3.5998    1.8675    7.2517 C   0  0  0  0  0  0  0  0  0  0  0  0
    1.3493    0.9522    6.3934 C   0  0  0  0  0  0  0  0  0  0  0  0
    0.4560   -0.0597    5.6327 C   0  0  1  0  0  0  0  0  0  0  0  0
   -0.8133    0.0712    4.7184 C   0  0  0  0  0  0  0  0  0  0  0  0
   -1.4502   -1.1210    4.8172 C   0  0  0  0  0  0  0  0  0  0  0  0
   -0.6079   -2.2365    4.8784 O   0  0  0  0  0  0  0  0  0  0  0  0
    0.6737   -2.0060    4.3793 C   0  0  0  0  0  0  0  0  0  0  0  0
    1.2009   -0.7570    4.5972 C   0  0  0  0  0  0  0  0  0  0  0  0
    1.7863    0.2577    3.5275 C   0  0  2  0  0  0  0  0  0  0  0  0
    0.5324    0.3043    2.6383 C   0  0  0  0  0  0  0  0  0  0  0  0
   -0.6962    0.3774    3.2492 C   0  0  0  0  0  0  0  0  0  0  0  0
    1.9022    1.9243    3.7692 C   0  0  1  0  0  0  0  0  0  0  0  0
    2.3161    2.6956    2.4776 C   0  0  0  0  0  0  0  0  0  0  0  0
    0.7253    2.8455    4.3607 C   0  0  0  0  0  0  0  0  0  0  0  0
    0.6828    3.2083    5.8543 C   0  0  2  0  0  0  0  0  0  0  0  0
    0.7142    2.1766    6.9548 C   0  0  1  0  0  0  0  0  0  0  0  0
   -0.5501    3.0163    6.7210 C   0  0  0  0  0  0  0  0  0  0  0  0
   -0.8511    4.1111    7.7381 C   0  0  0  0  0  0  0  0  0  0  0  0
   -1.8667    2.4074    6.2688 C   0  0  0  0  0  0  0  0  0  0  0  0
    6.0458   -2.6755   -3.3795 H   0  0  0  0  0  0  0  0  0  0  0  0
    5.6476   -4.0754   -2.3739 H   0  0  0  0  0  0  0  0  0  0  0  0
    6.1248   -2.5589   -1.6296 H   0  0  0  0  0  0  0  0  0  0  0  0
    3.3704   -4.2480   -3.6624 H   0  0  0  0  0  0  0  0  0  0  0  0
    3.7516   -2.8014   -4.6044 H   0  0  0  0  0  0  0  0  0  0  0  0
    2.2758   -2.8689   -3.6390 H   0  0  0  0  0  0  0  0  0  0  0  0
    2.4133   -1.6794   -1.7724 H   0  0  0  0  0  0  0  0  0  0  0  0
    5.1325   -1.3094   -0.2953 H   0  0  0  0  0  0  0  0  0  0  0  0
    2.2969   -0.5334    0.4920 H   0  0  0  0  0  0  0  0  0  0  0  0
    3.8157    1.0647    1.6597 H   0  0  0  0  0  0  0  0  0  0  0  0
    5.8550    0.4714    0.9817 H   0  0  0  0  0  0  0  0  0  0  0  0
    5.8784   -1.0965    1.7759 H   0  0  0  0  0  0  0  0  0  0  0  0
    5.9696    0.3798    2.7177 H   0  0  0  0  0  0  0  0  0  0  0  0
    3.1526   -2.4633    4.0971 H   0  0  0  0  0  0  0  0  0  0  0  0
    4.3274   -2.2963    2.8646 H   0  0  0  0  0  0  0  0  0  0  0  0
    2.6557   -2.3916    2.3949 H   0  0  0  0  0  0  0  0  0  0  0  0
    5.0591   -0.6116    4.4181 H   0  0  0  0  0  0  0  0  0  0  0  0
    4.4788    1.0151    4.3646 H   0  0  0  0  0  0  0  0  0  0  0  0
    4.6176    1.8811    6.8573 H   0  0  0  0  0  0  0  0  0  0  0  0
    3.6656    1.6142    8.3110 H   0  0  0  0  0  0  0  0  0  0  0  0
    3.2359    2.8915    7.1606 H   0  0  0  0  0  0  0  0  0  0  0  0
    0.2088   -0.7264    6.4652 H   0  0  0  0  0  0  0  0  0  0  0  0
   -2.2019   -1.3574    4.0915 H   0  0  0  0  0  0  0  0  0  0  0  0
    0.8348   -2.5962    3.4969 H   0  0  0  0  0  0  0  0  0  0  0  0
    0.6407    0.4453    1.5736 H   0  0  0  0  0  0  0  0  0  0  0  0
   -1.5808    0.5412    2.6517 H   0  0  0  0  0  0  0  0  0  0  0  0
    2.7410    2.1487    4.4125 H   0  0  0  0  0  0  0  0  0  0  0  0
    2.0625    2.1631    1.5623 H   0  0  0  0  0  0  0  0  0  0  0  0
    3.3846    2.9121    2.5127 H   0  0  0  0  0  0  0  0  0  0  0  0
    1.8714    3.6766    2.3164 H   0  0  0  0  0  0  0  0  0  0  0  0
    0.8091    3.8543    3.9636 H   0  0  0  0  0  0  0  0  0  0  0  0
   -0.2531    2.6082    3.9797 H   0  0  0  0  0  0  0  0  0  0  0  0
    1.2701    4.1036    6.0615 H   0  0  0  0  0  0  0  0  0  0  0  0
    1.1839    2.4377    7.8952 H   0  0  0  0  0  0  0  0  0  0  0  0
   -1.4071    3.7009    8.5821 H   0  0  0  0  0  0  0  0  0  0  0  0
   -1.4404    4.9082    7.2826 H   0  0  0  0  0  0  0  0  0  0  0  0
    0.0709    4.5519    8.1185 H   0  0  0  0  0  0  0  0  0  0  0  0
   -1.9848    1.4206    6.7143 H   0  0  0  0  0  0  0  0  0  0  0  0
   -1.9396    2.3437    5.1857 H   0  0  0  0  0  0  0  0  0  0  0  0
   -2.7149    3.0147    6.5871 H   0  0  0  0  0  0  0  0  0  0  0  0
  1  2  1  0
  1 34  1  0
  1 35  1  0
  1 36  1  0
  2  3  1  0
  2  4  2  3
  3 37  1  0
  3 38  1  0
  3 39  1  0
  4  5  1  0
  4 40  1  0
  5  6  2  3
  5 41  1  0
  6  7  1  0
  6 42  1  0
  7  8  1  0
  7  9  1  0
  7 43  1  6
  8 44  1  0
  8 45  1  0
  8 46  1  0
  9 23  1  0
  9 10  1  6
  9 11  1  0
 10 47  1  0
 10 48  1  0
 10 49  1  0
 11 12  1  0
 11 50  1  0
 11 51  1  0
 12 13  2  0
 12 14  1  0
 14 15  1  0
 14 16  2  3
 15 52  1  0
 15 53  1  0
 15 54  1  0
 16 30  1  0
 16 17  1  0
 17 22  1  0
 17 18  1  0
 17 55  1  1
 18 25  1  0
 18 19  2  0
 19 20  1  0
 19 56  1  0
 20 21  1  0
 21 22  2  0
 21 57  1  0
 22 23  1  0
 23 24  1  6
 23 26  1  0
 24 25  2  0
 24 58  1  0
 25 59  1  0
 26 27  1  0
 26 28  1  0
 26 60  1  1
 27 61  1  0
 27 62  1  0
 27 63  1  0
 28 29  1  0
 28 64  1  0
 28 65  1  0
 29 31  1  0
 29 30  1  0
 29 66  1  1
 30 31  1  0
 30 67  1  1
 31 32  1  0
 31 33  1  0
 32 68  1  0
 32 69  1  0
 32 70  1  0
 33 71  1  0
 33 72  1  0
 33 73  1  0
M  END
>  <i_m_ct_stereo_status>  (216) 
1

>  <s_m_source_file>  (216) 
/var/tmp/pbs.5076255.sched01/tmpelb551ou/82hj6rxffr.sdf

>  <i_m_source_file_index>  (216) 
11

>  <i_lp_mmshare_version>  (216) 
48012

>  <i_f3d_flags>  (216) 
0

>  <s_epik_input>  (216) 
W0NIM11DKFtDSDNdKT1bQ0hdL1tDSF09W0NIXS9bQ0BIXShbQ0gzXSlbQ0BAXTEoW0NIM10pW0NIMl1DKD1PKS9DKFtDSDNdKT1DKFxbQ0hdKEMyW0NAQF0xMzQpQyhbQ0hdPVtDSF0zKT1bQ0hdT1tDSF09MilbQ0BIXTVbQ0BIXShDNShbQ0gzXSlbQ0gzXSlbQ0gyXVtDQEBIXTRbQ0gzXQ==

>  <s_epik_cmdline>  (216) 
J2VwaWtfcHl0aG9uJywgJy1waHQnLCAnMi4wJywgJy1waCcsICc3LjAnLCAnLXRuJywgJzgnLCAnLW1hJywgJzIwMCcsICctaW1hZScsICc8aW5maWxlLm1hZT4nLCAnLW9tYWUnLCAnPG91dGZpbGUubWFlPic=

>  <r_lp_tautomer_probability>  (216) 
1

>  <r_epik_Ionization_Penalty>  (216) 
0

>  <r_epik_Ionization_Penalty_Charging>  (216) 
0

>  <r_epik_Ionization_Penalty_Neutral>  (216) 
0

>  <r_epik_State_Penalty>  (216) 
-0

>  <r_epik_Charging_Adjusted_Penalty>  (216) 
0

>  <i_epik_Tot_Q>  (216) 
0

>  <i_epik_Tot_abs_Q>  (216) 
0

>  <s_lp_Force_Field>  (216) 
OPLS3e

>  <r_lp_Energy>  (216) 
276.199

>  <b_lp_Chiralities_Consistent>  (216) 
1

>  <s_lp_Variant>  (216) 
71:0-5

>  <s_i_glide_gridfile>  (216) 
pfpi4k_grid

>  <i_i_glide_lignum>  (216) 
11

>  <i_i_glide_rotatable_bonds>  (216) 
3

>  <r_i_docking_score>  (216) 
-1.95367

>  <r_i_glide_ligand_efficiency>  (216) 
-0.0592022

>  <r_i_glide_ligand_efficiency_sa>  (216) 
-0.189893

>  <r_i_glide_ligand_efficiency_ln>  (216) 
-0.434486

>  <r_i_glide_gscore>  (216) 
-1.95367

>  <r_i_glide_lipo>  (216) 
-0.563978

>  <r_i_glide_hbond>  (216) 
0

>  <r_i_glide_metal>  (216) 
-0

>  <r_i_glide_rewards>  (216) 
-0.377399

>  <r_i_glide_evdw>  (216) 
-20.8567

>  <r_i_glide_ecoul>  (216) 
-1.81972

>  <r_i_glide_erotb>  (216) 
0.303497

>  <r_i_glide_esite>  (216) 
0

>  <r_i_glide_emodel>  (216) 
-23.4952

>  <r_i_glide_energy>  (216) 
-22.6764

>  <r_i_glide_einternal>  (216) 
3.59395

>  <r_i_glide_intrahb_reward>  (216) 
-0

>  <i_i_glide_confnum>  (216) 
6

>  <i_i_glide_posenum>  (216) 
30

>  <r_i_glide_eff_state_penalty>  (216) 
0

>  <ligand_id>  (216) 
71

>  <original_smiles>  (216) 
CC(C)=CC=CC(C)C1(C)CC(=O)C(C)=C2C3C4=COC=C3C1(C=C4)C(C)CC1C2C1(C)C

>  <smiles>  (216) 
[H]C1=C2C([H])=C([H])C34C(=C([H])O1)C2([H])C(=C(C([H])([H])[H])C(=O)C([H])([H])C3(C([H])([H])[H])C([H])(C([H])=C([H])C([H])=C(C([H])([H])[H])C([H])([H])[H])C([H])([H])[H])C1([H])C([H])(C([H])([H])C4([H])C([H])([H])[H])C1(C([H])([H])[H])C([H])([H])[H]

$$$$
71:4:2
     RDKit          3D

 73 77  0  0  1  0  0  0  0  0999 V2000
    5.9261   -2.7097   -1.4558 C   0  0  0  0  0  0  0  0  0  0  0  0
    4.4155   -2.5101   -1.5090 C   0  0  0  0  0  0  0  0  0  0  0  0
    3.7722   -3.0412   -2.7710 C   0  0  0  0  0  0  0  0  0  0  0  0
    3.6708   -1.9260   -0.5471 C   0  0  0  0  0  0  0  0  0  0  0  0
    4.1587   -1.3799    0.6981 C   0  0  0  0  0  0  0  0  0  0  0  0
    3.3765   -0.7782    1.6224 C   0  0  0  0  0  0  0  0  0  0  0  0
    3.8536   -0.1990    2.9630 C   0  0  2  0  0  0  0  0  0  0  0  0
    5.3712   -0.4482    3.1872 C   0  0  0  0  0  0  0  0  0  0  0  0
    2.9139   -0.5594    4.1996 C   0  0  1  0  0  0  0  0  0  0  0  0
    2.8378   -2.1233    4.1266 C   0  0  0  0  0  0  0  0  0  0  0  0
    3.6648   -0.2789    5.5769 C   0  0  0  0  0  0  0  0  0  0  0  0
    2.9044   -0.4156    6.9379 C   0  0  0  0  0  0  0  0  0  0  0  0
    3.0293   -1.4541    7.5870 O   0  0  0  0  0  0  0  0  0  0  0  0
    2.0705    0.7333    7.4316 C   0  0  0  0  0  0  0  0  0  0  0  0
    2.9359    1.6494    8.2949 C   0  0  0  0  0  0  0  0  0  0  0  0
    0.7397    0.9796    7.1165 C   0  0  0  0  0  0  0  0  0  0  0  0
   -0.1472    0.0697    6.2256 C   0  0  1  0  0  0  0  0  0  0  0  0
   -1.2561    0.3286    5.1385 C   0  0  0  0  0  0  0  0  0  0  0  0
   -2.0209   -0.7915    5.1187 C   0  0  0  0  0  0  0  0  0  0  0  0
   -1.3127   -1.9817    5.3010 O   0  0  0  0  0  0  0  0  0  0  0  0
    0.0443   -1.8876    4.9914 C   0  0  0  0  0  0  0  0  0  0  0  0
    0.6616   -0.6999    5.2952 C   0  0  0  0  0  0  0  0  0  0  0  0
    1.4986    0.2486    4.3353 C   0  0  2  0  0  0  0  0  0  0  0  0
    0.3916    0.4293    3.2790 C   0  0  0  0  0  0  0  0  0  0  0  0
   -0.8979    0.6239    3.7090 C   0  0  0  0  0  0  0  0  0  0  0  0
    1.7590    1.8910    4.6106 C   0  0  1  0  0  0  0  0  0  0  0  0
    2.4298    2.6148    3.4015 C   0  0  0  0  0  0  0  0  0  0  0  0
    0.6123    2.9314    5.0537 C   0  0  0  0  0  0  0  0  0  0  0  0
    0.4003    3.2931    6.5332 C   0  0  2  0  0  0  0  0  0  0  0  0
    0.1679    2.2620    7.6085 C   0  0  1  0  0  0  0  0  0  0  0  0
   -0.9518    3.2330    7.2194 C   0  0  0  0  0  0  0  0  0  0  0  0
   -1.2776    4.3515    8.2037 C   0  0  0  0  0  0  0  0  0  0  0  0
   -2.2513    2.7678    6.5821 C   0  0  0  0  0  0  0  0  0  0  0  0
    6.3900   -2.2466   -2.3232 H   0  0  0  0  0  0  0  0  0  0  0  0
    6.1531   -3.7739   -1.4873 H   0  0  0  0  0  0  0  0  0  0  0  0
    6.4065   -2.3005   -0.5726 H   0  0  0  0  0  0  0  0  0  0  0  0
    3.9702   -4.1077   -2.8626 H   0  0  0  0  0  0  0  0  0  0  0  0
    4.1809   -2.5403   -3.6465 H   0  0  0  0  0  0  0  0  0  0  0  0
    2.6903   -2.8912   -2.7617 H   0  0  0  0  0  0  0  0  0  0  0  0
    2.6167   -1.8572   -0.7259 H   0  0  0  0  0  0  0  0  0  0  0  0
    5.2134   -1.4633    0.8929 H   0  0  0  0  0  0  0  0  0  0  0  0
    2.3193   -0.6849    1.4194 H   0  0  0  0  0  0  0  0  0  0  0  0
    3.8574    0.8541    2.7801 H   0  0  0  0  0  0  0  0  0  0  0  0
    5.9166    0.0717    2.4033 H   0  0  0  0  0  0  0  0  0  0  0  0
    5.6499   -1.5010    3.1433 H   0  0  0  0  0  0  0  0  0  0  0  0
    5.7652   -0.0319    4.1124 H   0  0  0  0  0  0  0  0  0  0  0  0
    2.4819   -2.6006    5.0408 H   0  0  0  0  0  0  0  0  0  0  0  0
    3.8288   -2.5544    3.9817 H   0  0  0  0  0  0  0  0  0  0  0  0
    2.2347   -2.4754    3.2903 H   0  0  0  0  0  0  0  0  0  0  0  0
    4.5096   -0.9659    5.6507 H   0  0  0  0  0  0  0  0  0  0  0  0
    4.1136    0.7138    5.5488 H   0  0  0  0  0  0  0  0  0  0  0  0
    3.9955    1.5545    8.0463 H   0  0  0  0  0  0  0  0  0  0  0  0
    2.8312    1.3893    9.3506 H   0  0  0  0  0  0  0  0  0  0  0  0
    2.7022    2.7077    8.1749 H   0  0  0  0  0  0  0  0  0  0  0  0
   -0.5696   -0.5697    7.0029 H   0  0  0  0  0  0  0  0  0  0  0  0
   -2.6778   -0.9669    4.2866 H   0  0  0  0  0  0  0  0  0  0  0  0
    0.2623   -2.4888    4.1308 H   0  0  0  0  0  0  0  0  0  0  0  0
    0.6685    0.5593    2.2457 H   0  0  0  0  0  0  0  0  0  0  0  0
   -1.6755    0.8658    2.9950 H   0  0  0  0  0  0  0  0  0  0  0  0
    2.5165    2.0251    5.3706 H   0  0  0  0  0  0  0  0  0  0  0  0
    2.2585    2.1189    2.4451 H   0  0  0  0  0  0  0  0  0  0  0  0
    3.5026    2.7175    3.5869 H   0  0  0  0  0  0  0  0  0  0  0  0
    2.1156    3.6399    3.2010 H   0  0  0  0  0  0  0  0  0  0  0  0
    0.8578    3.9265    4.6880 H   0  0  0  0  0  0  0  0  0  0  0  0
   -0.3235    2.7943    4.5407 H   0  0  0  0  0  0  0  0  0  0  0  0
    1.0460    4.1207    6.8352 H   0  0  0  0  0  0  0  0  0  0  0  0
    0.5321    2.4697    8.6070 H   0  0  0  0  0  0  0  0  0  0  0  0
   -1.9817    3.9984    8.9572 H   0  0  0  0  0  0  0  0  0  0  0  0
   -1.7156    5.2062    7.6867 H   0  0  0  0  0  0  0  0  0  0  0  0
   -0.3748    4.6917    8.7123 H   0  0  0  0  0  0  0  0  0  0  0  0
   -2.5303    1.7990    6.9942 H   0  0  0  0  0  0  0  0  0  0  0  0
   -2.1778    2.7140    5.5012 H   0  0  0  0  0  0  0  0  0  0  0  0
   -3.0644    3.4634    6.7935 H   0  0  0  0  0  0  0  0  0  0  0  0
  1  2  1  0
  1 34  1  0
  1 35  1  0
  1 36  1  0
  2  3  1  0
  2  4  2  3
  3 37  1  0
  3 38  1  0
  3 39  1  0
  4  5  1  0
  4 40  1  0
  5  6  2  3
  5 41  1  0
  6  7  1  0
  6 42  1  0
  7  8  1  0
  7  9  1  0
  7 43  1  6
  8 44  1  0
  8 45  1  0
  8 46  1  0
  9 23  1  0
  9 10  1  6
  9 11  1  0
 10 47  1  0
 10 48  1  0
 10 49  1  0
 11 12  1  0
 11 50  1  0
 11 51  1  0
 12 13  2  0
 12 14  1  0
 14 15  1  0
 14 16  2  3
 15 52  1  0
 15 53  1  0
 15 54  1  0
 16 30  1  0
 16 17  1  0
 17 22  1  0
 17 18  1  0
 17 55  1  1
 18 25  1  0
 18 19  2  0
 19 20  1  0
 19 56  1  0
 20 21  1  0
 21 22  2  0
 21 57  1  0
 22 23  1  0
 23 24  1  6
 23 26  1  0
 24 25  2  0
 24 58  1  0
 25 59  1  0
 26 27  1  0
 26 28  1  0
 26 60  1  1
 27 61  1  0
 27 62  1  0
 27 63  1  0
 28 29  1  0
 28 64  1  0
 28 65  1  0
 29 31  1  0
 29 30  1  0
 29 66  1  1
 30 31  1  0
 30 67  1  1
 31 32  1  0
 31 33  1  0
 32 68  1  0
 32 69  1  0
 32 70  1  0
 33 71  1  0
 33 72  1  0
 33 73  1  0
M  END
>  <i_m_ct_stereo_status>  (217) 
1

>  <s_m_source_file>  (217) 
/var/tmp/pbs.5076255.sched01/tmpelb551ou/82hj6rxffr.sdf

>  <i_m_source_file_index>  (217) 
11

>  <i_lp_mmshare_version>  (217) 
48012

>  <i_f3d_flags>  (217) 
0

>  <s_epik_input>  (217) 
W0NIM11DKFtDSDNdKT1bQ0hdL1tDSF09W0NIXS9bQ0BIXShbQ0gzXSlbQ0BAXTEoW0NIM10pW0NIMl1DKD1PKS9DKFtDSDNdKT1DKFxbQ0hdKEMyW0NAQF0xMzQpQyhbQ0hdPVtDSF0zKT1bQ0hdT1tDSF09MilbQ0BIXTVbQ0BIXShDNShbQ0gzXSlbQ0gzXSlbQ0gyXVtDQEBIXTRbQ0gzXQ==

>  <s_epik_cmdline>  (217) 
J2VwaWtfcHl0aG9uJywgJy1waHQnLCAnMi4wJywgJy1waCcsICc3LjAnLCAnLXRuJywgJzgnLCAnLW1hJywgJzIwMCcsICctaW1hZScsICc8aW5maWxlLm1hZT4nLCAnLW9tYWUnLCAnPG91dGZpbGUubWFlPic=

>  <r_lp_tautomer_probability>  (217) 
1

>  <r_epik_Ionization_Penalty>  (217) 
0

>  <r_epik_Ionization_Penalty_Charging>  (217) 
0

>  <r_epik_Ionization_Penalty_Neutral>  (217) 
0

>  <r_epik_State_Penalty>  (217) 
-0

>  <r_epik_Charging_Adjusted_Penalty>  (217) 
0

>  <i_epik_Tot_Q>  (217) 
0

>  <i_epik_Tot_abs_Q>  (217) 
0

>  <s_lp_Force_Field>  (217) 
OPLS3e

>  <r_lp_Energy>  (217) 
276.199

>  <b_lp_Chiralities_Consistent>  (217) 
1

>  <s_lp_Variant>  (217) 
71:0-5

>  <s_i_glide_gridfile>  (217) 
pfpi4k_grid

>  <i_i_glide_lignum>  (217) 
11

>  <i_i_glide_rotatable_bonds>  (217) 
3

>  <r_i_docking_score>  (217) 
-1.78234

>  <r_i_glide_ligand_efficiency>  (217) 
-0.0540104

>  <r_i_glide_ligand_efficiency_sa>  (217) 
-0.17324

>  <r_i_glide_ligand_efficiency_ln>  (217) 
-0.396384

>  <r_i_glide_gscore>  (217) 
-1.78234

>  <r_i_glide_lipo>  (217) 
-0.277666

>  <r_i_glide_hbond>  (217) 
0

>  <r_i_glide_metal>  (217) 
-0

>  <r_i_glide_rewards>  (217) 
-0.377399

>  <r_i_glide_evdw>  (217) 
-21.7472

>  <r_i_glide_ecoul>  (217) 
-2.28944

>  <r_i_glide_erotb>  (217) 
0.303497

>  <r_i_glide_esite>  (217) 
0

>  <r_i_glide_emodel>  (217) 
-24.7139

>  <r_i_glide_energy>  (217) 
-24.0366

>  <r_i_glide_einternal>  (217) 
3.61441

>  <r_i_glide_intrahb_reward>  (217) 
-0

>  <i_i_glide_confnum>  (217) 
6

>  <i_i_glide_posenum>  (217) 
7

>  <r_i_glide_eff_state_penalty>  (217) 
0

>  <ligand_id>  (217) 
71

>  <original_smiles>  (217) 
CC(C)=CC=CC(C)C1(C)CC(=O)C(C)=C2C3C4=COC=C3C1(C=C4)C(C)CC1C2C1(C)C

>  <smiles>  (217) 
[H]C1=C2C([H])=C([H])C34C(=C([H])O1)C2([H])C(=C(C([H])([H])[H])C(=O)C([H])([H])C3(C([H])([H])[H])C([H])(C([H])=C([H])C([H])=C(C([H])([H])[H])C([H])([H])[H])C([H])([H])[H])C1([H])C([H])(C([H])([H])C4([H])C([H])([H])[H])C1(C([H])([H])[H])C([H])([H])[H]

$$$$
71:5:0
     RDKit          3D

 73 77  0  0  1  0  0  0  0  0999 V2000
   -2.2238    0.5307    6.0709 C   0  0  0  0  0  0  0  0  0  0  0  0
   -0.8001    0.1603    6.4878 C   0  0  0  0  0  0  0  0  0  0  0  0
    0.0713    1.3515    6.7858 C   0  0  0  0  0  0  0  0  0  0  0  0
   -0.2957   -1.0962    6.5914 C   0  0  0  0  0  0  0  0  0  0  0  0
   -1.0093   -2.3450    6.3209 C   0  0  0  0  0  0  0  0  0  0  0  0
   -0.5002   -3.5648    6.4168 C   0  0  0  0  0  0  0  0  0  0  0  0
    0.9067   -4.0956    6.8099 C   0  0  2  0  0  0  0  0  0  0  0  0
    1.7768   -3.1168    7.6477 C   0  0  0  0  0  0  0  0  0  0  0  0
    1.7199   -4.7962    5.6326 C   0  0  1  0  0  0  0  0  0  0  0  0
    1.8605   -3.6306    4.5799 C   0  0  0  0  0  0  0  0  0  0  0  0
    3.2401   -5.1273    5.9840 C   0  0  0  0  0  0  0  0  0  0  0  0
    4.1412   -5.8778    4.9263 C   0  0  0  0  0  0  0  0  0  0  0  0
    4.8821   -5.2004    4.2229 O   0  0  0  0  0  0  0  0  0  0  0  0
    4.1165   -7.3799    4.8095 C   0  0  0  0  0  0  0  0  0  0  0  0
    5.2128   -7.9633    5.7089 C   0  0  0  0  0  0  0  0  0  0  0  0
    3.1739   -8.1587    4.1323 C   0  0  0  0  0  0  0  0  0  0  0  0
    2.0534   -7.6180    3.2057 C   0  0  1  0  0  0  0  0  0  0  0  0
    0.5549   -8.0184    2.9232 C   0  0  0  0  0  0  0  0  0  0  0  0
    0.2577   -7.5210    1.6975 C   0  0  0  0  0  0  0  0  0  0  0  0
    0.8340   -6.2754    1.4210 O   0  0  0  0  0  0  0  0  0  0  0  0
    1.2223   -5.5488    2.5459 C   0  0  0  0  0  0  0  0  0  0  0  0
    1.6835   -6.2716    3.6174 C   0  0  0  0  0  0  0  0  0  0  0  0
    1.1570   -6.2356    5.1224 C   0  0  2  0  0  0  0  0  0  0  0  0
   -0.3031   -6.6221    4.7982 C   0  0  0  0  0  0  0  0  0  0  0  0
   -0.5502   -7.5775    3.8409 C   0  0  0  0  0  0  0  0  0  0  0  0
    1.4439   -7.4592    6.2448 C   0  0  1  0  0  0  0  0  0  0  0  0
    0.8791   -7.2182    7.6572 C   0  0  0  0  0  0  0  0  0  0  0  0
    1.1283   -9.0031    5.9553 C   0  0  0  0  0  0  0  0  0  0  0  0
    2.2904   -9.9321    5.5479 C   0  0  2  0  0  0  0  0  0  0  0  0
    3.2095   -9.6256    4.3841 C   0  0  1  0  0  0  0  0  0  0  0  0
    2.2635  -10.8270    4.3250 C   0  0  0  0  0  0  0  0  0  0  0  0
    2.8769  -12.2056    4.4733 C   0  0  0  0  0  0  0  0  0  0  0  0
    1.1235  -10.9319    3.3229 C   0  0  0  0  0  0  0  0  0  0  0  0
   -2.2066    1.0471    5.1023 H   0  0  0  0  0  0  0  0  0  0  0  0
   -2.6869    1.1990    6.8171 H   0  0  0  0  0  0  0  0  0  0  0  0
   -2.8810   -0.3388    5.9554 H   0  0  0  0  0  0  0  0  0  0  0  0
    0.1917    1.9616    5.8948 H   0  0  0  0  0  0  0  0  0  0  0  0
    1.0612    1.0120    7.0719 H   0  0  0  0  0  0  0  0  0  0  0  0
   -0.3202    1.9510    7.6074 H   0  0  0  0  0  0  0  0  0  0  0  0
    0.7169   -1.1401    6.8920 H   0  0  0  0  0  0  0  0  0  0  0  0
   -2.0599   -2.3489    6.0176 H   0  0  0  0  0  0  0  0  0  0  0  0
   -1.1770   -4.3654    6.1789 H   0  0  0  0  0  0  0  0  0  0  0  0
    0.5729   -4.8142    7.5414 H   0  0  0  0  0  0  0  0  0  0  0  0
    1.1491   -2.7027    8.4201 H   0  0  0  0  0  0  0  0  0  0  0  0
    2.1252   -2.2556    7.1087 H   0  0  0  0  0  0  0  0  0  0  0  0
    2.6017   -3.6471    8.1851 H   0  0  0  0  0  0  0  0  0  0  0  0
    2.5739   -3.8401    3.7822 H   0  0  0  0  0  0  0  0  0  0  0  0
    2.2892   -2.7252    5.0033 H   0  0  0  0  0  0  0  0  0  0  0  0
    0.9000   -3.3132    4.1709 H   0  0  0  0  0  0  0  0  0  0  0  0
    3.7530   -4.1830    6.1902 H   0  0  0  0  0  0  0  0  0  0  0  0
    3.3059   -5.6646    6.9283 H   0  0  0  0  0  0  0  0  0  0  0  0
    5.5178   -7.2504    6.4776 H   0  0  0  0  0  0  0  0  0  0  0  0
    6.1019   -8.1830    5.1153 H   0  0  0  0  0  0  0  0  0  0  0  0
    4.9196   -8.8656    6.2448 H   0  0  0  0  0  0  0  0  0  0  0  0
    2.5753   -7.6064    2.2488 H   0  0  0  0  0  0  0  0  0  0  0  0
   -0.7821   -7.4642    1.4141 H   0  0  0  0  0  0  0  0  0  0  0  0
    0.6210   -4.6666    2.6457 H   0  0  0  0  0  0  0  0  0  0  0  0
   -1.0900   -6.2938    5.4507 H   0  0  0  0  0  0  0  0  0  0  0  0
   -1.5587   -7.9287    3.6873 H   0  0  0  0  0  0  0  0  0  0  0  0
    2.4823   -7.4852    6.5392 H   0  0  0  0  0  0  0  0  0  0  0  0
   -0.1798   -6.9519    7.6573 H   0  0  0  0  0  0  0  0  0  0  0  0
    1.4752   -6.4856    8.2012 H   0  0  0  0  0  0  0  0  0  0  0  0
    0.9954   -8.0947    8.2981 H   0  0  0  0  0  0  0  0  0  0  0  0
    0.7812   -9.4844    6.8713 H   0  0  0  0  0  0  0  0  0  0  0  0
    0.2683   -9.1905    5.3464 H   0  0  0  0  0  0  0  0  0  0  0  0
    2.7706  -10.3631    6.4228 H   0  0  0  0  0  0  0  0  0  0  0  0
    4.2353   -9.9558    4.4577 H   0  0  0  0  0  0  0  0  0  0  0  0
    3.2249  -12.5740    3.5084 H   0  0  0  0  0  0  0  0  0  0  0  0
    2.1454  -12.9002    4.8889 H   0  0  0  0  0  0  0  0  0  0  0  0
    3.7194  -12.1857    5.1571 H   0  0  0  0  0  0  0  0  0  0  0  0
    1.4404  -10.4858    2.3818 H   0  0  0  0  0  0  0  0  0  0  0  0
    0.2344  -10.4544    3.6889 H   0  0  0  0  0  0  0  0  0  0  0  0
    0.8567  -11.9804    3.1397 H   0  0  0  0  0  0  0  0  0  0  0  0
  1  2  1  0
  1 34  1  0
  1 35  1  0
  1 36  1  0
  2  3  1  0
  2  4  2  3
  3 37  1  0
  3 38  1  0
  3 39  1  0
  4  5  1  0
  4 40  1  0
  5  6  2  3
  5 41  1  0
  6  7  1  0
  6 42  1  0
  7  8  1  0
  7  9  1  0
  7 43  1  1
  8 44  1  0
  8 45  1  0
  8 46  1  0
  9 23  1  0
  9 10  1  6
  9 11  1  0
 10 47  1  0
 10 48  1  0
 10 49  1  0
 11 12  1  0
 11 50  1  0
 11 51  1  0
 12 13  2  0
 12 14  1  0
 14 15  1  0
 14 16  2  3
 15 52  1  0
 15 53  1  0
 15 54  1  0
 16 30  1  0
 16 17  1  0
 17 22  1  0
 17 18  1  0
 17 55  1  6
 18 25  1  0
 18 19  2  0
 19 20  1  0
 19 56  1  0
 20 21  1  0
 21 22  2  0
 21 57  1  0
 22 23  1  0
 23 24  1  6
 23 26  1  0
 24 25  2  0
 24 58  1  0
 25 59  1  0
 26 27  1  0
 26 28  1  0
 26 60  1  1
 27 61  1  0
 27 62  1  0
 27 63  1  0
 28 29  1  0
 28 64  1  0
 28 65  1  0
 29 31  1  0
 29 30  1  0
 29 66  1  1
 30 31  1  0
 30 67  1  1
 31 32  1  0
 31 33  1  0
 32 68  1  0
 32 69  1  0
 32 70  1  0
 33 71  1  0
 33 72  1  0
 33 73  1  0
M  END
>  <i_m_ct_stereo_status>  (218) 
1

>  <s_m_source_file>  (218) 
/var/tmp/pbs.5076255.sched01/tmpelb551ou/82hj6rxffr.sdf

>  <i_m_source_file_index>  (218) 
12

>  <i_lp_mmshare_version>  (218) 
48012

>  <i_f3d_flags>  (218) 
0

>  <s_epik_input>  (218) 
W0NIM11DKFtDSDNdKT1bQ0hdL1tDSF09W0NIXS9bQ0BIXShbQ0gzXSlbQ0BAXTEoW0NIM10pW0NIMl1DKD1PKS9DKFtDSDNdKT1DKFxbQ0hdKEMyW0NAQF0xMzQpQyhbQ0hdPVtDSF0zKT1bQ0hdT1tDSF09MilbQ0BIXTVbQ0BIXShDNShbQ0gzXSlbQ0gzXSlbQ0gyXVtDQEBIXTRbQ0gzXQ==

>  <s_epik_cmdline>  (218) 
J2VwaWtfcHl0aG9uJywgJy1waHQnLCAnMi4wJywgJy1waCcsICc3LjAnLCAnLXRuJywgJzgnLCAnLW1hJywgJzIwMCcsICctaW1hZScsICc8aW5maWxlLm1hZT4nLCAnLW9tYWUnLCAnPG91dGZpbGUubWFlPic=

>  <r_lp_tautomer_probability>  (218) 
1

>  <r_epik_Ionization_Penalty>  (218) 
0

>  <r_epik_Ionization_Penalty_Charging>  (218) 
0

>  <r_epik_Ionization_Penalty_Neutral>  (218) 
0

>  <r_epik_State_Penalty>  (218) 
-0

>  <r_epik_Charging_Adjusted_Penalty>  (218) 
0

>  <i_epik_Tot_Q>  (218) 
0

>  <i_epik_Tot_abs_Q>  (218) 
0

>  <s_lp_Force_Field>  (218) 
OPLS3e

>  <r_lp_Energy>  (218) 
279.502

>  <b_lp_Chiralities_Consistent>  (218) 
1

>  <s_lp_Variant>  (218) 
71:0-6

>  <s_i_glide_gridfile>  (218) 
pfpi4k_grid

>  <i_i_glide_lignum>  (218) 
12

>  <i_i_glide_rotatable_bonds>  (218) 
3

>  <r_i_docking_score>  (218) 
-1.67158

>  <r_i_glide_ligand_efficiency>  (218) 
-0.050654

>  <r_i_glide_ligand_efficiency_sa>  (218) 
-0.162475

>  <r_i_glide_ligand_efficiency_ln>  (218) 
-0.371751

>  <r_i_glide_gscore>  (218) 
-1.67158

>  <r_i_glide_lipo>  (218) 
-0.216318

>  <r_i_glide_hbond>  (218) 
-0.16

>  <r_i_glide_metal>  (218) 
-0

>  <r_i_glide_rewards>  (218) 
-0.377399

>  <r_i_glide_evdw>  (218) 
-19.7959

>  <r_i_glide_ecoul>  (218) 
-1.54378

>  <r_i_glide_erotb>  (218) 
0.303497

>  <r_i_glide_esite>  (218) 
0

>  <r_i_glide_emodel>  (218) 
-22.4616

>  <r_i_glide_energy>  (218) 
-21.3397

>  <r_i_glide_einternal>  (218) 
0.827599

>  <r_i_glide_intrahb_reward>  (218) 
-0

>  <i_i_glide_confnum>  (218) 
1

>  <i_i_glide_posenum>  (218) 
27

>  <r_i_glide_eff_state_penalty>  (218) 
0

>  <ligand_id>  (218) 
71

>  <original_smiles>  (218) 
CC(C)=CC=CC(C)C1(C)CC(=O)C(C)=C2C3C4=COC=C3C1(C=C4)C(C)CC1C2C1(C)C

>  <smiles>  (218) 
[H]C1=C2C([H])=C([H])C34C(=C([H])O1)C2([H])C(=C(C([H])([H])[H])C(=O)C([H])([H])C3(C([H])([H])[H])C([H])(C([H])=C([H])C([H])=C(C([H])([H])[H])C([H])([H])[H])C([H])([H])[H])C1([H])C([H])(C([H])([H])C4([H])C([H])([H])[H])C1(C([H])([H])[H])C([H])([H])[H]

$$$$
71:5:1
     RDKit          3D

 73 77  0  0  1  0  0  0  0  0999 V2000
   -1.0678   -0.1240    6.0070 C   0  0  0  0  0  0  0  0  0  0  0  0
   -0.1443   -0.5348    4.8853 C   0  0  0  0  0  0  0  0  0  0  0  0
   -0.3129    0.2513    3.5915 C   0  0  0  0  0  0  0  0  0  0  0  0
    0.7764   -1.5136    4.9558 C   0  0  0  0  0  0  0  0  0  0  0  0
    1.0532   -2.4262    6.0673 C   0  0  0  0  0  0  0  0  0  0  0  0
    1.9389   -3.4504    6.0554 C   0  0  0  0  0  0  0  0  0  0  0  0
    2.9277   -3.9297    4.9803 C   0  0  2  0  0  0  0  0  0  0  0  0
    3.7875   -2.7887    4.3701 C   0  0  0  0  0  0  0  0  0  0  0  0
    2.3719   -5.0137    3.9431 C   0  0  1  0  0  0  0  0  0  0  0  0
    1.0841   -4.3435    3.3887 C   0  0  0  0  0  0  0  0  0  0  0  0
    3.2164   -5.1559    2.6030 C   0  0  0  0  0  0  0  0  0  0  0  0
    2.7490   -6.2280    1.5334 C   0  0  0  0  0  0  0  0  0  0  0  0
    2.0204   -5.8473    0.6087 O   0  0  0  0  0  0  0  0  0  0  0  0
    3.1938   -7.6628    1.6571 C   0  0  0  0  0  0  0  0  0  0  0  0
    4.4958   -7.8528    0.8663 C   0  0  0  0  0  0  0  0  0  0  0  0
    2.6019   -8.6582    2.4396 C   0  0  0  0  0  0  0  0  0  0  0  0
    1.2940   -8.4968    3.2508 C   0  0  1  0  0  0  0  0  0  0  0  0
    0.7935   -8.9870    4.6640 C   0  0  0  0  0  0  0  0  0  0  0  0
   -0.5650   -8.9920    4.6001 C   0  0  0  0  0  0  0  0  0  0  0  0
   -1.1157   -7.9462    3.8613 O   0  0  0  0  0  0  0  0  0  0  0  0
   -0.2710   -6.8476    3.7444 C   0  0  0  0  0  0  0  0  0  0  0  0
    1.0729   -7.1138    3.6156 C   0  0  0  0  0  0  0  0  0  0  0  0
    2.2647   -6.5359    4.4878 C   0  0  2  0  0  0  0  0  0  0  0  0
    1.7351   -7.0086    5.8481 C   0  0  0  0  0  0  0  0  0  0  0  0
    1.1508   -8.2547    5.9301 C   0  0  0  0  0  0  0  0  0  0  0  0
    3.7823   -7.2580    4.5927 C   0  0  1  0  0  0  0  0  0  0  0  0
    4.8164   -6.5148    5.4817 C   0  0  0  0  0  0  0  0  0  0  0  0
    3.9998   -8.8027    4.9528 C   0  0  0  0  0  0  0  0  0  0  0  0
    4.2771   -9.7995    3.8090 C   0  0  2  0  0  0  0  0  0  0  0  0
    3.3764   -9.9252    2.5975 C   0  0  1  0  0  0  0  0  0  0  0  0
    3.4884  -11.0826    3.6035 C   0  0  0  0  0  0  0  0  0  0  0  0
    4.2770  -12.3081    3.1640 C   0  0  0  0  0  0  0  0  0  0  0  0
    2.3235  -11.5596    4.4466 C   0  0  0  0  0  0  0  0  0  0  0  0
   -2.1018   -0.3373    5.7239 H   0  0  0  0  0  0  0  0  0  0  0  0
   -0.9488    0.9478    6.1807 H   0  0  0  0  0  0  0  0  0  0  0  0
   -0.8303   -0.6398    6.9354 H   0  0  0  0  0  0  0  0  0  0  0  0
   -1.3286    0.1533    3.2104 H   0  0  0  0  0  0  0  0  0  0  0  0
    0.3547   -0.1075    2.8101 H   0  0  0  0  0  0  0  0  0  0  0  0
   -0.0941    1.3056    3.7459 H   0  0  0  0  0  0  0  0  0  0  0  0
    1.3435   -1.6010    4.0436 H   0  0  0  0  0  0  0  0  0  0  0  0
    0.5076   -2.3207    6.9980 H   0  0  0  0  0  0  0  0  0  0  0  0
    1.9878   -4.0487    6.9594 H   0  0  0  0  0  0  0  0  0  0  0  0
    3.6169   -4.4056    5.6544 H   0  0  0  0  0  0  0  0  0  0  0  0
    4.1823   -2.1742    5.1771 H   0  0  0  0  0  0  0  0  0  0  0  0
    3.2586   -2.1301    3.6792 H   0  0  0  0  0  0  0  0  0  0  0  0
    4.6469   -3.1770    3.8255 H   0  0  0  0  0  0  0  0  0  0  0  0
    0.6207   -4.8839    2.5630 H   0  0  0  0  0  0  0  0  0  0  0  0
    1.3326   -3.3823    2.9364 H   0  0  0  0  0  0  0  0  0  0  0  0
    0.3234   -4.1739    4.1481 H   0  0  0  0  0  0  0  0  0  0  0  0
    3.1994   -4.1945    2.0947 H   0  0  0  0  0  0  0  0  0  0  0  0
    4.2677   -5.3145    2.8244 H   0  0  0  0  0  0  0  0  0  0  0  0
    5.0105   -6.9040    0.7125 H   0  0  0  0  0  0  0  0  0  0  0  0
    4.2819   -8.2637   -0.1198 H   0  0  0  0  0  0  0  0  0  0  0  0
    5.2120   -8.5026    1.3639 H   0  0  0  0  0  0  0  0  0  0  0  0
    0.5703   -8.8360    2.5049 H   0  0  0  0  0  0  0  0  0  0  0  0
   -1.1347   -9.0610    5.5123 H   0  0  0  0  0  0  0  0  0  0  0  0
   -0.6736   -6.0132    4.2836 H   0  0  0  0  0  0  0  0  0  0  0  0
    1.9596   -6.4145    6.7202 H   0  0  0  0  0  0  0  0  0  0  0  0
    0.8618   -8.6599    6.8857 H   0  0  0  0  0  0  0  0  0  0  0  0
    4.3397   -7.1595    3.6744 H   0  0  0  0  0  0  0  0  0  0  0  0
    4.4450   -6.3253    6.4896 H   0  0  0  0  0  0  0  0  0  0  0  0
    5.1545   -5.5950    5.0107 H   0  0  0  0  0  0  0  0  0  0  0  0
    5.7495   -7.0739    5.5846 H   0  0  0  0  0  0  0  0  0  0  0  0
    4.8959   -8.9218    5.5635 H   0  0  0  0  0  0  0  0  0  0  0  0
    3.2912   -9.2183    5.6433 H   0  0  0  0  0  0  0  0  0  0  0  0
    5.3359   -9.8647    3.5869 H   0  0  0  0  0  0  0  0  0  0  0  0
    3.8253  -10.1950    1.6519 H   0  0  0  0  0  0  0  0  0  0  0  0
    3.6350  -12.9912    2.6016 H   0  0  0  0  0  0  0  0  0  0  0  0
    4.6861  -12.8416    4.0255 H   0  0  0  0  0  0  0  0  0  0  0  0
    5.1006  -12.0246    2.5125 H   0  0  0  0  0  0  0  0  0  0  0  0
    1.4017  -11.4972    3.8681 H   0  0  0  0  0  0  0  0  0  0  0  0
    2.2325  -10.9979    5.3668 H   0  0  0  0  0  0  0  0  0  0  0  0
    2.4567  -12.6021    4.7551 H   0  0  0  0  0  0  0  0  0  0  0  0
  1  2  1  0
  1 34  1  0
  1 35  1  0
  1 36  1  0
  2  3  1  0
  2  4  2  3
  3 37  1  0
  3 38  1  0
  3 39  1  0
  4  5  1  0
  4 40  1  0
  5  6  2  3
  5 41  1  0
  6  7  1  0
  6 42  1  0
  7  8  1  0
  7  9  1  0
  7 43  1  1
  8 44  1  0
  8 45  1  0
  8 46  1  0
  9 23  1  0
  9 10  1  6
  9 11  1  0
 10 47  1  0
 10 48  1  0
 10 49  1  0
 11 12  1  0
 11 50  1  0
 11 51  1  0
 12 13  2  0
 12 14  1  0
 14 15  1  0
 14 16  2  3
 15 52  1  0
 15 53  1  0
 15 54  1  0
 16 30  1  0
 16 17  1  0
 17 22  1  0
 17 18  1  0
 17 55  1  6
 18 25  1  0
 18 19  2  0
 19 20  1  0
 19 56  1  0
 20 21  1  0
 21 22  2  0
 21 57  1  0
 22 23  1  0
 23 24  1  1
 23 26  1  0
 24 25  2  0
 24 58  1  0
 25 59  1  0
 26 27  1  0
 26 28  1  0
 26 60  1  6
 27 61  1  0
 27 62  1  0
 27 63  1  0
 28 29  1  0
 28 64  1  0
 28 65  1  0
 29 31  1  0
 29 30  1  0
 29 66  1  6
 30 31  1  0
 30 67  1  6
 31 32  1  0
 31 33  1  0
 32 68  1  0
 32 69  1  0
 32 70  1  0
 33 71  1  0
 33 72  1  0
 33 73  1  0
M  END
>  <i_m_ct_stereo_status>  (219) 
1

>  <s_m_source_file>  (219) 
/var/tmp/pbs.5076255.sched01/tmpelb551ou/82hj6rxffr.sdf

>  <i_m_source_file_index>  (219) 
12

>  <i_lp_mmshare_version>  (219) 
48012

>  <i_f3d_flags>  (219) 
0

>  <s_epik_input>  (219) 
W0NIM11DKFtDSDNdKT1bQ0hdL1tDSF09W0NIXS9bQ0BIXShbQ0gzXSlbQ0BAXTEoW0NIM10pW0NIMl1DKD1PKS9DKFtDSDNdKT1DKFxbQ0hdKEMyW0NAQF0xMzQpQyhbQ0hdPVtDSF0zKT1bQ0hdT1tDSF09MilbQ0BIXTVbQ0BIXShDNShbQ0gzXSlbQ0gzXSlbQ0gyXVtDQEBIXTRbQ0gzXQ==

>  <s_epik_cmdline>  (219) 
J2VwaWtfcHl0aG9uJywgJy1waHQnLCAnMi4wJywgJy1waCcsICc3LjAnLCAnLXRuJywgJzgnLCAnLW1hJywgJzIwMCcsICctaW1hZScsICc8aW5maWxlLm1hZT4nLCAnLW9tYWUnLCAnPG91dGZpbGUubWFlPic=

>  <r_lp_tautomer_probability>  (219) 
1

>  <r_epik_Ionization_Penalty>  (219) 
0

>  <r_epik_Ionization_Penalty_Charging>  (219) 
0

>  <r_epik_Ionization_Penalty_Neutral>  (219) 
0

>  <r_epik_State_Penalty>  (219) 
-0

>  <r_epik_Charging_Adjusted_Penalty>  (219) 
0

>  <i_epik_Tot_Q>  (219) 
0

>  <i_epik_Tot_abs_Q>  (219) 
0

>  <s_lp_Force_Field>  (219) 
OPLS3e

>  <r_lp_Energy>  (219) 
279.502

>  <b_lp_Chiralities_Consistent>  (219) 
1

>  <s_lp_Variant>  (219) 
71:0-6

>  <s_i_glide_gridfile>  (219) 
pfpi4k_grid

>  <i_i_glide_lignum>  (219) 
12

>  <i_i_glide_rotatable_bonds>  (219) 
3

>  <r_i_docking_score>  (219) 
-1.43328

>  <r_i_glide_ligand_efficiency>  (219) 
-0.0434327

>  <r_i_glide_ligand_efficiency_sa>  (219) 
-0.139312

>  <r_i_glide_ligand_efficiency_ln>  (219) 
-0.318754

>  <r_i_glide_gscore>  (219) 
-1.43328

>  <r_i_glide_lipo>  (219) 
-0.058715

>  <r_i_glide_hbond>  (219) 
-0.00737679

>  <r_i_glide_metal>  (219) 
-0

>  <r_i_glide_rewards>  (219) 
-0.377399

>  <r_i_glide_evdw>  (219) 
-22.7095

>  <r_i_glide_ecoul>  (219) 
-1.04349

>  <r_i_glide_erotb>  (219) 
0.303497

>  <r_i_glide_esite>  (219) 
-0.00128809

>  <r_i_glide_emodel>  (219) 
-23.6667

>  <r_i_glide_energy>  (219) 
-23.753

>  <r_i_glide_einternal>  (219) 
3.26759

>  <r_i_glide_intrahb_reward>  (219) 
-0

>  <i_i_glide_confnum>  (219) 
1

>  <i_i_glide_posenum>  (219) 
5

>  <r_i_glide_eff_state_penalty>  (219) 
0

>  <ligand_id>  (219) 
71

>  <original_smiles>  (219) 
CC(C)=CC=CC(C)C1(C)CC(=O)C(C)=C2C3C4=COC=C3C1(C=C4)C(C)CC1C2C1(C)C

>  <smiles>  (219) 
[H]C1=C2C([H])=C([H])C34C(=C([H])O1)C2([H])C(=C(C([H])([H])[H])C(=O)C([H])([H])C3(C([H])([H])[H])C([H])(C([H])=C([H])C([H])=C(C([H])([H])[H])C([H])([H])[H])C([H])([H])[H])C1([H])C([H])(C([H])([H])C4([H])C([H])([H])[H])C1(C([H])([H])[H])C([H])([H])[H]

$$$$
71:5:2
     RDKit          3D

 73 77  0  0  1  0  0  0  0  0999 V2000
   -0.4845    0.0407    4.0689 C   0  0  0  0  0  0  0  0  0  0  0  0
    0.7133   -0.3925    3.2167 C   0  0  0  0  0  0  0  0  0  0  0  0
    1.0374    0.5341    2.0738 C   0  0  0  0  0  0  0  0  0  0  0  0
    1.4772   -1.5156    3.4121 C   0  0  0  0  0  0  0  0  0  0  0  0
    1.3078   -2.4754    4.5007 C   0  0  0  0  0  0  0  0  0  0  0  0
    2.1219   -3.5063    4.7491 C   0  0  0  0  0  0  0  0  0  0  0  0
    3.4180   -3.9913    4.0445 C   0  0  2  0  0  0  0  0  0  0  0  0
    4.3281   -2.8319    3.5263 C   0  0  0  0  0  0  0  0  0  0  0  0
    3.2280   -5.2066    3.0369 C   0  0  1  0  0  0  0  0  0  0  0  0
    2.4056   -4.5426    1.8714 C   0  0  0  0  0  0  0  0  0  0  0  0
    4.5537   -5.6792    2.2943 C   0  0  0  0  0  0  0  0  0  0  0  0
    4.4980   -6.9092    1.3061 C   0  0  0  0  0  0  0  0  0  0  0  0
    4.4099   -6.6724    0.1084 O   0  0  0  0  0  0  0  0  0  0  0  0
    4.6006   -8.3265    1.8114 C   0  0  0  0  0  0  0  0  0  0  0  0
    6.0656   -8.7606    1.7840 C   0  0  0  0  0  0  0  0  0  0  0  0
    3.5773   -9.1092    2.3693 C   0  0  0  0  0  0  0  0  0  0  0  0
    2.0654   -8.7084    2.4118 C   0  0  1  0  0  0  0  0  0  0  0  0
    0.9064   -8.8913    3.4573 C   0  0  0  0  0  0  0  0  0  0  0  0
   -0.2565   -8.7956    2.7634 C   0  0  0  0  0  0  0  0  0  0  0  0
   -0.2369   -7.8566    1.7213 O   0  0  0  0  0  0  0  0  0  0  0  0
    0.7480   -6.8764    1.8492 C   0  0  0  0  0  0  0  0  0  0  0  0
    1.9361   -7.2601    2.4181 C   0  0  0  0  0  0  0  0  0  0  0  0
    2.6638   -6.6008    3.6720 C   0  0  2  0  0  0  0  0  0  0  0  0
    1.4936   -6.7941    4.6622 C   0  0  0  0  0  0  0  0  0  0  0  0
    0.7647   -7.9607    4.6236 C   0  0  0  0  0  0  0  0  0  0  0  0
    3.8396   -7.3897    4.5963 C   0  0  1  0  0  0  0  0  0  0  0  0
    4.4425   -6.5698    5.7476 C   0  0  0  0  0  0  0  0  0  0  0  0
    3.6235   -8.8501    5.2252 C   0  0  0  0  0  0  0  0  0  0  0  0
    4.2346  -10.0641    4.5064 C   0  0  2  0  0  0  0  0  0  0  0  0
    3.9778  -10.3668    3.0449 C   0  0  1  0  0  0  0  0  0  0  0  0
    3.4577  -11.3118    4.1353 C   0  0  0  0  0  0  0  0  0  0  0  0
    4.1694  -12.6475    4.3150 C   0  0  0  0  0  0  0  0  0  0  0  0
    1.9700  -11.5352    4.3876 C   0  0  0  0  0  0  0  0  0  0  0  0
   -1.3823   -0.0318    3.4568 H   0  0  0  0  0  0  0  0  0  0  0  0
   -0.3668    1.0812    4.3879 H   0  0  0  0  0  0  0  0  0  0  0  0
   -0.6291   -0.5683    4.9595 H   0  0  0  0  0  0  0  0  0  0  0  0
    0.2186    0.5623    1.3610 H   0  0  0  0  0  0  0  0  0  0  0  0
    1.9193    0.1846    1.5338 H   0  0  0  0  0  0  0  0  0  0  0  0
    1.2545    1.5460    2.4199 H   0  0  0  0  0  0  0  0  0  0  0  0
    2.2759   -1.7052    2.7094 H   0  0  0  0  0  0  0  0  0  0  0  0
    0.4889   -2.3840    5.2082 H   0  0  0  0  0  0  0  0  0  0  0  0
    1.8531   -4.1127    5.5806 H   0  0  0  0  0  0  0  0  0  0  0  0
    3.9484   -4.3098    4.9203 H   0  0  0  0  0  0  0  0  0  0  0  0
    4.4312   -2.1066    4.3483 H   0  0  0  0  0  0  0  0  0  0  0  0
    3.9654   -2.2518    2.6934 H   0  0  0  0  0  0  0  0  0  0  0  0
    5.3674   -3.2140    3.3556 H   0  0  0  0  0  0  0  0  0  0  0  0
    2.3316   -5.1535    0.9707 H   0  0  0  0  0  0  0  0  0  0  0  0
    2.8896   -3.6540    1.4769 H   0  0  0  0  0  0  0  0  0  0  0  0
    1.4243   -4.2118    2.2057 H   0  0  0  0  0  0  0  0  0  0  0  0
    4.9229   -4.8385    1.7005 H   0  0  0  0  0  0  0  0  0  0  0  0
    5.3523   -5.8566    3.0133 H   0  0  0  0  0  0  0  0  0  0  0  0
    6.7399   -7.8980    1.7592 H   0  0  0  0  0  0  0  0  0  0  0  0
    6.2705   -9.3436    0.8823 H   0  0  0  0  0  0  0  0  0  0  0  0
    6.3764   -9.3457    2.6512 H   0  0  0  0  0  0  0  0  0  0  0  0
    1.7269   -9.1371    1.4671 H   0  0  0  0  0  0  0  0  0  0  0  0
   -1.1701   -8.6387    3.3122 H   0  0  0  0  0  0  0  0  0  0  0  0
    0.2850   -5.9242    2.0162 H   0  0  0  0  0  0  0  0  0  0  0  0
    1.3682   -6.1127    5.4779 H   0  0  0  0  0  0  0  0  0  0  0  0
    0.0096   -8.1335    5.3793 H   0  0  0  0  0  0  0  0  0  0  0  0
    4.7547   -7.5123    4.0426 H   0  0  0  0  0  0  0  0  0  0  0  0
    3.6930   -6.1152    6.4005 H   0  0  0  0  0  0  0  0  0  0  0  0
    5.1520   -5.8253    5.3790 H   0  0  0  0  0  0  0  0  0  0  0  0
    5.1020   -7.1685    6.3802 H   0  0  0  0  0  0  0  0  0  0  0  0
    4.1119   -8.9001    6.1980 H   0  0  0  0  0  0  0  0  0  0  0  0
    2.6248   -9.0694    5.5485 H   0  0  0  0  0  0  0  0  0  0  0  0
    5.2579  -10.2486    4.8445 H   0  0  0  0  0  0  0  0  0  0  0  0
    4.7675  -10.8490    2.4792 H   0  0  0  0  0  0  0  0  0  0  0  0
    3.8157  -13.3902    3.6048 H   0  0  0  0  0  0  0  0  0  0  0  0
    4.0382  -13.0267    5.3279 H   0  0  0  0  0  0  0  0  0  0  0  0
    5.2324  -12.5414    4.1180 H   0  0  0  0  0  0  0  0  0  0  0  0
    1.4379  -11.5223    3.4374 H   0  0  0  0  0  0  0  0  0  0  0  0
    1.5667  -10.7924    5.0561 H   0  0  0  0  0  0  0  0  0  0  0  0
    1.7938  -12.4972    4.8725 H   0  0  0  0  0  0  0  0  0  0  0  0
  1  2  1  0
  1 34  1  0
  1 35  1  0
  1 36  1  0
  2  3  1  0
  2  4  2  3
  3 37  1  0
  3 38  1  0
  3 39  1  0
  4  5  1  0
  4 40  1  0
  5  6  2  3
  5 41  1  0
  6  7  1  0
  6 42  1  0
  7  8  1  0
  7  9  1  0
  7 43  1  1
  8 44  1  0
  8 45  1  0
  8 46  1  0
  9 23  1  0
  9 10  1  6
  9 11  1  0
 10 47  1  0
 10 48  1  0
 10 49  1  0
 11 12  1  0
 11 50  1  0
 11 51  1  0
 12 13  2  0
 12 14  1  0
 14 15  1  0
 14 16  2  3
 15 52  1  0
 15 53  1  0
 15 54  1  0
 16 30  1  0
 16 17  1  0
 17 22  1  0
 17 18  1  0
 17 55  1  6
 18 25  1  0
 18 19  2  0
 19 20  1  0
 19 56  1  0
 20 21  1  0
 21 22  2  0
 21 57  1  0
 22 23  1  0
 23 24  1  1
 23 26  1  0
 24 25  2  0
 24 58  1  0
 25 59  1  0
 26 27  1  0
 26 28  1  0
 26 60  1  6
 27 61  1  0
 27 62  1  0
 27 63  1  0
 28 29  1  0
 28 64  1  0
 28 65  1  0
 29 31  1  0
 29 30  1  0
 29 66  1  6
 30 31  1  0
 30 67  1  6
 31 32  1  0
 31 33  1  0
 32 68  1  0
 32 69  1  0
 32 70  1  0
 33 71  1  0
 33 72  1  0
 33 73  1  0
M  END
>  <i_m_ct_stereo_status>  (220) 
1

>  <s_m_source_file>  (220) 
/var/tmp/pbs.5076255.sched01/tmpelb551ou/82hj6rxffr.sdf

>  <i_m_source_file_index>  (220) 
12

>  <i_lp_mmshare_version>  (220) 
48012

>  <i_f3d_flags>  (220) 
0

>  <s_epik_input>  (220) 
W0NIM11DKFtDSDNdKT1bQ0hdL1tDSF09W0NIXS9bQ0BIXShbQ0gzXSlbQ0BAXTEoW0NIM10pW0NIMl1DKD1PKS9DKFtDSDNdKT1DKFxbQ0hdKEMyW0NAQF0xMzQpQyhbQ0hdPVtDSF0zKT1bQ0hdT1tDSF09MilbQ0BIXTVbQ0BIXShDNShbQ0gzXSlbQ0gzXSlbQ0gyXVtDQEBIXTRbQ0gzXQ==

>  <s_epik_cmdline>  (220) 
J2VwaWtfcHl0aG9uJywgJy1waHQnLCAnMi4wJywgJy1waCcsICc3LjAnLCAnLXRuJywgJzgnLCAnLW1hJywgJzIwMCcsICctaW1hZScsICc8aW5maWxlLm1hZT4nLCAnLW9tYWUnLCAnPG91dGZpbGUubWFlPic=

>  <r_lp_tautomer_probability>  (220) 
1

>  <r_epik_Ionization_Penalty>  (220) 
0

>  <r_epik_Ionization_Penalty_Charging>  (220) 
0

>  <r_epik_Ionization_Penalty_Neutral>  (220) 
0

>  <r_epik_State_Penalty>  (220) 
-0

>  <r_epik_Charging_Adjusted_Penalty>  (220) 
0

>  <i_epik_Tot_Q>  (220) 
0

>  <i_epik_Tot_abs_Q>  (220) 
0

>  <s_lp_Force_Field>  (220) 
OPLS3e

>  <r_lp_Energy>  (220) 
279.502

>  <b_lp_Chiralities_Consistent>  (220) 
1

>  <s_lp_Variant>  (220) 
71:0-6

>  <s_i_glide_gridfile>  (220) 
pfpi4k_grid

>  <i_i_glide_lignum>  (220) 
12

>  <i_i_glide_rotatable_bonds>  (220) 
3

>  <r_i_docking_score>  (220) 
-1.20774

>  <r_i_glide_ligand_efficiency>  (220) 
-0.0365982

>  <r_i_glide_ligand_efficiency_sa>  (220) 
-0.11739

>  <r_i_glide_ligand_efficiency_ln>  (220) 
-0.268595

>  <r_i_glide_gscore>  (220) 
-1.20774

>  <r_i_glide_lipo>  (220) 
-0.0906632

>  <r_i_glide_hbond>  (220) 
0

>  <r_i_glide_metal>  (220) 
-0

>  <r_i_glide_rewards>  (220) 
-0.494698

>  <r_i_glide_evdw>  (220) 
-23.7305

>  <r_i_glide_ecoul>  (220) 
1.73764

>  <r_i_glide_erotb>  (220) 
0.303497

>  <r_i_glide_esite>  (220) 
0

>  <r_i_glide_emodel>  (220) 
-22.0346

>  <r_i_glide_energy>  (220) 
-21.9928

>  <r_i_glide_einternal>  (220) 
1.34141

>  <r_i_glide_intrahb_reward>  (220) 
-0

>  <i_i_glide_confnum>  (220) 
1

>  <i_i_glide_posenum>  (220) 
16

>  <r_i_glide_eff_state_penalty>  (220) 
0

>  <ligand_id>  (220) 
71

>  <original_smiles>  (220) 
CC(C)=CC=CC(C)C1(C)CC(=O)C(C)=C2C3C4=COC=C3C1(C=C4)C(C)CC1C2C1(C)C

>  <smiles>  (220) 
[H]C1=C2C([H])=C([H])C34C(=C([H])O1)C2([H])C(=C(C([H])([H])[H])C(=O)C([H])([H])C3(C([H])([H])[H])C([H])(C([H])=C([H])C([H])=C(C([H])([H])[H])C([H])([H])[H])C([H])([H])[H])C1([H])C([H])(C([H])([H])C4([H])C([H])([H])[H])C1(C([H])([H])[H])C([H])([H])[H]

$$$$
71:6:0
     RDKit          3D

 73 77  0  0  1  0  0  0  0  0999 V2000
    1.2310    3.2120    5.0964 C   0  0  0  0  0  0  0  0  0  0  0  0
    1.8767    3.5088    3.7551 C   0  0  0  0  0  0  0  0  0  0  0  0
    1.6237    4.9223    3.2539 C   0  0  0  0  0  0  0  0  0  0  0  0
    2.6125    2.6298    3.0486 C   0  0  0  0  0  0  0  0  0  0  0  0
    2.9146    1.2527    3.4219 C   0  0  0  0  0  0  0  0  0  0  0  0
    3.7588    0.4838    2.7066 C   0  0  0  0  0  0  0  0  0  0  0  0
    4.1302   -0.9585    2.9969 C   0  0  2  0  0  0  0  0  0  0  0  0
    5.3856   -0.8454    3.8891 C   0  0  0  0  0  0  0  0  0  0  0  0
    4.2322   -1.9288    1.7171 C   0  0  1  0  0  0  0  0  0  0  0  0
    3.3195   -1.2599    0.6218 C   0  0  0  0  0  0  0  0  0  0  0  0
    5.7150   -1.8380    1.0700 C   0  0  0  0  0  0  0  0  0  0  0  0
    6.5464   -3.0674    0.5346 C   0  0  0  0  0  0  0  0  0  0  0  0
    7.7410   -3.1108    0.8210 O   0  0  0  0  0  0  0  0  0  0  0  0
    5.9326   -4.1028   -0.3169 C   0  0  0  0  0  0  0  0  0  0  0  0
    5.3668   -3.4922   -1.5997 C   0  0  0  0  0  0  0  0  0  0  0  0
    5.4493   -5.2217    0.3292 C   0  0  0  0  0  0  0  0  0  0  0  0
    3.9280   -5.4332    0.3100 C   0  0  1  0  0  0  0  0  0  0  0  0
    2.7516   -6.0338    1.1955 C   0  0  0  0  0  0  0  0  0  0  0  0
    1.6848   -6.1068    0.3586 C   0  0  0  0  0  0  0  0  0  0  0  0
    1.5721   -5.0331   -0.5315 O   0  0  0  0  0  0  0  0  0  0  0  0
    2.2569   -3.8850   -0.1366 C   0  0  0  0  0  0  0  0  0  0  0  0
    3.4309   -4.0718    0.5513 C   0  0  0  0  0  0  0  0  0  0  0  0
    3.8220   -3.4912    1.9911 C   0  0  2  0  0  0  0  0  0  0  0  0
    2.5769   -4.0586    2.7002 C   0  0  0  0  0  0  0  0  0  0  0  0
    2.2241   -5.3575    2.4322 C   0  0  0  0  0  0  0  0  0  0  0  0
    4.8854   -4.1676    3.0800 C   0  0  1  0  0  0  0  0  0  0  0  0
    4.5834   -3.8337    4.5843 C   0  0  0  0  0  0  0  0  0  0  0  0
    5.1712   -5.7152    3.2392 C   0  0  0  0  0  0  0  0  0  0  0  0
    6.3781   -6.2384    2.5263 C   0  0  2  0  0  0  0  0  0  0  0  0
    6.4579   -6.0613    1.0594 C   0  0  1  0  0  0  0  0  0  0  0  0
    6.3753   -7.4702    1.6247 C   0  0  0  0  0  0  0  0  0  0  0  0
    7.6417   -8.3084    1.6207 C   0  0  0  0  0  0  0  0  0  0  0  0
    5.1956   -8.4048    1.4599 C   0  0  0  0  0  0  0  0  0  0  0  0
    1.6009    3.9118    5.8435 H   0  0  0  0  0  0  0  0  0  0  0  0
    1.4298    2.2085    5.4624 H   0  0  0  0  0  0  0  0  0  0  0  0
    0.1517    3.3289    5.0180 H   0  0  0  0  0  0  0  0  0  0  0  0
    2.0071    5.6557    3.9612 H   0  0  0  0  0  0  0  0  0  0  0  0
    0.5550    5.0954    3.1306 H   0  0  0  0  0  0  0  0  0  0  0  0
    2.0971    5.1030    2.2883 H   0  0  0  0  0  0  0  0  0  0  0  0
    3.0172    2.9857    2.1109 H   0  0  0  0  0  0  0  0  0  0  0  0
    2.4522    0.8184    4.2985 H   0  0  0  0  0  0  0  0  0  0  0  0
    4.2449    0.8997    1.8520 H   0  0  0  0  0  0  0  0  0  0  0  0
    3.2897   -1.3208    3.5917 H   0  0  0  0  0  0  0  0  0  0  0  0
    5.1449   -0.4741    4.8837 H   0  0  0  0  0  0  0  0  0  0  0  0
    6.1452   -0.1636    3.4937 H   0  0  0  0  0  0  0  0  0  0  0  0
    5.8276   -1.8151    4.0265 H   0  0  0  0  0  0  0  0  0  0  0  0
    3.3759   -1.7247   -0.3604 H   0  0  0  0  0  0  0  0  0  0  0  0
    3.5870   -0.2394    0.3561 H   0  0  0  0  0  0  0  0  0  0  0  0
    2.2722   -1.2304    0.9294 H   0  0  0  0  0  0  0  0  0  0  0  0
    5.7052   -1.0789    0.2818 H   0  0  0  0  0  0  0  0  0  0  0  0
    6.4006   -1.4075    1.7960 H   0  0  0  0  0  0  0  0  0  0  0  0
    6.1219   -3.5986   -2.3798 H   0  0  0  0  0  0  0  0  0  0  0  0
    5.1536   -2.4261   -1.5160 H   0  0  0  0  0  0  0  0  0  0  0  0
    4.4718   -3.9943   -1.9563 H   0  0  0  0  0  0  0  0  0  0  0  0
    3.7898   -5.7626   -0.7225 H   0  0  0  0  0  0  0  0  0  0  0  0
    0.6995   -6.2818    0.7554 H   0  0  0  0  0  0  0  0  0  0  0  0
    1.6001   -3.0629    0.0318 H   0  0  0  0  0  0  0  0  0  0  0  0
    2.1522   -3.5088    3.5277 H   0  0  0  0  0  0  0  0  0  0  0  0
    1.4560   -5.8440    3.0162 H   0  0  0  0  0  0  0  0  0  0  0  0
    5.8577   -3.7302    2.9141 H   0  0  0  0  0  0  0  0  0  0  0  0
    3.9072   -4.5651    5.0431 H   0  0  0  0  0  0  0  0  0  0  0  0
    4.1429   -2.8653    4.7884 H   0  0  0  0  0  0  0  0  0  0  0  0
    5.5083   -3.8919    5.1626 H   0  0  0  0  0  0  0  0  0  0  0  0
    5.4186   -5.9646    4.2729 H   0  0  0  0  0  0  0  0  0  0  0  0
    4.3355   -6.3724    3.0744 H   0  0  0  0  0  0  0  0  0  0  0  0
    7.3044   -6.0504    3.0646 H   0  0  0  0  0  0  0  0  0  0  0  0
    7.4373   -5.8307    0.6736 H   0  0  0  0  0  0  0  0  0  0  0  0
    7.7379   -8.8489    0.6775 H   0  0  0  0  0  0  0  0  0  0  0  0
    7.6135   -9.0251    2.4448 H   0  0  0  0  0  0  0  0  0  0  0  0
    8.5278   -7.6935    1.7410 H   0  0  0  0  0  0  0  0  0  0  0  0
    5.2152   -8.8839    0.4787 H   0  0  0  0  0  0  0  0  0  0  0  0
    4.2509   -7.8971    1.5600 H   0  0  0  0  0  0  0  0  0  0  0  0
    5.2181   -9.1863    2.2217 H   0  0  0  0  0  0  0  0  0  0  0  0
  1  2  1  0
  1 34  1  0
  1 35  1  0
  1 36  1  0
  2  3  1  0
  2  4  2  3
  3 37  1  0
  3 38  1  0
  3 39  1  0
  4  5  1  0
  4 40  1  0
  5  6  2  3
  5 41  1  0
  6  7  1  0
  6 42  1  0
  7  8  1  0
  7  9  1  0
  7 43  1  1
  8 44  1  0
  8 45  1  0
  8 46  1  0
  9 23  1  0
  9 10  1  6
  9 11  1  0
 10 47  1  0
 10 48  1  0
 10 49  1  0
 11 12  1  0
 11 50  1  0
 11 51  1  0
 12 13  2  0
 12 14  1  0
 14 15  1  0
 14 16  2  3
 15 52  1  0
 15 53  1  0
 15 54  1  0
 16 30  1  0
 16 17  1  0
 17 22  1  0
 17 18  1  0
 17 55  1  6
 18 25  1  0
 18 19  2  0
 19 20  1  0
 19 56  1  0
 20 21  1  0
 21 22  2  0
 21 57  1  0
 22 23  1  0
 23 24  1  1
 23 26  1  0
 24 25  2  0
 24 58  1  0
 25 59  1  0
 26 27  1  0
 26 28  1  0
 26 60  1  6
 27 61  1  0
 27 62  1  0
 27 63  1  0
 28 29  1  0
 28 64  1  0
 28 65  1  0
 29 31  1  0
 29 30  1  0
 29 66  1  1
 30 31  1  0
 30 67  1  1
 31 32  1  0
 31 33  1  0
 32 68  1  0
 32 69  1  0
 32 70  1  0
 33 71  1  0
 33 72  1  0
 33 73  1  0
M  END
>  <i_m_ct_stereo_status>  (221) 
1

>  <s_m_source_file>  (221) 
/var/tmp/pbs.5076255.sched01/tmpelb551ou/82hj6rxffr.sdf

>  <i_m_source_file_index>  (221) 
13

>  <i_lp_mmshare_version>  (221) 
48012

>  <i_f3d_flags>  (221) 
0

>  <s_epik_input>  (221) 
W0NIM11DKFtDSDNdKT1bQ0hdL1tDSF09W0NIXS9bQ0BIXShbQ0gzXSlbQ0BAXTEoW0NIM10pW0NIMl1DKD1PKS9DKFtDSDNdKT1DKFxbQ0hdKEMyW0NAQF0xMzQpQyhbQ0hdPVtDSF0zKT1bQ0hdT1tDSF09MilbQ0BIXTVbQ0BIXShDNShbQ0gzXSlbQ0gzXSlbQ0gyXVtDQEBIXTRbQ0gzXQ==

>  <s_epik_cmdline>  (221) 
J2VwaWtfcHl0aG9uJywgJy1waHQnLCAnMi4wJywgJy1waCcsICc3LjAnLCAnLXRuJywgJzgnLCAnLW1hJywgJzIwMCcsICctaW1hZScsICc8aW5maWxlLm1hZT4nLCAnLW9tYWUnLCAnPG91dGZpbGUubWFlPic=

>  <r_lp_tautomer_probability>  (221) 
1

>  <r_epik_Ionization_Penalty>  (221) 
0

>  <r_epik_Ionization_Penalty_Charging>  (221) 
0

>  <r_epik_Ionization_Penalty_Neutral>  (221) 
0

>  <r_epik_State_Penalty>  (221) 
-0

>  <r_epik_Charging_Adjusted_Penalty>  (221) 
0

>  <i_epik_Tot_Q>  (221) 
0

>  <i_epik_Tot_abs_Q>  (221) 
0

>  <s_lp_Force_Field>  (221) 
OPLS3e

>  <r_lp_Energy>  (221) 
308.612

>  <b_lp_Chiralities_Consistent>  (221) 
1

>  <s_lp_Variant>  (221) 
71:0-7

>  <s_i_glide_gridfile>  (221) 
pfpi4k_grid

>  <i_i_glide_lignum>  (221) 
13

>  <i_i_glide_rotatable_bonds>  (221) 
3

>  <r_i_docking_score>  (221) 
-2.08715

>  <r_i_glide_ligand_efficiency>  (221) 
-0.0632469

>  <r_i_glide_ligand_efficiency_sa>  (221) 
-0.202867

>  <r_i_glide_ligand_efficiency_ln>  (221) 
-0.464171

>  <r_i_glide_gscore>  (221) 
-2.08715

>  <r_i_glide_lipo>  (221) 
-0.727768

>  <r_i_glide_hbond>  (221) 
-0.052463

>  <r_i_glide_metal>  (221) 
-0

>  <r_i_glide_rewards>  (221) 
-0.502892

>  <r_i_glide_evdw>  (221) 
-21.3718

>  <r_i_glide_ecoul>  (221) 
-0.259539

>  <r_i_glide_erotb>  (221) 
0.303497

>  <r_i_glide_esite>  (221) 
0

>  <r_i_glide_emodel>  (221) 
-20.0599

>  <r_i_glide_energy>  (221) 
-21.6314

>  <r_i_glide_einternal>  (221) 
6.67405

>  <r_i_glide_intrahb_reward>  (221) 
-0

>  <i_i_glide_confnum>  (221) 
5

>  <i_i_glide_posenum>  (221) 
16

>  <r_i_glide_eff_state_penalty>  (221) 
0

>  <ligand_id>  (221) 
71

>  <original_smiles>  (221) 
CC(C)=CC=CC(C)C1(C)CC(=O)C(C)=C2C3C4=COC=C3C1(C=C4)C(C)CC1C2C1(C)C

>  <smiles>  (221) 
[H]C1=C2C([H])=C([H])C34C(=C([H])O1)C2([H])C(=C(C([H])([H])[H])C(=O)C([H])([H])C3(C([H])([H])[H])C([H])(C([H])=C([H])C([H])=C(C([H])([H])[H])C([H])([H])[H])C([H])([H])[H])C1([H])C([H])(C([H])([H])C4([H])C([H])([H])[H])C1(C([H])([H])[H])C([H])([H])[H]

$$$$
71:6:1
     RDKit          3D

 73 77  0  0  1  0  0  0  0  0999 V2000
    0.7906   -9.0608    2.8112 C   0  0  0  0  0  0  0  0  0  0  0  0
   -0.5346   -8.3780    3.1109 C   0  0  0  0  0  0  0  0  0  0  0  0
   -1.6494   -8.7792    2.1676 C   0  0  0  0  0  0  0  0  0  0  0  0
   -0.7547   -7.4914    4.1105 C   0  0  0  0  0  0  0  0  0  0  0  0
    0.2317   -7.0436    5.0762 C   0  0  0  0  0  0  0  0  0  0  0  0
   -0.0430   -6.1553    6.0515 C   0  0  0  0  0  0  0  0  0  0  0  0
    0.9545   -5.6311    7.0911 C   0  0  2  0  0  0  0  0  0  0  0  0
    0.7433   -6.4517    8.3890 C   0  0  0  0  0  0  0  0  0  0  0  0
    0.9562   -4.0498    7.2463 C   0  0  1  0  0  0  0  0  0  0  0  0
   -0.4569   -3.7371    7.8485 C   0  0  0  0  0  0  0  0  0  0  0  0
    1.9888   -3.6818    8.4303 C   0  0  0  0  0  0  0  0  0  0  0  0
    2.9960   -2.4690    8.4438 C   0  0  0  0  0  0  0  0  0  0  0  0
    4.1263   -2.6830    8.8741 O   0  0  0  0  0  0  0  0  0  0  0  0
    2.5852   -1.1173    7.9846 C   0  0  0  0  0  0  0  0  0  0  0  0
    1.4198   -0.5810    8.8162 C   0  0  0  0  0  0  0  0  0  0  0  0
    2.8379   -0.8224    6.6671 C   0  0  0  0  0  0  0  0  0  0  0  0
    1.5919   -0.6444    5.7581 C   0  0  1  0  0  0  0  0  0  0  0  0
    1.1480   -0.8579    4.2572 C   0  0  0  0  0  0  0  0  0  0  0  0
   -0.0294   -0.1869    4.1431 C   0  0  0  0  0  0  0  0  0  0  0  0
   -0.8643   -0.2800    5.2630 O   0  0  0  0  0  0  0  0  0  0  0  0
   -0.5986   -1.3811    6.0772 C   0  0  0  0  0  0  0  0  0  0  0  0
    0.7206   -1.7498    6.1955 C   0  0  0  0  0  0  0  0  0  0  0  0
    1.3330   -3.1948    5.9083 C   0  0  2  0  0  0  0  0  0  0  0  0
    0.7634   -3.3064    4.4866 C   0  0  0  0  0  0  0  0  0  0  0  0
    0.8762   -2.2135    3.6612 C   0  0  0  0  0  0  0  0  0  0  0  0
    2.9003   -3.5508    5.4486 C   0  0  1  0  0  0  0  0  0  0  0  0
    3.0638   -4.8878    4.6569 C   0  0  0  0  0  0  0  0  0  0  0  0
    3.8024   -2.6262    4.5288 C   0  0  0  0  0  0  0  0  0  0  0  0
    4.7943   -1.7607    5.2407 C   0  0  2  0  0  0  0  0  0  0  0  0
    4.2776   -0.8010    6.2411 C   0  0  1  0  0  0  0  0  0  0  0  0
    4.9774   -0.2602    4.9986 C   0  0  0  0  0  0  0  0  0  0  0  0
    6.3899    0.2910    5.1344 C   0  0  0  0  0  0  0  0  0  0  0  0
    4.2784    0.5063    3.8961 C   0  0  0  0  0  0  0  0  0  0  0  0
    0.6667  -10.1432    2.8624 H   0  0  0  0  0  0  0  0  0  0  0  0
    1.5977   -8.7974    3.4904 H   0  0  0  0  0  0  0  0  0  0  0  0
    1.1213   -8.8182    1.7999 H   0  0  0  0  0  0  0  0  0  0  0  0
   -1.8188   -9.8553    2.2226 H   0  0  0  0  0  0  0  0  0  0  0  0
   -1.3815   -8.5295    1.1439 H   0  0  0  0  0  0  0  0  0  0  0  0
   -2.5847   -8.2725    2.4073 H   0  0  0  0  0  0  0  0  0  0  0  0
   -1.7528   -7.0883    4.1980 H   0  0  0  0  0  0  0  0  0  0  0  0
    1.2336   -7.4321    5.0254 H   0  0  0  0  0  0  0  0  0  0  0  0
   -1.0534   -5.7862    6.1208 H   0  0  0  0  0  0  0  0  0  0  0  0
    1.9660   -5.9294    6.8397 H   0  0  0  0  0  0  0  0  0  0  0  0
    1.0527   -7.4836    8.2123 H   0  0  0  0  0  0  0  0  0  0  0  0
   -0.2976   -6.4911    8.7068 H   0  0  0  0  0  0  0  0  0  0  0  0
    1.3398   -6.1017    9.2306 H   0  0  0  0  0  0  0  0  0  0  0  0
   -0.5458   -2.7276    8.2393 H   0  0  0  0  0  0  0  0  0  0  0  0
   -0.6860   -4.3509    8.7164 H   0  0  0  0  0  0  0  0  0  0  0  0
   -1.2686   -3.9040    7.1407 H   0  0  0  0  0  0  0  0  0  0  0  0
    1.4375   -3.6273    9.3710 H   0  0  0  0  0  0  0  0  0  0  0  0
    2.6443   -4.5453    8.5592 H   0  0  0  0  0  0  0  0  0  0  0  0
    1.8373    0.0547    9.5959 H   0  0  0  0  0  0  0  0  0  0  0  0
    0.8459   -1.3580    9.3202 H   0  0  0  0  0  0  0  0  0  0  0  0
    0.7349    0.0396    8.2448 H   0  0  0  0  0  0  0  0  0  0  0  0
    1.2457    0.3489    6.0649 H   0  0  0  0  0  0  0  0  0  0  0  0
   -0.6576   -0.3479    3.2841 H   0  0  0  0  0  0  0  0  0  0  0  0
   -1.4174   -2.0725    6.0485 H   0  0  0  0  0  0  0  0  0  0  0  0
    0.4697   -4.2746    4.1148 H   0  0  0  0  0  0  0  0  0  0  0  0
    0.6176   -2.2927    2.6170 H   0  0  0  0  0  0  0  0  0  0  0  0
    3.4941   -3.7556    6.3280 H   0  0  0  0  0  0  0  0  0  0  0  0
    2.8795   -4.7544    3.5869 H   0  0  0  0  0  0  0  0  0  0  0  0
    2.4263   -5.6986    4.9405 H   0  0  0  0  0  0  0  0  0  0  0  0
    4.0871   -5.2583    4.7549 H   0  0  0  0  0  0  0  0  0  0  0  0
    4.4585   -3.2282    3.8973 H   0  0  0  0  0  0  0  0  0  0  0  0
    3.2861   -2.0550    3.7785 H   0  0  0  0  0  0  0  0  0  0  0  0
    5.6898   -2.3072    5.5358 H   0  0  0  0  0  0  0  0  0  0  0  0
    4.8912   -0.7021    7.1308 H   0  0  0  0  0  0  0  0  0  0  0  0
    6.3715    1.3498    5.3876 H   0  0  0  0  0  0  0  0  0  0  0  0
    6.9349    0.1739    4.1963 H   0  0  0  0  0  0  0  0  0  0  0  0
    6.9411   -0.2354    5.9123 H   0  0  0  0  0  0  0  0  0  0  0  0
    4.1473    1.5521    4.1801 H   0  0  0  0  0  0  0  0  0  0  0  0
    3.3067    0.0976    3.6643 H   0  0  0  0  0  0  0  0  0  0  0  0
    4.8676    0.4636    2.9781 H   0  0  0  0  0  0  0  0  0  0  0  0
  1  2  1  0
  1 34  1  0
  1 35  1  0
  1 36  1  0
  2  3  1  0
  2  4  2  3
  3 37  1  0
  3 38  1  0
  3 39  1  0
  4  5  1  0
  4 40  1  0
  5  6  2  3
  5 41  1  0
  6  7  1  0
  6 42  1  0
  7  8  1  0
  7  9  1  0
  7 43  1  6
  8 44  1  0
  8 45  1  0
  8 46  1  0
  9 23  1  0
  9 10  1  1
  9 11  1  0
 10 47  1  0
 10 48  1  0
 10 49  1  0
 11 12  1  0
 11 50  1  0
 11 51  1  0
 12 13  2  0
 12 14  1  0
 14 15  1  0
 14 16  2  3
 15 52  1  0
 15 53  1  0
 15 54  1  0
 16 30  1  0
 16 17  1  0
 17 22  1  0
 17 18  1  0
 17 55  1  1
 18 25  1  0
 18 19  2  0
 19 20  1  0
 19 56  1  0
 20 21  1  0
 21 22  2  0
 21 57  1  0
 22 23  1  0
 23 24  1  6
 23 26  1  0
 24 25  2  0
 24 58  1  0
 25 59  1  0
 26 27  1  0
 26 28  1  0
 26 60  1  1
 27 61  1  0
 27 62  1  0
 27 63  1  0
 28 29  1  0
 28 64  1  0
 28 65  1  0
 29 31  1  0
 29 30  1  0
 29 66  1  1
 30 31  1  0
 30 67  1  1
 31 32  1  0
 31 33  1  0
 32 68  1  0
 32 69  1  0
 32 70  1  0
 33 71  1  0
 33 72  1  0
 33 73  1  0
M  END
>  <i_m_ct_stereo_status>  (222) 
1

>  <s_m_source_file>  (222) 
/var/tmp/pbs.5076255.sched01/tmpelb551ou/82hj6rxffr.sdf

>  <i_m_source_file_index>  (222) 
13

>  <i_lp_mmshare_version>  (222) 
48012

>  <i_f3d_flags>  (222) 
0

>  <s_epik_input>  (222) 
W0NIM11DKFtDSDNdKT1bQ0hdL1tDSF09W0NIXS9bQ0BIXShbQ0gzXSlbQ0BAXTEoW0NIM10pW0NIMl1DKD1PKS9DKFtDSDNdKT1DKFxbQ0hdKEMyW0NAQF0xMzQpQyhbQ0hdPVtDSF0zKT1bQ0hdT1tDSF09MilbQ0BIXTVbQ0BIXShDNShbQ0gzXSlbQ0gzXSlbQ0gyXVtDQEBIXTRbQ0gzXQ==

>  <s_epik_cmdline>  (222) 
J2VwaWtfcHl0aG9uJywgJy1waHQnLCAnMi4wJywgJy1waCcsICc3LjAnLCAnLXRuJywgJzgnLCAnLW1hJywgJzIwMCcsICctaW1hZScsICc8aW5maWxlLm1hZT4nLCAnLW9tYWUnLCAnPG91dGZpbGUubWFlPic=

>  <r_lp_tautomer_probability>  (222) 
1

>  <r_epik_Ionization_Penalty>  (222) 
0

>  <r_epik_Ionization_Penalty_Charging>  (222) 
0

>  <r_epik_Ionization_Penalty_Neutral>  (222) 
0

>  <r_epik_State_Penalty>  (222) 
-0

>  <r_epik_Charging_Adjusted_Penalty>  (222) 
0

>  <i_epik_Tot_Q>  (222) 
0

>  <i_epik_Tot_abs_Q>  (222) 
0

>  <s_lp_Force_Field>  (222) 
OPLS3e

>  <r_lp_Energy>  (222) 
308.612

>  <b_lp_Chiralities_Consistent>  (222) 
1

>  <s_lp_Variant>  (222) 
71:0-7

>  <s_i_glide_gridfile>  (222) 
pfpi4k_grid

>  <i_i_glide_lignum>  (222) 
13

>  <i_i_glide_rotatable_bonds>  (222) 
3

>  <r_i_docking_score>  (222) 
-1.53187

>  <r_i_glide_ligand_efficiency>  (222) 
-0.0464202

>  <r_i_glide_ligand_efficiency_sa>  (222) 
-0.148894

>  <r_i_glide_ligand_efficiency_ln>  (222) 
-0.340679

>  <r_i_glide_gscore>  (222) 
-1.53187

>  <r_i_glide_lipo>  (222) 
-0.428071

>  <r_i_glide_hbond>  (222) 
0

>  <r_i_glide_metal>  (222) 
-0

>  <r_i_glide_rewards>  (222) 
-0.377399

>  <r_i_glide_evdw>  (222) 
-19.7581

>  <r_i_glide_ecoul>  (222) 
-0.279942

>  <r_i_glide_erotb>  (222) 
0.303497

>  <r_i_glide_esite>  (222) 
0

>  <r_i_glide_emodel>  (222) 
-21.228

>  <r_i_glide_energy>  (222) 
-20.038

>  <r_i_glide_einternal>  (222) 
0.625251

>  <r_i_glide_intrahb_reward>  (222) 
-0

>  <i_i_glide_confnum>  (222) 
5

>  <i_i_glide_posenum>  (222) 
1

>  <r_i_glide_eff_state_penalty>  (222) 
0

>  <ligand_id>  (222) 
71

>  <original_smiles>  (222) 
CC(C)=CC=CC(C)C1(C)CC(=O)C(C)=C2C3C4=COC=C3C1(C=C4)C(C)CC1C2C1(C)C

>  <smiles>  (222) 
[H]C1=C2C([H])=C([H])C34C(=C([H])O1)C2([H])C(=C(C([H])([H])[H])C(=O)C([H])([H])C3(C([H])([H])[H])C([H])(C([H])=C([H])C([H])=C(C([H])([H])[H])C([H])([H])[H])C([H])([H])[H])C1([H])C([H])(C([H])([H])C4([H])C([H])([H])[H])C1(C([H])([H])[H])C([H])([H])[H]

$$$$
71:6:2
     RDKit          3D

 73 77  0  0  1  0  0  0  0  0999 V2000
    0.7513   -0.5978    8.2100 C   0  0  0  0  0  0  0  0  0  0  0  0
    0.3960   -0.5034    6.7333 C   0  0  0  0  0  0  0  0  0  0  0  0
   -0.7507    0.4510    6.4387 C   0  0  0  0  0  0  0  0  0  0  0  0
    1.0233   -1.1745    5.7456 C   0  0  0  0  0  0  0  0  0  0  0  0
    2.1284   -2.1130    5.8985 C   0  0  0  0  0  0  0  0  0  0  0  0
    2.7780   -2.6412    4.8474 C   0  0  0  0  0  0  0  0  0  0  0  0
    3.9648   -3.6126    4.9292 C   0  0  2  0  0  0  0  0  0  0  0  0
    5.2514   -2.7624    5.1051 C   0  0  0  0  0  0  0  0  0  0  0  0
    3.9861   -4.7081    3.7791 C   0  0  1  0  0  0  0  0  0  0  0  0
    4.1935   -3.8687    2.4696 C   0  0  0  0  0  0  0  0  0  0  0  0
    5.3523   -5.5460    3.9339 C   0  0  0  0  0  0  0  0  0  0  0  0
    5.5204   -7.1053    3.7469 C   0  0  0  0  0  0  0  0  0  0  0  0
    6.2368   -7.6869    4.5531 O   0  0  0  0  0  0  0  0  0  0  0  0
    4.8593   -7.8224    2.6242 C   0  0  0  0  0  0  0  0  0  0  0  0
    5.3305   -7.2810    1.2750 C   0  0  0  0  0  0  0  0  0  0  0  0
    3.6292   -8.3600    2.8930 C   0  0  0  0  0  0  0  0  0  0  0  0
    2.4235   -7.7280    2.1501 C   0  0  1  0  0  0  0  0  0  0  0  0
    0.8833   -7.4525    2.3602 C   0  0  0  0  0  0  0  0  0  0  0  0
    0.4163   -7.1139    1.1339 C   0  0  0  0  0  0  0  0  0  0  0  0
    1.2723   -6.2894    0.3899 O   0  0  0  0  0  0  0  0  0  0  0  0
    2.2452   -5.6296    1.1372 C   0  0  0  0  0  0  0  0  0  0  0  0
    2.7196   -6.2866    2.2447 C   0  0  0  0  0  0  0  0  0  0  0  0
    2.7181   -5.7323    3.7403 C   0  0  2  0  0  0  0  0  0  0  0  0
    1.2111   -5.4300    3.7708 C   0  0  0  0  0  0  0  0  0  0  0  0
    0.3573   -6.3830    3.2814 C   0  0  0  0  0  0  0  0  0  0  0  0
    2.6933   -6.6236    5.1532 C   0  0  1  0  0  0  0  0  0  0  0  0
    2.0708   -5.8802    6.3849 C   0  0  0  0  0  0  0  0  0  0  0  0
    1.9615   -8.0245    5.3187 C   0  0  0  0  0  0  0  0  0  0  0  0
    2.8262   -9.2422    5.2015 C   0  0  2  0  0  0  0  0  0  0  0  0
    3.5802   -9.4353    3.9429 C   0  0  1  0  0  0  0  0  0  0  0  0
    2.5163  -10.4568    4.3207 C   0  0  0  0  0  0  0  0  0  0  0  0
    2.9664  -11.8166    4.8378 C   0  0  0  0  0  0  0  0  0  0  0  0
    1.2109  -10.6489    3.5766 C   0  0  0  0  0  0  0  0  0  0  0  0
    1.0155    0.3908    8.5884 H   0  0  0  0  0  0  0  0  0  0  0  0
    1.5955   -1.2541    8.4171 H   0  0  0  0  0  0  0  0  0  0  0  0
   -0.0994   -0.9562    8.7871 H   0  0  0  0  0  0  0  0  0  0  0  0
   -0.4983    1.4571    6.7768 H   0  0  0  0  0  0  0  0  0  0  0  0
   -1.6585    0.1466    6.9506 H   0  0  0  0  0  0  0  0  0  0  0  0
   -0.9731    0.4996    5.3720 H   0  0  0  0  0  0  0  0  0  0  0  0
    0.6711   -0.9938    4.7374 H   0  0  0  0  0  0  0  0  0  0  0  0
    2.4617   -2.4070    6.8793 H   0  0  0  0  0  0  0  0  0  0  0  0
    2.4488   -2.3399    3.8646 H   0  0  0  0  0  0  0  0  0  0  0  0
    3.9654   -4.1368    5.8791 H   0  0  0  0  0  0  0  0  0  0  0  0
    5.2186   -2.2740    6.0796 H   0  0  0  0  0  0  0  0  0  0  0  0
    5.3570   -1.9700    4.3634 H   0  0  0  0  0  0  0  0  0  0  0  0
    6.1691   -3.3489    5.1095 H   0  0  0  0  0  0  0  0  0  0  0  0
    4.4735   -4.4659    1.6030 H   0  0  0  0  0  0  0  0  0  0  0  0
    5.0163   -3.1633    2.5620 H   0  0  0  0  0  0  0  0  0  0  0  0
    3.3223   -3.2754    2.1935 H   0  0  0  0  0  0  0  0  0  0  0  0
    6.1189   -5.0817    3.3113 H   0  0  0  0  0  0  0  0  0  0  0  0
    5.7036   -5.3951    4.9558 H   0  0  0  0  0  0  0  0  0  0  0  0
    6.1352   -7.9268    0.9283 H   0  0  0  0  0  0  0  0  0  0  0  0
    5.7350   -6.2705    1.3225 H   0  0  0  0  0  0  0  0  0  0  0  0
    4.5577   -7.3059    0.5120 H   0  0  0  0  0  0  0  0  0  0  0  0
    2.5473   -8.1440    1.1454 H   0  0  0  0  0  0  0  0  0  0  0  0
   -0.5693   -6.6947    1.0263 H   0  0  0  0  0  0  0  0  0  0  0  0
    2.1105   -4.5697    1.0700 H   0  0  0  0  0  0  0  0  0  0  0  0
    0.8649   -4.5893    4.3511 H   0  0  0  0  0  0  0  0  0  0  0  0
   -0.7068   -6.2917    3.4349 H   0  0  0  0  0  0  0  0  0  0  0  0
    3.7057   -6.7928    5.4875 H   0  0  0  0  0  0  0  0  0  0  0  0
    0.9860   -6.0131    6.4236 H   0  0  0  0  0  0  0  0  0  0  0  0
    2.2101   -4.8123    6.4630 H   0  0  0  0  0  0  0  0  0  0  0  0
    2.4623   -6.3178    7.3080 H   0  0  0  0  0  0  0  0  0  0  0  0
    1.5683   -8.1349    6.3332 H   0  0  0  0  0  0  0  0  0  0  0  0
    1.0625   -8.1629    4.7458 H   0  0  0  0  0  0  0  0  0  0  0  0
    3.3760   -9.4538    6.1195 H   0  0  0  0  0  0  0  0  0  0  0  0
    4.5813   -9.8226    4.0743 H   0  0  0  0  0  0  0  0  0  0  0  0
    3.1139  -12.5207    4.0195 H   0  0  0  0  0  0  0  0  0  0  0  0
    2.2123  -12.2306    5.5020 H   0  0  0  0  0  0  0  0  0  0  0  0
    3.8903  -11.7390    5.4048 H   0  0  0  0  0  0  0  0  0  0  0  0
    1.3694  -11.2579    2.6855 H   0  0  0  0  0  0  0  0  0  0  0  0
    0.7771   -9.7122    3.2676 H   0  0  0  0  0  0  0  0  0  0  0  0
    0.4809  -11.1499    4.2159 H   0  0  0  0  0  0  0  0  0  0  0  0
  1  2  1  0
  1 34  1  0
  1 35  1  0
  1 36  1  0
  2  3  1  0
  2  4  2  3
  3 37  1  0
  3 38  1  0
  3 39  1  0
  4  5  1  0
  4 40  1  0
  5  6  2  3
  5 41  1  0
  6  7  1  0
  6 42  1  0
  7  8  1  0
  7  9  1  0
  7 43  1  1
  8 44  1  0
  8 45  1  0
  8 46  1  0
  9 23  1  0
  9 10  1  6
  9 11  1  0
 10 47  1  0
 10 48  1  0
 10 49  1  0
 11 12  1  0
 11 50  1  0
 11 51  1  0
 12 13  2  0
 12 14  1  0
 14 15  1  0
 14 16  2  3
 15 52  1  0
 15 53  1  0
 15 54  1  0
 16 30  1  0
 16 17  1  0
 17 22  1  0
 17 18  1  0
 17 55  1  6
 18 25  1  0
 18 19  2  0
 19 20  1  0
 19 56  1  0
 20 21  1  0
 21 22  2  0
 21 57  1  0
 22 23  1  0
 23 24  1  6
 23 26  1  0
 24 25  2  0
 24 58  1  0
 25 59  1  0
 26 27  1  0
 26 28  1  0
 26 60  1  1
 27 61  1  0
 27 62  1  0
 27 63  1  0
 28 29  1  0
 28 64  1  0
 28 65  1  0
 29 31  1  0
 29 30  1  0
 29 66  1  1
 30 31  1  0
 30 67  1  1
 31 32  1  0
 31 33  1  0
 32 68  1  0
 32 69  1  0
 32 70  1  0
 33 71  1  0
 33 72  1  0
 33 73  1  0
M  END
>  <i_m_ct_stereo_status>  (223) 
1

>  <s_m_source_file>  (223) 
/var/tmp/pbs.5076255.sched01/tmpelb551ou/82hj6rxffr.sdf

>  <i_m_source_file_index>  (223) 
13

>  <i_lp_mmshare_version>  (223) 
48012

>  <i_f3d_flags>  (223) 
0

>  <s_epik_input>  (223) 
W0NIM11DKFtDSDNdKT1bQ0hdL1tDSF09W0NIXS9bQ0BIXShbQ0gzXSlbQ0BAXTEoW0NIM10pW0NIMl1DKD1PKS9DKFtDSDNdKT1DKFxbQ0hdKEMyW0NAQF0xMzQpQyhbQ0hdPVtDSF0zKT1bQ0hdT1tDSF09MilbQ0BIXTVbQ0BIXShDNShbQ0gzXSlbQ0gzXSlbQ0gyXVtDQEBIXTRbQ0gzXQ==

>  <s_epik_cmdline>  (223) 
J2VwaWtfcHl0aG9uJywgJy1waHQnLCAnMi4wJywgJy1waCcsICc3LjAnLCAnLXRuJywgJzgnLCAnLW1hJywgJzIwMCcsICctaW1hZScsICc8aW5maWxlLm1hZT4nLCAnLW9tYWUnLCAnPG91dGZpbGUubWFlPic=

>  <r_lp_tautomer_probability>  (223) 
1

>  <r_epik_Ionization_Penalty>  (223) 
0

>  <r_epik_Ionization_Penalty_Charging>  (223) 
0

>  <r_epik_Ionization_Penalty_Neutral>  (223) 
0

>  <r_epik_State_Penalty>  (223) 
-0

>  <r_epik_Charging_Adjusted_Penalty>  (223) 
0

>  <i_epik_Tot_Q>  (223) 
0

>  <i_epik_Tot_abs_Q>  (223) 
0

>  <s_lp_Force_Field>  (223) 
OPLS3e

>  <r_lp_Energy>  (223) 
308.612

>  <b_lp_Chiralities_Consistent>  (223) 
1

>  <s_lp_Variant>  (223) 
71:0-7

>  <s_i_glide_gridfile>  (223) 
pfpi4k_grid

>  <i_i_glide_lignum>  (223) 
13

>  <i_i_glide_rotatable_bonds>  (223) 
3

>  <r_i_docking_score>  (223) 
-1.36647

>  <r_i_glide_ligand_efficiency>  (223) 
-0.0414083

>  <r_i_glide_ligand_efficiency_sa>  (223) 
-0.132819

>  <r_i_glide_ligand_efficiency_ln>  (223) 
-0.303897

>  <r_i_glide_gscore>  (223) 
-1.36647

>  <r_i_glide_lipo>  (223) 
-0.249098

>  <r_i_glide_hbond>  (223) 
-0.157618

>  <r_i_glide_metal>  (223) 
-0

>  <r_i_glide_rewards>  (223) 
-0.377399

>  <r_i_glide_evdw>  (223) 
-18.2176

>  <r_i_glide_ecoul>  (223) 
0.166834

>  <r_i_glide_erotb>  (223) 
0.303497

>  <r_i_glide_esite>  (223) 
0

>  <r_i_glide_emodel>  (223) 
-18.2262

>  <r_i_glide_energy>  (223) 
-18.0508

>  <r_i_glide_einternal>  (223) 
1.98831

>  <r_i_glide_intrahb_reward>  (223) 
-0

>  <i_i_glide_confnum>  (223) 
4

>  <i_i_glide_posenum>  (223) 
17

>  <r_i_glide_eff_state_penalty>  (223) 
0

>  <ligand_id>  (223) 
71

>  <original_smiles>  (223) 
CC(C)=CC=CC(C)C1(C)CC(=O)C(C)=C2C3C4=COC=C3C1(C=C4)C(C)CC1C2C1(C)C

>  <smiles>  (223) 
[H]C1=C2C([H])=C([H])C34C(=C([H])O1)C2([H])C(=C(C([H])([H])[H])C(=O)C([H])([H])C3(C([H])([H])[H])C([H])(C([H])=C([H])C([H])=C(C([H])([H])[H])C([H])([H])[H])C([H])([H])[H])C1([H])C([H])(C([H])([H])C4([H])C([H])([H])[H])C1(C([H])([H])[H])C([H])([H])[H]

$$$$
71:7:0
     RDKit          3D

 73 77  0  0  1  0  0  0  0  0999 V2000
   -0.5779   -2.9822   10.4691 C   0  0  0  0  0  0  0  0  0  0  0  0
   -1.2395   -3.9037    9.4303 C   0  0  0  0  0  0  0  0  0  0  0  0
   -2.6609   -4.2970    9.7179 C   0  0  0  0  0  0  0  0  0  0  0  0
   -0.6712   -4.3617    8.3552 C   0  0  0  0  0  0  0  0  0  0  0  0
    0.6825   -4.1247    7.8496 C   0  0  0  0  0  0  0  0  0  0  0  0
    1.2098   -4.5080    6.6760 C   0  0  0  0  0  0  0  0  0  0  0  0
    0.5709   -5.2716    5.4632 C   0  0  2  0  0  0  0  0  0  0  0  0
   -0.5926   -6.2161    5.8916 C   0  0  0  0  0  0  0  0  0  0  0  0
    1.6153   -5.9997    4.4964 C   0  0  1  0  0  0  0  0  0  0  0  0
    2.0580   -7.2622    5.3208 C   0  0  0  0  0  0  0  0  0  0  0  0
    0.7651   -6.5922    3.2612 C   0  0  0  0  0  0  0  0  0  0  0  0
    1.1924   -6.5759    1.7510 C   0  0  0  0  0  0  0  0  0  0  0  0
    0.3174   -6.3091    0.9162 O   0  0  0  0  0  0  0  0  0  0  0  0
    2.5638   -6.9372    1.3380 C   0  0  0  0  0  0  0  0  0  0  0  0
    2.9182   -8.3644    1.7682 C   0  0  0  0  0  0  0  0  0  0  0  0
    3.4634   -5.9123    1.1756 C   0  0  0  0  0  0  0  0  0  0  0  0
    4.6297   -5.8517    2.2269 C   0  0  1  0  0  0  0  0  0  0  0  0
    5.5847   -4.8129    2.9413 C   0  0  0  0  0  0  0  0  0  0  0  0
    6.5615   -5.5561    3.5251 C   0  0  0  0  0  0  0  0  0  0  0  0
    6.1461   -6.8074    4.0121 O   0  0  0  0  0  0  0  0  0  0  0  0
    4.7816   -6.8806    4.3155 C   0  0  0  0  0  0  0  0  0  0  0  0
    3.9408   -6.1767    3.4891 C   0  0  0  0  0  0  0  0  0  0  0  0
    2.8688   -5.0825    3.9287 C   0  0  2  0  0  0  0  0  0  0  0  0
    3.8970   -4.1786    4.6614 C   0  0  0  0  0  0  0  0  0  0  0  0
    5.0926   -3.9282    4.0546 C   0  0  0  0  0  0  0  0  0  0  0  0
    2.2489   -3.8381    3.0002 C   0  0  1  0  0  0  0  0  0  0  0  0
    1.7033   -2.6353    3.8324 C   0  0  0  0  0  0  0  0  0  0  0  0
    3.0801   -3.0497    1.9013 C   0  0  0  0  0  0  0  0  0  0  0  0
    2.8854   -3.4712    0.4839 C   0  0  2  0  0  0  0  0  0  0  0  0
    3.1597   -4.8801    0.1359 C   0  0  1  0  0  0  0  0  0  0  0  0
    4.0027   -3.7870   -0.5099 C   0  0  0  0  0  0  0  0  0  0  0  0
    3.7562   -3.4225   -1.9741 C   0  0  0  0  0  0  0  0  0  0  0  0
    5.4731   -3.5525   -0.2099 C   0  0  0  0  0  0  0  0  0  0  0  0
   -0.5700   -3.5429   11.4259 H   0  0  0  0  0  0  0  0  0  0  0  0
   -1.1957   -2.0661   10.5472 H   0  0  0  0  0  0  0  0  0  0  0  0
    0.4505   -2.7308   10.1768 H   0  0  0  0  0  0  0  0  0  0  0  0
   -3.3204   -3.4597    9.7691 H   0  0  0  0  0  0  0  0  0  0  0  0
   -2.7019   -4.8459   10.6507 H   0  0  0  0  0  0  0  0  0  0  0  0
   -3.0701   -4.9533    8.9442 H   0  0  0  0  0  0  0  0  0  0  0  0
   -1.3112   -5.0020    7.8429 H   0  0  0  0  0  0  0  0  0  0  0  0
    1.4321   -3.5475    8.4600 H   0  0  0  0  0  0  0  0  0  0  0  0
    2.2308   -4.2623    6.5611 H   0  0  0  0  0  0  0  0  0  0  0  0
    0.0721   -4.5217    4.8389 H   0  0  0  0  0  0  0  0  0  0  0  0
   -1.4693   -5.5865    6.0328 H   0  0  0  0  0  0  0  0  0  0  0  0
   -0.3011   -6.6802    6.8420 H   0  0  0  0  0  0  0  0  0  0  0  0
   -0.8897   -6.9743    5.1909 H   0  0  0  0  0  0  0  0  0  0  0  0
    2.5735   -8.0135    4.7330 H   0  0  0  0  0  0  0  0  0  0  0  0
    1.2280   -7.8487    5.7007 H   0  0  0  0  0  0  0  0  0  0  0  0
    2.6524   -7.0055    6.1960 H   0  0  0  0  0  0  0  0  0  0  0  0
    0.4845   -7.6199    3.4886 H   0  0  0  0  0  0  0  0  0  0  0  0
   -0.1889   -6.0734    3.2682 H   0  0  0  0  0  0  0  0  0  0  0  0
    2.7438   -9.0407    0.9303 H   0  0  0  0  0  0  0  0  0  0  0  0
    2.3081   -8.7312    2.5938 H   0  0  0  0  0  0  0  0  0  0  0  0
    3.9667   -8.4775    2.0440 H   0  0  0  0  0  0  0  0  0  0  0  0
    5.2718   -6.6484    1.8458 H   0  0  0  0  0  0  0  0  0  0  0  0
    7.1833   -5.1184    4.2961 H   0  0  0  0  0  0  0  0  0  0  0  0
    4.6530   -7.0056    5.3829 H   0  0  0  0  0  0  0  0  0  0  0  0
    3.6541   -3.5446    5.4910 H   0  0  0  0  0  0  0  0  0  0  0  0
    5.7362   -3.1992    4.5317 H   0  0  0  0  0  0  0  0  0  0  0  0
    1.3622   -4.1820    2.4962 H   0  0  0  0  0  0  0  0  0  0  0  0
    2.4844   -1.9121    4.0695 H   0  0  0  0  0  0  0  0  0  0  0  0
    1.2348   -2.8572    4.7750 H   0  0  0  0  0  0  0  0  0  0  0  0
    0.9561   -2.0931    3.2565 H   0  0  0  0  0  0  0  0  0  0  0  0
    2.7593   -2.0134    1.8597 H   0  0  0  0  0  0  0  0  0  0  0  0
    4.1318   -2.9224    2.0931 H   0  0  0  0  0  0  0  0  0  0  0  0
    1.9985   -3.0328    0.0156 H   0  0  0  0  0  0  0  0  0  0  0  0
    2.4679   -5.3179   -0.5782 H   0  0  0  0  0  0  0  0  0  0  0  0
    4.3380   -4.0481   -2.6561 H   0  0  0  0  0  0  0  0  0  0  0  0
    4.0038   -2.3740   -2.1677 H   0  0  0  0  0  0  0  0  0  0  0  0
    2.7014   -3.5484   -2.2385 H   0  0  0  0  0  0  0  0  0  0  0  0
    6.1076   -4.2556   -0.7501 H   0  0  0  0  0  0  0  0  0  0  0  0
    5.6958   -3.6595    0.8370 H   0  0  0  0  0  0  0  0  0  0  0  0
    5.7621   -2.5345   -0.4754 H   0  0  0  0  0  0  0  0  0  0  0  0
  1  2  1  0
  1 34  1  0
  1 35  1  0
  1 36  1  0
  2  3  1  0
  2  4  2  3
  3 37  1  0
  3 38  1  0
  3 39  1  0
  4  5  1  0
  4 40  1  0
  5  6  2  3
  5 41  1  0
  6  7  1  0
  6 42  1  0
  7  8  1  0
  7  9  1  0
  7 43  1  6
  8 44  1  0
  8 45  1  0
  8 46  1  0
  9 23  1  0
  9 10  1  1
  9 11  1  0
 10 47  1  0
 10 48  1  0
 10 49  1  0
 11 12  1  0
 11 50  1  0
 11 51  1  0
 12 13  2  0
 12 14  1  0
 14 15  1  0
 14 16  2  3
 15 52  1  0
 15 53  1  0
 15 54  1  0
 16 30  1  0
 16 17  1  0
 17 22  1  0
 17 18  1  0
 17 55  1  6
 18 25  1  0
 18 19  2  0
 19 20  1  0
 19 56  1  0
 20 21  1  0
 21 22  2  0
 21 57  1  0
 22 23  1  0
 23 24  1  1
 23 26  1  0
 24 25  2  0
 24 58  1  0
 25 59  1  0
 26 27  1  0
 26 28  1  0
 26 60  1  6
 27 61  1  0
 27 62  1  0
 27 63  1  0
 28 29  1  0
 28 64  1  0
 28 65  1  0
 29 31  1  0
 29 30  1  0
 29 66  1  6
 30 31  1  0
 30 67  1  6
 31 32  1  0
 31 33  1  0
 32 68  1  0
 32 69  1  0
 32 70  1  0
 33 71  1  0
 33 72  1  0
 33 73  1  0
M  END
>  <i_m_ct_stereo_status>  (224) 
1

>  <s_m_source_file>  (224) 
/var/tmp/pbs.5076255.sched01/tmpelb551ou/82hj6rxffr.sdf

>  <i_m_source_file_index>  (224) 
14

>  <i_lp_mmshare_version>  (224) 
48012

>  <i_f3d_flags>  (224) 
0

>  <s_epik_input>  (224) 
W0NIM11DKFtDSDNdKT1bQ0hdL1tDSF09W0NIXS9bQ0BIXShbQ0gzXSlbQ0BAXTEoW0NIM10pW0NIMl1DKD1PKS9DKFtDSDNdKT1DKFxbQ0hdKEMyW0NAQF0xMzQpQyhbQ0hdPVtDSF0zKT1bQ0hdT1tDSF09MilbQ0BIXTVbQ0BIXShDNShbQ0gzXSlbQ0gzXSlbQ0gyXVtDQEBIXTRbQ0gzXQ==

>  <s_epik_cmdline>  (224) 
J2VwaWtfcHl0aG9uJywgJy1waHQnLCAnMi4wJywgJy1waCcsICc3LjAnLCAnLXRuJywgJzgnLCAnLW1hJywgJzIwMCcsICctaW1hZScsICc8aW5maWxlLm1hZT4nLCAnLW9tYWUnLCAnPG91dGZpbGUubWFlPic=

>  <r_lp_tautomer_probability>  (224) 
1

>  <r_epik_Ionization_Penalty>  (224) 
0

>  <r_epik_Ionization_Penalty_Charging>  (224) 
0

>  <r_epik_Ionization_Penalty_Neutral>  (224) 
0

>  <r_epik_State_Penalty>  (224) 
-0

>  <r_epik_Charging_Adjusted_Penalty>  (224) 
0

>  <i_epik_Tot_Q>  (224) 
0

>  <i_epik_Tot_abs_Q>  (224) 
0

>  <s_lp_Force_Field>  (224) 
OPLS3e

>  <r_lp_Energy>  (224) 
310.109

>  <b_lp_Chiralities_Consistent>  (224) 
1

>  <s_lp_Variant>  (224) 
71:0-8

>  <s_i_glide_gridfile>  (224) 
pfpi4k_grid

>  <i_i_glide_lignum>  (224) 
14

>  <i_i_glide_rotatable_bonds>  (224) 
3

>  <r_i_docking_score>  (224) 
-2.08855

>  <r_i_glide_ligand_efficiency>  (224) 
-0.0632895

>  <r_i_glide_ligand_efficiency_sa>  (224) 
-0.203003

>  <r_i_glide_ligand_efficiency_ln>  (224) 
-0.464483

>  <r_i_glide_gscore>  (224) 
-2.08855

>  <r_i_glide_lipo>  (224) 
-0.145853

>  <r_i_glide_hbond>  (224) 
-0.16

>  <r_i_glide_metal>  (224) 
-0

>  <r_i_glide_rewards>  (224) 
-0.377399

>  <r_i_glide_evdw>  (224) 
-19.4942

>  <r_i_glide_ecoul>  (224) 
-4.49491

>  <r_i_glide_erotb>  (224) 
0.303497

>  <r_i_glide_esite>  (224) 
-0.059849

>  <r_i_glide_emodel>  (224) 
-24.6949

>  <r_i_glide_energy>  (224) 
-23.9892

>  <r_i_glide_einternal>  (224) 
2.14121

>  <r_i_glide_intrahb_reward>  (224) 
-0

>  <i_i_glide_confnum>  (224) 
2

>  <i_i_glide_posenum>  (224) 
2

>  <r_i_glide_eff_state_penalty>  (224) 
0

>  <ligand_id>  (224) 
71

>  <original_smiles>  (224) 
CC(C)=CC=CC(C)C1(C)CC(=O)C(C)=C2C3C4=COC=C3C1(C=C4)C(C)CC1C2C1(C)C

>  <smiles>  (224) 
[H]C1=C2C([H])=C([H])C34C(=C([H])O1)C2([H])C(=C(C([H])([H])[H])C(=O)C([H])([H])C3(C([H])([H])[H])C([H])(C([H])=C([H])C([H])=C(C([H])([H])[H])C([H])([H])[H])C([H])([H])[H])C1([H])C([H])(C([H])([H])C4([H])C([H])([H])[H])C1(C([H])([H])[H])C([H])([H])[H]

$$$$
71:7:1
     RDKit          3D

 73 77  0  0  1  0  0  0  0  0999 V2000
    4.7885   -3.8525   -3.6405 C   0  0  0  0  0  0  0  0  0  0  0  0
    3.8216   -3.3646   -2.5788 C   0  0  0  0  0  0  0  0  0  0  0  0
    2.4903   -2.8868   -3.1289 C   0  0  0  0  0  0  0  0  0  0  0  0
    4.0928   -3.3057   -1.2720 C   0  0  0  0  0  0  0  0  0  0  0  0
    5.2601   -3.8255   -0.5689 C   0  0  0  0  0  0  0  0  0  0  0  0
    5.4052   -3.8793    0.7898 C   0  0  0  0  0  0  0  0  0  0  0  0
    4.4111   -3.4446    1.8674 C   0  0  2  0  0  0  0  0  0  0  0  0
    4.9128   -2.0826    2.4217 C   0  0  0  0  0  0  0  0  0  0  0  0
    4.0730   -4.5567    2.9606 C   0  0  1  0  0  0  0  0  0  0  0  0
    5.3714   -4.6271    3.8459 C   0  0  0  0  0  0  0  0  0  0  0  0
    2.9590   -3.9382    3.9475 C   0  0  0  0  0  0  0  0  0  0  0  0
    1.6981   -4.7002    4.5225 C   0  0  0  0  0  0  0  0  0  0  0  0
    0.6241   -4.1103    4.5219 O   0  0  0  0  0  0  0  0  0  0  0  0
    1.8216   -6.0922    5.0635 C   0  0  0  0  0  0  0  0  0  0  0  0
    2.8084   -6.1401    6.2339 C   0  0  0  0  0  0  0  0  0  0  0  0
    1.5577   -7.1207    4.2073 C   0  0  0  0  0  0  0  0  0  0  0  0
    2.7756   -8.0144    3.7930 C   0  0  1  0  0  0  0  0  0  0  0  0
    3.3119   -8.8650    2.5729 C   0  0  0  0  0  0  0  0  0  0  0  0
    4.3256   -9.6063    3.0861 C   0  0  0  0  0  0  0  0  0  0  0  0
    5.1088   -8.9461    4.0465 O   0  0  0  0  0  0  0  0  0  0  0  0
    5.0602   -7.5530    3.9736 C   0  0  0  0  0  0  0  0  0  0  0  0
    3.8453   -7.0139    3.6092 C   0  0  0  0  0  0  0  0  0  0  0  0
    3.5513   -6.0106    2.4029 C   0  0  2  0  0  0  0  0  0  0  0  0
    4.2004   -6.9075    1.3239 C   0  0  0  0  0  0  0  0  0  0  0  0
    3.8839   -8.2405    1.3232 C   0  0  0  0  0  0  0  0  0  0  0  0
    2.0887   -5.8293    1.6027 C   0  0  1  0  0  0  0  0  0  0  0  0
    2.3123   -5.2814    0.1752 C   0  0  0  0  0  0  0  0  0  0  0  0
    1.0588   -6.9942    1.2813 C   0  0  0  0  0  0  0  0  0  0  0  0
   -0.1154   -7.0541    2.1887 C   0  0  2  0  0  0  0  0  0  0  0  0
    0.1638   -7.2061    3.6353 C   0  0  1  0  0  0  0  0  0  0  0  0
   -0.5892   -8.3076    2.9012 C   0  0  0  0  0  0  0  0  0  0  0  0
   -2.0910   -8.4343    3.0839 C   0  0  0  0  0  0  0  0  0  0  0  0
   -0.0121   -9.6817    2.6083 C   0  0  0  0  0  0  0  0  0  0  0  0
    5.0114   -3.0269   -4.3153 H   0  0  0  0  0  0  0  0  0  0  0  0
    4.3330   -4.6564   -4.2330 H   0  0  0  0  0  0  0  0  0  0  0  0
    5.7165   -4.2266   -3.2235 H   0  0  0  0  0  0  0  0  0  0  0  0
    2.0096   -3.6904   -3.6958 H   0  0  0  0  0  0  0  0  0  0  0  0
    2.5998   -2.0237   -3.7884 H   0  0  0  0  0  0  0  0  0  0  0  0
    1.8001   -2.6272   -2.3313 H   0  0  0  0  0  0  0  0  0  0  0  0
    3.2923   -2.8854   -0.6377 H   0  0  0  0  0  0  0  0  0  0  0  0
    6.0850   -4.2084   -1.1393 H   0  0  0  0  0  0  0  0  0  0  0  0
    6.3250   -4.2994    1.1529 H   0  0  0  0  0  0  0  0  0  0  0  0
    3.4580   -3.1683    1.4213 H   0  0  0  0  0  0  0  0  0  0  0  0
    4.8168   -1.3112    1.6591 H   0  0  0  0  0  0  0  0  0  0  0  0
    5.9684   -2.1037    2.6958 H   0  0  0  0  0  0  0  0  0  0  0  0
    4.3520   -1.7427    3.2912 H   0  0  0  0  0  0  0  0  0  0  0  0
    5.2457   -5.1684    4.7820 H   0  0  0  0  0  0  0  0  0  0  0  0
    5.6992   -3.6576    4.2122 H   0  0  0  0  0  0  0  0  0  0  0  0
    6.2259   -5.0463    3.3171 H   0  0  0  0  0  0  0  0  0  0  0  0
    3.4524   -3.4949    4.8130 H   0  0  0  0  0  0  0  0  0  0  0  0
    2.5256   -3.0773    3.4407 H   0  0  0  0  0  0  0  0  0  0  0  0
    2.2399   -6.0773    7.1598 H   0  0  0  0  0  0  0  0  0  0  0  0
    3.5214   -5.3189    6.2433 H   0  0  0  0  0  0  0  0  0  0  0  0
    3.3634   -7.0776    6.2769 H   0  0  0  0  0  0  0  0  0  0  0  0
    2.8881   -8.6189    4.6939 H   0  0  0  0  0  0  0  0  0  0  0  0
    5.0148  -10.1062    2.4185 H   0  0  0  0  0  0  0  0  0  0  0  0
    6.0227   -7.1610    3.6768 H   0  0  0  0  0  0  0  0  0  0  0  0
    4.7152   -6.4521    0.4873 H   0  0  0  0  0  0  0  0  0  0  0  0
    4.2154   -8.8737    0.5094 H   0  0  0  0  0  0  0  0  0  0  0  0
    1.5318   -5.0174    2.0601 H   0  0  0  0  0  0  0  0  0  0  0  0
    2.4153   -6.1038   -0.5456 H   0  0  0  0  0  0  0  0  0  0  0  0
    3.1369   -4.7019    0.2268 H   0  0  0  0  0  0  0  0  0  0  0  0
    1.4862   -4.6814   -0.1853 H   0  0  0  0  0  0  0  0  0  0  0  0
    0.5490   -6.8397    0.3268 H   0  0  0  0  0  0  0  0  0  0  0  0
    1.4820   -7.9746    1.1256 H   0  0  0  0  0  0  0  0  0  0  0  0
   -0.8875   -6.3369    1.9081 H   0  0  0  0  0  0  0  0  0  0  0  0
   -0.4938   -6.6401    4.2898 H   0  0  0  0  0  0  0  0  0  0  0  0
   -2.3089   -9.0848    3.9326 H   0  0  0  0  0  0  0  0  0  0  0  0
   -2.5539   -8.8619    2.1952 H   0  0  0  0  0  0  0  0  0  0  0  0
   -2.5561   -7.4652    3.2640 H   0  0  0  0  0  0  0  0  0  0  0  0
   -0.0930  -10.3134    3.4893 H   0  0  0  0  0  0  0  0  0  0  0  0
    1.0208   -9.6403    2.3169 H   0  0  0  0  0  0  0  0  0  0  0  0
   -0.5547  -10.1534    1.7911 H   0  0  0  0  0  0  0  0  0  0  0  0
  1  2  1  0
  1 34  1  0
  1 35  1  0
  1 36  1  0
  2  3  1  0
  2  4  2  3
  3 37  1  0
  3 38  1  0
  3 39  1  0
  4  5  1  0
  4 40  1  0
  5  6  2  3
  5 41  1  0
  6  7  1  0
  6 42  1  0
  7  8  1  0
  7  9  1  0
  7 43  1  6
  8 44  1  0
  8 45  1  0
  8 46  1  0
  9 23  1  0
  9 10  1  1
  9 11  1  0
 10 47  1  0
 10 48  1  0
 10 49  1  0
 11 12  1  0
 11 50  1  0
 11 51  1  0
 12 13  2  0
 12 14  1  0
 14 15  1  0
 14 16  2  3
 15 52  1  0
 15 53  1  0
 15 54  1  0
 16 30  1  0
 16 17  1  0
 17 22  1  0
 17 18  1  0
 17 55  1  1
 18 25  1  0
 18 19  2  0
 19 20  1  0
 19 56  1  0
 20 21  1  0
 21 22  2  0
 21 57  1  0
 22 23  1  0
 23 24  1  6
 23 26  1  0
 24 25  2  0
 24 58  1  0
 25 59  1  0
 26 27  1  0
 26 28  1  0
 26 60  1  1
 27 61  1  0
 27 62  1  0
 27 63  1  0
 28 29  1  0
 28 64  1  0
 28 65  1  0
 29 31  1  0
 29 30  1  0
 29 66  1  1
 30 31  1  0
 30 67  1  1
 31 32  1  0
 31 33  1  0
 32 68  1  0
 32 69  1  0
 32 70  1  0
 33 71  1  0
 33 72  1  0
 33 73  1  0
M  END
>  <i_m_ct_stereo_status>  (225) 
1

>  <s_m_source_file>  (225) 
/var/tmp/pbs.5076255.sched01/tmpelb551ou/82hj6rxffr.sdf

>  <i_m_source_file_index>  (225) 
14

>  <i_lp_mmshare_version>  (225) 
48012

>  <i_f3d_flags>  (225) 
0

>  <s_epik_input>  (225) 
W0NIM11DKFtDSDNdKT1bQ0hdL1tDSF09W0NIXS9bQ0BIXShbQ0gzXSlbQ0BAXTEoW0NIM10pW0NIMl1DKD1PKS9DKFtDSDNdKT1DKFxbQ0hdKEMyW0NAQF0xMzQpQyhbQ0hdPVtDSF0zKT1bQ0hdT1tDSF09MilbQ0BIXTVbQ0BIXShDNShbQ0gzXSlbQ0gzXSlbQ0gyXVtDQEBIXTRbQ0gzXQ==

>  <s_epik_cmdline>  (225) 
J2VwaWtfcHl0aG9uJywgJy1waHQnLCAnMi4wJywgJy1waCcsICc3LjAnLCAnLXRuJywgJzgnLCAnLW1hJywgJzIwMCcsICctaW1hZScsICc8aW5maWxlLm1hZT4nLCAnLW9tYWUnLCAnPG91dGZpbGUubWFlPic=

>  <r_lp_tautomer_probability>  (225) 
1

>  <r_epik_Ionization_Penalty>  (225) 
0

>  <r_epik_Ionization_Penalty_Charging>  (225) 
0

>  <r_epik_Ionization_Penalty_Neutral>  (225) 
0

>  <r_epik_State_Penalty>  (225) 
-0

>  <r_epik_Charging_Adjusted_Penalty>  (225) 
0

>  <i_epik_Tot_Q>  (225) 
0

>  <i_epik_Tot_abs_Q>  (225) 
0

>  <s_lp_Force_Field>  (225) 
OPLS3e

>  <r_lp_Energy>  (225) 
310.109

>  <b_lp_Chiralities_Consistent>  (225) 
1

>  <s_lp_Variant>  (225) 
71:0-8

>  <s_i_glide_gridfile>  (225) 
pfpi4k_grid

>  <i_i_glide_lignum>  (225) 
14

>  <i_i_glide_rotatable_bonds>  (225) 
3

>  <r_i_docking_score>  (225) 
-1.55557

>  <r_i_glide_ligand_efficiency>  (225) 
-0.0471386

>  <r_i_glide_ligand_efficiency_sa>  (225) 
-0.151199

>  <r_i_glide_ligand_efficiency_ln>  (225) 
-0.345952

>  <r_i_glide_gscore>  (225) 
-1.55557

>  <r_i_glide_lipo>  (225) 
-0.441199

>  <r_i_glide_hbond>  (225) 
0

>  <r_i_glide_metal>  (225) 
-0

>  <r_i_glide_rewards>  (225) 
-0.377399

>  <r_i_glide_evdw>  (225) 
-26.0262

>  <r_i_glide_ecoul>  (225) 
1.74016

>  <r_i_glide_erotb>  (225) 
0.303497

>  <r_i_glide_esite>  (225) 
-0.000188054

>  <r_i_glide_emodel>  (225) 
-24.4658

>  <r_i_glide_energy>  (225) 
-24.286

>  <r_i_glide_einternal>  (225) 
0.170773

>  <r_i_glide_intrahb_reward>  (225) 
-0

>  <i_i_glide_confnum>  (225) 
2

>  <i_i_glide_posenum>  (225) 
1

>  <r_i_glide_eff_state_penalty>  (225) 
0

>  <ligand_id>  (225) 
71

>  <original_smiles>  (225) 
CC(C)=CC=CC(C)C1(C)CC(=O)C(C)=C2C3C4=COC=C3C1(C=C4)C(C)CC1C2C1(C)C

>  <smiles>  (225) 
[H]C1=C2C([H])=C([H])C34C(=C([H])O1)C2([H])C(=C(C([H])([H])[H])C(=O)C([H])([H])C3(C([H])([H])[H])C([H])(C([H])=C([H])C([H])=C(C([H])([H])[H])C([H])([H])[H])C([H])([H])[H])C1([H])C([H])(C([H])([H])C4([H])C([H])([H])[H])C1(C([H])([H])[H])C([H])([H])[H]

$$$$
71:7:2
     RDKit          3D

 73 77  0  0  1  0  0  0  0  0999 V2000
   -1.7935   -7.6091    4.2875 C   0  0  0  0  0  0  0  0  0  0  0  0
   -0.5684   -7.2601    3.4353 C   0  0  0  0  0  0  0  0  0  0  0  0
   -0.3220   -8.1931    2.2769 C   0  0  0  0  0  0  0  0  0  0  0  0
    0.2510   -6.2101    3.6408 C   0  0  0  0  0  0  0  0  0  0  0  0
    0.1378   -5.2011    4.6785 C   0  0  0  0  0  0  0  0  0  0  0  0
    0.7033   -3.9676    4.6636 C   0  0  0  0  0  0  0  0  0  0  0  0
    1.5519   -3.2660    3.5741 C   0  0  2  0  0  0  0  0  0  0  0  0
    2.1535   -4.2729    2.5690 C   0  0  0  0  0  0  0  0  0  0  0  0
    2.6235   -2.2289    4.1333 C   0  0  1  0  0  0  0  0  0  0  0  0
    3.7129   -3.1467    4.7910 C   0  0  0  0  0  0  0  0  0  0  0  0
    3.3589   -1.5887    2.8414 C   0  0  0  0  0  0  0  0  0  0  0  0
    3.7538   -0.0780    2.6502 C   0  0  0  0  0  0  0  0  0  0  0  0
    3.5329    0.4301    1.5535 O   0  0  0  0  0  0  0  0  0  0  0  0
    4.4010    0.6909    3.7506 C   0  0  0  0  0  0  0  0  0  0  0  0
    5.7164    0.0371    4.1823 C   0  0  0  0  0  0  0  0  0  0  0  0
    3.5660    1.4116    4.5689 C   0  0  0  0  0  0  0  0  0  0  0  0
    3.4432    0.9310    6.0424 C   0  0  1  0  0  0  0  0  0  0  0  0
    2.4006    0.8894    7.2389 C   0  0  0  0  0  0  0  0  0  0  0  0
    3.1278    0.5411    8.3357 C   0  0  0  0  0  0  0  0  0  0  0  0
    4.1447   -0.3879    8.0936 O   0  0  0  0  0  0  0  0  0  0  0  0
    3.9679   -1.1653    6.9509 C   0  0  0  0  0  0  0  0  0  0  0  0
    3.3624   -0.5442    5.8823 C   0  0  0  0  0  0  0  0  0  0  0  0
    2.0572   -1.0314    5.0933 C   0  0  2  0  0  0  0  0  0  0  0  0
    1.1614   -1.0851    6.3607 C   0  0  0  0  0  0  0  0  0  0  0  0
    1.2161   -0.0406    7.2500 C   0  0  0  0  0  0  0  0  0  0  0  0
    0.9899   -0.0861    4.2370 C   0  0  1  0  0  0  0  0  0  0  0  0
   -0.4435   -0.7006    4.1031 C   0  0  0  0  0  0  0  0  0  0  0  0
    0.6024    1.4088    4.6105 C   0  0  0  0  0  0  0  0  0  0  0  0
    1.3114    2.5027    3.8510 C   0  0  2  0  0  0  0  0  0  0  0  0
    2.7950    2.5358    3.9265 C   0  0  1  0  0  0  0  0  0  0  0  0
    2.0042    3.7002    4.5046 C   0  0  0  0  0  0  0  0  0  0  0  0
    1.9575    5.0138    3.7223 C   0  0  0  0  0  0  0  0  0  0  0  0
    1.9101    4.0157    5.9923 C   0  0  0  0  0  0  0  0  0  0  0  0
   -1.6385   -8.6047    4.7340 H   0  0  0  0  0  0  0  0  0  0  0  0
   -2.6995   -7.6295    3.6584 H   0  0  0  0  0  0  0  0  0  0  0  0
   -1.9549   -6.8812    5.0967 H   0  0  0  0  0  0  0  0  0  0  0  0
   -1.1678   -8.2020    1.5954 H   0  0  0  0  0  0  0  0  0  0  0  0
   -0.1112   -9.1965    2.6326 H   0  0  0  0  0  0  0  0  0  0  0  0
    0.5418   -7.8624    1.7021 H   0  0  0  0  0  0  0  0  0  0  0  0
    1.0557   -6.1857    2.9714 H   0  0  0  0  0  0  0  0  0  0  0  0
   -0.4431   -5.3887    5.5776 H   0  0  0  0  0  0  0  0  0  0  0  0
    0.5237   -3.3838    5.5390 H   0  0  0  0  0  0  0  0  0  0  0  0
    0.8929   -2.6806    2.9345 H   0  0  0  0  0  0  0  0  0  0  0  0
    1.3410   -4.7113    1.9919 H   0  0  0  0  0  0  0  0  0  0  0  0
    2.6103   -5.1117    3.1022 H   0  0  0  0  0  0  0  0  0  0  0  0
    2.9030   -3.8926    1.8675 H   0  0  0  0  0  0  0  0  0  0  0  0
    4.6483   -2.6343    5.0158 H   0  0  0  0  0  0  0  0  0  0  0  0
    4.0664   -3.9408    4.1404 H   0  0  0  0  0  0  0  0  0  0  0  0
    3.3468   -3.6430    5.6890 H   0  0  0  0  0  0  0  0  0  0  0  0
    4.2630   -2.1611    2.6238 H   0  0  0  0  0  0  0  0  0  0  0  0
    2.7243   -1.7806    1.9765 H   0  0  0  0  0  0  0  0  0  0  0  0
    6.5372    0.5435    3.6769 H   0  0  0  0  0  0  0  0  0  0  0  0
    5.7961   -1.0166    3.9222 H   0  0  0  0  0  0  0  0  0  0  0  0
    5.9162    0.1410    5.2491 H   0  0  0  0  0  0  0  0  0  0  0  0
    4.3910    1.2778    6.4578 H   0  0  0  0  0  0  0  0  0  0  0  0
    2.6109    0.2017    9.2278 H   0  0  0  0  0  0  0  0  0  0  0  0
    3.8159   -2.1972    7.2248 H   0  0  0  0  0  0  0  0  0  0  0  0
    0.3493   -1.7901    6.4418 H   0  0  0  0  0  0  0  0  0  0  0  0
    0.5127   -0.0217    8.0643 H   0  0  0  0  0  0  0  0  0  0  0  0
    1.3004   -0.0458    3.1960 H   0  0  0  0  0  0  0  0  0  0  0  0
   -1.0805   -0.4351    4.9487 H   0  0  0  0  0  0  0  0  0  0  0  0
   -0.5208   -1.7718    4.0369 H   0  0  0  0  0  0  0  0  0  0  0  0
   -0.9321   -0.2825    3.2243 H   0  0  0  0  0  0  0  0  0  0  0  0
   -0.4370    1.6089    4.3382 H   0  0  0  0  0  0  0  0  0  0  0  0
    0.5807    1.6445    5.6580 H   0  0  0  0  0  0  0  0  0  0  0  0
    0.8709    2.6946    2.8765 H   0  0  0  0  0  0  0  0  0  0  0  0
    3.2862    2.8095    2.9983 H   0  0  0  0  0  0  0  0  0  0  0  0
    2.7986    5.6595    3.9805 H   0  0  0  0  0  0  0  0  0  0  0  0
    1.0351    5.5575    3.9280 H   0  0  0  0  0  0  0  0  0  0  0  0
    1.9916    4.8379    2.6488 H   0  0  0  0  0  0  0  0  0  0  0  0
    2.8030    4.5449    6.3275 H   0  0  0  0  0  0  0  0  0  0  0  0
    1.8035    3.1381    6.5905 H   0  0  0  0  0  0  0  0  0  0  0  0
    1.0381    4.6381    6.1912 H   0  0  0  0  0  0  0  0  0  0  0  0
  1  2  1  0
  1 34  1  0
  1 35  1  0
  1 36  1  0
  2  3  1  0
  2  4  2  3
  3 37  1  0
  3 38  1  0
  3 39  1  0
  4  5  1  0
  4 40  1  0
  5  6  2  3
  5 41  1  0
  6  7  1  0
  6 42  1  0
  7  8  1  0
  7  9  1  0
  7 43  1  6
  8 44  1  0
  8 45  1  0
  8 46  1  0
  9 23  1  0
  9 10  1  1
  9 11  1  0
 10 47  1  0
 10 48  1  0
 10 49  1  0
 11 12  1  0
 11 50  1  0
 11 51  1  0
 12 13  2  0
 12 14  1  0
 14 15  1  0
 14 16  2  3
 15 52  1  0
 15 53  1  0
 15 54  1  0
 16 30  1  0
 16 17  1  0
 17 22  1  0
 17 18  1  0
 17 55  1  1
 18 25  1  0
 18 19  2  0
 19 20  1  0
 19 56  1  0
 20 21  1  0
 21 22  2  0
 21 57  1  0
 22 23  1  0
 23 24  1  1
 23 26  1  0
 24 25  2  0
 24 58  1  0
 25 59  1  0
 26 27  1  0
 26 28  1  0
 26 60  1  6
 27 61  1  0
 27 62  1  0
 27 63  1  0
 28 29  1  0
 28 64  1  0
 28 65  1  0
 29 31  1  0
 29 30  1  0
 29 66  1  6
 30 31  1  0
 30 67  1  6
 31 32  1  0
 31 33  1  0
 32 68  1  0
 32 69  1  0
 32 70  1  0
 33 71  1  0
 33 72  1  0
 33 73  1  0
M  END
>  <i_m_ct_stereo_status>  (226) 
1

>  <s_m_source_file>  (226) 
/var/tmp/pbs.5076255.sched01/tmpelb551ou/82hj6rxffr.sdf

>  <i_m_source_file_index>  (226) 
14

>  <i_lp_mmshare_version>  (226) 
48012

>  <i_f3d_flags>  (226) 
0

>  <s_epik_input>  (226) 
W0NIM11DKFtDSDNdKT1bQ0hdL1tDSF09W0NIXS9bQ0BIXShbQ0gzXSlbQ0BAXTEoW0NIM10pW0NIMl1DKD1PKS9DKFtDSDNdKT1DKFxbQ0hdKEMyW0NAQF0xMzQpQyhbQ0hdPVtDSF0zKT1bQ0hdT1tDSF09MilbQ0BIXTVbQ0BIXShDNShbQ0gzXSlbQ0gzXSlbQ0gyXVtDQEBIXTRbQ0gzXQ==

>  <s_epik_cmdline>  (226) 
J2VwaWtfcHl0aG9uJywgJy1waHQnLCAnMi4wJywgJy1waCcsICc3LjAnLCAnLXRuJywgJzgnLCAnLW1hJywgJzIwMCcsICctaW1hZScsICc8aW5maWxlLm1hZT4nLCAnLW9tYWUnLCAnPG91dGZpbGUubWFlPic=

>  <r_lp_tautomer_probability>  (226) 
1

>  <r_epik_Ionization_Penalty>  (226) 
0

>  <r_epik_Ionization_Penalty_Charging>  (226) 
0

>  <r_epik_Ionization_Penalty_Neutral>  (226) 
0

>  <r_epik_State_Penalty>  (226) 
-0

>  <r_epik_Charging_Adjusted_Penalty>  (226) 
0

>  <i_epik_Tot_Q>  (226) 
0

>  <i_epik_Tot_abs_Q>  (226) 
0

>  <s_lp_Force_Field>  (226) 
OPLS3e

>  <r_lp_Energy>  (226) 
310.109

>  <b_lp_Chiralities_Consistent>  (226) 
1

>  <s_lp_Variant>  (226) 
71:0-8

>  <s_i_glide_gridfile>  (226) 
pfpi4k_grid

>  <i_i_glide_lignum>  (226) 
14

>  <i_i_glide_rotatable_bonds>  (226) 
3

>  <r_i_docking_score>  (226) 
-1.1655

>  <r_i_glide_ligand_efficiency>  (226) 
-0.0353183

>  <r_i_glide_ligand_efficiency_sa>  (226) 
-0.113285

>  <r_i_glide_ligand_efficiency_ln>  (226) 
-0.259202

>  <r_i_glide_gscore>  (226) 
-1.1655

>  <r_i_glide_lipo>  (226) 
-0.122449

>  <r_i_glide_hbond>  (226) 
0

>  <r_i_glide_metal>  (226) 
-0

>  <r_i_glide_rewards>  (226) 
-0.402415

>  <r_i_glide_evdw>  (226) 
-19.9545

>  <r_i_glide_ecoul>  (226) 
0.357265

>  <r_i_glide_erotb>  (226) 
0.303497

>  <r_i_glide_esite>  (226) 
0

>  <r_i_glide_emodel>  (226) 
-17.5754

>  <r_i_glide_energy>  (226) 
-19.5973

>  <r_i_glide_einternal>  (226) 
2.4858

>  <r_i_glide_intrahb_reward>  (226) 
-0

>  <i_i_glide_confnum>  (226) 
2

>  <i_i_glide_posenum>  (226) 
4

>  <r_i_glide_eff_state_penalty>  (226) 
0

>  <ligand_id>  (226) 
71

>  <original_smiles>  (226) 
CC(C)=CC=CC(C)C1(C)CC(=O)C(C)=C2C3C4=COC=C3C1(C=C4)C(C)CC1C2C1(C)C

>  <smiles>  (226) 
[H]C1=C2C([H])=C([H])C34C(=C([H])O1)C2([H])C(=C(C([H])([H])[H])C(=O)C([H])([H])C3(C([H])([H])[H])C([H])(C([H])=C([H])C([H])=C(C([H])([H])[H])C([H])([H])[H])C([H])([H])[H])C1([H])C([H])(C([H])([H])C4([H])C([H])([H])[H])C1(C([H])([H])[H])C([H])([H])[H]

$$$$
72:0:0
     RDKit          3D

 45 49  0  0  1  0  0  0  0  0999 V2000
    4.4385   -0.0996    2.3445 C   0  0  0  0  0  0  0  0  0  0  0  0
    3.8252   -0.6160    1.0195 C   0  0  0  0  0  0  0  0  0  0  0  0
    4.0523   -2.1239    0.6711 C   0  0  1  0  0  0  0  0  0  0  0  0
    3.4813   -2.9358    1.8476 C   0  0  0  0  0  0  0  0  0  0  0  0
    3.0483   -4.2096    1.8364 C   0  0  0  0  0  0  0  0  0  0  0  0
    3.0874   -5.1798    0.6741 C   0  0  0  0  0  0  0  0  0  0  0  0
    4.1954   -4.9154   -0.2821 N   0  0  2  0  0  0  0  0  0  0  0  0
    5.5472   -5.0523    0.3055 C   0  0  0  0  0  0  0  0  0  0  0  0
    6.1347   -3.7850    0.9839 C   0  0  1  0  0  0  0  0  0  0  0  0
    7.6039   -3.6626    0.5652 C   0  0  0  0  0  0  0  0  0  0  0  0
    7.5446   -3.0156   -0.8324 C   0  0  0  0  0  0  0  0  0  0  0  0
    6.1350   -2.3875   -0.9459 C   0  0  1  0  0  0  0  0  0  0  0  0
    5.1828   -3.1318   -1.9384 C   0  0  2  0  0  0  0  0  0  0  0  0
    4.4544   -2.0722   -2.7782 C   0  0  1  0  0  0  0  0  0  0  0  0
    3.9632   -2.6220   -3.9871 O   0  0  0  0  0  0  0  0  0  0  0  0
    3.3106   -1.6050   -1.8639 C   0  0  0  0  0  0  0  0  0  0  0  0
    3.2726   -2.5501   -0.6302 C   0  0  1  0  0  0  0  0  0  0  0  0
    3.9619   -3.7811   -1.2201 C   0  0  2  0  0  0  0  0  0  0  0  0
    5.5909   -2.4290    0.4948 C   0  0  1  0  0  0  0  0  0  0  0  0
    4.1706    0.9417    2.4747 H   0  0  0  0  0  0  0  0  0  0  0  0
    5.5260   -0.1419    2.3516 H   0  0  0  0  0  0  0  0  0  0  0  0
    4.0707   -0.5876    3.2430 H   0  0  0  0  0  0  0  0  0  0  0  0
    2.7502   -0.4227    1.0300 H   0  0  0  0  0  0  0  0  0  0  0  0
    4.2333    0.0206    0.2398 H   0  0  0  0  0  0  0  0  0  0  0  0
    3.3487   -2.4301    2.7878 H   0  0  0  0  0  0  0  0  0  0  0  0
    2.6316   -4.6098    2.7495 H   0  0  0  0  0  0  0  0  0  0  0  0
    3.2198   -6.1781    1.0973 H   0  0  0  0  0  0  0  0  0  0  0  0
    2.1190   -5.1820    0.1683 H   0  0  0  0  0  0  0  0  0  0  0  0
    5.5716   -5.8832    1.0145 H   0  0  0  0  0  0  0  0  0  0  0  0
    6.1925   -5.3661   -0.5107 H   0  0  0  0  0  0  0  0  0  0  0  0
    6.0466   -3.8720    2.0671 H   0  0  0  0  0  0  0  0  0  0  0  0
    8.1126   -2.9943    1.2569 H   0  0  0  0  0  0  0  0  0  0  0  0
    8.1459   -4.6109    0.5798 H   0  0  0  0  0  0  0  0  0  0  0  0
    8.3328   -2.2684   -0.9326 H   0  0  0  0  0  0  0  0  0  0  0  0
    7.7191   -3.7611   -1.6090 H   0  0  0  0  0  0  0  0  0  0  0  0
    6.2270   -1.3401   -1.2277 H   0  0  0  0  0  0  0  0  0  0  0  0
    5.7229   -3.8266   -2.5831 H   0  0  0  0  0  0  0  0  0  0  0  0
    5.0814   -1.2269   -3.0535 H   0  0  0  0  0  0  0  0  0  0  0  0
    3.3149   -3.2787   -3.7797 H   0  0  0  0  0  0  0  0  0  0  0  0
    3.4725   -0.5734   -1.6018 H   0  0  0  0  0  0  0  0  0  0  0  0
    2.3618   -1.6316   -2.4055 H   0  0  0  0  0  0  0  0  0  0  0  0
    2.2224   -2.7470   -0.4014 H   0  0  0  0  0  0  0  0  0  0  0  0
    3.2916   -4.1865   -1.9745 H   0  0  0  0  0  0  0  0  0  0  0  0
    6.1500   -1.6818    1.0557 H   0  0  0  0  0  0  0  0  0  0  0  0
    4.1324   -5.7079   -0.9095 H   0  0  0  0  0  0  0  0  0  0  0  0
  1  2  1  0
  1 20  1  0
  1 21  1  0
  1 22  1  0
  3  2  1  1
  2 23  1  0
  2 24  1  0
  3 17  1  0
  3 19  1  0
  3  4  1  0
  4  5  2  0
  4 25  1  0
  5  6  1  0
  5 26  1  0
  6  7  1  0
  6 27  1  0
  6 28  1  0
  7 18  1  0
  7  8  1  0
  7 45  1  6
  8  9  1  0
  8 29  1  0
  8 30  1  0
  9 19  1  0
  9 10  1  0
  9 31  1  1
 10 11  1  0
 10 32  1  0
 10 33  1  0
 11 12  1  0
 11 34  1  0
 11 35  1  0
 12 13  1  0
 12 19  1  0
 12 36  1  6
 13 18  1  0
 13 14  1  0
 13 37  1  6
 14 15  1  0
 14 16  1  0
 14 38  1  6
 15 39  1  0
 16 17  1  0
 16 40  1  0
 16 41  1  0
 17 18  1  0
 17 42  1  1
 18 43  1  6
 19 44  1  1
M  CHG  1   7   1
M  END
>  <i_m_ct_stereo_status>  (227) 
1

>  <s_m_source_file>  (227) 
/var/tmp/pbs.5076255.sched01/tmpelb551ou/82hj6rxffr.sdf

>  <i_m_source_file_index>  (227) 
15

>  <i_lp_mmshare_version>  (227) 
48012

>  <i_f3d_flags>  (227) 
0

>  <s_epik_input>  (227) 
W0NIM11bQ0gyXVtDQF0xMltDQEBIXTNbQ0BASF00TihbQ0gyXVtDSF09W0NIXTEpW0NIMl1bQ0BASF01W0NASF0yW0NAQEhdKFtDSDJdW0NIMl01KVtDQEBIXTRbQ0BASF0oW09IXSlbQ0gyXTM=

>  <s_epik_cmdline>  (227) 
J2VwaWtfcHl0aG9uJywgJy1waHQnLCAnMi4wJywgJy1waCcsICc3LjAnLCAnLXRuJywgJzgnLCAnLW1hJywgJzIwMCcsICctaW1hZScsICc8aW5maWxlLm1hZT4nLCAnLW9tYWUnLCAnPG91dGZpbGUubWFlPic=

>  <r_epik_Ionization_Penalty>  (227) 
0.000880259

>  <r_epik_Ionization_Penalty_Charging>  (227) 
0.000880215

>  <r_epik_Ionization_Penalty_Neutral>  (227) 
4.39358e-08

>  <r_epik_State_Penalty>  (227) 
0.000568873

>  <r_epik_Charging_Adjusted_Penalty>  (227) 
0.00144909

>  <i_epik_Tot_Q>  (227) 
1

>  <i_epik_Tot_abs_Q>  (227) 
1

>  <s_lp_Force_Field>  (227) 
OPLS3e

>  <r_lp_Energy>  (227) 
67.6621

>  <b_lp_Chiralities_Consistent>  (227) 
1

>  <s_lp_Variant>  (227) 
72:0-1

>  <s_i_glide_gridfile>  (227) 
pfpi4k_grid

>  <i_i_glide_lignum>  (227) 
15

>  <i_i_glide_rotatable_bonds>  (227) 
2

>  <r_i_docking_score>  (227) 
-4.31058

>  <r_i_glide_ligand_efficiency>  (227) 
-0.226873

>  <r_i_glide_ligand_efficiency_sa>  (227) 
-0.605387

>  <r_i_glide_ligand_efficiency_ln>  (227) 
-1.09282

>  <r_i_glide_gscore>  (227) 
-4.31058

>  <r_i_glide_lipo>  (227) 
-0.644762

>  <r_i_glide_hbond>  (227) 
-0.208762

>  <r_i_glide_metal>  (227) 
-0

>  <r_i_glide_rewards>  (227) 
-1.63367

>  <r_i_glide_evdw>  (227) 
-16.0783

>  <r_i_glide_ecoul>  (227) 
-6.61626

>  <r_i_glide_erotb>  (227) 
0

>  <r_i_glide_esite>  (227) 
-0.0270258

>  <r_i_glide_emodel>  (227) 
-27.2982

>  <r_i_glide_energy>  (227) 
-22.6946

>  <r_i_glide_einternal>  (227) 
3.19309

>  <r_i_glide_intrahb_reward>  (227) 
-0

>  <i_i_glide_confnum>  (227) 
1

>  <i_i_glide_posenum>  (227) 
5

>  <r_i_glide_eff_state_penalty>  (227) 
0

>  <ligand_id>  (227) 
72

>  <original_smiles>  (227) 
CCC12C=CCN3CC4CCC(C5C(O)CC1C53)C42

>  <smiles>  (227) 
[H]OC1([H])C([H])([H])C2([H])C3(C([H])([H])C([H])([H])[H])C([H])=C([H])C([H])([H])[N+]4([H])C([H])([H])C5([H])C([H])([H])C([H])([H])C([H])(C53[H])C1([H])C24[H]

$$$$
72:0:1
     RDKit          3D

 45 49  0  0  1  0  0  0  0  0999 V2000
    2.8974   -0.0953    1.7555 C   0  0  0  0  0  0  0  0  0  0  0  0
    4.3057   -0.6640    1.4796 C   0  0  0  0  0  0  0  0  0  0  0  0
    4.3615   -2.1348    0.9545 C   0  0  1  0  0  0  0  0  0  0  0  0
    3.7907   -3.0023    2.0783 C   0  0  0  0  0  0  0  0  0  0  0  0
    3.2334   -4.2226    1.9610 C   0  0  0  0  0  0  0  0  0  0  0  0
    3.1264   -5.0553    0.6921 C   0  0  0  0  0  0  0  0  0  0  0  0
    4.2116   -4.7972   -0.2911 N   0  0  2  0  0  0  0  0  0  0  0  0
    5.5666   -5.1215    0.2109 C   0  0  0  0  0  0  0  0  0  0  0  0
    6.3001   -4.0033    1.0061 C   0  0  1  0  0  0  0  0  0  0  0  0
    7.7631   -3.9701    0.5427 C   0  0  0  0  0  0  0  0  0  0  0  0
    7.7139   -3.1713   -0.7702 C   0  0  0  0  0  0  0  0  0  0  0  0
    6.3697   -2.4039   -0.7455 C   0  0  1  0  0  0  0  0  0  0  0  0
    5.3143   -2.9309   -1.7771 C   0  0  2  0  0  0  0  0  0  0  0  0
    4.6733   -1.7114   -2.4565 C   0  0  1  0  0  0  0  0  0  0  0  0
    4.0941   -2.0728   -3.7005 O   0  0  0  0  0  0  0  0  0  0  0  0
    3.6163   -1.2424   -1.4413 C   0  0  0  0  0  0  0  0  0  0  0  0
    3.5100   -2.3416   -0.3464 C   0  0  1  0  0  0  0  0  0  0  0  0
    4.0563   -3.5539   -1.1018 C   0  0  2  0  0  0  0  0  0  0  0  0
    5.8622   -2.5526    0.7015 C   0  0  1  0  0  0  0  0  0  0  0  0
    2.9701    0.9267    2.1280 H   0  0  0  0  0  0  0  0  0  0  0  0
    2.3615   -0.6730    2.5103 H   0  0  0  0  0  0  0  0  0  0  0  0
    2.2758   -0.0680    0.8603 H   0  0  0  0  0  0  0  0  0  0  0  0
    4.8457    0.0078    0.8142 H   0  0  0  0  0  0  0  0  0  0  0  0
    4.8640   -0.6079    2.4157 H   0  0  0  0  0  0  0  0  0  0  0  0
    3.8007   -2.5617    3.0664 H   0  0  0  0  0  0  0  0  0  0  0  0
    2.8251   -4.6891    2.8469 H   0  0  0  0  0  0  0  0  0  0  0  0
    3.1798   -6.1049    0.9904 H   0  0  0  0  0  0  0  0  0  0  0  0
    2.1454   -4.9175    0.2361 H   0  0  0  0  0  0  0  0  0  0  0  0
    5.5414   -6.0346    0.8105 H   0  0  0  0  0  0  0  0  0  0  0  0
    6.1313   -5.3867   -0.6769 H   0  0  0  0  0  0  0  0  0  0  0  0
    6.2446   -4.2170    2.0754 H   0  0  0  0  0  0  0  0  0  0  0  0
    8.3665   -3.4361    1.2776 H   0  0  0  0  0  0  0  0  0  0  0  0
    8.2057   -4.9600    0.4206 H   0  0  0  0  0  0  0  0  0  0  0  0
    8.5669   -2.4938   -0.8327 H   0  0  0  0  0  0  0  0  0  0  0  0
    7.7846   -3.8359   -1.6323 H   0  0  0  0  0  0  0  0  0  0  0  0
    6.5736   -1.3493   -0.9088 H   0  0  0  0  0  0  0  0  0  0  0  0
    5.7673   -3.5851   -2.5221 H   0  0  0  0  0  0  0  0  0  0  0  0
    5.3837   -0.9145   -2.6666 H   0  0  0  0  0  0  0  0  0  0  0  0
    3.3907   -2.6835   -3.5466 H   0  0  0  0  0  0  0  0  0  0  0  0
    3.8934   -0.2699   -1.0453 H   0  0  0  0  0  0  0  0  0  0  0  0
    2.6539   -1.1000   -1.9366 H   0  0  0  0  0  0  0  0  0  0  0  0
    2.4573   -2.4707   -0.0898 H   0  0  0  0  0  0  0  0  0  0  0  0
    3.3398   -3.8273   -1.8764 H   0  0  0  0  0  0  0  0  0  0  0  0
    6.4796   -1.9207    1.3452 H   0  0  0  0  0  0  0  0  0  0  0  0
    4.0512   -5.5139   -0.9877 H   0  0  0  0  0  0  0  0  0  0  0  0
  1  2  1  0
  1 20  1  0
  1 21  1  0
  1 22  1  0
  3  2  1  1
  2 23  1  0
  2 24  1  0
  3 17  1  0
  3 19  1  0
  3  4  1  0
  4  5  2  0
  4 25  1  0
  5  6  1  0
  5 26  1  0
  6  7  1  0
  6 27  1  0
  6 28  1  0
  7 18  1  0
  7  8  1  0
  7 45  1  6
  8  9  1  0
  8 29  1  0
  8 30  1  0
  9 19  1  0
  9 10  1  0
  9 31  1  1
 10 11  1  0
 10 32  1  0
 10 33  1  0
 11 12  1  0
 11 34  1  0
 11 35  1  0
 12 13  1  0
 12 19  1  0
 12 36  1  6
 13 18  1  0
 13 14  1  0
 13 37  1  6
 14 15  1  0
 14 16  1  0
 14 38  1  6
 15 39  1  0
 16 17  1  0
 16 40  1  0
 16 41  1  0
 17 18  1  0
 17 42  1  1
 18 43  1  6
 19 44  1  1
M  CHG  1   7   1
M  END
>  <i_m_ct_stereo_status>  (228) 
1

>  <s_m_source_file>  (228) 
/var/tmp/pbs.5076255.sched01/tmpelb551ou/82hj6rxffr.sdf

>  <i_m_source_file_index>  (228) 
15

>  <i_lp_mmshare_version>  (228) 
48012

>  <i_f3d_flags>  (228) 
0

>  <s_epik_input>  (228) 
W0NIM11bQ0gyXVtDQF0xMltDQEBIXTNbQ0BASF00TihbQ0gyXVtDSF09W0NIXTEpW0NIMl1bQ0BASF01W0NASF0yW0NAQEhdKFtDSDJdW0NIMl01KVtDQEBIXTRbQ0BASF0oW09IXSlbQ0gyXTM=

>  <s_epik_cmdline>  (228) 
J2VwaWtfcHl0aG9uJywgJy1waHQnLCAnMi4wJywgJy1waCcsICc3LjAnLCAnLXRuJywgJzgnLCAnLW1hJywgJzIwMCcsICctaW1hZScsICc8aW5maWxlLm1hZT4nLCAnLW9tYWUnLCAnPG91dGZpbGUubWFlPic=

>  <r_epik_Ionization_Penalty>  (228) 
0.000880259

>  <r_epik_Ionization_Penalty_Charging>  (228) 
0.000880215

>  <r_epik_Ionization_Penalty_Neutral>  (228) 
4.39358e-08

>  <r_epik_State_Penalty>  (228) 
0.000568873

>  <r_epik_Charging_Adjusted_Penalty>  (228) 
0.00144909

>  <i_epik_Tot_Q>  (228) 
1

>  <i_epik_Tot_abs_Q>  (228) 
1

>  <s_lp_Force_Field>  (228) 
OPLS3e

>  <r_lp_Energy>  (228) 
67.6621

>  <b_lp_Chiralities_Consistent>  (228) 
1

>  <s_lp_Variant>  (228) 
72:0-1

>  <s_i_glide_gridfile>  (228) 
pfpi4k_grid

>  <i_i_glide_lignum>  (228) 
15

>  <i_i_glide_rotatable_bonds>  (228) 
2

>  <r_i_docking_score>  (228) 
-4.0196

>  <r_i_glide_ligand_efficiency>  (228) 
-0.211558

>  <r_i_glide_ligand_efficiency_sa>  (228) 
-0.564521

>  <r_i_glide_ligand_efficiency_ln>  (228) 
-1.01905

>  <r_i_glide_gscore>  (228) 
-4.0196

>  <r_i_glide_lipo>  (228) 
-0.640469

>  <r_i_glide_hbond>  (228) 
0

>  <r_i_glide_metal>  (228) 
-0

>  <r_i_glide_rewards>  (228) 
-1.63367

>  <r_i_glide_evdw>  (228) 
-17.3905

>  <r_i_glide_ecoul>  (228) 
-5.67641

>  <r_i_glide_erotb>  (228) 
0

>  <r_i_glide_esite>  (228) 
-0.0244678

>  <r_i_glide_emodel>  (228) 
-29.0082

>  <r_i_glide_energy>  (228) 
-23.0669

>  <r_i_glide_einternal>  (228) 
0.0182494

>  <r_i_glide_intrahb_reward>  (228) 
-0

>  <i_i_glide_confnum>  (228) 
2

>  <i_i_glide_posenum>  (228) 
30

>  <r_i_glide_eff_state_penalty>  (228) 
0

>  <ligand_id>  (228) 
72

>  <original_smiles>  (228) 
CCC12C=CCN3CC4CCC(C5C(O)CC1C53)C42

>  <smiles>  (228) 
[H]OC1([H])C([H])([H])C2([H])C3(C([H])([H])C([H])([H])[H])C([H])=C([H])C([H])([H])[N+]4([H])C([H])([H])C5([H])C([H])([H])C([H])([H])C([H])(C53[H])C1([H])C24[H]

$$$$
72:0:2
     RDKit          3D

 45 49  0  0  1  0  0  0  0  0999 V2000
    3.4131    0.0515    2.2098 C   0  0  0  0  0  0  0  0  0  0  0  0
    4.7681   -0.5893    1.8388 C   0  0  0  0  0  0  0  0  0  0  0  0
    4.7007   -2.0282    1.2345 C   0  0  1  0  0  0  0  0  0  0  0  0
    4.1374   -2.9237    2.3408 C   0  0  0  0  0  0  0  0  0  0  0  0
    3.4997   -4.0995    2.1852 C   0  0  0  0  0  0  0  0  0  0  0  0
    3.2718   -4.8457    0.8821 C   0  0  0  0  0  0  0  0  0  0  0  0
    4.3176   -4.6007   -0.1495 N   0  0  2  0  0  0  0  0  0  0  0  0
    5.6762   -5.0293    0.2573 C   0  0  0  0  0  0  0  0  0  0  0  0
    6.5175   -4.0071    1.0727 C   0  0  1  0  0  0  0  0  0  0  0  0
    7.9539   -4.0311    0.5320 C   0  0  0  0  0  0  0  0  0  0  0  0
    7.8865   -3.1548   -0.7303 C   0  0  0  0  0  0  0  0  0  0  0  0
    6.5938   -2.3162   -0.5855 C   0  0  1  0  0  0  0  0  0  0  0  0
    5.4565   -2.7164   -1.5836 C   0  0  2  0  0  0  0  0  0  0  0  0
    4.8563   -1.4229   -2.1504 C   0  0  1  0  0  0  0  0  0  0  0  0
    4.1715   -1.6935   -3.3615 O   0  0  0  0  0  0  0  0  0  0  0  0
    3.8846   -0.9604   -1.0560 C   0  0  0  0  0  0  0  0  0  0  0  0
    3.7677   -2.1098   -0.0248 C   0  0  1  0  0  0  0  0  0  0  0  0
    4.1970   -3.3032   -0.8783 C   0  0  2  0  0  0  0  0  0  0  0  0
    6.1562   -2.5192    0.8758 C   0  0  1  0  0  0  0  0  0  0  0  0
    3.5663    1.0416    2.6395 H   0  0  0  0  0  0  0  0  0  0  0  0
    2.8722   -0.5351    2.9541 H   0  0  0  0  0  0  0  0  0  0  0  0
    2.7619    0.1736    1.3432 H   0  0  0  0  0  0  0  0  0  0  0  0
    5.3206    0.0810    1.1819 H   0  0  0  0  0  0  0  0  0  0  0  0
    5.3698   -0.6203    2.7492 H   0  0  0  0  0  0  0  0  0  0  0  0
    4.2282   -2.5398    3.3486 H   0  0  0  0  0  0  0  0  0  0  0  0
    3.1083   -4.5903    3.0639 H   0  0  0  0  0  0  0  0  0  0  0  0
    3.2735   -5.9111    1.1163 H   0  0  0  0  0  0  0  0  0  0  0  0
    2.2786   -4.6197    0.4935 H   0  0  0  0  0  0  0  0  0  0  0  0
    5.6264   -5.9718    0.8054 H   0  0  0  0  0  0  0  0  0  0  0  0
    6.1775   -5.2700   -0.6759 H   0  0  0  0  0  0  0  0  0  0  0  0
    6.5050   -4.2807    2.1288 H   0  0  0  0  0  0  0  0  0  0  0  0
    8.6265   -3.5708    1.2589 H   0  0  0  0  0  0  0  0  0  0  0  0
    8.3300   -5.0366    0.3327 H   0  0  0  0  0  0  0  0  0  0  0  0
    8.7748   -2.5235   -0.7999 H   0  0  0  0  0  0  0  0  0  0  0  0
    7.8740   -3.7704   -1.6310 H   0  0  0  0  0  0  0  0  0  0  0  0
    6.8464   -1.2656   -0.6924 H   0  0  0  0  0  0  0  0  0  0  0  0
    5.8252   -3.3495   -2.3915 H   0  0  0  0  0  0  0  0  0  0  0  0
    5.5921   -0.6430   -2.3368 H   0  0  0  0  0  0  0  0  0  0  0  0
    3.4041   -1.1397   -3.4000 H   0  0  0  0  0  0  0  0  0  0  0  0
    4.2219   -0.0247   -0.6190 H   0  0  0  0  0  0  0  0  0  0  0  0
    2.9143   -0.7451   -1.4992 H   0  0  0  0  0  0  0  0  0  0  0  0
    2.7217   -2.1806    0.2813 H   0  0  0  0  0  0  0  0  0  0  0  0
    3.4251   -3.4816   -1.6286 H   0  0  0  0  0  0  0  0  0  0  0  0
    6.8444   -1.9593    1.5143 H   0  0  0  0  0  0  0  0  0  0  0  0
    4.0821   -5.2673   -0.8731 H   0  0  0  0  0  0  0  0  0  0  0  0
  1  2  1  0
  1 20  1  0
  1 21  1  0
  1 22  1  0
  3  2  1  1
  2 23  1  0
  2 24  1  0
  3 17  1  0
  3 19  1  0
  3  4  1  0
  4  5  2  0
  4 25  1  0
  5  6  1  0
  5 26  1  0
  6  7  1  0
  6 27  1  0
  6 28  1  0
  7 18  1  0
  7  8  1  0
  7 45  1  6
  8  9  1  0
  8 29  1  0
  8 30  1  0
  9 19  1  0
  9 10  1  0
  9 31  1  1
 10 11  1  0
 10 32  1  0
 10 33  1  0
 11 12  1  0
 11 34  1  0
 11 35  1  0
 12 13  1  0
 12 19  1  0
 12 36  1  1
 13 18  1  0
 13 14  1  0
 13 37  1  6
 14 15  1  0
 14 16  1  0
 14 38  1  6
 15 39  1  0
 16 17  1  0
 16 40  1  0
 16 41  1  0
 17 18  1  0
 17 42  1  1
 18 43  1  6
 19 44  1  1
M  CHG  1   7   1
M  END
>  <i_m_ct_stereo_status>  (229) 
1

>  <s_m_source_file>  (229) 
/var/tmp/pbs.5076255.sched01/tmpelb551ou/82hj6rxffr.sdf

>  <i_m_source_file_index>  (229) 
15

>  <i_lp_mmshare_version>  (229) 
48012

>  <i_f3d_flags>  (229) 
0

>  <s_epik_input>  (229) 
W0NIM11bQ0gyXVtDQF0xMltDQEBIXTNbQ0BASF00TihbQ0gyXVtDSF09W0NIXTEpW0NIMl1bQ0BASF01W0NASF0yW0NAQEhdKFtDSDJdW0NIMl01KVtDQEBIXTRbQ0BASF0oW09IXSlbQ0gyXTM=

>  <s_epik_cmdline>  (229) 
J2VwaWtfcHl0aG9uJywgJy1waHQnLCAnMi4wJywgJy1waCcsICc3LjAnLCAnLXRuJywgJzgnLCAnLW1hJywgJzIwMCcsICctaW1hZScsICc8aW5maWxlLm1hZT4nLCAnLW9tYWUnLCAnPG91dGZpbGUubWFlPic=

>  <r_epik_Ionization_Penalty>  (229) 
0.000880259

>  <r_epik_Ionization_Penalty_Charging>  (229) 
0.000880215

>  <r_epik_Ionization_Penalty_Neutral>  (229) 
4.39358e-08

>  <r_epik_State_Penalty>  (229) 
0.000568873

>  <r_epik_Charging_Adjusted_Penalty>  (229) 
0.00144909

>  <i_epik_Tot_Q>  (229) 
1

>  <i_epik_Tot_abs_Q>  (229) 
1

>  <s_lp_Force_Field>  (229) 
OPLS3e

>  <r_lp_Energy>  (229) 
67.6621

>  <b_lp_Chiralities_Consistent>  (229) 
1

>  <s_lp_Variant>  (229) 
72:0-1

>  <s_i_glide_gridfile>  (229) 
pfpi4k_grid

>  <i_i_glide_lignum>  (229) 
15

>  <i_i_glide_rotatable_bonds>  (229) 
2

>  <r_i_docking_score>  (229) 
-3.86156

>  <r_i_glide_ligand_efficiency>  (229) 
-0.20324

>  <r_i_glide_ligand_efficiency_sa>  (229) 
-0.542327

>  <r_i_glide_ligand_efficiency_ln>  (229) 
-0.97899

>  <r_i_glide_gscore>  (229) 
-3.86156

>  <r_i_glide_lipo>  (229) 
-0.744101

>  <r_i_glide_hbond>  (229) 
0

>  <r_i_glide_metal>  (229) 
-0

>  <r_i_glide_rewards>  (229) 
-1.63367

>  <r_i_glide_evdw>  (229) 
-16.9137

>  <r_i_glide_ecoul>  (229) 
-4.18492

>  <r_i_glide_erotb>  (229) 
0

>  <r_i_glide_esite>  (229) 
-0.0103658

>  <r_i_glide_emodel>  (229) 
-26.1107

>  <r_i_glide_energy>  (229) 
-21.0986

>  <r_i_glide_einternal>  (229) 
1.14583

>  <r_i_glide_intrahb_reward>  (229) 
-0

>  <i_i_glide_confnum>  (229) 
1

>  <i_i_glide_posenum>  (229) 
9

>  <r_i_glide_eff_state_penalty>  (229) 
0

>  <ligand_id>  (229) 
72

>  <original_smiles>  (229) 
CCC12C=CCN3CC4CCC(C5C(O)CC1C53)C42

>  <smiles>  (229) 
[H]OC1([H])C([H])([H])C2([H])C3(C([H])([H])C([H])([H])[H])C([H])=C([H])C([H])([H])[N+]4([H])C([H])([H])C5([H])C([H])([H])C([H])([H])C([H])(C53[H])C1([H])C24[H]

$$$$
75:1:0
     RDKit          3D

 56 60  0  0  1  0  0  0  0  0999 V2000
    8.1316   -1.7121    0.2359 C   0  0  0  0  0  0  0  0  0  0  0  0
    6.9414   -2.2689    0.8619 C   0  0  0  0  0  0  0  0  0  0  0  0
    5.9402   -2.7370    1.4033 C   0  0  0  0  0  0  0  0  0  0  0  0
    4.7480   -3.2831    1.9912 C   0  0  0  0  0  0  0  0  0  0  0  0
    3.7239   -2.4190    2.4487 C   0  0  0  0  0  0  0  0  0  0  0  0
    2.5516   -2.9366    3.0411 C   0  0  0  0  0  0  0  0  0  0  0  0
    2.4405   -4.3331    3.1698 C   0  0  0  0  0  0  0  0  0  0  0  0
    3.4572   -5.1870    2.7245 C   0  0  0  0  0  0  0  0  0  0  0  0
    4.6217   -4.6808    2.1209 C   0  0  0  0  0  0  0  0  0  0  0  0
    3.2422   -6.6164    3.1380 C   0  0  1  0  0  0  0  0  0  0  0  0
    3.4153   -7.4132    1.9255 N   0  0  0  0  0  0  0  0  0  0  0  0
    3.5940   -8.6761    2.0032 C   0  0  0  0  0  0  0  0  0  0  0  0
    3.6714   -9.4359    0.8809 N   0  0  0  0  0  0  0  0  0  0  0  0
    3.7542   -9.4313    3.3120 C   0  0  0  0  0  0  0  0  0  0  0  0
    4.4353   -8.5658    4.3836 C   0  0  2  0  0  0  0  0  0  0  0  0
    3.8965   -8.8496    5.6739 O   0  0  0  0  0  0  0  0  0  0  0  0
    3.8995   -7.6944    6.3894 C   0  0  0  0  0  0  0  0  0  0  0  0
    3.6454   -7.8471    7.7325 N   0  0  0  0  0  0  0  0  0  0  0  0
    4.1727   -6.6122    5.6450 C   0  0  0  0  0  0  0  0  0  0  0  0
    4.4329   -5.2418    6.1719 C   0  0  0  0  0  0  0  0  0  0  0  0
    4.9798   -4.1578    5.2513 C   0  0  0  0  0  0  0  0  0  0  0  0
    4.2446   -4.9295    7.3464 O   0  0  0  0  0  0  0  0  0  0  0  0
    4.3480   -7.0254    4.1962 C   0  0  2  0  0  0  0  0  0  0  0  0
    1.7337   -6.5471    3.6340 C   0  0  2  0  0  0  0  0  0  0  0  0
    1.3745   -5.0685    3.9131 C   0  0  0  0  0  0  0  0  0  0  0  0
    1.4745   -7.3845    4.7649 N   0  0  0  0  0  0  0  0  0  0  0  0
    0.5166   -8.3319    4.4903 C   0  0  0  0  0  0  0  0  0  0  0  0
    0.1932   -9.2905    5.2491 N   0  0  0  0  0  0  0  0  0  0  0  0
    0.0246   -8.0743    3.2176 N   0  0  0  0  0  0  0  0  0  0  0  0
   -1.0769   -8.8054    2.6046 C   0  0  0  0  0  0  0  0  0  0  0  0
    0.6837   -7.0556    2.6412 C   0  0  0  0  0  0  0  0  0  0  0  0
    0.4479   -6.5487    1.5605 O   0  0  0  0  0  0  0  0  0  0  0  0
    8.2644   -2.1503   -0.7542 H   0  0  0  0  0  0  0  0  0  0  0  0
    9.0036   -1.9275    0.8530 H   0  0  0  0  0  0  0  0  0  0  0  0
    8.0084   -0.6349    0.1613 H   0  0  0  0  0  0  0  0  0  0  0  0
    3.8489   -1.3513    2.3614 H   0  0  0  0  0  0  0  0  0  0  0  0
    1.8042   -2.2776    3.4558 H   0  0  0  0  0  0  0  0  0  0  0  0
    5.4309   -5.3438    1.8502 H   0  0  0  0  0  0  0  0  0  0  0  0
    3.5405   -9.0700   -0.0330 H   0  0  0  0  0  0  0  0  0  0  0  0
    3.8231  -10.4778    0.8503 H   0  0  0  0  0  0  0  0  0  0  0  0
    2.7780   -9.7701    3.6584 H   0  0  0  0  0  0  0  0  0  0  0  0
    4.3365  -10.3413    3.1693 H   0  0  0  0  0  0  0  0  0  0  0  0
    5.4914   -8.8297    4.4379 H   0  0  0  0  0  0  0  0  0  0  0  0
    3.6663   -7.0781    8.3885 H   0  0  0  0  0  0  0  0  0  0  0  0
    3.4741   -8.7691    8.1100 H   0  0  0  0  0  0  0  0  0  0  0  0
    5.8315   -4.4922    4.6563 H   0  0  0  0  0  0  0  0  0  0  0  0
    5.1586   -3.2020    5.7379 H   0  0  0  0  0  0  0  0  0  0  0  0
    4.2071   -3.8836    4.5805 H   0  0  0  0  0  0  0  0  0  0  0  0
    5.3181   -6.6923    3.8334 H   0  0  0  0  0  0  0  0  0  0  0  0
    1.3932   -4.8604    4.9871 H   0  0  0  0  0  0  0  0  0  0  0  0
    0.3975   -4.7623    3.5405 H   0  0  0  0  0  0  0  0  0  0  0  0
    2.2716   -7.6110    5.3433 H   0  0  0  0  0  0  0  0  0  0  0  0
   -1.9032   -8.1343    2.3721 H   0  0  0  0  0  0  0  0  0  0  0  0
   -1.4563   -9.5989    3.2413 H   0  0  0  0  0  0  0  0  0  0  0  0
   -0.7425   -9.2684    1.6880 H   0  0  0  0  0  0  0  0  0  0  0  0
    0.7198   -9.2659    6.1132 H   0  0  0  0  0  0  0  0  0  0  0  0
  1  2  1  0
  1 33  1  0
  1 34  1  0
  1 35  1  0
  2  3  3  0
  3  4  1  0
  4  9  2  0
  4  5  1  0
  5  6  2  0
  5 36  1  0
  6  7  1  0
  6 37  1  0
  7 25  1  0
  7  8  2  0
  8  9  1  0
  8 10  1  0
  9 38  1  0
 10 23  1  0
 10 11  1  6
 10 24  1  0
 11 12  2  0
 12 13  1  0
 12 14  1  0
 13 39  1  0
 13 40  1  0
 14 15  1  0
 14 41  1  0
 14 42  1  0
 15 23  1  0
 15 16  1  0
 15 43  1  1
 16 17  1  0
 17 19  2  0
 17 18  1  0
 18 44  1  0
 18 45  1  0
 19 20  1  0
 19 23  1  0
 20 22  2  0
 20 21  1  0
 21 46  1  0
 21 47  1  0
 21 48  1  0
 23 49  1  6
 24 26  1  1
 24 31  1  0
 24 25  1  0
 25 50  1  0
 25 51  1  0
 26 27  1  0
 26 52  1  0
 27 29  1  0
 27 28  2  0
 28 56  1  0
 29 31  1  0
 29 30  1  0
 30 53  1  0
 30 54  1  0
 30 55  1  0
 31 32  2  0
M  END
>  <i_m_ct_stereo_status>  (230) 
1

>  <s_m_source_file>  (230) 
/var/tmp/pbs.5076255.sched01/tmpelb551ou/82hj6rxffr.sdf

>  <i_m_source_file_index>  (230) 
20

>  <i_lp_mmshare_version>  (230) 
48012

>  <i_f3d_flags>  (230) 
0

>  <s_epik_input>  (230) 
W0NIM11DI0NjKFtjSF1bY0hdMSlbY0hdYzJjMVtDSDJdW0NAXTMoTj1DKFtOSDJdKU4oW0NIM10pQzM9TylbQ0BdMjRbQ0BASF01W0NASF0oW0NIMl1DKD1ONClbTkgyXSlPL0MoPU5cW0hdKVtDQEhdNUMoPU8pW0NIM10=

>  <s_epik_cmdline>  (230) 
J2VwaWtfcHl0aG9uJywgJy1waHQnLCAnMi4wJywgJy1waCcsICc3LjAnLCAnLXRuJywgJzgnLCAnLW1hJywgJzIwMCcsICctaW1hZScsICc8aW5maWxlLm1hZT4nLCAnLW9tYWUnLCAnPG91dGZpbGUubWFlPic=

>  <r_lp_tautomer_probability>  (230) 
0.49964

>  <r_epik_Ionization_Penalty>  (230) 
6.90935

>  <r_epik_Ionization_Penalty_Charging>  (230) 
0

>  <r_epik_Ionization_Penalty_Neutral>  (230) 
6.90935

>  <r_epik_State_Penalty>  (230) 
2.04001

>  <r_epik_Charging_Adjusted_Penalty>  (230) 
2.04001

>  <i_epik_Tot_Q>  (230) 
0

>  <i_epik_Tot_abs_Q>  (230) 
0

>  <s_epik_Chemistry_Notes>  (230) 
This compound has an imine and may undergo hydrolysis.

>  <s_lp_Force_Field>  (230) 
OPLS3e

>  <r_lp_Energy>  (230) 
10.5507

>  <b_lp_Chiralities_Consistent>  (230) 
1

>  <s_lp_Variant>  (230) 
75:0-2

>  <s_i_glide_gridfile>  (230) 
pfpi4k_grid

>  <i_i_glide_lignum>  (230) 
20

>  <i_i_glide_rotatable_bonds>  (230) 
2

>  <r_i_docking_score>  (230) 
-2.92035

>  <r_i_glide_ligand_efficiency>  (230) 
-0.091261

>  <r_i_glide_ligand_efficiency_sa>  (230) 
-0.289736

>  <r_i_glide_ligand_efficiency_ln>  (230) 
-0.653947

>  <r_i_glide_gscore>  (230) 
-2.92035

>  <r_i_glide_lipo>  (230) 
-0.209499

>  <r_i_glide_hbond>  (230) 
-0.278875

>  <r_i_glide_metal>  (230) 
-0

>  <r_i_glide_rewards>  (230) 
-0.460397

>  <r_i_glide_evdw>  (230) 
-24.1329

>  <r_i_glide_ecoul>  (230) 
-4.52184

>  <r_i_glide_erotb>  (230) 
0.106391

>  <r_i_glide_esite>  (230) 
-0.193052

>  <r_i_glide_emodel>  (230) 
-29.9429

>  <r_i_glide_energy>  (230) 
-28.6548

>  <r_i_glide_einternal>  (230) 
3.43616

>  <r_i_glide_intrahb_reward>  (230) 
-0

>  <i_i_glide_confnum>  (230) 
2

>  <i_i_glide_posenum>  (230) 
7

>  <r_i_glide_eff_state_penalty>  (230) 
0

>  <ligand_id>  (230) 
75

>  <original_smiles>  (230) 
CC#Cc1ccc2c(c1)C1(N=C(N)CC3OC(=N)C(C(C)=O)C31)C1(C2)N=C(N)N(C)C1=O

>  <smiles>  (230) 
[H]N=C1N(C([H])([H])[H])C(=O)C2(N1[H])C([H])([H])c1c([H])c([H])c(C#CC([H])([H])[H])c([H])c1C21N=C(N([H])[H])C([H])([H])C2([H])OC(N([H])[H])=C(C(=O)C([H])([H])[H])C21[H]

$$$$
75:1:1
     RDKit          3D

 56 60  0  0  1  0  0  0  0  0999 V2000
    5.8409   -2.9257   -3.1034 C   0  0  0  0  0  0  0  0  0  0  0  0
    5.0872   -3.2191   -1.8804 C   0  0  0  0  0  0  0  0  0  0  0  0
    4.4585   -3.4420   -0.8767 C   0  0  0  0  0  0  0  0  0  0  0  0
    3.6787   -3.7246    0.3001 C   0  0  0  0  0  0  0  0  0  0  0  0
    2.9260   -2.6944    0.9001 C   0  0  0  0  0  0  0  0  0  0  0  0
    2.2045   -2.9344    2.0897 C   0  0  0  0  0  0  0  0  0  0  0  0
    2.2485   -4.2252    2.6379 C   0  0  0  0  0  0  0  0  0  0  0  0
    3.0028   -5.2340    2.0458 C   0  0  0  0  0  0  0  0  0  0  0  0
    3.7241   -5.0102    0.8618 C   0  0  0  0  0  0  0  0  0  0  0  0
    3.0389   -6.4877    2.8741 C   0  0  1  0  0  0  0  0  0  0  0  0
    2.7074   -7.6006    1.9820 N   0  0  0  0  0  0  0  0  0  0  0  0
    2.9997   -8.8098    2.3223 C   0  0  0  0  0  0  0  0  0  0  0  0
    2.6138   -9.8547    1.5557 N   0  0  0  0  0  0  0  0  0  0  0  0
    3.7636   -9.1692    3.5894 C   0  0  0  0  0  0  0  0  0  0  0  0
    4.7848   -8.0841    3.9723 C   0  0  2  0  0  0  0  0  0  0  0  0
    4.8750   -7.9670    5.3924 O   0  0  0  0  0  0  0  0  0  0  0  0
    5.1058   -6.6594    5.6798 C   0  0  0  0  0  0  0  0  0  0  0  0
    5.4721   -6.4173    6.9800 N   0  0  0  0  0  0  0  0  0  0  0  0
    4.9709   -5.8494    4.6178 C   0  0  0  0  0  0  0  0  0  0  0  0
    5.3136   -4.4042    4.5714 C   0  0  0  0  0  0  0  0  0  0  0  0
    5.4886   -3.7161    3.2159 C   0  0  0  0  0  0  0  0  0  0  0  0
    5.4895   -3.7354    5.5890 O   0  0  0  0  0  0  0  0  0  0  0  0
    4.5212   -6.6557    3.4183 C   0  0  2  0  0  0  0  0  0  0  0  0
    1.8848   -6.1964    3.9313 C   0  0  2  0  0  0  0  0  0  0  0  0
    1.6057   -4.6733    3.9186 C   0  0  0  0  0  0  0  0  0  0  0  0
    2.2026   -6.6714    5.2609 N   0  0  0  0  0  0  0  0  0  0  0  0
    1.2871   -7.5966    5.7221 C   0  0  0  0  0  0  0  0  0  0  0  0
    1.3456   -8.2774    6.7886 N   0  0  0  0  0  0  0  0  0  0  0  0
    0.2788   -7.6527    4.7409 N   0  0  0  0  0  0  0  0  0  0  0  0
   -0.9304   -8.4714    4.8858 C   0  0  0  0  0  0  0  0  0  0  0  0
    0.5392   -6.8914    3.6772 C   0  0  0  0  0  0  0  0  0  0  0  0
   -0.1595   -6.6785    2.6482 O   0  0  0  0  0  0  0  0  0  0  0  0
    5.8175   -3.7941   -3.7638 H   0  0  0  0  0  0  0  0  0  0  0  0
    6.8722   -2.6900   -2.8296 H   0  0  0  0  0  0  0  0  0  0  0  0
    5.3826   -2.0697   -3.5996 H   0  0  0  0  0  0  0  0  0  0  0  0
    2.8998   -1.7093    0.4672 H   0  0  0  0  0  0  0  0  0  0  0  0
    1.6271   -2.1578    2.5614 H   0  0  0  0  0  0  0  0  0  0  0  0
    4.3524   -5.7853    0.4521 H   0  0  0  0  0  0  0  0  0  0  0  0
    2.0704   -9.7416    0.7138 H   0  0  0  0  0  0  0  0  0  0  0  0
    2.8709  -10.8396    1.7339 H   0  0  0  0  0  0  0  0  0  0  0  0
    3.0503   -9.3382    4.4013 H   0  0  0  0  0  0  0  0  0  0  0  0
    4.2777  -10.1236    3.4595 H   0  0  0  0  0  0  0  0  0  0  0  0
    5.7724   -8.4016    3.6286 H   0  0  0  0  0  0  0  0  0  0  0  0
    5.7138   -5.4975    7.3178 H   0  0  0  0  0  0  0  0  0  0  0  0
    5.5384   -7.1771    7.6402 H   0  0  0  0  0  0  0  0  0  0  0  0
    6.1725   -4.2736    2.5677 H   0  0  0  0  0  0  0  0  0  0  0  0
    5.8166   -2.6820    3.3199 H   0  0  0  0  0  0  0  0  0  0  0  0
    4.5369   -3.6411    2.7278 H   0  0  0  0  0  0  0  0  0  0  0  0
    5.2141   -6.5090    2.5928 H   0  0  0  0  0  0  0  0  0  0  0  0
    2.0605   -4.1749    4.7775 H   0  0  0  0  0  0  0  0  0  0  0  0
    0.5438   -4.4199    3.9174 H   0  0  0  0  0  0  0  0  0  0  0  0
    3.1915   -6.7642    5.4660 H   0  0  0  0  0  0  0  0  0  0  0  0
   -1.8160   -7.8270    4.8611 H   0  0  0  0  0  0  0  0  0  0  0  0
   -0.9490   -9.0371    5.8171 H   0  0  0  0  0  0  0  0  0  0  0  0
   -1.0048   -9.1884    4.0593 H   0  0  0  0  0  0  0  0  0  0  0  0
    2.2072   -8.0308    7.2491 H   0  0  0  0  0  0  0  0  0  0  0  0
  1  2  1  0
  1 33  1  0
  1 34  1  0
  1 35  1  0
  2  3  3  0
  3  4  1  0
  4  9  2  0
  4  5  1  0
  5  6  2  0
  5 36  1  0
  6  7  1  0
  6 37  1  0
  7 25  1  0
  7  8  2  0
  8  9  1  0
  8 10  1  0
  9 38  1  0
 10 23  1  0
 10 11  1  6
 10 24  1  0
 11 12  2  0
 12 13  1  0
 12 14  1  0
 13 39  1  0
 13 40  1  0
 14 15  1  0
 14 41  1  0
 14 42  1  0
 15 23  1  0
 15 16  1  0
 15 43  1  6
 16 17  1  0
 17 19  2  0
 17 18  1  0
 18 44  1  0
 18 45  1  0
 19 20  1  0
 19 23  1  0
 20 22  2  0
 20 21  1  0
 21 46  1  0
 21 47  1  0
 21 48  1  0
 23 49  1  6
 24 26  1  1
 24 31  1  0
 24 25  1  0
 25 50  1  0
 25 51  1  0
 26 27  1  0
 26 52  1  0
 27 29  1  0
 27 28  2  0
 28 56  1  0
 29 31  1  0
 29 30  1  0
 30 53  1  0
 30 54  1  0
 30 55  1  0
 31 32  2  0
M  END
>  <i_m_ct_stereo_status>  (231) 
1

>  <s_m_source_file>  (231) 
/var/tmp/pbs.5076255.sched01/tmpelb551ou/82hj6rxffr.sdf

>  <i_m_source_file_index>  (231) 
20

>  <i_lp_mmshare_version>  (231) 
48012

>  <i_f3d_flags>  (231) 
0

>  <s_epik_input>  (231) 
W0NIM11DI0NjKFtjSF1bY0hdMSlbY0hdYzJjMVtDSDJdW0NAXTMoTj1DKFtOSDJdKU4oW0NIM10pQzM9TylbQ0BdMjRbQ0BASF01W0NASF0oW0NIMl1DKD1ONClbTkgyXSlPL0MoPU5cW0hdKVtDQEhdNUMoPU8pW0NIM10=

>  <s_epik_cmdline>  (231) 
J2VwaWtfcHl0aG9uJywgJy1waHQnLCAnMi4wJywgJy1waCcsICc3LjAnLCAnLXRuJywgJzgnLCAnLW1hJywgJzIwMCcsICctaW1hZScsICc8aW5maWxlLm1hZT4nLCAnLW9tYWUnLCAnPG91dGZpbGUubWFlPic=

>  <r_lp_tautomer_probability>  (231) 
0.49964

>  <r_epik_Ionization_Penalty>  (231) 
6.90935

>  <r_epik_Ionization_Penalty_Charging>  (231) 
0

>  <r_epik_Ionization_Penalty_Neutral>  (231) 
6.90935

>  <r_epik_State_Penalty>  (231) 
2.04001

>  <r_epik_Charging_Adjusted_Penalty>  (231) 
2.04001

>  <i_epik_Tot_Q>  (231) 
0

>  <i_epik_Tot_abs_Q>  (231) 
0

>  <s_epik_Chemistry_Notes>  (231) 
This compound has an imine and may undergo hydrolysis.

>  <s_lp_Force_Field>  (231) 
OPLS3e

>  <r_lp_Energy>  (231) 
10.5507

>  <b_lp_Chiralities_Consistent>  (231) 
1

>  <s_lp_Variant>  (231) 
75:0-2

>  <s_i_glide_gridfile>  (231) 
pfpi4k_grid

>  <i_i_glide_lignum>  (231) 
20

>  <i_i_glide_rotatable_bonds>  (231) 
2

>  <r_i_docking_score>  (231) 
-2.88848

>  <r_i_glide_ligand_efficiency>  (231) 
-0.090265

>  <r_i_glide_ligand_efficiency_sa>  (231) 
-0.286573

>  <r_i_glide_ligand_efficiency_ln>  (231) 
-0.646809

>  <r_i_glide_gscore>  (231) 
-2.88848

>  <r_i_glide_lipo>  (231) 
-0.241938

>  <r_i_glide_hbond>  (231) 
-0.307141

>  <r_i_glide_metal>  (231) 
-0

>  <r_i_glide_rewards>  (231) 
-0.461572

>  <r_i_glide_evdw>  (231) 
-23.0825

>  <r_i_glide_ecoul>  (231) 
-4.85175

>  <r_i_glide_erotb>  (231) 
0.106391

>  <r_i_glide_esite>  (231) 
-0.10233

>  <r_i_glide_emodel>  (231) 
-29.929

>  <r_i_glide_energy>  (231) 
-27.9343

>  <r_i_glide_einternal>  (231) 
3.08314

>  <r_i_glide_intrahb_reward>  (231) 
-0

>  <i_i_glide_confnum>  (231) 
1

>  <i_i_glide_posenum>  (231) 
23

>  <r_i_glide_eff_state_penalty>  (231) 
0

>  <ligand_id>  (231) 
75

>  <original_smiles>  (231) 
CC#Cc1ccc2c(c1)C1(N=C(N)CC3OC(=N)C(C(C)=O)C31)C1(C2)N=C(N)N(C)C1=O

>  <smiles>  (231) 
[H]N=C1N(C([H])([H])[H])C(=O)C2(N1[H])C([H])([H])c1c([H])c([H])c(C#CC([H])([H])[H])c([H])c1C21N=C(N([H])[H])C([H])([H])C2([H])OC(N([H])[H])=C(C(=O)C([H])([H])[H])C21[H]

$$$$
75:1:2
     RDKit          3D

 56 60  0  0  1  0  0  0  0  0999 V2000
    5.8941   -2.9433   -2.9899 C   0  0  0  0  0  0  0  0  0  0  0  0
    5.1468   -3.2156   -1.7651 C   0  0  0  0  0  0  0  0  0  0  0  0
    4.5077   -3.4398   -0.7478 C   0  0  0  0  0  0  0  0  0  0  0  0
    3.7382   -3.7075    0.4247 C   0  0  0  0  0  0  0  0  0  0  0  0
    2.9624   -2.6822    1.0140 C   0  0  0  0  0  0  0  0  0  0  0  0
    2.2177   -2.9262    2.1839 C   0  0  0  0  0  0  0  0  0  0  0  0
    2.2635   -4.2104    2.7410 C   0  0  0  0  0  0  0  0  0  0  0  0
    3.0355   -5.2152    2.1676 C   0  0  0  0  0  0  0  0  0  0  0  0
    3.7753   -4.9921    0.9939 C   0  0  0  0  0  0  0  0  0  0  0  0
    3.0253   -6.4822    2.9737 C   0  0  1  0  0  0  0  0  0  0  0  0
    2.7272   -7.5749    2.0668 N   0  0  0  0  0  0  0  0  0  0  0  0
    2.9934   -8.7887    2.4151 C   0  0  0  0  0  0  0  0  0  0  0  0
    2.6094   -9.8518    1.6403 N   0  0  0  0  0  0  0  0  0  0  0  0
    3.7250   -9.1698    3.6919 C   0  0  0  0  0  0  0  0  0  0  0  0
    4.7485   -8.0957    4.0988 C   0  0  2  0  0  0  0  0  0  0  0  0
    4.8199   -7.9823    5.5187 O   0  0  0  0  0  0  0  0  0  0  0  0
    5.0448   -6.6735    5.8139 C   0  0  0  0  0  0  0  0  0  0  0  0
    5.3740   -6.4369    7.1261 N   0  0  0  0  0  0  0  0  0  0  0  0
    4.9243   -5.8573    4.7573 C   0  0  0  0  0  0  0  0  0  0  0  0
    5.2322   -4.4089    4.6998 C   0  0  0  0  0  0  0  0  0  0  0  0
    5.6848   -3.6859    5.9614 C   0  0  0  0  0  0  0  0  0  0  0  0
    5.1690   -3.7546    3.6648 O   0  0  0  0  0  0  0  0  0  0  0  0
    4.5051   -6.6632    3.5490 C   0  0  2  0  0  0  0  0  0  0  0  0
    1.8598   -6.1908    4.0005 C   0  0  2  0  0  0  0  0  0  0  0  0
    1.5783   -4.6677    3.9964 C   0  0  0  0  0  0  0  0  0  0  0  0
    2.1268   -6.6711    5.3495 N   0  0  0  0  0  0  0  0  0  0  0  0
    1.2097   -7.5861    5.7701 C   0  0  0  0  0  0  0  0  0  0  0  0
    1.2460   -8.2747    6.8374 N   0  0  0  0  0  0  0  0  0  0  0  0
    0.2330   -7.6652    4.8134 N   0  0  0  0  0  0  0  0  0  0  0  0
   -0.9939   -8.4753    4.9040 C   0  0  0  0  0  0  0  0  0  0  0  0
    0.5225   -6.8925    3.7449 C   0  0  0  0  0  0  0  0  0  0  0  0
   -0.1907   -6.6888    2.6975 O   0  0  0  0  0  0  0  0  0  0  0  0
    6.9145   -2.6588   -2.7205 H   0  0  0  0  0  0  0  0  0  0  0  0
    5.4044   -2.1280   -3.5231 H   0  0  0  0  0  0  0  0  0  0  0  0
    5.9037   -3.8385   -3.6135 H   0  0  0  0  0  0  0  0  0  0  0  0
    2.9242   -1.7041    0.5615 H   0  0  0  0  0  0  0  0  0  0  0  0
    1.6123   -2.1500    2.6380 H   0  0  0  0  0  0  0  0  0  0  0  0
    4.3922   -5.7765    0.5857 H   0  0  0  0  0  0  0  0  0  0  0  0
    2.0836   -9.7422    0.7870 H   0  0  0  0  0  0  0  0  0  0  0  0
    2.8599  -10.8129    1.8129 H   0  0  0  0  0  0  0  0  0  0  0  0
    3.0000   -9.3406    4.4892 H   0  0  0  0  0  0  0  0  0  0  0  0
    4.2393  -10.1239    3.5679 H   0  0  0  0  0  0  0  0  0  0  0  0
    5.7376   -8.4122    3.7669 H   0  0  0  0  0  0  0  0  0  0  0  0
    5.6225   -5.5212    7.4817 H   0  0  0  0  0  0  0  0  0  0  0  0
    5.4356   -7.1987    7.7848 H   0  0  0  0  0  0  0  0  0  0  0  0
    4.9446   -3.8042    6.7484 H   0  0  0  0  0  0  0  0  0  0  0  0
    5.8117   -2.6204    5.7692 H   0  0  0  0  0  0  0  0  0  0  0  0
    6.6387   -4.0856    6.2978 H   0  0  0  0  0  0  0  0  0  0  0  0
    5.2146   -6.5095    2.7335 H   0  0  0  0  0  0  0  0  0  0  0  0
    2.0131   -4.1717    4.8708 H   0  0  0  0  0  0  0  0  0  0  0  0
    0.5198   -4.4051    3.9644 H   0  0  0  0  0  0  0  0  0  0  0  0
    3.1249   -6.7730    5.5659 H   0  0  0  0  0  0  0  0  0  0  0  0
   -1.8710   -7.8248    4.8673 H   0  0  0  0  0  0  0  0  0  0  0  0
   -1.0060   -9.0349    5.8268 H   0  0  0  0  0  0  0  0  0  0  0  0
   -1.0475   -9.1846    4.0729 H   0  0  0  0  0  0  0  0  0  0  0  0
    2.0913   -8.0448    7.3172 H   0  0  0  0  0  0  0  0  0  0  0  0
  1  2  1  0
  1 33  1  0
  1 34  1  0
  1 35  1  0
  2  3  3  0
  3  4  1  0
  4  9  2  0
  4  5  1  0
  5  6  2  0
  5 36  1  0
  6  7  1  0
  6 37  1  0
  7 25  1  0
  7  8  2  0
  8  9  1  0
  8 10  1  0
  9 38  1  0
 10 23  1  0
 10 11  1  6
 10 24  1  0
 11 12  2  0
 12 13  1  0
 12 14  1  0
 13 39  1  0
 13 40  1  0
 14 15  1  0
 14 41  1  0
 14 42  1  0
 15 23  1  0
 15 16  1  0
 15 43  1  6
 16 17  1  0
 17 19  2  0
 17 18  1  0
 18 44  1  0
 18 45  1  0
 19 20  1  0
 19 23  1  0
 20 22  2  0
 20 21  1  0
 21 46  1  0
 21 47  1  0
 21 48  1  0
 23 49  1  6
 24 26  1  1
 24 31  1  0
 24 25  1  0
 25 50  1  0
 25 51  1  0
 26 27  1  0
 26 52  1  0
 27 29  1  0
 27 28  2  0
 28 56  1  0
 29 31  1  0
 29 30  1  0
 30 53  1  0
 30 54  1  0
 30 55  1  0
 31 32  2  0
M  END
>  <i_m_ct_stereo_status>  (232) 
1

>  <s_m_source_file>  (232) 
/var/tmp/pbs.5076255.sched01/tmpelb551ou/82hj6rxffr.sdf

>  <i_m_source_file_index>  (232) 
20

>  <i_lp_mmshare_version>  (232) 
48012

>  <i_f3d_flags>  (232) 
0

>  <s_epik_input>  (232) 
W0NIM11DI0NjKFtjSF1bY0hdMSlbY0hdYzJjMVtDSDJdW0NAXTMoTj1DKFtOSDJdKU4oW0NIM10pQzM9TylbQ0BdMjRbQ0BASF01W0NASF0oW0NIMl1DKD1ONClbTkgyXSlPL0MoPU5cW0hdKVtDQEhdNUMoPU8pW0NIM10=

>  <s_epik_cmdline>  (232) 
J2VwaWtfcHl0aG9uJywgJy1waHQnLCAnMi4wJywgJy1waCcsICc3LjAnLCAnLXRuJywgJzgnLCAnLW1hJywgJzIwMCcsICctaW1hZScsICc8aW5maWxlLm1hZT4nLCAnLW9tYWUnLCAnPG91dGZpbGUubWFlPic=

>  <r_lp_tautomer_probability>  (232) 
0.49964

>  <r_epik_Ionization_Penalty>  (232) 
6.90935

>  <r_epik_Ionization_Penalty_Charging>  (232) 
0

>  <r_epik_Ionization_Penalty_Neutral>  (232) 
6.90935

>  <r_epik_State_Penalty>  (232) 
2.04001

>  <r_epik_Charging_Adjusted_Penalty>  (232) 
2.04001

>  <i_epik_Tot_Q>  (232) 
0

>  <i_epik_Tot_abs_Q>  (232) 
0

>  <s_epik_Chemistry_Notes>  (232) 
This compound has an imine and may undergo hydrolysis.

>  <s_lp_Force_Field>  (232) 
OPLS3e

>  <r_lp_Energy>  (232) 
10.5507

>  <b_lp_Chiralities_Consistent>  (232) 
1

>  <s_lp_Variant>  (232) 
75:0-2

>  <s_i_glide_gridfile>  (232) 
pfpi4k_grid

>  <i_i_glide_lignum>  (232) 
20

>  <i_i_glide_rotatable_bonds>  (232) 
2

>  <r_i_docking_score>  (232) 
-2.79632

>  <r_i_glide_ligand_efficiency>  (232) 
-0.0873849

>  <r_i_glide_ligand_efficiency_sa>  (232) 
-0.27743

>  <r_i_glide_ligand_efficiency_ln>  (232) 
-0.626171

>  <r_i_glide_gscore>  (232) 
-2.79632

>  <r_i_glide_lipo>  (232) 
-0.256566

>  <r_i_glide_hbond>  (232) 
-0.257285

>  <r_i_glide_metal>  (232) 
-0

>  <r_i_glide_rewards>  (232) 
-0.461508

>  <r_i_glide_evdw>  (232) 
-23.8053

>  <r_i_glide_ecoul>  (232) 
-4.26136

>  <r_i_glide_erotb>  (232) 
0.106391

>  <r_i_glide_esite>  (232) 
-0.0978788

>  <r_i_glide_emodel>  (232) 
-32.4825

>  <r_i_glide_energy>  (232) 
-28.0667

>  <r_i_glide_einternal>  (232) 
0.135261

>  <r_i_glide_intrahb_reward>  (232) 
-0

>  <i_i_glide_confnum>  (232) 
1

>  <i_i_glide_posenum>  (232) 
1

>  <r_i_glide_eff_state_penalty>  (232) 
0

>  <ligand_id>  (232) 
75

>  <original_smiles>  (232) 
CC#Cc1ccc2c(c1)C1(N=C(N)CC3OC(=N)C(C(C)=O)C31)C1(C2)N=C(N)N(C)C1=O

>  <smiles>  (232) 
[H]N=C1N(C([H])([H])[H])C(=O)C2(N1[H])C([H])([H])c1c([H])c([H])c(C#CC([H])([H])[H])c([H])c1C21N=C(N([H])[H])C([H])([H])C2([H])OC(N([H])[H])=C(C(=O)C([H])([H])[H])C21[H]

$$$$
75:2:0
     RDKit          3D

 56 60  0  0  1  0  0  0  0  0999 V2000
    8.1186   -1.8679    0.2423 C   0  0  0  0  0  0  0  0  0  0  0  0
    6.8761   -2.3631    0.8484 C   0  0  0  0  0  0  0  0  0  0  0  0
    5.8521   -2.7691    1.3547 C   0  0  0  0  0  0  0  0  0  0  0  0
    4.6209   -3.2730    1.9049 C   0  0  0  0  0  0  0  0  0  0  0  0
    3.6161   -2.3735    2.3234 C   0  0  0  0  0  0  0  0  0  0  0  0
    2.4346   -2.8363    2.9387 C   0  0  0  0  0  0  0  0  0  0  0  0
    2.3032   -4.2136    3.1493 C   0  0  0  0  0  0  0  0  0  0  0  0
    3.3116   -5.0937    2.7660 C   0  0  0  0  0  0  0  0  0  0  0  0
    4.4750   -4.6509    2.1175 C   0  0  0  0  0  0  0  0  0  0  0  0
    3.0272   -6.5115    3.1802 C   0  0  1  0  0  0  0  0  0  0  0  0
    3.2236   -7.3589    1.9982 N   0  0  0  0  0  0  0  0  0  0  0  0
    3.3868   -8.6262    2.1342 C   0  0  0  0  0  0  0  0  0  0  0  0
    3.4645   -9.4348    1.0354 N   0  0  0  0  0  0  0  0  0  0  0  0
    3.4554   -9.3320    3.4918 C   0  0  0  0  0  0  0  0  0  0  0  0
    4.1267   -8.4473    4.5558 C   0  0  2  0  0  0  0  0  0  0  0  0
    3.5427   -8.6727    5.8414 O   0  0  0  0  0  0  0  0  0  0  0  0
    3.5346   -7.4773    6.4953 C   0  0  0  0  0  0  0  0  0  0  0  0
    3.2446   -7.5509    7.8364 N   0  0  0  0  0  0  0  0  0  0  0  0
    3.8895   -6.4394    5.7202 C   0  0  0  0  0  0  0  0  0  0  0  0
    4.1253   -5.0463    6.1728 C   0  0  0  0  0  0  0  0  0  0  0  0
    5.0640   -4.1485    5.3595 C   0  0  0  0  0  0  0  0  0  0  0  0
    3.6066   -4.5949    7.1940 O   0  0  0  0  0  0  0  0  0  0  0  0
    4.0940   -6.9069    4.2945 C   0  0  2  0  0  0  0  0  0  0  0  0
    1.4798   -6.4237    3.6180 C   0  0  2  0  0  0  0  0  0  0  0  0
    1.1720   -4.9111    3.8450 C   0  0  0  0  0  0  0  0  0  0  0  0
    1.1338   -7.2096    4.7877 N   0  0  0  0  0  0  0  0  0  0  0  0
    0.1750   -8.1594    4.5456 C   0  0  0  0  0  0  0  0  0  0  0  0
   -0.2232   -9.0634    5.3685 N   0  0  0  0  0  0  0  0  0  0  0  0
   -0.2515   -7.9611    3.2336 N   0  0  0  0  0  0  0  0  0  0  0  0
   -1.3407   -8.6702    2.5760 C   0  0  0  0  0  0  0  0  0  0  0  0
    0.4349   -6.9580    2.5820 C   0  0  0  0  0  0  0  0  0  0  0  0
    0.2053   -6.5060    1.4675 O   0  0  0  0  0  0  0  0  0  0  0  0
    8.0808   -2.0214   -0.8391 H   0  0  0  0  0  0  0  0  0  0  0  0
    8.9689   -2.4209    0.6533 H   0  0  0  0  0  0  0  0  0  0  0  0
    8.2349   -0.8013    0.4594 H   0  0  0  0  0  0  0  0  0  0  0  0
    3.7455   -1.3144    2.1947 H   0  0  0  0  0  0  0  0  0  0  0  0
    1.6624   -2.1583    3.2767 H   0  0  0  0  0  0  0  0  0  0  0  0
    5.2487   -5.3586    1.8685 H   0  0  0  0  0  0  0  0  0  0  0  0
    3.3685   -9.1148    0.0850 H   0  0  0  0  0  0  0  0  0  0  0  0
    3.6053  -10.4462    1.0676 H   0  0  0  0  0  0  0  0  0  0  0  0
    2.4511   -9.6403    3.8001 H   0  0  0  0  0  0  0  0  0  0  0  0
    4.0144  -10.2605    3.3822 H   0  0  0  0  0  0  0  0  0  0  0  0
    5.1753   -8.7546    4.6382 H   0  0  0  0  0  0  0  0  0  0  0  0
    3.2375   -6.7502    8.4511 H   0  0  0  0  0  0  0  0  0  0  0  0
    3.0138   -8.4400    8.2538 H   0  0  0  0  0  0  0  0  0  0  0  0
    6.0247   -4.6461    5.1700 H   0  0  0  0  0  0  0  0  0  0  0  0
    5.2243   -3.1891    5.8569 H   0  0  0  0  0  0  0  0  0  0  0  0
    4.5944   -3.9065    4.4155 H   0  0  0  0  0  0  0  0  0  0  0  0
    5.0970   -6.6322    3.9549 H   0  0  0  0  0  0  0  0  0  0  0  0
    1.1441   -4.6529    4.9116 H   0  0  0  0  0  0  0  0  0  0  0  0
    0.2263   -4.5797    3.4169 H   0  0  0  0  0  0  0  0  0  0  0  0
   -0.9299   -9.6644    4.9339 H   0  0  0  0  0  0  0  0  0  0  0  0
    1.8857   -7.4384    5.4138 H   0  0  0  0  0  0  0  0  0  0  0  0
   -2.1505   -7.9817    2.2930 H   0  0  0  0  0  0  0  0  0  0  0  0
   -1.7363   -9.4363    3.2317 H   0  0  0  0  0  0  0  0  0  0  0  0
   -0.9746   -9.1677    1.6722 H   0  0  0  0  0  0  0  0  0  0  0  0
  1  2  1  0
  1 33  1  0
  1 34  1  0
  1 35  1  0
  2  3  3  0
  3  4  1  0
  4  9  2  0
  4  5  1  0
  5  6  2  0
  5 36  1  0
  6  7  1  0
  6 37  1  0
  7 25  1  0
  7  8  2  0
  8  9  1  0
  8 10  1  0
  9 38  1  0
 10 23  1  0
 10 11  1  6
 10 24  1  0
 11 12  2  0
 12 13  1  0
 12 14  1  0
 13 39  1  0
 13 40  1  0
 14 15  1  0
 14 41  1  0
 14 42  1  0
 15 23  1  0
 15 16  1  0
 15 43  1  1
 16 17  1  0
 17 19  2  0
 17 18  1  0
 18 44  1  0
 18 45  1  0
 19 20  1  0
 19 23  1  0
 20 22  2  0
 20 21  1  0
 21 46  1  0
 21 47  1  0
 21 48  1  0
 23 49  1  6
 24 26  1  1
 24 31  1  0
 24 25  1  0
 25 50  1  0
 25 51  1  0
 26 27  1  0
 26 53  1  0
 27 29  1  0
 27 28  2  0
 28 52  1  0
 29 31  1  0
 29 30  1  0
 30 54  1  0
 30 55  1  0
 30 56  1  0
 31 32  2  0
M  END
>  <i_m_ct_stereo_status>  (233) 
1

>  <s_m_source_file>  (233) 
/var/tmp/pbs.5076255.sched01/tmpelb551ou/82hj6rxffr.sdf

>  <i_m_source_file_index>  (233) 
21

>  <i_lp_mmshare_version>  (233) 
48012

>  <i_f3d_flags>  (233) 
0

>  <s_epik_input>  (233) 
W0NIM11DI0NjKFtjSF1bY0hdMSlbY0hdYzJjMVtDSDJdW0NAXTMoTj1DKFtOSDJdKU4oW0NIM10pQzM9TylbQ0BdMjRbQ0BASF01W0NASF0oW0NIMl1DKD1ONClbTkgyXSlPL0MoPU5cW0hdKVtDQEhdNUMoPU8pW0NIM10=

>  <s_epik_cmdline>  (233) 
J2VwaWtfcHl0aG9uJywgJy1waHQnLCAnMi4wJywgJy1waCcsICc3LjAnLCAnLXRuJywgJzgnLCAnLW1hJywgJzIwMCcsICctaW1hZScsICc8aW5maWxlLm1hZT4nLCAnLW9tYWUnLCAnPG91dGZpbGUubWFlPic=

>  <r_lp_tautomer_probability>  (233) 
0.49964

>  <r_epik_Ionization_Penalty>  (233) 
6.90935

>  <r_epik_Ionization_Penalty_Charging>  (233) 
0

>  <r_epik_Ionization_Penalty_Neutral>  (233) 
6.90935

>  <r_epik_State_Penalty>  (233) 
2.04001

>  <r_epik_Charging_Adjusted_Penalty>  (233) 
2.04001

>  <i_epik_Tot_Q>  (233) 
0

>  <i_epik_Tot_abs_Q>  (233) 
0

>  <s_epik_Chemistry_Notes>  (233) 
This compound has an imine and may undergo hydrolysis.

>  <s_lp_Force_Field>  (233) 
OPLS3e

>  <r_lp_Energy>  (233) 
10.1348

>  <b_lp_Chiralities_Consistent>  (233) 
1

>  <s_lp_Variant>  (233) 
75:0-3

>  <s_i_glide_gridfile>  (233) 
pfpi4k_grid

>  <i_i_glide_lignum>  (233) 
21

>  <i_i_glide_rotatable_bonds>  (233) 
2

>  <r_i_docking_score>  (233) 
-3.68815

>  <r_i_glide_ligand_efficiency>  (233) 
-0.115255

>  <r_i_glide_ligand_efficiency_sa>  (233) 
-0.365911

>  <r_i_glide_ligand_efficiency_ln>  (233) 
-0.825877

>  <r_i_glide_gscore>  (233) 
-3.68815

>  <r_i_glide_lipo>  (233) 
-0.238798

>  <r_i_glide_hbond>  (233) 
-0.492314

>  <r_i_glide_metal>  (233) 
-0

>  <r_i_glide_rewards>  (233) 
-0.460397

>  <r_i_glide_evdw>  (233) 
-25.0443

>  <r_i_glide_ecoul>  (233) 
-7.63029

>  <r_i_glide_erotb>  (233) 
0.106391

>  <r_i_glide_esite>  (233) 
-0.206275

>  <r_i_glide_emodel>  (233) 
-38.1417

>  <r_i_glide_energy>  (233) 
-32.6745

>  <r_i_glide_einternal>  (233) 
3.0101

>  <r_i_glide_intrahb_reward>  (233) 
-0

>  <i_i_glide_confnum>  (233) 
2

>  <i_i_glide_posenum>  (233) 
18

>  <r_i_glide_eff_state_penalty>  (233) 
0

>  <ligand_id>  (233) 
75

>  <original_smiles>  (233) 
CC#Cc1ccc2c(c1)C1(N=C(N)CC3OC(=N)C(C(C)=O)C31)C1(C2)N=C(N)N(C)C1=O

>  <smiles>  (233) 
[H]N=C1N(C([H])([H])[H])C(=O)C2(N1[H])C([H])([H])c1c([H])c([H])c(C#CC([H])([H])[H])c([H])c1C21N=C(N([H])[H])C([H])([H])C2([H])OC(N([H])[H])=C(C(=O)C([H])([H])[H])C21[H]

$$$$
75:2:1
     RDKit          3D

 56 60  0  0  1  0  0  0  0  0999 V2000
    7.4224   -1.5542    0.3380 C   0  0  0  0  0  0  0  0  0  0  0  0
    6.2759   -2.1839    0.9993 C   0  0  0  0  0  0  0  0  0  0  0  0
    5.3207   -2.6878    1.5456 C   0  0  0  0  0  0  0  0  0  0  0  0
    4.1622   -3.2774    2.1832 C   0  0  0  0  0  0  0  0  0  0  0  0
    3.1217   -2.4464    2.6563 C   0  0  0  0  0  0  0  0  0  0  0  0
    1.9919   -3.0043    3.2881 C   0  0  0  0  0  0  0  0  0  0  0  0
    1.9410   -4.3983    3.4306 C   0  0  0  0  0  0  0  0  0  0  0  0
    2.9628   -5.2149    2.9545 C   0  0  0  0  0  0  0  0  0  0  0  0
    4.0925   -4.6744    2.3225 C   0  0  0  0  0  0  0  0  0  0  0  0
    2.7583   -6.6636    3.2993 C   0  0  1  0  0  0  0  0  0  0  0  0
    2.9332   -7.4280    2.0693 N   0  0  0  0  0  0  0  0  0  0  0  0
    3.1458   -8.6999    2.1258 C   0  0  0  0  0  0  0  0  0  0  0  0
    3.2343   -9.4516    0.9969 N   0  0  0  0  0  0  0  0  0  0  0  0
    3.3412   -9.4649    3.4282 C   0  0  0  0  0  0  0  0  0  0  0  0
    4.0072   -8.5959    4.5033 C   0  0  2  0  0  0  0  0  0  0  0  0
    3.4896   -8.8985    5.7960 O   0  0  0  0  0  0  0  0  0  0  0  0
    3.4725   -7.7493    6.5208 C   0  0  0  0  0  0  0  0  0  0  0  0
    3.2379   -7.9252    7.8629 N   0  0  0  0  0  0  0  0  0  0  0  0
    3.7051   -6.6581    5.7798 C   0  0  0  0  0  0  0  0  0  0  0  0
    3.8949   -5.2676    6.2707 C   0  0  0  0  0  0  0  0  0  0  0  0
    3.6386   -4.9470    7.7407 C   0  0  0  0  0  0  0  0  0  0  0  0
    4.2738   -4.3485    5.5489 O   0  0  0  0  0  0  0  0  0  0  0  0
    3.8775   -7.0619    4.3325 C   0  0  2  0  0  0  0  0  0  0  0  0
    1.2519   -6.6475    3.7935 C   0  0  2  0  0  0  0  0  0  0  0  0
    0.8648   -5.1853    4.1090 C   0  0  0  0  0  0  0  0  0  0  0  0
    1.0236   -7.5173    4.9036 N   0  0  0  0  0  0  0  0  0  0  0  0
    0.0829   -8.4826    4.6413 C   0  0  0  0  0  0  0  0  0  0  0  0
   -0.1996   -9.4403    5.4383 N   0  0  0  0  0  0  0  0  0  0  0  0
   -0.4248   -8.2113    3.3652 N   0  0  0  0  0  0  0  0  0  0  0  0
   -1.5007   -8.9787    2.7461 C   0  0  0  0  0  0  0  0  0  0  0  0
    0.2082   -7.1708    2.8011 C   0  0  0  0  0  0  0  0  0  0  0  0
   -0.0265   -6.6431    1.7164 O   0  0  0  0  0  0  0  0  0  0  0  0
    8.3333   -1.8152    0.8749 H   0  0  0  0  0  0  0  0  0  0  0  0
    7.2810   -0.4756    0.3564 H   0  0  0  0  0  0  0  0  0  0  0  0
    7.4824   -1.9138   -0.6882 H   0  0  0  0  0  0  0  0  0  0  0  0
    3.1904   -1.3767    2.5334 H   0  0  0  0  0  0  0  0  0  0  0  0
    1.1957   -2.3777    3.6593 H   0  0  0  0  0  0  0  0  0  0  0  0
    4.8956   -5.3170    1.9891 H   0  0  0  0  0  0  0  0  0  0  0  0
    3.0853   -9.0674    0.0853 H   0  0  0  0  0  0  0  0  0  0  0  0
    3.4318  -10.4631    0.9667 H   0  0  0  0  0  0  0  0  0  0  0  0
    2.3804   -9.8393    3.7822 H   0  0  0  0  0  0  0  0  0  0  0  0
    3.9496  -10.3586    3.2707 H   0  0  0  0  0  0  0  0  0  0  0  0
    5.0713   -8.8245    4.5460 H   0  0  0  0  0  0  0  0  0  0  0  0
    3.2236   -7.1667    8.5275 H   0  0  0  0  0  0  0  0  0  0  0  0
    3.0731   -8.8554    8.2246 H   0  0  0  0  0  0  0  0  0  0  0  0
    2.6247   -5.2377    8.0100 H   0  0  0  0  0  0  0  0  0  0  0  0
    3.7525   -3.8802    7.9330 H   0  0  0  0  0  0  0  0  0  0  0  0
    4.3406   -5.4831    8.3800 H   0  0  0  0  0  0  0  0  0  0  0  0
    4.8285   -6.6910    3.9564 H   0  0  0  0  0  0  0  0  0  0  0  0
    0.8546   -4.9984    5.1821 H   0  0  0  0  0  0  0  0  0  0  0  0
   -0.1134   -4.9068    3.7231 H   0  0  0  0  0  0  0  0  0  0  0  0
   -0.9312  -10.0801    5.1430 H   0  0  0  0  0  0  0  0  0  0  0  0
    1.8241   -7.7195    5.4856 H   0  0  0  0  0  0  0  0  0  0  0  0
   -2.3568   -8.3339    2.5509 H   0  0  0  0  0  0  0  0  0  0  0  0
   -1.8481   -9.8032    3.3557 H   0  0  0  0  0  0  0  0  0  0  0  0
   -1.1605   -9.4105    1.8061 H   0  0  0  0  0  0  0  0  0  0  0  0
  1  2  1  0
  1 33  1  0
  1 34  1  0
  1 35  1  0
  2  3  3  0
  3  4  1  0
  4  9  2  0
  4  5  1  0
  5  6  2  0
  5 36  1  0
  6  7  1  0
  6 37  1  0
  7 25  1  0
  7  8  2  0
  8  9  1  0
  8 10  1  0
  9 38  1  0
 10 23  1  0
 10 11  1  6
 10 24  1  0
 11 12  2  0
 12 13  1  0
 12 14  1  0
 13 39  1  0
 13 40  1  0
 14 15  1  0
 14 41  1  0
 14 42  1  0
 15 23  1  0
 15 16  1  0
 15 43  1  1
 16 17  1  0
 17 19  2  0
 17 18  1  0
 18 44  1  0
 18 45  1  0
 19 20  1  0
 19 23  1  0
 20 22  2  0
 20 21  1  0
 21 46  1  0
 21 47  1  0
 21 48  1  0
 23 49  1  6
 24 26  1  1
 24 31  1  0
 24 25  1  0
 25 50  1  0
 25 51  1  0
 26 27  1  0
 26 53  1  0
 27 29  1  0
 27 28  2  0
 28 52  1  0
 29 31  1  0
 29 30  1  0
 30 54  1  0
 30 55  1  0
 30 56  1  0
 31 32  2  0
M  END
>  <i_m_ct_stereo_status>  (234) 
1

>  <s_m_source_file>  (234) 
/var/tmp/pbs.5076255.sched01/tmpelb551ou/82hj6rxffr.sdf

>  <i_m_source_file_index>  (234) 
21

>  <i_lp_mmshare_version>  (234) 
48012

>  <i_f3d_flags>  (234) 
0

>  <s_epik_input>  (234) 
W0NIM11DI0NjKFtjSF1bY0hdMSlbY0hdYzJjMVtDSDJdW0NAXTMoTj1DKFtOSDJdKU4oW0NIM10pQzM9TylbQ0BdMjRbQ0BASF01W0NASF0oW0NIMl1DKD1ONClbTkgyXSlPL0MoPU5cW0hdKVtDQEhdNUMoPU8pW0NIM10=

>  <s_epik_cmdline>  (234) 
J2VwaWtfcHl0aG9uJywgJy1waHQnLCAnMi4wJywgJy1waCcsICc3LjAnLCAnLXRuJywgJzgnLCAnLW1hJywgJzIwMCcsICctaW1hZScsICc8aW5maWxlLm1hZT4nLCAnLW9tYWUnLCAnPG91dGZpbGUubWFlPic=

>  <r_lp_tautomer_probability>  (234) 
0.49964

>  <r_epik_Ionization_Penalty>  (234) 
6.90935

>  <r_epik_Ionization_Penalty_Charging>  (234) 
0

>  <r_epik_Ionization_Penalty_Neutral>  (234) 
6.90935

>  <r_epik_State_Penalty>  (234) 
2.04001

>  <r_epik_Charging_Adjusted_Penalty>  (234) 
2.04001

>  <i_epik_Tot_Q>  (234) 
0

>  <i_epik_Tot_abs_Q>  (234) 
0

>  <s_epik_Chemistry_Notes>  (234) 
This compound has an imine and may undergo hydrolysis.

>  <s_lp_Force_Field>  (234) 
OPLS3e

>  <r_lp_Energy>  (234) 
10.1348

>  <b_lp_Chiralities_Consistent>  (234) 
1

>  <s_lp_Variant>  (234) 
75:0-3

>  <s_i_glide_gridfile>  (234) 
pfpi4k_grid

>  <i_i_glide_lignum>  (234) 
21

>  <i_i_glide_rotatable_bonds>  (234) 
2

>  <r_i_docking_score>  (234) 
-3.55989

>  <r_i_glide_ligand_efficiency>  (234) 
-0.111247

>  <r_i_glide_ligand_efficiency_sa>  (234) 
-0.353186

>  <r_i_glide_ligand_efficiency_ln>  (234) 
-0.797157

>  <r_i_glide_gscore>  (234) 
-3.55989

>  <r_i_glide_lipo>  (234) 
-0.191156

>  <r_i_glide_hbond>  (234) 
-0.488594

>  <r_i_glide_metal>  (234) 
-0

>  <r_i_glide_rewards>  (234) 
-0.460397

>  <r_i_glide_evdw>  (234) 
-21.9597

>  <r_i_glide_ecoul>  (234) 
-8.18367

>  <r_i_glide_erotb>  (234) 
0.106391

>  <r_i_glide_esite>  (234) 
-0.200602

>  <r_i_glide_emodel>  (234) 
-37.4713

>  <r_i_glide_energy>  (234) 
-30.1434

>  <r_i_glide_einternal>  (234) 
0.0940207

>  <r_i_glide_intrahb_reward>  (234) 
-0

>  <i_i_glide_confnum>  (234) 
1

>  <i_i_glide_posenum>  (234) 
20

>  <r_i_glide_eff_state_penalty>  (234) 
0

>  <ligand_id>  (234) 
75

>  <original_smiles>  (234) 
CC#Cc1ccc2c(c1)C1(N=C(N)CC3OC(=N)C(C(C)=O)C31)C1(C2)N=C(N)N(C)C1=O

>  <smiles>  (234) 
[H]N=C1N(C([H])([H])[H])C(=O)C2(N1[H])C([H])([H])c1c([H])c([H])c(C#CC([H])([H])[H])c([H])c1C21N=C(N([H])[H])C([H])([H])C2([H])OC(N([H])[H])=C(C(=O)C([H])([H])[H])C21[H]

$$$$
75:2:2
     RDKit          3D

 56 60  0  0  1  0  0  0  0  0999 V2000
    4.7224   -1.5848   -2.5443 C   0  0  0  0  0  0  0  0  0  0  0  0
    4.1305   -2.1142   -1.3101 C   0  0  0  0  0  0  0  0  0  0  0  0
    3.6482   -2.5666   -0.2950 C   0  0  0  0  0  0  0  0  0  0  0  0
    3.0344   -3.1174    0.8858 C   0  0  0  0  0  0  0  0  0  0  0  0
    2.2576   -2.2940    1.7297 C   0  0  0  0  0  0  0  0  0  0  0  0
    1.6992   -2.8014    2.9210 C   0  0  0  0  0  0  0  0  0  0  0  0
    1.9653   -4.1379    3.2534 C   0  0  0  0  0  0  0  0  0  0  0  0
    2.7527   -4.9388    2.4300 C   0  0  0  0  0  0  0  0  0  0  0  0
    3.2877   -4.4539    1.2241 C   0  0  0  0  0  0  0  0  0  0  0  0
    3.0164   -6.2994    3.0254 C   0  0  1  0  0  0  0  0  0  0  0  0
    2.7016   -7.3023    1.9970 N   0  0  0  0  0  0  0  0  0  0  0  0
    3.1656   -8.5061    2.1040 C   0  0  0  0  0  0  0  0  0  0  0  0
    2.8002   -9.4880    1.2257 N   0  0  0  0  0  0  0  0  0  0  0  0
    4.0978   -8.9482    3.2235 C   0  0  0  0  0  0  0  0  0  0  0  0
    5.0414   -7.8194    3.6701 C   0  0  2  0  0  0  0  0  0  0  0  0
    5.2964   -7.9081    5.0738 O   0  0  0  0  0  0  0  0  0  0  0  0
    5.4153   -6.6349    5.5441 C   0  0  0  0  0  0  0  0  0  0  0  0
    5.9200   -6.5388    6.8179 N   0  0  0  0  0  0  0  0  0  0  0  0
    5.0787   -5.6983    4.6418 C   0  0  0  0  0  0  0  0  0  0  0  0
    5.2688   -4.2284    4.7961 C   0  0  0  0  0  0  0  0  0  0  0  0
    5.2253   -3.3302    3.5520 C   0  0  0  0  0  0  0  0  0  0  0  0
    5.4766   -3.7111    5.8943 O   0  0  0  0  0  0  0  0  0  0  0  0
    4.5676   -6.3620    3.3783 C   0  0  2  0  0  0  0  0  0  0  0  0
    1.9688   -6.3247    4.2380 C   0  0  2  0  0  0  0  0  0  0  0  0
    1.5412   -4.8540    4.5045 C   0  0  0  0  0  0  0  0  0  0  0  0
    2.4829   -6.9571    5.4453 N   0  0  0  0  0  0  0  0  0  0  0  0
    1.7552   -8.0465    5.8456 C   0  0  0  0  0  0  0  0  0  0  0  0
    2.0472   -8.8516    6.7936 N   0  0  0  0  0  0  0  0  0  0  0  0
    0.6307   -8.0728    4.9580 N   0  0  0  0  0  0  0  0  0  0  0  0
   -0.4561   -9.0512    5.0891 C   0  0  0  0  0  0  0  0  0  0  0  0
    0.6790   -7.1440    4.0254 C   0  0  0  0  0  0  0  0  0  0  0  0
   -0.1660   -6.8530    3.1106 O   0  0  0  0  0  0  0  0  0  0  0  0
    3.9373   -1.4447   -3.2926 H   0  0  0  0  0  0  0  0  0  0  0  0
    5.4640   -2.2942   -2.9225 H   0  0  0  0  0  0  0  0  0  0  0  0
    5.1999   -0.6257   -2.3273 H   0  0  0  0  0  0  0  0  0  0  0  0
    2.0905   -1.2639    1.4752 H   0  0  0  0  0  0  0  0  0  0  0  0
    1.1255   -2.1794    3.5900 H   0  0  0  0  0  0  0  0  0  0  0  0
    3.9317   -5.0824    0.6327 H   0  0  0  0  0  0  0  0  0  0  0  0
    2.1308   -9.3165    0.4821 H   0  0  0  0  0  0  0  0  0  0  0  0
    3.1542  -10.4382    1.2377 H   0  0  0  0  0  0  0  0  0  0  0  0
    3.4998   -9.3234    4.0599 H   0  0  0  0  0  0  0  0  0  0  0  0
    4.6819   -9.8038    2.8839 H   0  0  0  0  0  0  0  0  0  0  0  0
    6.0071   -7.9715    3.1775 H   0  0  0  0  0  0  0  0  0  0  0  0
    6.0836   -5.6549    7.2778 H   0  0  0  0  0  0  0  0  0  0  0  0
    6.1233   -7.3711    7.3500 H   0  0  0  0  0  0  0  0  0  0  0  0
    5.8844   -3.7120    2.7606 H   0  0  0  0  0  0  0  0  0  0  0  0
    5.4736   -2.2960    3.7990 H   0  0  0  0  0  0  0  0  0  0  0  0
    4.2126   -3.2959    3.1872 H   0  0  0  0  0  0  0  0  0  0  0  0
    5.1499   -6.0183    2.5236 H   0  0  0  0  0  0  0  0  0  0  0  0
    2.0470   -4.4321    5.3761 H   0  0  0  0  0  0  0  0  0  0  0  0
    0.4673   -4.7263    4.6617 H   0  0  0  0  0  0  0  0  0  0  0  0
    1.3498   -9.5851    6.8609 H   0  0  0  0  0  0  0  0  0  0  0  0
    3.4931   -6.9661    5.5517 H   0  0  0  0  0  0  0  0  0  0  0  0
   -1.3987   -8.5225    5.2679 H   0  0  0  0  0  0  0  0  0  0  0  0
   -0.2851   -9.7413    5.9090 H   0  0  0  0  0  0  0  0  0  0  0  0
   -0.5560   -9.6241    4.1563 H   0  0  0  0  0  0  0  0  0  0  0  0
  1  2  1  0
  1 33  1  0
  1 34  1  0
  1 35  1  0
  2  3  3  0
  3  4  1  0
  4  9  2  0
  4  5  1  0
  5  6  2  0
  5 36  1  0
  6  7  1  0
  6 37  1  0
  7 25  1  0
  7  8  2  0
  8  9  1  0
  8 10  1  0
  9 38  1  0
 10 23  1  0
 10 11  1  6
 10 24  1  0
 11 12  2  0
 12 13  1  0
 12 14  1  0
 13 39  1  0
 13 40  1  0
 14 15  1  0
 14 41  1  0
 14 42  1  0
 15 23  1  0
 15 16  1  0
 15 43  1  6
 16 17  1  0
 17 19  2  0
 17 18  1  0
 18 44  1  0
 18 45  1  0
 19 20  1  0
 19 23  1  0
 20 22  2  0
 20 21  1  0
 21 46  1  0
 21 47  1  0
 21 48  1  0
 23 49  1  6
 24 26  1  1
 24 31  1  0
 24 25  1  0
 25 50  1  0
 25 51  1  0
 26 27  1  0
 26 53  1  0
 27 29  1  0
 27 28  2  0
 28 52  1  0
 29 31  1  0
 29 30  1  0
 30 54  1  0
 30 55  1  0
 30 56  1  0
 31 32  2  0
M  END
>  <i_m_ct_stereo_status>  (235) 
1

>  <s_m_source_file>  (235) 
/var/tmp/pbs.5076255.sched01/tmpelb551ou/82hj6rxffr.sdf

>  <i_m_source_file_index>  (235) 
21

>  <i_lp_mmshare_version>  (235) 
48012

>  <i_f3d_flags>  (235) 
0

>  <s_epik_input>  (235) 
W0NIM11DI0NjKFtjSF1bY0hdMSlbY0hdYzJjMVtDSDJdW0NAXTMoTj1DKFtOSDJdKU4oW0NIM10pQzM9TylbQ0BdMjRbQ0BASF01W0NASF0oW0NIMl1DKD1ONClbTkgyXSlPL0MoPU5cW0hdKVtDQEhdNUMoPU8pW0NIM10=

>  <s_epik_cmdline>  (235) 
J2VwaWtfcHl0aG9uJywgJy1waHQnLCAnMi4wJywgJy1waCcsICc3LjAnLCAnLXRuJywgJzgnLCAnLW1hJywgJzIwMCcsICctaW1hZScsICc8aW5maWxlLm1hZT4nLCAnLW9tYWUnLCAnPG91dGZpbGUubWFlPic=

>  <r_lp_tautomer_probability>  (235) 
0.49964

>  <r_epik_Ionization_Penalty>  (235) 
6.90935

>  <r_epik_Ionization_Penalty_Charging>  (235) 
0

>  <r_epik_Ionization_Penalty_Neutral>  (235) 
6.90935

>  <r_epik_State_Penalty>  (235) 
2.04001

>  <r_epik_Charging_Adjusted_Penalty>  (235) 
2.04001

>  <i_epik_Tot_Q>  (235) 
0

>  <i_epik_Tot_abs_Q>  (235) 
0

>  <s_epik_Chemistry_Notes>  (235) 
This compound has an imine and may undergo hydrolysis.

>  <s_lp_Force_Field>  (235) 
OPLS3e

>  <r_lp_Energy>  (235) 
10.1348

>  <b_lp_Chiralities_Consistent>  (235) 
1

>  <s_lp_Variant>  (235) 
75:0-3

>  <s_i_glide_gridfile>  (235) 
pfpi4k_grid

>  <i_i_glide_lignum>  (235) 
21

>  <i_i_glide_rotatable_bonds>  (235) 
2

>  <r_i_docking_score>  (235) 
-2.60246

>  <r_i_glide_ligand_efficiency>  (235) 
-0.0813268

>  <r_i_glide_ligand_efficiency_sa>  (235) 
-0.258197

>  <r_i_glide_ligand_efficiency_ln>  (235) 
-0.582761

>  <r_i_glide_gscore>  (235) 
-2.60246

>  <r_i_glide_lipo>  (235) 
-0.0467337

>  <r_i_glide_hbond>  (235) 
-0.303633

>  <r_i_glide_metal>  (235) 
-0

>  <r_i_glide_rewards>  (235) 
-0.465858

>  <r_i_glide_evdw>  (235) 
-22.8214

>  <r_i_glide_ecoul>  (235) 
-4.38609

>  <r_i_glide_erotb>  (235) 
0.106391

>  <r_i_glide_esite>  (235) 
-0.0936405

>  <r_i_glide_emodel>  (235) 
-30.3265

>  <r_i_glide_energy>  (235) 
-27.2075

>  <r_i_glide_einternal>  (235) 
3.02207

>  <r_i_glide_intrahb_reward>  (235) 
-0

>  <i_i_glide_confnum>  (235) 
2

>  <i_i_glide_posenum>  (235) 
30

>  <r_i_glide_eff_state_penalty>  (235) 
0

>  <ligand_id>  (235) 
75

>  <original_smiles>  (235) 
CC#Cc1ccc2c(c1)C1(N=C(N)CC3OC(=N)C(C(C)=O)C31)C1(C2)N=C(N)N(C)C1=O

>  <smiles>  (235) 
[H]N=C1N(C([H])([H])[H])C(=O)C2(N1[H])C([H])([H])c1c([H])c([H])c(C#CC([H])([H])[H])c([H])c1C21N=C(N([H])[H])C([H])([H])C2([H])OC(N([H])[H])=C(C(=O)C([H])([H])[H])C21[H]

$$$$
77:0:0
     RDKit          3D

 77 82  0  0  1  0  0  0  0  0999 V2000
    3.1555    0.1389   -4.1346 C   0  0  0  0  0  0  0  0  0  0  0  0
    4.0965   -0.9588   -3.6263 C   0  0  2  0  0  0  0  0  0  0  0  0
    3.5461   -2.3748   -3.8418 C   0  0  0  0  0  0  0  0  0  0  0  0
    4.4914   -3.4394   -3.2610 C   0  0  0  0  0  0  0  0  0  0  0  0
    4.7831   -3.2461   -1.7490 C   0  0  1  0  0  0  0  0  0  0  0  0
    5.3664   -1.8288   -1.5648 C   0  0  0  0  0  0  0  0  0  0  0  0
    4.3948   -0.7957   -2.1248 C   0  0  0  0  0  0  0  0  0  0  0  0
    3.5737   -3.4045   -1.0051 O   0  0  0  0  0  0  0  0  0  0  0  0
    3.7946   -3.3856    0.4046 C   0  0  0  0  0  0  0  0  0  0  0  0
    4.8820   -4.3901    0.8570 C   0  0  2  0  0  0  0  0  0  0  0  0
    4.4831   -5.8788    0.6757 C   0  0  0  0  0  0  0  0  0  0  0  0
    3.4164   -6.3289    1.7032 C   0  0  0  0  0  0  0  0  0  0  0  0
    3.8355   -6.0694    3.1695 C   0  0  1  0  0  0  0  0  0  0  0  0
    4.9859   -6.8569    3.4509 O   0  0  0  0  0  0  0  0  0  0  0  0
    4.2397   -4.5823    3.3497 C   0  0  1  0  0  0  0  0  0  0  0  0
    4.6290   -4.2577    4.8093 C   0  0  0  0  0  0  0  0  0  0  0  0
    3.5045   -4.6118    5.8076 C   0  0  0  0  0  0  0  0  0  0  0  0
    3.0117   -6.0268    5.5704 C   0  0  0  0  0  0  0  0  0  0  0  0
    2.8488   -7.0223    6.4570 C   0  0  0  0  0  0  0  0  0  0  0  0
    2.5172   -8.3384    5.7861 C   0  0  1  0  0  0  0  0  0  0  0  0
    3.6744   -9.3315    6.0362 C   0  0  0  0  0  0  0  0  0  0  0  0
    1.1905   -9.0187    6.1908 C   0  0  1  0  0  0  0  0  0  0  0  0
    0.2840   -8.2142    6.9194 O   0  0  0  0  0  0  0  0  0  0  0  0
    0.5498   -9.4642    4.8710 C   0  0  0  0  0  0  0  0  0  0  0  0
    1.0084   -8.4905    3.7759 C   0  0  1  0  0  0  0  0  0  0  0  0
   -0.0884   -7.4838    3.3177 C   0  0  0  0  0  0  0  0  0  0  0  0
   -0.7300   -6.6603    4.4497 C   0  0  0  0  0  0  0  0  0  0  0  0
   -1.1905   -8.1906    2.5083 C   0  0  0  0  0  0  0  0  0  0  0  0
    2.3802   -7.9645    4.2796 C   0  0  1  0  0  0  0  0  0  0  0  0
    2.7022   -6.4412    4.1588 C   0  0  2  0  0  0  0  0  0  0  0  0
    5.3216   -4.1719    2.3271 C   0  0  0  0  0  0  0  0  0  0  0  0
    6.0301   -4.0428    0.0880 O   0  0  0  0  0  0  0  0  0  0  0  0
    5.7115   -4.2252   -1.3577 O   0  0  0  0  0  0  0  0  0  0  0  0
    2.2490    0.1335   -3.5412 H   0  0  0  0  0  0  0  0  0  0  0  0
    2.8879    0.0053   -5.1827 H   0  0  0  0  0  0  0  0  0  0  0  0
    3.6018    1.1270   -4.0332 H   0  0  0  0  0  0  0  0  0  0  0  0
    5.0070   -0.8758   -4.1948 H   0  0  0  0  0  0  0  0  0  0  0  0
    2.5554   -2.4574   -3.3763 H   0  0  0  0  0  0  0  0  0  0  0  0
    3.4087   -2.5383   -4.9076 H   0  0  0  0  0  0  0  0  0  0  0  0
    4.0900   -4.4231   -3.4853 H   0  0  0  0  0  0  0  0  0  0  0  0
    5.4405   -3.3957   -3.7956 H   0  0  0  0  0  0  0  0  0  0  0  0
    5.6112   -1.5721   -0.5343 H   0  0  0  0  0  0  0  0  0  0  0  0
    6.3132   -1.7751   -2.0960 H   0  0  0  0  0  0  0  0  0  0  0  0
    4.8675    0.1522   -1.9976 H   0  0  0  0  0  0  0  0  0  0  0  0
    3.4576   -0.7855   -1.5488 H   0  0  0  0  0  0  0  0  0  0  0  0
    4.0513   -2.3828    0.7330 H   0  0  0  0  0  0  0  0  0  0  0  0
    2.8322   -3.6220    0.8294 H   0  0  0  0  0  0  0  0  0  0  0  0
    4.0913   -6.0504   -0.3240 H   0  0  0  0  0  0  0  0  0  0  0  0
    5.3608   -6.5332    0.7559 H   0  0  0  0  0  0  0  0  0  0  0  0
    2.4795   -5.7978    1.5088 H   0  0  0  0  0  0  0  0  0  0  0  0
    3.1803   -7.3867    1.5578 H   0  0  0  0  0  0  0  0  0  0  0  0
    4.7590   -7.7617    3.3411 H   0  0  0  0  0  0  0  0  0  0  0  0
    3.3595   -3.9767    3.1408 H   0  0  0  0  0  0  0  0  0  0  0  0
    5.5364   -4.8025    5.0758 H   0  0  0  0  0  0  0  0  0  0  0  0
    4.8703   -3.1950    4.8894 H   0  0  0  0  0  0  0  0  0  0  0  0
    3.8393   -4.4749    6.8380 H   0  0  0  0  0  0  0  0  0  0  0  0
    2.6608   -3.9386    5.6461 H   0  0  0  0  0  0  0  0  0  0  0  0
    3.0390   -6.9385    7.5117 H   0  0  0  0  0  0  0  0  0  0  0  0
    3.5160  -10.2698    5.5043 H   0  0  0  0  0  0  0  0  0  0  0  0
    3.7536   -9.5788    7.0944 H   0  0  0  0  0  0  0  0  0  0  0  0
    4.6349   -8.9264    5.7243 H   0  0  0  0  0  0  0  0  0  0  0  0
    1.3619   -9.8928    6.8182 H   0  0  0  0  0  0  0  0  0  0  0  0
   -0.4803   -8.7497    7.0659 H   0  0  0  0  0  0  0  0  0  0  0  0
    0.9492  -10.4485    4.6227 H   0  0  0  0  0  0  0  0  0  0  0  0
   -0.5329   -9.5750    4.9270 H   0  0  0  0  0  0  0  0  0  0  0  0
    1.2320   -9.0807    2.8849 H   0  0  0  0  0  0  0  0  0  0  0  0
    0.3825   -6.7953    2.6170 H   0  0  0  0  0  0  0  0  0  0  0  0
   -1.3648   -7.2812    5.0798 H   0  0  0  0  0  0  0  0  0  0  0  0
   -1.3691   -5.8825    4.0541 H   0  0  0  0  0  0  0  0  0  0  0  0
    0.0042   -6.1691    5.0845 H   0  0  0  0  0  0  0  0  0  0  0  0
   -1.7578   -8.9043    3.1071 H   0  0  0  0  0  0  0  0  0  0  0  0
   -0.7615   -8.7437    1.6765 H   0  0  0  0  0  0  0  0  0  0  0  0
   -1.8997   -7.4765    2.0943 H   0  0  0  0  0  0  0  0  0  0  0  0
    3.1348   -8.5414    3.7403 H   0  0  0  0  0  0  0  0  0  0  0  0
    1.8304   -5.8410    3.9004 H   0  0  0  0  0  0  0  0  0  0  0  0
    6.2450   -4.7343    2.5120 H   0  0  0  0  0  0  0  0  0  0  0  0
    5.5790   -3.1238    2.4590 H   0  0  0  0  0  0  0  0  0  0  0  0
  1  2  1  0
  1 34  1  0
  1 35  1  0
  1 36  1  0
  2  7  1  0
  2  3  1  0
  2 37  1  6
  3  4  1  0
  3 38  1  0
  3 39  1  0
  4  5  1  0
  4 40  1  0
  4 41  1  0
  5 33  1  1
  5  6  1  0
  5  8  1  0
  6  7  1  0
  6 42  1  0
  6 43  1  0
  7 44  1  0
  7 45  1  0
  8  9  1  0
  9 10  1  0
  9 46  1  0
  9 47  1  0
 10 31  1  0
 10 11  1  0
 10 32  1  6
 11 12  1  0
 11 48  1  0
 11 49  1  0
 12 13  1  0
 12 50  1  0
 12 51  1  0
 13 30  1  0
 13 14  1  1
 13 15  1  0
 14 52  1  0
 15 16  1  0
 15 31  1  0
 15 53  1  6
 16 17  1  0
 16 54  1  0
 16 55  1  0
 17 18  1  0
 17 56  1  0
 17 57  1  0
 18 30  1  0
 18 19  2  0
 19 20  1  0
 19 58  1  0
 20 29  1  0
 20 21  1  6
 20 22  1  0
 21 59  1  0
 21 60  1  0
 21 61  1  0
 22 23  1  0
 22 24  1  0
 22 62  1  1
 23 63  1  0
 24 25  1  0
 24 64  1  0
 24 65  1  0
 25 26  1  0
 25 29  1  0
 25 66  1  6
 26 27  1  0
 26 28  1  0
 26 67  1  0
 27 68  1  0
 27 69  1  0
 27 70  1  0
 28 71  1  0
 28 72  1  0
 28 73  1  0
 29 30  1  0
 29 74  1  6
 30 75  1  6
 31 76  1  0
 31 77  1  0
 32 33  1  0
M  END
>  <i_m_ct_stereo_status>  (236) 
1

>  <s_m_source_file>  (236) 
/var/tmp/pbs.5076255.sched01/tmpelb551ou/82hj6rxffr.sdf

>  <i_m_source_file_index>  (236) 
23

>  <i_lp_mmshare_version>  (236) 
48012

>  <i_f3d_flags>  (236) 
0

>  <s_epik_input>  (236) 
W0NIMl0xW0NIMl1bQ0BIXShbQ0gzXSlbQ0gyXVtDSDJdW0NAXTEyT1tDSDJdW0NAXTMoT08yKVtDSDJdW0NIMl1bQ0BAXTQoW09IXSlbQ0BIXShbQ0gyXTMpW0NIMl1bQ0gyXUM9NVtDQEBIXTRbQ0BIXTZbQ0BdKFtDSF01KShbQ0gzXSlbQ0BASF0oW09IXSlbQ0gyXVtDQEhdNltDSF0oW0NIM10pW0NIM10=

>  <s_epik_cmdline>  (236) 
J2VwaWtfcHl0aG9uJywgJy1waHQnLCAnMi4wJywgJy1waCcsICc3LjAnLCAnLXRuJywgJzgnLCAnLW1hJywgJzIwMCcsICctaW1hZScsICc8aW5maWxlLm1hZT4nLCAnLW9tYWUnLCAnPG91dGZpbGUubWFlPic=

>  <r_lp_tautomer_probability>  (236) 
1

>  <r_epik_Ionization_Penalty>  (236) 
2.26517e-06

>  <r_epik_Ionization_Penalty_Charging>  (236) 
0

>  <r_epik_Ionization_Penalty_Neutral>  (236) 
2.26517e-06

>  <r_epik_State_Penalty>  (236) 
-0

>  <r_epik_Charging_Adjusted_Penalty>  (236) 
0

>  <i_epik_Tot_Q>  (236) 
0

>  <i_epik_Tot_abs_Q>  (236) 
0

>  <s_lp_Force_Field>  (236) 
OPLS3e

>  <r_lp_Energy>  (236) 
38.2573

>  <b_lp_Chiralities_Consistent>  (236) 
1

>  <s_lp_Variant>  (236) 
77:0-1

>  <s_i_glide_gridfile>  (236) 
pfpi4k_grid

>  <i_i_glide_lignum>  (236) 
23

>  <i_i_glide_rotatable_bonds>  (236) 
3

>  <r_i_docking_score>  (236) 
-2.37219

>  <r_i_glide_ligand_efficiency>  (236) 
-0.0718845

>  <r_i_glide_ligand_efficiency_sa>  (236) 
-0.230572

>  <r_i_glide_ligand_efficiency_ln>  (236) 
-0.527562

>  <r_i_glide_gscore>  (236) 
-2.37219

>  <r_i_glide_lipo>  (236) 
-0.744699

>  <r_i_glide_hbond>  (236) 
0

>  <r_i_glide_metal>  (236) 
-0

>  <r_i_glide_rewards>  (236) 
-0.319032

>  <r_i_glide_evdw>  (236) 
-23.8835

>  <r_i_glide_ecoul>  (236) 
-0.761899

>  <r_i_glide_erotb>  (236) 
0

>  <r_i_glide_esite>  (236) 
0

>  <r_i_glide_emodel>  (236) 
-27.952

>  <r_i_glide_energy>  (236) 
-24.6454

>  <r_i_glide_einternal>  (236) 
0.325789

>  <r_i_glide_intrahb_reward>  (236) 
-0

>  <i_i_glide_confnum>  (236) 
4

>  <i_i_glide_posenum>  (236) 
3

>  <r_i_glide_eff_state_penalty>  (236) 
0

>  <ligand_id>  (236) 
77

>  <original_smiles>  (236) 
CC1CCC2(CC1)OCC1(CCC3(O)C(CCC4=CC5(C)C(O)CC(C(C)C)C5C43)C1)OO2

>  <smiles>  (236) 
[H]OC1([H])C([H])([H])C([H])(C([H])(C([H])([H])[H])C([H])([H])[H])C2([H])C3([H])C(=C([H])C12C([H])([H])[H])C([H])([H])C([H])([H])C1([H])C([H])([H])C2(OOC4(OC2([H])[H])C([H])([H])C([H])([H])C([H])(C([H])([H])[H])C([H])([H])C4([H])[H])C([H])([H])C([H])([H])C31O[H]

$$$$
77:0:1
     RDKit          3D

 77 82  0  0  1  0  0  0  0  0999 V2000
   -0.6275   -9.2426    2.8499 C   0  0  0  0  0  0  0  0  0  0  0  0
    0.6388   -8.4470    3.2446 C   0  0  2  0  0  0  0  0  0  0  0  0
    0.3725   -7.5490    4.4642 C   0  0  0  0  0  0  0  0  0  0  0  0
    1.6165   -6.7458    4.8732 C   0  0  0  0  0  0  0  0  0  0  0  0
    2.0896   -5.8641    3.6876 C   0  0  1  0  0  0  0  0  0  0  0  0
    2.3711   -6.7440    2.4484 C   0  0  0  0  0  0  0  0  0  0  0  0
    1.1632   -7.6130    2.0578 C   0  0  0  0  0  0  0  0  0  0  0  0
    1.0902   -4.8658    3.3313 O   0  0  0  0  0  0  0  0  0  0  0  0
    0.9053   -3.8951    4.3716 C   0  0  0  0  0  0  0  0  0  0  0  0
    2.2404   -3.2185    4.8005 C   0  0  2  0  0  0  0  0  0  0  0  0
    2.1023   -2.3056    6.0394 C   0  0  0  0  0  0  0  0  0  0  0  0
    1.3306   -1.0135    5.6949 C   0  0  0  0  0  0  0  0  0  0  0  0
    1.9889   -0.2141    4.5449 C   0  0  1  0  0  0  0  0  0  0  0  0
    3.2710    0.2143    4.9637 O   0  0  0  0  0  0  0  0  0  0  0  0
    2.1309   -1.1282    3.3032 C   0  0  1  0  0  0  0  0  0  0  0  0
    2.7331   -0.3918    2.0934 C   0  0  0  0  0  0  0  0  0  0  0  0
    1.9055    0.8524    1.7020 C   0  0  0  0  0  0  0  0  0  0  0  0
    1.6641    1.7169    2.9199 C   0  0  0  0  0  0  0  0  0  0  0  0
    1.8376    3.0452    3.0710 C   0  0  0  0  0  0  0  0  0  0  0  0
    1.5688    3.4908    4.4917 C   0  0  1  0  0  0  0  0  0  0  0  0
    2.9057    3.9998    5.0862 C   0  0  0  0  0  0  0  0  0  0  0  0
    0.4861    4.5692    4.7394 C   0  0  1  0  0  0  0  0  0  0  0  0
   -0.3520    4.8600    3.6195 O   0  0  0  0  0  0  0  0  0  0  0  0
   -0.3222    4.0377    5.9415 C   0  0  0  0  0  0  0  0  0  0  0  0
   -0.2623    2.4967    5.9304 C   0  0  1  0  0  0  0  0  0  0  0  0
   -1.6080    1.8507    5.4592 C   0  0  0  0  0  0  0  0  0  0  0  0
   -1.7275    0.3227    5.6718 C   0  0  0  0  0  0  0  0  0  0  0  0
   -2.0599    2.2472    4.0379 C   0  0  0  0  0  0  0  0  0  0  0  0
    1.0901    2.1866    5.2208 C   0  0  1  0  0  0  0  0  0  0  0  0
    1.1458    1.0397    4.1598 C   0  0  2  0  0  0  0  0  0  0  0  0
    2.9150   -2.4182    3.6550 C   0  0  0  0  0  0  0  0  0  0  0  0
    3.0779   -4.3126    5.2135 O   0  0  0  0  0  0  0  0  0  0  0  0
    3.3129   -5.1872    4.0381 O   0  0  0  0  0  0  0  0  0  0  0  0
   -1.4351   -8.5787    2.5441 H   0  0  0  0  0  0  0  0  0  0  0  0
   -0.9842   -9.8472    3.6806 H   0  0  0  0  0  0  0  0  0  0  0  0
   -0.4293   -9.9340    2.0335 H   0  0  0  0  0  0  0  0  0  0  0  0
    1.4067   -9.1739    3.5215 H   0  0  0  0  0  0  0  0  0  0  0  0
   -0.4520   -6.8697    4.2302 H   0  0  0  0  0  0  0  0  0  0  0  0
    0.0600   -8.1532    5.3055 H   0  0  0  0  0  0  0  0  0  0  0  0
    1.4088   -6.1893    5.7806 H   0  0  0  0  0  0  0  0  0  0  0  0
    2.4330   -7.4164    5.1301 H   0  0  0  0  0  0  0  0  0  0  0  0
    2.7009   -6.1528    1.5998 H   0  0  0  0  0  0  0  0  0  0  0  0
    3.1911   -7.3967    2.7046 H   0  0  0  0  0  0  0  0  0  0  0  0
    1.4498   -8.2782    1.2550 H   0  0  0  0  0  0  0  0  0  0  0  0
    0.3604   -6.9764    1.6738 H   0  0  0  0  0  0  0  0  0  0  0  0
    0.1869   -3.1873    3.9586 H   0  0  0  0  0  0  0  0  0  0  0  0
    0.4279   -4.3511    5.2416 H   0  0  0  0  0  0  0  0  0  0  0  0
    1.5453   -2.8297    6.8016 H   0  0  0  0  0  0  0  0  0  0  0  0
    3.0783   -2.0807    6.4912 H   0  0  0  0  0  0  0  0  0  0  0  0
    0.3222   -1.3033    5.4105 H   0  0  0  0  0  0  0  0  0  0  0  0
    1.2441   -0.3963    6.5907 H   0  0  0  0  0  0  0  0  0  0  0  0
    3.6365    0.7033    4.2389 H   0  0  0  0  0  0  0  0  0  0  0  0
    1.1382   -1.4226    2.9940 H   0  0  0  0  0  0  0  0  0  0  0  0
    3.7530   -0.0862    2.3203 H   0  0  0  0  0  0  0  0  0  0  0  0
    2.7795   -1.0723    1.2409 H   0  0  0  0  0  0  0  0  0  0  0  0
    2.4142    1.3847    0.9000 H   0  0  0  0  0  0  0  0  0  0  0  0
    0.9347    0.5367    1.3136 H   0  0  0  0  0  0  0  0  0  0  0  0
    2.1614    3.7115    2.2926 H   0  0  0  0  0  0  0  0  0  0  0  0
    2.8056    4.2562    6.1443 H   0  0  0  0  0  0  0  0  0  0  0  0
    3.2351    4.9028    4.5674 H   0  0  0  0  0  0  0  0  0  0  0  0
    3.7063    3.2603    4.9971 H   0  0  0  0  0  0  0  0  0  0  0  0
    0.9457    5.5224    5.0016 H   0  0  0  0  0  0  0  0  0  0  0  0
    0.1278    4.8130    2.8091 H   0  0  0  0  0  0  0  0  0  0  0  0
    0.1792    4.3842    6.8494 H   0  0  0  0  0  0  0  0  0  0  0  0
   -1.3339    4.4360    5.9971 H   0  0  0  0  0  0  0  0  0  0  0  0
   -0.1494    2.1820    6.9698 H   0  0  0  0  0  0  0  0  0  0  0  0
   -2.3571    2.2840    6.1334 H   0  0  0  0  0  0  0  0  0  0  0  0
   -1.2001   -0.2434    4.9083 H   0  0  0  0  0  0  0  0  0  0  0  0
   -2.7754   -0.0015    5.6494 H   0  0  0  0  0  0  0  0  0  0  0  0
   -1.3369    0.0448    6.6523 H   0  0  0  0  0  0  0  0  0  0  0  0
   -1.3774    1.9406    3.2423 H   0  0  0  0  0  0  0  0  0  0  0  0
   -2.2412    3.3177    3.9437 H   0  0  0  0  0  0  0  0  0  0  0  0
   -2.9903    1.7641    3.8088 H   0  0  0  0  0  0  0  0  0  0  0  0
    1.8132    1.9742    6.0208 H   0  0  0  0  0  0  0  0  0  0  0  0
    0.1775    0.6807    3.8243 H   0  0  0  0  0  0  0  0  0  0  0  0
    3.9321   -2.1534    3.9594 H   0  0  0  0  0  0  0  0  0  0  0  0
    2.9986   -3.0307    2.7520 H   0  0  0  0  0  0  0  0  0  0  0  0
  1  2  1  0
  1 34  1  0
  1 35  1  0
  1 36  1  0
  2  7  1  0
  2  3  1  0
  2 37  1  1
  3  4  1  0
  3 38  1  0
  3 39  1  0
  4  5  1  0
  4 40  1  0
  4 41  1  0
  5 33  1  1
  5  6  1  0
  5  8  1  0
  6  7  1  0
  6 42  1  0
  6 43  1  0
  7 44  1  0
  7 45  1  0
  8  9  1  0
  9 10  1  0
  9 46  1  0
  9 47  1  0
 10 31  1  0
 10 11  1  0
 10 32  1  1
 11 12  1  0
 11 48  1  0
 11 49  1  0
 12 13  1  0
 12 50  1  0
 12 51  1  0
 13 30  1  0
 13 14  1  1
 13 15  1  0
 14 52  1  0
 15 16  1  0
 15 31  1  0
 15 53  1  6
 16 17  1  0
 16 54  1  0
 16 55  1  0
 17 18  1  0
 17 56  1  0
 17 57  1  0
 18 30  1  0
 18 19  2  0
 19 20  1  0
 19 58  1  0
 20 29  1  0
 20 21  1  1
 20 22  1  0
 21 59  1  0
 21 60  1  0
 21 61  1  0
 22 23  1  0
 22 24  1  0
 22 62  1  1
 23 63  1  0
 24 25  1  0
 24 64  1  0
 24 65  1  0
 25 26  1  0
 25 29  1  0
 25 66  1  1
 26 27  1  0
 26 28  1  0
 26 67  1  0
 27 68  1  0
 27 69  1  0
 27 70  1  0
 28 71  1  0
 28 72  1  0
 28 73  1  0
 29 30  1  0
 29 74  1  1
 30 75  1  6
 31 76  1  0
 31 77  1  0
 32 33  1  0
M  END
>  <i_m_ct_stereo_status>  (237) 
1

>  <s_m_source_file>  (237) 
/var/tmp/pbs.5076255.sched01/tmpelb551ou/82hj6rxffr.sdf

>  <i_m_source_file_index>  (237) 
23

>  <i_lp_mmshare_version>  (237) 
48012

>  <i_f3d_flags>  (237) 
0

>  <s_epik_input>  (237) 
W0NIMl0xW0NIMl1bQ0BIXShbQ0gzXSlbQ0gyXVtDSDJdW0NAXTEyT1tDSDJdW0NAXTMoT08yKVtDSDJdW0NIMl1bQ0BAXTQoW09IXSlbQ0BIXShbQ0gyXTMpW0NIMl1bQ0gyXUM9NVtDQEBIXTRbQ0BIXTZbQ0BdKFtDSF01KShbQ0gzXSlbQ0BASF0oW09IXSlbQ0gyXVtDQEhdNltDSF0oW0NIM10pW0NIM10=

>  <s_epik_cmdline>  (237) 
J2VwaWtfcHl0aG9uJywgJy1waHQnLCAnMi4wJywgJy1waCcsICc3LjAnLCAnLXRuJywgJzgnLCAnLW1hJywgJzIwMCcsICctaW1hZScsICc8aW5maWxlLm1hZT4nLCAnLW9tYWUnLCAnPG91dGZpbGUubWFlPic=

>  <r_lp_tautomer_probability>  (237) 
1

>  <r_epik_Ionization_Penalty>  (237) 
2.26517e-06

>  <r_epik_Ionization_Penalty_Charging>  (237) 
0

>  <r_epik_Ionization_Penalty_Neutral>  (237) 
2.26517e-06

>  <r_epik_State_Penalty>  (237) 
-0

>  <r_epik_Charging_Adjusted_Penalty>  (237) 
0

>  <i_epik_Tot_Q>  (237) 
0

>  <i_epik_Tot_abs_Q>  (237) 
0

>  <s_lp_Force_Field>  (237) 
OPLS3e

>  <r_lp_Energy>  (237) 
38.2573

>  <b_lp_Chiralities_Consistent>  (237) 
1

>  <s_lp_Variant>  (237) 
77:0-1

>  <s_i_glide_gridfile>  (237) 
pfpi4k_grid

>  <i_i_glide_lignum>  (237) 
23

>  <i_i_glide_rotatable_bonds>  (237) 
3

>  <r_i_docking_score>  (237) 
-2.04384

>  <r_i_glide_ligand_efficiency>  (237) 
-0.0619346

>  <r_i_glide_ligand_efficiency_sa>  (237) 
-0.198657

>  <r_i_glide_ligand_efficiency_ln>  (237) 
-0.454539

>  <r_i_glide_gscore>  (237) 
-2.04384

>  <r_i_glide_lipo>  (237) 
-0.0121053

>  <r_i_glide_hbond>  (237) 
-0.126871

>  <r_i_glide_metal>  (237) 
-0

>  <r_i_glide_rewards>  (237) 
-0.268323

>  <r_i_glide_evdw>  (237) 
-21.229

>  <r_i_glide_ecoul>  (237) 
-3.82767

>  <r_i_glide_erotb>  (237) 
0

>  <r_i_glide_esite>  (237) 
-0.000939519

>  <r_i_glide_emodel>  (237) 
-26.564

>  <r_i_glide_energy>  (237) 
-25.0567

>  <r_i_glide_einternal>  (237) 
1.53018

>  <r_i_glide_intrahb_reward>  (237) 
-0

>  <i_i_glide_confnum>  (237) 
5

>  <i_i_glide_posenum>  (237) 
25

>  <r_i_glide_eff_state_penalty>  (237) 
0

>  <ligand_id>  (237) 
77

>  <original_smiles>  (237) 
CC1CCC2(CC1)OCC1(CCC3(O)C(CCC4=CC5(C)C(O)CC(C(C)C)C5C43)C1)OO2

>  <smiles>  (237) 
[H]OC1([H])C([H])([H])C([H])(C([H])(C([H])([H])[H])C([H])([H])[H])C2([H])C3([H])C(=C([H])C12C([H])([H])[H])C([H])([H])C([H])([H])C1([H])C([H])([H])C2(OOC4(OC2([H])[H])C([H])([H])C([H])([H])C([H])(C([H])([H])[H])C([H])([H])C4([H])[H])C([H])([H])C([H])([H])C31O[H]

$$$$
77:0:2
     RDKit          3D

 77 82  0  0  1  0  0  0  0  0999 V2000
   -0.8001   -8.8584    2.9543 C   0  0  0  0  0  0  0  0  0  0  0  0
    0.5043   -8.0938    3.2489 C   0  0  2  0  0  0  0  0  0  0  0  0
    0.3802   -7.2037    4.5050 C   0  0  0  0  0  0  0  0  0  0  0  0
    1.6770   -6.4326    4.8073 C   0  0  0  0  0  0  0  0  0  0  0  0
    2.0377   -5.5096    3.6197 C   0  0  1  0  0  0  0  0  0  0  0  0
    2.1965   -6.3816    2.3401 C   0  0  0  0  0  0  0  0  0  0  0  0
    0.9402   -7.2321    2.0393 C   0  0  0  0  0  0  0  0  0  0  0  0
    1.0245   -4.5366    3.3589 O   0  0  0  0  0  0  0  0  0  0  0  0
    0.9289   -3.5629    4.3960 C   0  0  0  0  0  0  0  0  0  0  0  0
    2.2989   -2.9108    4.7192 C   0  0  2  0  0  0  0  0  0  0  0  0
    2.2611   -1.9968    5.9689 C   0  0  0  0  0  0  0  0  0  0  0  0
    1.4951   -0.6805    5.7346 C   0  0  0  0  0  0  0  0  0  0  0  0
    2.0441    0.1182    4.5430 C   0  0  1  0  0  0  0  0  0  0  0  0
    3.3595    0.5235    4.8649 O   0  0  0  0  0  0  0  0  0  0  0  0
    2.1137   -0.7919    3.2833 C   0  0  1  0  0  0  0  0  0  0  0  0
    2.6076   -0.0348    2.0383 C   0  0  0  0  0  0  0  0  0  0  0  0
    1.7542    1.2149    1.7510 C   0  0  0  0  0  0  0  0  0  0  0  0
    1.6048    2.0633    3.0007 C   0  0  0  0  0  0  0  0  0  0  0  0
    1.8206    3.3688    3.1516 C   0  0  0  0  0  0  0  0  0  0  0  0
    1.7335    3.7979    4.6036 C   0  0  1  0  0  0  0  0  0  0  0  0
    3.1243    4.2855    5.0646 C   0  0  0  0  0  0  0  0  0  0  0  0
    0.6748    4.8848    4.9228 C   0  0  1  0  0  0  0  0  0  0  0  0
   -0.2916    5.1157    3.9063 O   0  0  0  0  0  0  0  0  0  0  0  0
   -0.0133    4.3865    6.2054 C   0  0  0  0  0  0  0  0  0  0  0  0
    0.0200    2.8460    6.1819 C   0  0  1  0  0  0  0  0  0  0  0  0
   -1.3511    2.1755    5.8446 C   0  0  0  0  0  0  0  0  0  0  0  0
   -2.0265    2.6810    4.5509 C   0  0  0  0  0  0  0  0  0  0  0  0
   -2.3244    2.2901    7.0383 C   0  0  0  0  0  0  0  0  0  0  0  0
    1.2808    2.5011    5.3451 C   0  0  1  0  0  0  0  0  0  0  0  0
    1.1856    1.3775    4.2660 C   0  0  2  0  0  0  0  0  0  0  0  0
    2.9006   -2.0962    3.5450 C   0  0  0  0  0  0  0  0  0  0  0  0
    3.1386   -4.0045    5.0624 O   0  0  0  0  0  0  0  0  0  0  0  0
    3.2794   -4.8852    3.8720 O   0  0  0  0  0  0  0  0  0  0  0  0
   -1.6189   -8.1826    2.7357 H   0  0  0  0  0  0  0  0  0  0  0  0
   -1.0973   -9.4488    3.8111 H   0  0  0  0  0  0  0  0  0  0  0  0
   -0.6902   -9.5334    2.1098 H   0  0  0  0  0  0  0  0  0  0  0  0
    1.2958   -8.8225    3.4427 H   0  0  0  0  0  0  0  0  0  0  0  0
   -0.4570   -6.5073    4.3598 H   0  0  0  0  0  0  0  0  0  0  0  0
    0.1295   -7.8284    5.3677 H   0  0  0  0  0  0  0  0  0  0  0  0
    1.5609   -5.9167    5.7624 H   0  0  0  0  0  0  0  0  0  0  0  0
    2.4937   -7.1270    4.9656 H   0  0  0  0  0  0  0  0  0  0  0  0
    2.4494   -5.7798    1.4654 H   0  0  0  0  0  0  0  0  0  0  0  0
    3.0214   -7.0537    2.5044 H   0  0  0  0  0  0  0  0  0  0  0  0
    1.1485   -7.8974    1.1916 H   0  0  0  0  0  0  0  0  0  0  0  0
    0.1061   -6.5836    1.7315 H   0  0  0  0  0  0  0  0  0  0  0  0
    0.1978   -2.8582    4.0415 H   0  0  0  0  0  0  0  0  0  0  0  0
    0.5417   -4.0148    5.3057 H   0  0  0  0  0  0  0  0  0  0  0  0
    1.7885   -2.5371    6.7798 H   0  0  0  0  0  0  0  0  0  0  0  0
    3.2771   -1.7820    6.3303 H   0  0  0  0  0  0  0  0  0  0  0  0
    0.4396   -0.9048    5.5618 H   0  0  0  0  0  0  0  0  0  0  0  0
    1.5343   -0.0763    6.6423 H   0  0  0  0  0  0  0  0  0  0  0  0
    3.6823    0.9915    4.1167 H   0  0  0  0  0  0  0  0  0  0  0  0
    1.0910   -1.0745    3.0348 H   0  0  0  0  0  0  0  0  0  0  0  0
    3.6561    0.2516    2.1670 H   0  0  0  0  0  0  0  0  0  0  0  0
    2.5634   -0.7012    1.1743 H   0  0  0  0  0  0  0  0  0  0  0  0
    2.2235    1.7774    0.9581 H   0  0  0  0  0  0  0  0  0  0  0  0
    0.7615    0.9176    1.4152 H   0  0  0  0  0  0  0  0  0  0  0  0
    2.1238    4.0302    2.3567 H   0  0  0  0  0  0  0  0  0  0  0  0
    3.1320    4.5291    6.1239 H   0  0  0  0  0  0  0  0  0  0  0  0
    3.4133    5.1860    4.5300 H   0  0  0  0  0  0  0  0  0  0  0  0
    3.8998    3.5446    4.8913 H   0  0  0  0  0  0  0  0  0  0  0  0
    1.1585    5.8435    5.1200 H   0  0  0  0  0  0  0  0  0  0  0  0
    0.1593    5.1814    3.0733 H   0  0  0  0  0  0  0  0  0  0  0  0
    0.5867    4.7075    7.0562 H   0  0  0  0  0  0  0  0  0  0  0  0
   -1.0102    4.8069    6.3569 H   0  0  0  0  0  0  0  0  0  0  0  0
    0.2498    2.5092    7.1950 H   0  0  0  0  0  0  0  0  0  0  0  0
   -1.1705    1.1060    5.7283 H   0  0  0  0  0  0  0  0  0  0  0  0
   -2.3857    3.7024    4.6641 H   0  0  0  0  0  0  0  0  0  0  0  0
   -2.8885    2.0751    4.2842 H   0  0  0  0  0  0  0  0  0  0  0  0
   -1.3541    2.6544    3.6947 H   0  0  0  0  0  0  0  0  0  0  0  0
   -2.5998    3.3264    7.2350 H   0  0  0  0  0  0  0  0  0  0  0  0
   -1.8815    1.8837    7.9484 H   0  0  0  0  0  0  0  0  0  0  0  0
   -3.2492    1.7400    6.8749 H   0  0  0  0  0  0  0  0  0  0  0  0
    2.0713    2.2573    6.0634 H   0  0  0  0  0  0  0  0  0  0  0  0
    0.1669    1.0633    4.0551 H   0  0  0  0  0  0  0  0  0  0  0  0
    3.9586   -1.8607    3.7584 H   0  0  0  0  0  0  0  0  0  0  0  0
    2.8919   -2.6889    2.6271 H   0  0  0  0  0  0  0  0  0  0  0  0
  1  2  1  0
  1 34  1  0
  1 35  1  0
  1 36  1  0
  2  7  1  0
  2  3  1  0
  2 37  1  1
  3  4  1  0
  3 38  1  0
  3 39  1  0
  4  5  1  0
  4 40  1  0
  4 41  1  0
  5 33  1  1
  5  6  1  0
  5  8  1  0
  6  7  1  0
  6 42  1  0
  6 43  1  0
  7 44  1  0
  7 45  1  0
  8  9  1  0
  9 10  1  0
  9 46  1  0
  9 47  1  0
 10 31  1  0
 10 11  1  0
 10 32  1  1
 11 12  1  0
 11 48  1  0
 11 49  1  0
 12 13  1  0
 12 50  1  0
 12 51  1  0
 13 30  1  0
 13 14  1  1
 13 15  1  0
 14 52  1  0
 15 16  1  0
 15 31  1  0
 15 53  1  6
 16 17  1  0
 16 54  1  0
 16 55  1  0
 17 18  1  0
 17 56  1  0
 17 57  1  0
 18 30  1  0
 18 19  2  0
 19 20  1  0
 19 58  1  0
 20 29  1  0
 20 21  1  1
 20 22  1  0
 21 59  1  0
 21 60  1  0
 21 61  1  0
 22 23  1  0
 22 24  1  0
 22 62  1  1
 23 63  1  0
 24 25  1  0
 24 64  1  0
 24 65  1  0
 25 26  1  0
 25 29  1  0
 25 66  1  1
 26 27  1  0
 26 28  1  0
 26 67  1  0
 27 68  1  0
 27 69  1  0
 27 70  1  0
 28 71  1  0
 28 72  1  0
 28 73  1  0
 29 30  1  0
 29 74  1  1
 30 75  1  6
 31 76  1  0
 31 77  1  0
 32 33  1  0
M  END
>  <i_m_ct_stereo_status>  (238) 
1

>  <s_m_source_file>  (238) 
/var/tmp/pbs.5076255.sched01/tmpelb551ou/82hj6rxffr.sdf

>  <i_m_source_file_index>  (238) 
23

>  <i_lp_mmshare_version>  (238) 
48012

>  <i_f3d_flags>  (238) 
0

>  <s_epik_input>  (238) 
W0NIMl0xW0NIMl1bQ0BIXShbQ0gzXSlbQ0gyXVtDSDJdW0NAXTEyT1tDSDJdW0NAXTMoT08yKVtDSDJdW0NIMl1bQ0BAXTQoW09IXSlbQ0BIXShbQ0gyXTMpW0NIMl1bQ0gyXUM9NVtDQEBIXTRbQ0BIXTZbQ0BdKFtDSF01KShbQ0gzXSlbQ0BASF0oW09IXSlbQ0gyXVtDQEhdNltDSF0oW0NIM10pW0NIM10=

>  <s_epik_cmdline>  (238) 
J2VwaWtfcHl0aG9uJywgJy1waHQnLCAnMi4wJywgJy1waCcsICc3LjAnLCAnLXRuJywgJzgnLCAnLW1hJywgJzIwMCcsICctaW1hZScsICc8aW5maWxlLm1hZT4nLCAnLW9tYWUnLCAnPG91dGZpbGUubWFlPic=

>  <r_lp_tautomer_probability>  (238) 
1

>  <r_epik_Ionization_Penalty>  (238) 
2.26517e-06

>  <r_epik_Ionization_Penalty_Charging>  (238) 
0

>  <r_epik_Ionization_Penalty_Neutral>  (238) 
2.26517e-06

>  <r_epik_State_Penalty>  (238) 
-0

>  <r_epik_Charging_Adjusted_Penalty>  (238) 
0

>  <i_epik_Tot_Q>  (238) 
0

>  <i_epik_Tot_abs_Q>  (238) 
0

>  <s_lp_Force_Field>  (238) 
OPLS3e

>  <r_lp_Energy>  (238) 
38.2573

>  <b_lp_Chiralities_Consistent>  (238) 
1

>  <s_lp_Variant>  (238) 
77:0-1

>  <s_i_glide_gridfile>  (238) 
pfpi4k_grid

>  <i_i_glide_lignum>  (238) 
23

>  <i_i_glide_rotatable_bonds>  (238) 
3

>  <r_i_docking_score>  (238) 
-1.80549

>  <r_i_glide_ligand_efficiency>  (238) 
-0.0547119

>  <r_i_glide_ligand_efficiency_sa>  (238) 
-0.17549

>  <r_i_glide_ligand_efficiency_ln>  (238) 
-0.401532

>  <r_i_glide_gscore>  (238) 
-1.80549

>  <r_i_glide_lipo>  (238) 
-0.0506284

>  <r_i_glide_hbond>  (238) 
0

>  <r_i_glide_metal>  (238) 
-0

>  <r_i_glide_rewards>  (238) 
-0.268323

>  <r_i_glide_evdw>  (238) 
-21.276

>  <r_i_glide_ecoul>  (238) 
-2.80706

>  <r_i_glide_erotb>  (238) 
0

>  <r_i_glide_esite>  (238) 
-0.00168452

>  <r_i_glide_emodel>  (238) 
-26.4839

>  <r_i_glide_energy>  (238) 
-24.083

>  <r_i_glide_einternal>  (238) 
0.757637

>  <r_i_glide_intrahb_reward>  (238) 
-0

>  <i_i_glide_confnum>  (238) 
5

>  <i_i_glide_posenum>  (238) 
32

>  <r_i_glide_eff_state_penalty>  (238) 
0

>  <ligand_id>  (238) 
77

>  <original_smiles>  (238) 
CC1CCC2(CC1)OCC1(CCC3(O)C(CCC4=CC5(C)C(O)CC(C(C)C)C5C43)C1)OO2

>  <smiles>  (238) 
[H]OC1([H])C([H])([H])C([H])(C([H])(C([H])([H])[H])C([H])([H])[H])C2([H])C3([H])C(=C([H])C12C([H])([H])[H])C([H])([H])C([H])([H])C1([H])C([H])([H])C2(OOC4(OC2([H])[H])C([H])([H])C([H])([H])C([H])(C([H])([H])[H])C([H])([H])C4([H])[H])C([H])([H])C([H])([H])C31O[H]

$$$$
78:0:0
     RDKit          3D

 37 41  0  0  1  0  0  0  0  0999 V2000
    2.6708   -5.5635    2.1367 N   0  0  0  0  0  0  0  0  0  0  0  0
    2.7865   -4.6637    1.4258 C   0  0  0  0  0  0  0  0  0  0  0  0
    2.9353   -3.5073    0.5208 C   0  0  1  0  0  0  0  0  0  0  0  0
    4.2237   -3.3626   -0.0210 C   0  0  0  0  0  0  0  0  0  0  0  0
    3.7045   -1.8830   -0.5644 C   0  0  2  0  0  0  0  0  0  0  0  0
    3.8180   -1.9151   -1.9877 C   0  0  2  0  0  0  0  0  0  0  0  0
    2.9022   -3.1750   -2.0924 N   0  0  0  0  0  0  0  0  0  0  0  0
    2.2722   -3.8270   -0.9838 C   0  0  0  0  0  0  0  0  0  0  0  0
    1.3742   -4.6300   -1.1181 O   0  0  0  0  0  0  0  0  0  0  0  0
    5.3564   -1.6241   -1.6580 C   0  0  2  0  0  0  0  0  0  0  0  0
    6.4057   -2.6860   -1.9019 C   0  0  0  0  0  0  0  0  0  0  0  0
    7.2951   -3.0486   -0.9636 C   0  0  0  0  0  0  0  0  0  0  0  0
    7.3544   -2.5357    0.4702 C   0  0  0  0  0  0  0  0  0  0  0  0
    6.3975   -1.4474    0.8336 N   0  0  2  0  0  0  0  0  0  0  0  0
    5.8201   -1.4853    2.2273 C   0  0  0  0  0  0  0  0  0  0  0  0
    4.3972   -2.1222    2.5015 C   0  0  0  0  0  0  0  0  0  0  0  0
    3.3502   -2.0634    1.3329 C   0  0  1  0  0  0  0  0  0  0  0  0
    4.0236   -0.9554    0.3915 C   0  0  1  0  0  0  0  0  0  0  0  0
    5.4366   -0.9560   -0.1874 C   0  0  2  0  0  0  0  0  0  0  0  0
    5.0170   -3.4930    0.6969 H   0  0  0  0  0  0  0  0  0  0  0  0
    4.5499   -4.1347   -0.7337 H   0  0  0  0  0  0  0  0  0  0  0  0
    2.6395   -1.5377   -0.5862 H   0  0  0  0  0  0  0  0  0  0  0  0
    3.3338   -1.0606   -2.4676 H   0  0  0  0  0  0  0  0  0  0  0  0
    2.5402   -3.4200   -3.0004 H   0  0  0  0  0  0  0  0  0  0  0  0
    5.6273   -0.8317   -2.3445 H   0  0  0  0  0  0  0  0  0  0  0  0
    6.4498   -3.1177   -2.8958 H   0  0  0  0  0  0  0  0  0  0  0  0
    8.0439   -3.7891   -1.2137 H   0  0  0  0  0  0  0  0  0  0  0  0
    7.2486   -3.3915    1.1324 H   0  0  0  0  0  0  0  0  0  0  0  0
    8.3612   -2.1614    0.6322 H   0  0  0  0  0  0  0  0  0  0  0  0
    6.5465   -1.9564    2.8594 H   0  0  0  0  0  0  0  0  0  0  0  0
    5.7733   -0.4534    2.5561 H   0  0  0  0  0  0  0  0  0  0  0  0
    4.5118   -3.1476    2.8549 H   0  0  0  0  0  0  0  0  0  0  0  0
    3.9759   -1.5854    3.3613 H   0  0  0  0  0  0  0  0  0  0  0  0
    2.4289   -1.6586    1.7525 H   0  0  0  0  0  0  0  0  0  0  0  0
    3.4981   -0.0032    0.3080 H   0  0  0  0  0  0  0  0  0  0  0  0
    5.7225    0.0767   -0.3099 H   0  0  0  0  0  0  0  0  0  0  0  0
    7.0372   -0.6706    0.9216 H   0  0  0  0  0  0  0  0  0  0  0  0
  1  2  3  0
  3  2  1  1
  3  8  1  0
  3 17  1  0
  3  4  1  0
  4  5  1  0
  4 20  1  0
  4 21  1  0
  5 18  1  0
  5  6  1  0
  5 22  1  6
  6  7  1  0
  6 10  1  0
  6 23  1  6
  7  8  1  0
  7 24  1  0
  8  9  2  0
 10 19  1  0
 10 11  1  0
 10 25  1  6
 11 12  2  0
 11 26  1  0
 12 13  1  0
 12 27  1  0
 13 14  1  0
 13 28  1  0
 13 29  1  0
 14 19  1  0
 14 15  1  0
 14 37  1  1
 15 16  1  0
 15 30  1  0
 15 31  1  0
 16 17  1  0
 16 32  1  0
 16 33  1  0
 17 18  1  0
 17 34  1  1
 18 19  1  0
 18 35  1  6
 19 36  1  6
M  CHG  1  14   1
M  END
>  <i_m_ct_stereo_status>  (239) 
1

>  <s_m_source_file>  (239) 
/var/tmp/pbs.5076255.sched01/tmpelb551ou/82hj6rxffr.sdf

>  <i_m_source_file_index>  (239) 
24

>  <i_lp_mmshare_version>  (239) 
48012

>  <i_f3d_flags>  (239) 
0

>  <s_epik_input>  (239) 
TiNDW0NAQF0xMltDQEBIXTNbQ0BASF00W0NASF0oW0NIMl0xKVtDQEhdKFtOSF1DMj1PKVtDQEhdNVtDQEBIXTROKFtDSDJdW0NIMl0zKVtDSDJdW0NIXT1bQ0hdNQ==

>  <s_epik_cmdline>  (239) 
J2VwaWtfcHl0aG9uJywgJy1waHQnLCAnMi4wJywgJy1waCcsICc3LjAnLCAnLXRuJywgJzgnLCAnLW1hJywgJzIwMCcsICctaW1hZScsICc8aW5maWxlLm1hZT4nLCAnLW9tYWUnLCAnPG91dGZpbGUubWFlPic=

>  <r_epik_Ionization_Penalty>  (239) 
0.0130675

>  <r_epik_Ionization_Penalty_Charging>  (239) 
0.0130625

>  <r_epik_Ionization_Penalty_Neutral>  (239) 
5.01992e-06

>  <r_epik_State_Penalty>  (239) 
0.0101459

>  <r_epik_Charging_Adjusted_Penalty>  (239) 
0.0232084

>  <i_epik_Tot_Q>  (239) 
1

>  <i_epik_Tot_abs_Q>  (239) 
1

>  <s_lp_Force_Field>  (239) 
OPLS3e

>  <r_lp_Energy>  (239) 
300.06

>  <b_lp_Chiralities_Consistent>  (239) 
1

>  <s_lp_Variant>  (239) 
78:0-1

>  <s_i_glide_gridfile>  (239) 
pfpi4k_grid

>  <i_i_glide_lignum>  (239) 
24

>  <i_i_glide_rotatable_bonds>  (239) 
1

>  <r_i_docking_score>  (239) 
-3.54181

>  <r_i_glide_ligand_efficiency>  (239) 
-0.186411

>  <r_i_glide_ligand_efficiency_sa>  (239) 
-0.497419

>  <r_i_glide_ligand_efficiency_ln>  (239) 
-0.897924

>  <r_i_glide_gscore>  (239) 
-3.54181

>  <r_i_glide_lipo>  (239) 
-0.359886

>  <r_i_glide_hbond>  (239) 
-0.00495088

>  <r_i_glide_metal>  (239) 
-0

>  <r_i_glide_rewards>  (239) 
-1.66143

>  <r_i_glide_evdw>  (239) 
-16.2723

>  <r_i_glide_ecoul>  (239) 
-4.34095

>  <r_i_glide_erotb>  (239) 
0

>  <r_i_glide_esite>  (239) 
-0.0507763

>  <r_i_glide_emodel>  (239) 
-26.1746

>  <r_i_glide_energy>  (239) 
-20.6133

>  <r_i_glide_einternal>  (239) 
-0.347469

>  <r_i_glide_intrahb_reward>  (239) 
-0

>  <i_i_glide_confnum>  (239) 
1

>  <i_i_glide_posenum>  (239) 
1

>  <r_i_glide_eff_state_penalty>  (239) 
0

>  <ligand_id>  (239) 
78

>  <original_smiles>  (239) 
N#CC12CC3C(NC1=O)C1C=CCN4CCC2C3C14

>  <smiles>  (239) 
[H]C1=C([H])C([H])([H])[N+]2([H])C([H])([H])C([H])([H])C3([H])C4(C#N)C(=O)N([H])C5([H])C1([H])C2([H])C3([H])C5([H])C4([H])[H]

$$$$
78:0:1
     RDKit          3D

 37 41  0  0  1  0  0  0  0  0999 V2000
    3.7721   -1.5565   -3.9341 N   0  0  0  0  0  0  0  0  0  0  0  0
    3.8199   -2.2449   -3.0013 C   0  0  0  0  0  0  0  0  0  0  0  0
    3.8968   -3.1263   -1.8191 C   0  0  1  0  0  0  0  0  0  0  0  0
    4.3148   -2.5050   -0.6344 C   0  0  0  0  0  0  0  0  0  0  0  0
    4.4346   -4.0493    0.0015 C   0  0  2  0  0  0  0  0  0  0  0  0
    3.5518   -4.0676    1.1208 C   0  0  2  0  0  0  0  0  0  0  0  0
    2.3398   -3.6651    0.2279 N   0  0  0  0  0  0  0  0  0  0  0  0
    2.3934   -3.4516   -1.1966 C   0  0  0  0  0  0  0  0  0  0  0  0
    1.4082   -3.4727   -1.9060 O   0  0  0  0  0  0  0  0  0  0  0  0
    4.7505   -3.3098    1.8548 C   0  0  2  0  0  0  0  0  0  0  0  0
    4.6043   -1.8557    2.2329 C   0  0  0  0  0  0  0  0  0  0  0  0
    5.5096   -0.9293    1.8857 C   0  0  0  0  0  0  0  0  0  0  0  0
    6.7370   -1.1543    1.0212 C   0  0  0  0  0  0  0  0  0  0  0  0
    7.0473   -2.5560    0.6226 N   0  0  2  0  0  0  0  0  0  0  0  0
    7.6524   -2.7308   -0.7576 C   0  0  0  0  0  0  0  0  0  0  0  0
    6.7067   -3.1026   -1.9685 C   0  0  0  0  0  0  0  0  0  0  0  0
    5.3991   -3.9016   -1.6549 C   0  0  1  0  0  0  0  0  0  0  0  0
    5.7194   -4.4606   -0.1826 C   0  0  1  0  0  0  0  0  0  0  0  0
    6.1124   -3.6451    1.0462 C   0  0  2  0  0  0  0  0  0  0  0  0
    5.1437   -1.8323   -0.7704 H   0  0  0  0  0  0  0  0  0  0  0  0
    3.6247   -1.7672   -0.1982 H   0  0  0  0  0  0  0  0  0  0  0  0
    4.0118   -4.9910   -0.4567 H   0  0  0  0  0  0  0  0  0  0  0  0
    3.4022   -5.0715    1.5259 H   0  0  0  0  0  0  0  0  0  0  0  0
    1.4377   -3.7687    0.6523 H   0  0  0  0  0  0  0  0  0  0  0  0
    4.8461   -3.7965    2.8208 H   0  0  0  0  0  0  0  0  0  0  0  0
    3.7542   -1.5875    2.8497 H   0  0  0  0  0  0  0  0  0  0  0  0
    5.3778    0.0857    2.2245 H   0  0  0  0  0  0  0  0  0  0  0  0
    6.6778   -0.4900    0.1641 H   0  0  0  0  0  0  0  0  0  0  0  0
    7.5903   -0.8255    1.5935 H   0  0  0  0  0  0  0  0  0  0  0  0
    8.2850   -1.8856   -1.0079 H   0  0  0  0  0  0  0  0  0  0  0  0
    8.3482   -3.5523   -0.6571 H   0  0  0  0  0  0  0  0  0  0  0  0
    6.4453   -2.2379   -2.5631 H   0  0  0  0  0  0  0  0  0  0  0  0
    7.3012   -3.7151   -2.6515 H   0  0  0  0  0  0  0  0  0  0  0  0
    5.3542   -4.7319   -2.3529 H   0  0  0  0  0  0  0  0  0  0  0  0
    5.8502   -5.5391   -0.0721 H   0  0  0  0  0  0  0  0  0  0  0  0
    6.7082   -4.2909    1.6771 H   0  0  0  0  0  0  0  0  0  0  0  0
    7.8430   -2.7480    1.2151 H   0  0  0  0  0  0  0  0  0  0  0  0
  1  2  3  0
  3  2  1  6
  3  8  1  0
  3 17  1  0
  3  4  1  0
  4  5  1  0
  4 20  1  0
  4 21  1  0
  5 18  1  0
  5  6  1  0
  5 22  1  6
  6  7  1  0
  6 10  1  0
  6 23  1  1
  7  8  1  0
  7 24  1  0
  8  9  2  0
 10 19  1  0
 10 11  1  0
 10 25  1  1
 11 12  2  0
 11 26  1  0
 12 13  1  0
 12 27  1  0
 13 14  1  0
 13 28  1  0
 13 29  1  0
 14 19  1  0
 14 15  1  0
 14 37  1  1
 15 16  1  0
 15 30  1  0
 15 31  1  0
 16 17  1  0
 16 32  1  0
 16 33  1  0
 17 18  1  0
 17 34  1  6
 18 19  1  0
 18 35  1  6
 19 36  1  1
M  CHG  1  14   1
M  END
>  <i_m_ct_stereo_status>  (240) 
1

>  <s_m_source_file>  (240) 
/var/tmp/pbs.5076255.sched01/tmpelb551ou/82hj6rxffr.sdf

>  <i_m_source_file_index>  (240) 
24

>  <i_lp_mmshare_version>  (240) 
48012

>  <i_f3d_flags>  (240) 
0

>  <s_epik_input>  (240) 
TiNDW0NAQF0xMltDQEBIXTNbQ0BASF00W0NASF0oW0NIMl0xKVtDQEhdKFtOSF1DMj1PKVtDQEhdNVtDQEBIXTROKFtDSDJdW0NIMl0zKVtDSDJdW0NIXT1bQ0hdNQ==

>  <s_epik_cmdline>  (240) 
J2VwaWtfcHl0aG9uJywgJy1waHQnLCAnMi4wJywgJy1waCcsICc3LjAnLCAnLXRuJywgJzgnLCAnLW1hJywgJzIwMCcsICctaW1hZScsICc8aW5maWxlLm1hZT4nLCAnLW9tYWUnLCAnPG91dGZpbGUubWFlPic=

>  <r_epik_Ionization_Penalty>  (240) 
0.0130675

>  <r_epik_Ionization_Penalty_Charging>  (240) 
0.0130625

>  <r_epik_Ionization_Penalty_Neutral>  (240) 
5.01992e-06

>  <r_epik_State_Penalty>  (240) 
0.0101459

>  <r_epik_Charging_Adjusted_Penalty>  (240) 
0.0232084

>  <i_epik_Tot_Q>  (240) 
1

>  <i_epik_Tot_abs_Q>  (240) 
1

>  <s_lp_Force_Field>  (240) 
OPLS3e

>  <r_lp_Energy>  (240) 
300.06

>  <b_lp_Chiralities_Consistent>  (240) 
1

>  <s_lp_Variant>  (240) 
78:0-1

>  <s_i_glide_gridfile>  (240) 
pfpi4k_grid

>  <i_i_glide_lignum>  (240) 
24

>  <i_i_glide_rotatable_bonds>  (240) 
1

>  <r_i_docking_score>  (240) 
-3.50416

>  <r_i_glide_ligand_efficiency>  (240) 
-0.184429

>  <r_i_glide_ligand_efficiency_sa>  (240) 
-0.492131

>  <r_i_glide_ligand_efficiency_ln>  (240) 
-0.888379

>  <r_i_glide_gscore>  (240) 
-3.50416

>  <r_i_glide_lipo>  (240) 
-0.358014

>  <r_i_glide_hbond>  (240) 
-0.0209908

>  <r_i_glide_metal>  (240) 
-0

>  <r_i_glide_rewards>  (240) 
-1.8104

>  <r_i_glide_evdw>  (240) 
-18.6012

>  <r_i_glide_ecoul>  (240) 
-2.25933

>  <r_i_glide_erotb>  (240) 
0

>  <r_i_glide_esite>  (240) 
-0.0457943

>  <r_i_glide_emodel>  (240) 
-26.3531

>  <r_i_glide_energy>  (240) 
-20.8605

>  <r_i_glide_einternal>  (240) 
-0.34708

>  <r_i_glide_intrahb_reward>  (240) 
-0

>  <i_i_glide_confnum>  (240) 
1

>  <i_i_glide_posenum>  (240) 
26

>  <r_i_glide_eff_state_penalty>  (240) 
0

>  <ligand_id>  (240) 
78

>  <original_smiles>  (240) 
N#CC12CC3C(NC1=O)C1C=CCN4CCC2C3C14

>  <smiles>  (240) 
[H]C1=C([H])C([H])([H])[N+]2([H])C([H])([H])C([H])([H])C3([H])C4(C#N)C(=O)N([H])C5([H])C1([H])C2([H])C3([H])C5([H])C4([H])[H]

$$$$
78:0:2
     RDKit          3D

 37 41  0  0  1  0  0  0  0  0999 V2000
    1.4162   -4.8373    3.2757 N   0  0  0  0  0  0  0  0  0  0  0  0
    2.1030   -3.9499    2.9842 C   0  0  0  0  0  0  0  0  0  0  0  0
    2.9714   -2.8240    2.6110 C   0  0  1  0  0  0  0  0  0  0  0  0
    3.2287   -2.7266    1.2279 C   0  0  0  0  0  0  0  0  0  0  0  0
    4.3550   -1.5745    1.6349 C   0  0  2  0  0  0  0  0  0  0  0  0
    3.9481   -0.3828    0.9586 C   0  0  2  0  0  0  0  0  0  0  0  0
    2.5453   -0.4005    1.6673 N   0  0  0  0  0  0  0  0  0  0  0  0
    2.1207   -1.3794    2.6210 C   0  0  0  0  0  0  0  0  0  0  0  0
    1.1478   -1.2168    3.3528 O   0  0  0  0  0  0  0  0  0  0  0  0
    4.6424   -1.0889   -0.3078 C   0  0  2  0  0  0  0  0  0  0  0  0
    3.8017   -1.5948   -1.4582 C   0  0  0  0  0  0  0  0  0  0  0  0
    3.8904   -2.8451   -1.9403 C   0  0  0  0  0  0  0  0  0  0  0  0
    4.7792   -3.9576   -1.3957 C   0  0  0  0  0  0  0  0  0  0  0  0
    5.7015   -3.5978   -0.2773 N   0  0  2  0  0  0  0  0  0  0  0  0
    5.9259   -4.6703    0.7769 C   0  0  0  0  0  0  0  0  0  0  0  0
    5.1141   -4.6137    2.1434 C   0  0  0  0  0  0  0  0  0  0  0  0
    4.6448   -3.1960    2.6547 C   0  0  1  0  0  0  0  0  0  0  0  0
    5.5642   -2.2184    1.7714 C   0  0  1  0  0  0  0  0  0  0  0  0
    5.7030   -2.1907    0.2436 C   0  0  2  0  0  0  0  0  0  0  0  0
    3.4626   -3.6712    0.7572 H   0  0  0  0  0  0  0  0  0  0  0  0
    2.3762   -2.4665    0.5807 H   0  0  0  0  0  0  0  0  0  0  0  0
    4.4599   -1.0668    2.6315 H   0  0  0  0  0  0  0  0  0  0  0  0
    4.5178    0.4952    1.2694 H   0  0  0  0  0  0  0  0  0  0  0  0
    1.9878    0.4383    1.5857 H   0  0  0  0  0  0  0  0  0  0  0  0
    5.2323   -0.3036   -0.7763 H   0  0  0  0  0  0  0  0  0  0  0  0
    3.1180   -0.8902   -1.9129 H   0  0  0  0  0  0  0  0  0  0  0  0
    3.2621   -3.1279   -2.7717 H   0  0  0  0  0  0  0  0  0  0  0  0
    4.1373   -4.7862   -1.0988 H   0  0  0  0  0  0  0  0  0  0  0  0
    5.3861   -4.3325   -2.2203 H   0  0  0  0  0  0  0  0  0  0  0  0
    5.8441   -5.6651    0.3332 H   0  0  0  0  0  0  0  0  0  0  0  0
    6.9765   -4.5733    1.0475 H   0  0  0  0  0  0  0  0  0  0  0  0
    4.2679   -5.3001    2.1084 H   0  0  0  0  0  0  0  0  0  0  0  0
    5.7671   -5.0342    2.9103 H   0  0  0  0  0  0  0  0  0  0  0  0
    4.9442   -3.1208    3.7033 H   0  0  0  0  0  0  0  0  0  0  0  0
    6.3159   -1.6344    2.3058 H   0  0  0  0  0  0  0  0  0  0  0  0
    6.7023   -1.8206    0.0175 H   0  0  0  0  0  0  0  0  0  0  0  0
    6.5826   -3.6290   -0.7720 H   0  0  0  0  0  0  0  0  0  0  0  0
  1  2  3  0
  3  2  1  6
  3  8  1  0
  3 17  1  0
  3  4  1  0
  4  5  1  0
  4 20  1  0
  4 21  1  0
  5 18  1  0
  5  6  1  0
  5 22  1  1
  6  7  1  0
  6 10  1  0
  6 23  1  1
  7  8  1  0
  7 24  1  0
  8  9  2  0
 10 19  1  0
 10 11  1  0
 10 25  1  6
 11 12  2  0
 11 26  1  0
 12 13  1  0
 12 27  1  0
 13 14  1  0
 13 28  1  0
 13 29  1  0
 14 19  1  0
 14 15  1  0
 14 37  1  6
 15 16  1  0
 15 30  1  0
 15 31  1  0
 16 17  1  0
 16 32  1  0
 16 33  1  0
 17 18  1  0
 17 34  1  1
 18 19  1  0
 18 35  1  1
 19 36  1  1
M  CHG  1  14   1
M  END
>  <i_m_ct_stereo_status>  (241) 
1

>  <s_m_source_file>  (241) 
/var/tmp/pbs.5076255.sched01/tmpelb551ou/82hj6rxffr.sdf

>  <i_m_source_file_index>  (241) 
24

>  <i_lp_mmshare_version>  (241) 
48012

>  <i_f3d_flags>  (241) 
0

>  <s_epik_input>  (241) 
TiNDW0NAQF0xMltDQEBIXTNbQ0BASF00W0NASF0oW0NIMl0xKVtDQEhdKFtOSF1DMj1PKVtDQEhdNVtDQEBIXTROKFtDSDJdW0NIMl0zKVtDSDJdW0NIXT1bQ0hdNQ==

>  <s_epik_cmdline>  (241) 
J2VwaWtfcHl0aG9uJywgJy1waHQnLCAnMi4wJywgJy1waCcsICc3LjAnLCAnLXRuJywgJzgnLCAnLW1hJywgJzIwMCcsICctaW1hZScsICc8aW5maWxlLm1hZT4nLCAnLW9tYWUnLCAnPG91dGZpbGUubWFlPic=

>  <r_epik_Ionization_Penalty>  (241) 
0.0130675

>  <r_epik_Ionization_Penalty_Charging>  (241) 
0.0130625

>  <r_epik_Ionization_Penalty_Neutral>  (241) 
5.01992e-06

>  <r_epik_State_Penalty>  (241) 
0.0101459

>  <r_epik_Charging_Adjusted_Penalty>  (241) 
0.0232084

>  <i_epik_Tot_Q>  (241) 
1

>  <i_epik_Tot_abs_Q>  (241) 
1

>  <s_lp_Force_Field>  (241) 
OPLS3e

>  <r_lp_Energy>  (241) 
300.06

>  <b_lp_Chiralities_Consistent>  (241) 
1

>  <s_lp_Variant>  (241) 
78:0-1

>  <s_i_glide_gridfile>  (241) 
pfpi4k_grid

>  <i_i_glide_lignum>  (241) 
24

>  <i_i_glide_rotatable_bonds>  (241) 
1

>  <r_i_docking_score>  (241) 
-3.38323

>  <r_i_glide_ligand_efficiency>  (241) 
-0.178065

>  <r_i_glide_ligand_efficiency_sa>  (241) 
-0.475148

>  <r_i_glide_ligand_efficiency_ln>  (241) 
-0.857721

>  <r_i_glide_gscore>  (241) 
-3.38323

>  <r_i_glide_lipo>  (241) 
-0.326632

>  <r_i_glide_hbond>  (241) 
0

>  <r_i_glide_metal>  (241) 
-0

>  <r_i_glide_rewards>  (241) 
-1.66143

>  <r_i_glide_evdw>  (241) 
-20.6341

>  <r_i_glide_ecoul>  (241) 
-1.89861

>  <r_i_glide_erotb>  (241) 
0

>  <r_i_glide_esite>  (241) 
-0.0786671

>  <r_i_glide_emodel>  (241) 
-27.8977

>  <r_i_glide_energy>  (241) 
-22.5327

>  <r_i_glide_einternal>  (241) 
-0.347187

>  <r_i_glide_intrahb_reward>  (241) 
-0

>  <i_i_glide_confnum>  (241) 
1

>  <i_i_glide_posenum>  (241) 
15

>  <r_i_glide_eff_state_penalty>  (241) 
0

>  <ligand_id>  (241) 
78

>  <original_smiles>  (241) 
N#CC12CC3C(NC1=O)C1C=CCN4CCC2C3C14

>  <smiles>  (241) 
[H]C1=C([H])C([H])([H])[N+]2([H])C([H])([H])C([H])([H])C3([H])C4(C#N)C(=O)N([H])C5([H])C1([H])C2([H])C3([H])C5([H])C4([H])[H]

$$$$
78:1:0
     RDKit          3D

 36 40  0  0  1  0  0  0  0  0999 V2000
    4.4202   -0.2545   -2.9421 N   0  0  0  0  0  0  0  0  0  0  0  0
    4.2596   -1.2480   -2.3877 C   0  0  0  0  0  0  0  0  0  0  0  0
    4.0376   -2.5141   -1.6932 C   0  0  1  0  0  0  0  0  0  0  0  0
    3.6728   -2.3689   -0.3411 C   0  0  0  0  0  0  0  0  0  0  0  0
    3.8483   -4.0190   -0.2594 C   0  0  2  0  0  0  0  0  0  0  0  0
    2.5755   -4.5372    0.1185 C   0  0  2  0  0  0  0  0  0  0  0  0
    1.8638   -3.8583   -1.1191 N   0  0  0  0  0  0  0  0  0  0  0  0
    2.5460   -3.1087   -2.1248 C   0  0  0  0  0  0  0  0  0  0  0  0
    2.0566   -2.8644   -3.2256 O   0  0  0  0  0  0  0  0  0  0  0  0
    3.0889   -4.1157    1.5903 C   0  0  2  0  0  0  0  0  0  0  0  0
    2.4907   -2.9458    2.3668 C   0  0  0  0  0  0  0  0  0  0  0  0
    3.2525   -2.0970    3.0852 C   0  0  0  0  0  0  0  0  0  0  0  0
    4.7812   -2.1259    3.1306 C   0  0  0  0  0  0  0  0  0  0  0  0
    5.3051   -2.7659    1.9351 N   0  0  0  0  0  0  0  0  0  0  0  0
    6.5436   -2.3183    1.2634 C   0  0  0  0  0  0  0  0  0  0  0  0
    6.5132   -2.3197   -0.3269 C   0  0  0  0  0  0  0  0  0  0  0  0
    5.4437   -3.2380   -1.0348 C   0  0  1  0  0  0  0  0  0  0  0  0
    5.1465   -4.3189    0.1173 C   0  0  1  0  0  0  0  0  0  0  0  0
    4.7135   -4.0545    1.5674 C   0  0  2  0  0  0  0  0  0  0  0  0
    4.2837   -1.6329    0.1686 H   0  0  0  0  0  0  0  0  0  0  0  0
    2.6974   -1.9066   -0.1184 H   0  0  0  0  0  0  0  0  0  0  0  0
    3.9252   -4.7246   -1.1265 H   0  0  0  0  0  0  0  0  0  0  0  0
    2.5181   -5.6225    0.0340 H   0  0  0  0  0  0  0  0  0  0  0  0
    0.9349   -4.1781   -1.3544 H   0  0  0  0  0  0  0  0  0  0  0  0
    2.8367   -4.9672    2.2238 H   0  0  0  0  0  0  0  0  0  0  0  0
    1.4133   -2.8637    2.3839 H   0  0  0  0  0  0  0  0  0  0  0  0
    2.7875   -1.3294    3.6845 H   0  0  0  0  0  0  0  0  0  0  0  0
    5.1644   -1.1102    3.2151 H   0  0  0  0  0  0  0  0  0  0  0  0
    5.1108   -2.6753    4.0135 H   0  0  0  0  0  0  0  0  0  0  0  0
    6.7896   -1.3104    1.6126 H   0  0  0  0  0  0  0  0  0  0  0  0
    7.3411   -2.9804    1.5948 H   0  0  0  0  0  0  0  0  0  0  0  0
    6.3906   -1.2960   -0.6752 H   0  0  0  0  0  0  0  0  0  0  0  0
    7.5038   -2.6351   -0.6658 H   0  0  0  0  0  0  0  0  0  0  0  0
    5.9448   -3.7311   -1.8698 H   0  0  0  0  0  0  0  0  0  0  0  0
    5.4504   -5.3472   -0.0895 H   0  0  0  0  0  0  0  0  0  0  0  0
    5.1247   -4.8277    2.2131 H   0  0  0  0  0  0  0  0  0  0  0  0
  1  2  3  0
  3  2  1  6
  3  8  1  0
  3 17  1  0
  3  4  1  0
  4  5  1  0
  4 20  1  0
  4 21  1  0
  5 18  1  0
  5  6  1  0
  5 22  1  6
  6  7  1  0
  6 10  1  0
  6 23  1  1
  7  8  1  0
  7 24  1  0
  8  9  2  0
 10 19  1  0
 10 11  1  0
 10 25  1  1
 11 12  2  0
 11 26  1  0
 12 13  1  0
 12 27  1  0
 13 14  1  0
 13 28  1  0
 13 29  1  0
 14 19  1  0
 14 15  1  0
 15 16  1  0
 15 30  1  0
 15 31  1  0
 16 17  1  0
 16 32  1  0
 16 33  1  0
 17 18  1  0
 17 34  1  6
 18 19  1  0
 18 35  1  1
 19 36  1  1
M  END
>  <i_m_ct_stereo_status>  (242) 
1

>  <s_m_source_file>  (242) 
/var/tmp/pbs.5076255.sched01/tmpelb551ou/82hj6rxffr.sdf

>  <i_m_source_file_index>  (242) 
25

>  <i_lp_mmshare_version>  (242) 
48012

>  <i_f3d_flags>  (242) 
0

>  <s_epik_input>  (242) 
TiNDW0NAQF0xMltDQEBIXTNbQ0BASF00W0NASF0oW0NIMl0xKVtDQEhdKFtOSF1DMj1PKVtDQEhdNVtDQEBIXTROKFtDSDJdW0NIMl0zKVtDSDJdW0NIXT1bQ0hdNQ==

>  <s_epik_cmdline>  (242) 
J2VwaWtfcHl0aG9uJywgJy1waHQnLCAnMi4wJywgJy1waCcsICc3LjAnLCAnLXRuJywgJzgnLCAnLW1hJywgJzIwMCcsICctaW1hZScsICc8aW5maWxlLm1hZT4nLCAnLW9tYWUnLCAnPG91dGZpbGUubWFlPic=

>  <r_epik_Ionization_Penalty>  (242) 
2.26661

>  <r_epik_Ionization_Penalty_Charging>  (242) 
0

>  <r_epik_Ionization_Penalty_Neutral>  (242) 
2.26661

>  <r_epik_State_Penalty>  (242) 
2.41486

>  <r_epik_Charging_Adjusted_Penalty>  (242) 
2.41486

>  <i_epik_Tot_Q>  (242) 
0

>  <i_epik_Tot_abs_Q>  (242) 
0

>  <s_lp_Force_Field>  (242) 
OPLS3e

>  <r_lp_Energy>  (242) 
291.134

>  <b_lp_Chiralities_Consistent>  (242) 
1

>  <s_lp_Variant>  (242) 
78:0-2

>  <s_i_glide_gridfile>  (242) 
pfpi4k_grid

>  <i_i_glide_lignum>  (242) 
25

>  <i_i_glide_rotatable_bonds>  (242) 
1

>  <r_i_docking_score>  (242) 
-3.10922

>  <r_i_glide_ligand_efficiency>  (242) 
-0.163643

>  <r_i_glide_ligand_efficiency_sa>  (242) 
-0.436666

>  <r_i_glide_ligand_efficiency_ln>  (242) 
-0.788254

>  <r_i_glide_gscore>  (242) 
-3.10922

>  <r_i_glide_lipo>  (242) 
-0.272948

>  <r_i_glide_hbond>  (242) 
0

>  <r_i_glide_metal>  (242) 
-0

>  <r_i_glide_rewards>  (242) 
-1.72345

>  <r_i_glide_evdw>  (242) 
-19.4425

>  <r_i_glide_ecoul>  (242) 
-0.403154

>  <r_i_glide_erotb>  (242) 
0

>  <r_i_glide_esite>  (242) 
-0.0802255

>  <r_i_glide_emodel>  (242) 
-22.7634

>  <r_i_glide_energy>  (242) 
-19.8457

>  <r_i_glide_einternal>  (242) 
-0.370374

>  <r_i_glide_intrahb_reward>  (242) 
-0

>  <i_i_glide_confnum>  (242) 
1

>  <i_i_glide_posenum>  (242) 
2

>  <r_i_glide_eff_state_penalty>  (242) 
0

>  <ligand_id>  (242) 
78

>  <original_smiles>  (242) 
N#CC12CC3C(NC1=O)C1C=CCN4CCC2C3C14

>  <smiles>  (242) 
[H]C1=C([H])C2([H])C3([H])N([H])C(=O)C4(C#N)C([H])([H])C3([H])C3([H])C2([H])N(C1([H])[H])C([H])([H])C([H])([H])C43[H]

$$$$
78:1:1
     RDKit          3D

 36 40  0  0  1  0  0  0  0  0999 V2000
    1.8314   -2.6341    2.8688 N   0  0  0  0  0  0  0  0  0  0  0  0
    2.7324   -2.8597    2.1826 C   0  0  0  0  0  0  0  0  0  0  0  0
    3.8955   -3.1598    1.3116 C   0  0  1  0  0  0  0  0  0  0  0  0
    4.0863   -2.2672    0.2458 C   0  0  0  0  0  0  0  0  0  0  0  0
    5.2177   -3.3779   -0.2959 C   0  0  2  0  0  0  0  0  0  0  0  0
    6.4510   -2.6772   -0.3575 C   0  0  2  0  0  0  0  0  0  0  0  0
    6.3601   -2.2815    1.1622 N   0  0  0  0  0  0  0  0  0  0  0  0
    5.3179   -2.6893    2.0292 C   0  0  0  0  0  0  0  0  0  0  0  0
    5.4009   -2.6207    3.2550 O   0  0  0  0  0  0  0  0  0  0  0  0
    5.8256   -2.1702   -1.7410 C   0  0  2  0  0  0  0  0  0  0  0  0
    5.3184   -0.7457   -1.9262 C   0  0  0  0  0  0  0  0  0  0  0  0
    4.2516   -0.4229   -2.6770 C   0  0  0  0  0  0  0  0  0  0  0  0
    3.2948   -1.4192   -3.2692 C   0  0  0  0  0  0  0  0  0  0  0  0
    3.4066   -2.6548   -2.5212 N   0  0  0  0  0  0  0  0  0  0  0  0
    2.2136   -3.4260   -2.1882 C   0  0  0  0  0  0  0  0  0  0  0  0
    2.2092   -4.1010   -0.7451 C   0  0  0  0  0  0  0  0  0  0  0  0
    3.5526   -4.2561    0.0489 C   0  0  1  0  0  0  0  0  0  0  0  0
    4.6019   -4.2524   -1.1586 C   0  0  1  0  0  0  0  0  0  0  0  0
    4.7344   -3.2175   -2.2705 C   0  0  2  0  0  0  0  0  0  0  0  0
    3.1716   -2.0019   -0.2604 H   0  0  0  0  0  0  0  0  0  0  0  0
    4.3844   -1.2375    0.4905 H   0  0  0  0  0  0  0  0  0  0  0  0
    5.6551   -4.2228    0.3043 H   0  0  0  0  0  0  0  0  0  0  0  0
    7.3089   -3.3337   -0.5258 H   0  0  0  0  0  0  0  0  0  0  0  0
    7.2028   -1.9158    1.5796 H   0  0  0  0  0  0  0  0  0  0  0  0
    6.6546   -2.2466   -2.4387 H   0  0  0  0  0  0  0  0  0  0  0  0
    5.8519    0.0377   -1.4439 H   0  0  0  0  0  0  0  0  0  0  0  0
    4.0350    0.6220   -2.8563 H   0  0  0  0  0  0  0  0  0  0  0  0
    2.2975   -0.9955   -3.1839 H   0  0  0  0  0  0  0  0  0  0  0  0
    3.5300   -1.5723   -4.3165 H   0  0  0  0  0  0  0  0  0  0  0  0
    1.3194   -2.8117   -2.3083 H   0  0  0  0  0  0  0  0  0  0  0  0
    2.1526   -4.2145   -2.9381 H   0  0  0  0  0  0  0  0  0  0  0  0
    1.5232   -3.4876   -0.1557 H   0  0  0  0  0  0  0  0  0  0  0  0
    1.7385   -5.0900   -0.8376 H   0  0  0  0  0  0  0  0  0  0  0  0
    3.5382   -5.2489    0.4946 H   0  0  0  0  0  0  0  0  0  0  0  0
    5.1386   -5.1818   -1.3464 H   0  0  0  0  0  0  0  0  0  0  0  0
    5.0763   -3.6836   -3.1911 H   0  0  0  0  0  0  0  0  0  0  0  0
  1  2  3  0
  3  2  1  1
  3  8  1  0
  3 17  1  0
  3  4  1  0
  4  5  1  0
  4 20  1  0
  4 21  1  0
  5 18  1  0
  5  6  1  0
  5 22  1  1
  6  7  1  0
  6 10  1  0
  6 23  1  6
  7  8  1  0
  7 24  1  0
  8  9  2  0
 10 19  1  0
 10 11  1  0
 10 25  1  6
 11 12  2  0
 11 26  1  0
 12 13  1  0
 12 27  1  0
 13 14  1  0
 13 28  1  0
 13 29  1  0
 14 19  1  0
 14 15  1  0
 15 16  1  0
 15 30  1  0
 15 31  1  0
 16 17  1  0
 16 32  1  0
 16 33  1  0
 17 18  1  0
 17 34  1  1
 18 19  1  0
 18 35  1  6
 19 36  1  6
M  END
>  <i_m_ct_stereo_status>  (243) 
1

>  <s_m_source_file>  (243) 
/var/tmp/pbs.5076255.sched01/tmpelb551ou/82hj6rxffr.sdf

>  <i_m_source_file_index>  (243) 
25

>  <i_lp_mmshare_version>  (243) 
48012

>  <i_f3d_flags>  (243) 
0

>  <s_epik_input>  (243) 
TiNDW0NAQF0xMltDQEBIXTNbQ0BASF00W0NASF0oW0NIMl0xKVtDQEhdKFtOSF1DMj1PKVtDQEhdNVtDQEBIXTROKFtDSDJdW0NIMl0zKVtDSDJdW0NIXT1bQ0hdNQ==

>  <s_epik_cmdline>  (243) 
J2VwaWtfcHl0aG9uJywgJy1waHQnLCAnMi4wJywgJy1waCcsICc3LjAnLCAnLXRuJywgJzgnLCAnLW1hJywgJzIwMCcsICctaW1hZScsICc8aW5maWxlLm1hZT4nLCAnLW9tYWUnLCAnPG91dGZpbGUubWFlPic=

>  <r_epik_Ionization_Penalty>  (243) 
2.26661

>  <r_epik_Ionization_Penalty_Charging>  (243) 
0

>  <r_epik_Ionization_Penalty_Neutral>  (243) 
2.26661

>  <r_epik_State_Penalty>  (243) 
2.41486

>  <r_epik_Charging_Adjusted_Penalty>  (243) 
2.41486

>  <i_epik_Tot_Q>  (243) 
0

>  <i_epik_Tot_abs_Q>  (243) 
0

>  <s_lp_Force_Field>  (243) 
OPLS3e

>  <r_lp_Energy>  (243) 
291.134

>  <b_lp_Chiralities_Consistent>  (243) 
1

>  <s_lp_Variant>  (243) 
78:0-2

>  <s_i_glide_gridfile>  (243) 
pfpi4k_grid

>  <i_i_glide_lignum>  (243) 
25

>  <i_i_glide_rotatable_bonds>  (243) 
1

>  <r_i_docking_score>  (243) 
-2.86013

>  <r_i_glide_ligand_efficiency>  (243) 
-0.150533

>  <r_i_glide_ligand_efficiency_sa>  (243) 
-0.401683

>  <r_i_glide_ligand_efficiency_ln>  (243) 
-0.725104

>  <r_i_glide_gscore>  (243) 
-2.86013

>  <r_i_glide_lipo>  (243) 
-0.560241

>  <r_i_glide_hbond>  (243) 
0

>  <r_i_glide_metal>  (243) 
-0

>  <r_i_glide_rewards>  (243) 
-1.7363

>  <r_i_glide_evdw>  (243) 
-13.6008

>  <r_i_glide_ecoul>  (243) 
0.815967

>  <r_i_glide_erotb>  (243) 
0

>  <r_i_glide_esite>  (243) 
-0.00594032

>  <r_i_glide_emodel>  (243) 
-15.2835

>  <r_i_glide_energy>  (243) 
-12.7849

>  <r_i_glide_einternal>  (243) 
-0.378479

>  <r_i_glide_intrahb_reward>  (243) 
-0

>  <i_i_glide_confnum>  (243) 
2

>  <i_i_glide_posenum>  (243) 
14

>  <r_i_glide_eff_state_penalty>  (243) 
0

>  <ligand_id>  (243) 
78

>  <original_smiles>  (243) 
N#CC12CC3C(NC1=O)C1C=CCN4CCC2C3C14

>  <smiles>  (243) 
[H]C1=C([H])C2([H])C3([H])N([H])C(=O)C4(C#N)C([H])([H])C3([H])C3([H])C2([H])N(C1([H])[H])C([H])([H])C([H])([H])C43[H]

$$$$
78:1:2
     RDKit          3D

 36 40  0  0  1  0  0  0  0  0999 V2000
    1.3784   -1.6291    2.4174 N   0  0  0  0  0  0  0  0  0  0  0  0
    2.2990   -1.9864    1.8067 C   0  0  0  0  0  0  0  0  0  0  0  0
    3.4689   -2.4392    1.0473 C   0  0  1  0  0  0  0  0  0  0  0  0
    3.6740   -1.7938   -0.1885 C   0  0  0  0  0  0  0  0  0  0  0  0
    4.8516   -2.9449   -0.4314 C   0  0  2  0  0  0  0  0  0  0  0  0
    6.0582   -2.2227   -0.6161 C   0  0  2  0  0  0  0  0  0  0  0  0
    5.9202   -1.5038    0.7674 N   0  0  0  0  0  0  0  0  0  0  0  0
    4.8634   -1.7542    1.7013 C   0  0  0  0  0  0  0  0  0  0  0  0
    4.9293   -1.4302    2.8810 O   0  0  0  0  0  0  0  0  0  0  0  0
    5.4743   -2.0479   -2.1027 C   0  0  2  0  0  0  0  0  0  0  0  0
    4.9474   -0.7052   -2.5873 C   0  0  0  0  0  0  0  0  0  0  0  0
    3.8972   -0.5868   -3.4254 C   0  0  0  0  0  0  0  0  0  0  0  0
    3.0149   -1.7549   -3.8415 C   0  0  0  0  0  0  0  0  0  0  0  0
    3.1149   -2.7759   -2.8253 N   0  0  0  0  0  0  0  0  0  0  0  0
    1.9347   -3.4987   -2.3698 C   0  0  0  0  0  0  0  0  0  0  0  0
    1.8981   -3.8669   -0.8459 C   0  0  0  0  0  0  0  0  0  0  0  0
    3.1958   -3.8033    0.0273 C   0  0  1  0  0  0  0  0  0  0  0  0
    4.2871   -4.0158   -1.1182 C   0  0  1  0  0  0  0  0  0  0  0  0
    4.4396   -3.2341   -2.4279 C   0  0  2  0  0  0  0  0  0  0  0  0
    2.7707   -1.6744   -0.7792 H   0  0  0  0  0  0  0  0  0  0  0  0
    3.9173   -0.7218   -0.1719 H   0  0  0  0  0  0  0  0  0  0  0  0
    5.3028   -3.6222    0.3366 H   0  0  0  0  0  0  0  0  0  0  0  0
    6.9394   -2.8712   -0.6321 H   0  0  0  0  0  0  0  0  0  0  0  0
    6.7386   -1.0238    1.1257 H   0  0  0  0  0  0  0  0  0  0  0  0
    6.3429   -2.2549   -2.7252 H   0  0  0  0  0  0  0  0  0  0  0  0
    5.5350    0.1476   -2.2903 H   0  0  0  0  0  0  0  0  0  0  0  0
    3.6389    0.3791   -3.8374 H   0  0  0  0  0  0  0  0  0  0  0  0
    1.9837   -1.4564   -3.9391 H   0  0  0  0  0  0  0  0  0  0  0  0
    3.3237   -2.1512   -4.8060 H   0  0  0  0  0  0  0  0  0  0  0  0
    1.0251   -2.9643   -2.6371 H   0  0  0  0  0  0  0  0  0  0  0  0
    1.8870   -4.3994   -2.9817 H   0  0  0  0  0  0  0  0  0  0  0  0
    1.2544   -3.0955   -0.4502 H   0  0  0  0  0  0  0  0  0  0  0  0
    1.4163   -4.8397   -0.7218 H   0  0  0  0  0  0  0  0  0  0  0  0
    3.1894   -4.6811    0.6884 H   0  0  0  0  0  0  0  0  0  0  0  0
    4.8680   -4.9479   -1.0778 H   0  0  0  0  0  0  0  0  0  0  0  0
    4.8181   -3.8884   -3.2068 H   0  0  0  0  0  0  0  0  0  0  0  0
  1  2  3  0
  3  2  1  1
  3  8  1  0
  3 17  1  0
  3  4  1  0
  4  5  1  0
  4 20  1  0
  4 21  1  0
  5 18  1  0
  5  6  1  0
  5 22  1  1
  6  7  1  0
  6 10  1  0
  6 23  1  6
  7  8  1  0
  7 24  1  0
  8  9  2  0
 10 19  1  0
 10 11  1  0
 10 25  1  6
 11 12  2  0
 11 26  1  0
 12 13  1  0
 12 27  1  0
 13 14  1  0
 13 28  1  0
 13 29  1  0
 14 19  1  0
 14 15  1  0
 15 16  1  0
 15 30  1  0
 15 31  1  0
 16 17  1  0
 16 32  1  0
 16 33  1  0
 17 18  1  0
 17 34  1  1
 18 19  1  0
 18 35  1  6
 19 36  1  6
M  END
>  <i_m_ct_stereo_status>  (244) 
1

>  <s_m_source_file>  (244) 
/var/tmp/pbs.5076255.sched01/tmpelb551ou/82hj6rxffr.sdf

>  <i_m_source_file_index>  (244) 
25

>  <i_lp_mmshare_version>  (244) 
48012

>  <i_f3d_flags>  (244) 
0

>  <s_epik_input>  (244) 
TiNDW0NAQF0xMltDQEBIXTNbQ0BASF00W0NASF0oW0NIMl0xKVtDQEhdKFtOSF1DMj1PKVtDQEhdNVtDQEBIXTROKFtDSDJdW0NIMl0zKVtDSDJdW0NIXT1bQ0hdNQ==

>  <s_epik_cmdline>  (244) 
J2VwaWtfcHl0aG9uJywgJy1waHQnLCAnMi4wJywgJy1waCcsICc3LjAnLCAnLXRuJywgJzgnLCAnLW1hJywgJzIwMCcsICctaW1hZScsICc8aW5maWxlLm1hZT4nLCAnLW9tYWUnLCAnPG91dGZpbGUubWFlPic=

>  <r_epik_Ionization_Penalty>  (244) 
2.26661

>  <r_epik_Ionization_Penalty_Charging>  (244) 
0

>  <r_epik_Ionization_Penalty_Neutral>  (244) 
2.26661

>  <r_epik_State_Penalty>  (244) 
2.41486

>  <r_epik_Charging_Adjusted_Penalty>  (244) 
2.41486

>  <i_epik_Tot_Q>  (244) 
0

>  <i_epik_Tot_abs_Q>  (244) 
0

>  <s_lp_Force_Field>  (244) 
OPLS3e

>  <r_lp_Energy>  (244) 
291.134

>  <b_lp_Chiralities_Consistent>  (244) 
1

>  <s_lp_Variant>  (244) 
78:0-2

>  <s_i_glide_gridfile>  (244) 
pfpi4k_grid

>  <i_i_glide_lignum>  (244) 
25

>  <i_i_glide_rotatable_bonds>  (244) 
1

>  <r_i_docking_score>  (244) 
-2.65041

>  <r_i_glide_ligand_efficiency>  (244) 
-0.139495

>  <r_i_glide_ligand_efficiency_sa>  (244) 
-0.37223

>  <r_i_glide_ligand_efficiency_ln>  (244) 
-0.671937

>  <r_i_glide_gscore>  (244) 
-2.65041

>  <r_i_glide_lipo>  (244) 
-0.538231

>  <r_i_glide_hbond>  (244) 
0

>  <r_i_glide_metal>  (244) 
-0

>  <r_i_glide_rewards>  (244) 
-1.74179

>  <r_i_glide_evdw>  (244) 
-10.315

>  <r_i_glide_ecoul>  (244) 
1.23895

>  <r_i_glide_erotb>  (244) 
0

>  <r_i_glide_esite>  (244) 
-0.0404832

>  <r_i_glide_emodel>  (244) 
-11.2668

>  <r_i_glide_energy>  (244) 
-9.076

>  <r_i_glide_einternal>  (244) 
-0.370597

>  <r_i_glide_intrahb_reward>  (244) 
-0

>  <i_i_glide_confnum>  (244) 
1

>  <i_i_glide_posenum>  (244) 
1

>  <r_i_glide_eff_state_penalty>  (244) 
0

>  <ligand_id>  (244) 
78

>  <original_smiles>  (244) 
N#CC12CC3C(NC1=O)C1C=CCN4CCC2C3C14

>  <smiles>  (244) 
[H]C1=C([H])C2([H])C3([H])N([H])C(=O)C4(C#N)C([H])([H])C3([H])C3([H])C2([H])N(C1([H])[H])C([H])([H])C([H])([H])C43[H]

$$$$
79:0:0
     RDKit          3D

 40 43  0  0  1  0  0  0  0  0999 V2000
    2.7484   -2.5111   -3.2461 C   0  0  0  0  0  0  0  0  0  0  0  0
    3.8401   -2.6548   -2.1750 C   0  0  0  0  0  0  0  0  0  0  0  0
    5.1514   -2.8504   -3.0057 C   0  0  0  0  0  0  0  0  0  0  0  0
    3.7869   -1.3674   -1.1530 C   0  0  2  0  0  0  0  0  0  0  0  0
    3.6608   -0.8929    0.4529 C   0  0  0  0  0  0  0  0  0  0  0  0
    4.3281   -2.0452    1.4311 C   0  0  1  0  0  0  0  0  0  0  0  0
    3.5311   -3.4347    1.7077 C   0  0  0  0  0  0  0  0  0  0  0  0
    3.6897   -4.5040    0.4505 C   0  0  2  0  0  0  0  0  0  0  0  0
    2.7506   -5.7209    0.6654 C   0  0  0  0  0  0  0  0  0  0  0  0
    1.4772   -5.5468    0.0777 O   0  0  0  0  0  0  0  0  0  0  0  0
    5.1154   -5.0261    0.6316 C   0  0  0  0  0  0  0  0  0  0  0  0
    6.0826   -3.8538    0.5967 C   0  0  0  0  0  0  0  0  0  0  0  0
    5.3499   -2.4987    0.4307 C   0  0  2  0  0  0  0  0  0  0  0  0
    6.4681   -1.4549    0.1528 C   0  0  0  0  0  0  0  0  0  0  0  0
    4.2051   -2.6106   -0.5832 C   0  0  2  0  0  0  0  0  0  0  0  0
    3.5506   -3.8547   -1.0963 C   0  0  2  0  0  0  0  0  0  0  0  0
    2.9513   -1.6613   -3.8965 H   0  0  0  0  0  0  0  0  0  0  0  0
    1.7797   -2.3317   -2.7715 H   0  0  0  0  0  0  0  0  0  0  0  0
    2.6651   -3.4155   -3.8489 H   0  0  0  0  0  0  0  0  0  0  0  0
    6.0185   -3.0240   -2.3597 H   0  0  0  0  0  0  0  0  0  0  0  0
    5.3499   -1.9659   -3.6043 H   0  0  0  0  0  0  0  0  0  0  0  0
    5.0672   -3.7276   -3.6509 H   0  0  0  0  0  0  0  0  0  0  0  0
    4.5559   -0.7058   -1.5881 H   0  0  0  0  0  0  0  0  0  0  0  0
    4.1391    0.0675    0.5956 H   0  0  0  0  0  0  0  0  0  0  0  0
    2.6284   -0.7017    0.7473 H   0  0  0  0  0  0  0  0  0  0  0  0
    4.7630   -1.6222    2.3474 H   0  0  0  0  0  0  0  0  0  0  0  0
    3.9222   -3.8923    2.6248 H   0  0  0  0  0  0  0  0  0  0  0  0
    2.4739   -3.2155    1.9108 H   0  0  0  0  0  0  0  0  0  0  0  0
    3.1859   -6.6230    0.2313 H   0  0  0  0  0  0  0  0  0  0  0  0
    2.6181   -5.9210    1.7385 H   0  0  0  0  0  0  0  0  0  0  0  0
    1.6236   -5.3703   -0.8509 H   0  0  0  0  0  0  0  0  0  0  0  0
    5.2146   -5.5613    1.5801 H   0  0  0  0  0  0  0  0  0  0  0  0
    5.3494   -5.7392   -0.1589 H   0  0  0  0  0  0  0  0  0  0  0  0
    6.7450   -3.8552    1.4647 H   0  0  0  0  0  0  0  0  0  0  0  0
    6.7110   -3.9931   -0.2911 H   0  0  0  0  0  0  0  0  0  0  0  0
    6.9475   -1.6697   -0.8038 H   0  0  0  0  0  0  0  0  0  0  0  0
    7.2372   -1.5047    0.9340 H   0  0  0  0  0  0  0  0  0  0  0  0
    6.1483   -0.4119    0.1099 H   0  0  0  0  0  0  0  0  0  0  0  0
    3.0856   -2.6417   -0.2630 H   0  0  0  0  0  0  0  0  0  0  0  0
    2.4844   -3.9753   -1.3421 H   0  0  0  0  0  0  0  0  0  0  0  0
  1  2  1  0
  1 17  1  0
  1 18  1  0
  1 19  1  0
  2 16  1  0
  2  3  1  0
  2  4  1  0
  3 20  1  0
  3 21  1  0
  3 22  1  0
  4 15  1  0
  4  5  1  0
  4 23  1  6
  5  6  1  0
  5 24  1  0
  5 25  1  0
  6 13  1  0
  6  7  1  0
  6 26  1  1
  7  8  1  0
  7 27  1  0
  7 28  1  0
  8 16  1  0
  8  9  1  1
  8 11  1  0
  9 10  1  0
  9 29  1  0
  9 30  1  0
 10 31  1  0
 11 12  1  0
 11 32  1  0
 11 33  1  0
 12 13  1  0
 12 34  1  0
 12 35  1  0
 13 14  1  6
 13 15  1  0
 14 36  1  0
 14 37  1  0
 14 38  1  0
 15 16  1  0
 15 39  1  1
 16 40  1  1
M  END
>  <i_m_ct_stereo_status>  (245) 
1

>  <s_m_source_file>  (245) 
/var/tmp/pbs.5076255.sched01/tmpelb551ou/82hj6rxffr.sdf

>  <i_m_source_file_index>  (245) 
26

>  <i_lp_mmshare_version>  (245) 
48012

>  <i_f3d_flags>  (245) 
0

>  <s_epik_input>  (245) 
W0NIMl0xW0NIMl1bQ0BdMihbQ0gzXSlbQ0BIXShbQ0gyXTMpW0NIMl1bQ0BASF0oQzQoW0NIM10pW0NIM10pW0NASF0yW0NAQEhdNFtDQEBdMTNbQ0gyXVtPSF0=

>  <s_epik_cmdline>  (245) 
J2VwaWtfcHl0aG9uJywgJy1waHQnLCAnMi4wJywgJy1waCcsICc3LjAnLCAnLXRuJywgJzgnLCAnLW1hJywgJzIwMCcsICctaW1hZScsICc8aW5maWxlLm1hZT4nLCAnLW9tYWUnLCAnPG91dGZpbGUubWFlPic=

>  <r_lp_tautomer_probability>  (245) 
1

>  <r_epik_Ionization_Penalty>  (245) 
1.62529e-06

>  <r_epik_Ionization_Penalty_Charging>  (245) 
0

>  <r_epik_Ionization_Penalty_Neutral>  (245) 
1.62529e-06

>  <r_epik_State_Penalty>  (245) 
-0

>  <r_epik_Charging_Adjusted_Penalty>  (245) 
0

>  <i_epik_Tot_Q>  (245) 
0

>  <i_epik_Tot_abs_Q>  (245) 
0

>  <s_lp_Force_Field>  (245) 
OPLS3e

>  <r_lp_Energy>  (245) 
327.901

>  <b_lp_Chiralities_Consistent>  (245) 
1

>  <s_lp_Variant>  (245) 
79:0-1

>  <s_i_glide_gridfile>  (245) 
pfpi4k_grid

>  <i_i_glide_lignum>  (245) 
26

>  <i_i_glide_rotatable_bonds>  (245) 
2

>  <r_i_docking_score>  (245) 
-3.58181

>  <r_i_glide_ligand_efficiency>  (245) 
-0.223863

>  <r_i_glide_ligand_efficiency_sa>  (245) 
-0.5641

>  <r_i_glide_ligand_efficiency_ln>  (245) 
-0.949431

>  <r_i_glide_gscore>  (245) 
-3.58181

>  <r_i_glide_lipo>  (245) 
-0.475792

>  <r_i_glide_hbond>  (245) 
-0.205838

>  <r_i_glide_metal>  (245) 
-0

>  <r_i_glide_rewards>  (245) 
-1.9067

>  <r_i_glide_evdw>  (245) 
-15.7527

>  <r_i_glide_ecoul>  (245) 
-3.68616

>  <r_i_glide_erotb>  (245) 
0.347078

>  <r_i_glide_esite>  (245) 
0

>  <r_i_glide_emodel>  (245) 
-20.8984

>  <r_i_glide_energy>  (245) 
-19.4389

>  <r_i_glide_einternal>  (245) 
2.6438

>  <r_i_glide_intrahb_reward>  (245) 
-0

>  <i_i_glide_confnum>  (245) 
1

>  <i_i_glide_posenum>  (245) 
36

>  <r_i_glide_eff_state_penalty>  (245) 
0

>  <ligand_id>  (245) 
79

>  <original_smiles>  (245) 
CC1(C)C2CC3CC4(CO)CCC3(C)C2C41

>  <smiles>  (245) 
[H]OC([H])([H])C12C([H])([H])C([H])([H])C3(C([H])([H])[H])C([H])(C([H])([H])C4([H])C3([H])C1([H])C4(C([H])([H])[H])C([H])([H])[H])C2([H])[H]

$$$$
79:0:1
     RDKit          3D

 40 43  0  0  1  0  0  0  0  0999 V2000
    2.4931   -2.9504   -2.8623 C   0  0  0  0  0  0  0  0  0  0  0  0
    3.5991   -2.9487   -1.7974 C   0  0  0  0  0  0  0  0  0  0  0  0
    4.9252   -3.0147   -2.6277 C   0  0  0  0  0  0  0  0  0  0  0  0
    3.4200   -1.6462   -0.8060 C   0  0  2  0  0  0  0  0  0  0  0  0
    3.2307   -1.1432    0.7892 C   0  0  0  0  0  0  0  0  0  0  0  0
    4.0198   -2.1849    1.7965 C   0  0  1  0  0  0  0  0  0  0  0  0
    3.3736   -3.6476    2.1132 C   0  0  0  0  0  0  0  0  0  0  0  0
    3.6436   -4.7224    0.8760 C   0  0  2  0  0  0  0  0  0  0  0  0
    2.8293   -6.0229    1.1197 C   0  0  0  0  0  0  0  0  0  0  0  0
    1.4297   -5.8917    0.9487 O   0  0  0  0  0  0  0  0  0  0  0  0
    5.1213   -5.0855    1.0708 C   0  0  0  0  0  0  0  0  0  0  0  0
    5.9594   -3.8141    1.0060 C   0  0  0  0  0  0  0  0  0  0  0  0
    5.0882   -2.5535    0.8072 C   0  0  2  0  0  0  0  0  0  0  0  0
    6.0751   -1.3937    0.4999 C   0  0  0  0  0  0  0  0  0  0  0  0
    3.9662   -2.8223   -0.2111 C   0  0  2  0  0  0  0  0  0  0  0  0
    3.4386   -4.1396   -0.6781 C   0  0  2  0  0  0  0  0  0  0  0  0
    2.6085   -2.0997   -3.5311 H   0  0  0  0  0  0  0  0  0  0  0  0
    1.5029   -2.8728   -2.4017 H   0  0  0  0  0  0  0  0  0  0  0  0
    2.5183   -3.8604   -3.4541 H   0  0  0  0  0  0  0  0  0  0  0  0
    5.7987   -3.0687   -1.9731 H   0  0  0  0  0  0  0  0  0  0  0  0
    5.0244   -2.1252   -3.2452 H   0  0  0  0  0  0  0  0  0  0  0  0
    4.9375   -3.9104   -3.2487 H   0  0  0  0  0  0  0  0  0  0  0  0
    4.1156   -0.9125   -1.2667 H   0  0  0  0  0  0  0  0  0  0  0  0
    3.5949   -0.1264    0.9057 H   0  0  0  0  0  0  0  0  0  0  0  0
    2.1857   -1.0592    1.0814 H   0  0  0  0  0  0  0  0  0  0  0  0
    4.3976   -1.6897    2.7057 H   0  0  0  0  0  0  0  0  0  0  0  0
    3.8118   -4.0348    3.0405 H   0  0  0  0  0  0  0  0  0  0  0  0
    2.2959   -3.5363    2.3111 H   0  0  0  0  0  0  0  0  0  0  0  0
    3.1778   -6.7954    0.4356 H   0  0  0  0  0  0  0  0  0  0  0  0
    3.0070   -6.3779    2.1451 H   0  0  0  0  0  0  0  0  0  0  0  0
    1.0370   -6.7461    1.0972 H   0  0  0  0  0  0  0  0  0  0  0  0
    5.2828   -5.5855    2.0314 H   0  0  0  0  0  0  0  0  0  0  0  0
    5.4270   -5.7867    0.2933 H   0  0  0  0  0  0  0  0  0  0  0  0
    6.6140   -3.7211    1.8790 H   0  0  0  0  0  0  0  0  0  0  0  0
    6.6001   -3.9030    0.1188 H   0  0  0  0  0  0  0  0  0  0  0  0
    6.5755   -1.5646   -0.4606 H   0  0  0  0  0  0  0  0  0  0  0  0
    6.8466   -1.3367    1.2847 H   0  0  0  0  0  0  0  0  0  0  0  0
    5.6363   -0.3925    0.4337 H   0  0  0  0  0  0  0  0  0  0  0  0
    2.8528   -2.9603    0.1217 H   0  0  0  0  0  0  0  0  0  0  0  0
    2.3795   -4.3813   -0.8943 H   0  0  0  0  0  0  0  0  0  0  0  0
  1  2  1  0
  1 17  1  0
  1 18  1  0
  1 19  1  0
  2 16  1  0
  2  3  1  0
  2  4  1  0
  3 20  1  0
  3 21  1  0
  3 22  1  0
  4 15  1  0
  4  5  1  0
  4 23  1  6
  5  6  1  0
  5 24  1  0
  5 25  1  0
  6 13  1  0
  6  7  1  0
  6 26  1  1
  7  8  1  0
  7 27  1  0
  7 28  1  0
  8 16  1  0
  8  9  1  1
  8 11  1  0
  9 10  1  0
  9 29  1  0
  9 30  1  0
 10 31  1  0
 11 12  1  0
 11 32  1  0
 11 33  1  0
 12 13  1  0
 12 34  1  0
 12 35  1  0
 13 14  1  6
 13 15  1  0
 14 36  1  0
 14 37  1  0
 14 38  1  0
 15 16  1  0
 15 39  1  1
 16 40  1  1
M  END
>  <i_m_ct_stereo_status>  (246) 
1

>  <s_m_source_file>  (246) 
/var/tmp/pbs.5076255.sched01/tmpelb551ou/82hj6rxffr.sdf

>  <i_m_source_file_index>  (246) 
26

>  <i_lp_mmshare_version>  (246) 
48012

>  <i_f3d_flags>  (246) 
0

>  <s_epik_input>  (246) 
W0NIMl0xW0NIMl1bQ0BdMihbQ0gzXSlbQ0BIXShbQ0gyXTMpW0NIMl1bQ0BASF0oQzQoW0NIM10pW0NIM10pW0NASF0yW0NAQEhdNFtDQEBdMTNbQ0gyXVtPSF0=

>  <s_epik_cmdline>  (246) 
J2VwaWtfcHl0aG9uJywgJy1waHQnLCAnMi4wJywgJy1waCcsICc3LjAnLCAnLXRuJywgJzgnLCAnLW1hJywgJzIwMCcsICctaW1hZScsICc8aW5maWxlLm1hZT4nLCAnLW9tYWUnLCAnPG91dGZpbGUubWFlPic=

>  <r_lp_tautomer_probability>  (246) 
1

>  <r_epik_Ionization_Penalty>  (246) 
1.62529e-06

>  <r_epik_Ionization_Penalty_Charging>  (246) 
0

>  <r_epik_Ionization_Penalty_Neutral>  (246) 
1.62529e-06

>  <r_epik_State_Penalty>  (246) 
-0

>  <r_epik_Charging_Adjusted_Penalty>  (246) 
0

>  <i_epik_Tot_Q>  (246) 
0

>  <i_epik_Tot_abs_Q>  (246) 
0

>  <s_lp_Force_Field>  (246) 
OPLS3e

>  <r_lp_Energy>  (246) 
327.901

>  <b_lp_Chiralities_Consistent>  (246) 
1

>  <s_lp_Variant>  (246) 
79:0-1

>  <s_i_glide_gridfile>  (246) 
pfpi4k_grid

>  <i_i_glide_lignum>  (246) 
26

>  <i_i_glide_rotatable_bonds>  (246) 
2

>  <r_i_docking_score>  (246) 
-3.214

>  <r_i_glide_ligand_efficiency>  (246) 
-0.200875

>  <r_i_glide_ligand_efficiency_sa>  (246) 
-0.506174

>  <r_i_glide_ligand_efficiency_ln>  (246) 
-0.851936

>  <r_i_glide_gscore>  (246) 
-3.214

>  <r_i_glide_lipo>  (246) 
-0.49914

>  <r_i_glide_hbond>  (246) 
-0.154727

>  <r_i_glide_metal>  (246) 
-0

>  <r_i_glide_rewards>  (246) 
-1.9067

>  <r_i_glide_evdw>  (246) 
-15.8793

>  <r_i_glide_ecoul>  (246) 
-1.37698

>  <r_i_glide_erotb>  (246) 
0.347078

>  <r_i_glide_esite>  (246) 
0

>  <r_i_glide_emodel>  (246) 
-20.3809

>  <r_i_glide_energy>  (246) 
-17.2563

>  <r_i_glide_einternal>  (246) 
0.434747

>  <r_i_glide_intrahb_reward>  (246) 
-0

>  <i_i_glide_confnum>  (246) 
4

>  <i_i_glide_posenum>  (246) 
4

>  <r_i_glide_eff_state_penalty>  (246) 
0

>  <ligand_id>  (246) 
79

>  <original_smiles>  (246) 
CC1(C)C2CC3CC4(CO)CCC3(C)C2C41

>  <smiles>  (246) 
[H]OC([H])([H])C12C([H])([H])C([H])([H])C3(C([H])([H])[H])C([H])(C([H])([H])C4([H])C3([H])C1([H])C4(C([H])([H])[H])C([H])([H])[H])C2([H])[H]

$$$$
79:0:2
     RDKit          3D

 40 43  0  0  1  0  0  0  0  0999 V2000
    2.4412   -2.9365   -2.8943 C   0  0  0  0  0  0  0  0  0  0  0  0
    3.6878   -2.9948   -2.0019 C   0  0  0  0  0  0  0  0  0  0  0  0
    4.8591   -3.2389   -3.0111 C   0  0  0  0  0  0  0  0  0  0  0  0
    3.7731   -1.6306   -1.0791 C   0  0  2  0  0  0  0  0  0  0  0  0
    3.8990   -1.0335    0.4817 C   0  0  0  0  0  0  0  0  0  0  0  0
    4.7443   -2.0990    1.4269 C   0  0  1  0  0  0  0  0  0  0  0  0
    4.0295   -3.4710    1.9354 C   0  0  0  0  0  0  0  0  0  0  0  0
    4.0004   -4.6309    0.7454 C   0  0  2  0  0  0  0  0  0  0  0  0
    3.1267   -5.8306    1.1815 C   0  0  0  0  0  0  0  0  0  0  0  0
    1.7931   -5.4637    1.4484 O   0  0  0  0  0  0  0  0  0  0  0  0
    5.4440   -5.1355    0.7258 C   0  0  0  0  0  0  0  0  0  0  0  0
    6.3729   -3.9595    0.4519 C   0  0  0  0  0  0  0  0  0  0  0  0
    5.5948   -2.6283    0.3087 C   0  0  2  0  0  0  0  0  0  0  0  0
    6.6330   -1.5956   -0.2205 C   0  0  0  0  0  0  0  0  0  0  0  0
    4.2973   -2.8231   -0.4937 C   0  0  2  0  0  0  0  0  0  0  0  0
    3.5909   -4.1070   -0.7929 C   0  0  2  0  0  0  0  0  0  0  0  0
    2.5355   -2.1336   -3.6283 H   0  0  0  0  0  0  0  0  0  0  0  0
    1.5458   -2.7276   -2.3038 H   0  0  0  0  0  0  0  0  0  0  0  0
    2.2847   -3.8776   -3.4232 H   0  0  0  0  0  0  0  0  0  0  0  0
    5.8204   -3.3576   -2.5048 H   0  0  0  0  0  0  0  0  0  0  0  0
    4.9560   -2.3994   -3.7023 H   0  0  0  0  0  0  0  0  0  0  0  0
    4.6941   -4.1605   -3.5777 H   0  0  0  0  0  0  0  0  0  0  0  0
    4.4458   -0.9973   -1.6842 H   0  0  0  0  0  0  0  0  0  0  0  0
    4.3717   -0.0578    0.4733 H   0  0  0  0  0  0  0  0  0  0  0  0
    2.9232   -0.8264    0.9230 H   0  0  0  0  0  0  0  0  0  0  0  0
    5.3085   -1.6013    2.2231 H   0  0  0  0  0  0  0  0  0  0  0  0
    4.5708   -3.8519    2.8097 H   0  0  0  0  0  0  0  0  0  0  0  0
    3.0200   -3.2242    2.2876 H   0  0  0  0  0  0  0  0  0  0  0  0
    3.1290   -6.6089    0.4136 H   0  0  0  0  0  0  0  0  0  0  0  0
    3.5177   -6.2736    2.1015 H   0  0  0  0  0  0  0  0  0  0  0  0
    1.8096   -4.8433    2.1723 H   0  0  0  0  0  0  0  0  0  0  0  0
    5.7130   -5.5971    1.6796 H   0  0  0  0  0  0  0  0  0  0  0  0
    5.5529   -5.9015   -0.0401 H   0  0  0  0  0  0  0  0  0  0  0  0
    7.1597   -3.8910    1.2064 H   0  0  0  0  0  0  0  0  0  0  0  0
    6.8573   -4.1584   -0.5102 H   0  0  0  0  0  0  0  0  0  0  0  0
    6.9588   -1.8578   -1.2304 H   0  0  0  0  0  0  0  0  0  0  0  0
    7.5160   -1.5835    0.4307 H   0  0  0  0  0  0  0  0  0  0  0  0
    6.2806   -0.5656   -0.2844 H   0  0  0  0  0  0  0  0  0  0  0  0
    3.2487   -2.8354    0.0112 H   0  0  0  0  0  0  0  0  0  0  0  0
    2.4959   -4.2505   -0.8288 H   0  0  0  0  0  0  0  0  0  0  0  0
  1  2  1  0
  1 17  1  0
  1 18  1  0
  1 19  1  0
  2 16  1  0
  2  3  1  0
  2  4  1  0
  3 20  1  0
  3 21  1  0
  3 22  1  0
  4 15  1  0
  4  5  1  0
  4 23  1  6
  5  6  1  0
  5 24  1  0
  5 25  1  0
  6 13  1  0
  6  7  1  0
  6 26  1  1
  7  8  1  0
  7 27  1  0
  7 28  1  0
  8 16  1  0
  8  9  1  1
  8 11  1  0
  9 10  1  0
  9 29  1  0
  9 30  1  0
 10 31  1  0
 11 12  1  0
 11 32  1  0
 11 33  1  0
 12 13  1  0
 12 34  1  0
 12 35  1  0
 13 14  1  6
 13 15  1  0
 14 36  1  0
 14 37  1  0
 14 38  1  0
 15 16  1  0
 15 39  1  1
 16 40  1  1
M  END
>  <i_m_ct_stereo_status>  (247) 
1

>  <s_m_source_file>  (247) 
/var/tmp/pbs.5076255.sched01/tmpelb551ou/82hj6rxffr.sdf

>  <i_m_source_file_index>  (247) 
26

>  <i_lp_mmshare_version>  (247) 
48012

>  <i_f3d_flags>  (247) 
0

>  <s_epik_input>  (247) 
W0NIMl0xW0NIMl1bQ0BdMihbQ0gzXSlbQ0BIXShbQ0gyXTMpW0NIMl1bQ0BASF0oQzQoW0NIM10pW0NIM10pW0NASF0yW0NAQEhdNFtDQEBdMTNbQ0gyXVtPSF0=

>  <s_epik_cmdline>  (247) 
J2VwaWtfcHl0aG9uJywgJy1waHQnLCAnMi4wJywgJy1waCcsICc3LjAnLCAnLXRuJywgJzgnLCAnLW1hJywgJzIwMCcsICctaW1hZScsICc8aW5maWxlLm1hZT4nLCAnLW9tYWUnLCAnPG91dGZpbGUubWFlPic=

>  <r_lp_tautomer_probability>  (247) 
1

>  <r_epik_Ionization_Penalty>  (247) 
1.62529e-06

>  <r_epik_Ionization_Penalty_Charging>  (247) 
0

>  <r_epik_Ionization_Penalty_Neutral>  (247) 
1.62529e-06

>  <r_epik_State_Penalty>  (247) 
-0

>  <r_epik_Charging_Adjusted_Penalty>  (247) 
0

>  <i_epik_Tot_Q>  (247) 
0

>  <i_epik_Tot_abs_Q>  (247) 
0

>  <s_lp_Force_Field>  (247) 
OPLS3e

>  <r_lp_Energy>  (247) 
327.901

>  <b_lp_Chiralities_Consistent>  (247) 
1

>  <s_lp_Variant>  (247) 
79:0-1

>  <s_i_glide_gridfile>  (247) 
pfpi4k_grid

>  <i_i_glide_lignum>  (247) 
26

>  <i_i_glide_rotatable_bonds>  (247) 
2

>  <r_i_docking_score>  (247) 
-3.17621

>  <r_i_glide_ligand_efficiency>  (247) 
-0.198513

>  <r_i_glide_ligand_efficiency_sa>  (247) 
-0.500222

>  <r_i_glide_ligand_efficiency_ln>  (247) 
-0.841918

>  <r_i_glide_gscore>  (247) 
-3.17621

>  <r_i_glide_lipo>  (247) 
-0.543743

>  <r_i_glide_hbond>  (247) 
-0.0672308

>  <r_i_glide_metal>  (247) 
-0

>  <r_i_glide_rewards>  (247) 
-1.9067

>  <r_i_glide_evdw>  (247) 
-16.5189

>  <r_i_glide_ecoul>  (247) 
-1.19777

>  <r_i_glide_erotb>  (247) 
0.347078

>  <r_i_glide_esite>  (247) 
0

>  <r_i_glide_emodel>  (247) 
-20.9872

>  <r_i_glide_energy>  (247) 
-17.7167

>  <r_i_glide_einternal>  (247) 
0.151999

>  <r_i_glide_intrahb_reward>  (247) 
-0

>  <i_i_glide_confnum>  (247) 
1

>  <i_i_glide_posenum>  (247) 
1

>  <r_i_glide_eff_state_penalty>  (247) 
0

>  <ligand_id>  (247) 
79

>  <original_smiles>  (247) 
CC1(C)C2CC3CC4(CO)CCC3(C)C2C41

>  <smiles>  (247) 
[H]OC([H])([H])C12C([H])([H])C([H])([H])C3(C([H])([H])[H])C([H])(C([H])([H])C4([H])C3([H])C1([H])C4(C([H])([H])[H])C([H])([H])[H])C2([H])[H]

$$$$
80:0:0
     RDKit          3D

 63 68  0  0  1  0  0  0  0  0999 V2000
    3.2554   -2.3020   -2.8707 C   0  0  0  0  0  0  0  0  0  0  0  0
    4.1999   -1.5885   -1.9144 C   0  0  0  0  0  0  0  0  0  0  0  0
    4.9798   -0.7382   -2.3165 O   0  0  0  0  0  0  0  0  0  0  0  0
    4.1197   -1.9806   -0.4258 C   0  0  2  0  0  0  0  0  0  0  0  0
    3.9862   -0.7793    0.5238 C   0  0  0  0  0  0  0  0  0  0  0  0
    4.6693   -1.1964    1.8381 C   0  0  0  0  0  0  0  0  0  0  0  0
    5.0613   -2.6803    1.6756 C   0  0  1  0  0  0  0  0  0  0  0  0
    3.9672   -3.6193    2.2839 C   0  0  2  0  0  0  0  0  0  0  0  0
    4.0782   -3.6094    3.8282 C   0  0  0  0  0  0  0  0  0  0  0  0
    3.5324   -4.8736    4.5133 C   0  0  0  0  0  0  0  0  0  0  0  0
    2.3607   -5.5198    3.7466 C   0  0  1  0  0  0  0  0  0  0  0  0
    1.3288   -4.5571    3.5729 O   0  0  0  0  0  0  0  0  0  0  0  0
    0.5772   -4.5105    4.8785 O   0  0  0  0  0  0  0  0  0  0  0  0
    0.3965   -5.8645    5.2516 C   0  0  1  0  0  0  0  0  0  0  0  0
    0.2571   -5.9511    6.7679 C   0  0  0  0  0  0  0  0  0  0  0  0
   -0.7861   -6.4572    4.7247 O   0  0  0  0  0  0  0  0  0  0  0  0
   -0.5779   -6.6300    3.2512 O   0  0  0  0  0  0  0  0  0  0  0  0
    0.2900   -7.7361    3.0950 C   0  0  1  0  0  0  0  0  0  0  0  0
   -0.5082   -9.0316    3.2921 C   0  0  0  0  0  0  0  0  0  0  0  0
    0.9043   -7.6484    1.7063 C   0  0  0  0  0  0  0  0  0  0  0  0
    1.6880   -6.3513    1.4007 C   0  0  0  0  0  0  0  0  0  0  0  0
    2.8733   -6.0190    2.3547 C   0  0  1  0  0  0  0  0  0  0  0  0
    3.9992   -5.0762    1.7549 C   0  0  1  0  0  0  0  0  0  0  0  0
    4.1037   -5.0966    0.2176 C   0  0  0  0  0  0  0  0  0  0  0  0
    5.3059   -4.2951   -0.2846 C   0  0  0  0  0  0  0  0  0  0  0  0
    5.2913   -2.8181    0.1513 C   0  0  1  0  0  0  0  0  0  0  0  0
    6.6760   -2.2224   -0.2221 C   0  0  0  0  0  0  0  0  0  0  0  0
    1.3359   -7.7898    4.0549 O   0  0  0  0  0  0  0  0  0  0  0  0
    1.6619   -6.5575    4.6735 C   0  0  1  0  0  0  0  0  0  0  0  0
    2.2207   -2.1309   -2.5765 H   0  0  0  0  0  0  0  0  0  0  0  0
    3.4406   -3.3754   -2.8717 H   0  0  0  0  0  0  0  0  0  0  0  0
    3.3862   -1.9237   -3.8849 H   0  0  0  0  0  0  0  0  0  0  0  0
    3.2052   -2.5569   -0.3051 H   0  0  0  0  0  0  0  0  0  0  0  0
    4.4540    0.1207    0.1220 H   0  0  0  0  0  0  0  0  0  0  0  0
    2.9297   -0.5524    0.6867 H   0  0  0  0  0  0  0  0  0  0  0  0
    5.5623   -0.5852    1.9774 H   0  0  0  0  0  0  0  0  0  0  0  0
    4.0312   -1.0124    2.7036 H   0  0  0  0  0  0  0  0  0  0  0  0
    6.0025   -2.8718    2.1931 H   0  0  0  0  0  0  0  0  0  0  0  0
    2.9919   -3.2133    2.0120 H   0  0  0  0  0  0  0  0  0  0  0  0
    5.1134   -3.4483    4.1441 H   0  0  0  0  0  0  0  0  0  0  0  0
    3.5249   -2.7569    4.2028 H   0  0  0  0  0  0  0  0  0  0  0  0
    4.3323   -5.6107    4.5718 H   0  0  0  0  0  0  0  0  0  0  0  0
    3.2661   -4.6398    5.5451 H   0  0  0  0  0  0  0  0  0  0  0  0
   -0.6184   -5.3902    7.1040 H   0  0  0  0  0  0  0  0  0  0  0  0
    1.1276   -5.5475    7.2920 H   0  0  0  0  0  0  0  0  0  0  0  0
    0.1178   -6.9863    7.0926 H   0  0  0  0  0  0  0  0  0  0  0  0
   -0.9078   -9.0839    4.3041 H   0  0  0  0  0  0  0  0  0  0  0  0
    0.1382   -9.9004    3.1602 H   0  0  0  0  0  0  0  0  0  0  0  0
   -1.3475   -9.1308    2.5971 H   0  0  0  0  0  0  0  0  0  0  0  0
    1.5534   -8.5148    1.5472 H   0  0  0  0  0  0  0  0  0  0  0  0
    0.1036   -7.7445    0.9640 H   0  0  0  0  0  0  0  0  0  0  0  0
    2.0576   -6.5207    0.3980 H   0  0  0  0  0  0  0  0  0  0  0  0
    1.0179   -5.4989    1.3286 H   0  0  0  0  0  0  0  0  0  0  0  0
    3.3789   -6.9738    2.5302 H   0  0  0  0  0  0  0  0  0  0  0  0
    4.9399   -5.4961    2.1139 H   0  0  0  0  0  0  0  0  0  0  0  0
    4.2105   -6.1222   -0.1440 H   0  0  0  0  0  0  0  0  0  0  0  0
    3.1995   -4.6933   -0.2364 H   0  0  0  0  0  0  0  0  0  0  0  0
    6.2098   -4.7677    0.1019 H   0  0  0  0  0  0  0  0  0  0  0  0
    5.3675   -4.3641   -1.3722 H   0  0  0  0  0  0  0  0  0  0  0  0
    7.4862   -2.7033    0.3278 H   0  0  0  0  0  0  0  0  0  0  0  0
    6.7355   -1.1531   -0.0117 H   0  0  0  0  0  0  0  0  0  0  0  0
    6.8941   -2.3611   -1.2832 H   0  0  0  0  0  0  0  0  0  0  0  0
    2.3395   -6.8129    5.4969 H   0  0  0  0  0  0  0  0  0  0  0  0
  1  2  1  0
  1 30  1  0
  1 31  1  0
  1 32  1  0
  2  3  2  0
  2  4  1  0
  4 26  1  0
  4  5  1  0
  4 33  1  6
  5  6  1  0
  5 34  1  0
  5 35  1  0
  6  7  1  0
  6 36  1  0
  6 37  1  0
  7 26  1  0
  7  8  1  0
  7 38  1  1
  8 23  1  0
  8  9  1  0
  8 39  1  1
  9 10  1  0
  9 40  1  0
  9 41  1  0
 10 11  1  0
 10 42  1  0
 10 43  1  0
 11 22  1  0
 11 29  1  0
 11 12  1  6
 12 13  1  0
 13 14  1  0
 14 29  1  0
 14 15  1  1
 14 16  1  0
 15 44  1  0
 15 45  1  0
 15 46  1  0
 16 17  1  0
 17 18  1  0
 18 19  1  6
 18 20  1  0
 18 28  1  0
 19 47  1  0
 19 48  1  0
 19 49  1  0
 20 21  1  0
 20 50  1  0
 20 51  1  0
 21 22  1  0
 21 52  1  0
 21 53  1  0
 22 23  1  0
 22 54  1  1
 23 24  1  0
 23 55  1  1
 24 25  1  0
 24 56  1  0
 24 57  1  0
 25 26  1  0
 25 58  1  0
 25 59  1  0
 26 27  1  1
 27 60  1  0
 27 61  1  0
 27 62  1  0
 28 29  1  0
 29 63  1  1
M  END
>  <i_m_ct_stereo_status>  (248) 
1

>  <s_m_source_file>  (248) 
/var/tmp/pbs.5076255.sched01/tmpelb551ou/82hj6rxffr.sdf

>  <i_m_source_file_index>  (248) 
27

>  <i_lp_mmshare_version>  (248) 
48012

>  <i_f3d_flags>  (248) 
0

>  <s_epik_input>  (248) 
W0NIM11DKD1PKVtDQEhdKFtDSDJdW0NIMl0xKVtDQF0oW0NIM10pKFtDSDJdW0NIMl0yKVtDQEBIXTFbQ0BIXShbQ0gyXVtDSDJdMylbQ0BIXTJbQ0BASF0oW0NAQF0zNDUpW0NIMl1bQ0gyXVtDQF02KFtDSDNdKU9PW0NAQF0oT080KShbQ0gzXSlbQ0BIXTVPNg==

>  <s_epik_cmdline>  (248) 
J2VwaWtfcHl0aG9uJywgJy1waHQnLCAnMi4wJywgJy1waCcsICc3LjAnLCAnLXRuJywgJzgnLCAnLW1hJywgJzIwMCcsICctaW1hZScsICc8aW5maWxlLm1hZT4nLCAnLW9tYWUnLCAnPG91dGZpbGUubWFlPic=

>  <r_lp_tautomer_probability>  (248) 
1

>  <r_epik_Ionization_Penalty>  (248) 
9.4722e-14

>  <r_epik_Ionization_Penalty_Charging>  (248) 
0

>  <r_epik_Ionization_Penalty_Neutral>  (248) 
9.4722e-14

>  <r_epik_State_Penalty>  (248) 
-0

>  <r_epik_Charging_Adjusted_Penalty>  (248) 
0

>  <i_epik_Tot_Q>  (248) 
0

>  <i_epik_Tot_abs_Q>  (248) 
0

>  <s_lp_Force_Field>  (248) 
OPLS3e

>  <r_lp_Energy>  (248) 
43.9935

>  <b_lp_Chiralities_Consistent>  (248) 
1

>  <s_lp_Variant>  (248) 
80:0-1

>  <s_i_glide_gridfile>  (248) 
pfpi4k_grid

>  <i_i_glide_lignum>  (248) 
27

>  <i_i_glide_rotatable_bonds>  (248) 
1

>  <r_i_docking_score>  (248) 
-2.98196

>  <r_i_glide_ligand_efficiency>  (248) 
-0.102826

>  <r_i_glide_ligand_efficiency_sa>  (248) 
-0.315915

>  <r_i_glide_ligand_efficiency_ln>  (248) 
-0.682793

>  <r_i_glide_gscore>  (248) 
-2.98196

>  <r_i_glide_lipo>  (248) 
-0.216569

>  <r_i_glide_hbond>  (248) 
-0.152189

>  <r_i_glide_metal>  (248) 
-0

>  <r_i_glide_rewards>  (248) 
-0.637415

>  <r_i_glide_evdw>  (248) 
-33.4814

>  <r_i_glide_ecoul>  (248) 
-1.4524

>  <r_i_glide_erotb>  (248) 
0

>  <r_i_glide_esite>  (248) 
-0.0838591

>  <r_i_glide_emodel>  (248) 
-41.6041

>  <r_i_glide_energy>  (248) 
-34.9338

>  <r_i_glide_einternal>  (248) 
0.556089

>  <r_i_glide_intrahb_reward>  (248) 
-0

>  <i_i_glide_confnum>  (248) 
1

>  <i_i_glide_posenum>  (248) 
1

>  <r_i_glide_eff_state_penalty>  (248) 
0

>  <ligand_id>  (248) 
80

>  <original_smiles>  (248) 
CC(=O)C1CCC2C3CCC45OOC6(C)OOC(C)(CCC4C3CCC12C)OC65

>  <smiles>  (248) 
[H]C([H])([H])C(=O)C1([H])C([H])([H])C([H])([H])C2([H])C3([H])C([H])([H])C([H])([H])C45OOC6(C([H])([H])[H])OOC(C([H])([H])[H])(OC64[H])C([H])([H])C([H])([H])C5([H])C3([H])C([H])([H])C([H])([H])C12C([H])([H])[H]

$$$$
80:0:1
     RDKit          3D

 63 68  0  0  1  0  0  0  0  0999 V2000
    3.3061   -1.3788   -2.8840 C   0  0  0  0  0  0  0  0  0  0  0  0
    4.4016   -2.1481   -2.1682 C   0  0  0  0  0  0  0  0  0  0  0  0
    5.2957   -2.6682   -2.8200 O   0  0  0  0  0  0  0  0  0  0  0  0
    4.2590   -2.3358   -0.6325 C   0  0  2  0  0  0  0  0  0  0  0  0
    3.9734   -1.0374    0.1418 C   0  0  0  0  0  0  0  0  0  0  0  0
    4.5709   -1.2250    1.5499 C   0  0  0  0  0  0  0  0  0  0  0  0
    5.0537   -2.6883    1.6225 C   0  0  1  0  0  0  0  0  0  0  0  0
    3.9708   -3.6020    2.2834 C   0  0  2  0  0  0  0  0  0  0  0  0
    3.9625   -3.3727    3.8171 C   0  0  0  0  0  0  0  0  0  0  0  0
    3.4447   -4.5690    4.6340 C   0  0  0  0  0  0  0  0  0  0  0  0
    2.3645   -5.3845    3.8924 C   0  0  1  0  0  0  0  0  0  0  0  0
    1.2976   -4.5166    3.5273 O   0  0  0  0  0  0  0  0  0  0  0  0
    0.4605   -4.3402    4.7631 O   0  0  0  0  0  0  0  0  0  0  0  0
    0.3206   -5.6412    5.3067 C   0  0  1  0  0  0  0  0  0  0  0  0
    0.0729   -5.5344    6.8062 C   0  0  0  0  0  0  0  0  0  0  0  0
   -0.7914   -6.3581    4.7783 O   0  0  0  0  0  0  0  0  0  0  0  0
   -0.4672   -6.7046    3.3640 O   0  0  0  0  0  0  0  0  0  0  0  0
    0.4623   -7.7797    3.4136 C   0  0  1  0  0  0  0  0  0  0  0  0
   -0.2677   -9.0830    3.7486 C   0  0  0  0  0  0  0  0  0  0  0  0
    1.1732   -7.8539    2.0748 C   0  0  0  0  0  0  0  0  0  0  0  0
    1.9065   -6.5682    1.6411 C   0  0  0  0  0  0  0  0  0  0  0  0
    2.9958   -6.0311    2.6171 C   0  0  1  0  0  0  0  0  0  0  0  0
    4.1156   -5.1124    1.9671 C   0  0  1  0  0  0  0  0  0  0  0  0
    4.3328   -5.3333    0.4598 C   0  0  0  0  0  0  0  0  0  0  0  0
    5.5274   -4.5343   -0.0641 C   0  0  0  0  0  0  0  0  0  0  0  0
    5.4196   -3.0140    0.1515 C   0  0  1  0  0  0  0  0  0  0  0  0
    6.8043   -2.3867   -0.1739 C   0  0  0  0  0  0  0  0  0  0  0  0
    1.4393   -7.6439    4.4398 O   0  0  0  0  0  0  0  0  0  0  0  0
    1.6535   -6.3253    4.9087 C   0  0  1  0  0  0  0  0  0  0  0  0
    3.1632   -0.3873   -2.4648 H   0  0  0  0  0  0  0  0  0  0  0  0
    2.3638   -1.9209   -2.8212 H   0  0  0  0  0  0  0  0  0  0  0  0
    3.5642   -1.2653   -3.9392 H   0  0  0  0  0  0  0  0  0  0  0  0
    3.3740   -2.9490   -0.5079 H   0  0  0  0  0  0  0  0  0  0  0  0
    4.4206   -0.1700   -0.3386 H   0  0  0  0  0  0  0  0  0  0  0  0
    2.8966   -0.8622    0.2136 H   0  0  0  0  0  0  0  0  0  0  0  0
    5.4144   -0.5435    1.6636 H   0  0  0  0  0  0  0  0  0  0  0  0
    3.8588   -0.9657    2.3356 H   0  0  0  0  0  0  0  0  0  0  0  0
    5.9570   -2.7469    2.2306 H   0  0  0  0  0  0  0  0  0  0  0  0
    2.9950   -3.3009    1.8962 H   0  0  0  0  0  0  0  0  0  0  0  0
    4.9637   -3.1103    4.1728 H   0  0  0  0  0  0  0  0  0  0  0  0
    3.3391   -2.5167    4.0338 H   0  0  0  0  0  0  0  0  0  0  0  0
    4.2771   -5.2378    4.8466 H   0  0  0  0  0  0  0  0  0  0  0  0
    3.0896   -4.2137    5.6055 H   0  0  0  0  0  0  0  0  0  0  0  0
   -0.8509   -4.9867    7.0015 H   0  0  0  0  0  0  0  0  0  0  0  0
    0.8834   -5.0104    7.3216 H   0  0  0  0  0  0  0  0  0  0  0  0
   -0.0363   -6.5228    7.2605 H   0  0  0  0  0  0  0  0  0  0  0  0
   -0.7326   -9.0332    4.7310 H   0  0  0  0  0  0  0  0  0  0  0  0
    0.4347   -9.9172    3.7804 H   0  0  0  0  0  0  0  0  0  0  0  0
   -1.0469   -9.3412    3.0227 H   0  0  0  0  0  0  0  0  0  0  0  0
    1.8784   -8.6918    2.0872 H   0  0  0  0  0  0  0  0  0  0  0  0
    0.4355   -8.1058    1.3047 H   0  0  0  0  0  0  0  0  0  0  0  0
    2.3583   -6.8486    0.7020 H   0  0  0  0  0  0  0  0  0  0  0  0
    1.1863   -5.7845    1.3983 H   0  0  0  0  0  0  0  0  0  0  0  0
    3.5410   -6.9207    2.9554 H   0  0  0  0  0  0  0  0  0  0  0  0
    5.0481   -5.4216    2.4422 H   0  0  0  0  0  0  0  0  0  0  0  0
    4.5181   -6.3874    0.2525 H   0  0  0  0  0  0  0  0  0  0  0  0
    3.4440   -5.0527   -0.1049 H   0  0  0  0  0  0  0  0  0  0  0  0
    6.4238   -4.8981    0.4378 H   0  0  0  0  0  0  0  0  0  0  0  0
    5.6612   -4.7380   -1.1229 H   0  0  0  0  0  0  0  0  0  0  0  0
    7.5701   -2.7151    0.5292 H   0  0  0  0  0  0  0  0  0  0  0  0
    6.7776   -1.2966   -0.1351 H   0  0  0  0  0  0  0  0  0  0  0  0
    7.1720   -2.6667   -1.1619 H   0  0  0  0  0  0  0  0  0  0  0  0
    2.2871   -6.4342    5.7973 H   0  0  0  0  0  0  0  0  0  0  0  0
  1  2  1  0
  1 30  1  0
  1 31  1  0
  1 32  1  0
  2  3  2  0
  2  4  1  0
  4 26  1  0
  4  5  1  0
  4 33  1  6
  5  6  1  0
  5 34  1  0
  5 35  1  0
  6  7  1  0
  6 36  1  0
  6 37  1  0
  7 26  1  0
  7  8  1  0
  7 38  1  1
  8 23  1  0
  8  9  1  0
  8 39  1  6
  9 10  1  0
  9 40  1  0
  9 41  1  0
 10 11  1  0
 10 42  1  0
 10 43  1  0
 11 22  1  0
 11 29  1  0
 11 12  1  6
 12 13  1  0
 13 14  1  0
 14 29  1  0
 14 15  1  1
 14 16  1  0
 15 44  1  0
 15 45  1  0
 15 46  1  0
 16 17  1  0
 17 18  1  0
 18 19  1  1
 18 20  1  0
 18 28  1  0
 19 47  1  0
 19 48  1  0
 19 49  1  0
 20 21  1  0
 20 50  1  0
 20 51  1  0
 21 22  1  0
 21 52  1  0
 21 53  1  0
 22 23  1  0
 22 54  1  1
 23 24  1  0
 23 55  1  1
 24 25  1  0
 24 56  1  0
 24 57  1  0
 25 26  1  0
 25 58  1  0
 25 59  1  0
 26 27  1  6
 27 60  1  0
 27 61  1  0
 27 62  1  0
 28 29  1  0
 29 63  1  1
M  END
>  <i_m_ct_stereo_status>  (249) 
1

>  <s_m_source_file>  (249) 
/var/tmp/pbs.5076255.sched01/tmpelb551ou/82hj6rxffr.sdf

>  <i_m_source_file_index>  (249) 
27

>  <i_lp_mmshare_version>  (249) 
48012

>  <i_f3d_flags>  (249) 
0

>  <s_epik_input>  (249) 
W0NIM11DKD1PKVtDQEhdKFtDSDJdW0NIMl0xKVtDQF0oW0NIM10pKFtDSDJdW0NIMl0yKVtDQEBIXTFbQ0BIXShbQ0gyXVtDSDJdMylbQ0BIXTJbQ0BASF0oW0NAQF0zNDUpW0NIMl1bQ0gyXVtDQF02KFtDSDNdKU9PW0NAQF0oT080KShbQ0gzXSlbQ0BIXTVPNg==

>  <s_epik_cmdline>  (249) 
J2VwaWtfcHl0aG9uJywgJy1waHQnLCAnMi4wJywgJy1waCcsICc3LjAnLCAnLXRuJywgJzgnLCAnLW1hJywgJzIwMCcsICctaW1hZScsICc8aW5maWxlLm1hZT4nLCAnLW9tYWUnLCAnPG91dGZpbGUubWFlPic=

>  <r_lp_tautomer_probability>  (249) 
1

>  <r_epik_Ionization_Penalty>  (249) 
9.4722e-14

>  <r_epik_Ionization_Penalty_Charging>  (249) 
0

>  <r_epik_Ionization_Penalty_Neutral>  (249) 
9.4722e-14

>  <r_epik_State_Penalty>  (249) 
-0

>  <r_epik_Charging_Adjusted_Penalty>  (249) 
0

>  <i_epik_Tot_Q>  (249) 
0

>  <i_epik_Tot_abs_Q>  (249) 
0

>  <s_lp_Force_Field>  (249) 
OPLS3e

>  <r_lp_Energy>  (249) 
43.9935

>  <b_lp_Chiralities_Consistent>  (249) 
1

>  <s_lp_Variant>  (249) 
80:0-1

>  <s_i_glide_gridfile>  (249) 
pfpi4k_grid

>  <i_i_glide_lignum>  (249) 
27

>  <i_i_glide_rotatable_bonds>  (249) 
1

>  <r_i_docking_score>  (249) 
-2.84615

>  <r_i_glide_ligand_efficiency>  (249) 
-0.098143

>  <r_i_glide_ligand_efficiency_sa>  (249) 
-0.301526

>  <r_i_glide_ligand_efficiency_ln>  (249) 
-0.651696

>  <r_i_glide_gscore>  (249) 
-2.84615

>  <r_i_glide_lipo>  (249) 
-0.246881

>  <r_i_glide_hbond>  (249) 
-0.139908

>  <r_i_glide_metal>  (249) 
-0

>  <r_i_glide_rewards>  (249) 
-0.637444

>  <r_i_glide_evdw>  (249) 
-32.3894

>  <r_i_glide_ecoul>  (249) 
-1.1012

>  <r_i_glide_erotb>  (249) 
0

>  <r_i_glide_esite>  (249) 
-0.0372666

>  <r_i_glide_emodel>  (249) 
-39.9665

>  <r_i_glide_energy>  (249) 
-33.4906

>  <r_i_glide_einternal>  (249) 
0.218941

>  <r_i_glide_intrahb_reward>  (249) 
-0

>  <i_i_glide_confnum>  (249) 
2

>  <i_i_glide_posenum>  (249) 
4

>  <r_i_glide_eff_state_penalty>  (249) 
0

>  <ligand_id>  (249) 
80

>  <original_smiles>  (249) 
CC(=O)C1CCC2C3CCC45OOC6(C)OOC(C)(CCC4C3CCC12C)OC65

>  <smiles>  (249) 
[H]C([H])([H])C(=O)C1([H])C([H])([H])C([H])([H])C2([H])C3([H])C([H])([H])C([H])([H])C45OOC6(C([H])([H])[H])OOC(C([H])([H])[H])(OC64[H])C([H])([H])C([H])([H])C5([H])C3([H])C([H])([H])C([H])([H])C12C([H])([H])[H]

$$$$
80:0:2
     RDKit          3D

 63 68  0  0  1  0  0  0  0  0999 V2000
    4.3889   -0.4271   -1.9483 C   0  0  0  0  0  0  0  0  0  0  0  0
    4.0693   -1.7634   -1.3434 C   0  0  0  0  0  0  0  0  0  0  0  0
    3.0483   -2.3702   -1.7010 O   0  0  0  0  0  0  0  0  0  0  0  0
    5.1027   -2.3496   -0.3537 C   0  0  2  0  0  0  0  0  0  0  0  0
    6.2653   -1.4788    0.2001 C   0  0  0  0  0  0  0  0  0  0  0  0
    7.4825   -2.4030    0.2304 C   0  0  0  0  0  0  0  0  0  0  0  0
    7.0009   -3.8153   -0.1124 C   0  0  1  0  0  0  0  0  0  0  0  0
    6.6728   -4.6622    1.1771 C   0  0  2  0  0  0  0  0  0  0  0  0
    8.0277   -5.1969    1.7316 C   0  0  0  0  0  0  0  0  0  0  0  0
    7.8506   -6.4067    2.6599 C   0  0  0  0  0  0  0  0  0  0  0  0
    6.4816   -6.4904    3.3755 C   0  0  1  0  0  0  0  0  0  0  0  0
    6.2137   -5.3264    4.1328 O   0  0  0  0  0  0  0  0  0  0  0  0
    6.9635   -5.4736    5.4062 O   0  0  0  0  0  0  0  0  0  0  0  0
    6.7530   -6.8030    5.8269 C   0  0  1  0  0  0  0  0  0  0  0  0
    7.9194   -7.2827    6.6966 C   0  0  0  0  0  0  0  0  0  0  0  0
    5.5944   -6.9181    6.6136 O   0  0  0  0  0  0  0  0  0  0  0  0
    4.4241   -6.6929    5.7452 O   0  0  0  0  0  0  0  0  0  0  0  0
    4.2433   -7.8736    4.9983 C   0  0  1  0  0  0  0  0  0  0  0  0
    3.5953   -8.9585    5.8728 C   0  0  0  0  0  0  0  0  0  0  0  0
    3.3821   -7.5443    3.7790 C   0  0  0  0  0  0  0  0  0  0  0  0
    3.9371   -6.4292    2.8852 C   0  0  0  0  0  0  0  0  0  0  0  0
    5.3547   -6.6714    2.3051 C   0  0  1  0  0  0  0  0  0  0  0  0
    5.6838   -5.8530    0.9942 C   0  0  1  0  0  0  0  0  0  0  0  0
    4.4526   -5.4041    0.1883 C   0  0  0  0  0  0  0  0  0  0  0  0
    4.8623   -4.7172   -1.1087 C   0  0  0  0  0  0  0  0  0  0  0  0
    5.7956   -3.5301   -1.0138 C   0  0  1  0  0  0  0  0  0  0  0  0
    6.2251   -3.1581   -2.4660 C   0  0  0  0  0  0  0  0  0  0  0  0
    5.4522   -8.4554    4.5625 O   0  0  0  0  0  0  0  0  0  0  0  0
    6.5686   -7.5558    4.4969 C   0  0  1  0  0  0  0  0  0  0  0  0
    5.3692   -0.3429   -2.4298 H   0  0  0  0  0  0  0  0  0  0  0  0
    4.4370    0.1428   -1.0139 H   0  0  0  0  0  0  0  0  0  0  0  0
    3.6012   -0.0229   -2.6016 H   0  0  0  0  0  0  0  0  0  0  0  0
    4.5380   -2.7175    0.4950 H   0  0  0  0  0  0  0  0  0  0  0  0
    6.5110   -0.6326   -0.4214 H   0  0  0  0  0  0  0  0  0  0  0  0
    5.9992   -1.1244    1.1931 H   0  0  0  0  0  0  0  0  0  0  0  0
    8.1774   -2.1131   -0.5532 H   0  0  0  0  0  0  0  0  0  0  0  0
    7.9912   -2.3912    1.1830 H   0  0  0  0  0  0  0  0  0  0  0  0
    7.7768   -4.3082   -0.7125 H   0  0  0  0  0  0  0  0  0  0  0  0
    6.1937   -3.9869    1.9083 H   0  0  0  0  0  0  0  0  0  0  0  0
    8.7134   -5.4372    0.9042 H   0  0  0  0  0  0  0  0  0  0  0  0
    8.5370   -4.4097    2.2720 H   0  0  0  0  0  0  0  0  0  0  0  0
    7.9743   -7.3192    2.0844 H   0  0  0  0  0  0  0  0  0  0  0  0
    8.6531   -6.3897    3.3963 H   0  0  0  0  0  0  0  0  0  0  0  0
    8.0057   -6.6459    7.5764 H   0  0  0  0  0  0  0  0  0  0  0  0
    8.8617   -7.2445    6.1490 H   0  0  0  0  0  0  0  0  0  0  0  0
    7.7359   -8.3005    7.0346 H   0  0  0  0  0  0  0  0  0  0  0  0
    4.2400   -9.2246    6.7131 H   0  0  0  0  0  0  0  0  0  0  0  0
    3.4582   -9.8675    5.2940 H   0  0  0  0  0  0  0  0  0  0  0  0
    2.6199   -8.6677    6.2703 H   0  0  0  0  0  0  0  0  0  0  0  0
    3.2388   -8.4603    3.2023 H   0  0  0  0  0  0  0  0  0  0  0  0
    2.3994   -7.2529    4.1344 H   0  0  0  0  0  0  0  0  0  0  0  0
    3.2002   -6.3916    2.0937 H   0  0  0  0  0  0  0  0  0  0  0  0
    3.8847   -5.4658    3.3896 H   0  0  0  0  0  0  0  0  0  0  0  0
    5.3789   -7.7196    1.9683 H   0  0  0  0  0  0  0  0  0  0  0  0
    6.2395   -6.5454    0.3589 H   0  0  0  0  0  0  0  0  0  0  0  0
    3.8828   -6.2814   -0.0910 H   0  0  0  0  0  0  0  0  0  0  0  0
    3.8126   -4.7422    0.7707 H   0  0  0  0  0  0  0  0  0  0  0  0
    5.3851   -5.4473   -1.6885 H   0  0  0  0  0  0  0  0  0  0  0  0
    3.9783   -4.4322   -1.6552 H   0  0  0  0  0  0  0  0  0  0  0  0
    6.8760   -3.8837   -2.9143 H   0  0  0  0  0  0  0  0  0  0  0  0
    6.7921   -2.2399   -2.4975 H   0  0  0  0  0  0  0  0  0  0  0  0
    5.3731   -3.0653   -3.1587 H   0  0  0  0  0  0  0  0  0  0  0  0
    7.4417   -8.1745    4.3163 H   0  0  0  0  0  0  0  0  0  0  0  0
  1  2  1  0
  1 30  1  0
  1 31  1  0
  1 32  1  0
  2  3  2  0
  2  4  1  0
  4 26  1  0
  4  5  1  0
  4 33  1  1
  5  6  1  0
  5 34  1  0
  5 35  1  0
  6  7  1  0
  6 36  1  0
  6 37  1  0
  7 26  1  0
  7  8  1  0
  7 38  1  6
  8 23  1  0
  8  9  1  0
  8 39  1  1
  9 10  1  0
  9 40  1  0
  9 41  1  0
 10 11  1  0
 10 42  1  0
 10 43  1  0
 11 22  1  0
 11 29  1  0
 11 12  1  1
 12 13  1  0
 13 14  1  0
 14 29  1  0
 14 15  1  1
 14 16  1  0
 15 44  1  0
 15 45  1  0
 15 46  1  0
 16 17  1  0
 17 18  1  0
 18 19  1  1
 18 20  1  0
 18 28  1  0
 19 47  1  0
 19 48  1  0
 19 49  1  0
 20 21  1  0
 20 50  1  0
 20 51  1  0
 21 22  1  0
 21 52  1  0
 21 53  1  0
 22 23  1  0
 22 54  1  6
 23 24  1  0
 23 55  1  6
 24 25  1  0
 24 56  1  0
 24 57  1  0
 25 26  1  0
 25 58  1  0
 25 59  1  0
 26 27  1  6
 27 60  1  0
 27 61  1  0
 27 62  1  0
 28 29  1  0
 29 63  1  6
M  END
>  <i_m_ct_stereo_status>  (250) 
1

>  <s_m_source_file>  (250) 
/var/tmp/pbs.5076255.sched01/tmpelb551ou/82hj6rxffr.sdf

>  <i_m_source_file_index>  (250) 
27

>  <i_lp_mmshare_version>  (250) 
48012

>  <i_f3d_flags>  (250) 
0

>  <s_epik_input>  (250) 
W0NIM11DKD1PKVtDQEhdKFtDSDJdW0NIMl0xKVtDQF0oW0NIM10pKFtDSDJdW0NIMl0yKVtDQEBIXTFbQ0BIXShbQ0gyXVtDSDJdMylbQ0BIXTJbQ0BASF0oW0NAQF0zNDUpW0NIMl1bQ0gyXVtDQF02KFtDSDNdKU9PW0NAQF0oT080KShbQ0gzXSlbQ0BIXTVPNg==

>  <s_epik_cmdline>  (250) 
J2VwaWtfcHl0aG9uJywgJy1waHQnLCAnMi4wJywgJy1waCcsICc3LjAnLCAnLXRuJywgJzgnLCAnLW1hJywgJzIwMCcsICctaW1hZScsICc8aW5maWxlLm1hZT4nLCAnLW9tYWUnLCAnPG91dGZpbGUubWFlPic=

>  <r_lp_tautomer_probability>  (250) 
1

>  <r_epik_Ionization_Penalty>  (250) 
9.4722e-14

>  <r_epik_Ionization_Penalty_Charging>  (250) 
0

>  <r_epik_Ionization_Penalty_Neutral>  (250) 
9.4722e-14

>  <r_epik_State_Penalty>  (250) 
-0

>  <r_epik_Charging_Adjusted_Penalty>  (250) 
0

>  <i_epik_Tot_Q>  (250) 
0

>  <i_epik_Tot_abs_Q>  (250) 
0

>  <s_lp_Force_Field>  (250) 
OPLS3e

>  <r_lp_Energy>  (250) 
43.9935

>  <b_lp_Chiralities_Consistent>  (250) 
1

>  <s_lp_Variant>  (250) 
80:0-1

>  <s_i_glide_gridfile>  (250) 
pfpi4k_grid

>  <i_i_glide_lignum>  (250) 
27

>  <i_i_glide_rotatable_bonds>  (250) 
1

>  <r_i_docking_score>  (250) 
-1.99878

>  <r_i_glide_ligand_efficiency>  (250) 
-0.0689235

>  <r_i_glide_ligand_efficiency_sa>  (250) 
-0.211755

>  <r_i_glide_ligand_efficiency_ln>  (250) 
-0.457671

>  <r_i_glide_gscore>  (250) 
-1.99878

>  <r_i_glide_lipo>  (250) 
-0.830847

>  <r_i_glide_hbond>  (250) 
0

>  <r_i_glide_metal>  (250) 
-0

>  <r_i_glide_rewards>  (250) 
-0.637415

>  <r_i_glide_evdw>  (250) 
-12.9571

>  <r_i_glide_ecoul>  (250) 
1.0569

>  <r_i_glide_erotb>  (250) 
0

>  <r_i_glide_esite>  (250) 
-0.0411992

>  <r_i_glide_emodel>  (250) 
-13.6304

>  <r_i_glide_energy>  (250) 
-11.9002

>  <r_i_glide_einternal>  (250) 
2.93257

>  <r_i_glide_intrahb_reward>  (250) 
-0

>  <i_i_glide_confnum>  (250) 
2

>  <i_i_glide_posenum>  (250) 
2

>  <r_i_glide_eff_state_penalty>  (250) 
0

>  <ligand_id>  (250) 
80

>  <original_smiles>  (250) 
CC(=O)C1CCC2C3CCC45OOC6(C)OOC(C)(CCC4C3CCC12C)OC65

>  <smiles>  (250) 
[H]C([H])([H])C(=O)C1([H])C([H])([H])C([H])([H])C2([H])C3([H])C([H])([H])C([H])([H])C45OOC6(C([H])([H])[H])OOC(C([H])([H])[H])(OC64[H])C([H])([H])C([H])([H])C5([H])C3([H])C([H])([H])C([H])([H])C12C([H])([H])[H]

$$$$
82:0:0
     RDKit          3D

 54 58  0  0  1  0  0  0  0  0999 V2000
    6.3128   -9.2722    2.0543 C   0  0  0  0  0  0  0  0  0  0  0  0
    5.7062   -7.8626    1.9064 C   0  0  2  0  0  0  0  0  0  0  0  0
    6.5630   -6.8461    2.6968 C   0  0  0  0  0  0  0  0  0  0  0  0
    5.8567   -5.5047    2.9633 C   0  0  0  0  0  0  0  0  0  0  0  0
    4.7640   -5.2482    1.9176 C   0  0  2  0  0  0  0  0  0  0  0  0
    4.1964   -3.8121    1.8959 C   0  0  1  0  0  0  0  0  0  0  0  0
    5.2570   -2.6954    1.7699 C   0  0  0  0  0  0  0  0  0  0  0  0
    3.2310   -3.7364    0.6905 C   0  0  1  0  0  0  0  0  0  0  0  0
    3.8449   -3.7923   -0.6118 N   0  0  0  0  0  0  0  0  0  0  0  0
    3.7718   -2.5580   -1.4030 C   0  0  2  0  0  0  0  0  0  0  0  0
    2.6232   -2.5634   -2.4078 C   0  0  0  0  0  0  0  0  0  0  0  0
    3.2095   -3.0706   -3.6300 N   0  0  0  0  0  0  0  0  0  0  0  0
    4.5965   -2.6675   -3.5499 O   0  0  0  0  0  0  0  0  0  0  0  0
    4.9794   -2.4298   -2.2947 C   0  0  0  0  0  0  0  0  0  0  0  0
    6.1215   -2.1622   -1.9205 O   0  0  0  0  0  0  0  0  0  0  0  0
    2.2314   -4.7049    0.8597 O   0  0  0  0  0  0  0  0  0  0  0  0
    2.6654   -6.0428    0.8640 C   0  0  2  0  0  0  0  0  0  0  0  0
    1.5303   -6.8506    0.9026 O   0  0  0  0  0  0  0  0  0  0  0  0
    1.2126   -7.4406    2.1470 C   0  0  1  0  0  0  0  0  0  0  0  0
   -0.3187   -7.5776    2.1679 C   0  0  0  0  0  0  0  0  0  0  0  0
    1.8804   -8.8242    2.2297 C   0  0  0  0  0  0  0  0  0  0  0  0
    3.3154   -8.8581    1.6924 C   0  0  0  0  0  0  0  0  0  0  0  0
    4.1938   -7.7435    2.2686 C   0  0  2  0  0  0  0  0  0  0  0  0
    3.6175   -6.2810    2.0853 C   0  0  1  0  0  0  0  0  0  0  0  0
    2.8906   -5.9856    3.2702 O   0  0  0  0  0  0  0  0  0  0  0  0
    1.4910   -6.6088    3.2786 O   0  0  0  0  0  0  0  0  0  0  0  0
    6.1921   -9.6590    3.0679 H   0  0  0  0  0  0  0  0  0  0  0  0
    7.3825   -9.2436    1.8429 H   0  0  0  0  0  0  0  0  0  0  0  0
    5.8734   -9.9889    1.3577 H   0  0  0  0  0  0  0  0  0  0  0  0
    5.7969   -7.6101    0.8517 H   0  0  0  0  0  0  0  0  0  0  0  0
    6.8963   -7.2734    3.6464 H   0  0  0  0  0  0  0  0  0  0  0  0
    7.4741   -6.6579    2.1253 H   0  0  0  0  0  0  0  0  0  0  0  0
    5.4138   -5.5137    3.9587 H   0  0  0  0  0  0  0  0  0  0  0  0
    6.6073   -4.7166    2.9496 H   0  0  0  0  0  0  0  0  0  0  0  0
    5.2340   -5.4035    0.9442 H   0  0  0  0  0  0  0  0  0  0  0  0
    3.6125   -3.6258    2.7964 H   0  0  0  0  0  0  0  0  0  0  0  0
    5.9427   -2.8798    0.9412 H   0  0  0  0  0  0  0  0  0  0  0  0
    5.8512   -2.6124    2.6797 H   0  0  0  0  0  0  0  0  0  0  0  0
    4.7921   -1.7218    1.6056 H   0  0  0  0  0  0  0  0  0  0  0  0
    2.6633   -2.8035    0.7680 H   0  0  0  0  0  0  0  0  0  0  0  0
    4.8068   -4.0954   -0.5366 H   0  0  0  0  0  0  0  0  0  0  0  0
    3.7146   -1.6844   -0.7527 H   0  0  0  0  0  0  0  0  0  0  0  0
    1.7609   -3.1459   -2.0901 H   0  0  0  0  0  0  0  0  0  0  0  0
    2.2851   -1.5428   -2.5888 H   0  0  0  0  0  0  0  0  0  0  0  0
    2.8020   -2.5852   -4.4171 H   0  0  0  0  0  0  0  0  0  0  0  0
    3.1710   -6.2505   -0.0791 H   0  0  0  0  0  0  0  0  0  0  0  0
   -0.7866   -6.5977    2.1106 H   0  0  0  0  0  0  0  0  0  0  0  0
   -0.6621   -8.0541    3.0877 H   0  0  0  0  0  0  0  0  0  0  0  0
   -0.6899   -8.1648    1.3252 H   0  0  0  0  0  0  0  0  0  0  0  0
    1.8369   -9.1894    3.2545 H   0  0  0  0  0  0  0  0  0  0  0  0
    1.3053   -9.5450    1.6501 H   0  0  0  0  0  0  0  0  0  0  0  0
    3.7195   -9.8349    1.9501 H   0  0  0  0  0  0  0  0  0  0  0  0
    3.3350   -8.8176    0.6047 H   0  0  0  0  0  0  0  0  0  0  0  0
    4.1817   -7.9163    3.3438 H   0  0  0  0  0  0  0  0  0  0  0  0
  1  2  1  0
  1 27  1  0
  1 28  1  0
  1 29  1  0
  2 23  1  0
  2  3  1  0
  2 30  1  6
  3  4  1  0
  3 31  1  0
  3 32  1  0
  4  5  1  0
  4 33  1  0
  4 34  1  0
  5 24  1  0
  5  6  1  0
  5 35  1  6
  6  7  1  0
  6  8  1  0
  6 36  1  1
  7 37  1  0
  7 38  1  0
  7 39  1  0
  8  9  1  0
  8 16  1  0
  8 40  1  6
  9 10  1  0
  9 41  1  0
 10 14  1  0
 10 11  1  0
 10 42  1  1
 11 12  1  0
 11 43  1  0
 11 44  1  0
 12 13  1  0
 12 45  1  0
 13 14  1  0
 14 15  2  0
 16 17  1  0
 17 24  1  0
 17 18  1  0
 17 46  1  6
 18 19  1  0
 19 26  1  0
 19 20  1  6
 19 21  1  0
 20 47  1  0
 20 48  1  0
 20 49  1  0
 21 22  1  0
 21 50  1  0
 21 51  1  0
 22 23  1  0
 22 52  1  0
 22 53  1  0
 23 24  1  0
 23 54  1  1
 24 25  1  1
 25 26  1  0
M  END
>  <i_m_ct_stereo_status>  (251) 
1

>  <s_m_source_file>  (251) 
/var/tmp/pbs.5076255.sched01/tmpelb551ou/82hj6rxffr.sdf

>  <i_m_source_file_index>  (251) 
30

>  <i_lp_mmshare_version>  (251) 
48012

>  <i_f3d_flags>  (251) 
0

>  <s_epik_input>  (251) 
W0NAXTEyM1tDQEBIXTRbQ0gyXVtDSDJdW0NAQEhdKFtDSDNdKVtDQEBIXTJbQ0gyXVtDSDJdW0NAQF0oW0NIM10pKE9PMylPW0NASF0xT1tDQEBIXShbQ0BASF00W0NIM10pW05IXVtDQEBIXTVbQ0gyXVtOSF1PQzU9Tw==

>  <s_epik_cmdline>  (251) 
J2VwaWtfcHl0aG9uJywgJy1waHQnLCAnMi4wJywgJy1waCcsICc3LjAnLCAnLXRuJywgJzgnLCAnLW1hJywgJzIwMCcsICctaW1hZScsICc8aW5maWxlLm1hZT4nLCAnLW9tYWUnLCAnPG91dGZpbGUubWFlPic=

>  <r_epik_Ionization_Penalty>  (251) 
0.00306806

>  <r_epik_Ionization_Penalty_Charging>  (251) 
0

>  <r_epik_Ionization_Penalty_Neutral>  (251) 
0.00306806

>  <r_epik_State_Penalty>  (251) 
0.00210808

>  <r_epik_Charging_Adjusted_Penalty>  (251) 
0.00210808

>  <i_epik_Tot_Q>  (251) 
0

>  <i_epik_Tot_abs_Q>  (251) 
0

>  <s_epik_Chemistry_Notes>  (251) 
This compound contains an acetal/aminal-like group ( X-CH(R)-Y where X, Y are N, S, or O) that may be acid/base labile, releasing an aldehyde. This compound has a N-S or N-O group and may undergo hydrolysis at high or low pH.

>  <s_lp_Force_Field>  (251) 
OPLS3e

>  <r_lp_Energy>  (251) 
40.1068

>  <b_lp_Chiralities_Consistent>  (251) 
1

>  <s_lp_Variant>  (251) 
82:0-1

>  <s_i_glide_gridfile>  (251) 
pfpi4k_grid

>  <i_i_glide_lignum>  (251) 
30

>  <i_i_glide_rotatable_bonds>  (251) 
2

>  <r_i_docking_score>  (251) 
-3.16698

>  <r_i_glide_ligand_efficiency>  (251) 
-0.121807

>  <r_i_glide_ligand_efficiency_sa>  (251) 
-0.360853

>  <r_i_glide_ligand_efficiency_ln>  (251) 
-0.743756

>  <r_i_glide_gscore>  (251) 
-3.16698

>  <r_i_glide_lipo>  (251) 
-0.218545

>  <r_i_glide_hbond>  (251) 
-0.0764751

>  <r_i_glide_metal>  (251) 
-0

>  <r_i_glide_rewards>  (251) 
-1.02822

>  <r_i_glide_evdw>  (251) 
-32.3124

>  <r_i_glide_ecoul>  (251) 
-3.01961

>  <r_i_glide_erotb>  (251) 
0.283928

>  <r_i_glide_esite>  (251) 
-0.059113

>  <r_i_glide_emodel>  (251) 
-41.2254

>  <r_i_glide_energy>  (251) 
-35.332

>  <r_i_glide_einternal>  (251) 
2.93394

>  <r_i_glide_intrahb_reward>  (251) 
-0

>  <i_i_glide_confnum>  (251) 
1

>  <i_i_glide_posenum>  (251) 
35

>  <r_i_glide_eff_state_penalty>  (251) 
0

>  <ligand_id>  (251) 
82

>  <original_smiles>  (251) 
CC1CCC2C(C)C(NC3CNOC3=O)OC3OC4(C)CCC1C32OO4

>  <smiles>  (251) 
[H]N1OC(=O)C([H])(N([H])C2([H])OC3([H])OC4(C([H])([H])[H])OOC35C([H])(C([H])([H])C([H])([H])C([H])(C([H])([H])[H])C5([H])C([H])([H])C4([H])[H])C2([H])C([H])([H])[H])C1([H])[H]

$$$$
82:0:1
     RDKit          3D

 54 58  0  0  1  0  0  0  0  0999 V2000
    0.0539   -6.5067    4.2381 C   0  0  0  0  0  0  0  0  0  0  0  0
    1.2285   -5.9637    3.4004 C   0  0  2  0  0  0  0  0  0  0  0  0
    2.2986   -7.0721    3.2495 C   0  0  0  0  0  0  0  0  0  0  0  0
    3.6795   -6.5602    2.8029 C   0  0  0  0  0  0  0  0  0  0  0  0
    3.5355   -5.2339    2.0432 C   0  0  2  0  0  0  0  0  0  0  0  0
    4.7975   -4.7736    1.2922 C   0  0  1  0  0  0  0  0  0  0  0  0
    5.3954   -5.8172    0.3289 C   0  0  0  0  0  0  0  0  0  0  0  0
    4.4109   -3.5122    0.4887 C   0  0  1  0  0  0  0  0  0  0  0  0
    3.5265   -3.7172   -0.6407 N   0  0  0  0  0  0  0  0  0  0  0  0
    3.4076   -2.5781   -1.5631 C   0  0  2  0  0  0  0  0  0  0  0  0
    2.3750   -2.8677   -2.6418 C   0  0  0  0  0  0  0  0  0  0  0  0
    3.1392   -3.3951   -3.7511 N   0  0  0  0  0  0  0  0  0  0  0  0
    4.4265   -2.7459   -3.6325 O   0  0  0  0  0  0  0  0  0  0  0  0
    4.6499   -2.3008   -2.3877 C   0  0  0  0  0  0  0  0  0  0  0  0
    5.6859   -1.7736   -1.9843 O   0  0  0  0  0  0  0  0  0  0  0  0
    3.9311   -2.5485    1.3896 O   0  0  0  0  0  0  0  0  0  0  0  0
    2.7597   -2.8798    2.0959 C   0  0  2  0  0  0  0  0  0  0  0  0
    2.3686   -1.7625    2.8285 O   0  0  0  0  0  0  0  0  0  0  0  0
    2.6855   -1.7549    4.2065 C   0  0  1  0  0  0  0  0  0  0  0  0
    2.9322   -0.2843    4.5883 C   0  0  0  0  0  0  0  0  0  0  0  0
    1.4746   -2.3212    4.9655 C   0  0  0  0  0  0  0  0  0  0  0  0
    0.8421   -3.5430    4.2898 C   0  0  0  0  0  0  0  0  0  0  0  0
    1.8566   -4.6280    3.9092 C   0  0  2  0  0  0  0  0  0  0  0  0
    3.0468   -4.1201    3.0058 C   0  0  1  0  0  0  0  0  0  0  0  0
    4.1013   -3.7786    3.8959 O   0  0  0  0  0  0  0  0  0  0  0  0
    3.9189   -2.4020    4.5399 O   0  0  0  0  0  0  0  0  0  0  0  0
    0.3409   -6.6517    5.2801 H   0  0  0  0  0  0  0  0  0  0  0  0
   -0.2760   -7.4721    3.8519 H   0  0  0  0  0  0  0  0  0  0  0  0
   -0.8141   -5.8505    4.2110 H   0  0  0  0  0  0  0  0  0  0  0  0
    0.8283   -5.7644    2.4073 H   0  0  0  0  0  0  0  0  0  0  0  0
    2.4154   -7.6278    4.1830 H   0  0  0  0  0  0  0  0  0  0  0  0
    1.9389   -7.7947    2.5144 H   0  0  0  0  0  0  0  0  0  0  0  0
    4.3252   -6.4136    3.6707 H   0  0  0  0  0  0  0  0  0  0  0  0
    4.1485   -7.3285    2.1899 H   0  0  0  0  0  0  0  0  0  0  0  0
    2.7756   -5.3949    1.2761 H   0  0  0  0  0  0  0  0  0  0  0  0
    5.5744   -4.4827    2.0007 H   0  0  0  0  0  0  0  0  0  0  0  0
    4.6397   -6.2225   -0.3498 H   0  0  0  0  0  0  0  0  0  0  0  0
    5.8418   -6.6528    0.8713 H   0  0  0  0  0  0  0  0  0  0  0  0
    6.1857   -5.3758   -0.2831 H   0  0  0  0  0  0  0  0  0  0  0  0
    5.3555   -3.0925    0.1316 H   0  0  0  0  0  0  0  0  0  0  0  0
    3.7709   -4.5523   -1.1625 H   0  0  0  0  0  0  0  0  0  0  0  0
    3.1132   -1.6874   -1.0026 H   0  0  0  0  0  0  0  0  0  0  0  0
    1.5931   -3.5560   -2.3253 H   0  0  0  0  0  0  0  0  0  0  0  0
    1.8900   -1.9457   -2.9537 H   0  0  0  0  0  0  0  0  0  0  0  0
    2.7234   -3.0611   -4.6081 H   0  0  0  0  0  0  0  0  0  0  0  0
    1.9602   -3.0717    1.3810 H   0  0  0  0  0  0  0  0  0  0  0  0
    3.7942    0.1110    4.0470 H   0  0  0  0  0  0  0  0  0  0  0  0
    3.1367   -0.1824    5.6552 H   0  0  0  0  0  0  0  0  0  0  0  0
    2.0764    0.3490    4.3473 H   0  0  0  0  0  0  0  0  0  0  0  0
    1.7565   -2.5401    5.9936 H   0  0  0  0  0  0  0  0  0  0  0  0
    0.7020   -1.5538    5.0208 H   0  0  0  0  0  0  0  0  0  0  0  0
    0.1077   -3.9430    4.9843 H   0  0  0  0  0  0  0  0  0  0  0  0
    0.2845   -3.2348    3.4055 H   0  0  0  0  0  0  0  0  0  0  0  0
    2.3220   -4.9109    4.8535 H   0  0  0  0  0  0  0  0  0  0  0  0
  1  2  1  0
  1 27  1  0
  1 28  1  0
  1 29  1  0
  2 23  1  0
  2  3  1  0
  2 30  1  6
  3  4  1  0
  3 31  1  0
  3 32  1  0
  4  5  1  0
  4 33  1  0
  4 34  1  0
  5 24  1  0
  5  6  1  0
  5 35  1  6
  6  7  1  0
  6  8  1  0
  6 36  1  1
  7 37  1  0
  7 38  1  0
  7 39  1  0
  8  9  1  0
  8 16  1  0
  8 40  1  6
  9 10  1  0
  9 41  1  0
 10 14  1  0
 10 11  1  0
 10 42  1  1
 11 12  1  0
 11 43  1  0
 11 44  1  0
 12 13  1  0
 12 45  1  0
 13 14  1  0
 14 15  2  0
 16 17  1  0
 17 24  1  0
 17 18  1  0
 17 46  1  6
 18 19  1  0
 19 26  1  0
 19 20  1  1
 19 21  1  0
 20 47  1  0
 20 48  1  0
 20 49  1  0
 21 22  1  0
 21 50  1  0
 21 51  1  0
 22 23  1  0
 22 52  1  0
 22 53  1  0
 23 24  1  0
 23 54  1  1
 24 25  1  1
 25 26  1  0
M  END
>  <i_m_ct_stereo_status>  (252) 
1

>  <s_m_source_file>  (252) 
/var/tmp/pbs.5076255.sched01/tmpelb551ou/82hj6rxffr.sdf

>  <i_m_source_file_index>  (252) 
30

>  <i_lp_mmshare_version>  (252) 
48012

>  <i_f3d_flags>  (252) 
0

>  <s_epik_input>  (252) 
W0NAXTEyM1tDQEBIXTRbQ0gyXVtDSDJdW0NAQEhdKFtDSDNdKVtDQEBIXTJbQ0gyXVtDSDJdW0NAQF0oW0NIM10pKE9PMylPW0NASF0xT1tDQEBIXShbQ0BASF00W0NIM10pW05IXVtDQEBIXTVbQ0gyXVtOSF1PQzU9Tw==

>  <s_epik_cmdline>  (252) 
J2VwaWtfcHl0aG9uJywgJy1waHQnLCAnMi4wJywgJy1waCcsICc3LjAnLCAnLXRuJywgJzgnLCAnLW1hJywgJzIwMCcsICctaW1hZScsICc8aW5maWxlLm1hZT4nLCAnLW9tYWUnLCAnPG91dGZpbGUubWFlPic=

>  <r_epik_Ionization_Penalty>  (252) 
0.00306806

>  <r_epik_Ionization_Penalty_Charging>  (252) 
0

>  <r_epik_Ionization_Penalty_Neutral>  (252) 
0.00306806

>  <r_epik_State_Penalty>  (252) 
0.00210808

>  <r_epik_Charging_Adjusted_Penalty>  (252) 
0.00210808

>  <i_epik_Tot_Q>  (252) 
0

>  <i_epik_Tot_abs_Q>  (252) 
0

>  <s_epik_Chemistry_Notes>  (252) 
This compound contains an acetal/aminal-like group ( X-CH(R)-Y where X, Y are N, S, or O) that may be acid/base labile, releasing an aldehyde. This compound has a N-S or N-O group and may undergo hydrolysis at high or low pH.

>  <s_lp_Force_Field>  (252) 
OPLS3e

>  <r_lp_Energy>  (252) 
40.1068

>  <b_lp_Chiralities_Consistent>  (252) 
1

>  <s_lp_Variant>  (252) 
82:0-1

>  <s_i_glide_gridfile>  (252) 
pfpi4k_grid

>  <i_i_glide_lignum>  (252) 
30

>  <i_i_glide_rotatable_bonds>  (252) 
2

>  <r_i_docking_score>  (252) 
-2.97552

>  <r_i_glide_ligand_efficiency>  (252) 
-0.114443

>  <r_i_glide_ligand_efficiency_sa>  (252) 
-0.339037

>  <r_i_glide_ligand_efficiency_ln>  (252) 
-0.698791

>  <r_i_glide_gscore>  (252) 
-2.97552

>  <r_i_glide_lipo>  (252) 
-0.167165

>  <r_i_glide_hbond>  (252) 
-0.15939

>  <r_i_glide_metal>  (252) 
-0

>  <r_i_glide_rewards>  (252) 
-1.04846

>  <r_i_glide_evdw>  (252) 
-26.1281

>  <r_i_glide_ecoul>  (252) 
-3.80892

>  <r_i_glide_erotb>  (252) 
0.283928

>  <r_i_glide_esite>  (252) 
-0.00669246

>  <r_i_glide_emodel>  (252) 
-36.8027

>  <r_i_glide_energy>  (252) 
-29.937

>  <r_i_glide_einternal>  (252) 
0.136001

>  <r_i_glide_intrahb_reward>  (252) 
-0

>  <i_i_glide_confnum>  (252) 
5

>  <i_i_glide_posenum>  (252) 
2

>  <r_i_glide_eff_state_penalty>  (252) 
0

>  <ligand_id>  (252) 
82

>  <original_smiles>  (252) 
CC1CCC2C(C)C(NC3CNOC3=O)OC3OC4(C)CCC1C32OO4

>  <smiles>  (252) 
[H]N1OC(=O)C([H])(N([H])C2([H])OC3([H])OC4(C([H])([H])[H])OOC35C([H])(C([H])([H])C([H])([H])C([H])(C([H])([H])[H])C5([H])C([H])([H])C4([H])[H])C2([H])C([H])([H])[H])C1([H])[H]

$$$$
82:0:2
     RDKit          3D

 54 58  0  0  1  0  0  0  0  0999 V2000
    2.3708   -9.5176    2.1322 C   0  0  0  0  0  0  0  0  0  0  0  0
    3.0038   -8.1440    1.8576 C   0  0  2  0  0  0  0  0  0  0  0  0
    4.5075   -8.3239    1.5451 C   0  0  0  0  0  0  0  0  0  0  0  0
    5.3295   -7.0287    1.6613 C   0  0  0  0  0  0  0  0  0  0  0  0
    4.4322   -5.8074    1.4462 C   0  0  2  0  0  0  0  0  0  0  0  0
    5.1822   -4.4790    1.2415 C   0  0  1  0  0  0  0  0  0  0  0  0
    6.2558   -4.5179    0.1401 C   0  0  0  0  0  0  0  0  0  0  0  0
    4.1172   -3.4181    0.8821 C   0  0  1  0  0  0  0  0  0  0  0  0
    3.4724   -3.5373   -0.4122 N   0  0  0  0  0  0  0  0  0  0  0  0
    3.5112   -2.3401   -1.2691 C   0  0  2  0  0  0  0  0  0  0  0  0
    2.6344   -2.5400   -2.4963 C   0  0  0  0  0  0  0  0  0  0  0  0
    3.5190   -3.0863   -3.4894 N   0  0  0  0  0  0  0  0  0  0  0  0
    4.8184   -2.5321   -3.1738 O   0  0  0  0  0  0  0  0  0  0  0  0
    4.8580   -2.0599   -1.9192 C   0  0  0  0  0  0  0  0  0  0  0  0
    5.8233   -1.4996   -1.4018 O   0  0  0  0  0  0  0  0  0  0  0  0
    3.1904   -3.3551    1.9390 O   0  0  0  0  0  0  0  0  0  0  0  0
    2.4537   -4.5294    2.1960 C   0  0  2  0  0  0  0  0  0  0  0  0
    1.5089   -4.2429    3.1824 O   0  0  0  0  0  0  0  0  0  0  0  0
    1.8047   -4.6789    4.4965 C   0  0  1  0  0  0  0  0  0  0  0  0
    1.1752   -3.6484    5.4460 C   0  0  0  0  0  0  0  0  0  0  0  0
    1.1644   -6.0613    4.6832 C   0  0  0  0  0  0  0  0  0  0  0  0
    1.3213   -6.9819    3.4719 C   0  0  0  0  0  0  0  0  0  0  0  0
    2.7666   -7.0683    2.9595 C   0  0  2  0  0  0  0  0  0  0  0  0
    3.4245   -5.6774    2.6195 C   0  0  1  0  0  0  0  0  0  0  0  0
    4.1206   -5.2646    3.7879 O   0  0  0  0  0  0  0  0  0  0  0  0
    3.1947   -4.6354    4.8356 O   0  0  0  0  0  0  0  0  0  0  0  0
    2.7278   -9.9303    3.0783 H   0  0  0  0  0  0  0  0  0  0  0  0
    2.6473  -10.2198    1.3426 H   0  0  0  0  0  0  0  0  0  0  0  0
    1.2806   -9.4729    2.1562 H   0  0  0  0  0  0  0  0  0  0  0  0
    2.5279   -7.7677    0.9549 H   0  0  0  0  0  0  0  0  0  0  0  0
    4.9440   -9.0759    2.2047 H   0  0  0  0  0  0  0  0  0  0  0  0
    4.5991   -8.7219    0.5293 H   0  0  0  0  0  0  0  0  0  0  0  0
    5.8067   -6.9626    2.6439 H   0  0  0  0  0  0  0  0  0  0  0  0
    6.1288   -7.0828    0.9271 H   0  0  0  0  0  0  0  0  0  0  0  0
    3.8735   -5.9853    0.5244 H   0  0  0  0  0  0  0  0  0  0  0  0
    5.6611   -4.1667    2.1681 H   0  0  0  0  0  0  0  0  0  0  0  0
    5.8165   -4.8674   -0.7952 H   0  0  0  0  0  0  0  0  0  0  0  0
    7.0619   -5.2074    0.3924 H   0  0  0  0  0  0  0  0  0  0  0  0
    6.6867   -3.5308   -0.0335 H   0  0  0  0  0  0  0  0  0  0  0  0
    4.6055   -2.4357    0.9356 H   0  0  0  0  0  0  0  0  0  0  0  0
    3.7663   -4.3671   -0.9173 H   0  0  0  0  0  0  0  0  0  0  0  0
    3.1690   -1.4720   -0.6988 H   0  0  0  0  0  0  0  0  0  0  0  0
    1.7719   -3.1734   -2.3236 H   0  0  0  0  0  0  0  0  0  0  0  0
    2.2708   -1.5772   -2.8378 H   0  0  0  0  0  0  0  0  0  0  0  0
    3.2551   -2.6922   -4.3801 H   0  0  0  0  0  0  0  0  0  0  0  0
    1.8991   -4.7923    1.2944 H   0  0  0  0  0  0  0  0  0  0  0  0
    1.6374   -2.6693    5.3043 H   0  0  0  0  0  0  0  0  0  0  0  0
    1.3193   -3.9412    6.4877 H   0  0  0  0  0  0  0  0  0  0  0  0
    0.1029   -3.5404    5.2701 H   0  0  0  0  0  0  0  0  0  0  0  0
    1.5552   -6.5254    5.5858 H   0  0  0  0  0  0  0  0  0  0  0  0
    0.0953   -5.9354    4.8542 H   0  0  0  0  0  0  0  0  0  0  0  0
    0.9775   -7.9649    3.7790 H   0  0  0  0  0  0  0  0  0  0  0  0
    0.6624   -6.6741    2.6616 H   0  0  0  0  0  0  0  0  0  0  0  0
    3.3344   -7.4431    3.8081 H   0  0  0  0  0  0  0  0  0  0  0  0
  1  2  1  0
  1 27  1  0
  1 28  1  0
  1 29  1  0
  2 23  1  0
  2  3  1  0
  2 30  1  6
  3  4  1  0
  3 31  1  0
  3 32  1  0
  4  5  1  0
  4 33  1  0
  4 34  1  0
  5 24  1  0
  5  6  1  0
  5 35  1  6
  6  7  1  0
  6  8  1  0
  6 36  1  1
  7 37  1  0
  7 38  1  0
  7 39  1  0
  8  9  1  0
  8 16  1  0
  8 40  1  6
  9 10  1  0
  9 41  1  0
 10 14  1  0
 10 11  1  0
 10 42  1  1
 11 12  1  0
 11 43  1  0
 11 44  1  0
 12 13  1  0
 12 45  1  0
 13 14  1  0
 14 15  2  0
 16 17  1  0
 17 24  1  0
 17 18  1  0
 17 46  1  6
 18 19  1  0
 19 26  1  0
 19 20  1  1
 19 21  1  0
 20 47  1  0
 20 48  1  0
 20 49  1  0
 21 22  1  0
 21 50  1  0
 21 51  1  0
 22 23  1  0
 22 52  1  0
 22 53  1  0
 23 24  1  0
 23 54  1  1
 24 25  1  1
 25 26  1  0
M  END
>  <i_m_ct_stereo_status>  (253) 
1

>  <s_m_source_file>  (253) 
/var/tmp/pbs.5076255.sched01/tmpelb551ou/82hj6rxffr.sdf

>  <i_m_source_file_index>  (253) 
30

>  <i_lp_mmshare_version>  (253) 
48012

>  <i_f3d_flags>  (253) 
0

>  <s_epik_input>  (253) 
W0NAXTEyM1tDQEBIXTRbQ0gyXVtDSDJdW0NAQEhdKFtDSDNdKVtDQEBIXTJbQ0gyXVtDSDJdW0NAQF0oW0NIM10pKE9PMylPW0NASF0xT1tDQEBIXShbQ0BASF00W0NIM10pW05IXVtDQEBIXTVbQ0gyXVtOSF1PQzU9Tw==

>  <s_epik_cmdline>  (253) 
J2VwaWtfcHl0aG9uJywgJy1waHQnLCAnMi4wJywgJy1waCcsICc3LjAnLCAnLXRuJywgJzgnLCAnLW1hJywgJzIwMCcsICctaW1hZScsICc8aW5maWxlLm1hZT4nLCAnLW9tYWUnLCAnPG91dGZpbGUubWFlPic=

>  <r_epik_Ionization_Penalty>  (253) 
0.00306806

>  <r_epik_Ionization_Penalty_Charging>  (253) 
0

>  <r_epik_Ionization_Penalty_Neutral>  (253) 
0.00306806

>  <r_epik_State_Penalty>  (253) 
0.00210808

>  <r_epik_Charging_Adjusted_Penalty>  (253) 
0.00210808

>  <i_epik_Tot_Q>  (253) 
0

>  <i_epik_Tot_abs_Q>  (253) 
0

>  <s_epik_Chemistry_Notes>  (253) 
This compound contains an acetal/aminal-like group ( X-CH(R)-Y where X, Y are N, S, or O) that may be acid/base labile, releasing an aldehyde. This compound has a N-S or N-O group and may undergo hydrolysis at high or low pH.

>  <s_lp_Force_Field>  (253) 
OPLS3e

>  <r_lp_Energy>  (253) 
40.1068

>  <b_lp_Chiralities_Consistent>  (253) 
1

>  <s_lp_Variant>  (253) 
82:0-1

>  <s_i_glide_gridfile>  (253) 
pfpi4k_grid

>  <i_i_glide_lignum>  (253) 
30

>  <i_i_glide_rotatable_bonds>  (253) 
2

>  <r_i_docking_score>  (253) 
-2.55978

>  <r_i_glide_ligand_efficiency>  (253) 
-0.098453

>  <r_i_glide_ligand_efficiency_sa>  (253) 
-0.291667

>  <r_i_glide_ligand_efficiency_ln>  (253) 
-0.601156

>  <r_i_glide_gscore>  (253) 
-2.55978

>  <r_i_glide_lipo>  (253) 
-0.268718

>  <r_i_glide_hbond>  (253) 
-0.0749569

>  <r_i_glide_metal>  (253) 
-0

>  <r_i_glide_rewards>  (253) 
-0.917732

>  <r_i_glide_evdw>  (253) 
-28.7506

>  <r_i_glide_ecoul>  (253) 
-0.795105

>  <r_i_glide_erotb>  (253) 
0.283928

>  <r_i_glide_esite>  (253) 
-0.0255035

>  <r_i_glide_emodel>  (253) 
-34.4174

>  <r_i_glide_energy>  (253) 
-29.5457

>  <r_i_glide_einternal>  (253) 
1.78773

>  <r_i_glide_intrahb_reward>  (253) 
-0

>  <i_i_glide_confnum>  (253) 
1

>  <i_i_glide_posenum>  (253) 
10

>  <r_i_glide_eff_state_penalty>  (253) 
0

>  <ligand_id>  (253) 
82

>  <original_smiles>  (253) 
CC1CCC2C(C)C(NC3CNOC3=O)OC3OC4(C)CCC1C32OO4

>  <smiles>  (253) 
[H]N1OC(=O)C([H])(N([H])C2([H])OC3([H])OC4(C([H])([H])[H])OOC35C([H])(C([H])([H])C([H])([H])C([H])(C([H])([H])[H])C5([H])C([H])([H])C4([H])[H])C2([H])C([H])([H])[H])C1([H])[H]

$$$$
83:0:0
     RDKit          3D

 96101  0  0  1  0  0  0  0  0999 V2000
   -2.3608    3.5960    3.0282 C   0  0  0  0  0  0  0  0  0  0  0  0
   -2.0111    2.6653    4.2093 C   0  0  2  0  0  0  0  0  0  0  0  0
   -2.0876    3.4715    5.5090 C   0  0  0  0  0  0  0  0  0  0  0  0
   -1.5721    2.6948    6.7112 C   0  0  0  0  0  0  0  0  0  0  0  0
   -0.1124    2.2367    6.5303 C   0  0  1  0  0  0  0  0  0  0  0  0
    0.7912    3.4876    6.3625 C   0  0  0  0  0  0  0  0  0  0  0  0
    0.2854    1.4215    7.7965 C   0  0  0  0  0  0  0  0  0  0  0  0
    0.9906    0.0650    7.5319 C   0  0  0  0  0  0  0  0  0  0  0  0
    2.0564    0.0895    6.3873 C   0  0  2  0  0  0  0  0  0  0  0  0
    3.2424    0.9613    6.9086 C   0  0  0  0  0  0  0  0  0  0  0  0
    1.4292    0.7542    5.1533 C   0  0  0  0  0  0  0  0  0  0  0  0
    2.1128    0.7019    4.0011 C   0  0  0  0  0  0  0  0  0  0  0  0
    3.3715   -0.1072    3.7871 C   0  0  0  0  0  0  0  0  0  0  0  0
    3.7466   -1.1952    4.8680 C   0  0  2  0  0  0  0  0  0  0  0  0
    4.2966   -2.5198    4.1711 C   0  0  1  0  0  0  0  0  0  0  0  0
    5.3309   -2.0071    3.1214 C   0  0  0  0  0  0  0  0  0  0  0  0
    5.0732   -3.4782    5.1146 C   0  0  0  0  0  0  0  0  0  0  0  0
    5.4771   -4.8239    4.4744 C   0  0  0  0  0  0  0  0  0  0  0  0
    4.3097   -5.6531    3.8649 C   0  0  2  0  0  0  0  0  0  0  0  0
    4.8154   -7.0334    3.2646 C   0  0  0  0  0  0  0  0  0  0  0  0
    5.7630   -7.7390    4.2754 C   0  0  0  0  0  0  0  0  0  0  0  0
    3.6495   -8.0419    3.0785 C   0  0  0  0  0  0  0  0  0  0  0  0
    5.6067   -6.7939    1.9478 C   0  0  1  0  0  0  0  0  0  0  0  0
    6.0063   -8.0181    1.3625 O   0  0  0  0  0  0  0  0  0  0  0  0
    4.9109   -5.8972    0.9093 C   0  0  1  0  0  0  0  0  0  0  0  0
    3.9695   -6.6254    0.1732 O   0  0  0  0  0  0  0  0  0  0  0  0
    4.3249   -4.6066    1.5428 C   0  0  1  0  0  0  0  0  0  0  0  0
    3.6231   -3.8743    0.5529 O   0  0  0  0  0  0  0  0  0  0  0  0
    3.4864   -4.7533    2.8706 C   0  0  1  0  0  0  0  0  0  0  0  0
    2.1187   -5.3986    2.4931 C   0  0  0  0  0  0  0  0  0  0  0  0
    3.1153   -3.3616    3.5684 C   0  0  1  0  0  0  0  0  0  0  0  0
    2.0295   -3.5404    4.6895 C   0  0  0  0  0  0  0  0  0  0  0  0
    1.5260   -2.2388    5.3454 C   0  0  0  0  0  0  0  0  0  0  0  0
    2.6270   -1.3446    5.9726 C   0  0  2  0  0  0  0  0  0  0  0  0
    3.2049   -2.0526    7.2446 C   0  0  0  0  0  0  0  0  0  0  0  0
   -0.0081    1.3224    5.2901 C   0  0  2  0  0  0  0  0  0  0  0  0
   -0.6572    1.9144    3.9872 C   0  0  1  0  0  0  0  0  0  0  0  0
   -0.9480    0.7875    2.9700 C   0  0  0  0  0  0  0  0  0  0  0  0
   -1.5927    4.3631    2.8880 H   0  0  0  0  0  0  0  0  0  0  0  0
   -3.3129    4.1034    3.1914 H   0  0  0  0  0  0  0  0  0  0  0  0
   -2.4549    3.0508    2.0900 H   0  0  0  0  0  0  0  0  0  0  0  0
   -2.8046    1.9341    4.2613 H   0  0  0  0  0  0  0  0  0  0  0  0
   -1.5685    4.4239    5.4051 H   0  0  0  0  0  0  0  0  0  0  0  0
   -3.1321    3.7251    5.7063 H   0  0  0  0  0  0  0  0  0  0  0  0
   -1.6711    3.2957    7.6144 H   0  0  0  0  0  0  0  0  0  0  0  0
   -2.2145    1.8241    6.8574 H   0  0  0  0  0  0  0  0  0  0  0  0
    1.8479    3.2426    6.2857 H   0  0  0  0  0  0  0  0  0  0  0  0
    0.6742    4.1852    7.1942 H   0  0  0  0  0  0  0  0  0  0  0  0
    0.5693    4.0323    5.4478 H   0  0  0  0  0  0  0  0  0  0  0  0
    0.9201    2.0474    8.4329 H   0  0  0  0  0  0  0  0  0  0  0  0
   -0.5884    1.2365    8.4224 H   0  0  0  0  0  0  0  0  0  0  0  0
    1.4217   -0.2249    8.4908 H   0  0  0  0  0  0  0  0  0  0  0  0
    0.2323   -0.6851    7.3105 H   0  0  0  0  0  0  0  0  0  0  0  0
    3.8843    0.4256    7.6124 H   0  0  0  0  0  0  0  0  0  0  0  0
    2.9215    1.8461    7.4527 H   0  0  0  0  0  0  0  0  0  0  0  0
    3.8892    1.3160    6.1066 H   0  0  0  0  0  0  0  0  0  0  0  0
    1.7411    1.1797    3.1057 H   0  0  0  0  0  0  0  0  0  0  0  0
    3.1919   -0.5779    2.8248 H   0  0  0  0  0  0  0  0  0  0  0  0
    4.1996    0.5973    3.6431 H   0  0  0  0  0  0  0  0  0  0  0  0
    4.6125   -0.7747    5.3827 H   0  0  0  0  0  0  0  0  0  0  0  0
    6.1648   -2.6803    2.9417 H   0  0  0  0  0  0  0  0  0  0  0  0
    5.8228   -1.0977    3.4567 H   0  0  0  0  0  0  0  0  0  0  0  0
    4.8782   -1.7921    2.1521 H   0  0  0  0  0  0  0  0  0  0  0  0
    5.9519   -2.9831    5.5259 H   0  0  0  0  0  0  0  0  0  0  0  0
    4.4807   -3.7740    5.9724 H   0  0  0  0  0  0  0  0  0  0  0  0
    6.2468   -4.6568    3.7305 H   0  0  0  0  0  0  0  0  0  0  0  0
    5.9622   -5.3880    5.2751 H   0  0  0  0  0  0  0  0  0  0  0  0
    3.6656   -5.9048    4.7046 H   0  0  0  0  0  0  0  0  0  0  0  0
    5.9790   -8.7653    3.9771 H   0  0  0  0  0  0  0  0  0  0  0  0
    5.3278   -7.7734    5.2772 H   0  0  0  0  0  0  0  0  0  0  0  0
    6.7328   -7.2401    4.3367 H   0  0  0  0  0  0  0  0  0  0  0  0
    3.9977   -9.0796    3.0434 H   0  0  0  0  0  0  0  0  0  0  0  0
    3.1045   -7.9129    2.1505 H   0  0  0  0  0  0  0  0  0  0  0  0
    2.9253   -7.9878    3.8958 H   0  0  0  0  0  0  0  0  0  0  0  0
    6.5361   -6.2830    2.2147 H   0  0  0  0  0  0  0  0  0  0  0  0
    5.2252   -8.5113    1.1659 H   0  0  0  0  0  0  0  0  0  0  0  0
    5.6605   -5.5992    0.1799 H   0  0  0  0  0  0  0  0  0  0  0  0
    3.7115   -6.1182   -0.5950 H   0  0  0  0  0  0  0  0  0  0  0  0
    5.2155   -4.0504    1.7503 H   0  0  0  0  0  0  0  0  0  0  0  0
    4.1955   -3.7171   -0.1840 H   0  0  0  0  0  0  0  0  0  0  0  0
    1.4199   -4.6411    2.1574 H   0  0  0  0  0  0  0  0  0  0  0  0
    1.6724   -5.9283    3.3356 H   0  0  0  0  0  0  0  0  0  0  0  0
    2.1562   -6.1043    1.6702 H   0  0  0  0  0  0  0  0  0  0  0  0
    2.6386   -2.7555    2.7988 H   0  0  0  0  0  0  0  0  0  0  0  0
    1.1266   -4.0077    4.3061 H   0  0  0  0  0  0  0  0  0  0  0  0
    2.3787   -4.2191    5.4642 H   0  0  0  0  0  0  0  0  0  0  0  0
    0.9782   -1.7024    4.5731 H   0  0  0  0  0  0  0  0  0  0  0  0
    0.7867   -2.4962    6.1056 H   0  0  0  0  0  0  0  0  0  0  0  0
    2.9710   -3.1116    7.2800 H   0  0  0  0  0  0  0  0  0  0  0  0
    2.8268   -1.6749    8.1884 H   0  0  0  0  0  0  0  0  0  0  0  0
    4.2892   -1.9400    7.3181 H   0  0  0  0  0  0  0  0  0  0  0  0
   -0.6298    0.4537    5.5079 H   0  0  0  0  0  0  0  0  0  0  0  0
    0.0422    2.6260    3.5468 H   0  0  0  0  0  0  0  0  0  0  0  0
   -1.7411    0.1392    3.3436 H   0  0  0  0  0  0  0  0  0  0  0  0
   -0.1048    0.1265    2.7772 H   0  0  0  0  0  0  0  0  0  0  0  0
   -1.2708    1.1743    2.0035 H   0  0  0  0  0  0  0  0  0  0  0  0
  1  2  1  0
  1 39  1  0
  1 40  1  0
  1 41  1  0
  2 37  1  0
  2  3  1  0
  2 42  1  1
  3  4  1  0
  3 43  1  0
  3 44  1  0
  4  5  1  0
  4 45  1  0
  4 46  1  0
  5 36  1  0
  5  6  1  6
  5  7  1  0
  6 47  1  0
  6 48  1  0
  6 49  1  0
  7  8  1  0
  7 50  1  0
  7 51  1  0
  8  9  1  0
  8 52  1  0
  8 53  1  0
  9 34  1  0
  9 10  1  1
  9 11  1  0
 10 54  1  0
 10 55  1  0
 10 56  1  0
 11 12  2  0
 11 36  1  0
 12 13  1  0
 12 57  1  0
 13 14  1  0
 13 58  1  0
 13 59  1  0
 14 34  1  0
 14 15  1  0
 14 60  1  1
 15 31  1  0
 15 16  1  6
 15 17  1  0
 16 61  1  0
 16 62  1  0
 16 63  1  0
 17 18  1  0
 17 64  1  0
 17 65  1  0
 18 19  1  0
 18 66  1  0
 18 67  1  0
 19 29  1  0
 19 20  1  0
 19 68  1  1
 20 21  1  0
 20 22  1  0
 20 23  1  0
 21 69  1  0
 21 70  1  0
 21 71  1  0
 22 72  1  0
 22 73  1  0
 22 74  1  0
 23 24  1  0
 23 25  1  0
 23 75  1  1
 24 76  1  0
 25 26  1  0
 25 27  1  0
 25 77  1  6
 26 78  1  0
 27 28  1  0
 27 29  1  0
 27 79  1  1
 28 80  1  0
 29 30  1  6
 29 31  1  0
 30 81  1  0
 30 82  1  0
 30 83  1  0
 31 32  1  0
 31 84  1  6
 32 33  1  0
 32 85  1  0
 32 86  1  0
 33 34  1  0
 33 87  1  0
 33 88  1  0
 34 35  1  1
 35 89  1  0
 35 90  1  0
 35 91  1  0
 36 37  1  0
 36 92  1  1
 37 38  1  0
 37 93  1  6
 38 94  1  0
 38 95  1  0
 38 96  1  0
M  END
>  <i_m_ct_stereo_status>  (254) 
1

>  <s_m_source_file>  (254) 
/var/tmp/pbs.5076255.sched01/tmpelb551ou/82hj6rxffr.sdf

>  <i_m_source_file_index>  (254) 
31

>  <i_lp_mmshare_version>  (254) 
48012

>  <i_f3d_flags>  (254) 
0

>  <s_epik_input>  (254) 
W0NIMl0xW0NIMl1bQ0BASF0oW0NIM10pW0NASF0oW0NIM10pW0NASF0oW0NAQF0xMltDSDNdKUM9M1tDQEBdKFtDSDNdKShbQ0gyXVtDSDJdMilbQ0BdNChbQ0gzXSlbQ0BIXShbQ0gyXVtDSF0zKVtDQF01KFtDSDNdKVtDQEhdKFtDSDJdW0NIMl00KVtDQF02KFtDSDNdKVtDQEhdKFtDSDJdW0NIMl01KUMoW0NIM10pKFtDSDNdKVtDQEBIXShbT0hdKVtDQEBIXShbT0hdKVtDQEhdNltPSF0=

>  <s_epik_cmdline>  (254) 
J2VwaWtfcHl0aG9uJywgJy1waHQnLCAnMi4wJywgJy1waCcsICc3LjAnLCAnLXRuJywgJzgnLCAnLW1hJywgJzIwMCcsICctaW1hZScsICc8aW5maWxlLm1hZT4nLCAnLW9tYWUnLCAnPG91dGZpbGUubWFlPic=

>  <r_lp_tautomer_probability>  (254) 
1

>  <r_epik_Ionization_Penalty>  (254) 
9.87828e-07

>  <r_epik_Ionization_Penalty_Charging>  (254) 
0

>  <r_epik_Ionization_Penalty_Neutral>  (254) 
9.87828e-07

>  <r_epik_State_Penalty>  (254) 
-0

>  <r_epik_Charging_Adjusted_Penalty>  (254) 
0

>  <i_epik_Tot_Q>  (254) 
0

>  <i_epik_Tot_abs_Q>  (254) 
0

>  <s_lp_Force_Field>  (254) 
OPLS3e

>  <r_lp_Energy>  (254) 
131.341

>  <b_lp_Chiralities_Consistent>  (254) 
1

>  <s_lp_Variant>  (254) 
83:0-1

>  <s_i_glide_gridfile>  (254) 
pfpi4k_grid

>  <i_i_glide_lignum>  (254) 
31

>  <i_i_glide_rotatable_bonds>  (254) 
3

>  <r_i_docking_score>  (254) 
-1.94303

>  <r_i_glide_ligand_efficiency>  (254) 
-0.0511325

>  <r_i_glide_ligand_efficiency_sa>  (254) 
-0.171906

>  <r_i_glide_ligand_efficiency_ln>  (254) 
-0.418975

>  <r_i_glide_gscore>  (254) 
-1.94303

>  <r_i_glide_lipo>  (254) 
-0.292602

>  <r_i_glide_hbond>  (254) 
0

>  <r_i_glide_metal>  (254) 
-0

>  <r_i_glide_rewards>  (254) 
0

>  <r_i_glide_evdw>  (254) 
-26.2845

>  <r_i_glide_ecoul>  (254) 
-2.24137

>  <r_i_glide_erotb>  (254) 
0

>  <r_i_glide_esite>  (254) 
0

>  <r_i_glide_emodel>  (254) 
-31.3657

>  <r_i_glide_energy>  (254) 
-28.5259

>  <r_i_glide_einternal>  (254) 
0.83665

>  <r_i_glide_intrahb_reward>  (254) 
-0

>  <i_i_glide_confnum>  (254) 
2

>  <i_i_glide_posenum>  (254) 
15

>  <r_i_glide_eff_state_penalty>  (254) 
0

>  <ligand_id>  (254) 
83

>  <original_smiles>  (254) 
CC1CCC2(C)CCC3(C)C(=CCC4C5(C)CCC6C(C)(C)C(O)C(O)C(O)C6(C)C5CCC43C)C2C1C

>  <smiles>  (254) 
[H]OC1([H])C([H])(O[H])C(C([H])([H])[H])(C([H])([H])[H])C2([H])C([H])([H])C([H])([H])C3(C([H])([H])[H])C([H])(C([H])([H])C([H])([H])C4(C([H])([H])[H])C3([H])C([H])([H])C([H])=C3C5([H])C([H])(C([H])([H])[H])C([H])(C([H])([H])[H])C([H])([H])C([H])([H])C5(C([H])([H])[H])C([H])([H])C([H])([H])C34C([H])([H])[H])C2(C([H])([H])[H])C1([H])O[H]

$$$$
83:0:1
     RDKit          3D

 96101  0  0  1  0  0  0  0  0999 V2000
   -2.3146    3.7002    3.0701 C   0  0  0  0  0  0  0  0  0  0  0  0
   -2.0876    2.6830    4.2038 C   0  0  2  0  0  0  0  0  0  0  0  0
   -2.2921    3.3852    5.5542 C   0  0  0  0  0  0  0  0  0  0  0  0
   -1.8951    2.5105    6.7367 C   0  0  0  0  0  0  0  0  0  0  0  0
   -0.4255    2.0597    6.6642 C   0  0  1  0  0  0  0  0  0  0  0  0
    0.4965    3.3100    6.6782 C   0  0  0  0  0  0  0  0  0  0  0  0
   -0.1478    1.1556    7.9043 C   0  0  0  0  0  0  0  0  0  0  0  0
    0.5659   -0.1919    7.6046 C   0  0  0  0  0  0  0  0  0  0  0  0
    1.7426   -0.0947    6.5777 C   0  0  2  0  0  0  0  0  0  0  0  0
    2.8761    0.7267    7.2720 C   0  0  0  0  0  0  0  0  0  0  0  0
    1.2362    0.6648    5.3370 C   0  0  0  0  0  0  0  0  0  0  0  0
    2.0333    0.6972    4.2521 C   0  0  0  0  0  0  0  0  0  0  0  0
    3.3059   -0.1046    4.1021 C   0  0  0  0  0  0  0  0  0  0  0  0
    3.5661   -1.2741    5.1280 C   0  0  2  0  0  0  0  0  0  0  0  0
    4.1812   -2.5528    4.3921 C   0  0  1  0  0  0  0  0  0  0  0  0
    5.3083   -1.9752    3.4845 C   0  0  0  0  0  0  0  0  0  0  0  0
    4.8611   -3.5904    5.3328 C   0  0  0  0  0  0  0  0  0  0  0  0
    5.3353   -4.8817    4.6340 C   0  0  0  0  0  0  0  0  0  0  0  0
    4.2244   -5.6514    3.8479 C   0  0  2  0  0  0  0  0  0  0  0  0
    4.7679   -6.9952    3.2069 C   0  0  0  0  0  0  0  0  0  0  0  0
    5.6168   -7.7804    4.2437 C   0  0  0  0  0  0  0  0  0  0  0  0
    3.6202   -7.9722    2.8239 C   0  0  0  0  0  0  0  0  0  0  0  0
    5.6781   -6.6617    1.9872 C   0  0  1  0  0  0  0  0  0  0  0  0
    6.1481   -7.8295    1.3466 O   0  0  0  0  0  0  0  0  0  0  0  0
    5.0850   -5.6710    0.9562 C   0  0  1  0  0  0  0  0  0  0  0  0
    4.1759   -6.3081    0.0824 O   0  0  0  0  0  0  0  0  0  0  0  0
    4.4636   -4.4247    1.6294 C   0  0  1  0  0  0  0  0  0  0  0  0
    3.9089   -3.5763    0.6425 O   0  0  0  0  0  0  0  0  0  0  0  0
    3.4949   -4.6722    2.8476 C   0  0  1  0  0  0  0  0  0  0  0  0
    2.1685   -5.2804    2.3015 C   0  0  0  0  0  0  0  0  0  0  0  0
    3.0563   -3.3374    3.6188 C   0  0  1  0  0  0  0  0  0  0  0  0
    1.8662   -3.5872    4.6148 C   0  0  0  0  0  0  0  0  0  0  0  0
    1.3042   -2.3328    5.3098 C   0  0  0  0  0  0  0  0  0  0  0  0
    2.3460   -1.5024    6.1097 C   0  0  2  0  0  0  0  0  0  0  0  0
    2.7950   -2.3072    7.3734 C   0  0  0  0  0  0  0  0  0  0  0  0
   -0.2052    1.2358    5.3708 C   0  0  2  0  0  0  0  0  0  0  0  0
   -0.7297    1.9268    4.0585 C   0  0  1  0  0  0  0  0  0  0  0  0
   -0.9227    0.8804    2.9335 C   0  0  0  0  0  0  0  0  0  0  0  0
   -1.5379    4.4699    3.0666 H   0  0  0  0  0  0  0  0  0  0  0  0
   -3.2806    4.1937    3.1715 H   0  0  0  0  0  0  0  0  0  0  0  0
   -2.3110    3.2286    2.0878 H   0  0  0  0  0  0  0  0  0  0  0  0
   -2.8952    1.9552    4.1188 H   0  0  0  0  0  0  0  0  0  0  0  0
   -1.7466    4.3283    5.5733 H   0  0  0  0  0  0  0  0  0  0  0  0
   -3.3426    3.6476    5.6756 H   0  0  0  0  0  0  0  0  0  0  0  0
   -2.0799    3.0483    7.6678 H   0  0  0  0  0  0  0  0  0  0  0  0
   -2.5528    1.6408    6.7558 H   0  0  0  0  0  0  0  0  0  0  0  0
    1.5523    3.0610    6.6850 H   0  0  0  0  0  0  0  0  0  0  0  0
    0.2998    3.9450    7.5427 H   0  0  0  0  0  0  0  0  0  0  0  0
    0.3660    3.9243    5.7877 H   0  0  0  0  0  0  0  0  0  0  0  0
    0.4187    1.7228    8.6426 H   0  0  0  0  0  0  0  0  0  0  0  0
   -1.0833    0.9231    8.4176 H   0  0  0  0  0  0  0  0  0  0  0  0
    0.9037   -0.5586    8.5722 H   0  0  0  0  0  0  0  0  0  0  0  0
   -0.1678   -0.9130    7.2492 H   0  0  0  0  0  0  0  0  0  0  0  0
    3.4419    0.1326    7.9890 H   0  0  0  0  0  0  0  0  0  0  0  0
    2.5046    1.5697    7.8458 H   0  0  0  0  0  0  0  0  0  0  0  0
    3.5971    1.1328    6.5626 H   0  0  0  0  0  0  0  0  0  0  0  0
    1.7471    1.2413    3.3679 H   0  0  0  0  0  0  0  0  0  0  0  0
    3.2168   -0.5034    3.0930 H   0  0  0  0  0  0  0  0  0  0  0  0
    4.1442    0.5937    4.0919 H   0  0  0  0  0  0  0  0  0  0  0  0
    4.3784   -0.9067    5.7577 H   0  0  0  0  0  0  0  0  0  0  0  0
    6.1395   -2.6510    3.3328 H   0  0  0  0  0  0  0  0  0  0  0  0
    5.7864   -1.1061    3.9372 H   0  0  0  0  0  0  0  0  0  0  0  0
    4.9509   -1.6797    2.4980 H   0  0  0  0  0  0  0  0  0  0  0  0
    5.6949   -3.1303    5.8649 H   0  0  0  0  0  0  0  0  0  0  0  0
    4.1870   -3.9442    6.1004 H   0  0  0  0  0  0  0  0  0  0  0  0
    6.1903   -4.6814    3.9940 H   0  0  0  0  0  0  0  0  0  0  0  0
    5.7255   -5.5105    5.4316 H   0  0  0  0  0  0  0  0  0  0  0  0
    3.4977   -5.9562    4.6034 H   0  0  0  0  0  0  0  0  0  0  0  0
    5.8521   -8.7904    3.9008 H   0  0  0  0  0  0  0  0  0  0  0  0
    5.0849   -7.8819    5.1939 H   0  0  0  0  0  0  0  0  0  0  0  0
    6.5771   -7.2988    4.4394 H   0  0  0  0  0  0  0  0  0  0  0  0
    3.9693   -9.0034    2.7440 H   0  0  0  0  0  0  0  0  0  0  0  0
    3.1788   -7.7650    1.8560 H   0  0  0  0  0  0  0  0  0  0  0  0
    2.8208   -7.9693    3.5675 H   0  0  0  0  0  0  0  0  0  0  0  0
    6.5771   -6.1823    2.3744 H   0  0  0  0  0  0  0  0  0  0  0  0
    6.5837   -8.3700    1.9945 H   0  0  0  0  0  0  0  0  0  0  0  0
    5.9082   -5.3412    0.3194 H   0  0  0  0  0  0  0  0  0  0  0  0
    4.1237   -5.8173   -0.7260 H   0  0  0  0  0  0  0  0  0  0  0  0
    5.3459   -3.9222    1.9805 H   0  0  0  0  0  0  0  0  0  0  0  0
    3.1901   -4.0318    0.2222 H   0  0  0  0  0  0  0  0  0  0  0  0
    1.4937   -4.4933    1.9698 H   0  0  0  0  0  0  0  0  0  0  0  0
    1.6448   -5.8709    3.0545 H   0  0  0  0  0  0  0  0  0  0  0  0
    2.2702   -5.9189    1.4364 H   0  0  0  0  0  0  0  0  0  0  0  0
    2.6618   -2.6647    2.8552 H   0  0  0  0  0  0  0  0  0  0  0  0
    1.0066   -4.0174    4.1102 H   0  0  0  0  0  0  0  0  0  0  0  0
    2.1391   -4.3272    5.3633 H   0  0  0  0  0  0  0  0  0  0  0  0
    0.8408   -1.7341    4.5279 H   0  0  0  0  0  0  0  0  0  0  0  0
    0.4936   -2.6358    5.9704 H   0  0  0  0  0  0  0  0  0  0  0  0
    2.5544   -3.3656    7.3054 H   0  0  0  0  0  0  0  0  0  0  0  0
    2.3280   -1.9969    8.3005 H   0  0  0  0  0  0  0  0  0  0  0  0
    3.8662   -2.2130    7.5578 H   0  0  0  0  0  0  0  0  0  0  0  0
   -0.8486    0.3588    5.4656 H   0  0  0  0  0  0  0  0  0  0  0  0
    0.0150    2.6600    3.7443 H   0  0  0  0  0  0  0  0  0  0  0  0
   -1.7608    0.2226    3.1728 H   0  0  0  0  0  0  0  0  0  0  0  0
   -0.0676    0.2286    2.7790 H   0  0  0  0  0  0  0  0  0  0  0  0
   -1.1402    1.3477    1.9721 H   0  0  0  0  0  0  0  0  0  0  0  0
  1  2  1  0
  1 39  1  0
  1 40  1  0
  1 41  1  0
  2 37  1  0
  2  3  1  0
  2 42  1  6
  3  4  1  0
  3 43  1  0
  3 44  1  0
  4  5  1  0
  4 45  1  0
  4 46  1  0
  5 36  1  0
  5  6  1  6
  5  7  1  0
  6 47  1  0
  6 48  1  0
  6 49  1  0
  7  8  1  0
  7 50  1  0
  7 51  1  0
  8  9  1  0
  8 52  1  0
  8 53  1  0
  9 34  1  0
  9 10  1  1
  9 11  1  0
 10 54  1  0
 10 55  1  0
 10 56  1  0
 11 12  2  0
 11 36  1  0
 12 13  1  0
 12 57  1  0
 13 14  1  0
 13 58  1  0
 13 59  1  0
 14 34  1  0
 14 15  1  0
 14 60  1  1
 15 31  1  0
 15 16  1  6
 15 17  1  0
 16 61  1  0
 16 62  1  0
 16 63  1  0
 17 18  1  0
 17 64  1  0
 17 65  1  0
 18 19  1  0
 18 66  1  0
 18 67  1  0
 19 29  1  0
 19 20  1  0
 19 68  1  1
 20 21  1  0
 20 22  1  0
 20 23  1  0
 21 69  1  0
 21 70  1  0
 21 71  1  0
 22 72  1  0
 22 73  1  0
 22 74  1  0
 23 24  1  0
 23 25  1  0
 23 75  1  1
 24 76  1  0
 25 26  1  0
 25 27  1  0
 25 77  1  6
 26 78  1  0
 27 28  1  0
 27 29  1  0
 27 79  1  1
 28 80  1  0
 29 30  1  6
 29 31  1  0
 30 81  1  0
 30 82  1  0
 30 83  1  0
 31 32  1  0
 31 84  1  6
 32 33  1  0
 32 85  1  0
 32 86  1  0
 33 34  1  0
 33 87  1  0
 33 88  1  0
 34 35  1  1
 35 89  1  0
 35 90  1  0
 35 91  1  0
 36 37  1  0
 36 92  1  1
 37 38  1  0
 37 93  1  6
 38 94  1  0
 38 95  1  0
 38 96  1  0
M  END
>  <i_m_ct_stereo_status>  (255) 
1

>  <s_m_source_file>  (255) 
/var/tmp/pbs.5076255.sched01/tmpelb551ou/82hj6rxffr.sdf

>  <i_m_source_file_index>  (255) 
31

>  <i_lp_mmshare_version>  (255) 
48012

>  <i_f3d_flags>  (255) 
0

>  <s_epik_input>  (255) 
W0NIMl0xW0NIMl1bQ0BASF0oW0NIM10pW0NASF0oW0NIM10pW0NASF0oW0NAQF0xMltDSDNdKUM9M1tDQEBdKFtDSDNdKShbQ0gyXVtDSDJdMilbQ0BdNChbQ0gzXSlbQ0BIXShbQ0gyXVtDSF0zKVtDQF01KFtDSDNdKVtDQEhdKFtDSDJdW0NIMl00KVtDQF02KFtDSDNdKVtDQEhdKFtDSDJdW0NIMl01KUMoW0NIM10pKFtDSDNdKVtDQEBIXShbT0hdKVtDQEBIXShbT0hdKVtDQEhdNltPSF0=

>  <s_epik_cmdline>  (255) 
J2VwaWtfcHl0aG9uJywgJy1waHQnLCAnMi4wJywgJy1waCcsICc3LjAnLCAnLXRuJywgJzgnLCAnLW1hJywgJzIwMCcsICctaW1hZScsICc8aW5maWxlLm1hZT4nLCAnLW9tYWUnLCAnPG91dGZpbGUubWFlPic=

>  <r_lp_tautomer_probability>  (255) 
1

>  <r_epik_Ionization_Penalty>  (255) 
9.87828e-07

>  <r_epik_Ionization_Penalty_Charging>  (255) 
0

>  <r_epik_Ionization_Penalty_Neutral>  (255) 
9.87828e-07

>  <r_epik_State_Penalty>  (255) 
-0

>  <r_epik_Charging_Adjusted_Penalty>  (255) 
0

>  <i_epik_Tot_Q>  (255) 
0

>  <i_epik_Tot_abs_Q>  (255) 
0

>  <s_lp_Force_Field>  (255) 
OPLS3e

>  <r_lp_Energy>  (255) 
131.341

>  <b_lp_Chiralities_Consistent>  (255) 
1

>  <s_lp_Variant>  (255) 
83:0-1

>  <s_i_glide_gridfile>  (255) 
pfpi4k_grid

>  <i_i_glide_lignum>  (255) 
31

>  <i_i_glide_rotatable_bonds>  (255) 
3

>  <r_i_docking_score>  (255) 
-1.91549

>  <r_i_glide_ligand_efficiency>  (255) 
-0.0504077

>  <r_i_glide_ligand_efficiency_sa>  (255) 
-0.169469

>  <r_i_glide_ligand_efficiency_ln>  (255) 
-0.413036

>  <r_i_glide_gscore>  (255) 
-1.91549

>  <r_i_glide_lipo>  (255) 
-0.259462

>  <r_i_glide_hbond>  (255) 
0

>  <r_i_glide_metal>  (255) 
-0

>  <r_i_glide_rewards>  (255) 
0

>  <r_i_glide_evdw>  (255) 
-26.6504

>  <r_i_glide_ecoul>  (255) 
-2.15673

>  <r_i_glide_erotb>  (255) 
0

>  <r_i_glide_esite>  (255) 
0

>  <r_i_glide_emodel>  (255) 
-31.6083

>  <r_i_glide_energy>  (255) 
-28.8071

>  <r_i_glide_einternal>  (255) 
0.79992

>  <r_i_glide_intrahb_reward>  (255) 
-0

>  <i_i_glide_confnum>  (255) 
2

>  <i_i_glide_posenum>  (255) 
21

>  <r_i_glide_eff_state_penalty>  (255) 
0

>  <ligand_id>  (255) 
83

>  <original_smiles>  (255) 
CC1CCC2(C)CCC3(C)C(=CCC4C5(C)CCC6C(C)(C)C(O)C(O)C(O)C6(C)C5CCC43C)C2C1C

>  <smiles>  (255) 
[H]OC1([H])C([H])(O[H])C(C([H])([H])[H])(C([H])([H])[H])C2([H])C([H])([H])C([H])([H])C3(C([H])([H])[H])C([H])(C([H])([H])C([H])([H])C4(C([H])([H])[H])C3([H])C([H])([H])C([H])=C3C5([H])C([H])(C([H])([H])[H])C([H])(C([H])([H])[H])C([H])([H])C([H])([H])C5(C([H])([H])[H])C([H])([H])C([H])([H])C34C([H])([H])[H])C2(C([H])([H])[H])C1([H])O[H]

$$$$
83:0:2
     RDKit          3D

 96101  0  0  1  0  0  0  0  0999 V2000
   -2.3041    3.6272    3.0633 C   0  0  0  0  0  0  0  0  0  0  0  0
   -2.0664    2.6280    4.2092 C   0  0  2  0  0  0  0  0  0  0  0  0
   -2.2545    3.3530    5.5505 C   0  0  0  0  0  0  0  0  0  0  0  0
   -1.8484    2.4959    6.7419 C   0  0  0  0  0  0  0  0  0  0  0  0
   -0.3801    2.0353    6.6604 C   0  0  1  0  0  0  0  0  0  0  0  0
    0.5470    3.2826    6.6422 C   0  0  0  0  0  0  0  0  0  0  0  0
   -0.0940    1.1496    7.9106 C   0  0  0  0  0  0  0  0  0  0  0  0
    0.6108   -0.2051    7.6277 C   0  0  0  0  0  0  0  0  0  0  0  0
    1.7753   -0.1300    6.5870 C   0  0  2  0  0  0  0  0  0  0  0  0
    2.9210    0.6971    7.2533 C   0  0  0  0  0  0  0  0  0  0  0  0
    1.2617    0.6094    5.3360 C   0  0  0  0  0  0  0  0  0  0  0  0
    2.0432    0.6205    4.2450 C   0  0  0  0  0  0  0  0  0  0  0  0
    3.3116   -0.1916    4.0921 C   0  0  0  0  0  0  0  0  0  0  0  0
    3.5765   -1.3433    5.1355 C   0  0  2  0  0  0  0  0  0  0  0  0
    4.1773   -2.6393    4.4140 C   0  0  1  0  0  0  0  0  0  0  0  0
    5.2949   -2.0811    3.4831 C   0  0  0  0  0  0  0  0  0  0  0  0
    4.8634   -3.6634    5.3650 C   0  0  0  0  0  0  0  0  0  0  0  0
    5.3237   -4.9682    4.6823 C   0  0  0  0  0  0  0  0  0  0  0  0
    4.1994   -5.7454    3.9243 C   0  0  2  0  0  0  0  0  0  0  0  0
    4.7278   -7.1047    3.2991 C   0  0  0  0  0  0  0  0  0  0  0  0
    5.5851   -7.8743    4.3416 C   0  0  0  0  0  0  0  0  0  0  0  0
    3.5701   -8.0821    2.9489 C   0  0  0  0  0  0  0  0  0  0  0  0
    5.6273   -6.8016    2.0614 C   0  0  1  0  0  0  0  0  0  0  0  0
    6.0771   -7.9947    1.4431 O   0  0  0  0  0  0  0  0  0  0  0  0
    5.0236   -5.8315    1.0148 C   0  0  1  0  0  0  0  0  0  0  0  0
    4.1352   -6.4820    0.1253 O   0  0  0  0  0  0  0  0  0  0  0  0
    4.4132   -4.5670    1.6749 C   0  0  1  0  0  0  0  0  0  0  0  0
    3.8527   -3.7323    0.6793 O   0  0  0  0  0  0  0  0  0  0  0  0
    3.4615   -4.7825    2.9120 C   0  0  1  0  0  0  0  0  0  0  0  0
    2.1250   -5.3932    2.3930 C   0  0  0  0  0  0  0  0  0  0  0  0
    3.0382   -3.4319    3.6666 C   0  0  1  0  0  0  0  0  0  0  0  0
    1.8605   -3.6571    4.6824 C   0  0  0  0  0  0  0  0  0  0  0  0
    1.3127   -2.3886    5.3627 C   0  0  0  0  0  0  0  0  0  0  0  0
    2.3680   -1.5492    6.1365 C   0  0  2  0  0  0  0  0  0  0  0  0
    2.8271   -2.3342    7.4075 C   0  0  0  0  0  0  0  0  0  0  0  0
   -0.1790    1.1913    5.3781 C   0  0  2  0  0  0  0  0  0  0  0  0
   -0.7105    1.8627    4.0617 C   0  0  1  0  0  0  0  0  0  0  0  0
   -0.9217    0.7985    2.9579 C   0  0  0  0  0  0  0  0  0  0  0  0
   -1.5220    4.3878    3.0372 H   0  0  0  0  0  0  0  0  0  0  0  0
   -3.2637    4.1304    3.1739 H   0  0  0  0  0  0  0  0  0  0  0  0
   -2.3173    3.1331    2.0911 H   0  0  0  0  0  0  0  0  0  0  0  0
   -2.8750    1.9005    4.1441 H   0  0  0  0  0  0  0  0  0  0  0  0
   -1.7053    4.2928    5.5498 H   0  0  0  0  0  0  0  0  0  0  0  0
   -3.3036    3.6205    5.6773 H   0  0  0  0  0  0  0  0  0  0  0  0
   -2.0200    3.0468    7.6679 H   0  0  0  0  0  0  0  0  0  0  0  0
   -2.5092    1.6278    6.7825 H   0  0  0  0  0  0  0  0  0  0  0  0
    1.6014    3.0282    6.6417 H   0  0  0  0  0  0  0  0  0  0  0  0
    0.3613    3.9322    7.4987 H   0  0  0  0  0  0  0  0  0  0  0  0
    0.4082    3.8809    5.7437 H   0  0  0  0  0  0  0  0  0  0  0  0
    0.4841    1.7266    8.6357 H   0  0  0  0  0  0  0  0  0  0  0  0
   -1.0241    0.9279    8.4389 H   0  0  0  0  0  0  0  0  0  0  0  0
    0.9567   -0.5575    8.5959 H   0  0  0  0  0  0  0  0  0  0  0  0
   -0.1307   -0.9277    7.2899 H   0  0  0  0  0  0  0  0  0  0  0  0
    3.4916    0.1136    7.9732 H   0  0  0  0  0  0  0  0  0  0  0  0
    2.5586    1.5516    7.8156 H   0  0  0  0  0  0  0  0  0  0  0  0
    3.6344    1.0882    6.5281 H   0  0  0  0  0  0  0  0  0  0  0  0
    1.7524    1.1490    3.3532 H   0  0  0  0  0  0  0  0  0  0  0  0
    3.2056   -0.6076    3.0918 H   0  0  0  0  0  0  0  0  0  0  0  0
    4.1520    0.5018    4.0594 H   0  0  0  0  0  0  0  0  0  0  0  0
    4.3979   -0.9690    5.7491 H   0  0  0  0  0  0  0  0  0  0  0  0
    6.1221   -2.7636    3.3353 H   0  0  0  0  0  0  0  0  0  0  0  0
    5.7777   -1.2045    3.9182 H   0  0  0  0  0  0  0  0  0  0  0  0
    4.9265   -1.8020    2.4960 H   0  0  0  0  0  0  0  0  0  0  0  0
    5.7042   -3.1983    5.8794 H   0  0  0  0  0  0  0  0  0  0  0  0
    4.1968   -3.9998    6.1458 H   0  0  0  0  0  0  0  0  0  0  0  0
    6.1726   -4.7826    4.0283 H   0  0  0  0  0  0  0  0  0  0  0  0
    5.7201   -5.5847    5.4868 H   0  0  0  0  0  0  0  0  0  0  0  0
    3.4807   -6.0353    4.6943 H   0  0  0  0  0  0  0  0  0  0  0  0
    5.8163   -8.8885    4.0059 H   0  0  0  0  0  0  0  0  0  0  0  0
    5.0649   -7.9620    5.2991 H   0  0  0  0  0  0  0  0  0  0  0  0
    6.5492   -7.3931    4.5150 H   0  0  0  0  0  0  0  0  0  0  0  0
    3.9140   -9.1165    2.8883 H   0  0  0  0  0  0  0  0  0  0  0  0
    3.1166   -7.8877    1.9815 H   0  0  0  0  0  0  0  0  0  0  0  0
    2.7808   -8.0602    3.7040 H   0  0  0  0  0  0  0  0  0  0  0  0
    6.5290   -6.3139    2.4282 H   0  0  0  0  0  0  0  0  0  0  0  0
    5.3159   -8.4819    1.1670 H   0  0  0  0  0  0  0  0  0  0  0  0
    5.8445   -5.5063    0.3751 H   0  0  0  0  0  0  0  0  0  0  0  0
    4.0016   -5.9360   -0.6370 H   0  0  0  0  0  0  0  0  0  0  0  0
    5.3007   -4.0602    2.0100 H   0  0  0  0  0  0  0  0  0  0  0  0
    3.1201   -4.1782    0.2889 H   0  0  0  0  0  0  0  0  0  0  0  0
    1.4477   -4.6088    2.0570 H   0  0  0  0  0  0  0  0  0  0  0  0
    1.6071   -5.9669    3.1627 H   0  0  0  0  0  0  0  0  0  0  0  0
    2.2218   -6.0454    1.5364 H   0  0  0  0  0  0  0  0  0  0  0  0
    2.6407   -2.7679    2.8977 H   0  0  0  0  0  0  0  0  0  0  0  0
    0.9921   -4.0905    4.1953 H   0  0  0  0  0  0  0  0  0  0  0  0
    2.1386   -4.3856    5.4398 H   0  0  0  0  0  0  0  0  0  0  0  0
    0.8424   -1.8002    4.5766 H   0  0  0  0  0  0  0  0  0  0  0  0
    0.5095   -2.6773    6.0376 H   0  0  0  0  0  0  0  0  0  0  0  0
    2.5792   -3.3921    7.3617 H   0  0  0  0  0  0  0  0  0  0  0  0
    2.3743   -2.0036    8.3340 H   0  0  0  0  0  0  0  0  0  0  0  0
    3.9008   -2.2427    7.5752 H   0  0  0  0  0  0  0  0  0  0  0  0
   -0.8235    0.3186    5.4951 H   0  0  0  0  0  0  0  0  0  0  0  0
    0.0329    2.5877    3.7269 H   0  0  0  0  0  0  0  0  0  0  0  0
   -1.7609    0.1518    3.2245 H   0  0  0  0  0  0  0  0  0  0  0  0
   -0.0704    0.1410    2.8042 H   0  0  0  0  0  0  0  0  0  0  0  0
   -1.1504    1.2478    1.9908 H   0  0  0  0  0  0  0  0  0  0  0  0
  1  2  1  0
  1 39  1  0
  1 40  1  0
  1 41  1  0
  2 37  1  0
  2  3  1  0
  2 42  1  6
  3  4  1  0
  3 43  1  0
  3 44  1  0
  4  5  1  0
  4 45  1  0
  4 46  1  0
  5 36  1  0
  5  6  1  6
  5  7  1  0
  6 47  1  0
  6 48  1  0
  6 49  1  0
  7  8  1  0
  7 50  1  0
  7 51  1  0
  8  9  1  0
  8 52  1  0
  8 53  1  0
  9 34  1  0
  9 10  1  1
  9 11  1  0
 10 54  1  0
 10 55  1  0
 10 56  1  0
 11 12  2  0
 11 36  1  0
 12 13  1  0
 12 57  1  0
 13 14  1  0
 13 58  1  0
 13 59  1  0
 14 34  1  0
 14 15  1  0
 14 60  1  1
 15 31  1  0
 15 16  1  6
 15 17  1  0
 16 61  1  0
 16 62  1  0
 16 63  1  0
 17 18  1  0
 17 64  1  0
 17 65  1  0
 18 19  1  0
 18 66  1  0
 18 67  1  0
 19 29  1  0
 19 20  1  0
 19 68  1  1
 20 21  1  0
 20 22  1  0
 20 23  1  0
 21 69  1  0
 21 70  1  0
 21 71  1  0
 22 72  1  0
 22 73  1  0
 22 74  1  0
 23 24  1  0
 23 25  1  0
 23 75  1  1
 24 76  1  0
 25 26  1  0
 25 27  1  0
 25 77  1  6
 26 78  1  0
 27 28  1  0
 27 29  1  0
 27 79  1  1
 28 80  1  0
 29 30  1  6
 29 31  1  0
 30 81  1  0
 30 82  1  0
 30 83  1  0
 31 32  1  0
 31 84  1  6
 32 33  1  0
 32 85  1  0
 32 86  1  0
 33 34  1  0
 33 87  1  0
 33 88  1  0
 34 35  1  1
 35 89  1  0
 35 90  1  0
 35 91  1  0
 36 37  1  0
 36 92  1  1
 37 38  1  0
 37 93  1  6
 38 94  1  0
 38 95  1  0
 38 96  1  0
M  END
>  <i_m_ct_stereo_status>  (256) 
1

>  <s_m_source_file>  (256) 
/var/tmp/pbs.5076255.sched01/tmpelb551ou/82hj6rxffr.sdf

>  <i_m_source_file_index>  (256) 
31

>  <i_lp_mmshare_version>  (256) 
48012

>  <i_f3d_flags>  (256) 
0

>  <s_epik_input>  (256) 
W0NIMl0xW0NIMl1bQ0BASF0oW0NIM10pW0NASF0oW0NIM10pW0NASF0oW0NAQF0xMltDSDNdKUM9M1tDQEBdKFtDSDNdKShbQ0gyXVtDSDJdMilbQ0BdNChbQ0gzXSlbQ0BIXShbQ0gyXVtDSF0zKVtDQF01KFtDSDNdKVtDQEhdKFtDSDJdW0NIMl00KVtDQF02KFtDSDNdKVtDQEhdKFtDSDJdW0NIMl01KUMoW0NIM10pKFtDSDNdKVtDQEBIXShbT0hdKVtDQEBIXShbT0hdKVtDQEhdNltPSF0=

>  <s_epik_cmdline>  (256) 
J2VwaWtfcHl0aG9uJywgJy1waHQnLCAnMi4wJywgJy1waCcsICc3LjAnLCAnLXRuJywgJzgnLCAnLW1hJywgJzIwMCcsICctaW1hZScsICc8aW5maWxlLm1hZT4nLCAnLW9tYWUnLCAnPG91dGZpbGUubWFlPic=

>  <r_lp_tautomer_probability>  (256) 
1

>  <r_epik_Ionization_Penalty>  (256) 
9.87828e-07

>  <r_epik_Ionization_Penalty_Charging>  (256) 
0

>  <r_epik_Ionization_Penalty_Neutral>  (256) 
9.87828e-07

>  <r_epik_State_Penalty>  (256) 
-0

>  <r_epik_Charging_Adjusted_Penalty>  (256) 
0

>  <i_epik_Tot_Q>  (256) 
0

>  <i_epik_Tot_abs_Q>  (256) 
0

>  <s_lp_Force_Field>  (256) 
OPLS3e

>  <r_lp_Energy>  (256) 
131.341

>  <b_lp_Chiralities_Consistent>  (256) 
1

>  <s_lp_Variant>  (256) 
83:0-1

>  <s_i_glide_gridfile>  (256) 
pfpi4k_grid

>  <i_i_glide_lignum>  (256) 
31

>  <i_i_glide_rotatable_bonds>  (256) 
3

>  <r_i_docking_score>  (256) 
-1.88033

>  <r_i_glide_ligand_efficiency>  (256) 
-0.0494824

>  <r_i_glide_ligand_efficiency_sa>  (256) 
-0.166359

>  <r_i_glide_ligand_efficiency_ln>  (256) 
-0.405455

>  <r_i_glide_gscore>  (256) 
-1.88033

>  <r_i_glide_lipo>  (256) 
-0.246075

>  <r_i_glide_hbond>  (256) 
0

>  <r_i_glide_metal>  (256) 
-0

>  <r_i_glide_rewards>  (256) 
0

>  <r_i_glide_evdw>  (256) 
-26.4239

>  <r_i_glide_ecoul>  (256) 
-2.08707

>  <r_i_glide_erotb>  (256) 
0

>  <r_i_glide_esite>  (256) 
0

>  <r_i_glide_emodel>  (256) 
-31.4396

>  <r_i_glide_energy>  (256) 
-28.511

>  <r_i_glide_einternal>  (256) 
0.481985

>  <r_i_glide_intrahb_reward>  (256) 
-0

>  <i_i_glide_confnum>  (256) 
1

>  <i_i_glide_posenum>  (256) 
28

>  <r_i_glide_eff_state_penalty>  (256) 
0

>  <ligand_id>  (256) 
83

>  <original_smiles>  (256) 
CC1CCC2(C)CCC3(C)C(=CCC4C5(C)CCC6C(C)(C)C(O)C(O)C(O)C6(C)C5CCC43C)C2C1C

>  <smiles>  (256) 
[H]OC1([H])C([H])(O[H])C(C([H])([H])[H])(C([H])([H])[H])C2([H])C([H])([H])C([H])([H])C3(C([H])([H])[H])C([H])(C([H])([H])C([H])([H])C4(C([H])([H])[H])C3([H])C([H])([H])C([H])=C3C5([H])C([H])(C([H])([H])[H])C([H])(C([H])([H])[H])C([H])([H])C([H])([H])C5(C([H])([H])[H])C([H])([H])C([H])([H])C34C([H])([H])[H])C2(C([H])([H])[H])C1([H])O[H]

$$$$
86:0:0
     RDKit          3D

 39 42  0  0  1  0  0  0  0  0999 V2000
    1.9299   -9.4466    1.9170 C   0  0  0  0  0  0  0  0  0  0  0  0
    1.1963   -8.1440    2.2602 C   0  0  0  0  0  0  0  0  0  0  0  0
    2.0415   -6.9669    2.0765 N   0  0  0  0  0  0  0  0  0  0  0  0
    3.1648   -6.6875    2.7746 C   0  0  0  0  0  0  0  0  0  0  0  0
    3.5762   -7.1849    3.8175 O   0  0  0  0  0  0  0  0  0  0  0  0
    3.8772   -5.6418    1.9335 C   0  0  1  0  0  0  0  0  0  0  0  0
    2.6295   -4.7962    1.6805 C   0  0  2  0  0  0  0  0  0  0  0  0
    1.7986   -5.9724    1.2024 C   0  0  0  0  0  0  0  0  0  0  0  0
    1.0001   -5.9499    0.2641 O   0  0  0  0  0  0  0  0  0  0  0  0
    3.5974   -3.8272    1.0106 C   0  0  1  0  0  0  0  0  0  0  0  0
    4.5730   -4.2963    2.1628 C   0  0  2  0  0  0  0  0  0  0  0  0
    6.0735   -4.1853    1.8515 C   0  0  0  0  0  0  0  0  0  0  0  0
    6.3866   -4.4905    0.3670 C   0  0  0  0  0  0  0  0  0  0  0  0
    5.4871   -3.7372   -0.5033 N   0  0  0  0  0  0  0  0  0  0  0  0
    5.7976   -2.7173   -1.3248 C   0  0  0  0  0  0  0  0  0  0  0  0
    6.9234   -2.2501   -1.5047 O   0  0  0  0  0  0  0  0  0  0  0  0
    4.5557   -2.2880   -1.9290 C   0  0  0  0  0  0  0  0  0  0  0  0
    4.5239   -1.2869   -2.8732 O   0  0  0  0  0  0  0  0  0  0  0  0
    3.2584   -0.9294   -3.3953 C   0  0  0  0  0  0  0  0  0  0  0  0
    3.5427   -3.0058   -1.4219 C   0  0  0  0  0  0  0  0  0  0  0  0
    4.0591   -4.0280   -0.4405 C   0  0  2  0  0  0  0  0  0  0  0  0
    1.2614  -10.2925    2.0670 H   0  0  0  0  0  0  0  0  0  0  0  0
    2.7998   -9.6009    2.5536 H   0  0  0  0  0  0  0  0  0  0  0  0
    2.2643   -9.4570    0.8800 H   0  0  0  0  0  0  0  0  0  0  0  0
    0.2990   -8.0670    1.6435 H   0  0  0  0  0  0  0  0  0  0  0  0
    0.8550   -8.1629    3.2951 H   0  0  0  0  0  0  0  0  0  0  0  0
    4.3062   -6.1548    1.0668 H   0  0  0  0  0  0  0  0  0  0  0  0
    2.1862   -4.3399    2.5781 H   0  0  0  0  0  0  0  0  0  0  0  0
    3.2969   -2.7947    1.2051 H   0  0  0  0  0  0  0  0  0  0  0  0
    4.3145   -3.8786    3.1425 H   0  0  0  0  0  0  0  0  0  0  0  0
    6.4312   -3.1778    2.0795 H   0  0  0  0  0  0  0  0  0  0  0  0
    6.6490   -4.8605    2.4891 H   0  0  0  0  0  0  0  0  0  0  0  0
    7.4234   -4.2552    0.1438 H   0  0  0  0  0  0  0  0  0  0  0  0
    6.2576   -5.5499    0.1525 H   0  0  0  0  0  0  0  0  0  0  0  0
    3.4113   -0.1210   -4.1096 H   0  0  0  0  0  0  0  0  0  0  0  0
    2.5961   -0.5605   -2.6135 H   0  0  0  0  0  0  0  0  0  0  0  0
    2.7840   -1.7590   -3.9228 H   0  0  0  0  0  0  0  0  0  0  0  0
    2.4942   -2.9255   -1.6703 H   0  0  0  0  0  0  0  0  0  0  0  0
    3.8560   -5.0393   -0.8037 H   0  0  0  0  0  0  0  0  0  0  0  0
  1  2  1  0
  1 22  1  0
  1 23  1  0
  1 24  1  0
  2 25  1  0
  2 26  1  0
  2  3  1  0
  3  8  1  0
  3  4  1  0
  4  5  2  0
  4  6  1  0
  6 11  1  0
  6 27  1  6
  6  7  1  0
  7 10  1  0
  7 28  1  1
  7  8  1  0
  8  9  2  0
 10 21  1  0
 10 11  1  0
 10 29  1  1
 11 12  1  0
 11 30  1  1
 12 13  1  0
 12 31  1  0
 12 32  1  0
 13 14  1  0
 13 33  1  0
 13 34  1  0
 14 21  1  0
 14 15  1  0
 15 16  2  0
 15 17  1  0
 17 18  1  0
 17 20  2  0
 18 19  1  0
 19 35  1  0
 19 36  1  0
 19 37  1  0
 20 21  1  0
 20 38  1  0
 21 39  1  6
M  END
>  <i_m_ct_stereo_status>  (257) 
1

>  <s_m_source_file>  (257) 
/var/tmp/pbs.5076255.sched01/tmpelb551ou/82hj6rxffr.sdf

>  <i_m_source_file_index>  (257) 
34

>  <i_lp_mmshare_version>  (257) 
48012

>  <i_f3d_flags>  (257) 
0

>  <s_epik_input>  (257) 
W0NIM11bQ0gyXW4oYzFbT0hdKWMoW09IXSljKGMxMilbQ0BIXTNbQ0BASF0yW0NIMl1bQ0gyXU40W0NAQEhdM1tDSF09QyhDND1PKU9bQ0gzXQ==

>  <s_epik_cmdline>  (257) 
J2VwaWtfcHl0aG9uJywgJy1waHQnLCAnMi4wJywgJy1waCcsICc3LjAnLCAnLXRuJywgJzgnLCAnLW1hJywgJzIwMCcsICctaW1hZScsICc8aW5maWxlLm1hZT4nLCAnLW9tYWUnLCAnPG91dGZpbGUubWFlPic=

>  <r_lp_tautomer_probability>  (257) 
1

>  <r_epik_Ionization_Penalty>  (257) 
9.3345e-09

>  <r_epik_Ionization_Penalty_Charging>  (257) 
0

>  <r_epik_Ionization_Penalty_Neutral>  (257) 
9.3345e-09

>  <r_epik_State_Penalty>  (257) 
-0

>  <r_epik_Charging_Adjusted_Penalty>  (257) 
0

>  <i_epik_Tot_Q>  (257) 
0

>  <i_epik_Tot_abs_Q>  (257) 
0

>  <s_lp_Force_Field>  (257) 
OPLS3e

>  <r_lp_Energy>  (257) 
55.0726

>  <b_lp_Chiralities_Consistent>  (257) 
1

>  <s_lp_Variant>  (257) 
86:0-1

>  <s_i_glide_gridfile>  (257) 
pfpi4k_grid

>  <i_i_glide_lignum>  (257) 
34

>  <i_i_glide_rotatable_bonds>  (257) 
2

>  <r_i_docking_score>  (257) 
-4.7845

>  <r_i_glide_ligand_efficiency>  (257) 
-0.227833

>  <r_i_glide_ligand_efficiency_sa>  (257) 
-0.628575

>  <r_i_glide_ligand_efficiency_ln>  (257) 
-1.18296

>  <r_i_glide_gscore>  (257) 
-4.7845

>  <r_i_glide_lipo>  (257) 
-0.43291

>  <r_i_glide_hbond>  (257) 
-0.436631

>  <r_i_glide_metal>  (257) 
-0

>  <r_i_glide_rewards>  (257) 
-1.50944

>  <r_i_glide_evdw>  (257) 
-23.3778

>  <r_i_glide_ecoul>  (257) 
-7.70238

>  <r_i_glide_erotb>  (257) 
0

>  <r_i_glide_esite>  (257) 
-0.0812699

>  <r_i_glide_emodel>  (257) 
-40.7052

>  <r_i_glide_energy>  (257) 
-31.0802

>  <r_i_glide_einternal>  (257) 
0.333707

>  <r_i_glide_intrahb_reward>  (257) 
-0

>  <i_i_glide_confnum>  (257) 
1

>  <i_i_glide_posenum>  (257) 
1

>  <r_i_glide_eff_state_penalty>  (257) 
0

>  <ligand_id>  (257) 
86

>  <original_smiles>  (257) 
CCn1c(O)c2c(c1O)C1C2CCN2C(=O)C(OC)=CC12

>  <smiles>  (257) 
[H]C1=C(OC([H])([H])[H])C(=O)N2C([H])([H])C([H])([H])C3([H])C4([H])C(=O)N(C([H])([H])C([H])([H])[H])C(=O)C4([H])C3([H])C12[H]

$$$$
86:0:1
     RDKit          3D

 39 42  0  0  1  0  0  0  0  0999 V2000
   -0.0962   -7.8433    2.9569 C   0  0  0  0  0  0  0  0  0  0  0  0
    1.2255   -8.1834    2.2572 C   0  0  0  0  0  0  0  0  0  0  0  0
    2.0621   -6.9971    2.0927 N   0  0  0  0  0  0  0  0  0  0  0  0
    3.2002   -6.7400    2.7692 C   0  0  0  0  0  0  0  0  0  0  0  0
    3.6356   -7.2693    3.7899 O   0  0  0  0  0  0  0  0  0  0  0  0
    3.9106   -5.6886    1.9358 C   0  0  1  0  0  0  0  0  0  0  0  0
    2.6613   -4.8290    1.7118 C   0  0  2  0  0  0  0  0  0  0  0  0
    1.8099   -5.9919    1.2310 C   0  0  0  0  0  0  0  0  0  0  0  0
    1.0060   -5.9567    0.3019 O   0  0  0  0  0  0  0  0  0  0  0  0
    3.6292   -3.8572    1.0441 C   0  0  1  0  0  0  0  0  0  0  0  0
    4.6184   -4.3528    2.1767 C   0  0  2  0  0  0  0  0  0  0  0  0
    6.1168   -4.2400    1.8466 C   0  0  0  0  0  0  0  0  0  0  0  0
    6.4080   -4.5219    0.3517 C   0  0  0  0  0  0  0  0  0  0  0  0
    5.5007   -3.7475   -0.4933 N   0  0  0  0  0  0  0  0  0  0  0  0
    5.8037   -2.7193   -1.3041 C   0  0  0  0  0  0  0  0  0  0  0  0
    6.9273   -2.2564   -1.5025 O   0  0  0  0  0  0  0  0  0  0  0  0
    4.5565   -2.2740   -1.8801 C   0  0  0  0  0  0  0  0  0  0  0  0
    4.5142   -1.2566   -2.8064 O   0  0  0  0  0  0  0  0  0  0  0  0
    3.2454   -0.8869   -3.3088 C   0  0  0  0  0  0  0  0  0  0  0  0
    3.5460   -2.9959   -1.3718 C   0  0  0  0  0  0  0  0  0  0  0  0
    4.0729   -4.0383   -0.4144 C   0  0  2  0  0  0  0  0  0  0  0  0
   -0.6995   -8.7413    3.0776 H   0  0  0  0  0  0  0  0  0  0  0  0
   -0.6811   -7.1288    2.3779 H   0  0  0  0  0  0  0  0  0  0  0  0
    0.0791   -7.4192    3.9452 H   0  0  0  0  0  0  0  0  0  0  0  0
    1.7649   -8.9437    2.8273 H   0  0  0  0  0  0  0  0  0  0  0  0
    1.0341   -8.6215    1.2804 H   0  0  0  0  0  0  0  0  0  0  0  0
    4.3260   -6.1897    1.0543 H   0  0  0  0  0  0  0  0  0  0  0  0
    2.2398   -4.3857    2.6269 H   0  0  0  0  0  0  0  0  0  0  0  0
    3.3384   -2.8255    1.2630 H   0  0  0  0  0  0  0  0  0  0  0  0
    4.3756   -3.9479    3.1668 H   0  0  0  0  0  0  0  0  0  0  0  0
    6.4805   -3.2369    2.0793 H   0  0  0  0  0  0  0  0  0  0  0  0
    6.6996   -4.9246    2.4667 H   0  0  0  0  0  0  0  0  0  0  0  0
    7.4436   -4.2870    0.1179 H   0  0  0  0  0  0  0  0  0  0  0  0
    6.2713   -5.5770    0.1220 H   0  0  0  0  0  0  0  0  0  0  0  0
    3.3928   -0.0679   -4.0117 H   0  0  0  0  0  0  0  0  0  0  0  0
    2.5944   -0.5320   -2.5126 H   0  0  0  0  0  0  0  0  0  0  0  0
    2.7620   -1.7064   -3.8413 H   0  0  0  0  0  0  0  0  0  0  0  0
    2.4936   -2.9091   -1.6052 H   0  0  0  0  0  0  0  0  0  0  0  0
    3.8595   -5.0406   -0.7900 H   0  0  0  0  0  0  0  0  0  0  0  0
  1  2  1  0
  1 22  1  0
  1 23  1  0
  1 24  1  0
  2 25  1  0
  2 26  1  0
  2  3  1  0
  3  8  1  0
  3  4  1  0
  4  5  2  0
  4  6  1  0
  6 11  1  0
  6 27  1  6
  6  7  1  0
  7 10  1  0
  7 28  1  1
  7  8  1  0
  8  9  2  0
 10 21  1  0
 10 11  1  0
 10 29  1  1
 11 12  1  0
 11 30  1  1
 12 13  1  0
 12 31  1  0
 12 32  1  0
 13 14  1  0
 13 33  1  0
 13 34  1  0
 14 21  1  0
 14 15  1  0
 15 16  2  0
 15 17  1  0
 17 18  1  0
 17 20  2  0
 18 19  1  0
 19 35  1  0
 19 36  1  0
 19 37  1  0
 20 21  1  0
 20 38  1  0
 21 39  1  6
M  END
>  <i_m_ct_stereo_status>  (258) 
1

>  <s_m_source_file>  (258) 
/var/tmp/pbs.5076255.sched01/tmpelb551ou/82hj6rxffr.sdf

>  <i_m_source_file_index>  (258) 
34

>  <i_lp_mmshare_version>  (258) 
48012

>  <i_f3d_flags>  (258) 
0

>  <s_epik_input>  (258) 
W0NIM11bQ0gyXW4oYzFbT0hdKWMoW09IXSljKGMxMilbQ0BIXTNbQ0BASF0yW0NIMl1bQ0gyXU40W0NAQEhdM1tDSF09QyhDND1PKU9bQ0gzXQ==

>  <s_epik_cmdline>  (258) 
J2VwaWtfcHl0aG9uJywgJy1waHQnLCAnMi4wJywgJy1waCcsICc3LjAnLCAnLXRuJywgJzgnLCAnLW1hJywgJzIwMCcsICctaW1hZScsICc8aW5maWxlLm1hZT4nLCAnLW9tYWUnLCAnPG91dGZpbGUubWFlPic=

>  <r_lp_tautomer_probability>  (258) 
1

>  <r_epik_Ionization_Penalty>  (258) 
9.3345e-09

>  <r_epik_Ionization_Penalty_Charging>  (258) 
0

>  <r_epik_Ionization_Penalty_Neutral>  (258) 
9.3345e-09

>  <r_epik_State_Penalty>  (258) 
-0

>  <r_epik_Charging_Adjusted_Penalty>  (258) 
0

>  <i_epik_Tot_Q>  (258) 
0

>  <i_epik_Tot_abs_Q>  (258) 
0

>  <s_lp_Force_Field>  (258) 
OPLS3e

>  <r_lp_Energy>  (258) 
55.0726

>  <b_lp_Chiralities_Consistent>  (258) 
1

>  <s_lp_Variant>  (258) 
86:0-1

>  <s_i_glide_gridfile>  (258) 
pfpi4k_grid

>  <i_i_glide_lignum>  (258) 
34

>  <i_i_glide_rotatable_bonds>  (258) 
2

>  <r_i_docking_score>  (258) 
-4.60681

>  <r_i_glide_ligand_efficiency>  (258) 
-0.219372

>  <r_i_glide_ligand_efficiency_sa>  (258) 
-0.605231

>  <r_i_glide_ligand_efficiency_ln>  (258) 
-1.13903

>  <r_i_glide_gscore>  (258) 
-4.60681

>  <r_i_glide_lipo>  (258) 
-0.312086

>  <r_i_glide_hbond>  (258) 
-0.413018

>  <r_i_glide_metal>  (258) 
-0

>  <r_i_glide_rewards>  (258) 
-1.50925

>  <r_i_glide_evdw>  (258) 
-22.7153

>  <r_i_glide_ecoul>  (258) 
-7.72375

>  <r_i_glide_erotb>  (258) 
0

>  <r_i_glide_esite>  (258) 
-0.0781356

>  <r_i_glide_emodel>  (258) 
-39.8228

>  <r_i_glide_energy>  (258) 
-30.439

>  <r_i_glide_einternal>  (258) 
0.136704

>  <r_i_glide_intrahb_reward>  (258) 
-0

>  <i_i_glide_confnum>  (258) 
2

>  <i_i_glide_posenum>  (258) 
39

>  <r_i_glide_eff_state_penalty>  (258) 
0

>  <ligand_id>  (258) 
86

>  <original_smiles>  (258) 
CCn1c(O)c2c(c1O)C1C2CCN2C(=O)C(OC)=CC12

>  <smiles>  (258) 
[H]C1=C(OC([H])([H])[H])C(=O)N2C([H])([H])C([H])([H])C3([H])C4([H])C(=O)N(C([H])([H])C([H])([H])[H])C(=O)C4([H])C3([H])C12[H]

$$$$
86:0:2
     RDKit          3D

 39 42  0  0  1  0  0  0  0  0999 V2000
    1.9542   -9.7023    2.7976 C   0  0  0  0  0  0  0  0  0  0  0  0
    2.0123   -8.8517    1.5263 C   0  0  0  0  0  0  0  0  0  0  0  0
    2.9138   -7.7185    1.6866 N   0  0  0  0  0  0  0  0  0  0  0  0
    4.2575   -7.7675    1.5574 C   0  0  0  0  0  0  0  0  0  0  0  0
    5.0063   -8.7429    1.5411 O   0  0  0  0  0  0  0  0  0  0  0  0
    4.6689   -6.3286    1.3075 C   0  0  1  0  0  0  0  0  0  0  0  0
    3.7776   -5.7362    2.4024 C   0  0  2  0  0  0  0  0  0  0  0  0
    2.5248   -6.4450    1.9248 C   0  0  0  0  0  0  0  0  0  0  0  0
    1.4032   -5.9407    1.8024 O   0  0  0  0  0  0  0  0  0  0  0  0
    4.4712   -4.4242    2.0470 C   0  0  1  0  0  0  0  0  0  0  0  0
    5.7309   -5.3581    1.8379 C   0  0  2  0  0  0  0  0  0  0  0  0
    6.8002   -4.8290    0.8683 C   0  0  0  0  0  0  0  0  0  0  0  0
    6.1812   -4.0447   -0.3141 C   0  0  0  0  0  0  0  0  0  0  0  0
    5.2098   -3.0740    0.1815 N   0  0  0  0  0  0  0  0  0  0  0  0
    5.3043   -1.7329    0.1560 C   0  0  0  0  0  0  0  0  0  0  0  0
    6.2308   -1.0867   -0.3290 O   0  0  0  0  0  0  0  0  0  0  0  0
    4.1198   -1.2230    0.8091 C   0  0  0  0  0  0  0  0  0  0  0  0
    3.8755    0.1266    0.9182 O   0  0  0  0  0  0  0  0  0  0  0  0
    2.6580    0.5174    1.5287 C   0  0  0  0  0  0  0  0  0  0  0  0
    3.3722   -2.2539    1.2321 C   0  0  0  0  0  0  0  0  0  0  0  0
    4.0155   -3.5628    0.8569 C   0  0  2  0  0  0  0  0  0  0  0  0
    1.2767  -10.5433    2.6575 H   0  0  0  0  0  0  0  0  0  0  0  0
    1.6004   -9.1171    3.6454 H   0  0  0  0  0  0  0  0  0  0  0  0
    2.9370  -10.1017    3.0454 H   0  0  0  0  0  0  0  0  0  0  0  0
    2.3384   -9.4603    0.6794 H   0  0  0  0  0  0  0  0  0  0  0  0
    1.0123   -8.4948    1.2795 H   0  0  0  0  0  0  0  0  0  0  0  0
    4.4069   -6.0880    0.2721 H   0  0  0  0  0  0  0  0  0  0  0  0
    4.0387   -6.0470    3.4245 H   0  0  0  0  0  0  0  0  0  0  0  0
    4.6295   -3.8257    2.9469 H   0  0  0  0  0  0  0  0  0  0  0  0
    6.1641   -5.7181    2.7781 H   0  0  0  0  0  0  0  0  0  0  0  0
    7.4968   -4.1729    1.3978 H   0  0  0  0  0  0  0  0  0  0  0  0
    7.4120   -5.6480    0.4843 H   0  0  0  0  0  0  0  0  0  0  0  0
    6.9566   -3.5546   -0.8965 H   0  0  0  0  0  0  0  0  0  0  0  0
    5.6596   -4.7140   -0.9949 H   0  0  0  0  0  0  0  0  0  0  0  0
    2.6160    1.6052    1.5402 H   0  0  0  0  0  0  0  0  0  0  0  0
    2.5977    0.1770    2.5622 H   0  0  0  0  0  0  0  0  0  0  0  0
    1.7919    0.1619    0.9708 H   0  0  0  0  0  0  0  0  0  0  0  0
    2.4187   -2.2061    1.7376 H   0  0  0  0  0  0  0  0  0  0  0  0
    3.3683   -4.1023    0.1560 H   0  0  0  0  0  0  0  0  0  0  0  0
  1  2  1  0
  1 22  1  0
  1 23  1  0
  1 24  1  0
  2 25  1  0
  2 26  1  0
  2  3  1  0
  3  8  1  0
  3  4  1  0
  4  5  2  0
  4  6  1  0
  6 11  1  0
  6 27  1  6
  6  7  1  0
  7 10  1  0
  7 28  1  1
  7  8  1  0
  8  9  2  0
 10 21  1  0
 10 11  1  0
 10 29  1  1
 11 12  1  0
 11 30  1  1
 12 13  1  0
 12 31  1  0
 12 32  1  0
 13 14  1  0
 13 33  1  0
 13 34  1  0
 14 21  1  0
 14 15  1  0
 15 16  2  0
 15 17  1  0
 17 18  1  0
 17 20  2  0
 18 19  1  0
 19 35  1  0
 19 36  1  0
 19 37  1  0
 20 21  1  0
 20 38  1  0
 21 39  1  6
M  END
>  <i_m_ct_stereo_status>  (259) 
1

>  <s_m_source_file>  (259) 
/var/tmp/pbs.5076255.sched01/tmpelb551ou/82hj6rxffr.sdf

>  <i_m_source_file_index>  (259) 
34

>  <i_lp_mmshare_version>  (259) 
48012

>  <i_f3d_flags>  (259) 
0

>  <s_epik_input>  (259) 
W0NIM11bQ0gyXW4oYzFbT0hdKWMoW09IXSljKGMxMilbQ0BIXTNbQ0BASF0yW0NIMl1bQ0gyXU40W0NAQEhdM1tDSF09QyhDND1PKU9bQ0gzXQ==

>  <s_epik_cmdline>  (259) 
J2VwaWtfcHl0aG9uJywgJy1waHQnLCAnMi4wJywgJy1waCcsICc3LjAnLCAnLXRuJywgJzgnLCAnLW1hJywgJzIwMCcsICctaW1hZScsICc8aW5maWxlLm1hZT4nLCAnLW9tYWUnLCAnPG91dGZpbGUubWFlPic=

>  <r_lp_tautomer_probability>  (259) 
1

>  <r_epik_Ionization_Penalty>  (259) 
9.3345e-09

>  <r_epik_Ionization_Penalty_Charging>  (259) 
0

>  <r_epik_Ionization_Penalty_Neutral>  (259) 
9.3345e-09

>  <r_epik_State_Penalty>  (259) 
-0

>  <r_epik_Charging_Adjusted_Penalty>  (259) 
0

>  <i_epik_Tot_Q>  (259) 
0

>  <i_epik_Tot_abs_Q>  (259) 
0

>  <s_lp_Force_Field>  (259) 
OPLS3e

>  <r_lp_Energy>  (259) 
55.0726

>  <b_lp_Chiralities_Consistent>  (259) 
1

>  <s_lp_Variant>  (259) 
86:0-1

>  <s_i_glide_gridfile>  (259) 
pfpi4k_grid

>  <i_i_glide_lignum>  (259) 
34

>  <i_i_glide_rotatable_bonds>  (259) 
2

>  <r_i_docking_score>  (259) 
-3.72877

>  <r_i_glide_ligand_efficiency>  (259) 
-0.177561

>  <r_i_glide_ligand_efficiency_sa>  (259) 
-0.489876

>  <r_i_glide_ligand_efficiency_ln>  (259) 
-0.921932

>  <r_i_glide_gscore>  (259) 
-3.72877

>  <r_i_glide_lipo>  (259) 
-0.378803

>  <r_i_glide_hbond>  (259) 
-0.128932

>  <r_i_glide_metal>  (259) 
-0

>  <r_i_glide_rewards>  (259) 
-1.54291

>  <r_i_glide_evdw>  (259) 
-22.1914

>  <r_i_glide_ecoul>  (259) 
-3.73987

>  <r_i_glide_erotb>  (259) 
0

>  <r_i_glide_esite>  (259) 
-0.00758143

>  <r_i_glide_emodel>  (259) 
-33.465

>  <r_i_glide_energy>  (259) 
-25.9313

>  <r_i_glide_einternal>  (259) 
0.124452

>  <r_i_glide_intrahb_reward>  (259) 
-0

>  <i_i_glide_confnum>  (259) 
1

>  <i_i_glide_posenum>  (259) 
18

>  <r_i_glide_eff_state_penalty>  (259) 
0

>  <ligand_id>  (259) 
86

>  <original_smiles>  (259) 
CCn1c(O)c2c(c1O)C1C2CCN2C(=O)C(OC)=CC12

>  <smiles>  (259) 
[H]C1=C(OC([H])([H])[H])C(=O)N2C([H])([H])C([H])([H])C3([H])C4([H])C(=O)N(C([H])([H])C([H])([H])[H])C(=O)C4([H])C3([H])C12[H]

$$$$
86:1:0
     RDKit          3D

 39 42  0  0  1  0  0  0  0  0999 V2000
    5.8562   -9.9159    1.1599 C   0  0  0  0  0  0  0  0  0  0  0  0
    6.8393   -8.9517    1.8453 C   0  0  0  0  0  0  0  0  0  0  0  0
    6.1716   -7.9187    2.6378 N   0  0  0  0  0  0  0  0  0  0  0  0
    6.1984   -6.6109    2.3464 C   0  0  0  0  0  0  0  0  0  0  0  0
    6.7443   -6.0921    1.3707 O   0  0  0  0  0  0  0  0  0  0  0  0
    5.4411   -5.8052    3.4015 C   0  0  2  0  0  0  0  0  0  0  0  0
    4.8034   -6.8856    4.2725 C   0  0  2  0  0  0  0  0  0  0  0  0
    5.4459   -8.1631    3.7400 C   0  0  0  0  0  0  0  0  0  0  0  0
    5.2788   -9.2621    4.2693 O   0  0  0  0  0  0  0  0  0  0  0  0
    3.4013   -6.5294    3.6938 C   0  0  1  0  0  0  0  0  0  0  0  0
    4.0397   -5.2712    3.0419 C   0  0  2  0  0  0  0  0  0  0  0  0
    3.6619   -4.8951    1.5940 C   0  0  0  0  0  0  0  0  0  0  0  0
    3.1996   -6.1155    0.7854 C   0  0  0  0  0  0  0  0  0  0  0  0
    2.1925   -6.8164    1.5676 N   0  0  0  0  0  0  0  0  0  0  0  0
    0.8644   -6.8139    1.3874 C   0  0  0  0  0  0  0  0  0  0  0  0
    0.2607   -6.2592    0.4748 O   0  0  0  0  0  0  0  0  0  0  0  0
    0.2980   -7.5628    2.4788 C   0  0  0  0  0  0  0  0  0  0  0  0
   -1.0535   -7.7897    2.5670 O   0  0  0  0  0  0  0  0  0  0  0  0
   -1.4879   -8.7218    3.5438 C   0  0  0  0  0  0  0  0  0  0  0  0
    1.2857   -7.9761    3.2844 C   0  0  0  0  0  0  0  0  0  0  0  0
    2.6288   -7.5176    2.7662 C   0  0  2  0  0  0  0  0  0  0  0  0
    6.3908  -10.6699    0.5842 H   0  0  0  0  0  0  0  0  0  0  0  0
    5.1835   -9.3921    0.4835 H   0  0  0  0  0  0  0  0  0  0  0  0
    5.2480  -10.4560    1.8859 H   0  0  0  0  0  0  0  0  0  0  0  0
    7.5015   -9.5060    2.5105 H   0  0  0  0  0  0  0  0  0  0  0  0
    7.4827   -8.5092    1.0807 H   0  0  0  0  0  0  0  0  0  0  0  0
    6.0595   -5.0996    3.9556 H   0  0  0  0  0  0  0  0  0  0  0  0
    4.9183   -6.7056    5.3453 H   0  0  0  0  0  0  0  0  0  0  0  0
    2.7717   -6.1861    4.5135 H   0  0  0  0  0  0  0  0  0  0  0  0
    3.8746   -4.4167    3.6979 H   0  0  0  0  0  0  0  0  0  0  0  0
    2.8489   -4.1638    1.6027 H   0  0  0  0  0  0  0  0  0  0  0  0
    4.4906   -4.3959    1.0835 H   0  0  0  0  0  0  0  0  0  0  0  0
    2.8123   -5.8154   -0.1832 H   0  0  0  0  0  0  0  0  0  0  0  0
    4.0259   -6.7968    0.6008 H   0  0  0  0  0  0  0  0  0  0  0  0
   -2.5732   -8.7901    3.4750 H   0  0  0  0  0  0  0  0  0  0  0  0
   -1.2361   -8.3971    4.5542 H   0  0  0  0  0  0  0  0  0  0  0  0
   -1.0754   -9.7137    3.3567 H   0  0  0  0  0  0  0  0  0  0  0  0
    1.1970   -8.5896    4.1710 H   0  0  0  0  0  0  0  0  0  0  0  0
    3.1999   -8.3919    2.4468 H   0  0  0  0  0  0  0  0  0  0  0  0
  1  2  1  0
  1 22  1  0
  1 23  1  0
  1 24  1  0
  2 25  1  0
  2 26  1  0
  2  3  1  0
  3  8  1  0
  3  4  1  0
  4  5  2  0
  4  6  1  0
  6 11  1  0
  6 27  1  1
  6  7  1  0
  7 10  1  0
  7 28  1  1
  7  8  1  0
  8  9  2  0
 10 21  1  0
 10 11  1  0
 10 29  1  1
 11 12  1  0
 11 30  1  1
 12 13  1  0
 12 31  1  0
 12 32  1  0
 13 14  1  0
 13 33  1  0
 13 34  1  0
 14 21  1  0
 14 15  1  0
 15 16  2  0
 15 17  1  0
 17 18  1  0
 17 20  2  0
 18 19  1  0
 19 35  1  0
 19 36  1  0
 19 37  1  0
 20 21  1  0
 20 38  1  0
 21 39  1  6
M  END
>  <i_m_ct_stereo_status>  (260) 
1

>  <s_m_source_file>  (260) 
/var/tmp/pbs.5076255.sched01/tmpelb551ou/82hj6rxffr.sdf

>  <i_m_source_file_index>  (260) 
35

>  <i_lp_mmshare_version>  (260) 
48012

>  <i_f3d_flags>  (260) 
0

>  <s_epik_input>  (260) 
W0NIM11bQ0gyXW4oYzFbT0hdKWMoW09IXSljKGMxMilbQ0BIXTNbQ0BASF0yW0NIMl1bQ0gyXU40W0NAQEhdM1tDSF09QyhDND1PKU9bQ0gzXQ==

>  <s_epik_cmdline>  (260) 
J2VwaWtfcHl0aG9uJywgJy1waHQnLCAnMi4wJywgJy1waCcsICc3LjAnLCAnLXRuJywgJzgnLCAnLW1hJywgJzIwMCcsICctaW1hZScsICc8aW5maWxlLm1hZT4nLCAnLW9tYWUnLCAnPG91dGZpbGUubWFlPic=

>  <r_lp_tautomer_probability>  (260) 
1

>  <r_epik_Ionization_Penalty>  (260) 
9.3345e-09

>  <r_epik_Ionization_Penalty_Charging>  (260) 
0

>  <r_epik_Ionization_Penalty_Neutral>  (260) 
9.3345e-09

>  <r_epik_State_Penalty>  (260) 
-0

>  <r_epik_Charging_Adjusted_Penalty>  (260) 
0

>  <i_epik_Tot_Q>  (260) 
0

>  <i_epik_Tot_abs_Q>  (260) 
0

>  <s_lp_Force_Field>  (260) 
OPLS3e

>  <r_lp_Energy>  (260) 
20.6443

>  <b_lp_Chiralities_Consistent>  (260) 
1

>  <s_lp_Variant>  (260) 
86:0-2

>  <s_i_glide_gridfile>  (260) 
pfpi4k_grid

>  <i_i_glide_lignum>  (260) 
35

>  <i_i_glide_rotatable_bonds>  (260) 
2

>  <r_i_docking_score>  (260) 
-3.74251

>  <r_i_glide_ligand_efficiency>  (260) 
-0.178215

>  <r_i_glide_ligand_efficiency_sa>  (260) 
-0.491681

>  <r_i_glide_ligand_efficiency_ln>  (260) 
-0.925328

>  <r_i_glide_gscore>  (260) 
-3.74251

>  <r_i_glide_lipo>  (260) 
-0.0903883

>  <r_i_glide_hbond>  (260) 
-0.23543

>  <r_i_glide_metal>  (260) 
-0

>  <r_i_glide_rewards>  (260) 
-1.49047

>  <r_i_glide_evdw>  (260) 
-20.0721

>  <r_i_glide_ecoul>  (260) 
-5.48615

>  <r_i_glide_erotb>  (260) 
0

>  <r_i_glide_esite>  (260) 
-0.0996914

>  <r_i_glide_emodel>  (260) 
-31.5717

>  <r_i_glide_energy>  (260) 
-25.5582

>  <r_i_glide_einternal>  (260) 
0.603006

>  <r_i_glide_intrahb_reward>  (260) 
-0

>  <i_i_glide_confnum>  (260) 
2

>  <i_i_glide_posenum>  (260) 
16

>  <r_i_glide_eff_state_penalty>  (260) 
0

>  <ligand_id>  (260) 
86

>  <original_smiles>  (260) 
CCn1c(O)c2c(c1O)C1C2CCN2C(=O)C(OC)=CC12

>  <smiles>  (260) 
[H]C1=C(OC([H])([H])[H])C(=O)N2C([H])([H])C([H])([H])C3([H])C4([H])C(=O)N(C([H])([H])C([H])([H])[H])C(=O)C4([H])C3([H])C12[H]

$$$$
86:1:1
     RDKit          3D

 39 42  0  0  1  0  0  0  0  0999 V2000
    1.8035   -0.7339    6.6201 C   0  0  0  0  0  0  0  0  0  0  0  0
    2.6407   -1.2708    5.4484 C   0  0  0  0  0  0  0  0  0  0  0  0
    2.4440   -0.5091    4.2114 N   0  0  0  0  0  0  0  0  0  0  0  0
    1.5008   -0.7918    3.3031 C   0  0  0  0  0  0  0  0  0  0  0  0
    0.6547   -1.6873    3.3874 O   0  0  0  0  0  0  0  0  0  0  0  0
    1.5924    0.1725    2.1173 C   0  0  2  0  0  0  0  0  0  0  0  0
    2.6388    1.1862    2.5730 C   0  0  2  0  0  0  0  0  0  0  0  0
    3.1649    0.5722    3.8709 C   0  0  0  0  0  0  0  0  0  0  0  0
    4.1049    1.0468    4.5066 O   0  0  0  0  0  0  0  0  0  0  0  0
    1.5322    2.2638    2.7209 C   0  0  1  0  0  0  0  0  0  0  0  0
    0.5513    1.3005    1.9966 C   0  0  2  0  0  0  0  0  0  0  0  0
   -0.8858    1.1430    2.5408 C   0  0  0  0  0  0  0  0  0  0  0  0
   -0.9806    1.4490    4.0363 C   0  0  0  0  0  0  0  0  0  0  0  0
   -0.3409    2.7326    4.2584 N   0  0  0  0  0  0  0  0  0  0  0  0
   -0.9423    3.9186    4.4592 C   0  0  0  0  0  0  0  0  0  0  0  0
   -2.1522    4.1183    4.5560 O   0  0  0  0  0  0  0  0  0  0  0  0
    0.1204    4.8942    4.5390 C   0  0  0  0  0  0  0  0  0  0  0  0
   -0.1392    6.2108    4.8220 O   0  0  0  0  0  0  0  0  0  0  0  0
    0.9588    7.1096    4.7910 C   0  0  0  0  0  0  0  0  0  0  0  0
    1.2986    4.2864    4.3167 C   0  0  0  0  0  0  0  0  0  0  0  0
    1.1037    2.8079    4.1226 C   0  0  2  0  0  0  0  0  0  0  0  0
    1.9857   -1.3270    7.5148 H   0  0  0  0  0  0  0  0  0  0  0  0
    0.7366   -0.7802    6.4072 H   0  0  0  0  0  0  0  0  0  0  0  0
    2.0581    0.2986    6.8547 H   0  0  0  0  0  0  0  0  0  0  0  0
    3.6968   -1.2606    5.7172 H   0  0  0  0  0  0  0  0  0  0  0  0
    2.3945   -2.3188    5.2727 H   0  0  0  0  0  0  0  0  0  0  0  0
    1.8345   -0.3056    1.1663 H   0  0  0  0  0  0  0  0  0  0  0  0
    3.3888    1.4019    1.8042 H   0  0  0  0  0  0  0  0  0  0  0  0
    1.7544    3.0856    2.0379 H   0  0  0  0  0  0  0  0  0  0  0  0
    0.5086    1.5637    0.9377 H   0  0  0  0  0  0  0  0  0  0  0  0
   -1.5617    1.8155    2.0090 H   0  0  0  0  0  0  0  0  0  0  0  0
   -1.2728    0.1489    2.3445 H   0  0  0  0  0  0  0  0  0  0  0  0
   -2.0171    1.4544    4.3635 H   0  0  0  0  0  0  0  0  0  0  0  0
   -0.4616    0.6928    4.6233 H   0  0  0  0  0  0  0  0  0  0  0  0
    0.5761    8.1071    4.9963 H   0  0  0  0  0  0  0  0  0  0  0  0
    1.4325    7.1306    3.8107 H   0  0  0  0  0  0  0  0  0  0  0  0
    1.6956    6.8682    5.5556 H   0  0  0  0  0  0  0  0  0  0  0  0
    2.2787    4.7448    4.3300 H   0  0  0  0  0  0  0  0  0  0  0  0
    1.5437    2.2817    4.9694 H   0  0  0  0  0  0  0  0  0  0  0  0
  1  2  1  0
  1 22  1  0
  1 23  1  0
  1 24  1  0
  2 25  1  0
  2 26  1  0
  2  3  1  0
  3  8  1  0
  3  4  1  0
  4  5  2  0
  4  6  1  0
  6 11  1  0
  6 27  1  6
  6  7  1  0
  7 10  1  0
  7 28  1  6
  7  8  1  0
  8  9  2  0
 10 21  1  0
 10 11  1  0
 10 29  1  6
 11 12  1  0
 11 30  1  6
 12 13  1  0
 12 31  1  0
 12 32  1  0
 13 14  1  0
 13 33  1  0
 13 34  1  0
 14 21  1  0
 14 15  1  0
 15 16  2  0
 15 17  1  0
 17 18  1  0
 17 20  2  0
 18 19  1  0
 19 35  1  0
 19 36  1  0
 19 37  1  0
 20 21  1  0
 20 38  1  0
 21 39  1  1
M  END
>  <i_m_ct_stereo_status>  (261) 
1

>  <s_m_source_file>  (261) 
/var/tmp/pbs.5076255.sched01/tmpelb551ou/82hj6rxffr.sdf

>  <i_m_source_file_index>  (261) 
35

>  <i_lp_mmshare_version>  (261) 
48012

>  <i_f3d_flags>  (261) 
0

>  <s_epik_input>  (261) 
W0NIM11bQ0gyXW4oYzFbT0hdKWMoW09IXSljKGMxMilbQ0BIXTNbQ0BASF0yW0NIMl1bQ0gyXU40W0NAQEhdM1tDSF09QyhDND1PKU9bQ0gzXQ==

>  <s_epik_cmdline>  (261) 
J2VwaWtfcHl0aG9uJywgJy1waHQnLCAnMi4wJywgJy1waCcsICc3LjAnLCAnLXRuJywgJzgnLCAnLW1hJywgJzIwMCcsICctaW1hZScsICc8aW5maWxlLm1hZT4nLCAnLW9tYWUnLCAnPG91dGZpbGUubWFlPic=

>  <r_lp_tautomer_probability>  (261) 
1

>  <r_epik_Ionization_Penalty>  (261) 
9.3345e-09

>  <r_epik_Ionization_Penalty_Charging>  (261) 
0

>  <r_epik_Ionization_Penalty_Neutral>  (261) 
9.3345e-09

>  <r_epik_State_Penalty>  (261) 
-0

>  <r_epik_Charging_Adjusted_Penalty>  (261) 
0

>  <i_epik_Tot_Q>  (261) 
0

>  <i_epik_Tot_abs_Q>  (261) 
0

>  <s_lp_Force_Field>  (261) 
OPLS3e

>  <r_lp_Energy>  (261) 
20.6443

>  <b_lp_Chiralities_Consistent>  (261) 
1

>  <s_lp_Variant>  (261) 
86:0-2

>  <s_i_glide_gridfile>  (261) 
pfpi4k_grid

>  <i_i_glide_lignum>  (261) 
35

>  <i_i_glide_rotatable_bonds>  (261) 
2

>  <r_i_docking_score>  (261) 
-2.80503

>  <r_i_glide_ligand_efficiency>  (261) 
-0.133573

>  <r_i_glide_ligand_efficiency_sa>  (261) 
-0.368518

>  <r_i_glide_ligand_efficiency_ln>  (261) 
-0.693539

>  <r_i_glide_gscore>  (261) 
-2.80503

>  <r_i_glide_lipo>  (261) 
-0.00694961

>  <r_i_glide_hbond>  (261) 
-0.0374823

>  <r_i_glide_metal>  (261) 
-0

>  <r_i_glide_rewards>  (261) 
-1.42967

>  <r_i_glide_evdw>  (261) 
-17.9466

>  <r_i_glide_ecoul>  (261) 
-2.30637

>  <r_i_glide_erotb>  (261) 
0

>  <r_i_glide_esite>  (261) 
-0.0876397

>  <r_i_glide_emodel>  (261) 
-24.9119

>  <r_i_glide_energy>  (261) 
-20.253

>  <r_i_glide_einternal>  (261) 
0.0337296

>  <r_i_glide_intrahb_reward>  (261) 
-0

>  <i_i_glide_confnum>  (261) 
1

>  <i_i_glide_posenum>  (261) 
19

>  <r_i_glide_eff_state_penalty>  (261) 
0

>  <ligand_id>  (261) 
86

>  <original_smiles>  (261) 
CCn1c(O)c2c(c1O)C1C2CCN2C(=O)C(OC)=CC12

>  <smiles>  (261) 
[H]C1=C(OC([H])([H])[H])C(=O)N2C([H])([H])C([H])([H])C3([H])C4([H])C(=O)N(C([H])([H])C([H])([H])[H])C(=O)C4([H])C3([H])C12[H]

$$$$
86:1:2
     RDKit          3D

 39 42  0  0  1  0  0  0  0  0999 V2000
    1.7319   -4.2365    4.3458 C   0  0  0  0  0  0  0  0  0  0  0  0
    0.7386   -3.0724    4.2412 C   0  0  0  0  0  0  0  0  0  0  0  0
    1.4088   -1.7805    4.3884 N   0  0  0  0  0  0  0  0  0  0  0  0
    1.8454   -1.0412    3.3587 C   0  0  0  0  0  0  0  0  0  0  0  0
    1.7302   -1.3229    2.1651 O   0  0  0  0  0  0  0  0  0  0  0  0
    2.5194    0.2373    3.8579 C   0  0  2  0  0  0  0  0  0  0  0  0
    2.2431    0.2095    5.3625 C   0  0  2  0  0  0  0  0  0  0  0  0
    1.6200   -1.1718    5.5653 C   0  0  0  0  0  0  0  0  0  0  0  0
    1.3229   -1.6190    6.6729 O   0  0  0  0  0  0  0  0  0  0  0  0
    1.2427    1.3910    5.2025 C   0  0  1  0  0  0  0  0  0  0  0  0
    1.7511    1.5670    3.7424 C   0  0  2  0  0  0  0  0  0  0  0  0
    0.7283    1.8272    2.6179 C   0  0  0  0  0  0  0  0  0  0  0  0
   -0.6617    1.2702    2.9554 C   0  0  0  0  0  0  0  0  0  0  0  0
   -1.0174    1.7466    4.2798 N   0  0  0  0  0  0  0  0  0  0  0  0
   -1.8764    2.7289    4.5967 C   0  0  0  0  0  0  0  0  0  0  0  0
   -2.5769    3.3726    3.8159 O   0  0  0  0  0  0  0  0  0  0  0  0
   -1.8067    2.8687    6.0333 C   0  0  0  0  0  0  0  0  0  0  0  0
   -2.6198    3.7426    6.7075 O   0  0  0  0  0  0  0  0  0  0  0  0
   -2.5345    3.7736    8.1205 C   0  0  0  0  0  0  0  0  0  0  0  0
   -0.8915    2.0178    6.5235 C   0  0  0  0  0  0  0  0  0  0  0  0
   -0.2869    1.1952    5.4144 C   0  0  2  0  0  0  0  0  0  0  0  0
    1.2182   -5.1898    4.2420 H   0  0  0  0  0  0  0  0  0  0  0  0
    2.2400   -4.2364    5.3087 H   0  0  0  0  0  0  0  0  0  0  0  0
    2.4896   -4.1792    3.5645 H   0  0  0  0  0  0  0  0  0  0  0  0
    0.2157   -3.1140    3.2847 H   0  0  0  0  0  0  0  0  0  0  0  0
   -0.0390   -3.1787    4.9978 H   0  0  0  0  0  0  0  0  0  0  0  0
    3.5749    0.3189    3.6014 H   0  0  0  0  0  0  0  0  0  0  0  0
    3.1242    0.4341    5.9681 H   0  0  0  0  0  0  0  0  0  0  0  0
    1.6136    2.2407    5.7818 H   0  0  0  0  0  0  0  0  0  0  0  0
    2.5084    2.3536    3.7317 H   0  0  0  0  0  0  0  0  0  0  0  0
    0.6271    2.9053    2.4742 H   0  0  0  0  0  0  0  0  0  0  0  0
    1.0737    1.4292    1.6616 H   0  0  0  0  0  0  0  0  0  0  0  0
   -1.3981    1.5731    2.2118 H   0  0  0  0  0  0  0  0  0  0  0  0
   -0.6504    0.1828    2.9688 H   0  0  0  0  0  0  0  0  0  0  0  0
   -3.2211    4.5441    8.4711 H   0  0  0  0  0  0  0  0  0  0  0  0
   -1.5348    4.0402    8.4625 H   0  0  0  0  0  0  0  0  0  0  0  0
   -2.8429    2.8256    8.5575 H   0  0  0  0  0  0  0  0  0  0  0  0
   -0.6266    1.8702    7.5631 H   0  0  0  0  0  0  0  0  0  0  0  0
   -0.6039    0.1611    5.5385 H   0  0  0  0  0  0  0  0  0  0  0  0
  1  2  1  0
  1 22  1  0
  1 23  1  0
  1 24  1  0
  2 25  1  0
  2 26  1  0
  2  3  1  0
  3  8  1  0
  3  4  1  0
  4  5  2  0
  4  6  1  0
  6 11  1  0
  6 27  1  1
  6  7  1  0
  7 10  1  0
  7 28  1  1
  7  8  1  0
  8  9  2  0
 10 21  1  0
 10 11  1  0
 10 29  1  1
 11 12  1  0
 11 30  1  1
 12 13  1  0
 12 31  1  0
 12 32  1  0
 13 14  1  0
 13 33  1  0
 13 34  1  0
 14 21  1  0
 14 15  1  0
 15 16  2  0
 15 17  1  0
 17 18  1  0
 17 20  2  0
 18 19  1  0
 19 35  1  0
 19 36  1  0
 19 37  1  0
 20 21  1  0
 20 38  1  0
 21 39  1  1
M  END
>  <i_m_ct_stereo_status>  (262) 
1

>  <s_m_source_file>  (262) 
/var/tmp/pbs.5076255.sched01/tmpelb551ou/82hj6rxffr.sdf

>  <i_m_source_file_index>  (262) 
35

>  <i_lp_mmshare_version>  (262) 
48012

>  <i_f3d_flags>  (262) 
0

>  <s_epik_input>  (262) 
W0NIM11bQ0gyXW4oYzFbT0hdKWMoW09IXSljKGMxMilbQ0BIXTNbQ0BASF0yW0NIMl1bQ0gyXU40W0NAQEhdM1tDSF09QyhDND1PKU9bQ0gzXQ==

>  <s_epik_cmdline>  (262) 
J2VwaWtfcHl0aG9uJywgJy1waHQnLCAnMi4wJywgJy1waCcsICc3LjAnLCAnLXRuJywgJzgnLCAnLW1hJywgJzIwMCcsICctaW1hZScsICc8aW5maWxlLm1hZT4nLCAnLW9tYWUnLCAnPG91dGZpbGUubWFlPic=

>  <r_lp_tautomer_probability>  (262) 
1

>  <r_epik_Ionization_Penalty>  (262) 
9.3345e-09

>  <r_epik_Ionization_Penalty_Charging>  (262) 
0

>  <r_epik_Ionization_Penalty_Neutral>  (262) 
9.3345e-09

>  <r_epik_State_Penalty>  (262) 
-0

>  <r_epik_Charging_Adjusted_Penalty>  (262) 
0

>  <i_epik_Tot_Q>  (262) 
0

>  <i_epik_Tot_abs_Q>  (262) 
0

>  <s_lp_Force_Field>  (262) 
OPLS3e

>  <r_lp_Energy>  (262) 
20.6443

>  <b_lp_Chiralities_Consistent>  (262) 
1

>  <s_lp_Variant>  (262) 
86:0-2

>  <s_i_glide_gridfile>  (262) 
pfpi4k_grid

>  <i_i_glide_lignum>  (262) 
35

>  <i_i_glide_rotatable_bonds>  (262) 
2

>  <r_i_docking_score>  (262) 
-2.71634

>  <r_i_glide_ligand_efficiency>  (262) 
-0.129349

>  <r_i_glide_ligand_efficiency_sa>  (262) 
-0.356865

>  <r_i_glide_ligand_efficiency_ln>  (262) 
-0.671609

>  <r_i_glide_gscore>  (262) 
-2.71634

>  <r_i_glide_lipo>  (262) 
-0.16013

>  <r_i_glide_hbond>  (262) 
0

>  <r_i_glide_metal>  (262) 
-0

>  <r_i_glide_rewards>  (262) 
-1.42967

>  <r_i_glide_evdw>  (262) 
-18.5721

>  <r_i_glide_ecoul>  (262) 
-1.0512

>  <r_i_glide_erotb>  (262) 
0

>  <r_i_glide_esite>  (262) 
-0.0402501

>  <r_i_glide_emodel>  (262) 
-24.1817

>  <r_i_glide_energy>  (262) 
-19.6233

>  <r_i_glide_einternal>  (262) 
0.0369169

>  <r_i_glide_intrahb_reward>  (262) 
-0

>  <i_i_glide_confnum>  (262) 
2

>  <i_i_glide_posenum>  (262) 
2

>  <r_i_glide_eff_state_penalty>  (262) 
0

>  <ligand_id>  (262) 
86

>  <original_smiles>  (262) 
CCn1c(O)c2c(c1O)C1C2CCN2C(=O)C(OC)=CC12

>  <smiles>  (262) 
[H]C1=C(OC([H])([H])[H])C(=O)N2C([H])([H])C([H])([H])C3([H])C4([H])C(=O)N(C([H])([H])C([H])([H])[H])C(=O)C4([H])C3([H])C12[H]

$$$$
87:0:0
     RDKit          3D

 51 52  0  0  1  0  0  0  0  0999 V2000
    7.1171   -1.8578   -1.1316 O   0  0  0  0  0  0  0  0  0  0  0  0
    6.6185   -2.9105   -0.6548 C   0  0  0  0  0  0  0  0  0  0  0  0
    5.8196   -3.6528   -1.2733 O   0  0  0  0  0  0  0  0  0  0  0  0
    7.0624   -3.2439    0.7806 C   0  0  0  0  0  0  0  0  0  0  0  0
    7.0502   -4.7419    1.1414 C   0  0  0  0  0  0  0  0  0  0  0  0
    5.6432   -5.3797    1.1945 C   0  0  0  0  0  0  0  0  0  0  0  0
    5.6585   -6.8480    1.6124 C   0  0  0  0  0  0  0  0  0  0  0  0
    4.2442   -7.4404    1.5289 C   0  0  0  0  0  0  0  0  0  0  0  0
    4.2235   -8.9361    1.8806 C   0  0  0  0  0  0  0  0  0  0  0  0
    2.8497   -9.6025    1.7282 C   0  0  0  0  0  0  0  0  0  0  0  0
    1.8696   -9.1168    2.7826 C   0  0  0  0  0  0  0  0  0  0  0  0
    0.4789   -9.7634    2.6985 C   0  0  0  0  0  0  0  0  0  0  0  0
   -0.4951   -9.0922    3.5672 N   0  0  0  0  0  0  0  0  0  0  0  0
   -0.6055   -7.3698    3.7054 S   0  0  0  0  0  0  0  0  0  0  0  0
   -0.4584   -6.7793    2.3796 O   0  0  0  0  0  0  0  0  0  0  0  0
   -1.8251   -7.0730    4.4822 O   0  0  0  0  0  0  0  0  0  0  0  0
    0.8027   -6.9008    4.7436 C   0  0  0  0  0  0  0  0  0  0  0  0
    1.6625   -5.9013    4.2462 C   0  0  0  0  0  0  0  0  0  0  0  0
    2.7909   -5.4889    4.9831 C   0  0  0  0  0  0  0  0  0  0  0  0
    3.0638   -6.0762    6.2297 C   0  0  0  0  0  0  0  0  0  0  0  0
    2.2130   -7.0814    6.7362 C   0  0  0  0  0  0  0  0  0  0  0  0
    2.4696   -7.6728    7.9876 C   0  0  0  0  0  0  0  0  0  0  0  0
    1.7034   -8.6348    8.5342 N   0  0  0  0  0  0  0  0  0  0  0  0
    0.6481   -9.0720    7.8065 C   0  0  0  0  0  0  0  0  0  0  0  0
    0.2870   -8.5343    6.5675 C   0  0  0  0  0  0  0  0  0  0  0  0
    1.0807   -7.5119    5.9955 C   0  0  0  0  0  0  0  0  0  0  0  0
    8.0783   -2.8659    0.8862 H   0  0  0  0  0  0  0  0  0  0  0  0
    6.4733   -2.6773    1.4983 H   0  0  0  0  0  0  0  0  0  0  0  0
    7.7090   -5.2845    0.4605 H   0  0  0  0  0  0  0  0  0  0  0  0
    7.5189   -4.8537    2.1211 H   0  0  0  0  0  0  0  0  0  0  0  0
    5.0001   -4.7858    1.8513 H   0  0  0  0  0  0  0  0  0  0  0  0
    5.1692   -5.3945    0.2136 H   0  0  0  0  0  0  0  0  0  0  0  0
    6.3177   -7.3923    0.9312 H   0  0  0  0  0  0  0  0  0  0  0  0
    6.0646   -6.9459    2.6232 H   0  0  0  0  0  0  0  0  0  0  0  0
    3.6058   -6.8696    2.2029 H   0  0  0  0  0  0  0  0  0  0  0  0
    3.8314   -7.2938    0.5268 H   0  0  0  0  0  0  0  0  0  0  0  0
    4.9204   -9.4587    1.2282 H   0  0  0  0  0  0  0  0  0  0  0  0
    4.5923   -9.0703    2.8986 H   0  0  0  0  0  0  0  0  0  0  0  0
    2.4415   -9.3997    0.7365 H   0  0  0  0  0  0  0  0  0  0  0  0
    2.9557  -10.6787    1.8183 H   0  0  0  0  0  0  0  0  0  0  0  0
    2.2748   -9.2339    3.7923 H   0  0  0  0  0  0  0  0  0  0  0  0
    1.7890   -8.0579    2.5700 H   0  0  0  0  0  0  0  0  0  0  0  0
    0.0927   -9.7229    1.6839 H   0  0  0  0  0  0  0  0  0  0  0  0
    0.5339  -10.8208    2.9791 H   0  0  0  0  0  0  0  0  0  0  0  0
   -0.7738   -9.6224    4.3921 H   0  0  0  0  0  0  0  0  0  0  0  0
    1.4771   -5.4588    3.2780 H   0  0  0  0  0  0  0  0  0  0  0  0
    3.4529   -4.7318    4.5895 H   0  0  0  0  0  0  0  0  0  0  0  0
    3.9207   -5.7527    6.8060 H   0  0  0  0  0  0  0  0  0  0  0  0
    3.3161   -7.3614    8.5884 H   0  0  0  0  0  0  0  0  0  0  0  0
    0.0570   -9.8630    8.2497 H   0  0  0  0  0  0  0  0  0  0  0  0
   -0.6016   -8.9335    6.0925 H   0  0  0  0  0  0  0  0  0  0  0  0
  1  2  2  0
  2  3  1  0
  2  4  1  0
  4  5  1  0
  4 27  1  0
  4 28  1  0
  5  6  1  0
  5 29  1  0
  5 30  1  0
  6  7  1  0
  6 31  1  0
  6 32  1  0
  7  8  1  0
  7 33  1  0
  7 34  1  0
  8  9  1  0
  8 35  1  0
  8 36  1  0
  9 10  1  0
  9 37  1  0
  9 38  1  0
 10 11  1  0
 10 39  1  0
 10 40  1  0
 11 12  1  0
 11 41  1  0
 11 42  1  0
 12 13  1  0
 12 43  1  0
 12 44  1  0
 13 14  1  0
 13 45  1  0
 14 15  2  0
 14 16  2  0
 14 17  1  0
 17 26  2  0
 17 18  1  0
 18 19  2  0
 18 46  1  0
 19 20  1  0
 19 47  1  0
 20 21  2  0
 20 48  1  0
 21 26  1  0
 21 22  1  0
 22 23  2  0
 22 49  1  0
 23 24  1  0
 24 25  2  0
 24 50  1  0
 25 26  1  0
 25 51  1  0
M  CHG  1   3  -1
M  END
>  <i_m_ct_stereo_status>  (263) 
1

>  <s_m_source_file>  (263) 
/var/tmp/pbs.5076255.sched01/tmpelb551ou/82hj6rxffr.sdf

>  <i_m_source_file_index>  (263) 
36

>  <i_lp_mmshare_version>  (263) 
48012

>  <i_f3d_flags>  (263) 
0

>  <s_epik_input>  (263) 
Tz1DKFtPSF0pW0NIMl1bQ0gyXVtDSDJdW0NIMl1bQ0gyXVtDSDJdW0NIMl1bQ0gyXVtDSDJdW05IXVMoPU8pKD1PKWMoW2NIXVtjSF1bY0hdMSljKGMxMilbY0hdW2NIXW5bY0hdMg==

>  <s_epik_cmdline>  (263) 
J2VwaWtfcHl0aG9uJywgJy1waHQnLCAnMi4wJywgJy1waCcsICc3LjAnLCAnLXRuJywgJzgnLCAnLW1hJywgJzIwMCcsICctaW1hZScsICc8aW5maWxlLm1hZT4nLCAnLW9tYWUnLCAnPG91dGZpbGUubWFlPic=

>  <r_lp_tautomer_probability>  (263) 
1

>  <r_epik_Ionization_Penalty>  (263) 
0.00634187

>  <r_epik_Ionization_Penalty_Charging>  (263) 
0.00486578

>  <r_epik_Ionization_Penalty_Neutral>  (263) 
0.00147609

>  <r_epik_State_Penalty>  (263) 
-0

>  <r_epik_Charging_Adjusted_Penalty>  (263) 
0.00486578

>  <i_epik_Tot_Q>  (263) 
-1

>  <i_epik_Tot_abs_Q>  (263) 
1

>  <s_lp_Force_Field>  (263) 
OPLS3e

>  <r_lp_Energy>  (263) 
15.7071

>  <b_lp_Chiralities_Consistent>  (263) 
1

>  <s_lp_Variant>  (263) 
87:0-1

>  <s_i_glide_gridfile>  (263) 
pfpi4k_grid

>  <i_i_glide_lignum>  (263) 
36

>  <i_i_glide_rotatable_bonds>  (263) 
12

>  <r_i_docking_score>  (263) 
-2.93769

>  <r_i_glide_ligand_efficiency>  (263) 
-0.112988

>  <r_i_glide_ligand_efficiency_sa>  (263) 
-0.334727

>  <r_i_glide_ligand_efficiency_ln>  (263) 
-0.689907

>  <r_i_glide_gscore>  (263) 
-2.93769

>  <r_i_glide_lipo>  (263) 
-0.464128

>  <r_i_glide_hbond>  (263) 
-0.287476

>  <r_i_glide_metal>  (263) 
-0

>  <r_i_glide_rewards>  (263) 
-0.858992

>  <r_i_glide_evdw>  (263) 
-22.0095

>  <r_i_glide_ecoul>  (263) 
-8.79011

>  <r_i_glide_erotb>  (263) 
1.35931

>  <r_i_glide_esite>  (263) 
-0.267413

>  <r_i_glide_emodel>  (263) 
-37.989

>  <r_i_glide_energy>  (263) 
-30.7996

>  <r_i_glide_einternal>  (263) 
2.90154

>  <r_i_glide_intrahb_reward>  (263) 
-0

>  <i_i_glide_confnum>  (263) 
11

>  <i_i_glide_posenum>  (263) 
5

>  <r_i_glide_eff_state_penalty>  (263) 
0

>  <ligand_id>  (263) 
87

>  <original_smiles>  (263) 
O=C(O)CCCCCCCCCNS(=O)(=O)c1cccc2cnccc12

>  <smiles>  (263) 
[H]c1nc([H])c2c([H])c([H])c([H])c(S(=O)(=O)N([H])C([H])([H])C([H])([H])C([H])([H])C([H])([H])C([H])([H])C([H])([H])C([H])([H])C([H])([H])C([H])([H])C(=O)[O-])c2c1[H]

$$$$
87:0:1
     RDKit          3D

 51 52  0  0  1  0  0  0  0  0999 V2000
   -1.8273    0.3402    6.4816 O   0  0  0  0  0  0  0  0  0  0  0  0
   -1.5142   -0.5467    5.6745 C   0  0  0  0  0  0  0  0  0  0  0  0
   -2.2147   -1.5575    5.4600 O   0  0  0  0  0  0  0  0  0  0  0  0
   -0.1791   -0.3937    4.9290 C   0  0  0  0  0  0  0  0  0  0  0  0
    0.4510   -1.7137    4.4219 C   0  0  0  0  0  0  0  0  0  0  0  0
    0.5761   -2.8274    5.4824 C   0  0  0  0  0  0  0  0  0  0  0  0
    1.6026   -3.9040    5.1289 C   0  0  0  0  0  0  0  0  0  0  0  0
    1.5343   -5.0799    6.1104 C   0  0  0  0  0  0  0  0  0  0  0  0
    2.7724   -5.9846    6.0331 C   0  0  0  0  0  0  0  0  0  0  0  0
    2.5172   -7.3850    6.6156 C   0  0  0  0  0  0  0  0  0  0  0  0
    1.7773   -8.2613    5.6174 C   0  0  0  0  0  0  0  0  0  0  0  0
    1.3645   -9.6414    6.1493 C   0  0  0  0  0  0  0  0  0  0  0  0
    0.7119  -10.4351    5.0968 N   0  0  0  0  0  0  0  0  0  0  0  0
    1.5927  -11.1999    3.8310 S   0  0  0  0  0  0  0  0  0  0  0  0
    2.7437  -11.8712    4.4446 O   0  0  0  0  0  0  0  0  0  0  0  0
    0.6209  -11.9380    3.0208 O   0  0  0  0  0  0  0  0  0  0  0  0
    2.2037   -9.8667    2.8013 C   0  0  0  0  0  0  0  0  0  0  0  0
    3.5802   -9.8780    2.5022 C   0  0  0  0  0  0  0  0  0  0  0  0
    4.1672   -8.8320    1.7643 C   0  0  0  0  0  0  0  0  0  0  0  0
    3.3754   -7.7556    1.3394 C   0  0  0  0  0  0  0  0  0  0  0  0
    2.0007   -7.7243    1.6463 C   0  0  0  0  0  0  0  0  0  0  0  0
    1.2024   -6.6586    1.2174 C   0  0  0  0  0  0  0  0  0  0  0  0
   -0.1082   -6.5510    1.4883 N   0  0  0  0  0  0  0  0  0  0  0  0
   -0.6791   -7.5424    2.2146 C   0  0  0  0  0  0  0  0  0  0  0  0
    0.0127   -8.6621    2.6585 C   0  0  0  0  0  0  0  0  0  0  0  0
    1.3942   -8.7824    2.3768 C   0  0  0  0  0  0  0  0  0  0  0  0
   -0.3179    0.2897    4.0929 H   0  0  0  0  0  0  0  0  0  0  0  0
    0.5248    0.0906    5.5996 H   0  0  0  0  0  0  0  0  0  0  0  0
   -0.0987   -2.0903    3.5587 H   0  0  0  0  0  0  0  0  0  0  0  0
    1.4441   -1.4698    4.0414 H   0  0  0  0  0  0  0  0  0  0  0  0
    0.8437   -2.3915    6.4449 H   0  0  0  0  0  0  0  0  0  0  0  0
   -0.3855   -3.3197    5.6130 H   0  0  0  0  0  0  0  0  0  0  0  0
    1.4199   -4.2760    4.1197 H   0  0  0  0  0  0  0  0  0  0  0  0
    2.5964   -3.4587    5.1356 H   0  0  0  0  0  0  0  0  0  0  0  0
    1.4367   -4.7272    7.1389 H   0  0  0  0  0  0  0  0  0  0  0  0
    0.6177   -5.6361    5.9089 H   0  0  0  0  0  0  0  0  0  0  0  0
    3.1359   -6.0559    5.0029 H   0  0  0  0  0  0  0  0  0  0  0  0
    3.5777   -5.5103    6.5914 H   0  0  0  0  0  0  0  0  0  0  0  0
    3.4765   -7.8691    6.8078 H   0  0  0  0  0  0  0  0  0  0  0  0
    1.9751   -7.3334    7.5588 H   0  0  0  0  0  0  0  0  0  0  0  0
    0.9054   -7.7601    5.1958 H   0  0  0  0  0  0  0  0  0  0  0  0
    2.5199   -8.3533    4.8286 H   0  0  0  0  0  0  0  0  0  0  0  0
    2.2212  -10.1935    6.5375 H   0  0  0  0  0  0  0  0  0  0  0  0
    0.6615   -9.5273    6.9789 H   0  0  0  0  0  0  0  0  0  0  0  0
   -0.2744  -10.2643    4.9061 H   0  0  0  0  0  0  0  0  0  0  0  0
    4.2013  -10.7040    2.8537 H   0  0  0  0  0  0  0  0  0  0  0  0
    5.2343   -8.8585    1.5384 H   0  0  0  0  0  0  0  0  0  0  0  0
    3.8206   -6.9574    0.7601 H   0  0  0  0  0  0  0  0  0  0  0  0
    1.6278   -5.8594    0.6336 H   0  0  0  0  0  0  0  0  0  0  0  0
   -1.7326   -7.4260    2.4455 H   0  0  0  0  0  0  0  0  0  0  0  0
   -0.5392   -9.4019    3.2113 H   0  0  0  0  0  0  0  0  0  0  0  0
  1  2  2  0
  2  3  1  0
  2  4  1  0
  4  5  1  0
  4 27  1  0
  4 28  1  0
  5  6  1  0
  5 29  1  0
  5 30  1  0
  6  7  1  0
  6 31  1  0
  6 32  1  0
  7  8  1  0
  7 33  1  0
  7 34  1  0
  8  9  1  0
  8 35  1  0
  8 36  1  0
  9 10  1  0
  9 37  1  0
  9 38  1  0
 10 11  1  0
 10 39  1  0
 10 40  1  0
 11 12  1  0
 11 41  1  0
 11 42  1  0
 12 13  1  0
 12 43  1  0
 12 44  1  0
 13 14  1  0
 13 45  1  0
 14 15  2  0
 14 16  2  0
 14 17  1  0
 17 26  2  0
 17 18  1  0
 18 19  2  0
 18 46  1  0
 19 20  1  0
 19 47  1  0
 20 21  2  0
 20 48  1  0
 21 26  1  0
 21 22  1  0
 22 23  2  0
 22 49  1  0
 23 24  1  0
 24 25  2  0
 24 50  1  0
 25 26  1  0
 25 51  1  0
M  CHG  1   3  -1
M  END
>  <i_m_ct_stereo_status>  (264) 
1

>  <s_m_source_file>  (264) 
/var/tmp/pbs.5076255.sched01/tmpelb551ou/82hj6rxffr.sdf

>  <i_m_source_file_index>  (264) 
36

>  <i_lp_mmshare_version>  (264) 
48012

>  <i_f3d_flags>  (264) 
0

>  <s_epik_input>  (264) 
Tz1DKFtPSF0pW0NIMl1bQ0gyXVtDSDJdW0NIMl1bQ0gyXVtDSDJdW0NIMl1bQ0gyXVtDSDJdW05IXVMoPU8pKD1PKWMoW2NIXVtjSF1bY0hdMSljKGMxMilbY0hdW2NIXW5bY0hdMg==

>  <s_epik_cmdline>  (264) 
J2VwaWtfcHl0aG9uJywgJy1waHQnLCAnMi4wJywgJy1waCcsICc3LjAnLCAnLXRuJywgJzgnLCAnLW1hJywgJzIwMCcsICctaW1hZScsICc8aW5maWxlLm1hZT4nLCAnLW9tYWUnLCAnPG91dGZpbGUubWFlPic=

>  <r_lp_tautomer_probability>  (264) 
1

>  <r_epik_Ionization_Penalty>  (264) 
0.00634187

>  <r_epik_Ionization_Penalty_Charging>  (264) 
0.00486578

>  <r_epik_Ionization_Penalty_Neutral>  (264) 
0.00147609

>  <r_epik_State_Penalty>  (264) 
-0

>  <r_epik_Charging_Adjusted_Penalty>  (264) 
0.00486578

>  <i_epik_Tot_Q>  (264) 
-1

>  <i_epik_Tot_abs_Q>  (264) 
1

>  <s_lp_Force_Field>  (264) 
OPLS3e

>  <r_lp_Energy>  (264) 
15.7071

>  <b_lp_Chiralities_Consistent>  (264) 
1

>  <s_lp_Variant>  (264) 
87:0-1

>  <s_i_glide_gridfile>  (264) 
pfpi4k_grid

>  <i_i_glide_lignum>  (264) 
36

>  <i_i_glide_rotatable_bonds>  (264) 
12

>  <r_i_docking_score>  (264) 
-2.89773

>  <r_i_glide_ligand_efficiency>  (264) 
-0.111451

>  <r_i_glide_ligand_efficiency_sa>  (264) 
-0.330174

>  <r_i_glide_ligand_efficiency_ln>  (264) 
-0.680523

>  <r_i_glide_gscore>  (264) 
-2.89773

>  <r_i_glide_lipo>  (264) 
-0.0606346

>  <r_i_glide_hbond>  (264) 
-0.603697

>  <r_i_glide_metal>  (264) 
-0

>  <r_i_glide_rewards>  (264) 
-0.985027

>  <r_i_glide_evdw>  (264) 
-24.3009

>  <r_i_glide_ecoul>  (264) 
-8.06405

>  <r_i_glide_erotb>  (264) 
1.35931

>  <r_i_glide_esite>  (264) 
-0.183035

>  <r_i_glide_emodel>  (264) 
-38.3757

>  <r_i_glide_energy>  (264) 
-32.365

>  <r_i_glide_einternal>  (264) 
5.35579

>  <r_i_glide_intrahb_reward>  (264) 
-0

>  <i_i_glide_confnum>  (264) 
12

>  <i_i_glide_posenum>  (264) 
21

>  <r_i_glide_eff_state_penalty>  (264) 
0

>  <ligand_id>  (264) 
87

>  <original_smiles>  (264) 
O=C(O)CCCCCCCCCNS(=O)(=O)c1cccc2cnccc12

>  <smiles>  (264) 
[H]c1nc([H])c2c([H])c([H])c([H])c(S(=O)(=O)N([H])C([H])([H])C([H])([H])C([H])([H])C([H])([H])C([H])([H])C([H])([H])C([H])([H])C([H])([H])C([H])([H])C(=O)[O-])c2c1[H]

$$$$
87:0:2
     RDKit          3D

 51 52  0  0  1  0  0  0  0  0999 V2000
   -1.8049   -7.1096    3.8720 O   0  0  0  0  0  0  0  0  0  0  0  0
   -1.1347   -7.4531    2.8751 C   0  0  0  0  0  0  0  0  0  0  0  0
   -0.7131   -6.6578    2.0085 O   0  0  0  0  0  0  0  0  0  0  0  0
   -0.8390   -8.9400    2.6719 C   0  0  0  0  0  0  0  0  0  0  0  0
    0.6650   -9.3054    2.7480 C   0  0  0  0  0  0  0  0  0  0  0  0
    1.6327   -8.3126    2.0659 C   0  0  0  0  0  0  0  0  0  0  0  0
    3.0546   -8.8460    1.8709 C   0  0  0  0  0  0  0  0  0  0  0  0
    4.0549   -7.6953    1.6975 C   0  0  0  0  0  0  0  0  0  0  0  0
    5.4402   -8.1993    1.2695 C   0  0  0  0  0  0  0  0  0  0  0  0
    6.5909   -7.2058    1.5326 C   0  0  0  0  0  0  0  0  0  0  0  0
    6.4377   -5.8979    0.7456 C   0  0  0  0  0  0  0  0  0  0  0  0
    7.5757   -4.8973    0.9973 C   0  0  0  0  0  0  0  0  0  0  0  0
    7.3974   -3.6538    0.2206 N   0  0  0  0  0  0  0  0  0  0  0  0
    6.2471   -2.4376    0.6942 S   0  0  0  0  0  0  0  0  0  0  0  0
    6.1474   -2.4736    2.1564 O   0  0  0  0  0  0  0  0  0  0  0  0
    6.6353   -1.1935    0.0165 O   0  0  0  0  0  0  0  0  0  0  0  0
    4.6750   -3.0187    0.0511 C   0  0  0  0  0  0  0  0  0  0  0  0
    3.8531   -3.7169    0.9568 C   0  0  0  0  0  0  0  0  0  0  0  0
    2.6156   -4.2513    0.5516 C   0  0  0  0  0  0  0  0  0  0  0  0
    2.1582   -4.0206   -0.7532 C   0  0  0  0  0  0  0  0  0  0  0  0
    2.9449   -3.2922   -1.6647 C   0  0  0  0  0  0  0  0  0  0  0  0
    2.4757   -3.0576   -2.9771 C   0  0  0  0  0  0  0  0  0  0  0  0
    3.1810   -2.3847   -3.9031 N   0  0  0  0  0  0  0  0  0  0  0  0
    4.3943   -1.9230   -3.5376 C   0  0  0  0  0  0  0  0  0  0  0  0
    4.9668   -2.1229   -2.2769 C   0  0  0  0  0  0  0  0  0  0  0  0
    4.2191   -2.7964   -1.2828 C   0  0  0  0  0  0  0  0  0  0  0  0
   -1.3908   -9.5191    3.4081 H   0  0  0  0  0  0  0  0  0  0  0  0
   -1.2309   -9.2204    1.6956 H   0  0  0  0  0  0  0  0  0  0  0  0
    0.9561   -9.4215    3.7943 H   0  0  0  0  0  0  0  0  0  0  0  0
    0.7927  -10.2878    2.2933 H   0  0  0  0  0  0  0  0  0  0  0  0
    1.2535   -8.0304    1.0847 H   0  0  0  0  0  0  0  0  0  0  0  0
    1.6903   -7.4100    2.6726 H   0  0  0  0  0  0  0  0  0  0  0  0
    3.3483   -9.4423    2.7339 H   0  0  0  0  0  0  0  0  0  0  0  0
    3.0650   -9.5051    1.0016 H   0  0  0  0  0  0  0  0  0  0  0  0
    3.6815   -6.9798    0.9587 H   0  0  0  0  0  0  0  0  0  0  0  0
    4.1274   -7.1459    2.6387 H   0  0  0  0  0  0  0  0  0  0  0  0
    5.6648   -9.1251    1.7981 H   0  0  0  0  0  0  0  0  0  0  0  0
    5.3903   -8.4677    0.2136 H   0  0  0  0  0  0  0  0  0  0  0  0
    6.6194   -6.9789    2.6038 H   0  0  0  0  0  0  0  0  0  0  0  0
    7.5443   -7.6783    1.2884 H   0  0  0  0  0  0  0  0  0  0  0  0
    6.3119   -6.0840   -0.3204 H   0  0  0  0  0  0  0  0  0  0  0  0
    5.5069   -5.4653    1.0959 H   0  0  0  0  0  0  0  0  0  0  0  0
    7.6341   -4.6535    2.0607 H   0  0  0  0  0  0  0  0  0  0  0  0
    8.5367   -5.3430    0.7259 H   0  0  0  0  0  0  0  0  0  0  0  0
    7.5053   -3.7503   -0.7912 H   0  0  0  0  0  0  0  0  0  0  0  0
    4.1658   -3.8928    1.9766 H   0  0  0  0  0  0  0  0  0  0  0  0
    2.0142   -4.8352    1.2440 H   0  0  0  0  0  0  0  0  0  0  0  0
    1.2117   -4.4170   -1.0889 H   0  0  0  0  0  0  0  0  0  0  0  0
    1.5069   -3.4120   -3.2952 H   0  0  0  0  0  0  0  0  0  0  0  0
    4.9418   -1.3715   -4.2851 H   0  0  0  0  0  0  0  0  0  0  0  0
    5.9529   -1.7436   -2.0948 H   0  0  0  0  0  0  0  0  0  0  0  0
  1  2  2  0
  2  3  1  0
  2  4  1  0
  4  5  1  0
  4 27  1  0
  4 28  1  0
  5  6  1  0
  5 29  1  0
  5 30  1  0
  6  7  1  0
  6 31  1  0
  6 32  1  0
  7  8  1  0
  7 33  1  0
  7 34  1  0
  8  9  1  0
  8 35  1  0
  8 36  1  0
  9 10  1  0
  9 37  1  0
  9 38  1  0
 10 11  1  0
 10 39  1  0
 10 40  1  0
 11 12  1  0
 11 41  1  0
 11 42  1  0
 12 13  1  0
 12 43  1  0
 12 44  1  0
 13 14  1  0
 13 45  1  0
 14 15  2  0
 14 16  2  0
 14 17  1  0
 17 26  2  0
 17 18  1  0
 18 19  2  0
 18 46  1  0
 19 20  1  0
 19 47  1  0
 20 21  2  0
 20 48  1  0
 21 26  1  0
 21 22  1  0
 22 23  2  0
 22 49  1  0
 23 24  1  0
 24 25  2  0
 24 50  1  0
 25 26  1  0
 25 51  1  0
M  CHG  1   3  -1
M  END
>  <i_m_ct_stereo_status>  (265) 
1

>  <s_m_source_file>  (265) 
/var/tmp/pbs.5076255.sched01/tmpelb551ou/82hj6rxffr.sdf

>  <i_m_source_file_index>  (265) 
36

>  <i_lp_mmshare_version>  (265) 
48012

>  <i_f3d_flags>  (265) 
0

>  <s_epik_input>  (265) 
Tz1DKFtPSF0pW0NIMl1bQ0gyXVtDSDJdW0NIMl1bQ0gyXVtDSDJdW0NIMl1bQ0gyXVtDSDJdW05IXVMoPU8pKD1PKWMoW2NIXVtjSF1bY0hdMSljKGMxMilbY0hdW2NIXW5bY0hdMg==

>  <s_epik_cmdline>  (265) 
J2VwaWtfcHl0aG9uJywgJy1waHQnLCAnMi4wJywgJy1waCcsICc3LjAnLCAnLXRuJywgJzgnLCAnLW1hJywgJzIwMCcsICctaW1hZScsICc8aW5maWxlLm1hZT4nLCAnLW9tYWUnLCAnPG91dGZpbGUubWFlPic=

>  <r_lp_tautomer_probability>  (265) 
1

>  <r_epik_Ionization_Penalty>  (265) 
0.00634187

>  <r_epik_Ionization_Penalty_Charging>  (265) 
0.00486578

>  <r_epik_Ionization_Penalty_Neutral>  (265) 
0.00147609

>  <r_epik_State_Penalty>  (265) 
-0

>  <r_epik_Charging_Adjusted_Penalty>  (265) 
0.00486578

>  <i_epik_Tot_Q>  (265) 
-1

>  <i_epik_Tot_abs_Q>  (265) 
1

>  <s_lp_Force_Field>  (265) 
OPLS3e

>  <r_lp_Energy>  (265) 
15.7071

>  <b_lp_Chiralities_Consistent>  (265) 
1

>  <s_lp_Variant>  (265) 
87:0-1

>  <s_i_glide_gridfile>  (265) 
pfpi4k_grid

>  <i_i_glide_lignum>  (265) 
36

>  <i_i_glide_rotatable_bonds>  (265) 
12

>  <r_i_docking_score>  (265) 
-2.76629

>  <r_i_glide_ligand_efficiency>  (265) 
-0.106396

>  <r_i_glide_ligand_efficiency_sa>  (265) 
-0.315197

>  <r_i_glide_ligand_efficiency_ln>  (265) 
-0.649654

>  <r_i_glide_gscore>  (265) 
-2.76629

>  <r_i_glide_lipo>  (265) 
-0.802558

>  <r_i_glide_hbond>  (265) 
-0.20351

>  <r_i_glide_metal>  (265) 
-0

>  <r_i_glide_rewards>  (265) 
-0.946428

>  <r_i_glide_evdw>  (265) 
-28.4781

>  <r_i_glide_ecoul>  (265) 
-4.1757

>  <r_i_glide_erotb>  (265) 
1.35931

>  <r_i_glide_esite>  (265) 
-0.122846

>  <r_i_glide_emodel>  (265) 
-36.6935

>  <r_i_glide_energy>  (265) 
-32.6538

>  <r_i_glide_einternal>  (265) 
7.97971

>  <r_i_glide_intrahb_reward>  (265) 
-0

>  <i_i_glide_confnum>  (265) 
11

>  <i_i_glide_posenum>  (265) 
22

>  <r_i_glide_eff_state_penalty>  (265) 
0

>  <ligand_id>  (265) 
87

>  <original_smiles>  (265) 
O=C(O)CCCCCCCCCNS(=O)(=O)c1cccc2cnccc12

>  <smiles>  (265) 
[H]c1nc([H])c2c([H])c([H])c([H])c(S(=O)(=O)N([H])C([H])([H])C([H])([H])C([H])([H])C([H])([H])C([H])([H])C([H])([H])C([H])([H])C([H])([H])C([H])([H])C(=O)[O-])c2c1[H]

$$$$
88:0:0
     RDKit          3D

 53 60  0  0  1  0  0  0  0  0999 V2000
    6.0403   -1.0759    0.1257 C   0  0  0  0  0  0  0  0  0  0  0  0
    5.1063   -1.7626    0.8155 C   0  0  0  0  0  0  0  0  0  0  0  0
    3.6421   -1.7597    0.4678 C   0  0  0  0  0  0  0  0  0  0  0  0
    3.1399   -3.2128    0.4584 C   0  0  1  0  0  0  0  0  0  0  0  0
    4.0363   -3.8321   -0.4917 O   0  0  0  0  0  0  0  0  0  0  0  0
    5.1682   -4.4377    0.1732 C   0  0  0  0  0  0  0  0  0  0  0  0
    4.8883   -4.1916    1.6820 C   0  0  1  0  0  0  0  0  0  0  0  0
    5.4139   -2.6867    1.9805 C   0  0  2  0  0  0  0  0  0  0  0  0
    4.7628   -1.9918    3.2290 C   0  0  1  0  0  0  0  0  0  0  0  0
    4.7912   -0.5710    3.1574 O   0  0  0  0  0  0  0  0  0  0  0  0
    3.4445   -2.4320    3.4200 O   0  0  0  0  0  0  0  0  0  0  0  0
    3.2022   -3.8100    3.2095 C   0  0  1  0  0  0  0  0  0  0  0  0
    1.8982   -4.1488    3.5941 O   0  0  0  0  0  0  0  0  0  0  0  0
    1.6498   -4.5932    4.9233 C   0  0  1  0  0  0  0  0  0  0  0  0
    0.2695   -4.0490    5.3001 C   0  0  0  0  0  0  0  0  0  0  0  0
    1.7193   -6.1503    5.0340 C   0  0  0  0  0  0  0  0  0  0  0  0
    2.0608   -6.9855    3.7573 C   0  0  2  0  0  0  0  0  0  0  0  0
    3.4729   -7.3137    3.4666 O   0  0  0  0  0  0  0  0  0  0  0  0
    4.3170   -6.6435    2.5013 C   0  0  1  0  0  0  0  0  0  0  0  0
    4.9322   -7.4690    1.4697 C   0  0  0  0  0  0  0  0  0  0  0  0
    3.5361   -6.8688    1.2552 C   0  0  2  0  0  0  0  0  0  0  0  0
    2.7514   -5.5684    1.1700 C   0  0  1  0  0  0  0  0  0  0  0  0
    1.4156   -5.8530    1.5673 O   0  0  0  0  0  0  0  0  0  0  0  0
    1.0496   -6.6858    2.6003 C   0  0  0  0  0  0  0  0  0  0  0  0
   -0.1084   -7.0732    2.7106 O   0  0  0  0  0  0  0  0  0  0  0  0
    3.3949   -4.1726    1.6571 C   0  0  1  0  0  0  0  0  0  0  0  0
    5.0672   -5.3072    2.8021 C   0  0  2  0  0  0  0  0  0  0  0  0
    4.3103   -4.6956    3.9477 C   0  0  1  0  0  0  0  0  0  0  0  0
    5.1466   -4.1565    4.9416 O   0  0  0  0  0  0  0  0  0  0  0  0
    7.0823   -1.1164    0.4063 H   0  0  0  0  0  0  0  0  0  0  0  0
    5.7524   -0.4597   -0.7160 H   0  0  0  0  0  0  0  0  0  0  0  0
    3.0650   -1.1632    1.1721 H   0  0  0  0  0  0  0  0  0  0  0  0
    3.4954   -1.3051   -0.5153 H   0  0  0  0  0  0  0  0  0  0  0  0
    2.1095   -3.2436    0.1010 H   0  0  0  0  0  0  0  0  0  0  0  0
    5.2265   -5.4663   -0.1436 H   0  0  0  0  0  0  0  0  0  0  0  0
    6.1051   -3.9911   -0.1562 H   0  0  0  0  0  0  0  0  0  0  0  0
    6.4931   -2.6814    2.1209 H   0  0  0  0  0  0  0  0  0  0  0  0
    5.3724   -2.1149    4.1069 H   0  0  0  0  0  0  0  0  0  0  0  0
    4.2660   -0.3151    2.4204 H   0  0  0  0  0  0  0  0  0  0  0  0
    2.3552   -4.1386    5.6176 H   0  0  0  0  0  0  0  0  0  0  0  0
   -0.0289   -4.3453    6.3060 H   0  0  0  0  0  0  0  0  0  0  0  0
   -0.4759   -4.4190    4.6013 H   0  0  0  0  0  0  0  0  0  0  0  0
    0.2615   -2.9607    5.2550 H   0  0  0  0  0  0  0  0  0  0  0  0
    2.4023   -6.4332    5.8353 H   0  0  0  0  0  0  0  0  0  0  0  0
    0.7542   -6.5029    5.4037 H   0  0  0  0  0  0  0  0  0  0  0  0
    1.7323   -7.9778    4.0641 H   0  0  0  0  0  0  0  0  0  0  0  0
    5.8338   -7.0915    0.9967 H   0  0  0  0  0  0  0  0  0  0  0  0
    4.9602   -8.5368    1.7026 H   0  0  0  0  0  0  0  0  0  0  0  0
    2.9085   -7.7310    1.0390 H   0  0  0  0  0  0  0  0  0  0  0  0
    2.5928   -5.4662    0.1010 H   0  0  0  0  0  0  0  0  0  0  0  0
    6.1151   -5.5158    3.0333 H   0  0  0  0  0  0  0  0  0  0  0  0
    3.9356   -5.4656    4.5838 H   0  0  0  0  0  0  0  0  0  0  0  0
    5.6864   -4.8510    5.2824 H   0  0  0  0  0  0  0  0  0  0  0  0
  1  2  2  0
  1 30  1  0
  1 31  1  0
  2  8  1  0
  2  3  1  0
  3  4  1  0
  3 32  1  0
  3 33  1  0
  4 26  1  0
  4  5  1  0
  4 34  1  6
  5  6  1  0
  7  6  1  6
  6 35  1  0
  6 36  1  0
  7 26  1  0
  7 27  1  0
  7  8  1  0
  8  9  1  0
  8 37  1  1
  9 10  1  0
  9 11  1  0
  9 38  1  1
 10 39  1  0
 12 11  1  6
 26 12  1  1
 12 28  1  0
 12 13  1  0
 13 14  1  0
 14 15  1  0
 14 16  1  0
 14 40  1  1
 15 41  1  0
 15 42  1  0
 15 43  1  0
 16 17  1  0
 16 44  1  0
 16 45  1  0
 17 24  1  0
 17 18  1  0
 17 46  1  1
 18 19  1  0
 19 21  1  0
 19 20  1  6
 19 27  1  0
 20 21  1  0
 20 47  1  0
 20 48  1  0
 21 22  1  0
 21 49  1  1
 22 23  1  0
 22 26  1  0
 22 50  1  6
 23 24  1  0
 24 25  2  0
 27 28  1  0
 27 51  1  1
 28 29  1  0
 28 52  1  1
 29 53  1  0
M  END
>  <i_m_ct_stereo_status>  (266) 
1

>  <s_m_source_file>  (266) 
/var/tmp/pbs.5076255.sched01/tmpelb551ou/82hj6rxffr.sdf

>  <i_m_source_file_index>  (266) 
37

>  <i_lp_mmshare_version>  (266) 
48012

>  <i_f3d_flags>  (266) 
2

>  <s_epik_input>  (266) 
W0NIMl0xT1tDQEhdMltDSDJdQyg9W0NIMl0pW0NASF0zW0NAQEhdKFtPSF0pT1tDQF00KEMyNUMxMzYpT1tDQEBIXShbQ0gzXSlbQ0gyXVtDQEBIXTdPW0NAXTgoW0NAQEhdNltDQEhdNFtPSF0pW0NASF0oW0NIMl04KVtDQEhdNU9DNz1P

>  <s_epik_cmdline>  (266) 
J2VwaWtfcHl0aG9uJywgJy1waHQnLCAnMi4wJywgJy1waCcsICc3LjAnLCAnLXRuJywgJzgnLCAnLW1hJywgJzIwMCcsICctaW1hZScsICc8aW5maWxlLm1hZT4nLCAnLW9tYWUnLCAnPG91dGZpbGUubWFlPic=

>  <r_lp_tautomer_probability>  (266) 
1

>  <r_epik_Ionization_Penalty>  (266) 
2.46702e-06

>  <r_epik_Ionization_Penalty_Charging>  (266) 
0

>  <r_epik_Ionization_Penalty_Neutral>  (266) 
2.46702e-06

>  <r_epik_State_Penalty>  (266) 
-0

>  <r_epik_Charging_Adjusted_Penalty>  (266) 
0

>  <i_epik_Tot_Q>  (266) 
0

>  <i_epik_Tot_abs_Q>  (266) 
0

>  <s_epik_Chemistry_Notes>  (266) 
This compound has an ester and may undergo hydrolysis at high or low pH. This compound contains an acetal/aminal-like group ( X-CH(R)-Y where X, Y are N, S, or O) that may be acid/base labile, releasing an aldehyde.

>  <s_lp_Force_Field>  (266) 
OPLS3e

>  <r_lp_Energy>  (266) 
173.004

>  <b_lp_Chiralities_Consistent>  (266) 
0

>  <s_lp_Variant>  (266) 
88:0-1

>  <s_i_glide_gridfile>  (266) 
pfpi4k_grid

>  <i_i_glide_lignum>  (266) 
37

>  <i_i_glide_rotatable_bonds>  (266) 
2

>  <r_i_docking_score>  (266) 
-2.63159

>  <r_i_glide_ligand_efficiency>  (266) 
-0.0907446

>  <r_i_glide_ligand_efficiency_sa>  (266) 
-0.278796

>  <r_i_glide_ligand_efficiency_ln>  (266) 
-0.602568

>  <r_i_glide_gscore>  (266) 
-2.63159

>  <r_i_glide_lipo>  (266) 
-0.368424

>  <r_i_glide_hbond>  (266) 
-0.146602

>  <r_i_glide_metal>  (266) 
-0

>  <r_i_glide_rewards>  (266) 
-0.718397

>  <r_i_glide_evdw>  (266) 
-24.4897

>  <r_i_glide_ecoul>  (266) 
-0.885825

>  <r_i_glide_erotb>  (266) 
0

>  <r_i_glide_esite>  (266) 
-0.0408126

>  <r_i_glide_emodel>  (266) 
-29.2579

>  <r_i_glide_energy>  (266) 
-25.3755

>  <r_i_glide_einternal>  (266) 
0.344441

>  <r_i_glide_intrahb_reward>  (266) 
-0

>  <i_i_glide_confnum>  (266) 
1

>  <i_i_glide_posenum>  (266) 
18

>  <r_i_glide_eff_state_penalty>  (266) 
0

>  <ligand_id>  (266) 
88

>  <original_smiles>  (266) 
C=C1CC2OCC34C1C(O)OC15OC(C)CC6OC7(CC7C(OC6=O)C213)C4C5O

>  <smiles>  (266) 
[H]OC1([H])OC23OC([H])(C([H])([H])[H])C([H])([H])C4([H])OC56C([H])([H])C5([H])C([H])(OC4=O)C24C2([H])OC([H])([H])C4(C1([H])C(=C([H])[H])C2([H])[H])C6([H])C3([H])O[H]

$$$$
88:0:1
     RDKit          3D

 53 60  0  0  1  0  0  0  0  0999 V2000
    6.0133   -1.0690    0.1172 C   0  0  0  0  0  0  0  0  0  0  0  0
    5.0867   -1.7618    0.8154 C   0  0  0  0  0  0  0  0  0  0  0  0
    3.6206   -1.7591    0.4878 C   0  0  0  0  0  0  0  0  0  0  0  0
    3.1172   -3.2118    0.4743 C   0  0  1  0  0  0  0  0  0  0  0  0
    4.0023   -3.8319   -0.4903 O   0  0  0  0  0  0  0  0  0  0  0  0
    5.1419   -4.4367    0.1557 C   0  0  0  0  0  0  0  0  0  0  0  0
    4.8804   -4.1935    1.6689 C   0  0  1  0  0  0  0  0  0  0  0  0
    5.4122   -2.6915    1.9691 C   0  0  2  0  0  0  0  0  0  0  0  0
    4.7867   -2.0029    3.2268 C   0  0  1  0  0  0  0  0  0  0  0  0
    4.8067   -0.5810    3.1736 O   0  0  0  0  0  0  0  0  0  0  0  0
    3.4691   -2.4404    3.4391 O   0  0  0  0  0  0  0  0  0  0  0  0
    3.2186   -3.8143    3.2223 C   0  0  1  0  0  0  0  0  0  0  0  0
    1.9136   -4.1493    3.6216 O   0  0  0  0  0  0  0  0  0  0  0  0
    1.6814   -4.6102    4.9472 C   0  0  1  0  0  0  0  0  0  0  0  0
    0.3068   -4.0710    5.3487 C   0  0  0  0  0  0  0  0  0  0  0  0
    1.7574   -6.1700    5.0528 C   0  0  0  0  0  0  0  0  0  0  0  0
    2.0813   -6.9993    3.7716 C   0  0  2  0  0  0  0  0  0  0  0  0
    3.4904   -7.3223    3.4642 O   0  0  0  0  0  0  0  0  0  0  0  0
    4.3179   -6.6471    2.4919 C   0  0  1  0  0  0  0  0  0  0  0  0
    4.9238   -7.4663    1.4442 C   0  0  0  0  0  0  0  0  0  0  0  0
    3.5223   -6.8731    1.2560 C   0  0  2  0  0  0  0  0  0  0  0  0
    2.7429   -5.5692    1.1790 C   0  0  1  0  0  0  0  0  0  0  0  0
    1.4094   -5.8481    1.5913 O   0  0  0  0  0  0  0  0  0  0  0  0
    1.0598   -6.6877    2.6281 C   0  0  0  0  0  0  0  0  0  0  0  0
   -0.1003   -7.0831    2.7444 O   0  0  0  0  0  0  0  0  0  0  0  0
    3.3870   -4.1725    1.6644 C   0  0  1  0  0  0  0  0  0  0  0  0
    5.0703   -5.3083    2.7947 C   0  0  2  0  0  0  0  0  0  0  0  0
    4.3299   -4.6992    3.9517 C   0  0  1  0  0  0  0  0  0  0  0  0
    5.1772   -4.1526    4.9375 O   0  0  0  0  0  0  0  0  0  0  0  0
    7.0576   -1.1182    0.3880 H   0  0  0  0  0  0  0  0  0  0  0  0
    5.7076   -0.4532   -0.7173 H   0  0  0  0  0  0  0  0  0  0  0  0
    3.0610   -1.1611    1.2073 H   0  0  0  0  0  0  0  0  0  0  0  0
    3.4621   -1.3019   -0.4940 H   0  0  0  0  0  0  0  0  0  0  0  0
    2.0810   -3.2423    0.1318 H   0  0  0  0  0  0  0  0  0  0  0  0
    5.1909   -5.4631   -0.1650 H   0  0  0  0  0  0  0  0  0  0  0  0
    6.0736   -3.9888   -0.1821 H   0  0  0  0  0  0  0  0  0  0  0  0
    6.4949   -2.6891    2.0904 H   0  0  0  0  0  0  0  0  0  0  0  0
    5.4259   -2.1210    4.0857 H   0  0  0  0  0  0  0  0  0  0  0  0
    4.3989   -0.2550    3.9530 H   0  0  0  0  0  0  0  0  0  0  0  0
    2.3973   -4.1607    5.6335 H   0  0  0  0  0  0  0  0  0  0  0  0
    0.0267   -4.3716    6.3576 H   0  0  0  0  0  0  0  0  0  0  0  0
   -0.4476   -4.4386    4.6594 H   0  0  0  0  0  0  0  0  0  0  0  0
    0.3018   -2.9840    5.3077 H   0  0  0  0  0  0  0  0  0  0  0  0
    2.4512   -6.4572    5.8423 H   0  0  0  0  0  0  0  0  0  0  0  0
    0.7949   -6.5264    5.4305 H   0  0  0  0  0  0  0  0  0  0  0  0
    1.7556   -7.9932    4.0741 H   0  0  0  0  0  0  0  0  0  0  0  0
    5.8131   -7.0882    0.9510 H   0  0  0  0  0  0  0  0  0  0  0  0
    4.9569   -8.5356    1.6652 H   0  0  0  0  0  0  0  0  0  0  0  0
    2.8836   -7.7344    1.0605 H   0  0  0  0  0  0  0  0  0  0  0  0
    2.5729   -5.4677    0.1150 H   0  0  0  0  0  0  0  0  0  0  0  0
    6.1191   -5.5138    3.0237 H   0  0  0  0  0  0  0  0  0  0  0  0
    3.9684   -5.4804    4.5770 H   0  0  0  0  0  0  0  0  0  0  0  0
    4.6573   -3.9439    5.6971 H   0  0  0  0  0  0  0  0  0  0  0  0
  1  2  2  0
  1 30  1  0
  1 31  1  0
  2  8  1  0
  2  3  1  0
  3  4  1  0
  3 32  1  0
  3 33  1  0
  4 26  1  0
  4  5  1  0
  4 34  1  6
  5  6  1  0
  7  6  1  6
  6 35  1  0
  6 36  1  0
  7 26  1  0
  7 27  1  0
  7  8  1  0
  8  9  1  0
  8 37  1  1
  9 10  1  0
  9 11  1  0
  9 38  1  1
 10 39  1  0
 12 11  1  6
 26 12  1  1
 12 28  1  0
 12 13  1  0
 13 14  1  0
 14 15  1  0
 14 16  1  0
 14 40  1  1
 15 41  1  0
 15 42  1  0
 15 43  1  0
 16 17  1  0
 16 44  1  0
 16 45  1  0
 17 24  1  0
 17 18  1  0
 17 46  1  1
 18 19  1  0
 19 21  1  0
 19 20  1  6
 19 27  1  0
 20 21  1  0
 20 47  1  0
 20 48  1  0
 21 22  1  0
 21 49  1  1
 22 23  1  0
 22 26  1  0
 22 50  1  6
 23 24  1  0
 24 25  2  0
 27 28  1  0
 27 51  1  1
 28 29  1  0
 28 52  1  1
 29 53  1  0
M  END
>  <i_m_ct_stereo_status>  (267) 
1

>  <s_m_source_file>  (267) 
/var/tmp/pbs.5076255.sched01/tmpelb551ou/82hj6rxffr.sdf

>  <i_m_source_file_index>  (267) 
37

>  <i_lp_mmshare_version>  (267) 
48012

>  <i_f3d_flags>  (267) 
2

>  <s_epik_input>  (267) 
W0NIMl0xT1tDQEhdMltDSDJdQyg9W0NIMl0pW0NASF0zW0NAQEhdKFtPSF0pT1tDQF00KEMyNUMxMzYpT1tDQEBIXShbQ0gzXSlbQ0gyXVtDQEBIXTdPW0NAXTgoW0NAQEhdNltDQEhdNFtPSF0pW0NASF0oW0NIMl04KVtDQEhdNU9DNz1P

>  <s_epik_cmdline>  (267) 
J2VwaWtfcHl0aG9uJywgJy1waHQnLCAnMi4wJywgJy1waCcsICc3LjAnLCAnLXRuJywgJzgnLCAnLW1hJywgJzIwMCcsICctaW1hZScsICc8aW5maWxlLm1hZT4nLCAnLW9tYWUnLCAnPG91dGZpbGUubWFlPic=

>  <r_lp_tautomer_probability>  (267) 
1

>  <r_epik_Ionization_Penalty>  (267) 
2.46702e-06

>  <r_epik_Ionization_Penalty_Charging>  (267) 
0

>  <r_epik_Ionization_Penalty_Neutral>  (267) 
2.46702e-06

>  <r_epik_State_Penalty>  (267) 
-0

>  <r_epik_Charging_Adjusted_Penalty>  (267) 
0

>  <i_epik_Tot_Q>  (267) 
0

>  <i_epik_Tot_abs_Q>  (267) 
0

>  <s_epik_Chemistry_Notes>  (267) 
This compound has an ester and may undergo hydrolysis at high or low pH. This compound contains an acetal/aminal-like group ( X-CH(R)-Y where X, Y are N, S, or O) that may be acid/base labile, releasing an aldehyde.

>  <s_lp_Force_Field>  (267) 
OPLS3e

>  <r_lp_Energy>  (267) 
173.004

>  <b_lp_Chiralities_Consistent>  (267) 
0

>  <s_lp_Variant>  (267) 
88:0-1

>  <s_i_glide_gridfile>  (267) 
pfpi4k_grid

>  <i_i_glide_lignum>  (267) 
37

>  <i_i_glide_rotatable_bonds>  (267) 
2

>  <r_i_docking_score>  (267) 
-2.56827

>  <r_i_glide_ligand_efficiency>  (267) 
-0.088561

>  <r_i_glide_ligand_efficiency_sa>  (267) 
-0.272088

>  <r_i_glide_ligand_efficiency_ln>  (267) 
-0.588069

>  <r_i_glide_gscore>  (267) 
-2.56827

>  <r_i_glide_lipo>  (267) 
-0.365368

>  <r_i_glide_hbond>  (267) 
-0.137874

>  <r_i_glide_metal>  (267) 
-0

>  <r_i_glide_rewards>  (267) 
-0.720541

>  <r_i_glide_evdw>  (267) 
-24.5284

>  <r_i_glide_ecoul>  (267) 
-0.522953

>  <r_i_glide_erotb>  (267) 
0

>  <r_i_glide_esite>  (267) 
-0.0396248

>  <r_i_glide_emodel>  (267) 
-28.6391

>  <r_i_glide_energy>  (267) 
-25.0513

>  <r_i_glide_einternal>  (267) 
0.702477

>  <r_i_glide_intrahb_reward>  (267) 
-0

>  <i_i_glide_confnum>  (267) 
1

>  <i_i_glide_posenum>  (267) 
1

>  <r_i_glide_eff_state_penalty>  (267) 
0

>  <ligand_id>  (267) 
88

>  <original_smiles>  (267) 
C=C1CC2OCC34C1C(O)OC15OC(C)CC6OC7(CC7C(OC6=O)C213)C4C5O

>  <smiles>  (267) 
[H]OC1([H])OC23OC([H])(C([H])([H])[H])C([H])([H])C4([H])OC56C([H])([H])C5([H])C([H])(OC4=O)C24C2([H])OC([H])([H])C4(C1([H])C(=C([H])[H])C2([H])[H])C6([H])C3([H])O[H]

$$$$
88:0:2
     RDKit          3D

 53 60  0  0  1  0  0  0  0  0999 V2000
    4.6787   -3.8105   -3.3002 C   0  0  0  0  0  0  0  0  0  0  0  0
    4.3611   -3.2680   -2.1142 C   0  0  0  0  0  0  0  0  0  0  0  0
    2.9441   -3.0495   -1.6519 C   0  0  0  0  0  0  0  0  0  0  0  0
    2.8304   -3.5498   -0.2074 C   0  0  1  0  0  0  0  0  0  0  0  0
    3.2404   -4.9323   -0.3098 O   0  0  0  0  0  0  0  0  0  0  0  0
    4.6541   -5.0640   -0.0327 C   0  0  0  0  0  0  0  0  0  0  0  0
    5.0793   -3.6225    0.3506 C   0  0  1  0  0  0  0  0  0  0  0  0
    5.3650   -2.8520   -1.0514 C   0  0  2  0  0  0  0  0  0  0  0  0
    5.2312   -1.2911   -0.9780 C   0  0  1  0  0  0  0  0  0  0  0  0
    4.9279   -0.6944   -2.2185 O   0  0  0  0  0  0  0  0  0  0  0  0
    4.3032   -0.8807   -0.0022 O   0  0  0  0  0  0  0  0  0  0  0  0
    4.2801   -1.6268    1.2003 C   0  0  1  0  0  0  0  0  0  0  0  0
    3.4189   -1.0267    2.1285 O   0  0  0  0  0  0  0  0  0  0  0  0
    3.9333   -0.0684    3.0505 C   0  0  1  0  0  0  0  0  0  0  0  0
    2.8169    0.9618    3.2445 C   0  0  0  0  0  0  0  0  0  0  0  0
    4.3778   -0.7346    4.3885 C   0  0  0  0  0  0  0  0  0  0  0  0
    4.2290   -2.2871    4.5447 C   0  0  2  0  0  0  0  0  0  0  0  0
    5.3388   -3.1724    4.1809 O   0  0  0  0  0  0  0  0  0  0  0  0
    5.4453   -3.9184    2.9560 C   0  0  1  0  0  0  0  0  0  0  0  0
    5.6718   -5.3556    3.0920 C   0  0  0  0  0  0  0  0  0  0  0  0
    4.2478   -4.7908    3.0292 C   0  0  2  0  0  0  0  0  0  0  0  0
    3.2832   -3.9444    2.1991 C   0  0  1  0  0  0  0  0  0  0  0  0
    2.3983   -3.2759    3.0951 O   0  0  0  0  0  0  0  0  0  0  0  0
    2.7520   -2.7354    4.3147 C   0  0  0  0  0  0  0  0  0  0  0  0
    1.9166   -2.4730    5.1646 O   0  0  0  0  0  0  0  0  0  0  0  0
    3.7958   -3.1193    0.9171 C   0  0  1  0  0  0  0  0  0  0  0  0
    5.9756   -3.2958    1.6150 C   0  0  2  0  0  0  0  0  0  0  0  0
    5.7593   -1.8160    1.7631 C   0  0  1  0  0  0  0  0  0  0  0  0
    6.8358   -1.0891    1.2405 O   0  0  0  0  0  0  0  0  0  0  0  0
    5.7074   -3.9715   -3.5819 H   0  0  0  0  0  0  0  0  0  0  0  0
    3.9087   -4.1381   -3.9850 H   0  0  0  0  0  0  0  0  0  0  0  0
    2.6585   -2.0016   -1.7044 H   0  0  0  0  0  0  0  0  0  0  0  0
    2.2531   -3.5890   -2.3025 H   0  0  0  0  0  0  0  0  0  0  0  0
    1.8136   -3.4901    0.1245 H   0  0  0  0  0  0  0  0  0  0  0  0
    4.7804   -5.8254    0.7119 H   0  0  0  0  0  0  0  0  0  0  0  0
    5.1759   -5.4436   -0.9070 H   0  0  0  0  0  0  0  0  0  0  0  0
    6.3565   -3.0908   -1.4238 H   0  0  0  0  0  0  0  0  0  0  0  0
    6.1942   -0.8375   -0.8476 H   0  0  0  0  0  0  0  0  0  0  0  0
    4.0405   -0.9238   -2.4319 H   0  0  0  0  0  0  0  0  0  0  0  0
    4.7736    0.4733    2.6188 H   0  0  0  0  0  0  0  0  0  0  0  0
    3.1072    1.7468    3.9429 H   0  0  0  0  0  0  0  0  0  0  0  0
    1.9104    0.4858    3.6133 H   0  0  0  0  0  0  0  0  0  0  0  0
    2.5786    1.4451    2.2977 H   0  0  0  0  0  0  0  0  0  0  0  0
    5.4034   -0.4442    4.6280 H   0  0  0  0  0  0  0  0  0  0  0  0
    3.8047   -0.2644    5.1914 H   0  0  0  0  0  0  0  0  0  0  0  0
    4.2947   -2.3818    5.6267 H   0  0  0  0  0  0  0  0  0  0  0  0
    6.1638   -5.8577    2.2571 H   0  0  0  0  0  0  0  0  0  0  0  0
    6.0360   -5.6554    4.0733 H   0  0  0  0  0  0  0  0  0  0  0  0
    3.7860   -5.1562    3.9398 H   0  0  0  0  0  0  0  0  0  0  0  0
    2.5987   -4.7095    1.8313 H   0  0  0  0  0  0  0  0  0  0  0  0
    7.0271   -3.5741    1.4762 H   0  0  0  0  0  0  0  0  0  0  0  0
    5.9123   -1.5342    2.7801 H   0  0  0  0  0  0  0  0  0  0  0  0
    6.8945   -0.2310    1.6339 H   0  0  0  0  0  0  0  0  0  0  0  0
  1  2  2  0
  1 30  1  0
  1 31  1  0
  2  8  1  0
  2  3  1  0
  3  4  1  0
  3 32  1  0
  3 33  1  0
  4 26  1  0
  4  5  1  0
  4 34  1  1
  5  6  1  0
  7  6  1  6
  6 35  1  0
  6 36  1  0
  7 26  1  0
  7 27  1  0
  7  8  1  0
  8  9  1  0
  8 37  1  6
  9 10  1  0
  9 11  1  0
  9 38  1  1
 10 39  1  0
 12 11  1  6
 26 12  1  1
 12 28  1  0
 12 13  1  0
 13 14  1  0
 14 15  1  0
 14 16  1  0
 14 40  1  6
 15 41  1  0
 15 42  1  0
 15 43  1  0
 16 17  1  0
 16 44  1  0
 16 45  1  0
 17 24  1  0
 17 18  1  0
 17 46  1  1
 18 19  1  0
 19 21  1  0
 19 20  1  1
 19 27  1  0
 20 21  1  0
 20 47  1  0
 20 48  1  0
 21 22  1  0
 21 49  1  1
 22 23  1  0
 22 26  1  0
 22 50  1  6
 23 24  1  0
 24 25  2  0
 27 28  1  0
 27 51  1  6
 28 29  1  0
 28 52  1  1
 29 53  1  0
M  END
>  <i_m_ct_stereo_status>  (268) 
1

>  <s_m_source_file>  (268) 
/var/tmp/pbs.5076255.sched01/tmpelb551ou/82hj6rxffr.sdf

>  <i_m_source_file_index>  (268) 
37

>  <i_lp_mmshare_version>  (268) 
48012

>  <i_f3d_flags>  (268) 
2

>  <s_epik_input>  (268) 
W0NIMl0xT1tDQEhdMltDSDJdQyg9W0NIMl0pW0NASF0zW0NAQEhdKFtPSF0pT1tDQF00KEMyNUMxMzYpT1tDQEBIXShbQ0gzXSlbQ0gyXVtDQEBIXTdPW0NAXTgoW0NAQEhdNltDQEhdNFtPSF0pW0NASF0oW0NIMl04KVtDQEhdNU9DNz1P

>  <s_epik_cmdline>  (268) 
J2VwaWtfcHl0aG9uJywgJy1waHQnLCAnMi4wJywgJy1waCcsICc3LjAnLCAnLXRuJywgJzgnLCAnLW1hJywgJzIwMCcsICctaW1hZScsICc8aW5maWxlLm1hZT4nLCAnLW9tYWUnLCAnPG91dGZpbGUubWFlPic=

>  <r_lp_tautomer_probability>  (268) 
1

>  <r_epik_Ionization_Penalty>  (268) 
2.46702e-06

>  <r_epik_Ionization_Penalty_Charging>  (268) 
0

>  <r_epik_Ionization_Penalty_Neutral>  (268) 
2.46702e-06

>  <r_epik_State_Penalty>  (268) 
-0

>  <r_epik_Charging_Adjusted_Penalty>  (268) 
0

>  <i_epik_Tot_Q>  (268) 
0

>  <i_epik_Tot_abs_Q>  (268) 
0

>  <s_epik_Chemistry_Notes>  (268) 
This compound has an ester and may undergo hydrolysis at high or low pH. This compound contains an acetal/aminal-like group ( X-CH(R)-Y where X, Y are N, S, or O) that may be acid/base labile, releasing an aldehyde.

>  <s_lp_Force_Field>  (268) 
OPLS3e

>  <r_lp_Energy>  (268) 
173.004

>  <b_lp_Chiralities_Consistent>  (268) 
0

>  <s_lp_Variant>  (268) 
88:0-1

>  <s_i_glide_gridfile>  (268) 
pfpi4k_grid

>  <i_i_glide_lignum>  (268) 
37

>  <i_i_glide_rotatable_bonds>  (268) 
2

>  <r_i_docking_score>  (268) 
-2.38178

>  <r_i_glide_ligand_efficiency>  (268) 
-0.0821305

>  <r_i_glide_ligand_efficiency_sa>  (268) 
-0.252331

>  <r_i_glide_ligand_efficiency_ln>  (268) 
-0.545368

>  <r_i_glide_gscore>  (268) 
-2.38178

>  <r_i_glide_lipo>  (268) 
-0.340293

>  <r_i_glide_hbond>  (268) 
0

>  <r_i_glide_metal>  (268) 
-0

>  <r_i_glide_rewards>  (268) 
-0.651798

>  <r_i_glide_evdw>  (268) 
-25.1363

>  <r_i_glide_ecoul>  (268) 
-0.57292

>  <r_i_glide_erotb>  (268) 
0

>  <r_i_glide_esite>  (268) 
-0.0469379

>  <r_i_glide_emodel>  (268) 
-28.7153

>  <r_i_glide_energy>  (268) 
-25.7093

>  <r_i_glide_einternal>  (268) 
0.567018

>  <r_i_glide_intrahb_reward>  (268) 
-0

>  <i_i_glide_confnum>  (268) 
2

>  <i_i_glide_posenum>  (268) 
2

>  <r_i_glide_eff_state_penalty>  (268) 
0

>  <ligand_id>  (268) 
88

>  <original_smiles>  (268) 
C=C1CC2OCC34C1C(O)OC15OC(C)CC6OC7(CC7C(OC6=O)C213)C4C5O

>  <smiles>  (268) 
[H]OC1([H])OC23OC([H])(C([H])([H])[H])C([H])([H])C4([H])OC56C([H])([H])C5([H])C([H])(OC4=O)C24C2([H])OC([H])([H])C4(C1([H])C(=C([H])[H])C2([H])[H])C6([H])C3([H])O[H]

$$$$
89:0:0
     RDKit          3D

 34 36  0  0  1  0  0  0  0  0999 V2000
    2.4801    0.7962   -5.1166 C   0  0  0  0  0  0  0  0  0  0  0  0
    3.8129    0.5728   -4.3865 C   0  0  0  0  0  0  0  0  0  0  0  0
    3.8560   -0.7394   -3.6053 C   0  0  0  0  0  0  0  0  0  0  0  0
    3.4711   -1.7790   -4.1368 O   0  0  0  0  0  0  0  0  0  0  0  0
    4.3938   -0.6767   -2.3691 N   0  0  0  0  0  0  0  0  0  0  0  0
    4.6072   -1.7705   -1.4134 C   0  0  2  0  0  0  0  0  0  0  0  0
    5.3182   -1.2584   -0.1054 C   0  0  0  0  0  0  0  0  0  0  0  0
    5.5324   -2.4327    0.9098 C   0  0  2  0  0  0  0  0  0  0  0  0
    6.2769   -3.5882    0.2306 C   0  0  0  0  0  0  0  0  0  0  0  0
    5.2569   -3.9852   -0.8495 C   0  0  2  0  0  0  0  0  0  0  0  0
    5.4056   -2.9583   -1.9844 C   0  0  0  0  0  0  0  0  0  0  0  0
    3.8685   -3.6679   -0.2068 C   0  0  1  0  0  0  0  0  0  0  0  0
    2.9696   -4.7502   -0.1678 O   0  0  0  0  0  0  0  0  0  0  0  0
    4.1966   -3.1282    1.1918 C   0  0  0  0  0  0  0  0  0  0  0  0
    3.3090   -2.4965   -1.0198 C   0  0  0  0  0  0  0  0  0  0  0  0
    2.5032    1.7402   -5.6602 H   0  0  0  0  0  0  0  0  0  0  0  0
    1.6383    0.8343   -4.4256 H   0  0  0  0  0  0  0  0  0  0  0  0
    2.2866    0.0038   -5.8384 H   0  0  0  0  0  0  0  0  0  0  0  0
    4.6178    0.5513   -5.1166 H   0  0  0  0  0  0  0  0  0  0  0  0
    4.0189    1.4137   -3.7233 H   0  0  0  0  0  0  0  0  0  0  0  0
    4.6522    0.2419   -2.0388 H   0  0  0  0  0  0  0  0  0  0  0  0
    6.2842   -0.8156   -0.3409 H   0  0  0  0  0  0  0  0  0  0  0  0
    4.7231   -0.4766    0.3683 H   0  0  0  0  0  0  0  0  0  0  0  0
    6.0276   -2.1053    1.8242 H   0  0  0  0  0  0  0  0  0  0  0  0
    7.2495   -3.2948   -0.1701 H   0  0  0  0  0  0  0  0  0  0  0  0
    6.4437   -4.4139    0.9272 H   0  0  0  0  0  0  0  0  0  0  0  0
    5.3820   -5.0118   -1.1914 H   0  0  0  0  0  0  0  0  0  0  0  0
    4.9527   -3.3698   -2.8857 H   0  0  0  0  0  0  0  0  0  0  0  0
    6.4411   -2.7043   -2.2202 H   0  0  0  0  0  0  0  0  0  0  0  0
    2.9858   -5.1694   -1.0189 H   0  0  0  0  0  0  0  0  0  0  0  0
    4.3242   -3.9427    1.9082 H   0  0  0  0  0  0  0  0  0  0  0  0
    3.4365   -2.4548    1.5925 H   0  0  0  0  0  0  0  0  0  0  0  0
    2.6259   -1.8661   -0.4489 H   0  0  0  0  0  0  0  0  0  0  0  0
    2.7658   -2.8583   -1.8933 H   0  0  0  0  0  0  0  0  0  0  0  0
  1  2  1  0
  1 16  1  0
  1 17  1  0
  1 18  1  0
  2  3  1  0
  2 19  1  0
  2 20  1  0
  3  4  2  0
  3  5  1  0
  6  5  1  6
  5 21  1  0
  6 11  1  0
  6 15  1  0
  6  7  1  0
  7  8  1  0
  7 22  1  0
  7 23  1  0
  8 14  1  0
  8  9  1  0
  8 24  1  1
  9 10  1  0
  9 25  1  0
  9 26  1  0
 10 11  1  0
 10 12  1  0
 10 27  1  6
 11 28  1  0
 11 29  1  0
 12 13  1  1
 12 14  1  0
 12 15  1  0
 13 30  1  0
 14 31  1  0
 14 32  1  0
 15 33  1  0
 15 34  1  0
M  END
>  <i_m_ct_stereo_status>  (269) 
1

>  <s_m_source_file>  (269) 
/var/tmp/pbs.5076255.sched01/tmpelb551ou/82hj6rxffr.sdf

>  <i_m_source_file_index>  (269) 
38

>  <i_lp_mmshare_version>  (269) 
48012

>  <i_f3d_flags>  (269) 
0

>  <s_epik_input>  (269) 
W0NIM11bQ0gyXUMoPU8pW05IXVtDQF0xMltDSDJdW0NAQEhdM1tDSDJdW0NASF0oW0NIMl0xKVtDQEBdKFtPSF0pKFtDSDJdMylbQ0gyXTI=

>  <s_epik_cmdline>  (269) 
J2VwaWtfcHl0aG9uJywgJy1waHQnLCAnMi4wJywgJy1waCcsICc3LjAnLCAnLXRuJywgJzgnLCAnLW1hJywgJzIwMCcsICctaW1hZScsICc8aW5maWxlLm1hZT4nLCAnLW9tYWUnLCAnPG91dGZpbGUubWFlPic=

>  <r_lp_tautomer_probability>  (269) 
1

>  <r_epik_Ionization_Penalty>  (269) 
8.87171e-07

>  <r_epik_Ionization_Penalty_Charging>  (269) 
0

>  <r_epik_Ionization_Penalty_Neutral>  (269) 
8.87171e-07

>  <r_epik_State_Penalty>  (269) 
-0

>  <r_epik_Charging_Adjusted_Penalty>  (269) 
0

>  <i_epik_Tot_Q>  (269) 
0

>  <i_epik_Tot_abs_Q>  (269) 
0

>  <s_lp_Force_Field>  (269) 
OPLS3e

>  <r_lp_Energy>  (269) 
23.7953

>  <b_lp_Chiralities_Consistent>  (269) 
1

>  <s_lp_Variant>  (269) 
89:0-1

>  <s_i_glide_gridfile>  (269) 
pfpi4k_grid

>  <i_i_glide_lignum>  (269) 
38

>  <i_i_glide_rotatable_bonds>  (269) 
4

>  <r_i_docking_score>  (269) 
-4.45356

>  <r_i_glide_ligand_efficiency>  (269) 
-0.296904

>  <r_i_glide_ligand_efficiency_sa>  (269) 
-0.732228

>  <r_i_glide_ligand_efficiency_ln>  (269) 
-1.20105

>  <r_i_glide_gscore>  (269) 
-4.45356

>  <r_i_glide_lipo>  (269) 
-0.347086

>  <r_i_glide_hbond>  (269) 
-0.672604

>  <r_i_glide_metal>  (269) 
-0

>  <r_i_glide_rewards>  (269) 
-2.3204

>  <r_i_glide_evdw>  (269) 
-20.8316

>  <r_i_glide_ecoul>  (269) 
-5.51005

>  <r_i_glide_erotb>  (269) 
0.757007

>  <r_i_glide_esite>  (269) 
-0.00238545

>  <r_i_glide_emodel>  (269) 
-33.2882

>  <r_i_glide_energy>  (269) 
-26.3416

>  <r_i_glide_einternal>  (269) 
1.82494

>  <r_i_glide_intrahb_reward>  (269) 
-0

>  <i_i_glide_confnum>  (269) 
2

>  <i_i_glide_posenum>  (269) 
31

>  <r_i_glide_eff_state_penalty>  (269) 
0

>  <ligand_id>  (269) 
89

>  <original_smiles>  (269) 
CCC(=O)NC12CC3CC(C1)C(O)(C3)C2

>  <smiles>  (269) 
[H]OC12C([H])([H])C3([H])C([H])([H])C1([H])C([H])([H])C(N([H])C(=O)C([H])([H])C([H])([H])[H])(C3([H])[H])C2([H])[H]

$$$$
89:0:1
     RDKit          3D

 34 36  0  0  1  0  0  0  0  0999 V2000
    2.9769    1.0463   -5.5191 C   0  0  0  0  0  0  0  0  0  0  0  0
    2.3086    0.0280   -4.5902 C   0  0  0  0  0  0  0  0  0  0  0  0
    3.2920   -0.9607   -3.9780 C   0  0  0  0  0  0  0  0  0  0  0  0
    4.2132   -1.3712   -4.6697 O   0  0  0  0  0  0  0  0  0  0  0  0
    3.0789   -1.3460   -2.7062 N   0  0  0  0  0  0  0  0  0  0  0  0
    3.9426   -2.1530   -1.8389 C   0  0  2  0  0  0  0  0  0  0  0  0
    5.0121   -1.2718   -1.1116 C   0  0  0  0  0  0  0  0  0  0  0  0
    5.8826   -2.1384   -0.1458 C   0  0  2  0  0  0  0  0  0  0  0  0
    6.4905   -3.3182   -0.9083 C   0  0  0  0  0  0  0  0  0  0  0  0
    5.2163   -4.0878   -1.3022 C   0  0  2  0  0  0  0  0  0  0  0  0
    4.6285   -3.3517   -2.5155 C   0  0  0  0  0  0  0  0  0  0  0  0
    4.2113   -3.7978   -0.1484 C   0  0  1  0  0  0  0  0  0  0  0  0
    3.6900   -4.9565    0.4694 O   0  0  0  0  0  0  0  0  0  0  0  0
    4.9870   -2.9043    0.8312 C   0  0  0  0  0  0  0  0  0  0  0  0
    3.1213   -2.9227   -0.7911 C   0  0  0  0  0  0  0  0  0  0  0  0
    2.2284    1.7373   -5.8991 H   0  0  0  0  0  0  0  0  0  0  0  0
    3.4565    0.5550   -6.3635 H   0  0  0  0  0  0  0  0  0  0  0  0
    3.7252    1.6332   -4.9838 H   0  0  0  0  0  0  0  0  0  0  0  0
    1.8149    0.5465   -3.7865 H   0  0  0  0  0  0  0  0  0  0  0  0
    1.5364   -0.5260   -5.1208 H   0  0  0  0  0  0  0  0  0  0  0  0
    2.2567   -0.9868   -2.2371 H   0  0  0  0  0  0  0  0  0  0  0  0
    5.6430   -0.7857   -1.8512 H   0  0  0  0  0  0  0  0  0  0  0  0
    4.5221   -0.4771   -0.5471 H   0  0  0  0  0  0  0  0  0  0  0  0
    6.6368   -1.5443    0.3693 H   0  0  0  0  0  0  0  0  0  0  0  0
    7.1054   -3.0153   -1.7596 H   0  0  0  0  0  0  0  0  0  0  0  0
    7.1193   -3.9226   -0.2503 H   0  0  0  0  0  0  0  0  0  0  0  0
    5.3984   -5.1435   -1.4976 H   0  0  0  0  0  0  0  0  0  0  0  0
    3.8939   -3.9748   -3.0299 H   0  0  0  0  0  0  0  0  0  0  0  0
    5.4013   -3.0828   -3.2362 H   0  0  0  0  0  0  0  0  0  0  0  0
    3.3738   -5.5242   -0.2162 H   0  0  0  0  0  0  0  0  0  0  0  0
    5.5875   -3.4991    1.5207 H   0  0  0  0  0  0  0  0  0  0  0  0
    4.3469   -2.2545    1.4307 H   0  0  0  0  0  0  0  0  0  0  0  0
    2.6204   -2.2762   -0.0702 H   0  0  0  0  0  0  0  0  0  0  0  0
    2.3567   -3.5412   -1.2699 H   0  0  0  0  0  0  0  0  0  0  0  0
  1  2  1  0
  1 16  1  0
  1 17  1  0
  1 18  1  0
  2  3  1  0
  2 19  1  0
  2 20  1  0
  3  4  2  0
  3  5  1  0
  6  5  1  6
  5 21  1  0
  6 11  1  0
  6 15  1  0
  6  7  1  0
  7  8  1  0
  7 22  1  0
  7 23  1  0
  8 14  1  0
  8  9  1  0
  8 24  1  1
  9 10  1  0
  9 25  1  0
  9 26  1  0
 10 11  1  0
 10 12  1  0
 10 27  1  6
 11 28  1  0
 11 29  1  0
 12 13  1  1
 12 14  1  0
 12 15  1  0
 13 30  1  0
 14 31  1  0
 14 32  1  0
 15 33  1  0
 15 34  1  0
M  END
>  <i_m_ct_stereo_status>  (270) 
1

>  <s_m_source_file>  (270) 
/var/tmp/pbs.5076255.sched01/tmpelb551ou/82hj6rxffr.sdf

>  <i_m_source_file_index>  (270) 
38

>  <i_lp_mmshare_version>  (270) 
48012

>  <i_f3d_flags>  (270) 
0

>  <s_epik_input>  (270) 
W0NIM11bQ0gyXUMoPU8pW05IXVtDQF0xMltDSDJdW0NAQEhdM1tDSDJdW0NASF0oW0NIMl0xKVtDQEBdKFtPSF0pKFtDSDJdMylbQ0gyXTI=

>  <s_epik_cmdline>  (270) 
J2VwaWtfcHl0aG9uJywgJy1waHQnLCAnMi4wJywgJy1waCcsICc3LjAnLCAnLXRuJywgJzgnLCAnLW1hJywgJzIwMCcsICctaW1hZScsICc8aW5maWxlLm1hZT4nLCAnLW9tYWUnLCAnPG91dGZpbGUubWFlPic=

>  <r_lp_tautomer_probability>  (270) 
1

>  <r_epik_Ionization_Penalty>  (270) 
8.87171e-07

>  <r_epik_Ionization_Penalty_Charging>  (270) 
0

>  <r_epik_Ionization_Penalty_Neutral>  (270) 
8.87171e-07

>  <r_epik_State_Penalty>  (270) 
-0

>  <r_epik_Charging_Adjusted_Penalty>  (270) 
0

>  <i_epik_Tot_Q>  (270) 
0

>  <i_epik_Tot_abs_Q>  (270) 
0

>  <s_lp_Force_Field>  (270) 
OPLS3e

>  <r_lp_Energy>  (270) 
23.7953

>  <b_lp_Chiralities_Consistent>  (270) 
1

>  <s_lp_Variant>  (270) 
89:0-1

>  <s_i_glide_gridfile>  (270) 
pfpi4k_grid

>  <i_i_glide_lignum>  (270) 
38

>  <i_i_glide_rotatable_bonds>  (270) 
4

>  <r_i_docking_score>  (270) 
-4.34496

>  <r_i_glide_ligand_efficiency>  (270) 
-0.289664

>  <r_i_glide_ligand_efficiency_sa>  (270) 
-0.714373

>  <r_i_glide_ligand_efficiency_ln>  (270) 
-1.17177

>  <r_i_glide_gscore>  (270) 
-4.34496

>  <r_i_glide_lipo>  (270) 
-0.338936

>  <r_i_glide_hbond>  (270) 
-0.446271

>  <r_i_glide_metal>  (270) 
-0

>  <r_i_glide_rewards>  (270) 
-2.20865

>  <r_i_glide_evdw>  (270) 
-19.0437

>  <r_i_glide_ecoul>  (270) 
-7.30328

>  <r_i_glide_erotb>  (270) 
0.757007

>  <r_i_glide_esite>  (270) 
-0.0604424

>  <r_i_glide_emodel>  (270) 
-33.2601

>  <r_i_glide_energy>  (270) 
-26.3469

>  <r_i_glide_einternal>  (270) 
1.1549

>  <r_i_glide_intrahb_reward>  (270) 
-0

>  <i_i_glide_confnum>  (270) 
4

>  <i_i_glide_posenum>  (270) 
20

>  <r_i_glide_eff_state_penalty>  (270) 
0

>  <ligand_id>  (270) 
89

>  <original_smiles>  (270) 
CCC(=O)NC12CC3CC(C1)C(O)(C3)C2

>  <smiles>  (270) 
[H]OC12C([H])([H])C3([H])C([H])([H])C1([H])C([H])([H])C(N([H])C(=O)C([H])([H])C([H])([H])[H])(C3([H])[H])C2([H])[H]

$$$$
89:0:2
     RDKit          3D

 34 36  0  0  1  0  0  0  0  0999 V2000
    3.4212    1.1756   -5.0525 C   0  0  0  0  0  0  0  0  0  0  0  0
    2.5712    0.0879   -4.3847 C   0  0  0  0  0  0  0  0  0  0  0  0
    3.4034   -0.9675   -3.6670 C   0  0  0  0  0  0  0  0  0  0  0  0
    4.2166   -1.6129   -4.3208 O   0  0  0  0  0  0  0  0  0  0  0  0
    3.1996   -1.1391   -2.3476 N   0  0  0  0  0  0  0  0  0  0  0  0
    4.0299   -1.9109   -1.4274 C   0  0  2  0  0  0  0  0  0  0  0  0
    4.0589   -3.4498   -1.7102 C   0  0  0  0  0  0  0  0  0  0  0  0
    4.9888   -4.1743   -0.6881 C   0  0  2  0  0  0  0  0  0  0  0  0
    4.5432   -3.8592    0.7403 C   0  0  0  0  0  0  0  0  0  0  0  0
    4.7925   -2.3405    0.7893 C   0  0  2  0  0  0  0  0  0  0  0  0
    3.6115   -1.6853    0.0380 C   0  0  0  0  0  0  0  0  0  0  0  0
    6.0087   -2.1213   -0.1591 C   0  0  1  0  0  0  0  0  0  0  0  0
    7.1158   -1.4552    0.4148 O   0  0  0  0  0  0  0  0  0  0  0  0
    6.3711   -3.5176   -0.6766 C   0  0  0  0  0  0  0  0  0  0  0  0
    5.4495   -1.3444   -1.3489 C   0  0  0  0  0  0  0  0  0  0  0  0
    2.7748    1.9190   -5.5176 H   0  0  0  0  0  0  0  0  0  0  0  0
    4.0835    0.7740   -5.8183 H   0  0  0  0  0  0  0  0  0  0  0  0
    4.0341    1.6907   -4.3119 H   0  0  0  0  0  0  0  0  0  0  0  0
    1.8949    0.5405   -3.6819 H   0  0  0  0  0  0  0  0  0  0  0  0
    1.9418   -0.4036   -5.1196 H   0  0  0  0  0  0  0  0  0  0  0  0
    2.3966   -0.6705   -1.9285 H   0  0  0  0  0  0  0  0  0  0  0  0
    3.0457   -3.8511   -1.6522 H   0  0  0  0  0  0  0  0  0  0  0  0
    4.4236   -3.6580   -2.7155 H   0  0  0  0  0  0  0  0  0  0  0  0
    5.0355   -5.2469   -0.8818 H   0  0  0  0  0  0  0  0  0  0  0  0
    3.5094   -4.1453    0.9423 H   0  0  0  0  0  0  0  0  0  0  0  0
    5.1777   -4.3777    1.4644 H   0  0  0  0  0  0  0  0  0  0  0  0
    4.9160   -1.9688    1.8094 H   0  0  0  0  0  0  0  0  0  0  0  0
    3.5624   -0.6195    0.2805 H   0  0  0  0  0  0  0  0  0  0  0  0
    2.6386   -2.1187    0.2902 H   0  0  0  0  0  0  0  0  0  0  0  0
    6.8118   -0.7019    0.8859 H   0  0  0  0  0  0  0  0  0  0  0  0
    7.0386   -4.0346    0.0137 H   0  0  0  0  0  0  0  0  0  0  0  0
    6.8513   -3.5015   -1.6537 H   0  0  0  0  0  0  0  0  0  0  0  0
    6.0084   -1.5006   -2.2667 H   0  0  0  0  0  0  0  0  0  0  0  0
    5.4120   -0.2729   -1.1487 H   0  0  0  0  0  0  0  0  0  0  0  0
  1  2  1  0
  1 16  1  0
  1 17  1  0
  1 18  1  0
  2  3  1  0
  2 19  1  0
  2 20  1  0
  3  4  2  0
  3  5  1  0
  6  5  1  6
  5 21  1  0
  6 11  1  0
  6 15  1  0
  6  7  1  0
  7  8  1  0
  7 22  1  0
  7 23  1  0
  8 14  1  0
  8  9  1  0
  8 24  1  6
  9 10  1  0
  9 25  1  0
  9 26  1  0
 10 11  1  0
 10 12  1  0
 10 27  1  1
 11 28  1  0
 11 29  1  0
 12 13  1  1
 12 14  1  0
 12 15  1  0
 13 30  1  0
 14 31  1  0
 14 32  1  0
 15 33  1  0
 15 34  1  0
M  END
>  <i_m_ct_stereo_status>  (271) 
1

>  <s_m_source_file>  (271) 
/var/tmp/pbs.5076255.sched01/tmpelb551ou/82hj6rxffr.sdf

>  <i_m_source_file_index>  (271) 
38

>  <i_lp_mmshare_version>  (271) 
48012

>  <i_f3d_flags>  (271) 
0

>  <s_epik_input>  (271) 
W0NIM11bQ0gyXUMoPU8pW05IXVtDQF0xMltDSDJdW0NAQEhdM1tDSDJdW0NASF0oW0NIMl0xKVtDQEBdKFtPSF0pKFtDSDJdMylbQ0gyXTI=

>  <s_epik_cmdline>  (271) 
J2VwaWtfcHl0aG9uJywgJy1waHQnLCAnMi4wJywgJy1waCcsICc3LjAnLCAnLXRuJywgJzgnLCAnLW1hJywgJzIwMCcsICctaW1hZScsICc8aW5maWxlLm1hZT4nLCAnLW9tYWUnLCAnPG91dGZpbGUubWFlPic=

>  <r_lp_tautomer_probability>  (271) 
1

>  <r_epik_Ionization_Penalty>  (271) 
8.87171e-07

>  <r_epik_Ionization_Penalty_Charging>  (271) 
0

>  <r_epik_Ionization_Penalty_Neutral>  (271) 
8.87171e-07

>  <r_epik_State_Penalty>  (271) 
-0

>  <r_epik_Charging_Adjusted_Penalty>  (271) 
0

>  <i_epik_Tot_Q>  (271) 
0

>  <i_epik_Tot_abs_Q>  (271) 
0

>  <s_lp_Force_Field>  (271) 
OPLS3e

>  <r_lp_Energy>  (271) 
23.7953

>  <b_lp_Chiralities_Consistent>  (271) 
1

>  <s_lp_Variant>  (271) 
89:0-1

>  <s_i_glide_gridfile>  (271) 
pfpi4k_grid

>  <i_i_glide_lignum>  (271) 
38

>  <i_i_glide_rotatable_bonds>  (271) 
4

>  <r_i_docking_score>  (271) 
-4.32241

>  <r_i_glide_ligand_efficiency>  (271) 
-0.288161

>  <r_i_glide_ligand_efficiency_sa>  (271) 
-0.710666

>  <r_i_glide_ligand_efficiency_ln>  (271) 
-1.16568

>  <r_i_glide_gscore>  (271) 
-4.32241

>  <r_i_glide_lipo>  (271) 
-0.182576

>  <r_i_glide_hbond>  (271) 
-0.460507

>  <r_i_glide_metal>  (271) 
-0

>  <r_i_glide_rewards>  (271) 
-2.30154

>  <r_i_glide_evdw>  (271) 
-20.0068

>  <r_i_glide_ecoul>  (271) 
-7.07286

>  <r_i_glide_erotb>  (271) 
0.757007

>  <r_i_glide_esite>  (271) 
-0.0735303

>  <r_i_glide_emodel>  (271) 
-33.8355

>  <r_i_glide_energy>  (271) 
-27.0797

>  <r_i_glide_einternal>  (271) 
1.63219

>  <r_i_glide_intrahb_reward>  (271) 
-0

>  <i_i_glide_confnum>  (271) 
3

>  <i_i_glide_posenum>  (271) 
5

>  <r_i_glide_eff_state_penalty>  (271) 
0

>  <ligand_id>  (271) 
89

>  <original_smiles>  (271) 
CCC(=O)NC12CC3CC(C1)C(O)(C3)C2

>  <smiles>  (271) 
[H]OC12C([H])([H])C3([H])C([H])([H])C1([H])C([H])([H])C(N([H])C(=O)C([H])([H])C([H])([H])[H])(C3([H])[H])C2([H])[H]

$$$$
93:0:0
     RDKit          3D

 69 74  0  0  1  0  0  0  0  0999 V2000
    2.2846   -9.7336    4.6860 C   0  0  0  0  0  0  0  0  0  0  0  0
    2.8650   -8.7716    5.1580 C   0  0  0  0  0  0  0  0  0  0  0  0
    3.5892   -7.6242    5.7633 C   0  0  1  0  0  0  0  0  0  0  0  0
    4.4934   -8.1379    6.7208 O   0  0  0  0  0  0  0  0  0  0  0  0
    4.3806   -6.8843    4.6669 C   0  0  0  0  0  0  0  0  0  0  0  0
    3.4655   -5.7549    4.1688 C   0  0  0  0  0  0  0  0  0  0  0  0
    2.2253   -5.7463    5.0900 C   0  0  2  0  0  0  0  0  0  0  0  0
    1.5323   -4.3691    5.3145 C   0  0  2  0  0  0  0  0  0  0  0  0
    1.2254   -3.6883    3.9562 C   0  0  0  0  0  0  0  0  0  0  0  0
    0.4916   -2.3327    4.0467 C   0  0  2  0  0  0  0  0  0  0  0  0
    1.0593   -1.2267    3.1112 C   0  0  0  0  0  0  0  0  0  0  0  0
    0.8963    0.1197    3.8706 C   0  0  2  0  0  0  0  0  0  0  0  0
   -0.4663    0.7878    3.5637 C   0  0  0  0  0  0  0  0  0  0  0  0
   -0.1901    2.1380    2.8923 C   0  0  1  0  0  0  0  0  0  0  0  0
   -0.4767    3.2979    3.8672 C   0  0  0  0  0  0  0  0  0  0  0  0
    1.2813    2.0624    2.4660 C   0  0  1  0  0  0  0  0  0  0  0  0
    1.8759    3.3389    2.4307 O   0  0  0  0  0  0  0  0  0  0  0  0
    1.9528    1.1772    3.5086 C   0  0  0  0  0  0  0  0  0  0  0  0
    1.0035   -0.3088    5.3266 C   0  0  2  0  0  0  0  0  0  0  0  0
    2.3441   -0.8385    5.8474 C   0  0  0  0  0  0  0  0  0  0  0  0
    1.6121   -2.0464    6.4789 C   0  0  2  0  0  0  0  0  0  0  0  0
    1.2998   -1.7649    7.9696 C   0  0  0  0  0  0  0  0  0  0  0  0
    2.3215   -3.4327    6.2650 C   0  0  1  0  0  0  0  0  0  0  0  0
    2.7205   -4.1835    7.5551 C   0  0  0  0  0  0  0  0  0  0  0  0
    3.4606   -5.5014    7.2800 C   0  0  1  0  0  0  0  0  0  0  0  0
    3.7765   -6.0841    8.5287 O   0  0  0  0  0  0  0  0  0  0  0  0
    2.6660   -6.5017    6.3702 C   0  0  2  0  0  0  0  0  0  0  0  0
    1.4337   -7.0719    7.1273 C   0  0  0  0  0  0  0  0  0  0  0  0
    0.4662   -1.7285    5.4622 C   0  0  2  0  0  0  0  0  0  0  0  0
   -0.9674   -1.8239    6.0480 C   0  0  0  0  0  0  0  0  0  0  0  0
   -1.6786   -0.7987    6.0772 O   0  0  0  0  0  0  0  0  0  0  0  0
   -1.3329   -2.9341    6.4804 O   0  0  0  0  0  0  0  0  0  0  0  0
    1.7842  -10.5975    4.3040 H   0  0  0  0  0  0  0  0  0  0  0  0
    4.4270   -9.0835    6.7024 H   0  0  0  0  0  0  0  0  0  0  0  0
    5.2903   -6.4434    5.0797 H   0  0  0  0  0  0  0  0  0  0  0  0
    4.7091   -7.5352    3.8528 H   0  0  0  0  0  0  0  0  0  0  0  0
    4.0055   -4.8096    4.2101 H   0  0  0  0  0  0  0  0  0  0  0  0
    3.1664   -5.9172    3.1326 H   0  0  0  0  0  0  0  0  0  0  0  0
    1.4873   -6.3761    4.5939 H   0  0  0  0  0  0  0  0  0  0  0  0
    0.5798   -4.5822    5.8020 H   0  0  0  0  0  0  0  0  0  0  0  0
    2.1590   -3.5477    3.4159 H   0  0  0  0  0  0  0  0  0  0  0  0
    0.6333   -4.3676    3.3449 H   0  0  0  0  0  0  0  0  0  0  0  0
   -0.5337   -2.5079    3.7206 H   0  0  0  0  0  0  0  0  0  0  0  0
    2.1207   -1.4064    2.9493 H   0  0  0  0  0  0  0  0  0  0  0  0
    0.6150   -1.2250    2.1160 H   0  0  0  0  0  0  0  0  0  0  0  0
   -1.1034    0.1542    2.9443 H   0  0  0  0  0  0  0  0  0  0  0  0
   -1.0393    0.9653    4.4673 H   0  0  0  0  0  0  0  0  0  0  0  0
   -0.8282    2.2476    2.0149 H   0  0  0  0  0  0  0  0  0  0  0  0
    0.1503    3.2125    4.7536 H   0  0  0  0  0  0  0  0  0  0  0  0
   -1.5157    3.3065    4.1972 H   0  0  0  0  0  0  0  0  0  0  0  0
   -0.2772    4.2669    3.4138 H   0  0  0  0  0  0  0  0  0  0  0  0
    1.3556    1.5935    1.4787 H   0  0  0  0  0  0  0  0  0  0  0  0
    1.3172    3.8757    1.8633 H   0  0  0  0  0  0  0  0  0  0  0  0
    2.1583    1.7844    4.3893 H   0  0  0  0  0  0  0  0  0  0  0  0
    2.9088    0.7698    3.1669 H   0  0  0  0  0  0  0  0  0  0  0  0
    0.5899    0.3926    6.0506 H   0  0  0  0  0  0  0  0  0  0  0  0
    3.0334   -1.1081    5.0481 H   0  0  0  0  0  0  0  0  0  0  0  0
    2.8209   -0.1684    6.5624 H   0  0  0  0  0  0  0  0  0  0  0  0
    0.6357   -2.5108    8.4061 H   0  0  0  0  0  0  0  0  0  0  0  0
    0.8061   -0.7999    8.0870 H   0  0  0  0  0  0  0  0  0  0  0  0
    2.2060   -1.7007    8.5708 H   0  0  0  0  0  0  0  0  0  0  0  0
    3.2628   -3.2302    5.7627 H   0  0  0  0  0  0  0  0  0  0  0  0
    3.3831   -3.5530    8.1505 H   0  0  0  0  0  0  0  0  0  0  0  0
    1.8404   -4.3872    8.1659 H   0  0  0  0  0  0  0  0  0  0  0  0
    4.4122   -5.2533    6.8080 H   0  0  0  0  0  0  0  0  0  0  0  0
    4.2538   -6.8843    8.3381 H   0  0  0  0  0  0  0  0  0  0  0  0
    0.8276   -6.2798    7.5627 H   0  0  0  0  0  0  0  0  0  0  0  0
    1.7335   -7.7399    7.9354 H   0  0  0  0  0  0  0  0  0  0  0  0
    0.7702   -7.6340    6.4712 H   0  0  0  0  0  0  0  0  0  0  0  0
  1  2  3  0
  1 33  1  0
  3  2  1  6
  3 27  1  0
  3  4  1  0
  3  5  1  0
  4 34  1  0
  5  6  1  0
  5 35  1  0
  5 36  1  0
  6  7  1  0
  6 37  1  0
  6 38  1  0
  7 27  1  0
  7  8  1  0
  7 39  1  6
  8 23  1  0
  8  9  1  0
  8 40  1  1
  9 10  1  0
  9 41  1  0
  9 42  1  0
 10 29  1  0
 10 11  1  0
 10 43  1  6
 12 11  1  6
 11 44  1  0
 11 45  1  0
 12 18  1  0
 12 13  1  0
 12 19  1  0
 13 14  1  0
 13 46  1  0
 13 47  1  0
 14 15  1  0
 14 16  1  0
 14 48  1  6
 15 49  1  0
 15 50  1  0
 15 51  1  0
 16 17  1  0
 16 18  1  0
 16 52  1  6
 17 53  1  0
 18 54  1  0
 18 55  1  0
 19 29  1  0
 19 20  1  0
 19 56  1  1
 20 21  1  0
 20 57  1  0
 20 58  1  0
 21 22  1  1
 21 23  1  0
 21 29  1  0
 22 59  1  0
 22 60  1  0
 22 61  1  0
 23 24  1  0
 23 62  1  6
 24 25  1  0
 24 63  1  0
 24 64  1  0
 25 26  1  0
 25 27  1  0
 25 65  1  6
 26 66  1  0
 27 28  1  1
 28 67  1  0
 28 68  1  0
 28 69  1  0
 29 30  1  1
 30 31  2  0
 30 32  1  0
M  CHG  1  32  -1
M  END
>  <i_m_ct_stereo_status>  (272) 
1

>  <s_m_source_file>  (272) 
/var/tmp/pbs.5076255.sched01/tmppy4q9rbr/123plv7d954.sdf

>  <i_m_source_file_index>  (272) 
1

>  <i_lp_mmshare_version>  (272) 
48012

>  <i_f3d_flags>  (272) 
0

>  <s_epik_input>  (272) 
W0NIMl0xW0NAXTIoW0NIM10pW0NASF0zW0NIMl1bQ0BASF0oW09IXSlbQ0BdKFtDSDNdKShbQ0BAXShbT0hdKShDI1tDSF0pW0NIMl1bQ0gyXTQpW0NASF00W0NAQEhdM1tDSDJdW0NASF0oW0NIMl01KVtDQF0yKEMoPU8pW09IXSlbQ0BASF0xW0NAXTU2W0NIMl1bQ0BASF0oW0NIM10pW0NAQEhdKFtPSF0pW0NIMl02

>  <s_epik_cmdline>  (272) 
J2VwaWtfcHl0aG9uJywgJy1waHQnLCAnMi4wJywgJy1waCcsICc3LjAnLCAnLXRuJywgJzgnLCAnLW1hJywgJzIwMCcsICctaW1hZScsICc8aW5maWxlLm1hZT4nLCAnLW9tYWUnLCAnPG91dGZpbGUubWFlPic=

>  <r_epik_Ionization_Penalty>  (272) 
0.00927561

>  <r_epik_Ionization_Penalty_Charging>  (272) 
0.00927271

>  <r_epik_Ionization_Penalty_Neutral>  (272) 
2.89652e-06

>  <r_epik_State_Penalty>  (272) 
0.00703309

>  <r_epik_Charging_Adjusted_Penalty>  (272) 
0.0163058

>  <i_epik_Tot_Q>  (272) 
-1

>  <i_epik_Tot_abs_Q>  (272) 
1

>  <s_lp_Force_Field>  (272) 
OPLS3e

>  <r_lp_Energy>  (272) 
52.7061

>  <b_lp_Chiralities_Consistent>  (272) 
1

>  <s_lp_Variant>  (272) 
93:0-1

>  <s_i_glide_gridfile>  (272) 
pfpi4k_grid

>  <i_i_glide_lignum>  (272) 
1

>  <i_i_glide_rotatable_bonds>  (272) 
5

>  <r_i_docking_score>  (272) 
-3.14876

>  <r_i_glide_ligand_efficiency>  (272) 
-0.0983986

>  <r_i_glide_ligand_efficiency_sa>  (272) 
-0.312396

>  <r_i_glide_ligand_efficiency_ln>  (272) 
-0.705092

>  <r_i_glide_gscore>  (272) 
-3.14876

>  <r_i_glide_lipo>  (272) 
-0.0633713

>  <r_i_glide_hbond>  (272) 
-0.275407

>  <r_i_glide_metal>  (272) 
-0

>  <r_i_glide_rewards>  (272) 
-0.89832

>  <r_i_glide_evdw>  (272) 
-13.3912

>  <r_i_glide_ecoul>  (272) 
-8.59464

>  <r_i_glide_erotb>  (272) 
0.102446

>  <r_i_glide_esite>  (272) 
-0.0553479

>  <r_i_glide_emodel>  (272) 
-33.3797

>  <r_i_glide_energy>  (272) 
-21.9858

>  <r_i_glide_einternal>  (272) 
3.39326

>  <r_i_glide_intrahb_reward>  (272) 
-0.5

>  <i_i_glide_confnum>  (272) 
2

>  <i_i_glide_posenum>  (272) 
14

>  <r_i_glide_eff_state_penalty>  (272) 
0

>  <ligand_id>  (272) 
93

>  <original_smiles>  (272) 
C#CC1(O)CCC2C3CC4CC5(CC(C)C(O)C5)C5CC(C)(C3CC(O)C21C)C45C(=O)O

>  <smiles>  (272) 
[H]C#CC1(O[H])C([H])([H])C([H])([H])C2([H])C3([H])C([H])([H])C4([H])C([H])([H])C5(C([H])([H])C([H])(O[H])C([H])(C([H])([H])[H])C5([H])[H])C5([H])C([H])([H])C(C([H])([H])[H])(C3([H])C([H])([H])C([H])(O[H])C12C([H])([H])[H])C45C(=O)[O-]

$$$$
93:0:1
     RDKit          3D

 69 74  0  0  1  0  0  0  0  0999 V2000
    0.8601    1.1103    6.1558 C   0  0  0  0  0  0  0  0  0  0  0  0
    1.7200    0.6428    5.4124 C   0  0  0  0  0  0  0  0  0  0  0  0
    2.7825    0.1361    4.5156 C   0  0  1  0  0  0  0  0  0  0  0  0
    3.4240    1.2401    3.9277 O   0  0  0  0  0  0  0  0  0  0  0  0
    3.8269   -0.6262    5.3519 C   0  0  0  0  0  0  0  0  0  0  0  0
    3.4080   -2.1026    5.3216 C   0  0  0  0  0  0  0  0  0  0  0  0
    2.2232   -2.2095    4.3354 C   0  0  2  0  0  0  0  0  0  0  0  0
    2.0769   -3.5618    3.5755 C   0  0  2  0  0  0  0  0  0  0  0  0
    2.1097   -4.7505    4.5732 C   0  0  0  0  0  0  0  0  0  0  0  0
    1.9199   -6.1401    3.9541 C   0  0  2  0  0  0  0  0  0  0  0  0
    2.8882   -7.2385    4.4655 C   0  0  0  0  0  0  0  0  0  0  0  0
    3.1639   -8.1759    3.2582 C   0  0  2  0  0  0  0  0  0  0  0  0
    2.1496   -9.3232    3.1985 C   0  0  0  0  0  0  0  0  0  0  0  0
    2.7666  -10.4806    3.9928 C   0  0  1  0  0  0  0  0  0  0  0  0
    2.2662  -11.8559    3.5267 C   0  0  0  0  0  0  0  0  0  0  0  0
    4.2949  -10.2847    3.9178 C   0  0  1  0  0  0  0  0  0  0  0  0
    4.9751  -11.2343    3.1147 O   0  0  0  0  0  0  0  0  0  0  0  0
    4.5270   -8.8874    3.3135 C   0  0  0  0  0  0  0  0  0  0  0  0
    3.0275   -7.2308    2.0667 C   0  0  2  0  0  0  0  0  0  0  0  0
    4.0699   -6.1238    1.9164 C   0  0  0  0  0  0  0  0  0  0  0  0
    2.9356   -5.0991    1.6804 C   0  0  2  0  0  0  0  0  0  0  0  0
    2.7775   -4.8813    0.1571 C   0  0  0  0  0  0  0  0  0  0  0  0
    3.1094   -3.7426    2.4389 C   0  0  1  0  0  0  0  0  0  0  0  0
    3.1574   -2.4723    1.5516 C   0  0  0  0  0  0  0  0  0  0  0  0
    3.3721   -1.1733    2.3368 C   0  0  1  0  0  0  0  0  0  0  0  0
    3.3862   -0.1049    1.4089 O   0  0  0  0  0  0  0  0  0  0  0  0
    2.3093   -0.9285    3.4634 C   0  0  2  0  0  0  0  0  0  0  0  0
    0.9255   -0.6036    2.8355 C   0  0  0  0  0  0  0  0  0  0  0  0
    1.9970   -6.1600    2.3986 C   0  0  2  0  0  0  0  0  0  0  0  0
    0.5889   -6.4269    1.7420 C   0  0  0  0  0  0  0  0  0  0  0  0
   -0.3985   -6.6484    2.4757 O   0  0  0  0  0  0  0  0  0  0  0  0
    0.4197   -6.2922    0.5202 O   0  0  0  0  0  0  0  0  0  0  0  0
    0.1395    1.5624    6.7831 H   0  0  0  0  0  0  0  0  0  0  0  0
    3.2639    1.2140    2.9772 H   0  0  0  0  0  0  0  0  0  0  0  0
    4.8193   -0.5362    4.9035 H   0  0  0  0  0  0  0  0  0  0  0  0
    3.9256   -0.2463    6.3717 H   0  0  0  0  0  0  0  0  0  0  0  0
    4.2573   -2.7090    5.0055 H   0  0  0  0  0  0  0  0  0  0  0  0
    3.1099   -2.4508    6.3168 H   0  0  0  0  0  0  0  0  0  0  0  0
    1.3276   -2.1121    4.9498 H   0  0  0  0  0  0  0  0  0  0  0  0
    1.0932   -3.5490    3.1061 H   0  0  0  0  0  0  0  0  0  0  0  0
    3.0422   -4.7345    5.1306 H   0  0  0  0  0  0  0  0  0  0  0  0
    1.3287   -4.5962    5.3154 H   0  0  0  0  0  0  0  0  0  0  0  0
    0.9505   -6.4823    4.3227 H   0  0  0  0  0  0  0  0  0  0  0  0
    3.8233   -6.7827    4.7991 H   0  0  0  0  0  0  0  0  0  0  0  0
    2.4840   -7.7715    5.3286 H   0  0  0  0  0  0  0  0  0  0  0  0
    1.1576   -9.0410    3.5695 H   0  0  0  0  0  0  0  0  0  0  0  0
    2.0206   -9.6360    2.1702 H   0  0  0  0  0  0  0  0  0  0  0  0
    2.4716  -10.3495    5.0291 H   0  0  0  0  0  0  0  0  0  0  0  0
    2.5435  -12.0602    2.4928 H   0  0  0  0  0  0  0  0  0  0  0  0
    1.1780  -11.9438    3.5820 H   0  0  0  0  0  0  0  0  0  0  0  0
    2.6988  -12.6428    4.1326 H   0  0  0  0  0  0  0  0  0  0  0  0
    4.7149  -10.3331    4.9288 H   0  0  0  0  0  0  0  0  0  0  0  0
    4.4796  -11.3743    2.3044 H   0  0  0  0  0  0  0  0  0  0  0  0
    4.8989   -9.0020    2.2995 H   0  0  0  0  0  0  0  0  0  0  0  0
    5.3015   -8.3349    3.8575 H   0  0  0  0  0  0  0  0  0  0  0  0
    2.8705   -7.7099    1.1012 H   0  0  0  0  0  0  0  0  0  0  0  0
    4.6564   -5.9473    2.8200 H   0  0  0  0  0  0  0  0  0  0  0  0
    4.7391   -6.2745    1.0718 H   0  0  0  0  0  0  0  0  0  0  0  0
    1.8810   -4.3102   -0.0853 H   0  0  0  0  0  0  0  0  0  0  0  0
    2.7082   -5.8359   -0.3402 H   0  0  0  0  0  0  0  0  0  0  0  0
    3.6406   -4.3910   -0.3081 H   0  0  0  0  0  0  0  0  0  0  0  0
    4.0813   -3.7660    2.9260 H   0  0  0  0  0  0  0  0  0  0  0  0
    3.9882   -2.5624    0.8444 H   0  0  0  0  0  0  0  0  0  0  0  0
    2.2427   -2.3899    0.9627 H   0  0  0  0  0  0  0  0  0  0  0  0
    4.3669   -1.2253    2.7833 H   0  0  0  0  0  0  0  0  0  0  0  0
    2.5680   -0.1442    0.9090 H   0  0  0  0  0  0  0  0  0  0  0  0
    0.6351   -1.3400    2.0885 H   0  0  0  0  0  0  0  0  0  0  0  0
    0.9238    0.3733    2.3496 H   0  0  0  0  0  0  0  0  0  0  0  0
    0.1286   -0.5957    3.5793 H   0  0  0  0  0  0  0  0  0  0  0  0
  1  2  3  0
  1 33  1  0
  3  2  1  1
  3 27  1  0
  3  4  1  0
  3  5  1  0
  4 34  1  0
  5  6  1  0
  5 35  1  0
  5 36  1  0
  6  7  1  0
  6 37  1  0
  6 38  1  0
  7 27  1  0
  7  8  1  0
  7 39  1  1
  8 23  1  0
  8  9  1  0
  8 40  1  6
  9 10  1  0
  9 41  1  0
  9 42  1  0
 10 29  1  0
 10 11  1  0
 10 43  1  6
 12 11  1  1
 11 44  1  0
 11 45  1  0
 12 18  1  0
 12 13  1  0
 12 19  1  0
 13 14  1  0
 13 46  1  0
 13 47  1  0
 14 15  1  0
 14 16  1  0
 14 48  1  1
 15 49  1  0
 15 50  1  0
 15 51  1  0
 16 17  1  0
 16 18  1  0
 16 52  1  1
 17 53  1  0
 18 54  1  0
 18 55  1  0
 19 29  1  0
 19 20  1  0
 19 56  1  6
 20 21  1  0
 20 57  1  0
 20 58  1  0
 21 22  1  6
 21 23  1  0
 21 29  1  0
 22 59  1  0
 22 60  1  0
 22 61  1  0
 23 24  1  0
 23 62  1  1
 24 25  1  0
 24 63  1  0
 24 64  1  0
 25 26  1  0
 25 27  1  0
 25 65  1  1
 26 66  1  0
 27 28  1  6
 28 67  1  0
 28 68  1  0
 28 69  1  0
 29 30  1  6
 30 31  2  0
 30 32  1  0
M  CHG  1  32  -1
M  END
>  <i_m_ct_stereo_status>  (273) 
1

>  <s_m_source_file>  (273) 
/var/tmp/pbs.5076255.sched01/tmppy4q9rbr/123plv7d954.sdf

>  <i_m_source_file_index>  (273) 
1

>  <i_lp_mmshare_version>  (273) 
48012

>  <i_f3d_flags>  (273) 
0

>  <s_epik_input>  (273) 
W0NIMl0xW0NAXTIoW0NIM10pW0NASF0zW0NIMl1bQ0BASF0oW09IXSlbQ0BdKFtDSDNdKShbQ0BAXShbT0hdKShDI1tDSF0pW0NIMl1bQ0gyXTQpW0NASF00W0NAQEhdM1tDSDJdW0NASF0oW0NIMl01KVtDQF0yKEMoPU8pW09IXSlbQ0BASF0xW0NAXTU2W0NIMl1bQ0BASF0oW0NIM10pW0NAQEhdKFtPSF0pW0NIMl02

>  <s_epik_cmdline>  (273) 
J2VwaWtfcHl0aG9uJywgJy1waHQnLCAnMi4wJywgJy1waCcsICc3LjAnLCAnLXRuJywgJzgnLCAnLW1hJywgJzIwMCcsICctaW1hZScsICc8aW5maWxlLm1hZT4nLCAnLW9tYWUnLCAnPG91dGZpbGUubWFlPic=

>  <r_epik_Ionization_Penalty>  (273) 
0.00927561

>  <r_epik_Ionization_Penalty_Charging>  (273) 
0.00927271

>  <r_epik_Ionization_Penalty_Neutral>  (273) 
2.89652e-06

>  <r_epik_State_Penalty>  (273) 
0.00703309

>  <r_epik_Charging_Adjusted_Penalty>  (273) 
0.0163058

>  <i_epik_Tot_Q>  (273) 
-1

>  <i_epik_Tot_abs_Q>  (273) 
1

>  <s_lp_Force_Field>  (273) 
OPLS3e

>  <r_lp_Energy>  (273) 
52.7061

>  <b_lp_Chiralities_Consistent>  (273) 
1

>  <s_lp_Variant>  (273) 
93:0-1

>  <s_i_glide_gridfile>  (273) 
pfpi4k_grid

>  <i_i_glide_lignum>  (273) 
1

>  <i_i_glide_rotatable_bonds>  (273) 
5

>  <r_i_docking_score>  (273) 
-3.13984

>  <r_i_glide_ligand_efficiency>  (273) 
-0.09812

>  <r_i_glide_ligand_efficiency_sa>  (273) 
-0.311512

>  <r_i_glide_ligand_efficiency_ln>  (273) 
-0.703096

>  <r_i_glide_gscore>  (273) 
-3.13984

>  <r_i_glide_lipo>  (273) 
-0.0461403

>  <r_i_glide_hbond>  (273) 
-0.536941

>  <r_i_glide_metal>  (273) 
-0

>  <r_i_glide_rewards>  (273) 
-0.39832

>  <r_i_glide_evdw>  (273) 
-17.2393

>  <r_i_glide_ecoul>  (273) 
-8.65946

>  <r_i_glide_erotb>  (273) 
0.102446

>  <r_i_glide_esite>  (273) 
-0.1

>  <r_i_glide_emodel>  (273) 
-30.3211

>  <r_i_glide_energy>  (273) 
-25.8988

>  <r_i_glide_einternal>  (273) 
5.90807

>  <r_i_glide_intrahb_reward>  (273) 
-0

>  <i_i_glide_confnum>  (273) 
1

>  <i_i_glide_posenum>  (273) 
10

>  <r_i_glide_eff_state_penalty>  (273) 
0

>  <ligand_id>  (273) 
93

>  <original_smiles>  (273) 
C#CC1(O)CCC2C3CC4CC5(CC(C)C(O)C5)C5CC(C)(C3CC(O)C21C)C45C(=O)O

>  <smiles>  (273) 
[H]C#CC1(O[H])C([H])([H])C([H])([H])C2([H])C3([H])C([H])([H])C4([H])C([H])([H])C5(C([H])([H])C([H])(O[H])C([H])(C([H])([H])[H])C5([H])[H])C5([H])C([H])([H])C(C([H])([H])[H])(C3([H])C([H])([H])C([H])(O[H])C12C([H])([H])[H])C45C(=O)[O-]

$$$$
93:0:2
     RDKit          3D

 69 74  0  0  1  0  0  0  0  0999 V2000
    3.5533   -2.4025   -1.5652 C   0  0  0  0  0  0  0  0  0  0  0  0
    4.0029   -2.1547   -0.4605 C   0  0  0  0  0  0  0  0  0  0  0  0
    4.5557   -1.8703    0.8854 C   0  0  1  0  0  0  0  0  0  0  0  0
    5.7887   -2.5464    1.0075 O   0  0  0  0  0  0  0  0  0  0  0  0
    4.8180   -0.3576    1.0264 C   0  0  0  0  0  0  0  0  0  0  0  0
    3.5554    0.2426    1.6704 C   0  0  0  0  0  0  0  0  0  0  0  0
    2.6436   -0.9439    2.0510 C   0  0  2  0  0  0  0  0  0  0  0  0
    1.7214   -0.7373    3.2859 C   0  0  2  0  0  0  0  0  0  0  0  0
    0.9118    0.5776    3.1450 C   0  0  0  0  0  0  0  0  0  0  0  0
   -0.0801    0.8588    4.2942 C   0  0  2  0  0  0  0  0  0  0  0  0
   -0.0712    2.3307    4.8098 C   0  0  0  0  0  0  0  0  0  0  0  0
   -0.3424    2.2601    6.3381 C   0  0  2  0  0  0  0  0  0  0  0  0
   -1.8574    2.3572    6.6497 C   0  0  0  0  0  0  0  0  0  0  0  0
   -2.1011    3.6206    7.4829 C   0  0  1  0  0  0  0  0  0  0  0  0
   -2.3960    3.2500    8.9532 C   0  0  0  0  0  0  0  0  0  0  0  0
   -0.8146    4.4450    7.3069 C   0  0  1  0  0  0  0  0  0  0  0  0
   -0.5303    5.2756    8.4136 O   0  0  0  0  0  0  0  0  0  0  0  0
    0.2918    3.4119    7.1359 C   0  0  0  0  0  0  0  0  0  0  0  0
    0.2352    0.9117    6.7159 C   0  0  2  0  0  0  0  0  0  0  0  0
    1.7546    0.7187    6.6392 C   0  0  0  0  0  0  0  0  0  0  0  0
    1.5427   -0.6085    5.8752 C   0  0  2  0  0  0  0  0  0  0  0  0
    1.5968   -1.7995    6.8658 C   0  0  0  0  0  0  0  0  0  0  0  0
    2.4839   -0.8142    4.6352 C   0  0  1  0  0  0  0  0  0  0  0  0
    3.3776   -2.0738    4.6790 C   0  0  0  0  0  0  0  0  0  0  0  0
    4.3214   -2.1976    3.4676 C   0  0  1  0  0  0  0  0  0  0  0  0
    5.0793   -3.3864    3.6088 O   0  0  0  0  0  0  0  0  0  0  0  0
    3.5813   -2.1788    2.0875 C   0  0  2  0  0  0  0  0  0  0  0  0
    2.7675   -3.4891    1.8924 C   0  0  0  0  0  0  0  0  0  0  0  0
    0.1264   -0.0330    5.5295 C   0  0  2  0  0  0  0  0  0  0  0  0
   -1.0485   -1.0436    5.6321 C   0  0  0  0  0  0  0  0  0  0  0  0
   -2.1502   -0.6246    6.0572 O   0  0  0  0  0  0  0  0  0  0  0  0
   -0.8625   -2.2088    5.2437 O   0  0  0  0  0  0  0  0  0  0  0  0
    3.1636   -2.6402   -2.5278 H   0  0  0  0  0  0  0  0  0  0  0  0
    5.7272   -3.1338    1.7515 H   0  0  0  0  0  0  0  0  0  0  0  0
    5.6711   -0.1807    1.6852 H   0  0  0  0  0  0  0  0  0  0  0  0
    5.0643    0.1242    0.0793 H   0  0  0  0  0  0  0  0  0  0  0  0
    3.8365    0.8317    2.5426 H   0  0  0  0  0  0  0  0  0  0  0  0
    3.0434    0.9077    0.9744 H   0  0  0  0  0  0  0  0  0  0  0  0
    1.9711   -1.0805    1.2033 H   0  0  0  0  0  0  0  0  0  0  0  0
    1.0046   -1.5643    3.2818 H   0  0  0  0  0  0  0  0  0  0  0  0
    1.6035    1.4137    3.0603 H   0  0  0  0  0  0  0  0  0  0  0  0
    0.3604    0.5615    2.2011 H   0  0  0  0  0  0  0  0  0  0  0  0
   -1.0778    0.6961    3.8898 H   0  0  0  0  0  0  0  0  0  0  0  0
    0.9185    2.7582    4.6521 H   0  0  0  0  0  0  0  0  0  0  0  0
   -0.7630    2.9722    4.2701 H   0  0  0  0  0  0  0  0  0  0  0  0
   -2.4537    2.3416    5.7380 H   0  0  0  0  0  0  0  0  0  0  0  0
   -2.1934    1.5016    7.2280 H   0  0  0  0  0  0  0  0  0  0  0  0
   -2.9650    4.1526    7.0813 H   0  0  0  0  0  0  0  0  0  0  0  0
   -1.5656    2.6954    9.3889 H   0  0  0  0  0  0  0  0  0  0  0  0
   -3.2788    2.6222    9.0465 H   0  0  0  0  0  0  0  0  0  0  0  0
   -2.5670    4.1275    9.5712 H   0  0  0  0  0  0  0  0  0  0  0  0
   -0.8854    5.0679    6.4077 H   0  0  0  0  0  0  0  0  0  0  0  0
   -0.5455    4.7402    9.1952 H   0  0  0  0  0  0  0  0  0  0  0  0
    0.5721    3.0382    8.1250 H   0  0  0  0  0  0  0  0  0  0  0  0
    1.1945    3.8383    6.6913 H   0  0  0  0  0  0  0  0  0  0  0  0
   -0.1323    0.4855    7.6470 H   0  0  0  0  0  0  0  0  0  0  0  0
    2.2576    1.4939    6.0552 H   0  0  0  0  0  0  0  0  0  0  0  0
    2.2289    0.6112    7.6183 H   0  0  0  0  0  0  0  0  0  0  0  0
    1.2977   -2.7428    6.4117 H   0  0  0  0  0  0  0  0  0  0  0  0
    0.9178   -1.6303    7.7042 H   0  0  0  0  0  0  0  0  0  0  0  0
    2.5858   -1.9294    7.3069 H   0  0  0  0  0  0  0  0  0  0  0  0
    3.1824    0.0224    4.6227 H   0  0  0  0  0  0  0  0  0  0  0  0
    3.9984   -2.0404    5.5742 H   0  0  0  0  0  0  0  0  0  0  0  0
    2.7598   -2.9687    4.7538 H   0  0  0  0  0  0  0  0  0  0  0  0
    5.0157   -1.3616    3.5186 H   0  0  0  0  0  0  0  0  0  0  0  0
    4.4735   -4.1108    3.6423 H   0  0  0  0  0  0  0  0  0  0  0  0
    2.1132   -3.6941    2.7400 H   0  0  0  0  0  0  0  0  0  0  0  0
    3.4164   -4.3547    1.7534 H   0  0  0  0  0  0  0  0  0  0  0  0
    2.1207   -3.4331    1.0181 H   0  0  0  0  0  0  0  0  0  0  0  0
  1  2  3  0
  1 33  1  0
  3  2  1  6
  3 27  1  0
  3  4  1  0
  3  5  1  0
  4 34  1  0
  5  6  1  0
  5 35  1  0
  5 36  1  0
  6  7  1  0
  6 37  1  0
  6 38  1  0
  7 27  1  0
  7  8  1  0
  7 39  1  6
  8 23  1  0
  8  9  1  0
  8 40  1  1
  9 10  1  0
  9 41  1  0
  9 42  1  0
 10 29  1  0
 10 11  1  0
 10 43  1  6
 12 11  1  6
 11 44  1  0
 11 45  1  0
 12 18  1  0
 12 13  1  0
 12 19  1  0
 13 14  1  0
 13 46  1  0
 13 47  1  0
 14 15  1  0
 14 16  1  0
 14 48  1  6
 15 49  1  0
 15 50  1  0
 15 51  1  0
 16 17  1  0
 16 18  1  0
 16 52  1  6
 17 53  1  0
 18 54  1  0
 18 55  1  0
 19 29  1  0
 19 20  1  0
 19 56  1  1
 20 21  1  0
 20 57  1  0
 20 58  1  0
 21 22  1  1
 21 23  1  0
 21 29  1  0
 22 59  1  0
 22 60  1  0
 22 61  1  0
 23 24  1  0
 23 62  1  6
 24 25  1  0
 24 63  1  0
 24 64  1  0
 25 26  1  0
 25 27  1  0
 25 65  1  6
 26 66  1  0
 27 28  1  6
 28 67  1  0
 28 68  1  0
 28 69  1  0
 29 30  1  1
 30 31  2  0
 30 32  1  0
M  CHG  1  32  -1
M  END
>  <i_m_ct_stereo_status>  (274) 
1

>  <s_m_source_file>  (274) 
/var/tmp/pbs.5076255.sched01/tmppy4q9rbr/123plv7d954.sdf

>  <i_m_source_file_index>  (274) 
1

>  <i_lp_mmshare_version>  (274) 
48012

>  <i_f3d_flags>  (274) 
0

>  <s_epik_input>  (274) 
W0NIMl0xW0NAXTIoW0NIM10pW0NASF0zW0NIMl1bQ0BASF0oW09IXSlbQ0BdKFtDSDNdKShbQ0BAXShbT0hdKShDI1tDSF0pW0NIMl1bQ0gyXTQpW0NASF00W0NAQEhdM1tDSDJdW0NASF0oW0NIMl01KVtDQF0yKEMoPU8pW09IXSlbQ0BASF0xW0NAXTU2W0NIMl1bQ0BASF0oW0NIM10pW0NAQEhdKFtPSF0pW0NIMl02

>  <s_epik_cmdline>  (274) 
J2VwaWtfcHl0aG9uJywgJy1waHQnLCAnMi4wJywgJy1waCcsICc3LjAnLCAnLXRuJywgJzgnLCAnLW1hJywgJzIwMCcsICctaW1hZScsICc8aW5maWxlLm1hZT4nLCAnLW9tYWUnLCAnPG91dGZpbGUubWFlPic=

>  <r_epik_Ionization_Penalty>  (274) 
0.00927561

>  <r_epik_Ionization_Penalty_Charging>  (274) 
0.00927271

>  <r_epik_Ionization_Penalty_Neutral>  (274) 
2.89652e-06

>  <r_epik_State_Penalty>  (274) 
0.00703309

>  <r_epik_Charging_Adjusted_Penalty>  (274) 
0.0163058

>  <i_epik_Tot_Q>  (274) 
-1

>  <i_epik_Tot_abs_Q>  (274) 
1

>  <s_lp_Force_Field>  (274) 
OPLS3e

>  <r_lp_Energy>  (274) 
52.7061

>  <b_lp_Chiralities_Consistent>  (274) 
1

>  <s_lp_Variant>  (274) 
93:0-1

>  <s_i_glide_gridfile>  (274) 
pfpi4k_grid

>  <i_i_glide_lignum>  (274) 
1

>  <i_i_glide_rotatable_bonds>  (274) 
5

>  <r_i_docking_score>  (274) 
-2.3542

>  <r_i_glide_ligand_efficiency>  (274) 
-0.0735686

>  <r_i_glide_ligand_efficiency_sa>  (274) 
-0.233566

>  <r_i_glide_ligand_efficiency_ln>  (274) 
-0.527168

>  <r_i_glide_gscore>  (274) 
-2.3542

>  <r_i_glide_lipo>  (274) 
-0.308101

>  <r_i_glide_hbond>  (274) 
-0.13905

>  <r_i_glide_metal>  (274) 
-0

>  <r_i_glide_rewards>  (274) 
-0.39832

>  <r_i_glide_evdw>  (274) 
-19.8671

>  <r_i_glide_ecoul>  (274) 
-3.79361

>  <r_i_glide_erotb>  (274) 
0.102446

>  <r_i_glide_esite>  (274) 
-0.0487758

>  <r_i_glide_emodel>  (274) 
-28.3484

>  <r_i_glide_energy>  (274) 
-23.6607

>  <r_i_glide_einternal>  (274) 
2.25355

>  <r_i_glide_intrahb_reward>  (274) 
-0

>  <i_i_glide_confnum>  (274) 
6

>  <i_i_glide_posenum>  (274) 
23

>  <r_i_glide_eff_state_penalty>  (274) 
0

>  <ligand_id>  (274) 
93

>  <original_smiles>  (274) 
C#CC1(O)CCC2C3CC4CC5(CC(C)C(O)C5)C5CC(C)(C3CC(O)C21C)C45C(=O)O

>  <smiles>  (274) 
[H]C#CC1(O[H])C([H])([H])C([H])([H])C2([H])C3([H])C([H])([H])C4([H])C([H])([H])C5(C([H])([H])C([H])(O[H])C([H])(C([H])([H])[H])C5([H])[H])C5([H])C([H])([H])C(C([H])([H])[H])(C3([H])C([H])([H])C([H])(O[H])C12C([H])([H])[H])C45C(=O)[O-]

$$$$
93:1:0
     RDKit          3D

 70 75  0  0  1  0  0  0  0  0999 V2000
    2.6290    2.7924    3.4005 C   0  0  0  0  0  0  0  0  0  0  0  0
    1.7226    1.9803    3.5808 C   0  0  0  0  0  0  0  0  0  0  0  0
    0.5995    1.0416    3.7752 C   0  0  1  0  0  0  0  0  0  0  0  0
   -0.5859    1.7762    4.0038 O   0  0  0  0  0  0  0  0  0  0  0  0
    0.4082    0.2188    2.4922 C   0  0  0  0  0  0  0  0  0  0  0  0
    1.2248   -1.0676    2.6751 C   0  0  0  0  0  0  0  0  0  0  0  0
    1.7402   -1.0636    4.1334 C   0  0  2  0  0  0  0  0  0  0  0  0
    1.9397   -2.4619    4.8026 C   0  0  2  0  0  0  0  0  0  0  0  0
    2.7865   -3.4094    3.9068 C   0  0  0  0  0  0  0  0  0  0  0  0
    2.5630   -4.9273    4.0798 C   0  0  2  0  0  0  0  0  0  0  0  0
    1.6141   -5.5559    3.0383 C   0  0  0  0  0  0  0  0  0  0  0  0
    1.0664   -6.8456    3.6896 C   0  0  2  0  0  0  0  0  0  0  0  0
    2.0197   -8.0521    3.4591 C   0  0  0  0  0  0  0  0  0  0  0  0
    1.1554   -9.2955    3.1690 C   0  0  1  0  0  0  0  0  0  0  0  0
    1.5934  -10.5487    3.9511 C   0  0  0  0  0  0  0  0  0  0  0  0
   -0.2954   -8.8573    3.4197 C   0  0  1  0  0  0  0  0  0  0  0  0
   -0.6389   -9.0522    4.7801 O   0  0  0  0  0  0  0  0  0  0  0  0
   -0.2818   -7.3557    3.1183 C   0  0  0  0  0  0  0  0  0  0  0  0
    1.0157   -6.4592    5.1814 C   0  0  2  0  0  0  0  0  0  0  0  0
   -0.1091   -5.5724    5.6807 C   0  0  0  0  0  0  0  0  0  0  0  0
    0.8667   -4.4528    6.0553 C   0  0  2  0  0  0  0  0  0  0  0  0
    0.8525   -4.2406    7.5793 C   0  0  0  0  0  0  0  0  0  0  0  0
    0.6218   -3.1082    5.2957 C   0  0  1  0  0  0  0  0  0  0  0  0
   -0.2707   -2.0971    6.0475 C   0  0  0  0  0  0  0  0  0  0  0  0
   -0.4981   -0.7903    5.2749 C   0  0  1  0  0  0  0  0  0  0  0  0
   -1.3410    0.0153    6.0722 O   0  0  0  0  0  0  0  0  0  0  0  0
    0.8307   -0.0525    4.8828 C   0  0  2  0  0  0  0  0  0  0  0  0
    1.5556    0.4936    6.1449 C   0  0  0  0  0  0  0  0  0  0  0  0
    2.0115   -5.3376    5.4480 C   0  0  2  0  0  0  0  0  0  0  0  0
    3.1938   -5.7475    6.3874 C   0  0  0  0  0  0  0  0  0  0  0  0
    3.5969   -5.0936    7.3280 O   0  0  0  0  0  0  0  0  0  0  0  0
    3.7423   -6.9361    6.0295 O   0  0  0  0  0  0  0  0  0  0  0  0
    3.3978    3.5081    3.2472 H   0  0  0  0  0  0  0  0  0  0  0  0
   -0.6970    2.3587    3.2565 H   0  0  0  0  0  0  0  0  0  0  0  0
   -0.6448   -0.0284    2.3917 H   0  0  0  0  0  0  0  0  0  0  0  0
    0.6716    0.7569    1.5803 H   0  0  0  0  0  0  0  0  0  0  0  0
    0.6096   -1.9385    2.4757 H   0  0  0  0  0  0  0  0  0  0  0  0
    2.0592   -1.0900    1.9699 H   0  0  0  0  0  0  0  0  0  0  0  0
    2.7335   -0.6221    4.0814 H   0  0  0  0  0  0  0  0  0  0  0  0
    2.5234   -2.2933    5.7121 H   0  0  0  0  0  0  0  0  0  0  0  0
    2.6628   -3.1684    2.8453 H   0  0  0  0  0  0  0  0  0  0  0  0
    3.8376   -3.1892    4.1086 H   0  0  0  0  0  0  0  0  0  0  0  0
    3.5280   -5.3970    3.9092 H   0  0  0  0  0  0  0  0  0  0  0  0
    0.7852   -4.8729    2.8584 H   0  0  0  0  0  0  0  0  0  0  0  0
    2.1038   -5.7215    2.0657 H   0  0  0  0  0  0  0  0  0  0  0  0
    2.7202   -7.8821    2.6300 H   0  0  0  0  0  0  0  0  0  0  0  0
    2.6467   -8.2524    4.3215 H   0  0  0  0  0  0  0  0  0  0  0  0
    1.2377   -9.4909    2.1008 H   0  0  0  0  0  0  0  0  0  0  0  0
    1.5422  -10.3973    5.0265 H   0  0  0  0  0  0  0  0  0  0  0  0
    2.6200  -10.8236    3.7192 H   0  0  0  0  0  0  0  0  0  0  0  0
    0.9531  -11.3914    3.7090 H   0  0  0  0  0  0  0  0  0  0  0  0
   -1.0150   -9.3898    2.7917 H   0  0  0  0  0  0  0  0  0  0  0  0
   -1.1637   -9.8409    4.8808 H   0  0  0  0  0  0  0  0  0  0  0  0
   -1.1842   -6.8952    3.5220 H   0  0  0  0  0  0  0  0  0  0  0  0
   -0.3157   -7.2021    2.0348 H   0  0  0  0  0  0  0  0  0  0  0  0
    1.1267   -7.2910    5.8731 H   0  0  0  0  0  0  0  0  0  0  0  0
   -0.7904   -5.2562    4.9091 H   0  0  0  0  0  0  0  0  0  0  0  0
   -0.6471   -6.0193    6.5151 H   0  0  0  0  0  0  0  0  0  0  0  0
    1.6073   -3.5182    7.8949 H   0  0  0  0  0  0  0  0  0  0  0  0
    1.0383   -5.1800    8.0966 H   0  0  0  0  0  0  0  0  0  0  0  0
   -0.1223   -3.9091    7.9482 H   0  0  0  0  0  0  0  0  0  0  0  0
    0.0653   -3.3246    4.3864 H   0  0  0  0  0  0  0  0  0  0  0  0
   -1.2377   -2.5663    6.2433 H   0  0  0  0  0  0  0  0  0  0  0  0
    0.1674   -1.8469    7.0142 H   0  0  0  0  0  0  0  0  0  0  0  0
   -1.0667   -1.0323    4.3747 H   0  0  0  0  0  0  0  0  0  0  0  0
   -1.4145    0.8461    5.5993 H   0  0  0  0  0  0  0  0  0  0  0  0
    1.6903   -0.2716    6.9022 H   0  0  0  0  0  0  0  0  0  0  0  0
    1.0008    1.3141    6.5941 H   0  0  0  0  0  0  0  0  0  0  0  0
    2.5503    0.8654    5.9128 H   0  0  0  0  0  0  0  0  0  0  0  0
    4.4352   -7.1877    6.6411 H   0  0  0  0  0  0  0  0  0  0  0  0
  1  2  3  0
  1 33  1  0
  3  2  1  6
  3 27  1  0
  3  4  1  0
  3  5  1  0
  4 34  1  0
  5  6  1  0
  5 35  1  0
  5 36  1  0
  6  7  1  0
  6 37  1  0
  6 38  1  0
  7 27  1  0
  7  8  1  0
  7 39  1  6
  8 23  1  0
  8  9  1  0
  8 40  1  1
  9 10  1  0
  9 41  1  0
  9 42  1  0
 10 29  1  0
 10 11  1  0
 10 43  1  6
 12 11  1  6
 11 44  1  0
 11 45  1  0
 12 18  1  0
 12 13  1  0
 12 19  1  0
 13 14  1  0
 13 46  1  0
 13 47  1  0
 14 15  1  0
 14 16  1  0
 14 48  1  6
 15 49  1  0
 15 50  1  0
 15 51  1  0
 16 17  1  0
 16 18  1  0
 16 52  1  6
 17 53  1  0
 18 54  1  0
 18 55  1  0
 19 29  1  0
 19 20  1  0
 19 56  1  1
 20 21  1  0
 20 57  1  0
 20 58  1  0
 21 22  1  1
 21 23  1  0
 21 29  1  0
 22 59  1  0
 22 60  1  0
 22 61  1  0
 23 24  1  0
 23 62  1  6
 24 25  1  0
 24 63  1  0
 24 64  1  0
 25 26  1  0
 25 27  1  0
 25 65  1  6
 26 66  1  0
 27 28  1  1
 28 67  1  0
 28 68  1  0
 28 69  1  0
 29 30  1  1
 30 31  2  0
 30 32  1  0
 32 70  1  0
M  END
>  <i_m_ct_stereo_status>  (275) 
1

>  <s_m_source_file>  (275) 
/var/tmp/pbs.5076255.sched01/tmppy4q9rbr/123plv7d954.sdf

>  <i_m_source_file_index>  (275) 
2

>  <i_lp_mmshare_version>  (275) 
48012

>  <i_f3d_flags>  (275) 
0

>  <s_epik_input>  (275) 
W0NIMl0xW0NAXTIoW0NIM10pW0NASF0zW0NIMl1bQ0BASF0oW09IXSlbQ0BdKFtDSDNdKShbQ0BAXShbT0hdKShDI1tDSF0pW0NIMl1bQ0gyXTQpW0NASF00W0NAQEhdM1tDSDJdW0NASF0oW0NIMl01KVtDQF0yKEMoPU8pW09IXSlbQ0BASF0xW0NAXTU2W0NIMl1bQ0BASF0oW0NIM10pW0NAQEhdKFtPSF0pW0NIMl02

>  <s_epik_cmdline>  (275) 
J2VwaWtfcHl0aG9uJywgJy1waHQnLCAnMi4wJywgJy1waCcsICc3LjAnLCAnLXRuJywgJzgnLCAnLW1hJywgJzIwMCcsICctaW1hZScsICc8aW5maWxlLm1hZT4nLCAnLW9tYWUnLCAnPG91dGZpbGUubWFlPic=

>  <r_epik_Ionization_Penalty>  (275) 
2.46774

>  <r_epik_Ionization_Penalty_Charging>  (275) 
0

>  <r_epik_Ionization_Penalty_Neutral>  (275) 
2.46774

>  <r_epik_State_Penalty>  (275) 
2.63042

>  <r_epik_Charging_Adjusted_Penalty>  (275) 
2.63042

>  <i_epik_Tot_Q>  (275) 
0

>  <i_epik_Tot_abs_Q>  (275) 
0

>  <s_lp_Force_Field>  (275) 
OPLS3e

>  <r_lp_Energy>  (275) 
56.9512

>  <b_lp_Chiralities_Consistent>  (275) 
1

>  <s_lp_Variant>  (275) 
93:0-2

>  <s_i_glide_gridfile>  (275) 
pfpi4k_grid

>  <i_i_glide_lignum>  (275) 
2

>  <i_i_glide_rotatable_bonds>  (275) 
6

>  <r_i_docking_score>  (275) 
-3.09503

>  <r_i_glide_ligand_efficiency>  (275) 
-0.0967197

>  <r_i_glide_ligand_efficiency_sa>  (275) 
-0.307066

>  <r_i_glide_ligand_efficiency_ln>  (275) 
-0.693062

>  <r_i_glide_gscore>  (275) 
-3.09503

>  <r_i_glide_lipo>  (275) 
-0.0133628

>  <r_i_glide_hbond>  (275) 
-0.16

>  <r_i_glide_metal>  (275) 
-0

>  <r_i_glide_rewards>  (275) 
-0.891448

>  <r_i_glide_evdw>  (275) 
-17.6057

>  <r_i_glide_ecoul>  (275) 
-9.02654

>  <r_i_glide_erotb>  (275) 
0.204045

>  <r_i_glide_esite>  (275) 
0

>  <r_i_glide_emodel>  (275) 
-34.261

>  <r_i_glide_energy>  (275) 
-26.6322

>  <r_i_glide_einternal>  (275) 
5.93862

>  <r_i_glide_intrahb_reward>  (275) 
-0.5

>  <i_i_glide_confnum>  (275) 
3

>  <i_i_glide_posenum>  (275) 
21

>  <r_i_glide_eff_state_penalty>  (275) 
0

>  <ligand_id>  (275) 
93

>  <original_smiles>  (275) 
C#CC1(O)CCC2C3CC4CC5(CC(C)C(O)C5)C5CC(C)(C3CC(O)C21C)C45C(=O)O

>  <smiles>  (275) 
[H]C#CC1(O[H])C([H])([H])C([H])([H])C2([H])C3([H])C([H])([H])C4([H])C([H])([H])C5(C([H])([H])C([H])(O[H])C([H])(C([H])([H])[H])C5([H])[H])C5([H])C([H])([H])C(C([H])([H])[H])(C3([H])C([H])([H])C([H])(O[H])C12C([H])([H])[H])C45C(=O)O[H]

$$$$
93:1:1
     RDKit          3D

 70 75  0  0  1  0  0  0  0  0999 V2000
    4.6033   -6.6416   -0.0408 C   0  0  0  0  0  0  0  0  0  0  0  0
    4.6890   -5.4236   -0.1466 C   0  0  0  0  0  0  0  0  0  0  0  0
    4.8261   -3.9507   -0.2701 C   0  0  1  0  0  0  0  0  0  0  0  0
    5.8133   -3.6687   -1.2369 O   0  0  0  0  0  0  0  0  0  0  0  0
    3.5054   -3.3473   -0.7718 C   0  0  0  0  0  0  0  0  0  0  0  0
    2.7006   -2.9857    0.4820 C   0  0  0  0  0  0  0  0  0  0  0  0
    3.6393   -3.1892    1.6927 C   0  0  2  0  0  0  0  0  0  0  0  0
    3.4031   -2.2485    2.9169 C   0  0  2  0  0  0  0  0  0  0  0  0
    1.9085   -2.2552    3.3454 C   0  0  0  0  0  0  0  0  0  0  0  0
    1.3803   -0.9899    4.0652 C   0  0  2  0  0  0  0  0  0  0  0  0
    0.6259    0.0078    3.1520 C   0  0  0  0  0  0  0  0  0  0  0  0
    0.7093    1.3672    3.8876 C   0  0  2  0  0  0  0  0  0  0  0  0
   -0.4329    1.5108    4.9054 C   0  0  0  0  0  0  0  0  0  0  0  0
   -1.5822    2.1974    4.1639 C   0  0  1  0  0  0  0  0  0  0  0  0
   -2.5068    2.9930    5.0945 C   0  0  0  0  0  0  0  0  0  0  0  0
   -0.9274    3.0329    3.0440 C   0  0  1  0  0  0  0  0  0  0  0  0
   -0.9838    4.4273    3.2833 O   0  0  0  0  0  0  0  0  0  0  0  0
    0.5487    2.6031    2.9926 C   0  0  0  0  0  0  0  0  0  0  0  0
    2.0734    1.3092    4.5650 C   0  0  2  0  0  0  0  0  0  0  0  0
    3.3319    1.4969    3.7220 C   0  0  0  0  0  0  0  0  0  0  0  0
    3.8086    0.0635    4.0207 C   0  0  2  0  0  0  0  0  0  0  0  0
    5.1211    0.0647    4.8435 C   0  0  0  0  0  0  0  0  0  0  0  0
    3.9685   -0.8239    2.7305 C   0  0  1  0  0  0  0  0  0  0  0  0
    5.4003   -0.8671    2.1545 C   0  0  0  0  0  0  0  0  0  0  0  0
    5.5442   -1.7161    0.8897 C   0  0  1  0  0  0  0  0  0  0  0  0
    6.9013   -1.6026    0.4946 O   0  0  0  0  0  0  0  0  0  0  0  0
    5.0760   -3.2011    1.0942 C   0  0  2  0  0  0  0  0  0  0  0  0
    6.0461   -3.9616    2.0439 C   0  0  0  0  0  0  0  0  0  0  0  0
    2.4540   -0.1523    4.7848 C   0  0  2  0  0  0  0  0  0  0  0  0
    2.5350   -0.5372    6.2986 C   0  0  0  0  0  0  0  0  0  0  0  0
    2.1186   -1.5920    6.7443 O   0  0  0  0  0  0  0  0  0  0  0  0
    3.1253    0.4170    7.0731 O   0  0  0  0  0  0  0  0  0  0  0  0
    4.5398   -7.7026    0.0044 H   0  0  0  0  0  0  0  0  0  0  0  0
    5.6108   -4.1626   -2.0197 H   0  0  0  0  0  0  0  0  0  0  0  0
    3.6976   -2.4408   -1.3510 H   0  0  0  0  0  0  0  0  0  0  0  0
    2.9572   -4.0147   -1.4401 H   0  0  0  0  0  0  0  0  0  0  0  0
    2.3785   -1.9480    0.4205 H   0  0  0  0  0  0  0  0  0  0  0  0
    1.8229   -3.6130    0.5639 H   0  0  0  0  0  0  0  0  0  0  0  0
    3.4296   -4.1945    2.0489 H   0  0  0  0  0  0  0  0  0  0  0  0
    3.9590   -2.6712    3.7546 H   0  0  0  0  0  0  0  0  0  0  0  0
    1.2458   -2.4492    2.5005 H   0  0  0  0  0  0  0  0  0  0  0  0
    1.7569   -3.1091    4.0039 H   0  0  0  0  0  0  0  0  0  0  0  0
    0.6245   -1.3340    4.7692 H   0  0  0  0  0  0  0  0  0  0  0  0
    1.1379    0.0758    2.1923 H   0  0  0  0  0  0  0  0  0  0  0  0
   -0.4057   -0.2926    2.9444 H   0  0  0  0  0  0  0  0  0  0  0  0
   -0.7420    0.5540    5.3506 H   0  0  0  0  0  0  0  0  0  0  0  0
   -0.1155    2.1540    5.7247 H   0  0  0  0  0  0  0  0  0  0  0  0
   -2.1630    1.4125    3.6754 H   0  0  0  0  0  0  0  0  0  0  0  0
   -1.9744    3.8109    5.5762 H   0  0  0  0  0  0  0  0  0  0  0  0
   -2.9353    2.3833    5.8842 H   0  0  0  0  0  0  0  0  0  0  0  0
   -3.3212    3.4046    4.5070 H   0  0  0  0  0  0  0  0  0  0  0  0
   -1.4022    2.7987    2.0848 H   0  0  0  0  0  0  0  0  0  0  0  0
   -0.5639    4.8233    2.5203 H   0  0  0  0  0  0  0  0  0  0  0  0
    1.1658    3.4076    3.3946 H   0  0  0  0  0  0  0  0  0  0  0  0
    0.8998    2.4434    1.9706 H   0  0  0  0  0  0  0  0  0  0  0  0
    2.1549    1.9402    5.4439 H   0  0  0  0  0  0  0  0  0  0  0  0
    3.1188    1.6896    2.6698 H   0  0  0  0  0  0  0  0  0  0  0  0
    3.9765    2.2783    4.1271 H   0  0  0  0  0  0  0  0  0  0  0  0
    5.3744   -0.9449    5.1839 H   0  0  0  0  0  0  0  0  0  0  0  0
    5.0519    0.7163    5.7155 H   0  0  0  0  0  0  0  0  0  0  0  0
    5.9581    0.4723    4.2662 H   0  0  0  0  0  0  0  0  0  0  0  0
    3.3693   -0.3821    1.9355 H   0  0  0  0  0  0  0  0  0  0  0  0
    5.7062    0.1462    1.9126 H   0  0  0  0  0  0  0  0  0  0  0  0
    6.1084   -1.2346    2.8938 H   0  0  0  0  0  0  0  0  0  0  0  0
    4.9494   -1.2493    0.1045 H   0  0  0  0  0  0  0  0  0  0  0  0
    7.4342   -2.0310    1.1510 H   0  0  0  0  0  0  0  0  0  0  0  0
    6.2110   -3.4147    2.9636 H   0  0  0  0  0  0  0  0  0  0  0  0
    7.0205   -4.1174    1.5872 H   0  0  0  0  0  0  0  0  0  0  0  0
    5.6573   -4.9401    2.3328 H   0  0  0  0  0  0  0  0  0  0  0  0
    3.2288    0.1406    7.9798 H   0  0  0  0  0  0  0  0  0  0  0  0
  1  2  3  0
  1 33  1  0
  3  2  1  1
  3 27  1  0
  3  4  1  0
  3  5  1  0
  4 34  1  0
  5  6  1  0
  5 35  1  0
  5 36  1  0
  6  7  1  0
  6 37  1  0
  6 38  1  0
  7 27  1  0
  7  8  1  0
  7 39  1  1
  8 23  1  0
  8  9  1  0
  8 40  1  1
  9 10  1  0
  9 41  1  0
  9 42  1  0
 10 29  1  0
 10 11  1  0
 10 43  1  1
 12 11  1  6
 11 44  1  0
 11 45  1  0
 12 18  1  0
 12 13  1  0
 12 19  1  0
 13 14  1  0
 13 46  1  0
 13 47  1  0
 14 15  1  0
 14 16  1  0
 14 48  1  6
 15 49  1  0
 15 50  1  0
 15 51  1  0
 16 17  1  0
 16 18  1  0
 16 52  1  6
 17 53  1  0
 18 54  1  0
 18 55  1  0
 19 29  1  0
 19 20  1  0
 19 56  1  1
 20 21  1  0
 20 57  1  0
 20 58  1  0
 21 22  1  1
 21 23  1  0
 21 29  1  0
 22 59  1  0
 22 60  1  0
 22 61  1  0
 23 24  1  0
 23 62  1  6
 24 25  1  0
 24 63  1  0
 24 64  1  0
 25 26  1  0
 25 27  1  0
 25 65  1  6
 26 66  1  0
 27 28  1  1
 28 67  1  0
 28 68  1  0
 28 69  1  0
 29 30  1  1
 30 31  2  0
 30 32  1  0
 32 70  1  0
M  END
>  <i_m_ct_stereo_status>  (276) 
1

>  <s_m_source_file>  (276) 
/var/tmp/pbs.5076255.sched01/tmppy4q9rbr/123plv7d954.sdf

>  <i_m_source_file_index>  (276) 
2

>  <i_lp_mmshare_version>  (276) 
48012

>  <i_f3d_flags>  (276) 
0

>  <s_epik_input>  (276) 
W0NIMl0xW0NAXTIoW0NIM10pW0NASF0zW0NIMl1bQ0BASF0oW09IXSlbQ0BdKFtDSDNdKShbQ0BAXShbT0hdKShDI1tDSF0pW0NIMl1bQ0gyXTQpW0NASF00W0NAQEhdM1tDSDJdW0NASF0oW0NIMl01KVtDQF0yKEMoPU8pW09IXSlbQ0BASF0xW0NAXTU2W0NIMl1bQ0BASF0oW0NIM10pW0NAQEhdKFtPSF0pW0NIMl02

>  <s_epik_cmdline>  (276) 
J2VwaWtfcHl0aG9uJywgJy1waHQnLCAnMi4wJywgJy1waCcsICc3LjAnLCAnLXRuJywgJzgnLCAnLW1hJywgJzIwMCcsICctaW1hZScsICc8aW5maWxlLm1hZT4nLCAnLW9tYWUnLCAnPG91dGZpbGUubWFlPic=

>  <r_epik_Ionization_Penalty>  (276) 
2.46774

>  <r_epik_Ionization_Penalty_Charging>  (276) 
0

>  <r_epik_Ionization_Penalty_Neutral>  (276) 
2.46774

>  <r_epik_State_Penalty>  (276) 
2.63042

>  <r_epik_Charging_Adjusted_Penalty>  (276) 
2.63042

>  <i_epik_Tot_Q>  (276) 
0

>  <i_epik_Tot_abs_Q>  (276) 
0

>  <s_lp_Force_Field>  (276) 
OPLS3e

>  <r_lp_Energy>  (276) 
56.9512

>  <b_lp_Chiralities_Consistent>  (276) 
1

>  <s_lp_Variant>  (276) 
93:0-2

>  <s_i_glide_gridfile>  (276) 
pfpi4k_grid

>  <i_i_glide_lignum>  (276) 
2

>  <i_i_glide_rotatable_bonds>  (276) 
6

>  <r_i_docking_score>  (276) 
-2.92232

>  <r_i_glide_ligand_efficiency>  (276) 
-0.0913226

>  <r_i_glide_ligand_efficiency_sa>  (276) 
-0.289931

>  <r_i_glide_ligand_efficiency_ln>  (276) 
-0.654388

>  <r_i_glide_gscore>  (276) 
-2.92232

>  <r_i_glide_lipo>  (276) 
-0.536815

>  <r_i_glide_hbond>  (276) 
-0.131525

>  <r_i_glide_metal>  (276) 
-0

>  <r_i_glide_rewards>  (276) 
-0.391448

>  <r_i_glide_evdw>  (276) 
-22.6534

>  <r_i_glide_ecoul>  (276) 
-6.22605

>  <r_i_glide_erotb>  (276) 
0.204045

>  <r_i_glide_esite>  (276) 
0

>  <r_i_glide_emodel>  (276) 
-32.0207

>  <r_i_glide_energy>  (276) 
-28.8795

>  <r_i_glide_einternal>  (276) 
4.48545

>  <r_i_glide_intrahb_reward>  (276) 
-0

>  <i_i_glide_confnum>  (276) 
4

>  <i_i_glide_posenum>  (276) 
16

>  <r_i_glide_eff_state_penalty>  (276) 
0

>  <ligand_id>  (276) 
93

>  <original_smiles>  (276) 
C#CC1(O)CCC2C3CC4CC5(CC(C)C(O)C5)C5CC(C)(C3CC(O)C21C)C45C(=O)O

>  <smiles>  (276) 
[H]C#CC1(O[H])C([H])([H])C([H])([H])C2([H])C3([H])C([H])([H])C4([H])C([H])([H])C5(C([H])([H])C([H])(O[H])C([H])(C([H])([H])[H])C5([H])[H])C5([H])C([H])([H])C(C([H])([H])[H])(C3([H])C([H])([H])C([H])(O[H])C12C([H])([H])[H])C45C(=O)O[H]

$$$$
93:1:2
     RDKit          3D

 70 75  0  0  1  0  0  0  0  0999 V2000
   -0.1729   -9.4073    6.3654 C   0  0  0  0  0  0  0  0  0  0  0  0
    0.8920   -9.2754    5.7858 C   0  0  0  0  0  0  0  0  0  0  0  0
    2.2045   -9.1432    5.1121 C   0  0  1  0  0  0  0  0  0  0  0  0
    3.0380  -10.1897    5.5731 O   0  0  0  0  0  0  0  0  0  0  0  0
    2.0132   -9.2798    3.5888 C   0  0  0  0  0  0  0  0  0  0  0  0
    1.8101   -7.8510    3.0536 C   0  0  0  0  0  0  0  0  0  0  0  0
    2.0720   -6.8867    4.2335 C   0  0  2  0  0  0  0  0  0  0  0  0
    2.6596   -5.4863    3.8758 C   0  0  2  0  0  0  0  0  0  0  0  0
    1.8155   -4.7906    2.7690 C   0  0  0  0  0  0  0  0  0  0  0  0
    2.5353   -3.7626    1.8712 C   0  0  2  0  0  0  0  0  0  0  0  0
    3.0104   -4.3136    0.5013 C   0  0  0  0  0  0  0  0  0  0  0  0
    4.1574   -3.3671    0.0591 C   0  0  2  0  0  0  0  0  0  0  0  0
    3.6026   -2.1468   -0.6946 C   0  0  0  0  0  0  0  0  0  0  0  0
    3.5874   -2.5328   -2.1762 C   0  0  1  0  0  0  0  0  0  0  0  0
    3.6906   -1.3132   -3.1063 C   0  0  0  0  0  0  0  0  0  0  0  0
    4.7079   -3.5824   -2.3525 C   0  0  1  0  0  0  0  0  0  0  0  0
    5.8202   -3.0915   -3.0709 O   0  0  0  0  0  0  0  0  0  0  0  0
    5.1555   -3.9833   -0.9417 C   0  0  0  0  0  0  0  0  0  0  0  0
    4.8039   -2.9849    1.3848 C   0  0  2  0  0  0  0  0  0  0  0  0
    5.6868   -4.0057    2.0786 C   0  0  0  0  0  0  0  0  0  0  0  0
    4.7423   -4.0704    3.2917 C   0  0  2  0  0  0  0  0  0  0  0  0
    5.4114   -3.4996    4.5610 C   0  0  0  0  0  0  0  0  0  0  0  0
    4.1682   -5.5049    3.5562 C   0  0  1  0  0  0  0  0  0  0  0  0
    4.9593   -6.3299    4.5924 C   0  0  0  0  0  0  0  0  0  0  0  0
    4.3807   -7.7325    4.8217 C   0  0  1  0  0  0  0  0  0  0  0  0
    5.1941   -8.3744    5.7795 O   0  0  0  0  0  0  0  0  0  0  0  0
    2.8765   -7.7237    5.2638 C   0  0  2  0  0  0  0  0  0  0  0  0
    2.7236   -7.1298    6.6929 C   0  0  0  0  0  0  0  0  0  0  0  0
    3.7681   -3.1218    2.5030 C   0  0  2  0  0  0  0  0  0  0  0  0
    3.3857   -1.7584    3.1502 C   0  0  0  0  0  0  0  0  0  0  0  0
    3.3111   -1.5534    4.3568 O   0  0  0  0  0  0  0  0  0  0  0  0
    3.1098   -0.7980    2.2198 O   0  0  0  0  0  0  0  0  0  0  0  0
   -1.0884   -9.5696    6.8839 H   0  0  0  0  0  0  0  0  0  0  0  0
    2.4940  -10.8366    6.0112 H   0  0  0  0  0  0  0  0  0  0  0  0
    2.9048   -9.7049    3.1270 H   0  0  0  0  0  0  0  0  0  0  0  0
    1.1898   -9.9443    3.3139 H   0  0  0  0  0  0  0  0  0  0  0  0
    2.4941   -7.6738    2.2215 H   0  0  0  0  0  0  0  0  0  0  0  0
    0.7936   -7.7263    2.6788 H   0  0  0  0  0  0  0  0  0  0  0  0
    1.0937   -6.6922    4.6743 H   0  0  0  0  0  0  0  0  0  0  0  0
    2.5632   -4.8616    4.7659 H   0  0  0  0  0  0  0  0  0  0  0  0
    1.3437   -5.5198    2.1116 H   0  0  0  0  0  0  0  0  0  0  0  0
    0.9816   -4.2876    3.2584 H   0  0  0  0  0  0  0  0  0  0  0  0
    1.8099   -2.9839    1.6329 H   0  0  0  0  0  0  0  0  0  0  0  0
    3.4052   -5.3227    0.6359 H   0  0  0  0  0  0  0  0  0  0  0  0
    2.2083   -4.3835   -0.2311 H   0  0  0  0  0  0  0  0  0  0  0  0
    2.6172   -1.8515   -0.3293 H   0  0  0  0  0  0  0  0  0  0  0  0
    4.2676   -1.2925   -0.5536 H   0  0  0  0  0  0  0  0  0  0  0  0
    2.6328   -3.0334   -2.3654 H   0  0  0  0  0  0  0  0  0  0  0  0
    4.6268   -0.7773   -2.9544 H   0  0  0  0  0  0  0  0  0  0  0  0
    2.8850   -0.6005   -2.9352 H   0  0  0  0  0  0  0  0  0  0  0  0
    3.6520   -1.6213   -4.1499 H   0  0  0  0  0  0  0  0  0  0  0  0
    4.3210   -4.4384   -2.9009 H   0  0  0  0  0  0  0  0  0  0  0  0
    6.4804   -3.7706   -3.1280 H   0  0  0  0  0  0  0  0  0  0  0  0
    6.1376   -3.5525   -0.7445 H   0  0  0  0  0  0  0  0  0  0  0  0
    5.2644   -5.0647   -0.8319 H   0  0  0  0  0  0  0  0  0  0  0  0
    5.3169   -2.0188    1.3800 H   0  0  0  0  0  0  0  0  0  0  0  0
    5.7904   -4.9477    1.5356 H   0  0  0  0  0  0  0  0  0  0  0  0
    6.6546   -3.5750    2.2826 H   0  0  0  0  0  0  0  0  0  0  0  0
    4.7108   -3.4434    5.3971 H   0  0  0  0  0  0  0  0  0  0  0  0
    5.7986   -2.4968    4.3728 H   0  0  0  0  0  0  0  0  0  0  0  0
    6.2693   -4.0934    4.8779 H   0  0  0  0  0  0  0  0  0  0  0  0
    4.2548   -6.0771    2.6357 H   0  0  0  0  0  0  0  0  0  0  0  0
    5.9922   -6.4234    4.2529 H   0  0  0  0  0  0  0  0  0  0  0  0
    4.9956   -5.8188    5.5543 H   0  0  0  0  0  0  0  0  0  0  0  0
    4.4955   -8.2933    3.8969 H   0  0  0  0  0  0  0  0  0  0  0  0
    4.8355   -9.2494    5.8963 H   0  0  0  0  0  0  0  0  0  0  0  0
    3.2123   -6.1634    6.7871 H   0  0  0  0  0  0  0  0  0  0  0  0
    3.1507   -7.7894    7.4469 H   0  0  0  0  0  0  0  0  0  0  0  0
    1.6810   -6.9648    6.9605 H   0  0  0  0  0  0  0  0  0  0  0  0
    2.8758    0.0125    2.6372 H   0  0  0  0  0  0  0  0  0  0  0  0
  1  2  3  0
  1 33  1  0
  3  2  1  1
  3 27  1  0
  3  4  1  0
  3  5  1  0
  4 34  1  0
  5  6  1  0
  5 35  1  0
  5 36  1  0
  6  7  1  0
  6 37  1  0
  6 38  1  0
  7 27  1  0
  7  8  1  0
  7 39  1  1
  8 23  1  0
  8  9  1  0
  8 40  1  1
  9 10  1  0
  9 41  1  0
  9 42  1  0
 10 29  1  0
 10 11  1  0
 10 43  1  6
 12 11  1  1
 11 44  1  0
 11 45  1  0
 12 18  1  0
 12 13  1  0
 12 19  1  0
 13 14  1  0
 13 46  1  0
 13 47  1  0
 14 15  1  0
 14 16  1  0
 14 48  1  6
 15 49  1  0
 15 50  1  0
 15 51  1  0
 16 17  1  0
 16 18  1  0
 16 52  1  6
 17 53  1  0
 18 54  1  0
 18 55  1  0
 19 29  1  0
 19 20  1  0
 19 56  1  6
 20 21  1  0
 20 57  1  0
 20 58  1  0
 21 22  1  1
 21 23  1  0
 21 29  1  0
 22 59  1  0
 22 60  1  0
 22 61  1  0
 23 24  1  0
 23 62  1  6
 24 25  1  0
 24 63  1  0
 24 64  1  0
 25 26  1  0
 25 27  1  0
 25 65  1  6
 26 66  1  0
 27 28  1  1
 28 67  1  0
 28 68  1  0
 28 69  1  0
 29 30  1  1
 30 31  2  0
 30 32  1  0
 32 70  1  0
M  END
>  <i_m_ct_stereo_status>  (277) 
1

>  <s_m_source_file>  (277) 
/var/tmp/pbs.5076255.sched01/tmppy4q9rbr/123plv7d954.sdf

>  <i_m_source_file_index>  (277) 
2

>  <i_lp_mmshare_version>  (277) 
48012

>  <i_f3d_flags>  (277) 
0

>  <s_epik_input>  (277) 
W0NIMl0xW0NAXTIoW0NIM10pW0NASF0zW0NIMl1bQ0BASF0oW09IXSlbQ0BdKFtDSDNdKShbQ0BAXShbT0hdKShDI1tDSF0pW0NIMl1bQ0gyXTQpW0NASF00W0NAQEhdM1tDSDJdW0NASF0oW0NIMl01KVtDQF0yKEMoPU8pW09IXSlbQ0BASF0xW0NAXTU2W0NIMl1bQ0BASF0oW0NIM10pW0NAQEhdKFtPSF0pW0NIMl02

>  <s_epik_cmdline>  (277) 
J2VwaWtfcHl0aG9uJywgJy1waHQnLCAnMi4wJywgJy1waCcsICc3LjAnLCAnLXRuJywgJzgnLCAnLW1hJywgJzIwMCcsICctaW1hZScsICc8aW5maWxlLm1hZT4nLCAnLW9tYWUnLCAnPG91dGZpbGUubWFlPic=

>  <r_epik_Ionization_Penalty>  (277) 
2.46774

>  <r_epik_Ionization_Penalty_Charging>  (277) 
0

>  <r_epik_Ionization_Penalty_Neutral>  (277) 
2.46774

>  <r_epik_State_Penalty>  (277) 
2.63042

>  <r_epik_Charging_Adjusted_Penalty>  (277) 
2.63042

>  <i_epik_Tot_Q>  (277) 
0

>  <i_epik_Tot_abs_Q>  (277) 
0

>  <s_lp_Force_Field>  (277) 
OPLS3e

>  <r_lp_Energy>  (277) 
56.9512

>  <b_lp_Chiralities_Consistent>  (277) 
1

>  <s_lp_Variant>  (277) 
93:0-2

>  <s_i_glide_gridfile>  (277) 
pfpi4k_grid

>  <i_i_glide_lignum>  (277) 
2

>  <i_i_glide_rotatable_bonds>  (277) 
6

>  <r_i_docking_score>  (277) 
-2.52512

>  <r_i_glide_ligand_efficiency>  (277) 
-0.07891

>  <r_i_glide_ligand_efficiency_sa>  (277) 
-0.250524

>  <r_i_glide_ligand_efficiency_ln>  (277) 
-0.565444

>  <r_i_glide_gscore>  (277) 
-2.52512

>  <r_i_glide_lipo>  (277) 
-0.193747

>  <r_i_glide_hbond>  (277) 
0

>  <r_i_glide_metal>  (277) 
-0

>  <r_i_glide_rewards>  (277) 
-0.891448

>  <r_i_glide_evdw>  (277) 
-20.6595

>  <r_i_glide_ecoul>  (277) 
-4.0711

>  <r_i_glide_erotb>  (277) 
0.204045

>  <r_i_glide_esite>  (277) 
-0.000331864

>  <r_i_glide_emodel>  (277) 
-32.074

>  <r_i_glide_energy>  (277) 
-24.7306

>  <r_i_glide_einternal>  (277) 
4.98242

>  <r_i_glide_intrahb_reward>  (277) 
-0.5

>  <i_i_glide_confnum>  (277) 
4

>  <i_i_glide_posenum>  (277) 
32

>  <r_i_glide_eff_state_penalty>  (277) 
0

>  <ligand_id>  (277) 
93

>  <original_smiles>  (277) 
C#CC1(O)CCC2C3CC4CC5(CC(C)C(O)C5)C5CC(C)(C3CC(O)C21C)C45C(=O)O

>  <smiles>  (277) 
[H]C#CC1(O[H])C([H])([H])C([H])([H])C2([H])C3([H])C([H])([H])C4([H])C([H])([H])C5(C([H])([H])C([H])(O[H])C([H])(C([H])([H])[H])C5([H])[H])C5([H])C([H])([H])C(C([H])([H])[H])(C3([H])C([H])([H])C([H])(O[H])C12C([H])([H])[H])C45C(=O)O[H]

$$$$
94:0:0
     RDKit          3D

 87 96  0  0  1  0  0  0  0  0999 V2000
    5.6403   -1.6528    1.8765 C   0  0  0  0  0  0  0  0  0  0  0  0
    5.7010   -3.0626    1.2827 C   0  0  0  0  0  0  0  0  0  0  0  0
    5.4498   -3.0092   -0.2413 C   0  0  0  0  0  0  0  0  0  0  0  0
    6.9746   -3.5402    1.5899 O   0  0  0  0  0  0  0  0  0  0  0  0
    7.4579   -4.7583    1.0652 C   0  0  0  0  0  0  0  0  0  0  0  0
    6.9150   -6.0958    1.6817 C   0  0  1  0  0  0  0  0  0  0  0  0
    7.8188   -7.1099    0.9201 C   0  0  0  0  0  0  0  0  0  0  0  0
    7.0734   -5.9846    3.2796 C   0  0  2  0  0  0  0  0  0  0  0  0
    7.5082   -7.1593    4.3361 C   0  0  1  0  0  0  0  0  0  0  0  0
    6.8964   -6.9756    5.7710 C   0  0  0  0  0  0  0  0  0  0  0  0
    7.1954   -7.9567    6.9454 C   0  0  0  0  0  0  0  0  0  0  0  0
    6.1327   -9.0550    7.2978 C   0  0  1  0  0  0  0  0  0  0  0  0
    4.8974   -8.4266    7.6058 O   0  0  0  0  0  0  0  0  0  0  0  0
    5.9928  -10.4407    6.5391 C   0  0  1  0  0  0  0  0  0  0  0  0
    4.7795  -11.0861    6.8885 O   0  0  0  0  0  0  0  0  0  0  0  0
    6.3269  -10.6630    5.0128 C   0  0  2  0  0  0  0  0  0  0  0  0
    7.6754   -9.8980    4.6801 C   0  0  0  0  0  0  0  0  0  0  0  0
    7.4585   -8.6281    3.8039 C   0  0  1  0  0  0  0  0  0  0  0  0
    6.1750   -8.8379    3.0952 C   0  0  1  0  0  0  0  0  0  0  0  0
    6.0254  -10.3013    2.6273 C   0  0  0  0  0  0  0  0  0  0  0  0
    5.2557  -10.8317    3.7553 C   0  0  1  0  0  0  0  0  0  0  0  0
    5.1758  -12.2033    3.4106 O   0  0  0  0  0  0  0  0  0  0  0  0
    3.8076  -10.0808    3.6138 C   0  0  1  0  0  0  0  0  0  0  0  0
    2.6824  -10.9785    4.2640 C   0  0  0  0  0  0  0  0  0  0  0  0
    1.3273  -11.0844    3.5306 C   0  0  1  0  0  0  0  0  0  0  0  0
    0.6203  -12.2127    4.0086 O   0  0  0  0  0  0  0  0  0  0  0  0
    0.4133   -9.8829    3.7559 C   0  0  0  0  0  0  0  0  0  0  0  0
    0.8199   -8.6332    2.9625 C   0  0  0  0  0  0  0  0  0  0  0  0
    2.2960   -8.2065    3.0472 C   0  0  1  0  0  0  0  0  0  0  0  0
    2.8389   -7.9761    4.4497 C   0  0  0  0  0  0  0  0  0  0  0  0
    4.0636   -8.8668    4.4680 C   0  0  2  0  0  0  0  0  0  0  0  0
    5.1152   -8.1576    3.8086 O   0  0  0  0  0  0  0  0  0  0  0  0
    3.2940   -9.1493    2.3798 C   0  0  2  0  0  0  0  0  0  0  0  0
    2.9602   -9.4424    1.0179 O   0  0  0  0  0  0  0  0  0  0  0  0
    4.1259   -8.5812    1.1587 C   0  0  1  0  0  0  0  0  0  0  0  0
    4.1815   -7.0388    0.9899 C   0  0  2  0  0  0  0  0  0  0  0  0
    4.9994   -6.3334    0.0665 O   0  0  0  0  0  0  0  0  0  0  0  0
    5.3748   -6.1097    1.4474 C   0  0  2  0  0  0  0  0  0  0  0  0
    4.8626   -5.0746    2.4098 C   0  0  1  0  0  0  0  0  0  0  0  0
    5.8082   -5.1309    3.6369 C   0  0  0  0  0  0  0  0  0  0  0  0
    4.6594   -3.7664    1.8858 O   0  0  0  0  0  0  0  0  0  0  0  0
    5.8148   -1.6966    2.9527 H   0  0  0  0  0  0  0  0  0  0  0  0
    4.6627   -1.2030    1.7022 H   0  0  0  0  0  0  0  0  0  0  0  0
    6.4139   -1.0133    1.4258 H   0  0  0  0  0  0  0  0  0  0  0  0
    5.3759   -4.0000   -0.6716 H   0  0  0  0  0  0  0  0  0  0  0  0
    6.2513   -2.4569   -0.7377 H   0  0  0  0  0  0  0  0  0  0  0  0
    4.5036   -2.4986   -0.4287 H   0  0  0  0  0  0  0  0  0  0  0  0
    7.3615   -4.7388   -0.0257 H   0  0  0  0  0  0  0  0  0  0  0  0
    8.5312   -4.7307    1.2428 H   0  0  0  0  0  0  0  0  0  0  0  0
    7.4073   -8.0902    0.6850 H   0  0  0  0  0  0  0  0  0  0  0  0
    8.7234   -7.2699    1.4906 H   0  0  0  0  0  0  0  0  0  0  0  0
    8.1461   -6.7466   -0.0586 H   0  0  0  0  0  0  0  0  0  0  0  0
    7.9406   -5.3428    3.3866 H   0  0  0  0  0  0  0  0  0  0  0  0
    8.5785   -7.0024    4.4919 H   0  0  0  0  0  0  0  0  0  0  0  0
    7.2247   -5.9900    6.1051 H   0  0  0  0  0  0  0  0  0  0  0  0
    5.8132   -6.9187    5.7437 H   0  0  0  0  0  0  0  0  0  0  0  0
    8.2249   -8.3109    6.9514 H   0  0  0  0  0  0  0  0  0  0  0  0
    7.1943   -7.3184    7.8291 H   0  0  0  0  0  0  0  0  0  0  0  0
    6.4320   -9.3707    8.2981 H   0  0  0  0  0  0  0  0  0  0  0  0
    4.2683   -9.1070    7.8101 H   0  0  0  0  0  0  0  0  0  0  0  0
    6.7533  -11.0520    7.0352 H   0  0  0  0  0  0  0  0  0  0  0  0
    4.7492  -11.2546    7.8202 H   0  0  0  0  0  0  0  0  0  0  0  0
    6.7040  -11.6799    5.0802 H   0  0  0  0  0  0  0  0  0  0  0  0
    8.3021   -9.7384    5.5413 H   0  0  0  0  0  0  0  0  0  0  0  0
    8.3160  -10.5921    4.1058 H   0  0  0  0  0  0  0  0  0  0  0  0
    8.2604   -8.6779    3.0817 H   0  0  0  0  0  0  0  0  0  0  0  0
    6.2433   -8.3088    2.2123 H   0  0  0  0  0  0  0  0  0  0  0  0
    5.5155  -10.5318    1.7069 H   0  0  0  0  0  0  0  0  0  0  0  0
    6.9813  -10.7941    2.4604 H   0  0  0  0  0  0  0  0  0  0  0  0
    4.6805  -12.2786    2.6040 H   0  0  0  0  0  0  0  0  0  0  0  0
    3.0313  -12.0013    4.3475 H   0  0  0  0  0  0  0  0  0  0  0  0
    2.4948  -10.6913    5.3085 H   0  0  0  0  0  0  0  0  0  0  0  0
    1.4978  -11.2250    2.4747 H   0  0  0  0  0  0  0  0  0  0  0  0
    1.0949  -12.9870    3.7257 H   0  0  0  0  0  0  0  0  0  0  0  0
   -0.5984  -10.1408    3.4351 H   0  0  0  0  0  0  0  0  0  0  0  0
    0.3341   -9.6539    4.8266 H   0  0  0  0  0  0  0  0  0  0  0  0
    0.5580   -8.7775    1.9070 H   0  0  0  0  0  0  0  0  0  0  0  0
    0.1951   -7.8056    3.3073 H   0  0  0  0  0  0  0  0  0  0  0  0
    2.3001   -7.2439    2.5758 H   0  0  0  0  0  0  0  0  0  0  0  0
    3.1268   -6.9344    4.6193 H   0  0  0  0  0  0  0  0  0  0  0  0
    2.1163   -8.2503    5.2179 H   0  0  0  0  0  0  0  0  0  0  0  0
    4.2482   -9.1215    5.4888 H   0  0  0  0  0  0  0  0  0  0  0  0
    4.9064   -9.0576    0.6019 H   0  0  0  0  0  0  0  0  0  0  0  0
    3.2065   -6.5864    0.9166 H   0  0  0  0  0  0  0  0  0  0  0  0
    3.8832   -5.3825    2.7591 H   0  0  0  0  0  0  0  0  0  0  0  0
    5.2199   -5.5001    4.4628 H   0  0  0  0  0  0  0  0  0  0  0  0
    6.0850   -4.1257    3.9417 H   0  0  0  0  0  0  0  0  0  0  0  0
  1  2  1  0
  1 42  1  0
  1 43  1  0
  1 44  1  0
  2 41  1  0
  2  3  1  0
  2  4  1  0
  3 45  1  0
  3 46  1  0
  3 47  1  0
  4  5  1  0
  5  6  1  0
  5 48  1  0
  5 49  1  0
  6 38  1  0
  6  7  1  6
  6  8  1  0
  7 50  1  0
  7 51  1  0
  7 52  1  0
  8 40  1  0
  8  9  1  0
  8 53  1  6
  9 18  1  0
  9 10  1  0
  9 54  1  1
 10 11  1  0
 10 55  1  0
 10 56  1  0
 11 12  1  0
 11 57  1  0
 11 58  1  0
 12 13  1  0
 12 14  1  0
 12 59  1  1
 13 60  1  0
 14 15  1  0
 14 16  1  0
 14 61  1  1
 15 62  1  0
 16 21  1  0
 16 17  1  0
 16 63  1  1
 17 18  1  0
 17 64  1  0
 17 65  1  0
 18 19  1  0
 18 66  1  6
 19 32  1  0
 19 20  1  0
 19 67  1  6
 20 21  1  0
 20 68  1  0
 20 69  1  0
 21 22  1  6
 21 23  1  0
 22 70  1  0
 23 31  1  0
 23 33  1  0
 23 24  1  1
 24 25  1  0
 24 71  1  0
 24 72  1  0
 25 26  1  0
 25 27  1  0
 25 73  1  6
 26 74  1  0
 27 28  1  0
 27 75  1  0
 27 76  1  0
 28 29  1  0
 28 77  1  0
 28 78  1  0
 29 30  1  0
 29 33  1  0
 29 79  1  6
 30 31  1  0
 30 80  1  0
 30 81  1  0
 31 32  1  0
 31 82  1  1
 33 35  1  0
 33 34  1  6
 34 35  1  0
 35 36  1  0
 35 83  1  1
 36 38  1  0
 36 37  1  0
 36 84  1  1
 38 37  1  6
 38 39  1  0
 39 40  1  0
 39 41  1  0
 39 85  1  1
 40 86  1  0
 40 87  1  0
M  END
>  <i_m_ct_stereo_status>  (278) 
1

>  <s_m_source_file>  (278) 
/var/tmp/pbs.5076255.sched01/tmppy4q9rbr/123plv7d954.sdf

>  <i_m_source_file_index>  (278) 
3

>  <i_lp_mmshare_version>  (278) 
48012

>  <i_f3d_flags>  (278) 
0

>  <s_epik_input>  (278) 
W0NIMl0xT0MoW0NIM10pKFtDSDNdKU9bQ0BIXShbQ0gyXTIpW0NAXTMoW0NAQEhdKE8zKVtDQEBIXTRPNSlbQ0BdMShbQ0gzXSlbQ0BASF0yW0NAQEhdKFtDSDJdW0NIMl1bQ0BASF0oW09IXSlbQ0BASF0oW09IXSlbQ0BIXShbQ0gyXTYpW0NAQF03KFtDSDJdOClbT0hdKVtDQEBIXTZbQ0BASF04T1tDQEhdOVtDSDJdW0NAQEhdKFtDQF00NVtDQEBdMTc5KVtDSDJdW0NIMl1bQ0BASF0oW0NIMl0xKVtPSF0=

>  <s_epik_cmdline>  (278) 
J2VwaWtfcHl0aG9uJywgJy1waHQnLCAnMi4wJywgJy1waCcsICc3LjAnLCAnLXRuJywgJzgnLCAnLW1hJywgJzIwMCcsICctaW1hZScsICc8aW5maWxlLm1hZT4nLCAnLW9tYWUnLCAnPG91dGZpbGUubWFlPic=

>  <r_lp_tautomer_probability>  (278) 
1

>  <r_epik_Ionization_Penalty>  (278) 
1.81207e-06

>  <r_epik_Ionization_Penalty_Charging>  (278) 
0

>  <r_epik_Ionization_Penalty_Neutral>  (278) 
1.81207e-06

>  <r_epik_State_Penalty>  (278) 
-0

>  <r_epik_Charging_Adjusted_Penalty>  (278) 
0

>  <i_epik_Tot_Q>  (278) 
0

>  <i_epik_Tot_abs_Q>  (278) 
0

>  <s_lp_Force_Field>  (278) 
OPLS3e

>  <r_lp_Energy>  (278) 
269.837

>  <b_lp_Chiralities_Consistent>  (278) 
1

>  <s_lp_Variant>  (278) 
94:0-1

>  <s_i_glide_gridfile>  (278) 
pfpi4k_grid

>  <i_i_glide_lignum>  (278) 
3

>  <i_i_glide_rotatable_bonds>  (278) 
4

>  <r_i_docking_score>  (278) 
-3.3975

>  <r_i_glide_ligand_efficiency>  (278) 
-0.0828659

>  <r_i_glide_ligand_efficiency_sa>  (278) 
-0.285739

>  <r_i_glide_ligand_efficiency_ln>  (278) 
-0.720791

>  <r_i_glide_gscore>  (278) 
-3.3975

>  <r_i_glide_lipo>  (278) 
-0.762893

>  <r_i_glide_hbond>  (278) 
-0.345556

>  <r_i_glide_metal>  (278) 
-0

>  <r_i_glide_rewards>  (278) 
-0.100506

>  <r_i_glide_evdw>  (278) 
-29.7238

>  <r_i_glide_ecoul>  (278) 
-4.68237

>  <r_i_glide_erotb>  (278) 
0

>  <r_i_glide_esite>  (278) 
0

>  <r_i_glide_emodel>  (278) 
-41.4884

>  <r_i_glide_energy>  (278) 
-34.4062

>  <r_i_glide_einternal>  (278) 
1.0788

>  <r_i_glide_intrahb_reward>  (278) 
-0

>  <i_i_glide_confnum>  (278) 
2

>  <i_i_glide_posenum>  (278) 
17

>  <r_i_glide_eff_state_penalty>  (278) 
0

>  <ligand_id>  (278) 
94

>  <original_smiles>  (278) 
CC1(C)OCC2(C)C3C4CCC(O)C(O)C5CC4C4CC5(O)C56CC(O)CCC(CC5O4)C64OC4C4OC42C(C3)O1

>  <smiles>  (278) 
[H]OC1([H])C([H])([H])C([H])([H])C2([H])C([H])([H])C3([H])OC4([H])C([H])([H])C5(O[H])C6([H])C([H])([H])C4([H])C([H])(C4([H])C([H])([H])C7([H])OC(C([H])([H])[H])(C([H])([H])[H])OC([H])([H])C4(C([H])([H])[H])C74OC4([H])C4([H])OC42C35C1([H])[H])C([H])([H])C([H])([H])C([H])(O[H])C6([H])O[H]

$$$$
94:0:1
     RDKit          3D

 87 96  0  0  1  0  0  0  0  0999 V2000
    1.7263   -1.1005    9.4350 C   0  0  0  0  0  0  0  0  0  0  0  0
    2.1310   -1.5664    8.0299 C   0  0  0  0  0  0  0  0  0  0  0  0
    1.9608   -0.4160    7.0187 C   0  0  0  0  0  0  0  0  0  0  0  0
    3.4648   -1.9721    8.1523 O   0  0  0  0  0  0  0  0  0  0  0  0
    4.2358   -2.3128    7.0052 C   0  0  0  0  0  0  0  0  0  0  0  0
    3.9627   -3.7027    6.3287 C   0  0  1  0  0  0  0  0  0  0  0  0
    5.0920   -3.6890    5.2365 C   0  0  0  0  0  0  0  0  0  0  0  0
    4.0127   -4.8054    7.5034 C   0  0  2  0  0  0  0  0  0  0  0  0
    4.6366   -6.3237    7.4275 C   0  0  1  0  0  0  0  0  0  0  0  0
    3.9163   -7.3503    8.3826 C   0  0  0  0  0  0  0  0  0  0  0  0
    4.3582   -8.8408    8.4925 C   0  0  0  0  0  0  0  0  0  0  0  0
    3.5369   -9.9264    7.7136 C   0  0  1  0  0  0  0  0  0  0  0  0
    2.1802   -9.8582    8.1244 O   0  0  0  0  0  0  0  0  0  0  0  0
    3.7604  -10.2929    6.1838 C   0  0  1  0  0  0  0  0  0  0  0  0
    2.7116  -11.0860    5.6610 O   0  0  0  0  0  0  0  0  0  0  0  0
    4.2347   -9.2516    5.1016 C   0  0  2  0  0  0  0  0  0  0  0  0
    5.3856   -8.3547    5.7084 C   0  0  0  0  0  0  0  0  0  0  0  0
    4.9408   -6.8916    6.0054 C   0  0  1  0  0  0  0  0  0  0  0  0
    3.7735   -6.6302    5.1234 C   0  0  1  0  0  0  0  0  0  0  0  0
    3.9847   -7.2555    3.7271 C   0  0  0  0  0  0  0  0  0  0  0  0
    3.2986   -8.5393    3.9251 C   0  0  1  0  0  0  0  0  0  0  0  0
    3.5324   -9.1990    2.6890 O   0  0  0  0  0  0  0  0  0  0  0  0
    1.7214   -8.0947    4.0747 C   0  0  1  0  0  0  0  0  0  0  0  0
    0.7719   -9.2601    3.5954 C   0  0  0  0  0  0  0  0  0  0  0  0
   -0.4640   -8.8852    2.7474 C   0  0  1  0  0  0  0  0  0  0  0  0
   -0.9269  -10.0367    2.0876 O   0  0  0  0  0  0  0  0  0  0  0  0
   -1.6362   -8.4068    3.6056 C   0  0  0  0  0  0  0  0  0  0  0  0
   -1.4737   -6.9853    4.1011 C   0  0  0  0  0  0  0  0  0  0  0  0
   -0.1402   -6.6063    4.7609 C   0  0  1  0  0  0  0  0  0  0  0  0
    0.2637   -7.4376    5.9570 C   0  0  0  0  0  0  0  0  0  0  0  0
    1.6504   -7.9173    5.5679 C   0  0  2  0  0  0  0  0  0  0  0  0
    2.5477   -6.8482    5.8796 O   0  0  0  0  0  0  0  0  0  0  0  0
    1.0825   -6.6110    3.8372 C   0  0  2  0  0  0  0  0  0  0  0  0
    0.8865   -5.8241    2.6501 O   0  0  0  0  0  0  0  0  0  0  0  0
    1.8236   -5.2378    3.6090 C   0  0  1  0  0  0  0  0  0  0  0  0
    1.5463   -4.0926    4.6237 C   0  0  2  0  0  0  0  0  0  0  0  0
    2.2348   -2.8454    4.6849 O   0  0  0  0  0  0  0  0  0  0  0  0
    2.4713   -3.7071    5.8414 C   0  0  2  0  0  0  0  0  0  0  0  0
    1.6919   -3.7991    7.1359 C   0  0  1  0  0  0  0  0  0  0  0  0
    2.5632   -4.6521    8.0966 C   0  0  0  0  0  0  0  0  0  0  0  0
    1.2291   -2.5759    7.7051 O   0  0  0  0  0  0  0  0  0  0  0  0
    1.8531   -1.9207   10.1436 H   0  0  0  0  0  0  0  0  0  0  0  0
    0.6817   -0.7881    9.4462 H   0  0  0  0  0  0  0  0  0  0  0  0
    2.3517   -0.2655    9.7526 H   0  0  0  0  0  0  0  0  0  0  0  0
    2.1300   -0.7475    6.0003 H   0  0  0  0  0  0  0  0  0  0  0  0
    2.6381    0.4038    7.2437 H   0  0  0  0  0  0  0  0  0  0  0  0
    0.9423   -0.0431    7.0643 H   0  0  0  0  0  0  0  0  0  0  0  0
    4.1985   -1.4885    6.2934 H   0  0  0  0  0  0  0  0  0  0  0  0
    5.2657   -2.3164    7.3645 H   0  0  0  0  0  0  0  0  0  0  0  0
    4.8684   -4.1739    4.2882 H   0  0  0  0  0  0  0  0  0  0  0  0
    6.0172   -4.1013    5.6384 H   0  0  0  0  0  0  0  0  0  0  0  0
    5.3414   -2.6778    4.9106 H   0  0  0  0  0  0  0  0  0  0  0  0
    4.6474   -4.3627    8.2712 H   0  0  0  0  0  0  0  0  0  0  0  0
    5.6308   -6.2185    7.8623 H   0  0  0  0  0  0  0  0  0  0  0  0
    4.0010   -6.9270    9.3853 H   0  0  0  0  0  0  0  0  0  0  0  0
    2.8539   -7.4006    8.1818 H   0  0  0  0  0  0  0  0  0  0  0  0
    5.4355   -8.9766    8.4472 H   0  0  0  0  0  0  0  0  0  0  0  0
    4.1699   -9.0935    9.5367 H   0  0  0  0  0  0  0  0  0  0  0  0
    3.8299  -10.8517    8.2056 H   0  0  0  0  0  0  0  0  0  0  0  0
    1.8130  -10.7434    8.0033 H   0  0  0  0  0  0  0  0  0  0  0  0
    4.6001  -10.9905    6.2322 H   0  0  0  0  0  0  0  0  0  0  0  0
    2.3697  -11.6725    6.3336 H   0  0  0  0  0  0  0  0  0  0  0  0
    4.8361   -9.9175    4.4841 H   0  0  0  0  0  0  0  0  0  0  0  0
    5.9248   -8.8301    6.5118 H   0  0  0  0  0  0  0  0  0  0  0  0
    6.1846   -8.3042    4.9605 H   0  0  0  0  0  0  0  0  0  0  0  0
    5.7740   -6.2953    5.6417 H   0  0  0  0  0  0  0  0  0  0  0  0
    3.7653   -5.6108    4.9301 H   0  0  0  0  0  0  0  0  0  0  0  0
    3.5875   -6.7792    2.8446 H   0  0  0  0  0  0  0  0  0  0  0  0
    5.0357   -7.3560    3.4483 H   0  0  0  0  0  0  0  0  0  0  0  0
    3.1884  -10.0765    2.7548 H   0  0  0  0  0  0  0  0  0  0  0  0
    1.3325   -9.9681    2.9939 H   0  0  0  0  0  0  0  0  0  0  0  0
    0.4674   -9.8726    4.4475 H   0  0  0  0  0  0  0  0  0  0  0  0
   -0.2180   -8.1573    1.9797 H   0  0  0  0  0  0  0  0  0  0  0  0
   -0.5321  -10.0934    1.2117 H   0  0  0  0  0  0  0  0  0  0  0  0
   -2.5571   -8.4479    3.0218 H   0  0  0  0  0  0  0  0  0  0  0  0
   -1.8034   -9.0486    4.4529 H   0  0  0  0  0  0  0  0  0  0  0  0
   -1.6381   -6.3207    3.2638 H   0  0  0  0  0  0  0  0  0  0  0  0
   -2.2764   -6.7630    4.8027 H   0  0  0  0  0  0  0  0  0  0  0  0
   -0.3268   -5.6192    5.1467 H   0  0  0  0  0  0  0  0  0  0  0  0
    0.2992   -6.8577    6.8816 H   0  0  0  0  0  0  0  0  0  0  0  0
   -0.4094   -8.2771    6.1115 H   0  0  0  0  0  0  0  0  0  0  0  0
    1.8244   -8.8263    6.0847 H   0  0  0  0  0  0  0  0  0  0  0  0
    2.7374   -5.0434    3.0580 H   0  0  0  0  0  0  0  0  0  0  0  0
    0.4883   -3.8431    4.6971 H   0  0  0  0  0  0  0  0  0  0  0  0
    0.7854   -4.3665    6.9434 H   0  0  0  0  0  0  0  0  0  0  0  0
    2.0324   -5.5789    8.2690 H   0  0  0  0  0  0  0  0  0  0  0  0
    2.6053   -4.1836    9.0802 H   0  0  0  0  0  0  0  0  0  0  0  0
  1  2  1  0
  1 42  1  0
  1 43  1  0
  1 44  1  0
  2 41  1  0
  2  3  1  0
  2  4  1  0
  3 45  1  0
  3 46  1  0
  3 47  1  0
  4  5  1  0
  5  6  1  0
  5 48  1  0
  5 49  1  0
  6 38  1  0
  6  7  1  6
  6  8  1  0
  7 50  1  0
  7 51  1  0
  7 52  1  0
  8 40  1  0
  8  9  1  0
  8 53  1  1
  9 18  1  0
  9 10  1  0
  9 54  1  1
 10 11  1  0
 10 55  1  0
 10 56  1  0
 11 12  1  0
 11 57  1  0
 11 58  1  0
 12 13  1  0
 12 14  1  0
 12 59  1  1
 13 60  1  0
 14 15  1  0
 14 16  1  0
 14 61  1  1
 15 62  1  0
 16 21  1  0
 16 17  1  0
 16 63  1  6
 17 18  1  0
 17 64  1  0
 17 65  1  0
 18 19  1  0
 18 66  1  6
 19 32  1  0
 19 20  1  0
 19 67  1  6
 20 21  1  0
 20 68  1  0
 20 69  1  0
 21 22  1  6
 21 23  1  0
 22 70  1  0
 23 31  1  0
 23 33  1  0
 23 24  1  1
 24 25  1  0
 24 71  1  0
 24 72  1  0
 25 26  1  0
 25 27  1  0
 25 73  1  6
 26 74  1  0
 27 28  1  0
 27 75  1  0
 27 76  1  0
 28 29  1  0
 28 77  1  0
 28 78  1  0
 29 30  1  0
 29 33  1  0
 29 79  1  1
 30 31  1  0
 30 80  1  0
 30 81  1  0
 31 32  1  0
 31 82  1  1
 33 35  1  0
 33 34  1  6
 34 35  1  0
 35 36  1  0
 35 83  1  6
 36 38  1  0
 36 37  1  0
 36 84  1  1
 38 37  1  6
 38 39  1  0
 39 40  1  0
 39 41  1  0
 39 85  1  6
 40 86  1  0
 40 87  1  0
M  END
>  <i_m_ct_stereo_status>  (279) 
1

>  <s_m_source_file>  (279) 
/var/tmp/pbs.5076255.sched01/tmppy4q9rbr/123plv7d954.sdf

>  <i_m_source_file_index>  (279) 
3

>  <i_lp_mmshare_version>  (279) 
48012

>  <i_f3d_flags>  (279) 
0

>  <s_epik_input>  (279) 
W0NIMl0xT0MoW0NIM10pKFtDSDNdKU9bQ0BIXShbQ0gyXTIpW0NAXTMoW0NAQEhdKE8zKVtDQEBIXTRPNSlbQ0BdMShbQ0gzXSlbQ0BASF0yW0NAQEhdKFtDSDJdW0NIMl1bQ0BASF0oW09IXSlbQ0BASF0oW09IXSlbQ0BIXShbQ0gyXTYpW0NAQF03KFtDSDJdOClbT0hdKVtDQEBIXTZbQ0BASF04T1tDQEhdOVtDSDJdW0NAQEhdKFtDQF00NVtDQEBdMTc5KVtDSDJdW0NIMl1bQ0BASF0oW0NIMl0xKVtPSF0=

>  <s_epik_cmdline>  (279) 
J2VwaWtfcHl0aG9uJywgJy1waHQnLCAnMi4wJywgJy1waCcsICc3LjAnLCAnLXRuJywgJzgnLCAnLW1hJywgJzIwMCcsICctaW1hZScsICc8aW5maWxlLm1hZT4nLCAnLW9tYWUnLCAnPG91dGZpbGUubWFlPic=

>  <r_lp_tautomer_probability>  (279) 
1

>  <r_epik_Ionization_Penalty>  (279) 
1.81207e-06

>  <r_epik_Ionization_Penalty_Charging>  (279) 
0

>  <r_epik_Ionization_Penalty_Neutral>  (279) 
1.81207e-06

>  <r_epik_State_Penalty>  (279) 
-0

>  <r_epik_Charging_Adjusted_Penalty>  (279) 
0

>  <i_epik_Tot_Q>  (279) 
0

>  <i_epik_Tot_abs_Q>  (279) 
0

>  <s_lp_Force_Field>  (279) 
OPLS3e

>  <r_lp_Energy>  (279) 
269.837

>  <b_lp_Chiralities_Consistent>  (279) 
1

>  <s_lp_Variant>  (279) 
94:0-1

>  <s_i_glide_gridfile>  (279) 
pfpi4k_grid

>  <i_i_glide_lignum>  (279) 
3

>  <i_i_glide_rotatable_bonds>  (279) 
4

>  <r_i_docking_score>  (279) 
-3.276

>  <r_i_glide_ligand_efficiency>  (279) 
-0.0799025

>  <r_i_glide_ligand_efficiency_sa>  (279) 
-0.275521

>  <r_i_glide_ligand_efficiency_ln>  (279) 
-0.695015

>  <r_i_glide_gscore>  (279) 
-3.276

>  <r_i_glide_lipo>  (279) 
-0.0167785

>  <r_i_glide_hbond>  (279) 
-0.28809

>  <r_i_glide_metal>  (279) 
-0

>  <r_i_glide_rewards>  (279) 
0

>  <r_i_glide_evdw>  (279) 
-18.4033

>  <r_i_glide_ecoul>  (279) 
-13.6731

>  <r_i_glide_erotb>  (279) 
0

>  <r_i_glide_esite>  (279) 
0

>  <r_i_glide_emodel>  (279) 
-38.1504

>  <r_i_glide_energy>  (279) 
-32.0764

>  <r_i_glide_einternal>  (279) 
2.11386

>  <r_i_glide_intrahb_reward>  (279) 
-0

>  <i_i_glide_confnum>  (279) 
2

>  <i_i_glide_posenum>  (279) 
15

>  <r_i_glide_eff_state_penalty>  (279) 
0

>  <ligand_id>  (279) 
94

>  <original_smiles>  (279) 
CC1(C)OCC2(C)C3C4CCC(O)C(O)C5CC4C4CC5(O)C56CC(O)CCC(CC5O4)C64OC4C4OC42C(C3)O1

>  <smiles>  (279) 
[H]OC1([H])C([H])([H])C([H])([H])C2([H])C([H])([H])C3([H])OC4([H])C([H])([H])C5(O[H])C6([H])C([H])([H])C4([H])C([H])(C4([H])C([H])([H])C7([H])OC(C([H])([H])[H])(C([H])([H])[H])OC([H])([H])C4(C([H])([H])[H])C74OC4([H])C4([H])OC42C35C1([H])[H])C([H])([H])C([H])([H])C([H])(O[H])C6([H])O[H]

$$$$
94:0:2
     RDKit          3D

 87 96  0  0  1  0  0  0  0  0999 V2000
    0.7507    0.3544    3.7261 C   0  0  0  0  0  0  0  0  0  0  0  0
    1.7475   -0.7787    3.4530 C   0  0  0  0  0  0  0  0  0  0  0  0
    2.4416   -0.5535    2.0898 C   0  0  0  0  0  0  0  0  0  0  0  0
    2.6449   -0.7407    4.5255 O   0  0  0  0  0  0  0  0  0  0  0  0
    3.8171   -1.5464    4.5188 C   0  0  0  0  0  0  0  0  0  0  0  0
    3.6503   -3.0783    4.8206 C   0  0  1  0  0  0  0  0  0  0  0  0
    5.1593   -3.5068    4.8436 C   0  0  0  0  0  0  0  0  0  0  0  0
    2.7784   -3.1896    6.1728 C   0  0  2  0  0  0  0  0  0  0  0  0
    2.9671   -4.2658    7.3969 C   0  0  1  0  0  0  0  0  0  0  0  0
    1.6282   -4.6178    8.1469 C   0  0  0  0  0  0  0  0  0  0  0  0
    1.5754   -5.5965    9.3618 C   0  0  0  0  0  0  0  0  0  0  0  0
    1.1062   -7.0802    9.1282 C   0  0  1  0  0  0  0  0  0  0  0  0
   -0.1865   -7.0393    8.5488 O   0  0  0  0  0  0  0  0  0  0  0  0
    2.0487   -8.2506    8.5957 C   0  0  1  0  0  0  0  0  0  0  0  0
    1.2874   -9.3908    8.2326 O   0  0  0  0  0  0  0  0  0  0  0  0
    3.2615   -8.0230    7.6179 C   0  0  2  0  0  0  0  0  0  0  0  0
    4.0442   -6.7225    8.0761 C   0  0  0  0  0  0  0  0  0  0  0  0
    3.8687   -5.5102    7.1105 C   0  0  1  0  0  0  0  0  0  0  0  0
    3.4864   -6.0949    5.8033 C   0  0  1  0  0  0  0  0  0  0  0  0
    4.2826   -7.3845    5.5083 C   0  0  0  0  0  0  0  0  0  0  0  0
    3.3232   -8.3795    5.9973 C   0  0  1  0  0  0  0  0  0  0  0  0
    4.0453   -9.5902    5.8473 O   0  0  0  0  0  0  0  0  0  0  0  0
    2.0910   -8.2595    4.9217 C   0  0  1  0  0  0  0  0  0  0  0  0
    1.3321   -9.6373    4.8306 C   0  0  0  0  0  0  0  0  0  0  0  0
    0.8940  -10.1297    3.4359 C   0  0  1  0  0  0  0  0  0  0  0  0
    0.6129  -11.5112    3.5400 O   0  0  0  0  0  0  0  0  0  0  0  0
   -0.3973   -9.4695    2.9441 C   0  0  0  0  0  0  0  0  0  0  0  0
   -0.2133   -8.0409    2.4408 C   0  0  0  0  0  0  0  0  0  0  0  0
    0.5698   -7.0820    3.3565 C   0  0  1  0  0  0  0  0  0  0  0  0
    0.0260   -6.9158    4.7668 C   0  0  0  0  0  0  0  0  0  0  0  0
    1.2423   -7.2322    5.6195 C   0  0  2  0  0  0  0  0  0  0  0  0
    2.0407   -6.0493    5.6714 O   0  0  0  0  0  0  0  0  0  0  0  0
    2.0567   -7.4059    3.5361 C   0  0  2  0  0  0  0  0  0  0  0  0
    2.7538   -7.5687    2.2924 O   0  0  0  0  0  0  0  0  0  0  0  0
    3.1028   -6.3461    3.0004 C   0  0  1  0  0  0  0  0  0  0  0  0
    2.5841   -4.9087    2.7297 C   0  0  2  0  0  0  0  0  0  0  0  0
    3.3916   -3.7846    2.4129 O   0  0  0  0  0  0  0  0  0  0  0  0
    2.7354   -3.6737    3.7061 C   0  0  2  0  0  0  0  0  0  0  0  0
    1.3740   -3.1254    4.0486 C   0  0  1  0  0  0  0  0  0  0  0  0
    1.3327   -3.0072    5.5946 C   0  0  0  0  0  0  0  0  0  0  0  0
    0.9808   -1.9383    3.3750 O   0  0  0  0  0  0  0  0  0  0  0  0
    0.2635    0.1919    4.6889 H   0  0  0  0  0  0  0  0  0  0  0  0
   -0.0121    0.3860    2.9464 H   0  0  0  0  0  0  0  0  0  0  0  0
    1.2700    1.3159    3.7539 H   0  0  0  0  0  0  0  0  0  0  0  0
    3.0645   -1.3999    1.8148 H   0  0  0  0  0  0  0  0  0  0  0  0
    3.0493    0.3537    2.1122 H   0  0  0  0  0  0  0  0  0  0  0  0
    1.6838   -0.4440    1.3127 H   0  0  0  0  0  0  0  0  0  0  0  0
    4.3729   -1.3684    3.5957 H   0  0  0  0  0  0  0  0  0  0  0  0
    4.4461   -1.1198    5.3008 H   0  0  0  0  0  0  0  0  0  0  0  0
    5.4066   -4.5029    4.4773 H   0  0  0  0  0  0  0  0  0  0  0  0
    5.5857   -3.3837    5.8392 H   0  0  0  0  0  0  0  0  0  0  0  0
    5.7736   -2.8892    4.1858 H   0  0  0  0  0  0  0  0  0  0  0  0
    2.9693   -2.2550    6.7010 H   0  0  0  0  0  0  0  0  0  0  0  0
    3.5472   -3.7260    8.1475 H   0  0  0  0  0  0  0  0  0  0  0  0
    1.2390   -3.6626    8.5043 H   0  0  0  0  0  0  0  0  0  0  0  0
    0.8738   -4.9881    7.4645 H   0  0  0  0  0  0  0  0  0  0  0  0
    2.4305   -5.5008   10.0253 H   0  0  0  0  0  0  0  0  0  0  0  0
    0.7854   -5.1857    9.9926 H   0  0  0  0  0  0  0  0  0  0  0  0
    0.8530   -7.4256   10.1319 H   0  0  0  0  0  0  0  0  0  0  0  0
   -0.0721   -6.8848    7.6228 H   0  0  0  0  0  0  0  0  0  0  0  0
    2.5434   -8.5699    9.5178 H   0  0  0  0  0  0  0  0  0  0  0  0
    1.8414  -10.1567    8.1303 H   0  0  0  0  0  0  0  0  0  0  0  0
    3.9348   -8.7819    8.0160 H   0  0  0  0  0  0  0  0  0  0  0  0
    3.9257   -6.4831    9.1217 H   0  0  0  0  0  0  0  0  0  0  0  0
    5.1132   -6.9765    8.0796 H   0  0  0  0  0  0  0  0  0  0  0  0
    4.8730   -5.1101    7.0180 H   0  0  0  0  0  0  0  0  0  0  0  0
    3.8169   -5.4383    5.0765 H   0  0  0  0  0  0  0  0  0  0  0  0
    4.5647   -7.6426    4.5004 H   0  0  0  0  0  0  0  0  0  0  0  0
    5.2527   -7.4121    6.0036 H   0  0  0  0  0  0  0  0  0  0  0  0
    3.4797  -10.3144    6.0735 H   0  0  0  0  0  0  0  0  0  0  0  0
    1.9419  -10.4358    5.2387 H   0  0  0  0  0  0  0  0  0  0  0  0
    0.4623   -9.6467    5.4955 H   0  0  0  0  0  0  0  0  0  0  0  0
    1.6891  -10.0083    2.6926 H   0  0  0  0  0  0  0  0  0  0  0  0
    1.4121  -11.9925    3.6762 H   0  0  0  0  0  0  0  0  0  0  0  0
   -0.8184  -10.0565    2.1240 H   0  0  0  0  0  0  0  0  0  0  0  0
   -1.1610   -9.4824    3.7272 H   0  0  0  0  0  0  0  0  0  0  0  0
    0.2810   -8.0819    1.4647 H   0  0  0  0  0  0  0  0  0  0  0  0
   -1.2050   -7.6241    2.2521 H   0  0  0  0  0  0  0  0  0  0  0  0
    0.4395   -6.1297    2.8822 H   0  0  0  0  0  0  0  0  0  0  0  0
   -0.3193   -5.8965    4.9536 H   0  0  0  0  0  0  0  0  0  0  0  0
   -0.8055   -7.5903    4.9683 H   0  0  0  0  0  0  0  0  0  0  0  0
    0.8876   -7.5834    6.5621 H   0  0  0  0  0  0  0  0  0  0  0  0
    4.1738   -6.3591    3.0943 H   0  0  0  0  0  0  0  0  0  0  0  0
    1.7623   -4.8853    2.0311 H   0  0  0  0  0  0  0  0  0  0  0  0
    0.6259   -3.8605    3.7661 H   0  0  0  0  0  0  0  0  0  0  0  0
    0.6008   -3.7200    5.9415 H   0  0  0  0  0  0  0  0  0  0  0  0
    0.9282   -2.0408    5.8899 H   0  0  0  0  0  0  0  0  0  0  0  0
  1  2  1  0
  1 42  1  0
  1 43  1  0
  1 44  1  0
  2 41  1  0
  2  3  1  0
  2  4  1  0
  3 45  1  0
  3 46  1  0
  3 47  1  0
  4  5  1  0
  5  6  1  0
  5 48  1  0
  5 49  1  0
  6 38  1  0
  6  7  1  1
  6  8  1  0
  7 50  1  0
  7 51  1  0
  7 52  1  0
  8 40  1  0
  8  9  1  0
  8 53  1  1
  9 18  1  0
  9 10  1  0
  9 54  1  1
 10 11  1  0
 10 55  1  0
 10 56  1  0
 11 12  1  0
 11 57  1  0
 11 58  1  0
 12 13  1  0
 12 14  1  0
 12 59  1  1
 13 60  1  0
 14 15  1  0
 14 16  1  0
 14 61  1  1
 15 62  1  0
 16 21  1  0
 16 17  1  0
 16 63  1  1
 17 18  1  0
 17 64  1  0
 17 65  1  0
 18 19  1  0
 18 66  1  6
 19 32  1  0
 19 20  1  0
 19 67  1  6
 20 21  1  0
 20 68  1  0
 20 69  1  0
 21 22  1  1
 21 23  1  0
 22 70  1  0
 23 31  1  0
 23 33  1  0
 23 24  1  6
 24 25  1  0
 24 71  1  0
 24 72  1  0
 25 26  1  0
 25 27  1  0
 25 73  1  6
 26 74  1  0
 27 28  1  0
 27 75  1  0
 27 76  1  0
 28 29  1  0
 28 77  1  0
 28 78  1  0
 29 30  1  0
 29 33  1  0
 29 79  1  6
 30 31  1  0
 30 80  1  0
 30 81  1  0
 31 32  1  0
 31 82  1  1
 33 35  1  0
 33 34  1  6
 34 35  1  0
 35 36  1  0
 35 83  1  1
 36 38  1  0
 36 37  1  0
 36 84  1  6
 38 37  1  6
 38 39  1  0
 39 40  1  0
 39 41  1  0
 39 85  1  6
 40 86  1  0
 40 87  1  0
M  END
>  <i_m_ct_stereo_status>  (280) 
1

>  <s_m_source_file>  (280) 
/var/tmp/pbs.5076255.sched01/tmppy4q9rbr/123plv7d954.sdf

>  <i_m_source_file_index>  (280) 
3

>  <i_lp_mmshare_version>  (280) 
48012

>  <i_f3d_flags>  (280) 
0

>  <s_epik_input>  (280) 
W0NIMl0xT0MoW0NIM10pKFtDSDNdKU9bQ0BIXShbQ0gyXTIpW0NAXTMoW0NAQEhdKE8zKVtDQEBIXTRPNSlbQ0BdMShbQ0gzXSlbQ0BASF0yW0NAQEhdKFtDSDJdW0NIMl1bQ0BASF0oW09IXSlbQ0BASF0oW09IXSlbQ0BIXShbQ0gyXTYpW0NAQF03KFtDSDJdOClbT0hdKVtDQEBIXTZbQ0BASF04T1tDQEhdOVtDSDJdW0NAQEhdKFtDQF00NVtDQEBdMTc5KVtDSDJdW0NIMl1bQ0BASF0oW0NIMl0xKVtPSF0=

>  <s_epik_cmdline>  (280) 
J2VwaWtfcHl0aG9uJywgJy1waHQnLCAnMi4wJywgJy1waCcsICc3LjAnLCAnLXRuJywgJzgnLCAnLW1hJywgJzIwMCcsICctaW1hZScsICc8aW5maWxlLm1hZT4nLCAnLW9tYWUnLCAnPG91dGZpbGUubWFlPic=

>  <r_lp_tautomer_probability>  (280) 
1

>  <r_epik_Ionization_Penalty>  (280) 
1.81207e-06

>  <r_epik_Ionization_Penalty_Charging>  (280) 
0

>  <r_epik_Ionization_Penalty_Neutral>  (280) 
1.81207e-06

>  <r_epik_State_Penalty>  (280) 
-0

>  <r_epik_Charging_Adjusted_Penalty>  (280) 
0

>  <i_epik_Tot_Q>  (280) 
0

>  <i_epik_Tot_abs_Q>  (280) 
0

>  <s_lp_Force_Field>  (280) 
OPLS3e

>  <r_lp_Energy>  (280) 
269.837

>  <b_lp_Chiralities_Consistent>  (280) 
1

>  <s_lp_Variant>  (280) 
94:0-1

>  <s_i_glide_gridfile>  (280) 
pfpi4k_grid

>  <i_i_glide_lignum>  (280) 
3

>  <i_i_glide_rotatable_bonds>  (280) 
4

>  <r_i_docking_score>  (280) 
-2.27724

>  <r_i_glide_ligand_efficiency>  (280) 
-0.0555423

>  <r_i_glide_ligand_efficiency_sa>  (280) 
-0.191522

>  <r_i_glide_ligand_efficiency_ln>  (280) 
-0.483123

>  <r_i_glide_gscore>  (280) 
-2.27724

>  <r_i_glide_lipo>  (280) 
-0.085891

>  <r_i_glide_hbond>  (280) 
0

>  <r_i_glide_metal>  (280) 
-0

>  <r_i_glide_rewards>  (280) 
0

>  <r_i_glide_evdw>  (280) 
-28.3415

>  <r_i_glide_ecoul>  (280) 
-5.1353

>  <r_i_glide_erotb>  (280) 
0

>  <r_i_glide_esite>  (280) 
-0.00397538

>  <r_i_glide_emodel>  (280) 
-38.1272

>  <r_i_glide_energy>  (280) 
-33.4768

>  <r_i_glide_einternal>  (280) 
0.742657

>  <r_i_glide_intrahb_reward>  (280) 
-0

>  <i_i_glide_confnum>  (280) 
1

>  <i_i_glide_posenum>  (280) 
6

>  <r_i_glide_eff_state_penalty>  (280) 
0

>  <ligand_id>  (280) 
94

>  <original_smiles>  (280) 
CC1(C)OCC2(C)C3C4CCC(O)C(O)C5CC4C4CC5(O)C56CC(O)CCC(CC5O4)C64OC4C4OC42C(C3)O1

>  <smiles>  (280) 
[H]OC1([H])C([H])([H])C([H])([H])C2([H])C([H])([H])C3([H])OC4([H])C([H])([H])C5(O[H])C6([H])C([H])([H])C4([H])C([H])(C4([H])C([H])([H])C7([H])OC(C([H])([H])[H])(C([H])([H])[H])OC([H])([H])C4(C([H])([H])[H])C74OC4([H])C4([H])OC42C35C1([H])[H])C([H])([H])C([H])([H])C([H])(O[H])C6([H])O[H]

$$$$
95:0:0
     RDKit          3D

 72 78  0  0  1  0  0  0  0  0999 V2000
    1.6566   -7.7842    2.2124 C   0  0  0  0  0  0  0  0  0  0  0  0
    1.3713   -6.3000    2.6042 C   0  0  0  0  0  0  0  0  0  0  0  0
    2.4932   -5.3080    3.1198 C   0  0  1  0  0  0  0  0  0  0  0  0
    1.5976   -4.4214    3.7846 O   0  0  0  0  0  0  0  0  0  0  0  0
    3.2364   -6.0688    4.2661 C   0  0  0  0  0  0  0  0  0  0  0  0
    2.6452   -6.4454    5.2861 O   0  0  0  0  0  0  0  0  0  0  0  0
    4.5534   -6.3545    4.0544 O   0  0  0  0  0  0  0  0  0  0  0  0
    5.1971   -5.6462    3.0216 C   0  0  1  0  0  0  0  0  0  0  0  0
    6.4648   -6.3211    2.4304 C   0  0  0  0  0  0  0  0  0  0  0  0
    6.2872   -6.4710    0.8673 C   0  0  0  0  0  0  0  0  0  0  0  0
    4.8786   -5.9694    0.3943 C   0  0  1  0  0  0  0  0  0  0  0  0
    4.2847   -5.8840    1.7759 C   0  0  2  0  0  0  0  0  0  0  0  0
    3.3710   -4.6941    1.8105 C   0  0  1  0  0  0  0  0  0  0  0  0
    4.8787   -3.9331    1.0013 C   0  0  2  0  0  0  0  0  0  0  0  0
    5.6793   -2.4728    0.8307 C   0  0  1  0  0  0  0  0  0  0  0  0
    7.2318   -2.6433    0.7762 C   0  0  0  0  0  0  0  0  0  0  0  0
    5.3283   -1.3935   -0.2367 C   0  0  0  0  0  0  0  0  0  0  0  0
    5.7785   -1.5518   -1.7174 C   0  0  0  0  0  0  0  0  0  0  0  0
    5.0631   -2.5114   -2.7036 C   0  0  1  0  0  0  0  0  0  0  0  0
    5.3729   -3.9751   -2.4624 C   0  0  0  0  0  0  0  0  0  0  0  0
    5.6669   -4.1766   -1.1083 O   0  0  0  0  0  0  0  0  0  0  0  0
    4.6250   -4.5382   -0.2341 C   0  0  1  0  0  0  0  0  0  0  0  0
    3.3252   -3.6890    0.1008 C   0  0  2  0  0  0  0  0  0  0  0  0
    2.6054   -2.7466   -0.8971 C   0  0  0  0  0  0  0  0  0  0  0  0
    2.5640   -2.9908   -2.3943 C   0  0  0  0  0  0  0  0  0  0  0  0
    3.6329   -2.2356   -3.1852 C   0  0  1  0  0  0  0  0  0  0  0  0
    3.3363   -0.7421   -3.3517 C   0  0  0  0  0  0  0  0  0  0  0  0
    3.2108   -3.2573    1.7349 C   0  0  1  0  0  0  0  0  0  0  0  0
    1.8849   -2.7427    1.9002 O   0  0  0  0  0  0  0  0  0  0  0  0
    1.8122   -1.3252    1.9952 C   0  0  0  0  0  0  0  0  0  0  0  0
    4.0800   -3.0556    3.1585 C   0  0  0  0  0  0  0  0  0  0  0  0
    5.2479   -4.1107    3.6088 C   0  0  0  0  0  0  0  0  0  0  0  0
    0.7037   -8.3155    1.9929 H   0  0  0  0  0  0  0  0  0  0  0  0
    2.0862   -8.3164    3.0688 H   0  0  0  0  0  0  0  0  0  0  0  0
    2.3153   -7.8775    1.3610 H   0  0  0  0  0  0  0  0  0  0  0  0
    0.8663   -5.8073    1.7812 H   0  0  0  0  0  0  0  0  0  0  0  0
    0.6063   -6.3950    3.3804 H   0  0  0  0  0  0  0  0  0  0  0  0
    1.2584   -3.8351    3.1260 H   0  0  0  0  0  0  0  0  0  0  0  0
    7.3599   -5.7666    2.6676 H   0  0  0  0  0  0  0  0  0  0  0  0
    6.5631   -7.3153    2.8753 H   0  0  0  0  0  0  0  0  0  0  0  0
    7.0887   -5.9802    0.3180 H   0  0  0  0  0  0  0  0  0  0  0  0
    6.3420   -7.5388    0.6835 H   0  0  0  0  0  0  0  0  0  0  0  0
    4.3532   -6.7042   -0.1948 H   0  0  0  0  0  0  0  0  0  0  0  0
    3.8852   -6.8551    1.8896 H   0  0  0  0  0  0  0  0  0  0  0  0
    5.8466   -4.2481    1.3053 H   0  0  0  0  0  0  0  0  0  0  0  0
    5.6224   -1.8914    1.7318 H   0  0  0  0  0  0  0  0  0  0  0  0
    7.5883   -3.2123   -0.0807 H   0  0  0  0  0  0  0  0  0  0  0  0
    7.5964   -3.1680    1.6520 H   0  0  0  0  0  0  0  0  0  0  0  0
    7.7245   -1.6792    0.7487 H   0  0  0  0  0  0  0  0  0  0  0  0
    4.3449   -0.9806   -0.1164 H   0  0  0  0  0  0  0  0  0  0  0  0
    5.8988   -0.5293    0.0881 H   0  0  0  0  0  0  0  0  0  0  0  0
    5.7377   -0.5591   -2.1582 H   0  0  0  0  0  0  0  0  0  0  0  0
    6.8324   -1.8362   -1.7446 H   0  0  0  0  0  0  0  0  0  0  0  0
    5.6004   -2.3233   -3.6175 H   0  0  0  0  0  0  0  0  0  0  0  0
    4.6441   -4.6578   -2.8900 H   0  0  0  0  0  0  0  0  0  0  0  0
    6.2917   -4.1818   -3.0001 H   0  0  0  0  0  0  0  0  0  0  0  0
    2.5873   -4.4875   -0.1158 H   0  0  0  0  0  0  0  0  0  0  0  0
    1.5886   -2.9746   -0.6031 H   0  0  0  0  0  0  0  0  0  0  0  0
    2.6814   -1.6876   -0.7509 H   0  0  0  0  0  0  0  0  0  0  0  0
    2.5888   -4.0522   -2.5775 H   0  0  0  0  0  0  0  0  0  0  0  0
    1.5926   -2.6811   -2.7804 H   0  0  0  0  0  0  0  0  0  0  0  0
    3.5599   -2.6502   -4.1873 H   0  0  0  0  0  0  0  0  0  0  0  0
    3.3595   -0.2669   -2.3735 H   0  0  0  0  0  0  0  0  0  0  0  0
    2.3534   -0.5723   -3.7866 H   0  0  0  0  0  0  0  0  0  0  0  0
    4.0573   -0.2460   -4.0023 H   0  0  0  0  0  0  0  0  0  0  0  0
    0.7694   -1.0213    1.9051 H   0  0  0  0  0  0  0  0  0  0  0  0
    2.3707   -0.8194    1.2113 H   0  0  0  0  0  0  0  0  0  0  0  0
    2.2018   -0.9724    2.9500 H   0  0  0  0  0  0  0  0  0  0  0  0
    4.4480   -2.0461    3.2526 H   0  0  0  0  0  0  0  0  0  0  0  0
    3.4011   -2.9885    3.9990 H   0  0  0  0  0  0  0  0  0  0  0  0
    5.2774   -4.1512    4.6966 H   0  0  0  0  0  0  0  0  0  0  0  0
    6.1828   -3.6800    3.3152 H   0  0  0  0  0  0  0  0  0  0  0  0
  1  2  1  0
  1 33  1  0
  1 34  1  0
  1 35  1  0
  2  3  1  0
  2 36  1  0
  2 37  1  0
 13  3  1  6
  3  4  1  1
  3  5  1  0
  4 38  1  0
  5  6  2  0
  5  7  1  0
  8  7  1  1
  8 12  1  0
  8 32  1  0
  8  9  1  0
  9 10  1  0
  9 39  1  0
  9 40  1  0
 10 11  1  0
 10 41  1  0
 10 42  1  0
 11 22  1  0
 11 12  1  0
 11 43  1  6
 12 13  1  0
 12 44  1  1
 13 28  1  0
 13 14  1  0
 14 22  1  0
 14 15  1  0
 14 45  1  1
 15 16  1  0
 15 17  1  0
 15 46  1  1
 16 47  1  0
 16 48  1  0
 16 49  1  0
 17 18  1  0
 17 50  1  0
 17 51  1  0
 18 19  1  0
 18 52  1  0
 18 53  1  0
 19 26  1  0
 19 20  1  0
 19 54  1  6
 20 21  1  0
 20 55  1  0
 20 56  1  0
 22 21  1  6
 22 23  1  0
 23 24  1  0
 23 28  1  0
 23 57  1  1
 24 25  1  0
 24 58  1  0
 24 59  1  0
 25 26  1  0
 25 60  1  0
 25 61  1  0
 26 27  1  0
 26 62  1  6
 27 63  1  0
 27 64  1  0
 27 65  1  0
 28 29  1  6
 28 31  1  0
 29 30  1  0
 30 66  1  0
 30 67  1  0
 30 68  1  0
 31 32  1  0
 31 69  1  0
 31 70  1  0
 32 71  1  0
 32 72  1  0
M  END
>  <i_m_ct_stereo_status>  (281) 
1

>  <s_m_source_file>  (281) 
/var/tmp/pbs.5076255.sched01/tmppy4q9rbr/123plv7d954.sdf

>  <i_m_source_file_index>  (281) 
4

>  <i_lp_mmshare_version>  (281) 
48012

>  <i_f3d_flags>  (281) 
0

>  <s_epik_input>  (281) 
W0NIM11bQ0gyXVtDQEBdKFtPSF0pKEMoPU8pTzEpQzIoW0NAQEhdM1tDQEBdMTQ1KVtDSF02W0NAQF03KFtDQEhdM1tDSDJdW0NIMl00KVtDQEBIXShbQ0BdMihPW0NIM10pW0NIMl1bQ0gyXTUpW0NIMl1bQ0gyXVtDQEBIXShbQ0gzXSlbQ0BIXShbQ0gyXU83KVtDSDJdW0NIMl1bQ0BASF02W0NIM10=

>  <s_epik_cmdline>  (281) 
J2VwaWtfcHl0aG9uJywgJy1waHQnLCAnMi4wJywgJy1waCcsICc3LjAnLCAnLXRuJywgJzgnLCAnLW1hJywgJzIwMCcsICctaW1hZScsICc8aW5maWxlLm1hZT4nLCAnLW9tYWUnLCAnPG91dGZpbGUubWFlPic=

>  <r_lp_tautomer_probability>  (281) 
1

>  <r_epik_Ionization_Penalty>  (281) 
4.6534e-08

>  <r_epik_Ionization_Penalty_Charging>  (281) 
0

>  <r_epik_Ionization_Penalty_Neutral>  (281) 
4.6534e-08

>  <r_epik_State_Penalty>  (281) 
-0

>  <r_epik_Charging_Adjusted_Penalty>  (281) 
0

>  <i_epik_Tot_Q>  (281) 
0

>  <i_epik_Tot_abs_Q>  (281) 
0

>  <s_epik_Chemistry_Notes>  (281) 
This compound has an ester and may undergo hydrolysis at high or low pH.

>  <s_lp_Force_Field>  (281) 
OPLS3e

>  <r_lp_Energy>  (281) 
511.683

>  <b_lp_Chiralities_Consistent>  (281) 
1

>  <s_lp_Variant>  (281) 
95:0-1

>  <s_i_glide_gridfile>  (281) 
pfpi4k_grid

>  <i_i_glide_lignum>  (281) 
4

>  <i_i_glide_rotatable_bonds>  (281) 
3

>  <r_i_docking_score>  (281) 
-2.62425

>  <r_i_glide_ligand_efficiency>  (281) 
-0.0820078

>  <r_i_glide_ligand_efficiency_sa>  (281) 
-0.260359

>  <r_i_glide_ligand_efficiency_ln>  (281) 
-0.587641

>  <r_i_glide_gscore>  (281) 
-2.62425

>  <r_i_glide_lipo>  (281) 
-0.877636

>  <r_i_glide_hbond>  (281) 
0

>  <r_i_glide_metal>  (281) 
-0

>  <r_i_glide_rewards>  (281) 
-0.877703

>  <r_i_glide_evdw>  (281) 
-16.9587

>  <r_i_glide_ecoul>  (281) 
-0.139826

>  <r_i_glide_erotb>  (281) 
0

>  <r_i_glide_esite>  (281) 
0

>  <r_i_glide_emodel>  (281) 
-20.7567

>  <r_i_glide_energy>  (281) 
-17.0986

>  <r_i_glide_einternal>  (281) 
1.50862

>  <r_i_glide_intrahb_reward>  (281) 
-0.5

>  <i_i_glide_confnum>  (281) 
2

>  <i_i_glide_posenum>  (281) 
33

>  <r_i_glide_eff_state_penalty>  (281) 
0

>  <ligand_id>  (281) 
95

>  <original_smiles>  (281) 
CCC1(O)C(=O)OC23CCC4C2C12C1C(C)CCC5COC41C(CCC5C)C2(OC)CC3

>  <smiles>  (281) 
[H]OC1(C([H])([H])C([H])([H])[H])C(=O)OC23C([H])([H])C([H])([H])C4([H])C2([H])C12C1([H])C([H])(C([H])([H])[H])C([H])([H])C([H])([H])C5([H])C([H])([H])OC41C([H])(C([H])([H])C([H])([H])C5([H])C([H])([H])[H])C2(OC([H])([H])[H])C([H])([H])C3([H])[H]

$$$$
95:0:1
     RDKit          3D

 72 78  0  0  1  0  0  0  0  0999 V2000
    0.9028   -6.8985    3.4498 C   0  0  0  0  0  0  0  0  0  0  0  0
    1.9731   -6.3251    2.4548 C   0  0  0  0  0  0  0  0  0  0  0  0
    2.9404   -5.1340    2.8951 C   0  0  1  0  0  0  0  0  0  0  0  0
    1.8999   -4.3752    3.5200 O   0  0  0  0  0  0  0  0  0  0  0  0
    3.8311   -5.6913    4.0697 C   0  0  0  0  0  0  0  0  0  0  0  0
    3.3905   -5.9805    5.1481 O   0  0  0  0  0  0  0  0  0  0  0  0
    5.1446   -5.7744    3.7612 O   0  0  0  0  0  0  0  0  0  0  0  0
    5.6157   -4.9882    2.6971 C   0  0  1  0  0  0  0  0  0  0  0  0
    6.9950   -5.4404    2.1487 C   0  0  0  0  0  0  0  0  0  0  0  0
    6.8727   -5.7118    0.6008 C   0  0  0  0  0  0  0  0  0  0  0  0
    5.3791   -5.5366    0.1016 C   0  0  1  0  0  0  0  0  0  0  0  0
    4.7672   -5.4506    1.4811 C   0  0  2  0  0  0  0  0  0  0  0  0
    3.6371   -4.4755    1.5047 C   0  0  1  0  0  0  0  0  0  0  0  0
    4.9727   -3.5110    0.6128 C   0  0  2  0  0  0  0  0  0  0  0  0
    5.4612   -1.9194    0.3668 C   0  0  1  0  0  0  0  0  0  0  0  0
    7.0257   -1.7603    0.3043 C   0  0  0  0  0  0  0  0  0  0  0  0
    4.8874   -0.9873   -0.7190 C   0  0  0  0  0  0  0  0  0  0  0  0
    5.3285   -1.1305   -2.1835 C   0  0  0  0  0  0  0  0  0  0  0  0
    4.8492   -2.2648   -3.1218 C   0  0  1  0  0  0  0  0  0  0  0  0
    5.4897   -3.6329   -2.8414 C   0  0  0  0  0  0  0  0  0  0  0  0
    5.8220   -3.7304   -1.4943 O   0  0  0  0  0  0  0  0  0  0  0  0
    4.8401   -4.2195   -0.5725 C   0  0  1  0  0  0  0  0  0  0  0  0
    3.3852   -3.6464   -0.2941 C   0  0  2  0  0  0  0  0  0  0  0  0
    2.4894   -2.9193   -1.3338 C   0  0  0  0  0  0  0  0  0  0  0  0
    2.5014   -3.2362   -2.8119 C   0  0  0  0  0  0  0  0  0  0  0  0
    3.4069   -2.3128   -3.6249 C   0  0  1  0  0  0  0  0  0  0  0  0
    2.8442   -0.9132   -3.9089 C   0  0  0  0  0  0  0  0  0  0  0  0
    3.2338   -3.1079    1.3078 C   0  0  1  0  0  0  0  0  0  0  0  0
    1.8620   -2.7857    1.4672 O   0  0  0  0  0  0  0  0  0  0  0  0
    1.5513   -1.4508    1.8076 C   0  0  0  0  0  0  0  0  0  0  0  0
    4.0641   -2.6402    2.7323 C   0  0  0  0  0  0  0  0  0  0  0  0
    5.3999   -3.4561    3.2130 C   0  0  0  0  0  0  0  0  0  0  0  0
    0.3979   -7.7800    3.0415 H   0  0  0  0  0  0  0  0  0  0  0  0
    0.1079   -6.1755    3.6649 H   0  0  0  0  0  0  0  0  0  0  0  0
    1.3165   -7.2196    4.4063 H   0  0  0  0  0  0  0  0  0  0  0  0
    2.5698   -7.1902    2.1450 H   0  0  0  0  0  0  0  0  0  0  0  0
    1.4609   -6.0130    1.5423 H   0  0  0  0  0  0  0  0  0  0  0  0
    1.5128   -4.9478    4.1751 H   0  0  0  0  0  0  0  0  0  0  0  0
    7.7583   -4.6835    2.3222 H   0  0  0  0  0  0  0  0  0  0  0  0
    7.3063   -6.3537    2.6501 H   0  0  0  0  0  0  0  0  0  0  0  0
    7.5444   -5.0434    0.0503 H   0  0  0  0  0  0  0  0  0  0  0  0
    7.2083   -6.7378    0.4545 H   0  0  0  0  0  0  0  0  0  0  0  0
    5.0073   -6.3990   -0.4595 H   0  0  0  0  0  0  0  0  0  0  0  0
    4.4478   -6.4726    1.6123 H   0  0  0  0  0  0  0  0  0  0  0  0
    5.9921   -3.5988    0.9329 H   0  0  0  0  0  0  0  0  0  0  0  0
    5.3068   -1.2981    1.2218 H   0  0  0  0  0  0  0  0  0  0  0  0
    7.4981   -2.3029   -0.5207 H   0  0  0  0  0  0  0  0  0  0  0  0
    7.5019   -2.1075    1.2274 H   0  0  0  0  0  0  0  0  0  0  0  0
    7.3049   -0.7031    0.2112 H   0  0  0  0  0  0  0  0  0  0  0  0
    3.8808   -0.6799   -0.5531 H   0  0  0  0  0  0  0  0  0  0  0  0
    5.3066   -0.0305   -0.4388 H   0  0  0  0  0  0  0  0  0  0  0  0
    5.0994   -0.1884   -2.6663 H   0  0  0  0  0  0  0  0  0  0  0  0
    6.3985   -1.2464   -2.2037 H   0  0  0  0  0  0  0  0  0  0  0  0
    5.3269   -1.9213   -4.0062 H   0  0  0  0  0  0  0  0  0  0  0  0
    4.9224   -4.4954   -3.2043 H   0  0  0  0  0  0  0  0  0  0  0  0
    6.4366   -3.6623   -3.3731 H   0  0  0  0  0  0  0  0  0  0  0  0
    2.8032   -4.5849   -0.4430 H   0  0  0  0  0  0  0  0  0  0  0  0
    1.4730   -3.1212   -1.0163 H   0  0  0  0  0  0  0  0  0  0  0  0
    2.6114   -1.8485   -1.3145 H   0  0  0  0  0  0  0  0  0  0  0  0
    2.7731   -4.2517   -3.0332 H   0  0  0  0  0  0  0  0  0  0  0  0
    1.5037   -3.1167   -3.2063 H   0  0  0  0  0  0  0  0  0  0  0  0
    3.4474   -2.7835   -4.6106 H   0  0  0  0  0  0  0  0  0  0  0  0
    2.6861   -0.3269   -3.0001 H   0  0  0  0  0  0  0  0  0  0  0  0
    1.9122   -1.0301   -4.4490 H   0  0  0  0  0  0  0  0  0  0  0  0
    3.4960   -0.3270   -4.5707 H   0  0  0  0  0  0  0  0  0  0  0  0
    0.4860   -1.3040    1.6846 H   0  0  0  0  0  0  0  0  0  0  0  0
    2.0633   -0.7365    1.1679 H   0  0  0  0  0  0  0  0  0  0  0  0
    1.7638   -1.2370    2.8522 H   0  0  0  0  0  0  0  0  0  0  0  0
    4.2234   -1.5724    2.7777 H   0  0  0  0  0  0  0  0  0  0  0  0
    3.4182   -2.6595    3.5908 H   0  0  0  0  0  0  0  0  0  0  0  0
    5.4311   -3.4096    4.2943 H   0  0  0  0  0  0  0  0  0  0  0  0
    6.2174   -2.8134    2.8884 H   0  0  0  0  0  0  0  0  0  0  0  0
  1  2  1  0
  1 33  1  0
  1 34  1  0
  1 35  1  0
  2  3  1  0
  2 36  1  0
  2 37  1  0
 13  3  1  6
  3  4  1  1
  3  5  1  0
  4 38  1  0
  5  6  2  0
  5  7  1  0
  8  7  1  1
  8 12  1  0
  8 32  1  0
  8  9  1  0
  9 10  1  0
  9 39  1  0
  9 40  1  0
 10 11  1  0
 10 41  1  0
 10 42  1  0
 11 22  1  0
 11 12  1  0
 11 43  1  6
 12 13  1  0
 12 44  1  1
 13 28  1  0
 13 14  1  0
 14 22  1  0
 14 15  1  0
 14 45  1  1
 15 16  1  0
 15 17  1  0
 15 46  1  1
 16 47  1  0
 16 48  1  0
 16 49  1  0
 17 18  1  0
 17 50  1  0
 17 51  1  0
 18 19  1  0
 18 52  1  0
 18 53  1  0
 19 26  1  0
 19 20  1  0
 19 54  1  6
 20 21  1  0
 20 55  1  0
 20 56  1  0
 22 21  1  6
 22 23  1  0
 23 24  1  0
 23 28  1  0
 23 57  1  1
 24 25  1  0
 24 58  1  0
 24 59  1  0
 25 26  1  0
 25 60  1  0
 25 61  1  0
 26 27  1  0
 26 62  1  6
 27 63  1  0
 27 64  1  0
 27 65  1  0
 28 29  1  1
 28 31  1  0
 29 30  1  0
 30 66  1  0
 30 67  1  0
 30 68  1  0
 31 32  1  0
 31 69  1  0
 31 70  1  0
 32 71  1  0
 32 72  1  0
M  END
>  <i_m_ct_stereo_status>  (282) 
1

>  <s_m_source_file>  (282) 
/var/tmp/pbs.5076255.sched01/tmppy4q9rbr/123plv7d954.sdf

>  <i_m_source_file_index>  (282) 
4

>  <i_lp_mmshare_version>  (282) 
48012

>  <i_f3d_flags>  (282) 
0

>  <s_epik_input>  (282) 
W0NIM11bQ0gyXVtDQEBdKFtPSF0pKEMoPU8pTzEpQzIoW0NAQEhdM1tDQEBdMTQ1KVtDSF02W0NAQF03KFtDQEhdM1tDSDJdW0NIMl00KVtDQEBIXShbQ0BdMihPW0NIM10pW0NIMl1bQ0gyXTUpW0NIMl1bQ0gyXVtDQEBIXShbQ0gzXSlbQ0BIXShbQ0gyXU83KVtDSDJdW0NIMl1bQ0BASF02W0NIM10=

>  <s_epik_cmdline>  (282) 
J2VwaWtfcHl0aG9uJywgJy1waHQnLCAnMi4wJywgJy1waCcsICc3LjAnLCAnLXRuJywgJzgnLCAnLW1hJywgJzIwMCcsICctaW1hZScsICc8aW5maWxlLm1hZT4nLCAnLW9tYWUnLCAnPG91dGZpbGUubWFlPic=

>  <r_lp_tautomer_probability>  (282) 
1

>  <r_epik_Ionization_Penalty>  (282) 
4.6534e-08

>  <r_epik_Ionization_Penalty_Charging>  (282) 
0

>  <r_epik_Ionization_Penalty_Neutral>  (282) 
4.6534e-08

>  <r_epik_State_Penalty>  (282) 
-0

>  <r_epik_Charging_Adjusted_Penalty>  (282) 
0

>  <i_epik_Tot_Q>  (282) 
0

>  <i_epik_Tot_abs_Q>  (282) 
0

>  <s_epik_Chemistry_Notes>  (282) 
This compound has an ester and may undergo hydrolysis at high or low pH.

>  <s_lp_Force_Field>  (282) 
OPLS3e

>  <r_lp_Energy>  (282) 
511.683

>  <b_lp_Chiralities_Consistent>  (282) 
1

>  <s_lp_Variant>  (282) 
95:0-1

>  <s_i_glide_gridfile>  (282) 
pfpi4k_grid

>  <i_i_glide_lignum>  (282) 
4

>  <i_i_glide_rotatable_bonds>  (282) 
3

>  <r_i_docking_score>  (282) 
-1.99321

>  <r_i_glide_ligand_efficiency>  (282) 
-0.0622877

>  <r_i_glide_ligand_efficiency_sa>  (282) 
-0.197751

>  <r_i_glide_ligand_efficiency_ln>  (282) 
-0.446333

>  <r_i_glide_gscore>  (282) 
-1.99321

>  <r_i_glide_lipo>  (282) 
-1.10894

>  <r_i_glide_hbond>  (282) 
0

>  <r_i_glide_metal>  (282) 
-0

>  <r_i_glide_rewards>  (282) 
-0.377703

>  <r_i_glide_evdw>  (282) 
-14.0419

>  <r_i_glide_ecoul>  (282) 
1.30356

>  <r_i_glide_erotb>  (282) 
0

>  <r_i_glide_esite>  (282) 
0

>  <r_i_glide_emodel>  (282) 
-9.72255

>  <r_i_glide_energy>  (282) 
-12.7384

>  <r_i_glide_einternal>  (282) 
5.291

>  <r_i_glide_intrahb_reward>  (282) 
-0

>  <i_i_glide_confnum>  (282) 
2

>  <i_i_glide_posenum>  (282) 
5

>  <r_i_glide_eff_state_penalty>  (282) 
0

>  <ligand_id>  (282) 
95

>  <original_smiles>  (282) 
CCC1(O)C(=O)OC23CCC4C2C12C1C(C)CCC5COC41C(CCC5C)C2(OC)CC3

>  <smiles>  (282) 
[H]OC1(C([H])([H])C([H])([H])[H])C(=O)OC23C([H])([H])C([H])([H])C4([H])C2([H])C12C1([H])C([H])(C([H])([H])[H])C([H])([H])C([H])([H])C5([H])C([H])([H])OC41C([H])(C([H])([H])C([H])([H])C5([H])C([H])([H])[H])C2(OC([H])([H])[H])C([H])([H])C3([H])[H]

$$$$
95:0:2
     RDKit          3D

 72 78  0  0  1  0  0  0  0  0999 V2000
    0.2255   -6.6901    3.6670 C   0  0  0  0  0  0  0  0  0  0  0  0
    1.4064   -6.2873    2.7104 C   0  0  0  0  0  0  0  0  0  0  0  0
    2.5437   -5.3163    3.2285 C   0  0  1  0  0  0  0  0  0  0  0  0
    1.6798   -4.4107    3.8804 O   0  0  0  0  0  0  0  0  0  0  0  0
    3.3396   -6.0782    4.3555 C   0  0  0  0  0  0  0  0  0  0  0  0
    2.8370   -6.3753    5.4359 O   0  0  0  0  0  0  0  0  0  0  0  0
    4.6082   -6.4134    4.0254 O   0  0  0  0  0  0  0  0  0  0  0  0
    5.2135   -5.6600    3.0122 C   0  0  1  0  0  0  0  0  0  0  0  0
    6.4922   -6.3129    2.4516 C   0  0  0  0  0  0  0  0  0  0  0  0
    6.3218   -6.4785    0.8907 C   0  0  0  0  0  0  0  0  0  0  0  0
    4.8994   -5.9957    0.4039 C   0  0  1  0  0  0  0  0  0  0  0  0
    4.2873   -5.8753    1.7778 C   0  0  2  0  0  0  0  0  0  0  0  0
    3.3805   -4.7093    1.8791 C   0  0  1  0  0  0  0  0  0  0  0  0
    4.8706   -3.9621    1.0470 C   0  0  2  0  0  0  0  0  0  0  0  0
    5.6667   -2.4857    0.8494 C   0  0  1  0  0  0  0  0  0  0  0  0
    7.2257   -2.6370    0.7635 C   0  0  0  0  0  0  0  0  0  0  0  0
    5.3119   -1.3925   -0.2108 C   0  0  0  0  0  0  0  0  0  0  0  0
    5.7535   -1.5483   -1.6935 C   0  0  0  0  0  0  0  0  0  0  0  0
    5.0500   -2.5124   -2.6782 C   0  0  1  0  0  0  0  0  0  0  0  0
    5.3742   -3.9725   -2.4389 C   0  0  0  0  0  0  0  0  0  0  0  0
    5.6757   -4.1990   -1.0897 O   0  0  0  0  0  0  0  0  0  0  0  0
    4.6456   -4.5666   -0.1971 C   0  0  1  0  0  0  0  0  0  0  0  0
    3.3429   -3.7337    0.1268 C   0  0  2  0  0  0  0  0  0  0  0  0
    2.6018   -2.7945   -0.8581 C   0  0  0  0  0  0  0  0  0  0  0  0
    2.5620   -3.0271   -2.3534 C   0  0  0  0  0  0  0  0  0  0  0  0
    3.6152   -2.2564   -3.1500 C   0  0  1  0  0  0  0  0  0  0  0  0
    3.3052   -0.7629   -3.3115 C   0  0  0  0  0  0  0  0  0  0  0  0
    3.2280   -3.2900    1.7578 C   0  0  1  0  0  0  0  0  0  0  0  0
    1.9235   -2.7523    1.9094 O   0  0  0  0  0  0  0  0  0  0  0  0
    1.8306   -1.3410    2.0307 C   0  0  0  0  0  0  0  0  0  0  0  0
    4.1130   -3.0692    3.1860 C   0  0  0  0  0  0  0  0  0  0  0  0
    5.2540   -4.1400    3.6261 C   0  0  0  0  0  0  0  0  0  0  0  0
   -0.4311   -7.4463    3.2278 H   0  0  0  0  0  0  0  0  0  0  0  0
   -0.4091   -5.8412    3.9263 H   0  0  0  0  0  0  0  0  0  0  0  0
    0.5497   -7.1165    4.6168 H   0  0  0  0  0  0  0  0  0  0  0  0
    1.8334   -7.2315    2.3697 H   0  0  0  0  0  0  0  0  0  0  0  0
    0.9771   -5.8387    1.8117 H   0  0  0  0  0  0  0  0  0  0  0  0
    2.1867   -3.6826    4.1817 H   0  0  0  0  0  0  0  0  0  0  0  0
    7.3818   -5.7348    2.6880 H   0  0  0  0  0  0  0  0  0  0  0  0
    6.6352   -7.3006    2.8930 H   0  0  0  0  0  0  0  0  0  0  0  0
    7.1186   -5.9727    0.3353 H   0  0  0  0  0  0  0  0  0  0  0  0
    6.3973   -7.5505    0.7266 H   0  0  0  0  0  0  0  0  0  0  0  0
    4.4030   -6.7446   -0.2152 H   0  0  0  0  0  0  0  0  0  0  0  0
    3.8052   -6.8435    1.8546 H   0  0  0  0  0  0  0  0  0  0  0  0
    5.8523   -4.2724    1.3346 H   0  0  0  0  0  0  0  0  0  0  0  0
    5.6407   -1.8943    1.7431 H   0  0  0  0  0  0  0  0  0  0  0  0
    7.5768   -3.1738   -0.1212 H   0  0  0  0  0  0  0  0  0  0  0  0
    7.6238   -3.1960    1.6092 H   0  0  0  0  0  0  0  0  0  0  0  0
    7.7218   -1.6616    0.7583 H   0  0  0  0  0  0  0  0  0  0  0  0
    4.3326   -0.9769   -0.0795 H   0  0  0  0  0  0  0  0  0  0  0  0
    5.8849   -0.5194    0.1114 H   0  0  0  0  0  0  0  0  0  0  0  0
    5.7090   -0.5543   -2.1321 H   0  0  0  0  0  0  0  0  0  0  0  0
    6.8070   -1.8300   -1.7229 H   0  0  0  0  0  0  0  0  0  0  0  0
    5.5848   -2.3131   -3.5946 H   0  0  0  0  0  0  0  0  0  0  0  0
    4.6478   -4.6592   -2.8525 H   0  0  0  0  0  0  0  0  0  0  0  0
    6.2976   -4.1593   -2.9733 H   0  0  0  0  0  0  0  0  0  0  0  0
    2.6137   -4.5379   -0.0907 H   0  0  0  0  0  0  0  0  0  0  0  0
    1.5805   -3.0256   -0.5780 H   0  0  0  0  0  0  0  0  0  0  0  0
    2.6687   -1.7400   -0.6795 H   0  0  0  0  0  0  0  0  0  0  0  0
    2.5874   -4.0874   -2.5487 H   0  0  0  0  0  0  0  0  0  0  0  0
    1.5852   -2.7157   -2.7227 H   0  0  0  0  0  0  0  0  0  0  0  0
    3.5449   -2.6724   -4.1563 H   0  0  0  0  0  0  0  0  0  0  0  0
    3.3230   -0.2712   -2.3414 H   0  0  0  0  0  0  0  0  0  0  0  0
    2.3244   -0.6028   -3.7536 H   0  0  0  0  0  0  0  0  0  0  0  0
    4.0248   -0.2616   -3.9604 H   0  0  0  0  0  0  0  0  0  0  0  0
    0.7833   -1.0590    1.9502 H   0  0  0  0  0  0  0  0  0  0  0  0
    2.3692   -0.8139    1.2506 H   0  0  0  0  0  0  0  0  0  0  0  0
    2.2064   -0.9964    2.9902 H   0  0  0  0  0  0  0  0  0  0  0  0
    4.4788   -2.0598    3.2753 H   0  0  0  0  0  0  0  0  0  0  0  0
    3.4549   -2.9650    4.0350 H   0  0  0  0  0  0  0  0  0  0  0  0
    5.3127   -4.1703    4.7030 H   0  0  0  0  0  0  0  0  0  0  0  0
    6.1831   -3.6771    3.3134 H   0  0  0  0  0  0  0  0  0  0  0  0
  1  2  1  0
  1 33  1  0
  1 34  1  0
  1 35  1  0
  2  3  1  0
  2 36  1  0
  2 37  1  0
 13  3  1  6
  3  4  1  1
  3  5  1  0
  4 38  1  0
  5  6  2  0
  5  7  1  0
  8  7  1  1
  8 12  1  0
  8 32  1  0
  8  9  1  0
  9 10  1  0
  9 39  1  0
  9 40  1  0
 10 11  1  0
 10 41  1  0
 10 42  1  0
 11 22  1  0
 11 12  1  0
 11 43  1  6
 12 13  1  0
 12 44  1  1
 13 28  1  0
 13 14  1  0
 14 22  1  0
 14 15  1  0
 14 45  1  1
 15 16  1  0
 15 17  1  0
 15 46  1  1
 16 47  1  0
 16 48  1  0
 16 49  1  0
 17 18  1  0
 17 50  1  0
 17 51  1  0
 18 19  1  0
 18 52  1  0
 18 53  1  0
 19 26  1  0
 19 20  1  0
 19 54  1  6
 20 21  1  0
 20 55  1  0
 20 56  1  0
 22 21  1  6
 22 23  1  0
 23 24  1  0
 23 28  1  0
 23 57  1  1
 24 25  1  0
 24 58  1  0
 24 59  1  0
 25 26  1  0
 25 60  1  0
 25 61  1  0
 26 27  1  0
 26 62  1  6
 27 63  1  0
 27 64  1  0
 27 65  1  0
 28 29  1  6
 28 31  1  0
 29 30  1  0
 30 66  1  0
 30 67  1  0
 30 68  1  0
 31 32  1  0
 31 69  1  0
 31 70  1  0
 32 71  1  0
 32 72  1  0
M  END
>  <i_m_ct_stereo_status>  (283) 
1

>  <s_m_source_file>  (283) 
/var/tmp/pbs.5076255.sched01/tmppy4q9rbr/123plv7d954.sdf

>  <i_m_source_file_index>  (283) 
4

>  <i_lp_mmshare_version>  (283) 
48012

>  <i_f3d_flags>  (283) 
0

>  <s_epik_input>  (283) 
W0NIM11bQ0gyXVtDQEBdKFtPSF0pKEMoPU8pTzEpQzIoW0NAQEhdM1tDQEBdMTQ1KVtDSF02W0NAQF03KFtDQEhdM1tDSDJdW0NIMl00KVtDQEBIXShbQ0BdMihPW0NIM10pW0NIMl1bQ0gyXTUpW0NIMl1bQ0gyXVtDQEBIXShbQ0gzXSlbQ0BIXShbQ0gyXU83KVtDSDJdW0NIMl1bQ0BASF02W0NIM10=

>  <s_epik_cmdline>  (283) 
J2VwaWtfcHl0aG9uJywgJy1waHQnLCAnMi4wJywgJy1waCcsICc3LjAnLCAnLXRuJywgJzgnLCAnLW1hJywgJzIwMCcsICctaW1hZScsICc8aW5maWxlLm1hZT4nLCAnLW9tYWUnLCAnPG91dGZpbGUubWFlPic=

>  <r_lp_tautomer_probability>  (283) 
1

>  <r_epik_Ionization_Penalty>  (283) 
4.6534e-08

>  <r_epik_Ionization_Penalty_Charging>  (283) 
0

>  <r_epik_Ionization_Penalty_Neutral>  (283) 
4.6534e-08

>  <r_epik_State_Penalty>  (283) 
-0

>  <r_epik_Charging_Adjusted_Penalty>  (283) 
0

>  <i_epik_Tot_Q>  (283) 
0

>  <i_epik_Tot_abs_Q>  (283) 
0

>  <s_epik_Chemistry_Notes>  (283) 
This compound has an ester and may undergo hydrolysis at high or low pH.

>  <s_lp_Force_Field>  (283) 
OPLS3e

>  <r_lp_Energy>  (283) 
511.683

>  <b_lp_Chiralities_Consistent>  (283) 
1

>  <s_lp_Variant>  (283) 
95:0-1

>  <s_i_glide_gridfile>  (283) 
pfpi4k_grid

>  <i_i_glide_lignum>  (283) 
4

>  <i_i_glide_rotatable_bonds>  (283) 
3

>  <r_i_docking_score>  (283) 
-1.89337

>  <r_i_glide_ligand_efficiency>  (283) 
-0.0591678

>  <r_i_glide_ligand_efficiency_sa>  (283) 
-0.187846

>  <r_i_glide_ligand_efficiency_ln>  (283) 
-0.423977

>  <r_i_glide_gscore>  (283) 
-1.89337

>  <r_i_glide_lipo>  (283) 
-0.864607

>  <r_i_glide_hbond>  (283) 
0

>  <r_i_glide_metal>  (283) 
-0

>  <r_i_glide_rewards>  (283) 
-0.377703

>  <r_i_glide_evdw>  (283) 
-17.3483

>  <r_i_glide_ecoul>  (283) 
1.44237

>  <r_i_glide_erotb>  (283) 
0

>  <r_i_glide_esite>  (283) 
0

>  <r_i_glide_emodel>  (283) 
-13.4776

>  <r_i_glide_energy>  (283) 
-15.9059

>  <r_i_glide_einternal>  (283) 
4.24381

>  <r_i_glide_intrahb_reward>  (283) 
-0

>  <i_i_glide_confnum>  (283) 
1

>  <i_i_glide_posenum>  (283) 
36

>  <r_i_glide_eff_state_penalty>  (283) 
0

>  <ligand_id>  (283) 
95

>  <original_smiles>  (283) 
CCC1(O)C(=O)OC23CCC4C2C12C1C(C)CCC5COC41C(CCC5C)C2(OC)CC3

>  <smiles>  (283) 
[H]OC1(C([H])([H])C([H])([H])[H])C(=O)OC23C([H])([H])C([H])([H])C4([H])C2([H])C12C1([H])C([H])(C([H])([H])[H])C([H])([H])C([H])([H])C5([H])C([H])([H])OC41C([H])(C([H])([H])C([H])([H])C5([H])C([H])([H])[H])C2(OC([H])([H])[H])C([H])([H])C3([H])[H]

$$$$
97:0:0
     RDKit          3D

 88 94  0  0  1  0  0  0  0  0999 V2000
    3.4936   -3.0416   -3.2679 C   0  0  0  0  0  0  0  0  0  0  0  0
    3.9956   -3.1372   -2.0407 C   0  0  0  0  0  0  0  0  0  0  0  0
    5.3893   -3.6740   -1.7644 C   0  0  0  0  0  0  0  0  0  0  0  0
    5.2066   -5.0270   -1.1008 C   0  0  2  0  0  0  0  0  0  0  0  0
    4.1517   -5.0753   -0.0369 C   0  0  0  0  0  0  0  0  0  0  0  0
    4.6905   -6.1287    0.5373 C   0  0  0  0  0  0  0  0  0  0  0  0
    6.0292   -5.5571    0.0829 C   0  0  2  0  0  0  0  0  0  0  0  0
    6.6190   -4.5412    1.1244 C   0  0  0  0  0  0  0  0  0  0  0  0
    5.7542   -3.3443    1.7321 C   0  0  0  0  0  0  0  0  0  0  0  0
    4.5099   -3.5891    2.7098 C   0  0  1  0  0  0  0  0  0  0  0  0
    4.8817   -4.9218    3.4477 C   0  0  0  0  0  0  0  0  0  0  0  0
    4.5281   -2.4699    3.9056 C   0  0  2  0  0  0  0  0  0  0  0  0
    4.4756   -2.9091    5.4462 C   0  0  1  0  0  0  0  0  0  0  0  0
    5.9012   -3.0019    6.0628 C   0  0  0  0  0  0  0  0  0  0  0  0
    3.6191   -2.0825    6.4477 C   0  0  0  0  0  0  0  0  0  0  0  0
    2.1418   -2.4952    6.6446 C   0  0  0  0  0  0  0  0  0  0  0  0
    1.0882   -2.1750    5.5697 C   0  0  2  0  0  0  0  0  0  0  0  0
    1.0574   -2.9893    4.3134 C   0  0  2  0  0  0  0  0  0  0  0  0
    2.0648   -3.9705    4.0903 O   0  0  0  0  0  0  0  0  0  0  0  0
    2.0708   -4.4788    2.7540 C   0  0  0  0  0  0  0  0  0  0  0  0
    3.0912   -3.7139    1.8827 C   0  0  1  0  0  0  0  0  0  0  0  0
    2.3718   -2.5171    1.7824 O   0  0  0  0  0  0  0  0  0  0  0  0
    3.0884   -4.0772    0.2878 C   0  0  2  0  0  0  0  0  0  0  0  0
    1.9176   -4.7744   -0.0887 O   0  0  0  0  0  0  0  0  0  0  0  0
    3.2089   -2.8488   -0.7497 C   0  0  1  0  0  0  0  0  0  0  0  0
    3.7103   -1.6218   -0.2358 O   0  0  0  0  0  0  0  0  0  0  0  0
    1.3221   -1.4861    4.2097 C   0  0  1  0  0  0  0  0  0  0  0  0
    0.1378   -0.8580    3.6609 O   0  0  0  0  0  0  0  0  0  0  0  0
   -0.2575    0.4138    4.1645 C   0  0  2  0  0  0  0  0  0  0  0  0
   -1.3198    0.2915    5.0908 O   0  0  0  0  0  0  0  0  0  0  0  0
   -1.7057    1.5312    5.7050 C   0  0  1  0  0  0  0  0  0  0  0  0
   -0.6117    2.0947    6.6666 C   0  0  0  0  0  0  0  0  0  0  0  0
   -0.4341    1.2858    7.8179 O   0  0  0  0  0  0  0  0  0  0  0  0
   -2.1603    2.5118    4.6043 C   0  0  1  0  0  0  0  0  0  0  0  0
   -2.5649    3.7391    5.1716 O   0  0  0  0  0  0  0  0  0  0  0  0
   -1.1037    2.7506    3.5232 C   0  0  1  0  0  0  0  0  0  0  0  0
   -0.0234    3.5301    4.0477 O   0  0  0  0  0  0  0  0  0  0  0  0
   -0.6150    1.3927    2.9968 C   0  0  1  0  0  0  0  0  0  0  0  0
    0.4930    1.5914    2.1291 O   0  0  0  0  0  0  0  0  0  0  0  0
    2.5658   -0.5818    4.0384 C   0  0  0  0  0  0  0  0  0  0  0  0
    3.9691   -1.0523    3.5746 C   0  0  1  0  0  0  0  0  0  0  0  0
    4.8615   -0.0632    4.0620 O   0  0  0  0  0  0  0  0  0  0  0  0
    2.4758   -2.6979   -3.4650 H   0  0  0  0  0  0  0  0  0  0  0  0
    4.0947   -3.3342   -4.1270 H   0  0  0  0  0  0  0  0  0  0  0  0
    5.9303   -3.7821   -2.7035 H   0  0  0  0  0  0  0  0  0  0  0  0
    5.9368   -2.9672   -1.1581 H   0  0  0  0  0  0  0  0  0  0  0  0
    5.0052   -5.7947   -1.8483 H   0  0  0  0  0  0  0  0  0  0  0  0
    4.4090   -6.7804    1.3631 H   0  0  0  0  0  0  0  0  0  0  0  0
    6.7692   -6.2510   -0.2350 H   0  0  0  0  0  0  0  0  0  0  0  0
    7.1005   -5.0772    1.9476 H   0  0  0  0  0  0  0  0  0  0  0  0
    7.4515   -4.0323    0.6421 H   0  0  0  0  0  0  0  0  0  0  0  0
    6.5217   -2.7623    2.2456 H   0  0  0  0  0  0  0  0  0  0  0  0
    5.4814   -2.6549    0.9455 H   0  0  0  0  0  0  0  0  0  0  0  0
    4.1113   -5.3088    4.1082 H   0  0  0  0  0  0  0  0  0  0  0  0
    5.8012   -4.8217    4.0174 H   0  0  0  0  0  0  0  0  0  0  0  0
    5.1146   -5.7631    2.8409 H   0  0  0  0  0  0  0  0  0  0  0  0
    5.5832   -2.2135    3.8912 H   0  0  0  0  0  0  0  0  0  0  0  0
    4.0529   -3.9007    5.5570 H   0  0  0  0  0  0  0  0  0  0  0  0
    6.3301   -2.0089    6.1950 H   0  0  0  0  0  0  0  0  0  0  0  0
    6.6060   -3.5699    5.4598 H   0  0  0  0  0  0  0  0  0  0  0  0
    5.8736   -3.4856    7.0389 H   0  0  0  0  0  0  0  0  0  0  0  0
    4.0511   -2.2502    7.4341 H   0  0  0  0  0  0  0  0  0  0  0  0
    3.7646   -1.0135    6.3377 H   0  0  0  0  0  0  0  0  0  0  0  0
    2.0859   -3.5592    6.8820 H   0  0  0  0  0  0  0  0  0  0  0  0
    1.8026   -2.0055    7.5557 H   0  0  0  0  0  0  0  0  0  0  0  0
    0.1068   -2.0026    6.0065 H   0  0  0  0  0  0  0  0  0  0  0  0
    0.0655   -3.3425    4.0449 H   0  0  0  0  0  0  0  0  0  0  0  0
    2.3497   -5.5253    2.7908 H   0  0  0  0  0  0  0  0  0  0  0  0
    1.0546   -4.4653    2.3594 H   0  0  0  0  0  0  0  0  0  0  0  0
    2.7929   -2.0210    1.0802 H   0  0  0  0  0  0  0  0  0  0  0  0
    2.0593   -5.0016   -1.0019 H   0  0  0  0  0  0  0  0  0  0  0  0
    2.2071   -2.6281   -1.1025 H   0  0  0  0  0  0  0  0  0  0  0  0
    3.0352   -0.9535   -0.3470 H   0  0  0  0  0  0  0  0  0  0  0  0
    0.5762    0.7857    4.7551 H   0  0  0  0  0  0  0  0  0  0  0  0
   -2.5772    1.3155    6.3056 H   0  0  0  0  0  0  0  0  0  0  0  0
    0.3561    2.2497    6.1716 H   0  0  0  0  0  0  0  0  0  0  0  0
   -0.9061    3.0652    7.0633 H   0  0  0  0  0  0  0  0  0  0  0  0
    0.3325    1.6095    8.3165 H   0  0  0  0  0  0  0  0  0  0  0  0
   -3.0194    2.1071    4.0825 H   0  0  0  0  0  0  0  0  0  0  0  0
   -1.7788    4.1236    5.5630 H   0  0  0  0  0  0  0  0  0  0  0  0
   -1.5738    3.2874    2.6933 H   0  0  0  0  0  0  0  0  0  0  0  0
    0.5998    3.7203    3.3278 H   0  0  0  0  0  0  0  0  0  0  0  0
   -1.4102    0.9560    2.3993 H   0  0  0  0  0  0  0  0  0  0  0  0
    0.2780    2.2707    1.4684 H   0  0  0  0  0  0  0  0  0  0  0  0
    2.2938    0.1651    3.3018 H   0  0  0  0  0  0  0  0  0  0  0  0
    2.6388    0.0186    4.9419 H   0  0  0  0  0  0  0  0  0  0  0  0
    4.0298   -0.9099    2.5011 H   0  0  0  0  0  0  0  0  0  0  0  0
    4.5287    0.7910    3.8050 H   0  0  0  0  0  0  0  0  0  0  0  0
  1  2  2  0
  1 43  1  0
  1 44  1  0
  2 25  1  0
  2  3  1  0
  3  4  1  0
  3 45  1  0
  3 46  1  0
  4  7  1  0
  4  5  1  0
  4 47  1  6
  5 23  1  0
  5  6  2  0
  6  7  1  0
  6 48  1  0
  7  8  1  0
  7 49  1  6
  8  9  1  0
  8 50  1  0
  8 51  1  0
  9 10  1  0
  9 52  1  0
  9 53  1  0
 10 21  1  0
 10 11  1  1
 10 12  1  0
 11 54  1  0
 11 55  1  0
 11 56  1  0
 12 41  1  0
 12 13  1  0
 12 57  1  1
 13 14  1  0
 13 15  1  0
 13 58  1  6
 14 59  1  0
 14 60  1  0
 14 61  1  0
 15 16  1  0
 15 62  1  0
 15 63  1  0
 16 17  1  0
 16 64  1  0
 16 65  1  0
 17 27  1  0
 17 18  1  0
 17 66  1  1
 18 19  1  0
 18 27  1  0
 18 67  1  6
 19 20  1  0
 20 21  1  0
 20 68  1  0
 20 69  1  0
 21 22  1  6
 21 23  1  0
 22 70  1  0
 23 24  1  6
 23 25  1  0
 24 71  1  0
 25 26  1  0
 25 72  1  6
 26 73  1  0
 27 28  1  6
 27 40  1  0
 28 29  1  0
 29 38  1  0
 29 30  1  0
 29 74  1  1
 30 31  1  0
 31 32  1  0
 31 34  1  0
 31 75  1  1
 32 33  1  0
 32 76  1  0
 32 77  1  0
 33 78  1  0
 34 35  1  0
 34 36  1  0
 34 79  1  6
 35 80  1  0
 36 37  1  0
 36 38  1  0
 36 81  1  6
 37 82  1  0
 38 39  1  0
 38 83  1  6
 39 84  1  0
 40 41  1  0
 40 85  1  0
 40 86  1  0
 41 42  1  0
 41 87  1  6
 42 88  1  0
M  END
>  <i_m_ct_stereo_status>  (284) 
1

>  <s_m_source_file>  (284) 
/var/tmp/pbs.5076255.sched01/tmppy4q9rbr/123plv7d954.sdf

>  <i_m_source_file_index>  (284) 
6

>  <i_lp_mmshare_version>  (284) 
48012

>  <i_f3d_flags>  (284) 
0

>  <s_epik_input>  (284) 
W09IXVtDQEhdMUMoPVtDSDJdKVtDSDJdW0NAQEhdKFtDQEhdKFtDSF0yKVtDSDJdW0NIMl0zKUM9MltDQEBdMShbT0hdKVtDQEBdNChbT0hdKVtDSDJdT1tDQEBIXShbQ0BIXTVbQ0gyXVtDSDJdW0NASF0oW0NIM10pW0NIXTZbQ0BdMzRbQ0gzXSlbQ0BAXTUoW0NIMl1bQ0BIXTZbT0hdKU9bQ0BASF03T1tDQEBIXShbQ0gyXVtPSF0pW0NAQEhdKFtPSF0pW0NAQEhdKFtPSF0pW0NASF03W09IXQ==

>  <s_epik_cmdline>  (284) 
J2VwaWtfcHl0aG9uJywgJy1waHQnLCAnMi4wJywgJy1waCcsICc3LjAnLCAnLXRuJywgJzgnLCAnLW1hJywgJzIwMCcsICctaW1hZScsICc8aW5maWxlLm1hZT4nLCAnLW9tYWUnLCAnPG91dGZpbGUubWFlPic=

>  <r_lp_tautomer_probability>  (284) 
1

>  <r_epik_Ionization_Penalty>  (284) 
3.63505e-06

>  <r_epik_Ionization_Penalty_Charging>  (284) 
0

>  <r_epik_Ionization_Penalty_Neutral>  (284) 
3.63505e-06

>  <r_epik_State_Penalty>  (284) 
-0

>  <r_epik_Charging_Adjusted_Penalty>  (284) 
0

>  <i_epik_Tot_Q>  (284) 
0

>  <i_epik_Tot_abs_Q>  (284) 
0

>  <s_epik_Chemistry_Notes>  (284) 
This compound contains an acetal/aminal-like group ( X-CH(R)-Y where X, Y are N, S, or O) that may be acid/base labile, releasing an aldehyde.

>  <s_lp_Force_Field>  (284) 
OPLS3e

>  <r_lp_Energy>  (284) 
184.433

>  <b_lp_Chiralities_Consistent>  (284) 
1

>  <s_lp_Variant>  (284) 
97:0-1

>  <s_i_glide_gridfile>  (284) 
pfpi4k_grid

>  <i_i_glide_lignum>  (284) 
6

>  <i_i_glide_rotatable_bonds>  (284) 
11

>  <r_i_docking_score>  (284) 
-3.20172

>  <r_i_glide_ligand_efficiency>  (284) 
-0.0762315

>  <r_i_glide_ligand_efficiency_sa>  (284) 
-0.264983

>  <r_i_glide_ligand_efficiency_ln>  (284) 
-0.675802

>  <r_i_glide_gscore>  (284) 
-3.20172

>  <r_i_glide_lipo>  (284) 
-0.636395

>  <r_i_glide_hbond>  (284) 
0

>  <r_i_glide_metal>  (284) 
-0

>  <r_i_glide_rewards>  (284) 
0

>  <r_i_glide_evdw>  (284) 
-25.1692

>  <r_i_glide_ecoul>  (284) 
-9.03637

>  <r_i_glide_erotb>  (284) 
0.0656017

>  <r_i_glide_esite>  (284) 
-0.017015

>  <r_i_glide_emodel>  (284) 
-38.042

>  <r_i_glide_energy>  (284) 
-34.2056

>  <r_i_glide_einternal>  (284) 
4.74318

>  <r_i_glide_intrahb_reward>  (284) 
-0

>  <i_i_glide_confnum>  (284) 
5

>  <i_i_glide_posenum>  (284) 
40

>  <r_i_glide_eff_state_penalty>  (284) 
0

>  <ligand_id>  (284) 
97

>  <original_smiles>  (284) 
C=C1CC2C3=CC2CCC2(C)C4C(C)CCC5C(OCC2(O)C3(O)C1O)C5(OC1OC(CO)C(O)C(O)C1O)CC4O

>  <smiles>  (284) 
[H]OC([H])([H])C1([H])OC([H])(OC23C([H])([H])C([H])(O[H])C4([H])C([H])(C([H])([H])[H])C([H])([H])C([H])([H])C2([H])C3([H])OC([H])([H])C2(O[H])C3(O[H])C5=C([H])C([H])(C([H])([H])C([H])([H])C42C([H])([H])[H])C5([H])C([H])([H])C(=C([H])[H])C3([H])O[H])C([H])(O[H])C([H])(O[H])C1([H])O[H]

$$$$
97:0:1
     RDKit          3D

 88 94  0  0  1  0  0  0  0  0999 V2000
    3.4850   -3.0512   -3.2776 C   0  0  0  0  0  0  0  0  0  0  0  0
    3.9956   -3.1453   -2.0393 C   0  0  0  0  0  0  0  0  0  0  0  0
    5.3874   -3.6865   -1.7796 C   0  0  0  0  0  0  0  0  0  0  0  0
    5.2022   -5.0317   -1.1006 C   0  0  2  0  0  0  0  0  0  0  0  0
    4.1595   -5.0692   -0.0258 C   0  0  0  0  0  0  0  0  0  0  0  0
    4.6945   -6.1256    0.5549 C   0  0  0  0  0  0  0  0  0  0  0  0
    6.0231   -5.5301    0.0890 C   0  0  2  0  0  0  0  0  0  0  0  0
    6.6361   -4.5345    1.1240 C   0  0  0  0  0  0  0  0  0  0  0  0
    5.7753   -3.3282    1.7111 C   0  0  0  0  0  0  0  0  0  0  0  0
    4.5444   -3.5632    2.6960 C   0  0  1  0  0  0  0  0  0  0  0  0
    4.9158   -4.8882    3.4495 C   0  0  0  0  0  0  0  0  0  0  0  0
    4.5700   -2.4363    3.8841 C   0  0  2  0  0  0  0  0  0  0  0  0
    4.5166   -2.8550    5.4316 C   0  0  1  0  0  0  0  0  0  0  0  0
    5.9381   -2.9458    6.0430 C   0  0  0  0  0  0  0  0  0  0  0  0
    3.6774   -2.0209    6.4297 C   0  0  0  0  0  0  0  0  0  0  0  0
    2.1963   -2.4343    6.6410 C   0  0  0  0  0  0  0  0  0  0  0  0
    1.1438   -2.1192    5.5690 C   0  0  2  0  0  0  0  0  0  0  0  0
    1.1029   -2.9501    4.3195 C   0  0  2  0  0  0  0  0  0  0  0  0
    2.1045   -3.9286    4.1055 O   0  0  0  0  0  0  0  0  0  0  0  0
    2.0987   -4.4515    2.7648 C   0  0  0  0  0  0  0  0  0  0  0  0
    3.1151   -3.6911    1.8817 C   0  0  1  0  0  0  0  0  0  0  0  0
    2.4060   -2.4985    1.7775 O   0  0  0  0  0  0  0  0  0  0  0  0
    3.1127   -4.0748    0.2995 C   0  0  2  0  0  0  0  0  0  0  0  0
    1.9391   -4.7667   -0.0715 O   0  0  0  0  0  0  0  0  0  0  0  0
    3.2101   -2.8504   -0.7670 C   0  0  1  0  0  0  0  0  0  0  0  0
    3.7087   -1.6186   -0.2544 O   0  0  0  0  0  0  0  0  0  0  0  0
    1.3703   -1.4497    4.2007 C   0  0  1  0  0  0  0  0  0  0  0  0
    0.1816   -0.8204    3.6510 O   0  0  0  0  0  0  0  0  0  0  0  0
   -0.2280    0.4370    4.1767 C   0  0  2  0  0  0  0  0  0  0  0  0
   -1.2751    0.2987    5.1041 O   0  0  0  0  0  0  0  0  0  0  0  0
   -1.6762    1.5276    5.7311 C   0  0  1  0  0  0  0  0  0  0  0  0
   -0.5920    2.0945    6.7074 C   0  0  0  0  0  0  0  0  0  0  0  0
   -0.4199    1.2702    7.8532 O   0  0  0  0  0  0  0  0  0  0  0  0
   -2.1315    2.5324    4.6502 C   0  0  1  0  0  0  0  0  0  0  0  0
   -2.5614    3.7426    5.2198 O   0  0  0  0  0  0  0  0  0  0  0  0
   -1.0813    2.7722    3.5564 C   0  0  1  0  0  0  0  0  0  0  0  0
   -0.0025    3.5591    4.0600 O   0  0  0  0  0  0  0  0  0  0  0  0
   -0.5977    1.4258    3.0206 C   0  0  1  0  0  0  0  0  0  0  0  0
    0.5155    1.6387    2.1464 O   0  0  0  0  0  0  0  0  0  0  0  0
    2.6088   -0.5399    4.0133 C   0  0  0  0  0  0  0  0  0  0  0  0
    4.0027   -1.0141    3.5461 C   0  0  1  0  0  0  0  0  0  0  0  0
    4.9085   -0.0241    4.0153 O   0  0  0  0  0  0  0  0  0  0  0  0
    2.4582   -2.7192   -3.4620 H   0  0  0  0  0  0  0  0  0  0  0  0
    4.0671   -3.3588   -4.1277 H   0  0  0  0  0  0  0  0  0  0  0  0
    5.9231   -3.7974   -2.7277 H   0  0  0  0  0  0  0  0  0  0  0  0
    5.9424   -2.9677   -1.1868 H   0  0  0  0  0  0  0  0  0  0  0  0
    5.0202   -5.8091   -1.8443 H   0  0  0  0  0  0  0  0  0  0  0  0
    4.4133   -6.7423    1.3935 H   0  0  0  0  0  0  0  0  0  0  0  0
    6.7813   -6.2562   -0.2215 H   0  0  0  0  0  0  0  0  0  0  0  0
    7.1231   -5.0628    1.9384 H   0  0  0  0  0  0  0  0  0  0  0  0
    7.4670   -4.0307    0.6184 H   0  0  0  0  0  0  0  0  0  0  0  0
    6.5445   -2.7462    2.2071 H   0  0  0  0  0  0  0  0  0  0  0  0
    5.4983   -2.6518    0.9212 H   0  0  0  0  0  0  0  0  0  0  0  0
    4.1484   -5.2701    4.1164 H   0  0  0  0  0  0  0  0  0  0  0  0
    5.8353   -4.7825    4.0044 H   0  0  0  0  0  0  0  0  0  0  0  0
    5.1462   -5.7347    2.8529 H   0  0  0  0  0  0  0  0  0  0  0  0
    5.6185   -2.1774    3.8606 H   0  0  0  0  0  0  0  0  0  0  0  0
    4.1005   -3.8508    5.5545 H   0  0  0  0  0  0  0  0  0  0  0  0
    6.3857   -1.9562    6.1563 H   0  0  0  0  0  0  0  0  0  0  0  0
    6.6083   -3.5379    5.4319 H   0  0  0  0  0  0  0  0  0  0  0  0
    5.9301   -3.4227    7.0258 H   0  0  0  0  0  0  0  0  0  0  0  0
    4.1198   -2.1828    7.4163 H   0  0  0  0  0  0  0  0  0  0  0  0
    3.8214   -0.9560    6.3104 H   0  0  0  0  0  0  0  0  0  0  0  0
    2.1482   -3.4934    6.8910 H   0  0  0  0  0  0  0  0  0  0  0  0
    1.8710   -1.9332    7.5525 H   0  0  0  0  0  0  0  0  0  0  0  0
    0.1639   -1.9374    6.0104 H   0  0  0  0  0  0  0  0  0  0  0  0
    0.1098   -3.2992    4.0596 H   0  0  0  0  0  0  0  0  0  0  0  0
    2.3767   -5.4953    2.8127 H   0  0  0  0  0  0  0  0  0  0  0  0
    1.0819   -4.4326    2.3829 H   0  0  0  0  0  0  0  0  0  0  0  0
    2.8466   -1.9934    1.0935 H   0  0  0  0  0  0  0  0  0  0  0  0
    2.0606   -4.9828   -0.9953 H   0  0  0  0  0  0  0  0  0  0  0  0
    2.2043   -2.6439   -1.1000 H   0  0  0  0  0  0  0  0  0  0  0  0
    3.0534   -0.9483   -0.4450 H   0  0  0  0  0  0  0  0  0  0  0  0
    0.6071    0.8143    4.7707 H   0  0  0  0  0  0  0  0  0  0  0  0
   -2.5615    1.2940    6.3280 H   0  0  0  0  0  0  0  0  0  0  0  0
    0.3650    2.2662    6.2259 H   0  0  0  0  0  0  0  0  0  0  0  0
   -0.9088    3.0580    7.1166 H   0  0  0  0  0  0  0  0  0  0  0  0
    0.3474    1.5921    8.3558 H   0  0  0  0  0  0  0  0  0  0  0  0
   -2.9688    2.1000    4.0994 H   0  0  0  0  0  0  0  0  0  0  0  0
   -3.1481    4.1926    4.5785 H   0  0  0  0  0  0  0  0  0  0  0  0
   -1.5685    3.3149    2.7408 H   0  0  0  0  0  0  0  0  0  0  0  0
    0.6234    3.7237    3.3433 H   0  0  0  0  0  0  0  0  0  0  0  0
   -1.3902    0.9900    2.4226 H   0  0  0  0  0  0  0  0  0  0  0  0
    0.2817    2.3256    1.4853 H   0  0  0  0  0  0  0  0  0  0  0  0
    2.3254    0.2004    3.2781 H   0  0  0  0  0  0  0  0  0  0  0  0
    2.6896    0.0654    4.9133 H   0  0  0  0  0  0  0  0  0  0  0  0
    4.0605   -0.8867    2.4671 H   0  0  0  0  0  0  0  0  0  0  0  0
    4.5826    0.8237    3.7344 H   0  0  0  0  0  0  0  0  0  0  0  0
  1  2  2  0
  1 43  1  0
  1 44  1  0
  2 25  1  0
  2  3  1  0
  3  4  1  0
  3 45  1  0
  3 46  1  0
  4  7  1  0
  4  5  1  0
  4 47  1  6
  5 23  1  0
  5  6  2  0
  6  7  1  0
  6 48  1  0
  7  8  1  0
  7 49  1  6
  8  9  1  0
  8 50  1  0
  8 51  1  0
  9 10  1  0
  9 52  1  0
  9 53  1  0
 10 21  1  0
 10 11  1  1
 10 12  1  0
 11 54  1  0
 11 55  1  0
 11 56  1  0
 12 41  1  0
 12 13  1  0
 12 57  1  1
 13 14  1  0
 13 15  1  0
 13 58  1  6
 14 59  1  0
 14 60  1  0
 14 61  1  0
 15 16  1  0
 15 62  1  0
 15 63  1  0
 16 17  1  0
 16 64  1  0
 16 65  1  0
 17 27  1  0
 17 18  1  0
 17 66  1  1
 18 19  1  0
 18 27  1  0
 18 67  1  6
 19 20  1  0
 20 21  1  0
 20 68  1  0
 20 69  1  0
 21 22  1  6
 21 23  1  0
 22 70  1  0
 23 24  1  6
 23 25  1  0
 24 71  1  0
 25 26  1  0
 25 72  1  6
 26 73  1  0
 27 28  1  6
 27 40  1  0
 28 29  1  0
 29 38  1  0
 29 30  1  0
 29 74  1  1
 30 31  1  0
 31 32  1  0
 31 34  1  0
 31 75  1  1
 32 33  1  0
 32 76  1  0
 32 77  1  0
 33 78  1  0
 34 35  1  0
 34 36  1  0
 34 79  1  6
 35 80  1  0
 36 37  1  0
 36 38  1  0
 36 81  1  6
 37 82  1  0
 38 39  1  0
 38 83  1  6
 39 84  1  0
 40 41  1  0
 40 85  1  0
 40 86  1  0
 41 42  1  0
 41 87  1  6
 42 88  1  0
M  END
>  <i_m_ct_stereo_status>  (285) 
1

>  <s_m_source_file>  (285) 
/var/tmp/pbs.5076255.sched01/tmppy4q9rbr/123plv7d954.sdf

>  <i_m_source_file_index>  (285) 
6

>  <i_lp_mmshare_version>  (285) 
48012

>  <i_f3d_flags>  (285) 
0

>  <s_epik_input>  (285) 
W09IXVtDQEhdMUMoPVtDSDJdKVtDSDJdW0NAQEhdKFtDQEhdKFtDSF0yKVtDSDJdW0NIMl0zKUM9MltDQEBdMShbT0hdKVtDQEBdNChbT0hdKVtDSDJdT1tDQEBIXShbQ0BIXTVbQ0gyXVtDSDJdW0NASF0oW0NIM10pW0NIXTZbQ0BdMzRbQ0gzXSlbQ0BAXTUoW0NIMl1bQ0BIXTZbT0hdKU9bQ0BASF03T1tDQEBIXShbQ0gyXVtPSF0pW0NAQEhdKFtPSF0pW0NAQEhdKFtPSF0pW0NASF03W09IXQ==

>  <s_epik_cmdline>  (285) 
J2VwaWtfcHl0aG9uJywgJy1waHQnLCAnMi4wJywgJy1waCcsICc3LjAnLCAnLXRuJywgJzgnLCAnLW1hJywgJzIwMCcsICctaW1hZScsICc8aW5maWxlLm1hZT4nLCAnLW9tYWUnLCAnPG91dGZpbGUubWFlPic=

>  <r_lp_tautomer_probability>  (285) 
1

>  <r_epik_Ionization_Penalty>  (285) 
3.63505e-06

>  <r_epik_Ionization_Penalty_Charging>  (285) 
0

>  <r_epik_Ionization_Penalty_Neutral>  (285) 
3.63505e-06

>  <r_epik_State_Penalty>  (285) 
-0

>  <r_epik_Charging_Adjusted_Penalty>  (285) 
0

>  <i_epik_Tot_Q>  (285) 
0

>  <i_epik_Tot_abs_Q>  (285) 
0

>  <s_epik_Chemistry_Notes>  (285) 
This compound contains an acetal/aminal-like group ( X-CH(R)-Y where X, Y are N, S, or O) that may be acid/base labile, releasing an aldehyde.

>  <s_lp_Force_Field>  (285) 
OPLS3e

>  <r_lp_Energy>  (285) 
184.433

>  <b_lp_Chiralities_Consistent>  (285) 
1

>  <s_lp_Variant>  (285) 
97:0-1

>  <s_i_glide_gridfile>  (285) 
pfpi4k_grid

>  <i_i_glide_lignum>  (285) 
6

>  <i_i_glide_rotatable_bonds>  (285) 
11

>  <r_i_docking_score>  (285) 
-3.06967

>  <r_i_glide_ligand_efficiency>  (285) 
-0.0730873

>  <r_i_glide_ligand_efficiency_sa>  (285) 
-0.254053

>  <r_i_glide_ligand_efficiency_ln>  (285) 
-0.647927

>  <r_i_glide_gscore>  (285) 
-3.06967

>  <r_i_glide_lipo>  (285) 
-0.647421

>  <r_i_glide_hbond>  (285) 
0

>  <r_i_glide_metal>  (285) 
-0

>  <r_i_glide_rewards>  (285) 
0

>  <r_i_glide_evdw>  (285) 
-25.4836

>  <r_i_glide_ecoul>  (285) 
-7.98066

>  <r_i_glide_erotb>  (285) 
0.0656017

>  <r_i_glide_esite>  (285) 
-0.016566

>  <r_i_glide_emodel>  (285) 
-36.8169

>  <r_i_glide_energy>  (285) 
-33.4643

>  <r_i_glide_einternal>  (285) 
4.33752

>  <r_i_glide_intrahb_reward>  (285) 
-0

>  <i_i_glide_confnum>  (285) 
6

>  <i_i_glide_posenum>  (285) 
23

>  <r_i_glide_eff_state_penalty>  (285) 
0

>  <ligand_id>  (285) 
97

>  <original_smiles>  (285) 
C=C1CC2C3=CC2CCC2(C)C4C(C)CCC5C(OCC2(O)C3(O)C1O)C5(OC1OC(CO)C(O)C(O)C1O)CC4O

>  <smiles>  (285) 
[H]OC([H])([H])C1([H])OC([H])(OC23C([H])([H])C([H])(O[H])C4([H])C([H])(C([H])([H])[H])C([H])([H])C([H])([H])C2([H])C3([H])OC([H])([H])C2(O[H])C3(O[H])C5=C([H])C([H])(C([H])([H])C([H])([H])C42C([H])([H])[H])C5([H])C([H])([H])C(=C([H])[H])C3([H])O[H])C([H])(O[H])C([H])(O[H])C1([H])O[H]

$$$$
97:0:2
     RDKit          3D

 88 94  0  0  1  0  0  0  0  0999 V2000
    4.5975   -5.9719    0.1419 C   0  0  0  0  0  0  0  0  0  0  0  0
    4.6386   -5.7148    1.4253 C   0  0  0  0  0  0  0  0  0  0  0  0
    5.6711   -6.3053    2.3654 C   0  0  0  0  0  0  0  0  0  0  0  0
    4.9551   -7.3084    3.2265 C   0  0  2  0  0  0  0  0  0  0  0  0
    3.5820   -6.8715    3.7168 C   0  0  0  0  0  0  0  0  0  0  0  0
    3.6406   -7.6600    4.7616 C   0  0  0  0  0  0  0  0  0  0  0  0
    5.1606   -7.4708    4.7417 C   0  0  2  0  0  0  0  0  0  0  0  0
    5.6462   -6.2625    5.6193 C   0  0  0  0  0  0  0  0  0  0  0  0
    4.9863   -4.8196    5.4914 C   0  0  0  0  0  0  0  0  0  0  0  0
    3.4914   -4.5050    5.9369 C   0  0  1  0  0  0  0  0  0  0  0  0
    3.2238   -5.5301    7.0936 C   0  0  0  0  0  0  0  0  0  0  0  0
    3.4126   -3.0513    6.6920 C   0  0  2  0  0  0  0  0  0  0  0  0
    2.7563   -2.9040    8.1483 C   0  0  1  0  0  0  0  0  0  0  0  0
    3.8362   -2.9824    9.2665 C   0  0  0  0  0  0  0  0  0  0  0  0
    1.8854   -1.6637    8.4747 C   0  0  0  0  0  0  0  0  0  0  0  0
    0.3618   -1.7589    8.1799 C   0  0  0  0  0  0  0  0  0  0  0  0
   -0.1595   -1.6955    6.7393 C   0  0  2  0  0  0  0  0  0  0  0  0
   -0.0186   -2.8812    5.8374 C   0  0  2  0  0  0  0  0  0  0  0  0
    0.7157   -4.0068    6.2883 O   0  0  0  0  0  0  0  0  0  0  0  0
    1.0255   -4.9383    5.2437 C   0  0  0  0  0  0  0  0  0  0  0  0
    2.4454   -4.6736    4.6764 C   0  0  1  0  0  0  0  0  0  0  0  0
    2.1368   -3.4924    3.9802 O   0  0  0  0  0  0  0  0  0  0  0  0
    2.8621   -5.5735    3.3829 C   0  0  2  0  0  0  0  0  0  0  0  0
    1.6602   -6.0056    2.7692 O   0  0  0  0  0  0  0  0  0  0  0  0
    3.6120   -4.8359    2.1588 C   0  0  1  0  0  0  0  0  0  0  0  0
    4.2969   -3.6294    2.4295 O   0  0  0  0  0  0  0  0  0  0  0  0
    0.6487   -1.5667    5.4449 C   0  0  1  0  0  0  0  0  0  0  0  0
   -0.1082   -1.0047    4.3442 O   0  0  0  0  0  0  0  0  0  0  0  0
   -0.3332    0.3971    4.3199 C   0  0  2  0  0  0  0  0  0  0  0  0
   -1.4241    0.7850    5.1278 O   0  0  0  0  0  0  0  0  0  0  0  0
   -1.6656    2.2065    5.2045 C   0  0  1  0  0  0  0  0  0  0  0  0
   -0.5439    2.9200    6.0180 C   0  0  0  0  0  0  0  0  0  0  0  0
   -0.5409    2.4519    7.3561 O   0  0  0  0  0  0  0  0  0  0  0  0
   -1.9011    2.7477    3.7814 C   0  0  1  0  0  0  0  0  0  0  0  0
   -2.1648    4.1542    3.7492 O   0  0  0  0  0  0  0  0  0  0  0  0
   -0.7353    2.4060    2.8504 C   0  0  1  0  0  0  0  0  0  0  0  0
    0.4140    3.1742    3.1830 O   0  0  0  0  0  0  0  0  0  0  0  0
   -0.4963    0.8878    2.8636 C   0  0  1  0  0  0  0  0  0  0  0  0
    0.6547    0.5243    2.0849 O   0  0  0  0  0  0  0  0  0  0  0  0
    2.0806   -0.9639    5.5168 C   0  0  0  0  0  0  0  0  0  0  0  0
    3.3808   -1.7660    5.7989 C   0  0  1  0  0  0  0  0  0  0  0  0
    4.3027   -0.8139    6.3077 O   0  0  0  0  0  0  0  0  0  0  0  0
    3.8328   -5.5527   -0.5222 H   0  0  0  0  0  0  0  0  0  0  0  0
    5.3421   -6.6300   -0.3028 H   0  0  0  0  0  0  0  0  0  0  0  0
    6.4559   -6.7867    1.7831 H   0  0  0  0  0  0  0  0  0  0  0  0
    6.1590   -5.5139    2.9275 H   0  0  0  0  0  0  0  0  0  0  0  0
    4.9295   -8.2891    2.7420 H   0  0  0  0  0  0  0  0  0  0  0  0
    2.9711   -7.8948    5.5980 H   0  0  0  0  0  0  0  0  0  0  0  0
    5.7619   -8.3638    4.9197 H   0  0  0  0  0  0  0  0  0  0  0  0
    5.6885   -6.5452    6.6710 H   0  0  0  0  0  0  0  0  0  0  0  0
    6.6982   -6.0925    5.3746 H   0  0  0  0  0  0  0  0  0  0  0  0
    5.6683   -4.2245    6.0958 H   0  0  0  0  0  0  0  0  0  0  0  0
    5.1702   -4.4051    4.5148 H   0  0  0  0  0  0  0  0  0  0  0  0
    2.2098   -5.5441    7.4802 H   0  0  0  0  0  0  0  0  0  0  0  0
    3.9025   -5.3709    7.9225 H   0  0  0  0  0  0  0  0  0  0  0  0
    3.4111   -6.5540    6.8810 H   0  0  0  0  0  0  0  0  0  0  0  0
    4.4419   -2.9688    7.0165 H   0  0  0  0  0  0  0  0  0  0  0  0
    2.0755   -3.7235    8.3565 H   0  0  0  0  0  0  0  0  0  0  0  0
    4.4453   -2.0772    9.2853 H   0  0  0  0  0  0  0  0  0  0  0  0
    4.5232   -3.8175    9.1510 H   0  0  0  0  0  0  0  0  0  0  0  0
    3.3793   -3.0945   10.2519 H   0  0  0  0  0  0  0  0  0  0  0  0
    1.9163   -1.5353    9.5595 H   0  0  0  0  0  0  0  0  0  0  0  0
    2.3275   -0.7358    8.1387 H   0  0  0  0  0  0  0  0  0  0  0  0
   -0.0382   -2.6499    8.6637 H   0  0  0  0  0  0  0  0  0  0  0  0
   -0.0986   -0.9341    8.7227 H   0  0  0  0  0  0  0  0  0  0  0  0
   -1.1431   -1.2249    6.6886 H   0  0  0  0  0  0  0  0  0  0  0  0
   -0.9382   -3.1495    5.3248 H   0  0  0  0  0  0  0  0  0  0  0  0
    0.9717   -5.9307    5.6723 H   0  0  0  0  0  0  0  0  0  0  0  0
    0.2347   -4.9096    4.4932 H   0  0  0  0  0  0  0  0  0  0  0  0
    1.4640   -3.7088    3.3453 H   0  0  0  0  0  0  0  0  0  0  0  0
    1.9029   -6.7610    2.2418 H   0  0  0  0  0  0  0  0  0  0  0  0
    2.8603   -4.5516    1.4218 H   0  0  0  0  0  0  0  0  0  0  0  0
    3.6385   -2.9895    2.6820 H   0  0  0  0  0  0  0  0  0  0  0  0
    0.5468    0.8689    4.7632 H   0  0  0  0  0  0  0  0  0  0  0  0
   -2.5928    2.3286    5.7524 H   0  0  0  0  0  0  0  0  0  0  0  0
    0.4574    2.7755    5.6097 H   0  0  0  0  0  0  0  0  0  0  0  0
   -0.7006    4.0027    6.0474 H   0  0  0  0  0  0  0  0  0  0  0  0
   -0.0960    1.5998    7.3738 H   0  0  0  0  0  0  0  0  0  0  0  0
   -2.7820    2.2516    3.3883 H   0  0  0  0  0  0  0  0  0  0  0  0
   -2.1256    4.4623    2.8290 H   0  0  0  0  0  0  0  0  0  0  0  0
   -1.0183    2.6679    1.8476 H   0  0  0  0  0  0  0  0  0  0  0  0
    0.5823    3.7445    2.4056 H   0  0  0  0  0  0  0  0  0  0  0  0
   -1.3572    0.4093    2.4035 H   0  0  0  0  0  0  0  0  0  0  0  0
    0.5250    0.7710    1.1548 H   0  0  0  0  0  0  0  0  0  0  0  0
    2.2632   -0.4971    4.5526 H   0  0  0  0  0  0  0  0  0  0  0  0
    2.0147   -0.0999    6.1764 H   0  0  0  0  0  0  0  0  0  0  0  0
    3.8285   -2.0250    4.8443 H   0  0  0  0  0  0  0  0  0  0  0  0
    4.3812   -0.1133    5.6707 H   0  0  0  0  0  0  0  0  0  0  0  0
  1  2  2  0
  1 43  1  0
  1 44  1  0
  2 25  1  0
  2  3  1  0
  3  4  1  0
  3 45  1  0
  3 46  1  0
  4  7  1  0
  4  5  1  0
  4 47  1  6
  5 23  1  0
  5  6  2  0
  6  7  1  0
  6 48  1  0
  7  8  1  0
  7 49  1  6
  8  9  1  0
  8 50  1  0
  8 51  1  0
  9 10  1  0
  9 52  1  0
  9 53  1  0
 10 21  1  0
 10 11  1  1
 10 12  1  0
 11 54  1  0
 11 55  1  0
 11 56  1  0
 12 41  1  0
 12 13  1  0
 12 57  1  1
 13 14  1  0
 13 15  1  0
 13 58  1  1
 14 59  1  0
 14 60  1  0
 14 61  1  0
 15 16  1  0
 15 62  1  0
 15 63  1  0
 16 17  1  0
 16 64  1  0
 16 65  1  0
 17 27  1  0
 17 18  1  0
 17 66  1  1
 18 19  1  0
 18 27  1  0
 18 67  1  6
 19 20  1  0
 20 21  1  0
 20 68  1  0
 20 69  1  0
 21 22  1  6
 21 23  1  0
 22 70  1  0
 23 24  1  6
 23 25  1  0
 24 71  1  0
 25 26  1  0
 25 72  1  6
 26 73  1  0
 27 28  1  6
 27 40  1  0
 28 29  1  0
 29 38  1  0
 29 30  1  0
 29 74  1  1
 30 31  1  0
 31 32  1  0
 31 34  1  0
 31 75  1  1
 32 33  1  0
 32 76  1  0
 32 77  1  0
 33 78  1  0
 34 35  1  0
 34 36  1  0
 34 79  1  6
 35 80  1  0
 36 37  1  0
 36 38  1  0
 36 81  1  6
 37 82  1  0
 38 39  1  0
 38 83  1  6
 39 84  1  0
 40 41  1  0
 40 85  1  0
 40 86  1  0
 41 42  1  0
 41 87  1  6
 42 88  1  0
M  END
>  <i_m_ct_stereo_status>  (286) 
1

>  <s_m_source_file>  (286) 
/var/tmp/pbs.5076255.sched01/tmppy4q9rbr/123plv7d954.sdf

>  <i_m_source_file_index>  (286) 
6

>  <i_lp_mmshare_version>  (286) 
48012

>  <i_f3d_flags>  (286) 
0

>  <s_epik_input>  (286) 
W09IXVtDQEhdMUMoPVtDSDJdKVtDSDJdW0NAQEhdKFtDQEhdKFtDSF0yKVtDSDJdW0NIMl0zKUM9MltDQEBdMShbT0hdKVtDQEBdNChbT0hdKVtDSDJdT1tDQEBIXShbQ0BIXTVbQ0gyXVtDSDJdW0NASF0oW0NIM10pW0NIXTZbQ0BdMzRbQ0gzXSlbQ0BAXTUoW0NIMl1bQ0BIXTZbT0hdKU9bQ0BASF03T1tDQEBIXShbQ0gyXVtPSF0pW0NAQEhdKFtPSF0pW0NAQEhdKFtPSF0pW0NASF03W09IXQ==

>  <s_epik_cmdline>  (286) 
J2VwaWtfcHl0aG9uJywgJy1waHQnLCAnMi4wJywgJy1waCcsICc3LjAnLCAnLXRuJywgJzgnLCAnLW1hJywgJzIwMCcsICctaW1hZScsICc8aW5maWxlLm1hZT4nLCAnLW9tYWUnLCAnPG91dGZpbGUubWFlPic=

>  <r_lp_tautomer_probability>  (286) 
1

>  <r_epik_Ionization_Penalty>  (286) 
3.63505e-06

>  <r_epik_Ionization_Penalty_Charging>  (286) 
0

>  <r_epik_Ionization_Penalty_Neutral>  (286) 
3.63505e-06

>  <r_epik_State_Penalty>  (286) 
-0

>  <r_epik_Charging_Adjusted_Penalty>  (286) 
0

>  <i_epik_Tot_Q>  (286) 
0

>  <i_epik_Tot_abs_Q>  (286) 
0

>  <s_epik_Chemistry_Notes>  (286) 
This compound contains an acetal/aminal-like group ( X-CH(R)-Y where X, Y are N, S, or O) that may be acid/base labile, releasing an aldehyde.

>  <s_lp_Force_Field>  (286) 
OPLS3e

>  <r_lp_Energy>  (286) 
184.433

>  <b_lp_Chiralities_Consistent>  (286) 
1

>  <s_lp_Variant>  (286) 
97:0-1

>  <s_i_glide_gridfile>  (286) 
pfpi4k_grid

>  <i_i_glide_lignum>  (286) 
6

>  <i_i_glide_rotatable_bonds>  (286) 
11

>  <r_i_docking_score>  (286) 
-2.72674

>  <r_i_glide_ligand_efficiency>  (286) 
-0.0649225

>  <r_i_glide_ligand_efficiency_sa>  (286) 
-0.225672

>  <r_i_glide_ligand_efficiency_ln>  (286) 
-0.575545

>  <r_i_glide_gscore>  (286) 
-2.72674

>  <r_i_glide_lipo>  (286) 
-0.128045

>  <r_i_glide_hbond>  (286) 
0

>  <r_i_glide_metal>  (286) 
-0

>  <r_i_glide_rewards>  (286) 
-0.5

>  <r_i_glide_evdw>  (286) 
-20.5464

>  <r_i_glide_ecoul>  (286) 
-7.47136

>  <r_i_glide_erotb>  (286) 
0.0656017

>  <r_i_glide_esite>  (286) 
-0.0162742

>  <r_i_glide_emodel>  (286) 
-36.637

>  <r_i_glide_energy>  (286) 
-28.0178

>  <r_i_glide_einternal>  (286) 
3.97545

>  <r_i_glide_intrahb_reward>  (286) 
-0.5

>  <i_i_glide_confnum>  (286) 
6

>  <i_i_glide_posenum>  (286) 
11

>  <r_i_glide_eff_state_penalty>  (286) 
0

>  <ligand_id>  (286) 
97

>  <original_smiles>  (286) 
C=C1CC2C3=CC2CCC2(C)C4C(C)CCC5C(OCC2(O)C3(O)C1O)C5(OC1OC(CO)C(O)C(O)C1O)CC4O

>  <smiles>  (286) 
[H]OC([H])([H])C1([H])OC([H])(OC23C([H])([H])C([H])(O[H])C4([H])C([H])(C([H])([H])[H])C([H])([H])C([H])([H])C2([H])C3([H])OC([H])([H])C2(O[H])C3(O[H])C5=C([H])C([H])(C([H])([H])C([H])([H])C42C([H])([H])[H])C5([H])C([H])([H])C(=C([H])[H])C3([H])O[H])C([H])(O[H])C([H])(O[H])C1([H])O[H]

$$$$
99:0:0
     RDKit          3D

 25 27  0  0  1  0  0  0  0  0999 V2000
    4.2336   -4.9302   -0.0198 C   0  0  0  0  0  0  0  0  0  0  0  0
    3.9475   -3.6339   -0.7593 C   0  0  0  0  0  0  0  0  0  0  0  0
    2.4673   -3.4713   -1.0432 C   0  0  0  0  0  0  0  0  0  0  0  0
    4.7785   -2.4183   -0.4218 C   0  0  2  0  0  0  0  0  0  0  0  0
    4.3775   -0.9714   -0.7164 C   0  0  0  0  0  0  0  0  0  0  0  0
    4.7807   -0.7691   -2.1805 C   0  0  2  0  0  0  0  0  0  0  0  0
    3.9533   -0.0201   -3.0996 N   0  0  0  0  0  0  0  0  0  0  0  0
    3.6017   -0.7324   -4.1722 C   0  0  0  0  0  0  0  0  0  0  0  0
    3.0320   -0.2581   -5.1483 O   0  0  0  0  0  0  0  0  0  0  0  0
    3.9880   -2.1088   -3.9133 C   0  0  0  0  0  0  0  0  0  0  0  0
    4.6483   -2.1147   -2.7577 C   0  0  0  0  0  0  0  0  0  0  0  0
    4.9633   -3.1358   -1.7502 C   0  0  2  0  0  0  0  0  0  0  0  0
    3.6925   -4.9732    0.9244 H   0  0  0  0  0  0  0  0  0  0  0  0
    5.2984   -5.0345    0.1916 H   0  0  0  0  0  0  0  0  0  0  0  0
    3.9418   -5.7858   -0.6255 H   0  0  0  0  0  0  0  0  0  0  0  0
    2.2690   -2.5419   -1.5713 H   0  0  0  0  0  0  0  0  0  0  0  0
    1.8973   -3.4779   -0.1173 H   0  0  0  0  0  0  0  0  0  0  0  0
    2.1119   -4.2639   -1.6971 H   0  0  0  0  0  0  0  0  0  0  0  0
    5.5357   -2.5458    0.3483 H   0  0  0  0  0  0  0  0  0  0  0  0
    3.3070   -0.8420   -0.5504 H   0  0  0  0  0  0  0  0  0  0  0  0
    4.9011   -0.2769   -0.0584 H   0  0  0  0  0  0  0  0  0  0  0  0
    3.6303   -2.9747   -4.4521 H   0  0  0  0  0  0  0  0  0  0  0  0
    5.8143   -0.4528   -2.2541 H   0  0  0  0  0  0  0  0  0  0  0  0
    3.7399    0.9624   -2.9981 H   0  0  0  0  0  0  0  0  0  0  0  0
    5.9122   -3.6515   -1.8970 H   0  0  0  0  0  0  0  0  0  0  0  0
  1  2  1  0
  1 13  1  0
  1 14  1  0
  1 15  1  0
  2 12  1  0
  2  3  1  0
  2  4  1  0
  3 16  1  0
  3 17  1  0
  3 18  1  0
  4 12  1  0
  4  5  1  0
  4 19  1  1
  5 20  1  0
  5 21  1  0
  5  6  1  0
  6 23  1  1
  6  7  1  0
  6 11  1  0
  7 24  1  0
  7  8  1  0
  8  9  2  0
  8 10  1  0
 10 22  1  0
 10 11  2  0
 11 12  1  0
 12 25  1  6
M  END
>  <i_m_ct_stereo_status>  (287) 
1

>  <s_m_source_file>  (287) 
/var/tmp/pbs.5076255.sched01/tmppy4q9rbr/123plv7d954.sdf

>  <i_m_source_file_index>  (287) 
8

>  <i_lp_mmshare_version>  (287) 
48012

>  <i_f3d_flags>  (287) 
2

>  <s_epik_input>  (287) 
W0NIM11DMShbQ0gzXSlbQ0BIXShbQ0BASF0xMilbQ0BIXTNDKFtDSDJdMik9TkMoPU8pW0NIMl0z

>  <s_epik_cmdline>  (287) 
J2VwaWtfcHl0aG9uJywgJy1waHQnLCAnMi4wJywgJy1waCcsICc3LjAnLCAnLXRuJywgJzgnLCAnLW1hJywgJzIwMCcsICctaW1hZScsICc8aW5maWxlLm1hZT4nLCAnLW9tYWUnLCAnPG91dGZpbGUubWFlPic=

>  <r_lp_tautomer_probability>  (287) 
0.961759

>  <r_epik_Ionization_Penalty>  (287) 
8.33476e-05

>  <r_epik_Ionization_Penalty_Charging>  (287) 
0

>  <r_epik_Ionization_Penalty_Neutral>  (287) 
8.33476e-05

>  <r_epik_State_Penalty>  (287) 
0.0186766

>  <r_epik_Charging_Adjusted_Penalty>  (287) 
0.0186766

>  <i_epik_Tot_Q>  (287) 
0

>  <i_epik_Tot_abs_Q>  (287) 
0

>  <s_lp_Force_Field>  (287) 
OPLS3e

>  <r_lp_Energy>  (287) 
14.4517

>  <b_lp_Chiralities_Consistent>  (287) 
0

>  <s_lp_Variant>  (287) 
99:0-1

>  <s_i_glide_gridfile>  (287) 
pfpi4k_grid

>  <i_i_glide_lignum>  (287) 
8

>  <i_i_glide_rotatable_bonds>  (287) 
0

>  <r_i_docking_score>  (287) 
-3.95608

>  <r_i_glide_ligand_efficiency>  (287) 
-0.329674

>  <r_i_glide_ligand_efficiency_sa>  (287) 
-0.754764

>  <r_i_glide_ligand_efficiency_ln>  (287) 
-1.1352

>  <r_i_glide_gscore>  (287) 
-3.95608

>  <r_i_glide_lipo>  (287) 
-0.186068

>  <r_i_glide_hbond>  (287) 
-0.199534

>  <r_i_glide_metal>  (287) 
-0

>  <r_i_glide_rewards>  (287) 
-2.50519

>  <r_i_glide_evdw>  (287) 
-19.0658

>  <r_i_glide_ecoul>  (287) 
-0.74669

>  <r_i_glide_erotb>  (287) 
0

>  <r_i_glide_esite>  (287) 
0

>  <r_i_glide_emodel>  (287) 
-24.659

>  <r_i_glide_energy>  (287) 
-19.8125

>  <r_i_glide_einternal>  (287) 
0

>  <r_i_glide_intrahb_reward>  (287) 
-0

>  <i_i_glide_confnum>  (287) 
1

>  <i_i_glide_posenum>  (287) 
2

>  <r_i_glide_eff_state_penalty>  (287) 
0

>  <ligand_id>  (287) 
99

>  <original_smiles>  (287) 
CC1(C)C2CC3=NC(=O)CC3C21

>  <smiles>  (287) 
[H]C1=C2C([H])(N([H])C1=O)C([H])([H])C1([H])C2([H])C1(C([H])([H])[H])C([H])([H])[H]

$$$$
99:0:1
     RDKit          3D

 25 27  0  0  1  0  0  0  0  0999 V2000
    3.8074   -0.3643   -3.4002 C   0  0  0  0  0  0  0  0  0  0  0  0
    3.9171   -1.6600   -2.6277 C   0  0  0  0  0  0  0  0  0  0  0  0
    3.0111   -2.7105   -3.2345 C   0  0  0  0  0  0  0  0  0  0  0  0
    5.2571   -2.0554   -2.0510 C   0  0  2  0  0  0  0  0  0  0  0  0
    5.6865   -3.4618   -1.6275 C   0  0  0  0  0  0  0  0  0  0  0  0
    5.1298   -3.6144   -0.2016 C   0  0  2  0  0  0  0  0  0  0  0  0
    4.5003   -4.8633    0.1954 N   0  0  0  0  0  0  0  0  0  0  0  0
    3.2209   -4.6913    0.6010 C   0  0  0  0  0  0  0  0  0  0  0  0
    2.5097   -5.5486    1.1053 O   0  0  0  0  0  0  0  0  0  0  0  0
    2.8601   -3.3202    0.2642 C   0  0  0  0  0  0  0  0  0  0  0  0
    3.9391   -2.7366   -0.2186 C   0  0  0  0  0  0  0  0  0  0  0  0
    4.1410   -1.6071   -1.1379 C   0  0  2  0  0  0  0  0  0  0  0  0
    4.0867   -0.4991   -4.4455 H   0  0  0  0  0  0  0  0  0  0  0  0
    4.4560    0.3951   -2.9669 H   0  0  0  0  0  0  0  0  0  0  0  0
    2.7849    0.0168   -3.3591 H   0  0  0  0  0  0  0  0  0  0  0  0
    3.0968   -3.6434   -2.6780 H   0  0  0  0  0  0  0  0  0  0  0  0
    3.2836   -2.9011   -4.2758 H   0  0  0  0  0  0  0  0  0  0  0  0
    1.9698   -2.3817   -3.1798 H   0  0  0  0  0  0  0  0  0  0  0  0
    6.0720   -1.3633   -2.2032 H   0  0  0  0  0  0  0  0  0  0  0  0
    5.2783   -4.1975   -2.3305 H   0  0  0  0  0  0  0  0  0  0  0  0
    6.7733   -3.5558   -1.6444 H   0  0  0  0  0  0  0  0  0  0  0  0
    1.8439   -2.9373    0.2051 H   0  0  0  0  0  0  0  0  0  0  0  0
    5.8237   -3.2428    0.5535 H   0  0  0  0  0  0  0  0  0  0  0  0
    5.0025   -5.7286    0.3063 H   0  0  0  0  0  0  0  0  0  0  0  0
    4.2730   -0.6604   -0.6320 H   0  0  0  0  0  0  0  0  0  0  0  0
  1  2  1  0
  1 13  1  0
  1 14  1  0
  1 15  1  0
  2 12  1  0
  2  3  1  0
  2  4  1  0
  3 16  1  0
  3 17  1  0
  3 18  1  0
  4 12  1  0
  4  5  1  0
  4 19  1  6
  5 20  1  0
  5 21  1  0
  5  6  1  0
  6 23  1  1
  6  7  1  0
  6 11  1  0
  7 24  1  0
  7  8  1  0
  8  9  2  0
  8 10  1  0
 10 22  1  0
 10 11  2  0
 11 12  1  0
 12 25  1  1
M  END
>  <i_m_ct_stereo_status>  (288) 
1

>  <s_m_source_file>  (288) 
/var/tmp/pbs.5076255.sched01/tmppy4q9rbr/123plv7d954.sdf

>  <i_m_source_file_index>  (288) 
8

>  <i_lp_mmshare_version>  (288) 
48012

>  <i_f3d_flags>  (288) 
2

>  <s_epik_input>  (288) 
W0NIM11DMShbQ0gzXSlbQ0BIXShbQ0BASF0xMilbQ0BIXTNDKFtDSDJdMik9TkMoPU8pW0NIMl0z

>  <s_epik_cmdline>  (288) 
J2VwaWtfcHl0aG9uJywgJy1waHQnLCAnMi4wJywgJy1waCcsICc3LjAnLCAnLXRuJywgJzgnLCAnLW1hJywgJzIwMCcsICctaW1hZScsICc8aW5maWxlLm1hZT4nLCAnLW9tYWUnLCAnPG91dGZpbGUubWFlPic=

>  <r_lp_tautomer_probability>  (288) 
0.961759

>  <r_epik_Ionization_Penalty>  (288) 
8.33476e-05

>  <r_epik_Ionization_Penalty_Charging>  (288) 
0

>  <r_epik_Ionization_Penalty_Neutral>  (288) 
8.33476e-05

>  <r_epik_State_Penalty>  (288) 
0.0186766

>  <r_epik_Charging_Adjusted_Penalty>  (288) 
0.0186766

>  <i_epik_Tot_Q>  (288) 
0

>  <i_epik_Tot_abs_Q>  (288) 
0

>  <s_lp_Force_Field>  (288) 
OPLS3e

>  <r_lp_Energy>  (288) 
14.4517

>  <b_lp_Chiralities_Consistent>  (288) 
0

>  <s_lp_Variant>  (288) 
99:0-1

>  <s_i_glide_gridfile>  (288) 
pfpi4k_grid

>  <i_i_glide_lignum>  (288) 
8

>  <i_i_glide_rotatable_bonds>  (288) 
0

>  <r_i_docking_score>  (288) 
-3.83703

>  <r_i_glide_ligand_efficiency>  (288) 
-0.319752

>  <r_i_glide_ligand_efficiency_sa>  (288) 
-0.73205

>  <r_i_glide_ligand_efficiency_ln>  (288) 
-1.10104

>  <r_i_glide_gscore>  (288) 
-3.83703

>  <r_i_glide_lipo>  (288) 
-0.498575

>  <r_i_glide_hbond>  (288) 
0

>  <r_i_glide_metal>  (288) 
-0

>  <r_i_glide_rewards>  (288) 
-2.25

>  <r_i_glide_evdw>  (288) 
-20.2637

>  <r_i_glide_ecoul>  (288) 
-0.425598

>  <r_i_glide_erotb>  (288) 
0

>  <r_i_glide_esite>  (288) 
-0.0114231

>  <r_i_glide_emodel>  (288) 
-25.4366

>  <r_i_glide_energy>  (288) 
-20.6893

>  <r_i_glide_einternal>  (288) 
0

>  <r_i_glide_intrahb_reward>  (288) 
-0

>  <i_i_glide_confnum>  (288) 
1

>  <i_i_glide_posenum>  (288) 
10

>  <r_i_glide_eff_state_penalty>  (288) 
0

>  <ligand_id>  (288) 
99

>  <original_smiles>  (288) 
CC1(C)C2CC3=NC(=O)CC3C21

>  <smiles>  (288) 
[H]C1=C2C([H])(N([H])C1=O)C([H])([H])C1([H])C2([H])C1(C([H])([H])[H])C([H])([H])[H]

$$$$
99:0:2
     RDKit          3D

 25 27  0  0  1  0  0  0  0  0999 V2000
    3.5336   -0.9555   -3.7161 C   0  0  0  0  0  0  0  0  0  0  0  0
    3.5834   -2.0403   -2.6592 C   0  0  0  0  0  0  0  0  0  0  0  0
    2.4457   -3.0282   -2.8495 C   0  0  0  0  0  0  0  0  0  0  0  0
    4.9218   -2.5304   -2.1795 C   0  0  2  0  0  0  0  0  0  0  0  0
    5.2044   -3.8563   -1.4704 C   0  0  0  0  0  0  0  0  0  0  0  0
    4.8873   -3.5675    0.0029 C   0  0  2  0  0  0  0  0  0  0  0  0
    4.1678   -4.5600    0.7836 N   0  0  0  0  0  0  0  0  0  0  0  0
    3.0224   -4.0694    1.3126 C   0  0  0  0  0  0  0  0  0  0  0  0
    2.3054   -4.6562    2.1086 O   0  0  0  0  0  0  0  0  0  0  0  0
    2.8085   -2.7655    0.7015 C   0  0  0  0  0  0  0  0  0  0  0  0
    3.8585   -2.5101   -0.0676 C   0  0  0  0  0  0  0  0  0  0  0  0
    4.0542   -1.6912   -1.2720 C   0  0  2  0  0  0  0  0  0  0  0  0
    3.5970   -1.3799   -4.7182 H   0  0  0  0  0  0  0  0  0  0  0  0
    4.3548   -0.2540   -3.5802 H   0  0  0  0  0  0  0  0  0  0  0  0
    2.6139   -0.3849   -3.6330 H   0  0  0  0  0  0  0  0  0  0  0  0
    2.4885   -3.8022   -2.0860 H   0  0  0  0  0  0  0  0  0  0  0  0
    2.5026   -3.5035   -3.8325 H   0  0  0  0  0  0  0  0  0  0  0  0
    1.4862   -2.5182   -2.7396 H   0  0  0  0  0  0  0  0  0  0  0  0
    5.7880   -2.0676   -2.6325 H   0  0  0  0  0  0  0  0  0  0  0  0
    4.5960   -4.6458   -1.9096 H   0  0  0  0  0  0  0  0  0  0  0  0
    6.2411   -4.1468   -1.5903 H   0  0  0  0  0  0  0  0  0  0  0  0
    1.8603   -2.2472    0.6880 H   0  0  0  0  0  0  0  0  0  0  0  0
    5.7476   -3.1661    0.5366 H   0  0  0  0  0  0  0  0  0  0  0  0
    4.5615   -5.4453    1.0509 H   0  0  0  0  0  0  0  0  0  0  0  0
    4.4120   -0.6937   -1.0506 H   0  0  0  0  0  0  0  0  0  0  0  0
  1  2  1  0
  1 13  1  0
  1 14  1  0
  1 15  1  0
  2 12  1  0
  2  3  1  0
  2  4  1  0
  3 16  1  0
  3 17  1  0
  3 18  1  0
  4 12  1  0
  4  5  1  0
  4 19  1  6
  5 20  1  0
  5 21  1  0
  5  6  1  0
  6 23  1  1
  6  7  1  0
  6 11  1  0
  7 24  1  0
  7  8  1  0
  8  9  2  0
  8 10  1  0
 10 22  1  0
 10 11  2  0
 11 12  1  0
 12 25  1  1
M  END
>  <i_m_ct_stereo_status>  (289) 
1

>  <s_m_source_file>  (289) 
/var/tmp/pbs.5076255.sched01/tmppy4q9rbr/123plv7d954.sdf

>  <i_m_source_file_index>  (289) 
8

>  <i_lp_mmshare_version>  (289) 
48012

>  <i_f3d_flags>  (289) 
2

>  <s_epik_input>  (289) 
W0NIM11DMShbQ0gzXSlbQ0BIXShbQ0BASF0xMilbQ0BIXTNDKFtDSDJdMik9TkMoPU8pW0NIMl0z

>  <s_epik_cmdline>  (289) 
J2VwaWtfcHl0aG9uJywgJy1waHQnLCAnMi4wJywgJy1waCcsICc3LjAnLCAnLXRuJywgJzgnLCAnLW1hJywgJzIwMCcsICctaW1hZScsICc8aW5maWxlLm1hZT4nLCAnLW9tYWUnLCAnPG91dGZpbGUubWFlPic=

>  <r_lp_tautomer_probability>  (289) 
0.961759

>  <r_epik_Ionization_Penalty>  (289) 
8.33476e-05

>  <r_epik_Ionization_Penalty_Charging>  (289) 
0

>  <r_epik_Ionization_Penalty_Neutral>  (289) 
8.33476e-05

>  <r_epik_State_Penalty>  (289) 
0.0186766

>  <r_epik_Charging_Adjusted_Penalty>  (289) 
0.0186766

>  <i_epik_Tot_Q>  (289) 
0

>  <i_epik_Tot_abs_Q>  (289) 
0

>  <s_lp_Force_Field>  (289) 
OPLS3e

>  <r_lp_Energy>  (289) 
14.4517

>  <b_lp_Chiralities_Consistent>  (289) 
0

>  <s_lp_Variant>  (289) 
99:0-1

>  <s_i_glide_gridfile>  (289) 
pfpi4k_grid

>  <i_i_glide_lignum>  (289) 
8

>  <i_i_glide_rotatable_bonds>  (289) 
0

>  <r_i_docking_score>  (289) 
-3.62245

>  <r_i_glide_ligand_efficiency>  (289) 
-0.30187

>  <r_i_glide_ligand_efficiency_sa>  (289) 
-0.691111

>  <r_i_glide_ligand_efficiency_ln>  (289) 
-1.03947

>  <r_i_glide_gscore>  (289) 
-3.62245

>  <r_i_glide_lipo>  (289) 
-0.422966

>  <r_i_glide_hbond>  (289) 
0

>  <r_i_glide_metal>  (289) 
-0

>  <r_i_glide_rewards>  (289) 
-2.25

>  <r_i_glide_evdw>  (289) 
-18.055

>  <r_i_glide_ecoul>  (289) 
-0.288578

>  <r_i_glide_erotb>  (289) 
0

>  <r_i_glide_esite>  (289) 
-0.00344405

>  <r_i_glide_emodel>  (289) 
-22.8043

>  <r_i_glide_energy>  (289) 
-18.3435

>  <r_i_glide_einternal>  (289) 
0

>  <r_i_glide_intrahb_reward>  (289) 
-0

>  <i_i_glide_confnum>  (289) 
2

>  <i_i_glide_posenum>  (289) 
35

>  <r_i_glide_eff_state_penalty>  (289) 
0

>  <ligand_id>  (289) 
99

>  <original_smiles>  (289) 
CC1(C)C2CC3=NC(=O)CC3C21

>  <smiles>  (289) 
[H]C1=C2C([H])(N([H])C1=O)C([H])([H])C1([H])C2([H])C1(C([H])([H])[H])C([H])([H])[H]

$$$$
99:1:0
     RDKit          3D

 25 27  0  0  1  0  0  0  0  0999 V2000
    4.5310   -4.8191    1.6684 C   0  0  0  0  0  0  0  0  0  0  0  0
    4.3677   -3.6660    0.6940 C   0  0  0  0  0  0  0  0  0  0  0  0
    2.9493   -3.1238    0.7470 C   0  0  0  0  0  0  0  0  0  0  0  0
    5.5281   -2.7070    0.5036 C   0  0  2  0  0  0  0  0  0  0  0  0
    5.4018   -1.2599   -0.0170 C   0  0  0  0  0  0  0  0  0  0  0  0
    4.9825   -1.5522   -1.4273 C   0  0  0  0  0  0  0  0  0  0  0  0
    4.5799   -0.7247   -2.4502 N   0  0  0  0  0  0  0  0  0  0  0  0
    4.2007   -1.4893   -3.4966 C   0  0  0  0  0  0  0  0  0  0  0  0
    3.8405   -1.0870   -4.5990 O   0  0  0  0  0  0  0  0  0  0  0  0
    4.3304   -2.9840   -3.1299 C   0  0  0  0  0  0  0  0  0  0  0  0
    4.8584   -2.8106   -1.7408 C   0  0  0  0  0  0  0  0  0  0  0  0
    5.1378   -3.7038   -0.6111 C   0  0  2  0  0  0  0  0  0  0  0  0
    4.3163   -4.5056    2.6925 H   0  0  0  0  0  0  0  0  0  0  0  0
    5.5536   -5.2013    1.6419 H   0  0  0  0  0  0  0  0  0  0  0  0
    3.8606   -5.6390    1.4093 H   0  0  0  0  0  0  0  0  0  0  0  0
    2.8166   -2.2983    0.0486 H   0  0  0  0  0  0  0  0  0  0  0  0
    2.7079   -2.7493    1.7442 H   0  0  0  0  0  0  0  0  0  0  0  0
    2.2369   -3.9004    0.4702 H   0  0  0  0  0  0  0  0  0  0  0  0
    6.4234   -2.9107    1.0809 H   0  0  0  0  0  0  0  0  0  0  0  0
    4.6594   -0.7033    0.5491 H   0  0  0  0  0  0  0  0  0  0  0  0
    6.3579   -0.7391    0.0161 H   0  0  0  0  0  0  0  0  0  0  0  0
    3.3711   -3.4943   -3.1560 H   0  0  0  0  0  0  0  0  0  0  0  0
    4.5604    0.2855   -2.3758 H   0  0  0  0  0  0  0  0  0  0  0  0
    5.0384   -3.5072   -3.7654 H   0  0  0  0  0  0  0  0  0  0  0  0
    5.8316   -4.5112   -0.8282 H   0  0  0  0  0  0  0  0  0  0  0  0
  1  2  1  0
  1 13  1  0
  1 14  1  0
  1 15  1  0
  2 12  1  0
  2  3  1  0
  2  4  1  0
  3 16  1  0
  3 17  1  0
  3 18  1  0
  4 12  1  0
  4  5  1  0
  4 19  1  1
  5 20  1  0
  5 21  1  0
  5  6  1  0
  6  7  1  0
  6 11  2  0
  7 23  1  0
  7  8  1  0
  8  9  2  0
  8 10  1  0
 10 22  1  0
 10 24  1  0
 10 11  1  0
 11 12  1  0
 12 25  1  6
M  END
>  <i_m_ct_stereo_status>  (290) 
1

>  <s_m_source_file>  (290) 
/var/tmp/pbs.5076255.sched01/tmppy4q9rbr/123plv7d954.sdf

>  <i_m_source_file_index>  (290) 
9

>  <i_lp_mmshare_version>  (290) 
48012

>  <i_f3d_flags>  (290) 
2

>  <s_epik_input>  (290) 
W0NIM11DMShbQ0gzXSlbQ0BIXShbQ0BASF0xMilbQ0BIXTNDKFtDSDJdMik9TkMoPU8pW0NIMl0z

>  <s_epik_cmdline>  (290) 
J2VwaWtfcHl0aG9uJywgJy1waHQnLCAnMi4wJywgJy1waCcsICc3LjAnLCAnLXRuJywgJzgnLCAnLW1hJywgJzIwMCcsICctaW1hZScsICc8aW5maWxlLm1hZT4nLCAnLW9tYWUnLCAnPG91dGZpbGUubWFlPic=

>  <r_lp_tautomer_probability>  (290) 
0.0382384

>  <r_epik_Ionization_Penalty>  (290) 
2.1361e-08

>  <r_epik_Ionization_Penalty_Charging>  (290) 
0

>  <r_epik_Ionization_Penalty_Neutral>  (290) 
2.1361e-08

>  <r_epik_State_Penalty>  (290) 
2.05757

>  <r_epik_Charging_Adjusted_Penalty>  (290) 
2.05757

>  <i_epik_Tot_Q>  (290) 
0

>  <i_epik_Tot_abs_Q>  (290) 
0

>  <s_lp_Force_Field>  (290) 
OPLS3e

>  <r_lp_Energy>  (290) 
-0.593923

>  <b_lp_Chiralities_Consistent>  (290) 
0

>  <s_lp_Variant>  (290) 
99:0-2

>  <s_i_glide_gridfile>  (290) 
pfpi4k_grid

>  <i_i_glide_lignum>  (290) 
9

>  <i_i_glide_rotatable_bonds>  (290) 
0

>  <r_i_docking_score>  (290) 
-4.53489

>  <r_i_glide_ligand_efficiency>  (290) 
-0.377908

>  <r_i_glide_ligand_efficiency_sa>  (290) 
-0.865192

>  <r_i_glide_ligand_efficiency_ln>  (290) 
-1.30129

>  <r_i_glide_gscore>  (290) 
-4.53489

>  <r_i_glide_lipo>  (290) 
-0.262736

>  <r_i_glide_hbond>  (290) 
-0.37763

>  <r_i_glide_metal>  (290) 
-0

>  <r_i_glide_rewards>  (290) 
-2.48494

>  <r_i_glide_evdw>  (290) 
-20.5062

>  <r_i_glide_ecoul>  (290) 
-2.47133

>  <r_i_glide_erotb>  (290) 
0

>  <r_i_glide_esite>  (290) 
-0.0135694

>  <r_i_glide_emodel>  (290) 
-29.2297

>  <r_i_glide_energy>  (290) 
-22.9775

>  <r_i_glide_einternal>  (290) 
0

>  <r_i_glide_intrahb_reward>  (290) 
-0

>  <i_i_glide_confnum>  (290) 
2

>  <i_i_glide_posenum>  (290) 
10

>  <r_i_glide_eff_state_penalty>  (290) 
0

>  <ligand_id>  (290) 
99

>  <original_smiles>  (290) 
CC1(C)C2CC3=NC(=O)CC3C21

>  <smiles>  (290) 
[H]N1C(=O)C([H])([H])C2=C1C([H])([H])C1([H])C2([H])C1(C([H])([H])[H])C([H])([H])[H]

$$$$
99:1:1
     RDKit          3D

 25 27  0  0  1  0  0  0  0  0999 V2000
    3.0420   -0.6161   -3.9855 C   0  0  0  0  0  0  0  0  0  0  0  0
    3.3251   -1.8399   -3.1298 C   0  0  0  0  0  0  0  0  0  0  0  0
    2.1598   -2.7958   -3.1326 C   0  0  0  0  0  0  0  0  0  0  0  0
    4.7061   -2.4158   -3.1138 C   0  0  2  0  0  0  0  0  0  0  0  0
    5.0398   -3.8567   -2.7410 C   0  0  0  0  0  0  0  0  0  0  0  0
    4.7214   -3.8167   -1.2808 C   0  0  0  0  0  0  0  0  0  0  0  0
    4.6901   -4.8019   -0.3203 N   0  0  0  0  0  0  0  0  0  0  0  0
    4.2189   -4.2636    0.8260 C   0  0  0  0  0  0  0  0  0  0  0  0
    4.0726   -4.8438    1.8911 O   0  0  0  0  0  0  0  0  0  0  0  0
    3.8799   -2.7676    0.6077 C   0  0  0  0  0  0  0  0  0  0  0  0
    4.2798   -2.6749   -0.8279 C   0  0  0  0  0  0  0  0  0  0  0  0
    4.1703   -1.6576   -1.8783 C   0  0  2  0  0  0  0  0  0  0  0  0
    2.8055   -0.9017   -5.0114 H   0  0  0  0  0  0  0  0  0  0  0  0
    3.9174    0.0320   -4.0077 H   0  0  0  0  0  0  0  0  0  0  0  0
    2.2136   -0.0229   -3.5872 H   0  0  0  0  0  0  0  0  0  0  0  0
    2.3283   -3.6749   -2.5138 H   0  0  0  0  0  0  0  0  0  0  0  0
    1.8776   -3.1186   -4.1401 H   0  0  0  0  0  0  0  0  0  0  0  0
    1.3324   -2.2884   -2.6662 H   0  0  0  0  0  0  0  0  0  0  0  0
    5.4070   -1.9441   -3.7738 H   0  0  0  0  0  0  0  0  0  0  0  0
    4.4488   -4.5691   -3.3154 H   0  0  0  0  0  0  0  0  0  0  0  0
    6.0928   -4.0513   -2.8936 H   0  0  0  0  0  0  0  0  0  0  0  0
    2.8215   -2.5608    0.7604 H   0  0  0  0  0  0  0  0  0  0  0  0
    4.9349   -5.7723   -0.4990 H   0  0  0  0  0  0  0  0  0  0  0  0
    4.4812   -2.1099    1.2313 H   0  0  0  0  0  0  0  0  0  0  0  0
    4.6401   -0.7080   -1.6354 H   0  0  0  0  0  0  0  0  0  0  0  0
  1  2  1  0
  1 13  1  0
  1 14  1  0
  1 15  1  0
  2 12  1  0
  2  3  1  0
  2  4  1  0
  3 16  1  0
  3 17  1  0
  3 18  1  0
  4 12  1  0
  4  5  1  0
  4 19  1  6
  5 20  1  0
  5 21  1  0
  5  6  1  0
  6  7  1  0
  6 11  2  0
  7 23  1  0
  7  8  1  0
  8  9  2  0
  8 10  1  0
 10 22  1  0
 10 24  1  0
 10 11  1  0
 11 12  1  0
 12 25  1  1
M  END
>  <i_m_ct_stereo_status>  (291) 
1

>  <s_m_source_file>  (291) 
/var/tmp/pbs.5076255.sched01/tmppy4q9rbr/123plv7d954.sdf

>  <i_m_source_file_index>  (291) 
9

>  <i_lp_mmshare_version>  (291) 
48012

>  <i_f3d_flags>  (291) 
2

>  <s_epik_input>  (291) 
W0NIM11DMShbQ0gzXSlbQ0BIXShbQ0BASF0xMilbQ0BIXTNDKFtDSDJdMik9TkMoPU8pW0NIMl0z

>  <s_epik_cmdline>  (291) 
J2VwaWtfcHl0aG9uJywgJy1waHQnLCAnMi4wJywgJy1waCcsICc3LjAnLCAnLXRuJywgJzgnLCAnLW1hJywgJzIwMCcsICctaW1hZScsICc8aW5maWxlLm1hZT4nLCAnLW9tYWUnLCAnPG91dGZpbGUubWFlPic=

>  <r_lp_tautomer_probability>  (291) 
0.0382384

>  <r_epik_Ionization_Penalty>  (291) 
2.1361e-08

>  <r_epik_Ionization_Penalty_Charging>  (291) 
0

>  <r_epik_Ionization_Penalty_Neutral>  (291) 
2.1361e-08

>  <r_epik_State_Penalty>  (291) 
2.05757

>  <r_epik_Charging_Adjusted_Penalty>  (291) 
2.05757

>  <i_epik_Tot_Q>  (291) 
0

>  <i_epik_Tot_abs_Q>  (291) 
0

>  <s_lp_Force_Field>  (291) 
OPLS3e

>  <r_lp_Energy>  (291) 
-0.593923

>  <b_lp_Chiralities_Consistent>  (291) 
0

>  <s_lp_Variant>  (291) 
99:0-2

>  <s_i_glide_gridfile>  (291) 
pfpi4k_grid

>  <i_i_glide_lignum>  (291) 
9

>  <i_i_glide_rotatable_bonds>  (291) 
0

>  <r_i_docking_score>  (291) 
-3.7425

>  <r_i_glide_ligand_efficiency>  (291) 
-0.311875

>  <r_i_glide_ligand_efficiency_sa>  (291) 
-0.714015

>  <r_i_glide_ligand_efficiency_ln>  (291) 
-1.07392

>  <r_i_glide_gscore>  (291) 
-3.7425

>  <r_i_glide_lipo>  (291) 
-0.525085

>  <r_i_glide_hbond>  (291) 
0

>  <r_i_glide_metal>  (291) 
-0

>  <r_i_glide_rewards>  (291) 
-2.284

>  <r_i_glide_evdw>  (291) 
-15.8029

>  <r_i_glide_ecoul>  (291) 
-0.894939

>  <r_i_glide_erotb>  (291) 
0

>  <r_i_glide_esite>  (291) 
-0.00902154

>  <r_i_glide_emodel>  (291) 
-21.7571

>  <r_i_glide_energy>  (291) 
-16.6979

>  <r_i_glide_einternal>  (291) 
0

>  <r_i_glide_intrahb_reward>  (291) 
-0

>  <i_i_glide_confnum>  (291) 
1

>  <i_i_glide_posenum>  (291) 
11

>  <r_i_glide_eff_state_penalty>  (291) 
0

>  <ligand_id>  (291) 
99

>  <original_smiles>  (291) 
CC1(C)C2CC3=NC(=O)CC3C21

>  <smiles>  (291) 
[H]N1C(=O)C([H])([H])C2=C1C([H])([H])C1([H])C2([H])C1(C([H])([H])[H])C([H])([H])[H]

$$$$
99:1:2
     RDKit          3D

 25 27  0  0  1  0  0  0  0  0999 V2000
    3.5365   -0.8956   -3.8116 C   0  0  0  0  0  0  0  0  0  0  0  0
    3.5510   -2.0103   -2.7837 C   0  0  0  0  0  0  0  0  0  0  0  0
    2.4474   -3.0233   -3.0691 C   0  0  0  0  0  0  0  0  0  0  0  0
    4.8926   -2.4946   -2.2687 C   0  0  2  0  0  0  0  0  0  0  0  0
    5.1491   -3.8734   -1.6413 C   0  0  0  0  0  0  0  0  0  0  0  0
    4.3551   -3.7264   -0.3823 C   0  0  0  0  0  0  0  0  0  0  0  0
    4.0474   -4.6218    0.6186 N   0  0  0  0  0  0  0  0  0  0  0  0
    3.2080   -4.0165    1.4845 C   0  0  0  0  0  0  0  0  0  0  0  0
    2.7272   -4.5184    2.4979 O   0  0  0  0  0  0  0  0  0  0  0  0
    2.9129   -2.5780    1.0141 C   0  0  0  0  0  0  0  0  0  0  0  0
    3.7471   -2.5840   -0.2225 C   0  0  0  0  0  0  0  0  0  0  0  0
    3.9538   -1.6751   -1.3596 C   0  0  2  0  0  0  0  0  0  0  0  0
    3.6621   -1.2860   -4.8235 H   0  0  0  0  0  0  0  0  0  0  0  0
    4.3379   -0.1818   -3.6124 H   0  0  0  0  0  0  0  0  0  0  0  0
    2.5987   -0.3472   -3.7658 H   0  0  0  0  0  0  0  0  0  0  0  0
    2.4491   -3.8243   -2.3329 H   0  0  0  0  0  0  0  0  0  0  0  0
    2.5693   -3.4756   -4.0540 H   0  0  0  0  0  0  0  0  0  0  0  0
    1.4689   -2.5492   -3.0158 H   0  0  0  0  0  0  0  0  0  0  0  0
    5.7739   -2.0109   -2.6745 H   0  0  0  0  0  0  0  0  0  0  0  0
    4.7845   -4.6614   -2.2985 H   0  0  0  0  0  0  0  0  0  0  0  0
    6.2040   -4.0217   -1.4180 H   0  0  0  0  0  0  0  0  0  0  0  0
    1.8580   -2.4292    0.8037 H   0  0  0  0  0  0  0  0  0  0  0  0
    4.3881   -5.5715    0.6428 H   0  0  0  0  0  0  0  0  0  0  0  0
    3.2492   -1.8274    1.7235 H   0  0  0  0  0  0  0  0  0  0  0  0
    4.2773   -0.6758   -1.0829 H   0  0  0  0  0  0  0  0  0  0  0  0
  1  2  1  0
  1 13  1  0
  1 14  1  0
  1 15  1  0
  2 12  1  0
  2  3  1  0
  2  4  1  0
  3 16  1  0
  3 17  1  0
  3 18  1  0
  4 12  1  0
  4  5  1  0
  4 19  1  6
  5 20  1  0
  5 21  1  0
  5  6  1  0
  6  7  1  0
  6 11  2  0
  7 23  1  0
  7  8  1  0
  8  9  2  0
  8 10  1  0
 10 22  1  0
 10 24  1  0
 10 11  1  0
 11 12  1  0
 12 25  1  1
M  END
>  <i_m_ct_stereo_status>  (292) 
1

>  <s_m_source_file>  (292) 
/var/tmp/pbs.5076255.sched01/tmppy4q9rbr/123plv7d954.sdf

>  <i_m_source_file_index>  (292) 
9

>  <i_lp_mmshare_version>  (292) 
48012

>  <i_f3d_flags>  (292) 
2

>  <s_epik_input>  (292) 
W0NIM11DMShbQ0gzXSlbQ0BIXShbQ0BASF0xMilbQ0BIXTNDKFtDSDJdMik9TkMoPU8pW0NIMl0z

>  <s_epik_cmdline>  (292) 
J2VwaWtfcHl0aG9uJywgJy1waHQnLCAnMi4wJywgJy1waCcsICc3LjAnLCAnLXRuJywgJzgnLCAnLW1hJywgJzIwMCcsICctaW1hZScsICc8aW5maWxlLm1hZT4nLCAnLW9tYWUnLCAnPG91dGZpbGUubWFlPic=

>  <r_lp_tautomer_probability>  (292) 
0.0382384

>  <r_epik_Ionization_Penalty>  (292) 
2.1361e-08

>  <r_epik_Ionization_Penalty_Charging>  (292) 
0

>  <r_epik_Ionization_Penalty_Neutral>  (292) 
2.1361e-08

>  <r_epik_State_Penalty>  (292) 
2.05757

>  <r_epik_Charging_Adjusted_Penalty>  (292) 
2.05757

>  <i_epik_Tot_Q>  (292) 
0

>  <i_epik_Tot_abs_Q>  (292) 
0

>  <s_lp_Force_Field>  (292) 
OPLS3e

>  <r_lp_Energy>  (292) 
-0.593923

>  <b_lp_Chiralities_Consistent>  (292) 
0

>  <s_lp_Variant>  (292) 
99:0-2

>  <s_i_glide_gridfile>  (292) 
pfpi4k_grid

>  <i_i_glide_lignum>  (292) 
9

>  <i_i_glide_rotatable_bonds>  (292) 
0

>  <r_i_docking_score>  (292) 
-3.66838

>  <r_i_glide_ligand_efficiency>  (292) 
-0.305698

>  <r_i_glide_ligand_efficiency_sa>  (292) 
-0.699875

>  <r_i_glide_ligand_efficiency_ln>  (292) 
-1.05265

>  <r_i_glide_gscore>  (292) 
-3.66838

>  <r_i_glide_lipo>  (292) 
-0.440529

>  <r_i_glide_hbond>  (292) 
0

>  <r_i_glide_metal>  (292) 
-0

>  <r_i_glide_rewards>  (292) 
-2.25268

>  <r_i_glide_evdw>  (292) 
-19.046

>  <r_i_glide_ecoul>  (292) 
-0.15245

>  <r_i_glide_erotb>  (292) 
0

>  <r_i_glide_esite>  (292) 
0

>  <r_i_glide_emodel>  (292) 
-24.2435

>  <r_i_glide_energy>  (292) 
-19.1985

>  <r_i_glide_einternal>  (292) 
0

>  <r_i_glide_intrahb_reward>  (292) 
-0

>  <i_i_glide_confnum>  (292) 
2

>  <i_i_glide_posenum>  (292) 
2

>  <r_i_glide_eff_state_penalty>  (292) 
0

>  <ligand_id>  (292) 
99

>  <original_smiles>  (292) 
CC1(C)C2CC3=NC(=O)CC3C21

>  <smiles>  (292) 
[H]N1C(=O)C([H])([H])C2=C1C([H])([H])C1([H])C2([H])C1(C([H])([H])[H])C([H])([H])[H]

$$$$
100:0:0
     RDKit          3D

 95102  0  0  1  0  0  0  0  0999 V2000
    1.6482   -8.0734    1.5994 C   0  0  0  0  0  0  0  0  0  0  0  0
    2.0923   -7.0679    2.6577 C   0  0  2  0  0  0  0  0  0  0  0  0
    1.1930   -5.8018    2.5370 C   0  0  0  0  0  0  0  0  0  0  0  0
    1.0602   -4.6963    3.6688 C   0  0  0  0  0  0  0  0  0  0  0  0
    2.0628   -4.5449    4.8286 C   0  0  2  0  0  0  0  0  0  0  0  0
    2.7269   -5.7819    4.8395 O   0  0  0  0  0  0  0  0  0  0  0  0
    2.9235   -6.2503    6.2567 O   0  0  0  0  0  0  0  0  0  0  0  0
    3.2390   -5.1117    6.9937 C   0  0  2  0  0  0  0  0  0  0  0  0
    1.9992   -4.5142    7.2780 O   0  0  0  0  0  0  0  0  0  0  0  0
    1.1853   -4.4856    5.9730 O   0  0  0  0  0  0  0  0  0  0  0  0
    4.0810   -4.1583    6.0763 C   0  0  1  0  0  0  0  0  0  0  0  0
    5.4707   -4.8170    5.7055 C   0  0  0  0  0  0  0  0  0  0  0  0
    5.8738   -6.1407    4.8876 C   0  0  2  0  0  0  0  0  0  0  0  0
    7.0940   -6.0149    3.9498 C   0  0  0  0  0  0  0  0  0  0  0  0
    6.7701   -6.0897    2.4225 C   0  0  2  0  0  0  0  0  0  0  0  0
    5.9089   -4.9470    1.8706 C   0  0  0  0  0  0  0  0  0  0  0  0
    5.5688   -3.8733    2.5637 C   0  0  0  0  0  0  0  0  0  0  0  0
    4.3994   -2.8762    2.4139 C   0  0  2  0  0  0  0  0  0  0  0  0
    3.3285   -3.4403    1.4088 C   0  0  0  0  0  0  0  0  0  0  0  0
    3.2615   -2.6283    0.1044 C   0  0  2  0  0  0  0  0  0  0  0  0
    3.0644   -3.4542   -1.2076 C   0  0  1  0  0  0  0  0  0  0  0  0
    1.6191   -3.8968   -1.4247 C   0  0  0  0  0  0  0  0  0  0  0  0
    3.6722   -2.7434   -2.4420 C   0  0  1  0  0  0  0  0  0  0  0  0
    3.4916   -3.4846   -3.7762 C   0  0  0  0  0  0  0  0  0  0  0  0
    3.0305   -1.4985   -2.6353 O   0  0  0  0  0  0  0  0  0  0  0  0
    5.1808   -2.5050   -2.2233 C   0  0  0  0  0  0  0  0  0  0  0  0
    5.6098   -2.4118   -0.7515 C   0  0  0  0  0  0  0  0  0  0  0  0
    4.5138   -1.7668    0.1279 C   0  0  2  0  0  0  0  0  0  0  0  0
    4.8056   -1.5674    1.6372 C   0  0  2  0  0  0  0  0  0  0  0  0
    6.2630   -1.0807    1.7668 C   0  0  0  0  0  0  0  0  0  0  0  0
    3.8376   -0.4991    2.2110 C   0  0  0  0  0  0  0  0  0  0  0  0
    3.0351   -1.1301    3.3749 C   0  0  1  0  0  0  0  0  0  0  0  0
    1.7097   -1.3698    2.9711 O   0  0  0  0  0  0  0  0  0  0  0  0
    3.8412   -2.3963    3.8668 C   0  0  2  0  0  0  0  0  0  0  0  0
    4.9963   -1.6839    4.6504 C   0  0  0  0  0  0  0  0  0  0  0  0
    3.1328   -3.3620    5.0370 C   0  0  1  0  0  0  0  0  0  0  0  0
    2.4182   -2.2205    5.8848 C   0  0  0  0  0  0  0  0  0  0  0  0
    6.0387   -7.4221    2.1539 C   0  0  0  0  0  0  0  0  0  0  0  0
    4.7197   -7.5878    2.9699 C   0  0  2  0  0  0  0  0  0  0  0  0
    3.5779   -6.6951    2.4176 C   0  0  0  0  0  0  0  0  0  0  0  0
    5.0349   -7.3969    4.4804 C   0  0  0  0  0  0  0  0  0  0  0  0
    1.6331   -7.5756    0.6283 H   0  0  0  0  0  0  0  0  0  0  0  0
    0.6327   -8.4380    1.7690 H   0  0  0  0  0  0  0  0  0  0  0  0
    2.3091   -8.9426    1.5345 H   0  0  0  0  0  0  0  0  0  0  0  0
    1.9611   -7.5590    3.6313 H   0  0  0  0  0  0  0  0  0  0  0  0
    1.4485   -5.3276    1.5946 H   0  0  0  0  0  0  0  0  0  0  0  0
    0.1808   -6.1691    2.3735 H   0  0  0  0  0  0  0  0  0  0  0  0
    0.7902   -3.7220    3.2471 H   0  0  0  0  0  0  0  0  0  0  0  0
    0.1202   -4.9924    4.1481 H   0  0  0  0  0  0  0  0  0  0  0  0
    3.7552   -5.3484    7.9134 H   0  0  0  0  0  0  0  0  0  0  0  0
    4.3923   -3.4017    6.7909 H   0  0  0  0  0  0  0  0  0  0  0  0
    6.1476   -4.0200    5.4191 H   0  0  0  0  0  0  0  0  0  0  0  0
    5.8770   -5.0093    6.6992 H   0  0  0  0  0  0  0  0  0  0  0  0
    6.3751   -6.6223    5.7391 H   0  0  0  0  0  0  0  0  0  0  0  0
    7.6693   -5.1406    4.2170 H   0  0  0  0  0  0  0  0  0  0  0  0
    7.7801   -6.8362    4.1611 H   0  0  0  0  0  0  0  0  0  0  0  0
    7.7094   -6.0530    1.8522 H   0  0  0  0  0  0  0  0  0  0  0  0
    5.4298   -5.1811    0.9281 H   0  0  0  0  0  0  0  0  0  0  0  0
    6.1385   -3.7790    3.4545 H   0  0  0  0  0  0  0  0  0  0  0  0
    3.4930   -4.4671    1.1410 H   0  0  0  0  0  0  0  0  0  0  0  0
    2.3509   -3.4150    1.8570 H   0  0  0  0  0  0  0  0  0  0  0  0
    2.4314   -1.9393    0.2280 H   0  0  0  0  0  0  0  0  0  0  0  0
    3.6334   -4.3804   -1.0837 H   0  0  0  0  0  0  0  0  0  0  0  0
    0.9282   -3.0837   -1.6061 H   0  0  0  0  0  0  0  0  0  0  0  0
    1.3236   -4.4496   -0.5436 H   0  0  0  0  0  0  0  0  0  0  0  0
    1.4498   -4.5768   -2.2587 H   0  0  0  0  0  0  0  0  0  0  0  0
    3.9584   -4.4802   -3.7477 H   0  0  0  0  0  0  0  0  0  0  0  0
    3.9608   -2.9553   -4.6122 H   0  0  0  0  0  0  0  0  0  0  0  0
    2.4358   -3.6235   -4.0245 H   0  0  0  0  0  0  0  0  0  0  0  0
    2.3137   -1.4229   -2.0108 H   0  0  0  0  0  0  0  0  0  0  0  0
    5.7670   -3.3039   -2.6892 H   0  0  0  0  0  0  0  0  0  0  0  0
    5.4485   -1.5818   -2.7317 H   0  0  0  0  0  0  0  0  0  0  0  0
    5.8401   -3.4048   -0.3719 H   0  0  0  0  0  0  0  0  0  0  0  0
    6.5384   -1.8484   -0.7206 H   0  0  0  0  0  0  0  0  0  0  0  0
    4.3017   -0.7934   -0.3109 H   0  0  0  0  0  0  0  0  0  0  0  0
    6.4433   -0.2895    1.0403 H   0  0  0  0  0  0  0  0  0  0  0  0
    6.9824   -1.8743    1.5637 H   0  0  0  0  0  0  0  0  0  0  0  0
    6.5102   -0.6626    2.7408 H   0  0  0  0  0  0  0  0  0  0  0  0
    4.4073    0.3526    2.5918 H   0  0  0  0  0  0  0  0  0  0  0  0
    3.1756   -0.0613    1.4617 H   0  0  0  0  0  0  0  0  0  0  0  0
    2.9403   -0.3699    4.1428 H   0  0  0  0  0  0  0  0  0  0  0  0
    1.3686   -0.5746    2.5819 H   0  0  0  0  0  0  0  0  0  0  0  0
    4.9722   -1.7399    5.7288 H   0  0  0  0  0  0  0  0  0  0  0  0
    5.1041   -0.6222    4.4668 H   0  0  0  0  0  0  0  0  0  0  0  0
    5.9320   -2.1129    4.4036 H   0  0  0  0  0  0  0  0  0  0  0  0
    2.9778   -1.2993    6.0102 H   0  0  0  0  0  0  0  0  0  0  0  0
    2.2657   -2.4018    6.9318 H   0  0  0  0  0  0  0  0  0  0  0  0
    1.4415   -1.9619    5.4664 H   0  0  0  0  0  0  0  0  0  0  0  0
    5.8470   -7.5393    1.0872 H   0  0  0  0  0  0  0  0  0  0  0  0
    6.7231   -8.2290    2.4359 H   0  0  0  0  0  0  0  0  0  0  0  0
    4.3780   -8.6155    2.8138 H   0  0  0  0  0  0  0  0  0  0  0  0
    3.7120   -6.5963    1.3433 H   0  0  0  0  0  0  0  0  0  0  0  0
    3.7355   -5.7085    2.8189 H   0  0  0  0  0  0  0  0  0  0  0  0
    5.6695   -8.2499    4.7200 H   0  0  0  0  0  0  0  0  0  0  0  0
    4.1791   -7.6133    5.0969 H   0  0  0  0  0  0  0  0  0  0  0  0
  1  2  1  0
  1 42  1  0
  1 43  1  0
  1 44  1  0
  2 40  1  0
  2  3  1  0
  2 45  1  1
  3  4  1  0
  3 46  1  0
  3 47  1  0
  5  4  1  6
  4 48  1  0
  4 49  1  0
  5 10  1  0
  5 36  1  0
  5  6  1  0
  6  7  1  0
  7  8  1  0
  8  9  1  0
  8 11  1  0
  8 50  1  1
  9 10  1  0
 11 36  1  0
 11 12  1  0
 11 51  1  1
 12 13  1  0
 12 52  1  0
 12 53  1  0
 13 41  1  0
 13 14  1  0
 13 54  1  1
 14 15  1  0
 14 55  1  0
 14 56  1  0
 15 16  1  0
 15 38  1  0
 15 57  1  6
 16 17  2  3
 16 58  1  0
 17 18  1  0
 17 59  1  0
 18 29  1  0
 18 34  1  0
 18 19  1  6
 19 20  1  0
 19 60  1  0
 19 61  1  0
 20 28  1  0
 20 21  1  0
 20 62  1  1
 21 22  1  0
 21 23  1  0
 21 63  1  1
 22 64  1  0
 22 65  1  0
 22 66  1  0
 23 24  1  0
 23 25  1  6
 23 26  1  0
 24 67  1  0
 24 68  1  0
 24 69  1  0
 25 70  1  0
 26 27  1  0
 26 71  1  0
 26 72  1  0
 27 28  1  0
 27 73  1  0
 27 74  1  0
 28 29  1  0
 28 75  1  6
 29 30  1  6
 29 31  1  0
 30 76  1  0
 30 77  1  0
 30 78  1  0
 31 32  1  0
 31 79  1  0
 31 80  1  0
 32 33  1  0
 32 34  1  0
 32 81  1  1
 33 82  1  0
 34 35  1  1
 34 36  1  0
 35 83  1  0
 35 84  1  0
 35 85  1  0
 36 37  1  1
 37 86  1  0
 37 87  1  0
 37 88  1  0
 38 39  1  0
 38 89  1  0
 38 90  1  0
 39 40  1  0
 39 41  1  0
 39 91  1  1
 40 92  1  0
 40 93  1  0
 41 94  1  0
 41 95  1  0
M  END
>  <i_m_ct_stereo_status>  (293) 
1

>  <s_m_source_file>  (293) 
/var/tmp/pbs.5076255.sched01/tmppy4q9rbr/123plv7d954.sdf

>  <i_m_source_file_index>  (293) 
10

>  <i_lp_mmshare_version>  (293) 
48012

>  <i_f3d_flags>  (293) 
0

>  <s_epik_input>  (293) 
TzFPW0NASF0oT08yKVtDQEhdKFtDQEBdMyhbQ0BAXTEyNClbQ0gzXSlbQ0gyXVtDQEBIXTVbQ0gyXVtDQEBIXShbQ0gyXVtDQEBIXShbQ0gyXTUpW0NIMl1bQ0BIXShbQ0gzXSlbQ0gyXVtDSDJdNCkvW0NIXT1bQ0hdL1tDQEBdNjdbQ0BdKFtDSDNdKShbQ0gyXVtDQEBIXShbT0hdKVtDQEBdMzdbQ0gzXSlbQ0BASF04W0NASF0oW0NIMl02KVtDQEBIXShbQ0gzXSlbQ0BAXShbQ0gzXSkoW09IXSlbQ0gyXVtDSDJdOA==

>  <s_epik_cmdline>  (293) 
J2VwaWtfcHl0aG9uJywgJy1waHQnLCAnMi4wJywgJy1waCcsICc3LjAnLCAnLXRuJywgJzgnLCAnLW1hJywgJzIwMCcsICctaW1hZScsICc8aW5maWxlLm1hZT4nLCAnLW9tYWUnLCAnPG91dGZpbGUubWFlPic=

>  <r_lp_tautomer_probability>  (293) 
1

>  <r_epik_Ionization_Penalty>  (293) 
3.00161e-06

>  <r_epik_Ionization_Penalty_Charging>  (293) 
0

>  <r_epik_Ionization_Penalty_Neutral>  (293) 
3.00161e-06

>  <r_epik_State_Penalty>  (293) 
-0

>  <r_epik_Charging_Adjusted_Penalty>  (293) 
0

>  <i_epik_Tot_Q>  (293) 
0

>  <i_epik_Tot_abs_Q>  (293) 
0

>  <s_epik_Chemistry_Notes>  (293) 
This compound contains an acetal/aminal-like group ( X-CH(R)-Y where X, Y are N, S, or O) that may be acid/base labile, releasing an aldehyde.

>  <s_lp_Force_Field>  (293) 
OPLS3e

>  <r_lp_Energy>  (293) 
234.661

>  <b_lp_Chiralities_Consistent>  (293) 
1

>  <s_lp_Variant>  (293) 
100:0-1

>  <s_i_glide_gridfile>  (293) 
pfpi4k_grid

>  <i_i_glide_lignum>  (293) 
10

>  <i_i_glide_rotatable_bonds>  (293) 
2

>  <r_i_docking_score>  (293) 
-2.37311

>  <r_i_glide_ligand_efficiency>  (293) 
-0.0578807

>  <r_i_glide_ligand_efficiency_sa>  (293) 
-0.199585

>  <r_i_glide_ligand_efficiency_ln>  (293) 
-0.503463

>  <r_i_glide_gscore>  (293) 
-2.37311

>  <r_i_glide_lipo>  (293) 
-0.680039

>  <r_i_glide_hbond>  (293) 
-0.16

>  <r_i_glide_metal>  (293) 
-0

>  <r_i_glide_rewards>  (293) 
-6.62227e-05

>  <r_i_glide_evdw>  (293) 
-24.7566

>  <r_i_glide_ecoul>  (293) 
-1.96785

>  <r_i_glide_erotb>  (293) 
0

>  <r_i_glide_esite>  (293) 
0

>  <r_i_glide_emodel>  (293) 
-29.7794

>  <r_i_glide_energy>  (293) 
-26.7244

>  <r_i_glide_einternal>  (293) 
1.59153

>  <r_i_glide_intrahb_reward>  (293) 
-0

>  <i_i_glide_confnum>  (293) 
1

>  <i_i_glide_posenum>  (293) 
3

>  <r_i_glide_eff_state_penalty>  (293) 
0

>  <ligand_id>  (293) 
100

>  <original_smiles>  (293) 
CC1CCC23OOC(OO2)C2CC4CC(C=CC56CC7C(C)C(C)(O)CCC7C5(C)CC(O)C6(C)C23C)CC(C1)C4

>  <smiles>  (293) 
[H]OC1([H])C([H])([H])C2(C([H])([H])[H])C3([H])C([H])([H])C([H])([H])C(O[H])(C([H])([H])[H])C([H])(C([H])([H])[H])C3([H])C([H])([H])C23C([H])=C([H])C2([H])C([H])([H])C4([H])C([H])([H])C([H])(C([H])([H])[H])C([H])([H])C([H])([H])C56OOC([H])(OO5)C([H])(C([H])([H])C([H])(C2([H])[H])C4([H])[H])C6(C([H])([H])[H])C13C([H])([H])[H]

$$$$
100:0:1
     RDKit          3D

 95102  0  0  1  0  0  0  0  0999 V2000
    1.0980    1.9265    3.2500 C   0  0  0  0  0  0  0  0  0  0  0  0
    1.7098    0.7940    4.1065 C   0  0  2  0  0  0  0  0  0  0  0  0
    0.5742   -0.1433    4.6641 C   0  0  0  0  0  0  0  0  0  0  0  0
    0.8191   -1.5966    5.2683 C   0  0  0  0  0  0  0  0  0  0  0  0
    2.2185   -2.1214    5.7152 C   0  0  2  0  0  0  0  0  0  0  0  0
    3.1060   -1.2646    5.0248 O   0  0  0  0  0  0  0  0  0  0  0  0
    4.3171   -2.0299    4.5332 O   0  0  0  0  0  0  0  0  0  0  0  0
    4.5792   -2.9983    5.4902 C   0  0  2  0  0  0  0  0  0  0  0  0
    3.6737   -4.0436    5.2375 O   0  0  0  0  0  0  0  0  0  0  0  0
    2.2652   -3.4261    5.0998 O   0  0  0  0  0  0  0  0  0  0  0  0
    4.3158   -2.3692    6.8962 C   0  0  1  0  0  0  0  0  0  0  0  0
    5.3162   -1.1775    7.1909 C   0  0  0  0  0  0  0  0  0  0  0  0
    5.5352    0.2595    6.5013 C   0  0  2  0  0  0  0  0  0  0  0  0
    5.7915    1.4579    7.4594 C   0  0  0  0  0  0  0  0  0  0  0  0
    4.6421    2.5028    7.4993 C   0  0  2  0  0  0  0  0  0  0  0  0
    3.3201    2.0158    8.0762 C   0  0  0  0  0  0  0  0  0  0  0  0
    3.1566    0.8276    8.6778 C   0  0  0  0  0  0  0  0  0  0  0  0
    1.8945   -0.0267    8.8483 C   0  0  2  0  0  0  0  0  0  0  0  0
    0.6905    0.5230    7.9861 C   0  0  0  0  0  0  0  0  0  0  0  0
   -0.4368    1.1231    8.8445 C   0  0  2  0  0  0  0  0  0  0  0  0
   -1.0969    2.4136    8.2724 C   0  0  1  0  0  0  0  0  0  0  0  0
   -2.1364    2.0958    7.1796 C   0  0  0  0  0  0  0  0  0  0  0  0
   -1.6672    3.2996    9.4118 C   0  0  1  0  0  0  0  0  0  0  0  0
   -2.3390    4.5901    8.8942 C   0  0  0  0  0  0  0  0  0  0  0  0
   -2.7027    2.6023   10.0827 O   0  0  0  0  0  0  0  0  0  0  0  0
   -0.5571    3.6802   10.4242 C   0  0  0  0  0  0  0  0  0  0  0  0
    0.6275    2.6990   10.4743 C   0  0  0  0  0  0  0  0  0  0  0  0
    0.1807    1.2431   10.2338 C   0  0  2  0  0  0  0  0  0  0  0  0
    1.2693    0.1284   10.2874 C   0  0  2  0  0  0  0  0  0  0  0  0
    2.2449    0.4306   11.4621 C   0  0  0  0  0  0  0  0  0  0  0  0
    0.5795   -1.2405   10.5134 C   0  0  0  0  0  0  0  0  0  0  0  0
    0.9516   -2.1719    9.3404 C   0  0  1  0  0  0  0  0  0  0  0  0
   -0.1402   -2.3427    8.4847 O   0  0  0  0  0  0  0  0  0  0  0  0
    2.2489   -1.6040    8.6533 C   0  0  2  0  0  0  0  0  0  0  0  0
    3.3460   -2.0128    9.7361 C   0  0  0  0  0  0  0  0  0  0  0  0
    2.7435   -2.3575    7.2358 C   0  0  1  0  0  0  0  0  0  0  0  0
    2.3827   -3.8633    7.6234 C   0  0  0  0  0  0  0  0  0  0  0  0
    4.3972    3.0136    6.0645 C   0  0  0  0  0  0  0  0  0  0  0  0
    3.9899    1.8946    5.0620 C   0  0  2  0  0  0  0  0  0  0  0  0
    2.5301    1.4129    5.2676 C   0  0  0  0  0  0  0  0  0  0  0  0
    5.0862    0.7927    5.0955 C   0  0  0  0  0  0  0  0  0  0  0  0
    0.3984    2.5439    3.8206 H   0  0  0  0  0  0  0  0  0  0  0  0
    0.5497    1.5359    2.3900 H   0  0  0  0  0  0  0  0  0  0  0  0
    1.8654    2.5954    2.8560 H   0  0  0  0  0  0  0  0  0  0  0  0
    2.3582    0.2275    3.4340 H   0  0  0  0  0  0  0  0  0  0  0  0
   -0.0115    0.4482    5.3635 H   0  0  0  0  0  0  0  0  0  0  0  0
   -0.1306   -0.2838    3.8405 H   0  0  0  0  0  0  0  0  0  0  0  0
    0.0502   -1.8377    5.9971 H   0  0  0  0  0  0  0  0  0  0  0  0
    0.5152   -2.2389    4.4380 H   0  0  0  0  0  0  0  0  0  0  0  0
    5.5903   -3.3799    5.4031 H   0  0  0  0  0  0  0  0  0  0  0  0
    4.7231   -3.1436    7.5411 H   0  0  0  0  0  0  0  0  0  0  0  0
    5.3377   -1.0304    8.2623 H   0  0  0  0  0  0  0  0  0  0  0  0
    6.2867   -1.6696    7.0870 H   0  0  0  0  0  0  0  0  0  0  0  0
    6.5737    0.0609    6.2217 H   0  0  0  0  0  0  0  0  0  0  0  0
    6.0322    1.1184    8.4655 H   0  0  0  0  0  0  0  0  0  0  0  0
    6.6889    1.9924    7.1361 H   0  0  0  0  0  0  0  0  0  0  0  0
    4.9451    3.3390    8.1343 H   0  0  0  0  0  0  0  0  0  0  0  0
    2.4696    2.6118    7.7889 H   0  0  0  0  0  0  0  0  0  0  0  0
    4.0704    0.3546    8.9300 H   0  0  0  0  0  0  0  0  0  0  0  0
    0.9760    1.2856    7.2847 H   0  0  0  0  0  0  0  0  0  0  0  0
    0.2620   -0.2516    7.3793 H   0  0  0  0  0  0  0  0  0  0  0  0
   -1.2033    0.3646    8.9327 H   0  0  0  0  0  0  0  0  0  0  0  0
   -0.3164    3.0095    7.8003 H   0  0  0  0  0  0  0  0  0  0  0  0
   -3.0321    1.6406    7.5916 H   0  0  0  0  0  0  0  0  0  0  0  0
   -1.7431    1.4246    6.4206 H   0  0  0  0  0  0  0  0  0  0  0  0
   -2.4527    2.9970    6.6602 H   0  0  0  0  0  0  0  0  0  0  0  0
   -1.6630    5.1634    8.2510 H   0  0  0  0  0  0  0  0  0  0  0  0
   -2.6408    5.2547    9.7131 H   0  0  0  0  0  0  0  0  0  0  0  0
   -3.2441    4.3878    8.3154 H   0  0  0  0  0  0  0  0  0  0  0  0
   -2.6020    2.6845   11.0277 H   0  0  0  0  0  0  0  0  0  0  0  0
   -0.1519    4.6673   10.1822 H   0  0  0  0  0  0  0  0  0  0  0  0
   -0.9887    3.7838   11.4231 H   0  0  0  0  0  0  0  0  0  0  0  0
    1.3462    2.9856    9.7120 H   0  0  0  0  0  0  0  0  0  0  0  0
    1.1218    2.8175   11.4359 H   0  0  0  0  0  0  0  0  0  0  0  0
   -0.5712    1.0332   10.9962 H   0  0  0  0  0  0  0  0  0  0  0  0
    1.6843    0.6639   12.3689 H   0  0  0  0  0  0  0  0  0  0  0  0
    2.8931    1.2844   11.2603 H   0  0  0  0  0  0  0  0  0  0  0  0
    2.8903   -0.4021   11.7290 H   0  0  0  0  0  0  0  0  0  0  0  0
    0.9241   -1.6792   11.4527 H   0  0  0  0  0  0  0  0  0  0  0  0
   -0.4977   -1.1698   10.6467 H   0  0  0  0  0  0  0  0  0  0  0  0
    1.0832   -3.1602    9.7678 H   0  0  0  0  0  0  0  0  0  0  0  0
    0.1171   -2.9313    7.7941 H   0  0  0  0  0  0  0  0  0  0  0  0
    3.9943   -2.8324    9.4545 H   0  0  0  0  0  0  0  0  0  0  0  0
    2.9259   -2.3716   10.6714 H   0  0  0  0  0  0  0  0  0  0  0  0
    4.0384   -1.2435   10.0507 H   0  0  0  0  0  0  0  0  0  0  0  0
    2.5516   -4.1340    8.6610 H   0  0  0  0  0  0  0  0  0  0  0  0
    2.9795   -4.6476    7.1826 H   0  0  0  0  0  0  0  0  0  0  0  0
    1.3509   -4.1260    7.3924 H   0  0  0  0  0  0  0  0  0  0  0  0
    3.6636    3.8201    6.0679 H   0  0  0  0  0  0  0  0  0  0  0  0
    5.3243    3.4787    5.7209 H   0  0  0  0  0  0  0  0  0  0  0  0
    4.0040    2.3574    4.0740 H   0  0  0  0  0  0  0  0  0  0  0  0
    1.9467    2.2544    5.6391 H   0  0  0  0  0  0  0  0  0  0  0  0
    2.5670    0.6810    6.0596 H   0  0  0  0  0  0  0  0  0  0  0  0
    5.9655    1.3075    4.7104 H   0  0  0  0  0  0  0  0  0  0  0  0
    4.9279    0.0588    4.3242 H   0  0  0  0  0  0  0  0  0  0  0  0
  1  2  1  0
  1 42  1  0
  1 43  1  0
  1 44  1  0
  2 40  1  0
  2  3  1  0
  2 45  1  6
  3  4  1  0
  3 46  1  0
  3 47  1  0
  5  4  1  1
  4 48  1  0
  4 49  1  0
  5 10  1  0
  5 36  1  0
  5  6  1  0
  6  7  1  0
  7  8  1  0
  8  9  1  0
  8 11  1  0
  8 50  1  1
  9 10  1  0
 11 36  1  0
 11 12  1  0
 11 51  1  1
 12 13  1  0
 12 52  1  0
 12 53  1  0
 13 41  1  0
 13 14  1  0
 13 54  1  6
 14 15  1  0
 14 55  1  0
 14 56  1  0
 15 16  1  0
 15 38  1  0
 15 57  1  1
 16 17  2  3
 16 58  1  0
 17 18  1  0
 17 59  1  0
 18 29  1  0
 18 34  1  0
 18 19  1  6
 19 20  1  0
 19 60  1  0
 19 61  1  0
 20 28  1  0
 20 21  1  0
 20 62  1  1
 21 22  1  0
 21 23  1  0
 21 63  1  6
 22 64  1  0
 22 65  1  0
 22 66  1  0
 23 24  1  0
 23 25  1  1
 23 26  1  0
 24 67  1  0
 24 68  1  0
 24 69  1  0
 25 70  1  0
 26 27  1  0
 26 71  1  0
 26 72  1  0
 27 28  1  0
 27 73  1  0
 27 74  1  0
 28 29  1  0
 28 75  1  1
 29 30  1  1
 29 31  1  0
 30 76  1  0
 30 77  1  0
 30 78  1  0
 31 32  1  0
 31 79  1  0
 31 80  1  0
 32 33  1  0
 32 34  1  0
 32 81  1  1
 33 82  1  0
 34 35  1  1
 34 36  1  0
 35 83  1  0
 35 84  1  0
 35 85  1  0
 36 37  1  1
 37 86  1  0
 37 87  1  0
 37 88  1  0
 38 39  1  0
 38 89  1  0
 38 90  1  0
 39 40  1  0
 39 41  1  0
 39 91  1  6
 40 92  1  0
 40 93  1  0
 41 94  1  0
 41 95  1  0
M  END
>  <i_m_ct_stereo_status>  (294) 
1

>  <s_m_source_file>  (294) 
/var/tmp/pbs.5076255.sched01/tmppy4q9rbr/123plv7d954.sdf

>  <i_m_source_file_index>  (294) 
10

>  <i_lp_mmshare_version>  (294) 
48012

>  <i_f3d_flags>  (294) 
0

>  <s_epik_input>  (294) 
TzFPW0NASF0oT08yKVtDQEhdKFtDQEBdMyhbQ0BAXTEyNClbQ0gzXSlbQ0gyXVtDQEBIXTVbQ0gyXVtDQEBIXShbQ0gyXVtDQEBIXShbQ0gyXTUpW0NIMl1bQ0BIXShbQ0gzXSlbQ0gyXVtDSDJdNCkvW0NIXT1bQ0hdL1tDQEBdNjdbQ0BdKFtDSDNdKShbQ0gyXVtDQEBIXShbT0hdKVtDQEBdMzdbQ0gzXSlbQ0BASF04W0NASF0oW0NIMl02KVtDQEBIXShbQ0gzXSlbQ0BAXShbQ0gzXSkoW09IXSlbQ0gyXVtDSDJdOA==

>  <s_epik_cmdline>  (294) 
J2VwaWtfcHl0aG9uJywgJy1waHQnLCAnMi4wJywgJy1waCcsICc3LjAnLCAnLXRuJywgJzgnLCAnLW1hJywgJzIwMCcsICctaW1hZScsICc8aW5maWxlLm1hZT4nLCAnLW9tYWUnLCAnPG91dGZpbGUubWFlPic=

>  <r_lp_tautomer_probability>  (294) 
1

>  <r_epik_Ionization_Penalty>  (294) 
3.00161e-06

>  <r_epik_Ionization_Penalty_Charging>  (294) 
0

>  <r_epik_Ionization_Penalty_Neutral>  (294) 
3.00161e-06

>  <r_epik_State_Penalty>  (294) 
-0

>  <r_epik_Charging_Adjusted_Penalty>  (294) 
0

>  <i_epik_Tot_Q>  (294) 
0

>  <i_epik_Tot_abs_Q>  (294) 
0

>  <s_epik_Chemistry_Notes>  (294) 
This compound contains an acetal/aminal-like group ( X-CH(R)-Y where X, Y are N, S, or O) that may be acid/base labile, releasing an aldehyde.

>  <s_lp_Force_Field>  (294) 
OPLS3e

>  <r_lp_Energy>  (294) 
234.661

>  <b_lp_Chiralities_Consistent>  (294) 
1

>  <s_lp_Variant>  (294) 
100:0-1

>  <s_i_glide_gridfile>  (294) 
pfpi4k_grid

>  <i_i_glide_lignum>  (294) 
10

>  <i_i_glide_rotatable_bonds>  (294) 
2

>  <r_i_docking_score>  (294) 
-2.18141

>  <r_i_glide_ligand_efficiency>  (294) 
-0.053205

>  <r_i_glide_ligand_efficiency_sa>  (294) 
-0.183462

>  <r_i_glide_ligand_efficiency_ln>  (294) 
-0.462792

>  <r_i_glide_gscore>  (294) 
-2.18141

>  <r_i_glide_lipo>  (294) 
-0.109593

>  <r_i_glide_hbond>  (294) 
-0.203025

>  <r_i_glide_metal>  (294) 
-0

>  <r_i_glide_rewards>  (294) 
-0.0117908

>  <r_i_glide_evdw>  (294) 
-21.5781

>  <r_i_glide_ecoul>  (294) 
-5.18727

>  <r_i_glide_erotb>  (294) 
0

>  <r_i_glide_esite>  (294) 
0

>  <r_i_glide_emodel>  (294) 
-29.6242

>  <r_i_glide_energy>  (294) 
-26.7654

>  <r_i_glide_einternal>  (294) 
1.22904

>  <r_i_glide_intrahb_reward>  (294) 
-0

>  <i_i_glide_confnum>  (294) 
1

>  <i_i_glide_posenum>  (294) 
33

>  <r_i_glide_eff_state_penalty>  (294) 
0

>  <ligand_id>  (294) 
100

>  <original_smiles>  (294) 
CC1CCC23OOC(OO2)C2CC4CC(C=CC56CC7C(C)C(C)(O)CCC7C5(C)CC(O)C6(C)C23C)CC(C1)C4

>  <smiles>  (294) 
[H]OC1([H])C([H])([H])C2(C([H])([H])[H])C3([H])C([H])([H])C([H])([H])C(O[H])(C([H])([H])[H])C([H])(C([H])([H])[H])C3([H])C([H])([H])C23C([H])=C([H])C2([H])C([H])([H])C4([H])C([H])([H])C([H])(C([H])([H])[H])C([H])([H])C([H])([H])C56OOC([H])(OO5)C([H])(C([H])([H])C([H])(C2([H])[H])C4([H])[H])C6(C([H])([H])[H])C13C([H])([H])[H]

$$$$
100:0:2
     RDKit          3D

 95102  0  0  1  0  0  0  0  0999 V2000
    2.9561    4.5988    3.0336 C   0  0  0  0  0  0  0  0  0  0  0  0
    2.5692    4.2130    4.4784 C   0  0  2  0  0  0  0  0  0  0  0  0
    3.7702    3.4963    5.2035 C   0  0  0  0  0  0  0  0  0  0  0  0
    3.8952    3.2834    6.7709 C   0  0  0  0  0  0  0  0  0  0  0  0
    2.6869    3.4289    7.7597 C   0  0  2  0  0  0  0  0  0  0  0  0
    1.7616    4.1965    7.0167 O   0  0  0  0  0  0  0  0  0  0  0  0
    1.0568    5.1926    7.8951 O   0  0  0  0  0  0  0  0  0  0  0  0
    0.8930    4.5782    9.1246 C   0  0  2  0  0  0  0  0  0  0  0  0
    2.1277    4.7118    9.7794 O   0  0  0  0  0  0  0  0  0  0  0  0
    3.2284    4.2728    8.7997 O   0  0  0  0  0  0  0  0  0  0  0  0
    0.5586    3.0686    8.8725 C   0  0  1  0  0  0  0  0  0  0  0  0
   -0.8183    2.8986    8.1071 C   0  0  0  0  0  0  0  0  0  0  0  0
   -1.3221    3.3586    6.6518 C   0  0  2  0  0  0  0  0  0  0  0  0
   -2.1809    2.3140    5.8793 C   0  0  0  0  0  0  0  0  0  0  0  0
   -1.5045    1.7088    4.6157 C   0  0  2  0  0  0  0  0  0  0  0  0
   -0.2972    0.8335    4.8761 C   0  0  0  0  0  0  0  0  0  0  0  0
    0.0997    0.4472    6.1035 C   0  0  0  0  0  0  0  0  0  0  0  0
    1.4840    0.0319    6.6048 C   0  0  2  0  0  0  0  0  0  0  0  0
    2.6126    0.3320    5.5435 C   0  0  0  0  0  0  0  0  0  0  0  0
    3.2304   -0.9475    4.9492 C   0  0  2  0  0  0  0  0  0  0  0  0
    3.5355   -0.8747    3.4189 C   0  0  1  0  0  0  0  0  0  0  0  0
    4.8624   -0.1547    3.1311 C   0  0  0  0  0  0  0  0  0  0  0  0
    3.4518   -2.2707    2.7412 C   0  0  1  0  0  0  0  0  0  0  0  0
    3.7595   -2.2431    1.2297 C   0  0  0  0  0  0  0  0  0  0  0  0
    4.4354   -3.1242    3.3017 O   0  0  0  0  0  0  0  0  0  0  0  0
    2.0642   -2.9155    2.9752 C   0  0  0  0  0  0  0  0  0  0  0  0
    1.3067   -2.3914    4.2082 C   0  0  0  0  0  0  0  0  0  0  0  0
    2.2626   -2.0487    5.3709 C   0  0  2  0  0  0  0  0  0  0  0  0
    1.6300   -1.5354    6.7013 C   0  0  2  0  0  0  0  0  0  0  0  0
    0.3448   -2.3599    7.0062 C   0  0  0  0  0  0  0  0  0  0  0  0
    2.6568   -1.7169    7.8501 C   0  0  0  0  0  0  0  0  0  0  0  0
    2.9439   -0.3347    8.4797 C   0  0  1  0  0  0  0  0  0  0  0  0
    4.2222    0.1106    8.0800 O   0  0  0  0  0  0  0  0  0  0  0  0
    1.7387    0.6179    8.1024 C   0  0  2  0  0  0  0  0  0  0  0  0
    0.6081    0.0550    9.0720 C   0  0  0  0  0  0  0  0  0  0  0  0
    1.9037    2.2309    8.5346 C   0  0  1  0  0  0  0  0  0  0  0  0
    2.6364    2.0375    9.9404 C   0  0  0  0  0  0  0  0  0  0  0  0
   -1.1051    2.8651    3.6764 C   0  0  0  0  0  0  0  0  0  0  0  0
   -0.1047    3.8705    4.3176 C   0  0  2  0  0  0  0  0  0  0  0  0
    1.3248    3.2903    4.4435 C   0  0  0  0  0  0  0  0  0  0  0  0
   -0.7245    4.3981    5.6384 C   0  0  0  0  0  0  0  0  0  0  0  0
    3.2434    3.7251    2.4462 H   0  0  0  0  0  0  0  0  0  0  0  0
    3.8004    5.2892    3.0099 H   0  0  0  0  0  0  0  0  0  0  0  0
    2.1312    5.0783    2.5051 H   0  0  0  0  0  0  0  0  0  0  0  0
    2.3396    5.1519    4.9866 H   0  0  0  0  0  0  0  0  0  0  0  0
    3.9336    2.5506    4.6918 H   0  0  0  0  0  0  0  0  0  0  0  0
    4.6578    4.0648    4.9210 H   0  0  0  0  0  0  0  0  0  0  0  0
    4.4824    2.4068    7.0080 H   0  0  0  0  0  0  0  0  0  0  0  0
    4.5876    4.0744    7.0575 H   0  0  0  0  0  0  0  0  0  0  0  0
    0.1149    5.0621    9.7217 H   0  0  0  0  0  0  0  0  0  0  0  0
    0.2890    2.7483    9.8718 H   0  0  0  0  0  0  0  0  0  0  0  0
   -1.1570    1.8902    8.2812 H   0  0  0  0  0  0  0  0  0  0  0  0
   -1.5036    3.4064    8.7907 H   0  0  0  0  0  0  0  0  0  0  0  0
   -2.1289    3.9858    7.0249 H   0  0  0  0  0  0  0  0  0  0  0  0
   -2.5472    1.5336    6.5376 H   0  0  0  0  0  0  0  0  0  0  0  0
   -3.0821    2.8217    5.5296 H   0  0  0  0  0  0  0  0  0  0  0  0
   -2.2241    1.0684    4.1021 H   0  0  0  0  0  0  0  0  0  0  0  0
    0.3471    0.7068    4.0212 H   0  0  0  0  0  0  0  0  0  0  0  0
   -0.6317    0.6047    6.8500 H   0  0  0  0  0  0  0  0  0  0  0  0
    2.2699    0.9259    4.7143 H   0  0  0  0  0  0  0  0  0  0  0  0
    3.4050    0.9178    5.9686 H   0  0  0  0  0  0  0  0  0  0  0  0
    4.1672   -1.1441    5.4682 H   0  0  0  0  0  0  0  0  0  0  0  0
    2.7475   -0.2848    2.9430 H   0  0  0  0  0  0  0  0  0  0  0  0
    5.7315   -0.7343    3.4351 H   0  0  0  0  0  0  0  0  0  0  0  0
    4.9100    0.7986    3.6474 H   0  0  0  0  0  0  0  0  0  0  0  0
    4.9670    0.0631    2.0705 H   0  0  0  0  0  0  0  0  0  0  0  0
    3.1120   -1.5356    0.7048 H   0  0  0  0  0  0  0  0  0  0  0  0
    3.6020   -3.2266    0.7767 H   0  0  0  0  0  0  0  0  0  0  0  0
    4.7940   -1.9655    1.0187 H   0  0  0  0  0  0  0  0  0  0  0  0
    5.2708   -2.7033    3.2121 H   0  0  0  0  0  0  0  0  0  0  0  0
    1.4273   -2.7360    2.1058 H   0  0  0  0  0  0  0  0  0  0  0  0
    2.1735   -3.9998    3.0441 H   0  0  0  0  0  0  0  0  0  0  0  0
    0.7480   -1.5050    3.9206 H   0  0  0  0  0  0  0  0  0  0  0  0
    0.5729   -3.1419    4.4960 H   0  0  0  0  0  0  0  0  0  0  0  0
    2.8183   -2.9638    5.5775 H   0  0  0  0  0  0  0  0  0  0  0  0
    0.5480   -3.4256    6.8947 H   0  0  0  0  0  0  0  0  0  0  0  0
   -0.4760   -2.1198    6.3306 H   0  0  0  0  0  0  0  0  0  0  0  0
   -0.0225   -2.2410    8.0207 H   0  0  0  0  0  0  0  0  0  0  0  0
    2.2531   -2.3850    8.6118 H   0  0  0  0  0  0  0  0  0  0  0  0
    3.5795   -2.2048    7.5362 H   0  0  0  0  0  0  0  0  0  0  0  0
    3.0500   -0.4963    9.5484 H   0  0  0  0  0  0  0  0  0  0  0  0
    4.2246    0.1946    7.1447 H   0  0  0  0  0  0  0  0  0  0  0  0
    0.3662    0.6816    9.9218 H   0  0  0  0  0  0  0  0  0  0  0  0
    0.8749   -0.8809    9.5566 H   0  0  0  0  0  0  0  0  0  0  0  0
   -0.3564   -0.1486    8.6301 H   0  0  0  0  0  0  0  0  0  0  0  0
    2.3100    1.1855   10.5226 H   0  0  0  0  0  0  0  0  0  0  0  0
    2.4734    2.7889   10.6976 H   0  0  0  0  0  0  0  0  0  0  0  0
    3.7177    1.9557    9.8308 H   0  0  0  0  0  0  0  0  0  0  0  0
   -0.7092    2.4739    2.7369 H   0  0  0  0  0  0  0  0  0  0  0  0
   -2.0155    3.3975    3.3994 H   0  0  0  0  0  0  0  0  0  0  0  0
   -0.0257    4.7010    3.6147 H   0  0  0  0  0  0  0  0  0  0  0  0
    1.4803    2.5976    3.6176 H   0  0  0  0  0  0  0  0  0  0  0  0
    1.3356    2.7020    5.3505 H   0  0  0  0  0  0  0  0  0  0  0  0
   -1.5980    4.9401    5.2666 H   0  0  0  0  0  0  0  0  0  0  0  0
   -0.1498    5.2067    6.0572 H   0  0  0  0  0  0  0  0  0  0  0  0
  1  2  1  0
  1 42  1  0
  1 43  1  0
  1 44  1  0
  2 40  1  0
  2  3  1  0
  2 45  1  1
  3  4  1  0
  3 46  1  0
  3 47  1  0
  5  4  1  6
  4 48  1  0
  4 49  1  0
  5 10  1  0
  5 36  1  0
  5  6  1  0
  6  7  1  0
  7  8  1  0
  8  9  1  0
  8 11  1  0
  8 50  1  1
  9 10  1  0
 11 36  1  0
 11 12  1  0
 11 51  1  1
 12 13  1  0
 12 52  1  0
 12 53  1  0
 13 41  1  0
 13 14  1  0
 13 54  1  1
 14 15  1  0
 14 55  1  0
 14 56  1  0
 15 16  1  0
 15 38  1  0
 15 57  1  6
 16 17  2  3
 16 58  1  0
 17 18  1  0
 17 59  1  0
 18 29  1  0
 18 34  1  0
 18 19  1  6
 19 20  1  0
 19 60  1  0
 19 61  1  0
 20 28  1  0
 20 21  1  0
 20 62  1  1
 21 22  1  0
 21 23  1  0
 21 63  1  6
 22 64  1  0
 22 65  1  0
 22 66  1  0
 23 24  1  0
 23 25  1  1
 23 26  1  0
 24 67  1  0
 24 68  1  0
 24 69  1  0
 25 70  1  0
 26 27  1  0
 26 71  1  0
 26 72  1  0
 27 28  1  0
 27 73  1  0
 27 74  1  0
 28 29  1  0
 28 75  1  1
 29 30  1  1
 29 31  1  0
 30 76  1  0
 30 77  1  0
 30 78  1  0
 31 32  1  0
 31 79  1  0
 31 80  1  0
 32 33  1  0
 32 34  1  0
 32 81  1  1
 33 82  1  0
 34 35  1  1
 34 36  1  0
 35 83  1  0
 35 84  1  0
 35 85  1  0
 36 37  1  1
 37 86  1  0
 37 87  1  0
 37 88  1  0
 38 39  1  0
 38 89  1  0
 38 90  1  0
 39 40  1  0
 39 41  1  0
 39 91  1  6
 40 92  1  0
 40 93  1  0
 41 94  1  0
 41 95  1  0
M  END
>  <i_m_ct_stereo_status>  (295) 
1

>  <s_m_source_file>  (295) 
/var/tmp/pbs.5076255.sched01/tmppy4q9rbr/123plv7d954.sdf

>  <i_m_source_file_index>  (295) 
10

>  <i_lp_mmshare_version>  (295) 
48012

>  <i_f3d_flags>  (295) 
0

>  <s_epik_input>  (295) 
TzFPW0NASF0oT08yKVtDQEhdKFtDQEBdMyhbQ0BAXTEyNClbQ0gzXSlbQ0gyXVtDQEBIXTVbQ0gyXVtDQEBIXShbQ0gyXVtDQEBIXShbQ0gyXTUpW0NIMl1bQ0BIXShbQ0gzXSlbQ0gyXVtDSDJdNCkvW0NIXT1bQ0hdL1tDQEBdNjdbQ0BdKFtDSDNdKShbQ0gyXVtDQEBIXShbT0hdKVtDQEBdMzdbQ0gzXSlbQ0BASF04W0NASF0oW0NIMl02KVtDQEBIXShbQ0gzXSlbQ0BAXShbQ0gzXSkoW09IXSlbQ0gyXVtDSDJdOA==

>  <s_epik_cmdline>  (295) 
J2VwaWtfcHl0aG9uJywgJy1waHQnLCAnMi4wJywgJy1waCcsICc3LjAnLCAnLXRuJywgJzgnLCAnLW1hJywgJzIwMCcsICctaW1hZScsICc8aW5maWxlLm1hZT4nLCAnLW9tYWUnLCAnPG91dGZpbGUubWFlPic=

>  <r_lp_tautomer_probability>  (295) 
1

>  <r_epik_Ionization_Penalty>  (295) 
3.00161e-06

>  <r_epik_Ionization_Penalty_Charging>  (295) 
0

>  <r_epik_Ionization_Penalty_Neutral>  (295) 
3.00161e-06

>  <r_epik_State_Penalty>  (295) 
-0

>  <r_epik_Charging_Adjusted_Penalty>  (295) 
0

>  <i_epik_Tot_Q>  (295) 
0

>  <i_epik_Tot_abs_Q>  (295) 
0

>  <s_epik_Chemistry_Notes>  (295) 
This compound contains an acetal/aminal-like group ( X-CH(R)-Y where X, Y are N, S, or O) that may be acid/base labile, releasing an aldehyde.

>  <s_lp_Force_Field>  (295) 
OPLS3e

>  <r_lp_Energy>  (295) 
234.661

>  <b_lp_Chiralities_Consistent>  (295) 
1

>  <s_lp_Variant>  (295) 
100:0-1

>  <s_i_glide_gridfile>  (295) 
pfpi4k_grid

>  <i_i_glide_lignum>  (295) 
10

>  <i_i_glide_rotatable_bonds>  (295) 
2

>  <r_i_docking_score>  (295) 
-1.59175

>  <r_i_glide_ligand_efficiency>  (295) 
-0.0388232

>  <r_i_glide_ligand_efficiency_sa>  (295) 
-0.133871

>  <r_i_glide_ligand_efficiency_ln>  (295) 
-0.337695

>  <r_i_glide_gscore>  (295) 
-1.59175

>  <r_i_glide_lipo>  (295) 
-0.259581

>  <r_i_glide_hbond>  (295) 
0

>  <r_i_glide_metal>  (295) 
-0

>  <r_i_glide_rewards>  (295) 
0

>  <r_i_glide_evdw>  (295) 
-26.1001

>  <r_i_glide_ecoul>  (295) 
-0.181109

>  <r_i_glide_erotb>  (295) 
0

>  <r_i_glide_esite>  (295) 
0

>  <r_i_glide_emodel>  (295) 
-28.9887

>  <r_i_glide_energy>  (295) 
-26.2812

>  <r_i_glide_einternal>  (295) 
0.00263918

>  <r_i_glide_intrahb_reward>  (295) 
-0

>  <i_i_glide_confnum>  (295) 
1

>  <i_i_glide_posenum>  (295) 
12

>  <r_i_glide_eff_state_penalty>  (295) 
0

>  <ligand_id>  (295) 
100

>  <original_smiles>  (295) 
CC1CCC23OOC(OO2)C2CC4CC(C=CC56CC7C(C)C(C)(O)CCC7C5(C)CC(O)C6(C)C23C)CC(C1)C4

>  <smiles>  (295) 
[H]OC1([H])C([H])([H])C2(C([H])([H])[H])C3([H])C([H])([H])C([H])([H])C(O[H])(C([H])([H])[H])C([H])(C([H])([H])[H])C3([H])C([H])([H])C23C([H])=C([H])C2([H])C([H])([H])C4([H])C([H])([H])C([H])(C([H])([H])[H])C([H])([H])C([H])([H])C56OOC([H])(OO5)C([H])(C([H])([H])C([H])(C2([H])[H])C4([H])[H])C6(C([H])([H])[H])C13C([H])([H])[H]

$$$$
100:1:0
     RDKit          3D

 95102  0  0  1  0  0  0  0  0999 V2000
   -1.5646   -8.9693    2.2417 C   0  0  0  0  0  0  0  0  0  0  0  0
   -0.5049   -8.5872    3.3117 C   0  0  2  0  0  0  0  0  0  0  0  0
   -0.5732   -7.0436    3.6025 C   0  0  0  0  0  0  0  0  0  0  0  0
    0.5780   -6.3036    4.3700 C   0  0  0  0  0  0  0  0  0  0  0  0
    0.9208   -6.7261    5.8258 C   0  0  2  0  0  0  0  0  0  0  0  0
    0.7669   -8.1070    5.6311 O   0  0  0  0  0  0  0  0  0  0  0  0
    0.2140   -8.7446    6.8852 O   0  0  0  0  0  0  0  0  0  0  0  0
    0.7795   -8.0663    7.9463 C   0  0  2  0  0  0  0  0  0  0  0  0
    0.0191   -6.8892    8.0791 O   0  0  0  0  0  0  0  0  0  0  0  0
   -0.1232   -6.2530    6.6789 O   0  0  0  0  0  0  0  0  0  0  0  0
    2.2799   -7.7941    7.5157 C   0  0  1  0  0  0  0  0  0  0  0  0
    2.8963   -9.2365    7.1842 C   0  0  0  0  0  0  0  0  0  0  0  0
    2.8628  -10.0494    5.8234 C   0  0  2  0  0  0  0  0  0  0  0  0
    4.1663  -10.1914    5.0179 C   0  0  0  0  0  0  0  0  0  0  0  0
    4.0543   -9.7866    3.5279 C   0  0  2  0  0  0  0  0  0  0  0  0
    4.0105   -8.3676    2.9371 C   0  0  0  0  0  0  0  0  0  0  0  0
    3.9900   -7.0152    3.1683 C   0  0  0  0  0  0  0  0  0  0  0  0
    4.0424   -5.8548    4.2100 C   0  0  2  0  0  0  0  0  0  0  0  0
    3.1023   -4.7104    3.6479 C   0  0  0  0  0  0  0  0  0  0  0  0
    3.8864   -3.4946    3.1222 C   0  0  2  0  0  0  0  0  0  0  0  0
    3.1998   -2.6841    1.9573 C   0  0  1  0  0  0  0  0  0  0  0  0
    3.3088   -1.1633    2.1980 C   0  0  0  0  0  0  0  0  0  0  0  0
    3.6773   -3.1070    0.5259 C   0  0  1  0  0  0  0  0  0  0  0  0
    2.9050   -4.3464    0.0341 C   0  0  0  0  0  0  0  0  0  0  0  0
    3.4003   -2.0895   -0.4185 O   0  0  0  0  0  0  0  0  0  0  0  0
    5.1922   -3.3139    0.4649 C   0  0  0  0  0  0  0  0  0  0  0  0
    5.6497   -4.3793    1.4594 C   0  0  0  0  0  0  0  0  0  0  0  0
    5.3112   -4.0062    2.9175 C   0  0  2  0  0  0  0  0  0  0  0  0
    5.4639   -5.1541    3.9937 C   0  0  2  0  0  0  0  0  0  0  0  0
    6.6465   -6.0952    3.5968 C   0  0  0  0  0  0  0  0  0  0  0  0
    5.7912   -4.5202    5.3609 C   0  0  0  0  0  0  0  0  0  0  0  0
    4.5915   -4.7734    6.2846 C   0  0  1  0  0  0  0  0  0  0  0  0
    3.8828   -3.5453    6.2790 O   0  0  0  0  0  0  0  0  0  0  0  0
    3.8374   -6.0871    5.7963 C   0  0  2  0  0  0  0  0  0  0  0  0
    4.8602   -7.1020    6.3195 C   0  0  0  0  0  0  0  0  0  0  0  0
    2.3511   -6.4939    6.5636 C   0  0  1  0  0  0  0  0  0  0  0  0
    2.1915   -5.3173    7.6039 C   0  0  0  0  0  0  0  0  0  0  0  0
    2.9313  -10.6547    2.9121 C   0  0  0  0  0  0  0  0  0  0  0  0
    1.5243  -10.3903    3.4977 C   0  0  2  0  0  0  0  0  0  0  0  0
    0.9054   -9.0899    2.8799 C   0  0  0  0  0  0  0  0  0  0  0  0
    1.6124  -10.6219    5.0436 C   0  0  0  0  0  0  0  0  0  0  0  0
   -1.3618   -8.4786    1.2874 H   0  0  0  0  0  0  0  0  0  0  0  0
   -2.5652   -8.6768    2.5441 H   0  0  0  0  0  0  0  0  0  0  0  0
   -1.5675  -10.0369    2.0587 H   0  0  0  0  0  0  0  0  0  0  0  0
   -0.8024   -9.1232    4.2098 H   0  0  0  0  0  0  0  0  0  0  0  0
   -0.6049   -6.5608    2.6237 H   0  0  0  0  0  0  0  0  0  0  0  0
   -1.5327   -6.8212    4.0724 H   0  0  0  0  0  0  0  0  0  0  0  0
    1.4702   -6.4895    3.8110 H   0  0  0  0  0  0  0  0  0  0  0  0
    0.3898   -5.2332    4.3563 H   0  0  0  0  0  0  0  0  0  0  0  0
    0.7247   -8.6393    8.8828 H   0  0  0  0  0  0  0  0  0  0  0  0
    2.7978   -7.5151    8.4503 H   0  0  0  0  0  0  0  0  0  0  0  0
    3.9360   -9.2254    7.5009 H   0  0  0  0  0  0  0  0  0  0  0  0
    2.4880   -9.8871    7.9465 H   0  0  0  0  0  0  0  0  0  0  0  0
    3.0173  -10.9916    6.3964 H   0  0  0  0  0  0  0  0  0  0  0  0
    5.0814   -9.8564    5.5073 H   0  0  0  0  0  0  0  0  0  0  0  0
    4.3991  -11.2451    4.9830 H   0  0  0  0  0  0  0  0  0  0  0  0
    4.9870  -10.1506    3.0973 H   0  0  0  0  0  0  0  0  0  0  0  0
    3.9697   -8.5174    1.8775 H   0  0  0  0  0  0  0  0  0  0  0  0
    3.9344   -6.5517    2.2035 H   0  0  0  0  0  0  0  0  0  0  0  0
    2.4998   -5.0592    2.8115 H   0  0  0  0  0  0  0  0  0  0  0  0
    2.4014   -4.3635    4.3968 H   0  0  0  0  0  0  0  0  0  0  0  0
    3.9560   -2.7905    3.9411 H   0  0  0  0  0  0  0  0  0  0  0  0
    2.1382   -2.8786    2.0162 H   0  0  0  0  0  0  0  0  0  0  0  0
    4.3191   -0.7897    2.0859 H   0  0  0  0  0  0  0  0  0  0  0  0
    2.9458   -0.8907    3.1934 H   0  0  0  0  0  0  0  0  0  0  0  0
    2.6685   -0.6126    1.4947 H   0  0  0  0  0  0  0  0  0  0  0  0
    3.0560   -5.2140    0.6644 H   0  0  0  0  0  0  0  0  0  0  0  0
    3.2321   -4.6228   -0.9697 H   0  0  0  0  0  0  0  0  0  0  0  0
    1.8424   -4.1562   -0.0094 H   0  0  0  0  0  0  0  0  0  0  0  0
    2.4731   -1.8585   -0.4057 H   0  0  0  0  0  0  0  0  0  0  0  0
    5.4923   -3.5834   -0.5416 H   0  0  0  0  0  0  0  0  0  0  0  0
    5.7033   -2.3700    0.6860 H   0  0  0  0  0  0  0  0  0  0  0  0
    5.2602   -5.3396    1.1693 H   0  0  0  0  0  0  0  0  0  0  0  0
    6.7402   -4.4795    1.3590 H   0  0  0  0  0  0  0  0  0  0  0  0
    5.9783   -3.1853    3.1474 H   0  0  0  0  0  0  0  0  0  0  0  0
    7.5866   -5.5434    3.5761 H   0  0  0  0  0  0  0  0  0  0  0  0
    6.5319   -6.5542    2.6190 H   0  0  0  0  0  0  0  0  0  0  0  0
    6.7855   -6.9283    4.2878 H   0  0  0  0  0  0  0  0  0  0  0  0
    6.6889   -4.9668    5.7886 H   0  0  0  0  0  0  0  0  0  0  0  0
    6.0456   -3.4587    5.3042 H   0  0  0  0  0  0  0  0  0  0  0  0
    4.9831   -4.8754    7.3082 H   0  0  0  0  0  0  0  0  0  0  0  0
    3.5913   -3.3866    5.3960 H   0  0  0  0  0  0  0  0  0  0  0  0
    4.7901   -7.2619    7.3874 H   0  0  0  0  0  0  0  0  0  0  0  0
    5.9059   -6.8766    6.1734 H   0  0  0  0  0  0  0  0  0  0  0  0
    4.6938   -7.9834    5.7654 H   0  0  0  0  0  0  0  0  0  0  0  0
    3.0988   -5.1151    8.1591 H   0  0  0  0  0  0  0  0  0  0  0  0
    1.5822   -5.4764    8.4832 H   0  0  0  0  0  0  0  0  0  0  0  0
    1.7915   -4.4117    7.1492 H   0  0  0  0  0  0  0  0  0  0  0  0
    2.9176  -10.5306    1.8226 H   0  0  0  0  0  0  0  0  0  0  0  0
    3.1744  -11.7046    3.0677 H   0  0  0  0  0  0  0  0  0  0  0  0
    0.8688  -11.1780    3.1226 H   0  0  0  0  0  0  0  0  0  0  0  0
    0.9019   -9.2284    1.8040 H   0  0  0  0  0  0  0  0  0  0  0  0
    1.5999   -8.2865    2.9929 H   0  0  0  0  0  0  0  0  0  0  0  0
    1.6725  -11.7029    5.1312 H   0  0  0  0  0  0  0  0  0  0  0  0
    0.6490  -10.4713    5.5264 H   0  0  0  0  0  0  0  0  0  0  0  0
  1  2  1  0
  1 42  1  0
  1 43  1  0
  1 44  1  0
  2 40  1  0
  2  3  1  0
  2 45  1  1
  3  4  1  0
  3 46  1  0
  3 47  1  0
  5  4  1  6
  4 48  1  0
  4 49  1  0
  5 10  1  0
  5 36  1  0
  5  6  1  0
  6  7  1  0
  7  8  1  0
  8  9  1  0
  8 11  1  0
  8 50  1  1
  9 10  1  0
 11 36  1  0
 11 12  1  0
 11 51  1  1
 12 13  1  0
 12 52  1  0
 12 53  1  0
 13 41  1  0
 13 14  1  0
 13 54  1  1
 14 15  1  0
 14 55  1  0
 14 56  1  0
 15 16  1  0
 15 38  1  0
 15 57  1  6
 16 17  2  3
 16 58  1  0
 17 18  1  0
 17 59  1  0
 18 29  1  0
 18 34  1  0
 18 19  1  6
 19 20  1  0
 19 60  1  0
 19 61  1  0
 20 28  1  0
 20 21  1  0
 20 62  1  1
 21 22  1  0
 21 23  1  0
 21 63  1  6
 22 64  1  0
 22 65  1  0
 22 66  1  0
 23 24  1  0
 23 25  1  6
 23 26  1  0
 24 67  1  0
 24 68  1  0
 24 69  1  0
 25 70  1  0
 26 27  1  0
 26 71  1  0
 26 72  1  0
 27 28  1  0
 27 73  1  0
 27 74  1  0
 28 29  1  0
 28 75  1  1
 29 30  1  6
 29 31  1  0
 30 76  1  0
 30 77  1  0
 30 78  1  0
 31 32  1  0
 31 79  1  0
 31 80  1  0
 32 33  1  0
 32 34  1  0
 32 81  1  1
 33 82  1  0
 34 35  1  1
 34 36  1  0
 35 83  1  0
 35 84  1  0
 35 85  1  0
 36 37  1  1
 37 86  1  0
 37 87  1  0
 37 88  1  0
 38 39  1  0
 38 89  1  0
 38 90  1  0
 39 40  1  0
 39 41  1  0
 39 91  1  6
 40 92  1  0
 40 93  1  0
 41 94  1  0
 41 95  1  0
M  END
>  <i_m_ct_stereo_status>  (296) 
1

>  <s_m_source_file>  (296) 
/var/tmp/pbs.5076255.sched01/tmppy4q9rbr/123plv7d954.sdf

>  <i_m_source_file_index>  (296) 
11

>  <i_lp_mmshare_version>  (296) 
48012

>  <i_f3d_flags>  (296) 
0

>  <s_epik_input>  (296) 
TzFPW0NASF0oT08yKVtDQEhdKFtDQEBdMyhbQ0BAXTEyNClbQ0gzXSlbQ0gyXVtDQEBIXTVbQ0gyXVtDQEBIXShbQ0gyXVtDQEBIXShbQ0gyXTUpW0NIMl1bQ0BIXShbQ0gzXSlbQ0gyXVtDSDJdNCkvW0NIXT1bQ0hdL1tDQEBdNjdbQ0BdKFtDSDNdKShbQ0gyXVtDQEBIXShbT0hdKVtDQEBdMzdbQ0gzXSlbQ0BASF04W0NASF0oW0NIMl02KVtDQEBIXShbQ0gzXSlbQ0BAXShbQ0gzXSkoW09IXSlbQ0gyXVtDSDJdOA==

>  <s_epik_cmdline>  (296) 
J2VwaWtfcHl0aG9uJywgJy1waHQnLCAnMi4wJywgJy1waCcsICc3LjAnLCAnLXRuJywgJzgnLCAnLW1hJywgJzIwMCcsICctaW1hZScsICc8aW5maWxlLm1hZT4nLCAnLW9tYWUnLCAnPG91dGZpbGUubWFlPic=

>  <r_lp_tautomer_probability>  (296) 
1

>  <r_epik_Ionization_Penalty>  (296) 
3.00161e-06

>  <r_epik_Ionization_Penalty_Charging>  (296) 
0

>  <r_epik_Ionization_Penalty_Neutral>  (296) 
3.00161e-06

>  <r_epik_State_Penalty>  (296) 
-0

>  <r_epik_Charging_Adjusted_Penalty>  (296) 
0

>  <i_epik_Tot_Q>  (296) 
0

>  <i_epik_Tot_abs_Q>  (296) 
0

>  <s_epik_Chemistry_Notes>  (296) 
This compound contains an acetal/aminal-like group ( X-CH(R)-Y where X, Y are N, S, or O) that may be acid/base labile, releasing an aldehyde.

>  <s_lp_Force_Field>  (296) 
OPLS3e

>  <r_lp_Energy>  (296) 
282.551

>  <b_lp_Chiralities_Consistent>  (296) 
1

>  <s_lp_Variant>  (296) 
100:0-2

>  <s_i_glide_gridfile>  (296) 
pfpi4k_grid

>  <i_i_glide_lignum>  (296) 
11

>  <i_i_glide_rotatable_bonds>  (296) 
2

>  <r_i_docking_score>  (296) 
-2.801

>  <r_i_glide_ligand_efficiency>  (296) 
-0.0683171

>  <r_i_glide_ligand_efficiency_sa>  (296) 
-0.235572

>  <r_i_glide_ligand_efficiency_ln>  (296) 
-0.594242

>  <r_i_glide_gscore>  (296) 
-2.801

>  <r_i_glide_lipo>  (296) 
-0.40902

>  <r_i_glide_hbond>  (296) 
-0.16

>  <r_i_glide_metal>  (296) 
-0

>  <r_i_glide_rewards>  (296) 
0

>  <r_i_glide_evdw>  (296) 
-33.7058

>  <r_i_glide_ecoul>  (296) 
-3.43055

>  <r_i_glide_erotb>  (296) 
0

>  <r_i_glide_esite>  (296) 
-0.0321111

>  <r_i_glide_emodel>  (296) 
-42.9668

>  <r_i_glide_energy>  (296) 
-37.1363

>  <r_i_glide_einternal>  (296) 
0.0516974

>  <r_i_glide_intrahb_reward>  (296) 
-0

>  <i_i_glide_confnum>  (296) 
2

>  <i_i_glide_posenum>  (296) 
38

>  <r_i_glide_eff_state_penalty>  (296) 
0

>  <ligand_id>  (296) 
100

>  <original_smiles>  (296) 
CC1CCC23OOC(OO2)C2CC4CC(C=CC56CC7C(C)C(C)(O)CCC7C5(C)CC(O)C6(C)C23C)CC(C1)C4

>  <smiles>  (296) 
[H]OC1([H])C([H])([H])C2(C([H])([H])[H])C3([H])C([H])([H])C([H])([H])C(O[H])(C([H])([H])[H])C([H])(C([H])([H])[H])C3([H])C([H])([H])C23C([H])=C([H])C2([H])C([H])([H])C4([H])C([H])([H])C([H])(C([H])([H])[H])C([H])([H])C([H])([H])C56OOC([H])(OO5)C([H])(C([H])([H])C([H])(C2([H])[H])C4([H])[H])C6(C([H])([H])[H])C13C([H])([H])[H]

$$$$
100:1:1
     RDKit          3D

 95102  0  0  1  0  0  0  0  0999 V2000
   -1.7609   -7.2586    3.9696 C   0  0  0  0  0  0  0  0  0  0  0  0
   -0.3421   -7.4542    4.5579 C   0  0  2  0  0  0  0  0  0  0  0  0
    0.3128   -6.0582    4.8946 C   0  0  0  0  0  0  0  0  0  0  0  0
    1.8519   -5.9318    5.1705 C   0  0  0  0  0  0  0  0  0  0  0  0
    2.4838   -6.6946    6.3706 C   0  0  2  0  0  0  0  0  0  0  0  0
    1.7370   -7.8739    6.2252 O   0  0  0  0  0  0  0  0  0  0  0  0
    1.4520   -8.4746    7.5820 O   0  0  0  0  0  0  0  0  0  0  0  0
    2.5738   -8.2367    8.3528 C   0  0  2  0  0  0  0  0  0  0  0  0
    2.4347   -6.9072    8.7910 O   0  0  0  0  0  0  0  0  0  0  0  0
    2.0768   -6.0351    7.5691 O   0  0  0  0  0  0  0  0  0  0  0  0
    3.8091   -8.4482    7.3783 C   0  0  1  0  0  0  0  0  0  0  0  0
    3.6499   -9.9377    6.8023 C   0  0  0  0  0  0  0  0  0  0  0  0
    2.8242  -10.4406    5.5475 C   0  0  2  0  0  0  0  0  0  0  0  0
    3.5953  -10.8940    4.2957 C   0  0  0  0  0  0  0  0  0  0  0  0
    3.1332  -10.2269    2.9793 C   0  0  2  0  0  0  0  0  0  0  0  0
    3.4497   -8.8110    2.4751 C   0  0  0  0  0  0  0  0  0  0  0  0
    4.0478   -7.6008    2.7223 C   0  0  0  0  0  0  0  0  0  0  0  0
    4.9154   -6.7339    3.6845 C   0  0  2  0  0  0  0  0  0  0  0  0
    4.3664   -5.2539    3.5553 C   0  0  0  0  0  0  0  0  0  0  0  0
    5.3249   -4.3251    2.7936 C   0  0  2  0  0  0  0  0  0  0  0  0
    4.6548   -3.1360    2.0025 C   0  0  1  0  0  0  0  0  0  0  0  0
    5.4319   -1.8173    2.2114 C   0  0  0  0  0  0  0  0  0  0  0  0
    4.3855   -3.4506    0.4899 C   0  0  1  0  0  0  0  0  0  0  0  0
    3.0637   -4.2284    0.3116 C   0  0  0  0  0  0  0  0  0  0  0  0
    4.1851   -2.2542   -0.2387 O   0  0  0  0  0  0  0  0  0  0  0  0
    5.5767   -4.1639   -0.1560 C   0  0  0  0  0  0  0  0  0  0  0  0
    5.8984   -5.4723    0.5703 C   0  0  0  0  0  0  0  0  0  0  0  0
    6.2743   -5.2651    2.0481 C   0  0  2  0  0  0  0  0  0  0  0  0
    6.3270   -6.5617    2.9489 C   0  0  2  0  0  0  0  0  0  0  0  0
    6.8212   -7.7777    2.1009 C   0  0  0  0  0  0  0  0  0  0  0  0
    7.3362   -6.3370    4.0924 C   0  0  0  0  0  0  0  0  0  0  0  0
    6.5375   -6.2910    5.4034 C   0  0  1  0  0  0  0  0  0  0  0  0
    6.4153   -4.9089    5.6984 O   0  0  0  0  0  0  0  0  0  0  0  0
    5.2058   -7.1450    5.2206 C   0  0  2  0  0  0  0  0  0  0  0  0
    5.8556   -8.5320    5.2860 C   0  0  0  0  0  0  0  0  0  0  0  0
    4.0506   -7.1167    6.4990 C   0  0  1  0  0  0  0  0  0  0  0  0
    4.7444   -6.1587    7.5448 C   0  0  0  0  0  0  0  0  0  0  0  0
    1.6214  -10.5181    2.8466 C   0  0  0  0  0  0  0  0  0  0  0  0
    0.7367   -9.8684    3.9223 C   0  0  2  0  0  0  0  0  0  0  0  0
    0.5072   -8.3499    3.6090 C   0  0  0  0  0  0  0  0  0  0  0  0
    1.2633  -10.3760    5.3007 C   0  0  0  0  0  0  0  0  0  0  0  0
   -1.7340   -6.7331    3.0136 H   0  0  0  0  0  0  0  0  0  0  0  0
   -2.3842   -6.6666    4.6424 H   0  0  0  0  0  0  0  0  0  0  0  0
   -2.2545   -8.2111    3.7999 H   0  0  0  0  0  0  0  0  0  0  0  0
   -0.4894   -7.9984    5.4885 H   0  0  0  0  0  0  0  0  0  0  0  0
    0.1339   -5.4119    4.0323 H   0  0  0  0  0  0  0  0  0  0  0  0
   -0.2459   -5.6018    5.7121 H   0  0  0  0  0  0  0  0  0  0  0  0
    2.3391   -6.3282    4.3067 H   0  0  0  0  0  0  0  0  0  0  0  0
    2.1142   -4.8808    5.2552 H   0  0  0  0  0  0  0  0  0  0  0  0
    2.6320   -8.9028    9.2277 H   0  0  0  0  0  0  0  0  0  0  0  0
    4.6871   -8.5380    8.0456 H   0  0  0  0  0  0  0  0  0  0  0  0
    4.6490  -10.3522    6.6906 H   0  0  0  0  0  0  0  0  0  0  0  0
    3.3133  -10.5200    7.6492 H   0  0  0  0  0  0  0  0  0  0  0  0
    2.7846  -11.4616    5.9928 H   0  0  0  0  0  0  0  0  0  0  0  0
    4.6778  -11.0030    4.3945 H   0  0  0  0  0  0  0  0  0  0  0  0
    3.3619  -11.9370    4.1481 H   0  0  0  0  0  0  0  0  0  0  0  0
    3.6248  -10.8216    2.2107 H   0  0  0  0  0  0  0  0  0  0  0  0
    2.9853   -8.7576    1.5126 H   0  0  0  0  0  0  0  0  0  0  0  0
    3.8460   -6.9917    1.8640 H   0  0  0  0  0  0  0  0  0  0  0  0
    3.4226   -5.2146    3.0145 H   0  0  0  0  0  0  0  0  0  0  0  0
    4.1751   -4.8124    4.5247 H   0  0  0  0  0  0  0  0  0  0  0  0
    5.9213   -3.8382    3.5475 H   0  0  0  0  0  0  0  0  0  0  0  0
    3.6988   -2.9467    2.4667 H   0  0  0  0  0  0  0  0  0  0  0  0
    6.3997   -1.8150    1.7261 H   0  0  0  0  0  0  0  0  0  0  0  0
    5.5817   -1.6102    3.2754 H   0  0  0  0  0  0  0  0  0  0  0  0
    4.8629   -0.9614    1.8258 H   0  0  0  0  0  0  0  0  0  0  0  0
    3.0800   -5.1867    0.8149 H   0  0  0  0  0  0  0  0  0  0  0  0
    2.8656   -4.4260   -0.7443 H   0  0  0  0  0  0  0  0  0  0  0  0
    2.2216   -3.6678    0.7089 H   0  0  0  0  0  0  0  0  0  0  0  0
    3.3356   -1.8942   -0.0300 H   0  0  0  0  0  0  0  0  0  0  0  0
    5.3772   -4.3556   -1.2056 H   0  0  0  0  0  0  0  0  0  0  0  0
    6.4596   -3.5152   -0.1331 H   0  0  0  0  0  0  0  0  0  0  0  0
    5.0885   -6.1677    0.4307 H   0  0  0  0  0  0  0  0  0  0  0  0
    6.7613   -5.9403    0.0786 H   0  0  0  0  0  0  0  0  0  0  0  0
    7.2585   -4.8100    2.0150 H   0  0  0  0  0  0  0  0  0  0  0  0
    7.8313   -7.6030    1.7287 H   0  0  0  0  0  0  0  0  0  0  0  0
    6.1979   -7.9913    1.2389 H   0  0  0  0  0  0  0  0  0  0  0  0
    6.8517   -8.7103    2.6664 H   0  0  0  0  0  0  0  0  0  0  0  0
    8.0624   -7.1482    4.1306 H   0  0  0  0  0  0  0  0  0  0  0  0
    7.9664   -5.4581    3.9625 H   0  0  0  0  0  0  0  0  0  0  0  0
    7.1876   -6.6976    6.1943 H   0  0  0  0  0  0  0  0  0  0  0  0
    5.8810   -4.5177    5.0263 H   0  0  0  0  0  0  0  0  0  0  0  0
    6.1067   -8.8358    6.2937 H   0  0  0  0  0  0  0  0  0  0  0  0
    6.7802   -8.6761    4.7485 H   0  0  0  0  0  0  0  0  0  0  0  0
    5.1722   -9.1862    4.8220 H   0  0  0  0  0  0  0  0  0  0  0  0
    5.7888   -6.3907    7.7077 H   0  0  0  0  0  0  0  0  0  0  0  0
    4.4691   -6.2392    8.5882 H   0  0  0  0  0  0  0  0  0  0  0  0
    4.6030   -5.1068    7.3023 H   0  0  0  0  0  0  0  0  0  0  0  0
    1.2712  -10.2192    1.8495 H   0  0  0  0  0  0  0  0  0  0  0  0
    1.4699  -11.5959    2.8808 H   0  0  0  0  0  0  0  0  0  0  0  0
   -0.2597  -10.2992    3.8140 H   0  0  0  0  0  0  0  0  0  0  0  0
    0.0694   -8.3013    2.6191 H   0  0  0  0  0  0  0  0  0  0  0  0
    1.4548   -7.8805    3.4596 H   0  0  0  0  0  0  0  0  0  0  0  0
    0.9177  -11.4050    5.3231 H   0  0  0  0  0  0  0  0  0  0  0  0
    0.6696   -9.9895    6.1269 H   0  0  0  0  0  0  0  0  0  0  0  0
  1  2  1  0
  1 42  1  0
  1 43  1  0
  1 44  1  0
  2 40  1  0
  2  3  1  0
  2 45  1  1
  3  4  1  0
  3 46  1  0
  3 47  1  0
  5  4  1  6
  4 48  1  0
  4 49  1  0
  5 10  1  0
  5 36  1  0
  5  6  1  0
  6  7  1  0
  7  8  1  0
  8  9  1  0
  8 11  1  0
  8 50  1  1
  9 10  1  0
 11 36  1  0
 11 12  1  0
 11 51  1  1
 12 13  1  0
 12 52  1  0
 12 53  1  0
 13 41  1  0
 13 14  1  0
 13 54  1  1
 14 15  1  0
 14 55  1  0
 14 56  1  0
 15 16  1  0
 15 38  1  0
 15 57  1  6
 16 17  2  3
 16 58  1  0
 17 18  1  0
 17 59  1  0
 18 29  1  0
 18 34  1  0
 18 19  1  1
 19 20  1  0
 19 60  1  0
 19 61  1  0
 20 28  1  0
 20 21  1  0
 20 62  1  1
 21 22  1  0
 21 23  1  0
 21 63  1  1
 22 64  1  0
 22 65  1  0
 22 66  1  0
 23 24  1  0
 23 25  1  6
 23 26  1  0
 24 67  1  0
 24 68  1  0
 24 69  1  0
 25 70  1  0
 26 27  1  0
 26 71  1  0
 26 72  1  0
 27 28  1  0
 27 73  1  0
 27 74  1  0
 28 29  1  0
 28 75  1  6
 29 30  1  6
 29 31  1  0
 30 76  1  0
 30 77  1  0
 30 78  1  0
 31 32  1  0
 31 79  1  0
 31 80  1  0
 32 33  1  0
 32 34  1  0
 32 81  1  1
 33 82  1  0
 34 35  1  6
 34 36  1  0
 35 83  1  0
 35 84  1  0
 35 85  1  0
 36 37  1  1
 37 86  1  0
 37 87  1  0
 37 88  1  0
 38 39  1  0
 38 89  1  0
 38 90  1  0
 39 40  1  0
 39 41  1  0
 39 91  1  6
 40 92  1  0
 40 93  1  0
 41 94  1  0
 41 95  1  0
M  END
>  <i_m_ct_stereo_status>  (297) 
1

>  <s_m_source_file>  (297) 
/var/tmp/pbs.5076255.sched01/tmppy4q9rbr/123plv7d954.sdf

>  <i_m_source_file_index>  (297) 
11

>  <i_lp_mmshare_version>  (297) 
48012

>  <i_f3d_flags>  (297) 
0

>  <s_epik_input>  (297) 
TzFPW0NASF0oT08yKVtDQEhdKFtDQEBdMyhbQ0BAXTEyNClbQ0gzXSlbQ0gyXVtDQEBIXTVbQ0gyXVtDQEBIXShbQ0gyXVtDQEBIXShbQ0gyXTUpW0NIMl1bQ0BIXShbQ0gzXSlbQ0gyXVtDSDJdNCkvW0NIXT1bQ0hdL1tDQEBdNjdbQ0BdKFtDSDNdKShbQ0gyXVtDQEBIXShbT0hdKVtDQEBdMzdbQ0gzXSlbQ0BASF04W0NASF0oW0NIMl02KVtDQEBIXShbQ0gzXSlbQ0BAXShbQ0gzXSkoW09IXSlbQ0gyXVtDSDJdOA==

>  <s_epik_cmdline>  (297) 
J2VwaWtfcHl0aG9uJywgJy1waHQnLCAnMi4wJywgJy1waCcsICc3LjAnLCAnLXRuJywgJzgnLCAnLW1hJywgJzIwMCcsICctaW1hZScsICc8aW5maWxlLm1hZT4nLCAnLW9tYWUnLCAnPG91dGZpbGUubWFlPic=

>  <r_lp_tautomer_probability>  (297) 
1

>  <r_epik_Ionization_Penalty>  (297) 
3.00161e-06

>  <r_epik_Ionization_Penalty_Charging>  (297) 
0

>  <r_epik_Ionization_Penalty_Neutral>  (297) 
3.00161e-06

>  <r_epik_State_Penalty>  (297) 
-0

>  <r_epik_Charging_Adjusted_Penalty>  (297) 
0

>  <i_epik_Tot_Q>  (297) 
0

>  <i_epik_Tot_abs_Q>  (297) 
0

>  <s_epik_Chemistry_Notes>  (297) 
This compound contains an acetal/aminal-like group ( X-CH(R)-Y where X, Y are N, S, or O) that may be acid/base labile, releasing an aldehyde.

>  <s_lp_Force_Field>  (297) 
OPLS3e

>  <r_lp_Energy>  (297) 
282.551

>  <b_lp_Chiralities_Consistent>  (297) 
1

>  <s_lp_Variant>  (297) 
100:0-2

>  <s_i_glide_gridfile>  (297) 
pfpi4k_grid

>  <i_i_glide_lignum>  (297) 
11

>  <i_i_glide_rotatable_bonds>  (297) 
2

>  <r_i_docking_score>  (297) 
-2.50914

>  <r_i_glide_ligand_efficiency>  (297) 
-0.0611986

>  <r_i_glide_ligand_efficiency_sa>  (297) 
-0.211026

>  <r_i_glide_ligand_efficiency_ln>  (297) 
-0.532323

>  <r_i_glide_gscore>  (297) 
-2.50914

>  <r_i_glide_lipo>  (297) 
-0.576626

>  <r_i_glide_hbond>  (297) 
0

>  <r_i_glide_metal>  (297) 
-0

>  <r_i_glide_rewards>  (297) 
0

>  <r_i_glide_evdw>  (297) 
-32.4671

>  <r_i_glide_ecoul>  (297) 
-2.00007

>  <r_i_glide_erotb>  (297) 
0

>  <r_i_glide_esite>  (297) 
-0.00914921

>  <r_i_glide_emodel>  (297) 
-39.6026

>  <r_i_glide_energy>  (297) 
-34.4672

>  <r_i_glide_einternal>  (297) 
0.135147

>  <r_i_glide_intrahb_reward>  (297) 
-0

>  <i_i_glide_confnum>  (297) 
2

>  <i_i_glide_posenum>  (297) 
8

>  <r_i_glide_eff_state_penalty>  (297) 
0

>  <ligand_id>  (297) 
100

>  <original_smiles>  (297) 
CC1CCC23OOC(OO2)C2CC4CC(C=CC56CC7C(C)C(C)(O)CCC7C5(C)CC(O)C6(C)C23C)CC(C1)C4

>  <smiles>  (297) 
[H]OC1([H])C([H])([H])C2(C([H])([H])[H])C3([H])C([H])([H])C([H])([H])C(O[H])(C([H])([H])[H])C([H])(C([H])([H])[H])C3([H])C([H])([H])C23C([H])=C([H])C2([H])C([H])([H])C4([H])C([H])([H])C([H])(C([H])([H])[H])C([H])([H])C([H])([H])C56OOC([H])(OO5)C([H])(C([H])([H])C([H])(C2([H])[H])C4([H])[H])C6(C([H])([H])[H])C13C([H])([H])[H]

$$$$
100:1:2
     RDKit          3D

 95102  0  0  1  0  0  0  0  0999 V2000
    3.7615    1.6635   11.1793 C   0  0  0  0  0  0  0  0  0  0  0  0
    2.6906    2.1582   10.1729 C   0  0  2  0  0  0  0  0  0  0  0  0
    1.8025    0.9432    9.6838 C   0  0  0  0  0  0  0  0  0  0  0  0
    0.8711    1.0762    8.4190 C   0  0  0  0  0  0  0  0  0  0  0  0
   -0.2736    2.1269    8.4169 C   0  0  2  0  0  0  0  0  0  0  0  0
    0.4438    3.1438    9.0630 O   0  0  0  0  0  0  0  0  0  0  0  0
   -0.5027    3.9639    9.9319 O   0  0  0  0  0  0  0  0  0  0  0  0
   -1.7036    4.0017    9.2569 C   0  0  2  0  0  0  0  0  0  0  0  0
   -2.3295    2.7746    9.5387 O   0  0  0  0  0  0  0  0  0  0  0  0
   -1.3007    1.6451    9.2724 O   0  0  0  0  0  0  0  0  0  0  0  0
   -1.3262    4.1934    7.7385 C   0  0  1  0  0  0  0  0  0  0  0  0
   -0.4214    5.5110    7.6653 C   0  0  0  0  0  0  0  0  0  0  0  0
    1.1436    5.6820    7.8762 C   0  0  2  0  0  0  0  0  0  0  0  0
    2.0215    5.9616    6.6361 C   0  0  0  0  0  0  0  0  0  0  0  0
    3.2189    5.0085    6.4458 C   0  0  2  0  0  0  0  0  0  0  0  0
    3.2017    3.5657    5.8967 C   0  0  0  0  0  0  0  0  0  0  0  0
    2.4648    2.5210    5.4276 C   0  0  0  0  0  0  0  0  0  0  0  0
    1.0583    1.9642    5.0466 C   0  0  2  0  0  0  0  0  0  0  0  0
    1.0668    0.4268    5.4261 C   0  0  0  0  0  0  0  0  0  0  0  0
    1.1184   -0.4967    4.1935 C   0  0  2  0  0  0  0  0  0  0  0  0
    1.8363   -1.8804    4.4121 C   0  0  1  0  0  0  0  0  0  0  0  0
    1.0207   -3.0345    3.7768 C   0  0  0  0  0  0  0  0  0  0  0  0
    3.3406   -1.8935    4.0007 C   0  0  1  0  0  0  0  0  0  0  0  0
    4.2384   -1.3435    5.1287 C   0  0  0  0  0  0  0  0  0  0  0  0
    3.7964   -3.2262    3.8362 O   0  0  0  0  0  0  0  0  0  0  0  0
    3.5664   -1.1715    2.6639 C   0  0  0  0  0  0  0  0  0  0  0  0
    3.0984    0.2785    2.7334 C   0  0  0  0  0  0  0  0  0  0  0  0
    1.5893    0.4029    3.0475 C   0  0  2  0  0  0  0  0  0  0  0  0
    1.0682    1.8310    3.4551 C   0  0  2  0  0  0  0  0  0  0  0  0
    1.8789    2.9211    2.6882 C   0  0  0  0  0  0  0  0  0  0  0  0
   -0.4201    1.9445    3.0549 C   0  0  0  0  0  0  0  0  0  0  0  0
   -1.2420    2.0473    4.3424 C   0  0  1  0  0  0  0  0  0  0  0  0
   -1.7814    0.7440    4.5300 O   0  0  0  0  0  0  0  0  0  0  0  0
   -0.3336    2.6864    5.4894 C   0  0  2  0  0  0  0  0  0  0  0  0
   -0.3419    4.1286    4.9666 C   0  0  0  0  0  0  0  0  0  0  0  0
   -0.9543    2.7591    7.0802 C   0  0  1  0  0  0  0  0  0  0  0  0
   -2.3871    2.1213    6.8936 C   0  0  0  0  0  0  0  0  0  0  0  0
    4.0652    5.0679    7.7454 C   0  0  0  0  0  0  0  0  0  0  0  0
    3.3329    4.5318    8.9936 C   0  0  2  0  0  0  0  0  0  0  0  0
    3.3579    2.9658    9.0191 C   0  0  0  0  0  0  0  0  0  0  0  0
    2.0102    5.3616    9.1625 C   0  0  0  0  0  0  0  0  0  0  0  0
    4.4659    0.9660   10.7220 H   0  0  0  0  0  0  0  0  0  0  0  0
    3.3039    1.1499   12.0254 H   0  0  0  0  0  0  0  0  0  0  0  0
    4.3433    2.4947   11.5792 H   0  0  0  0  0  0  0  0  0  0  0  0
    2.0550    2.8357   10.7403 H   0  0  0  0  0  0  0  0  0  0  0  0
    2.4932    0.1279    9.4486 H   0  0  0  0  0  0  0  0  0  0  0  0
    1.2195    0.5787   10.5353 H   0  0  0  0  0  0  0  0  0  0  0  0
    1.5200    1.3532    7.6180 H   0  0  0  0  0  0  0  0  0  0  0  0
    0.4570    0.0960    8.1917 H   0  0  0  0  0  0  0  0  0  0  0  0
   -2.3528    4.8204    9.6227 H   0  0  0  0  0  0  0  0  0  0  0  0
   -2.2653    4.5109    7.2630 H   0  0  0  0  0  0  0  0  0  0  0  0
   -0.6413    6.0193    6.7292 H   0  0  0  0  0  0  0  0  0  0  0  0
   -0.8972    6.1997    8.3546 H   0  0  0  0  0  0  0  0  0  0  0  0
    1.0067    6.7574    8.1361 H   0  0  0  0  0  0  0  0  0  0  0  0
    1.4966    6.2256    5.7160 H   0  0  0  0  0  0  0  0  0  0  0  0
    2.4893    6.9180    6.8076 H   0  0  0  0  0  0  0  0  0  0  0  0
    3.8186    5.5074    5.6764 H   0  0  0  0  0  0  0  0  0  0  0  0
    4.2393    3.2716    5.8833 H   0  0  0  0  0  0  0  0  0  0  0  0
    3.1644    1.7315    5.2114 H   0  0  0  0  0  0  0  0  0  0  0  0
    1.9288    0.1613    6.0367 H   0  0  0  0  0  0  0  0  0  0  0  0
    0.1894    0.1555    6.0100 H   0  0  0  0  0  0  0  0  0  0  0  0
    0.0829   -0.7364    3.9635 H   0  0  0  0  0  0  0  0  0  0  0  0
    1.7873   -2.0995    5.4720 H   0  0  0  0  0  0  0  0  0  0  0  0
    1.0445   -3.0025    2.6923 H   0  0  0  0  0  0  0  0  0  0  0  0
   -0.0207   -3.0149    4.1025 H   0  0  0  0  0  0  0  0  0  0  0  0
    1.4103   -4.0087    4.0947 H   0  0  0  0  0  0  0  0  0  0  0  0
    4.0058   -0.3108    5.3777 H   0  0  0  0  0  0  0  0  0  0  0  0
    5.2910   -1.3814    4.8493 H   0  0  0  0  0  0  0  0  0  0  0  0
    4.1170   -1.9302    6.0418 H   0  0  0  0  0  0  0  0  0  0  0  0
    3.3696   -3.5906    3.0900 H   0  0  0  0  0  0  0  0  0  0  0  0
    4.6201   -1.2117    2.3888 H   0  0  0  0  0  0  0  0  0  0  0  0
    3.0287   -1.6828    1.8619 H   0  0  0  0  0  0  0  0  0  0  0  0
    3.7141    0.8183    3.4322 H   0  0  0  0  0  0  0  0  0  0  0  0
    3.3011    0.7482    1.7637 H   0  0  0  0  0  0  0  0  0  0  0  0
    1.0994    0.0806    2.1368 H   0  0  0  0  0  0  0  0  0  0  0  0
    1.7498    2.8040    1.6098 H   0  0  0  0  0  0  0  0  0  0  0  0
    2.9511    2.8882    2.8722 H   0  0  0  0  0  0  0  0  0  0  0  0
    1.5761    3.9400    2.9252 H   0  0  0  0  0  0  0  0  0  0  0  0
   -0.5852    2.8352    2.4524 H   0  0  0  0  0  0  0  0  0  0  0  0
   -0.7680    1.1382    2.4008 H   0  0  0  0  0  0  0  0  0  0  0  0
   -2.1091    2.6792    4.1212 H   0  0  0  0  0  0  0  0  0  0  0  0
   -2.3917    0.5703    3.8295 H   0  0  0  0  0  0  0  0  0  0  0  0
   -1.2659    4.6517    5.2005 H   0  0  0  0  0  0  0  0  0  0  0  0
   -0.2297    4.2905    3.9038 H   0  0  0  0  0  0  0  0  0  0  0  0
    0.5019    4.6004    5.3950 H   0  0  0  0  0  0  0  0  0  0  0  0
   -2.9201    2.5182    6.0319 H   0  0  0  0  0  0  0  0  0  0  0  0
   -3.1696    2.3592    7.6008 H   0  0  0  0  0  0  0  0  0  0  0  0
   -2.3559    1.0308    6.8737 H   0  0  0  0  0  0  0  0  0  0  0  0
    5.0143    4.5443    7.6051 H   0  0  0  0  0  0  0  0  0  0  0  0
    4.3397    6.1078    7.9273 H   0  0  0  0  0  0  0  0  0  0  0  0
    3.9480    4.8059    9.8576 H   0  0  0  0  0  0  0  0  0  0  0  0
    4.4037    2.6683    8.9713 H   0  0  0  0  0  0  0  0  0  0  0  0
    2.9837    2.5968    8.0915 H   0  0  0  0  0  0  0  0  0  0  0  0
    2.3674    6.3168    9.5190 H   0  0  0  0  0  0  0  0  0  0  0  0
    1.4543    5.0513   10.0390 H   0  0  0  0  0  0  0  0  0  0  0  0
  1  2  1  0
  1 42  1  0
  1 43  1  0
  1 44  1  0
  2 40  1  0
  2  3  1  0
  2 45  1  1
  3  4  1  0
  3 46  1  0
  3 47  1  0
  5  4  1  6
  4 48  1  0
  4 49  1  0
  5 10  1  0
  5 36  1  0
  5  6  1  0
  6  7  1  0
  7  8  1  0
  8  9  1  0
  8 11  1  0
  8 50  1  1
  9 10  1  0
 11 36  1  0
 11 12  1  0
 11 51  1  6
 12 13  1  0
 12 52  1  0
 12 53  1  0
 13 41  1  0
 13 14  1  0
 13 54  1  1
 14 15  1  0
 14 55  1  0
 14 56  1  0
 15 16  1  0
 15 38  1  0
 15 57  1  6
 16 17  2  3
 16 58  1  0
 17 18  1  0
 17 59  1  0
 18 29  1  0
 18 34  1  0
 18 19  1  1
 19 20  1  0
 19 60  1  0
 19 61  1  0
 20 28  1  0
 20 21  1  0
 20 62  1  6
 21 22  1  0
 21 23  1  0
 21 63  1  1
 22 64  1  0
 22 65  1  0
 22 66  1  0
 23 24  1  0
 23 25  1  6
 23 26  1  0
 24 67  1  0
 24 68  1  0
 24 69  1  0
 25 70  1  0
 26 27  1  0
 26 71  1  0
 26 72  1  0
 27 28  1  0
 27 73  1  0
 27 74  1  0
 28 29  1  0
 28 75  1  6
 29 30  1  6
 29 31  1  0
 30 76  1  0
 30 77  1  0
 30 78  1  0
 31 32  1  0
 31 79  1  0
 31 80  1  0
 32 33  1  0
 32 34  1  0
 32 81  1  6
 33 82  1  0
 34 35  1  6
 34 36  1  0
 35 83  1  0
 35 84  1  0
 35 85  1  0
 36 37  1  6
 37 86  1  0
 37 87  1  0
 37 88  1  0
 38 39  1  0
 38 89  1  0
 38 90  1  0
 39 40  1  0
 39 41  1  0
 39 91  1  1
 40 92  1  0
 40 93  1  0
 41 94  1  0
 41 95  1  0
M  END
>  <i_m_ct_stereo_status>  (298) 
1

>  <s_m_source_file>  (298) 
/var/tmp/pbs.5076255.sched01/tmppy4q9rbr/123plv7d954.sdf

>  <i_m_source_file_index>  (298) 
11

>  <i_lp_mmshare_version>  (298) 
48012

>  <i_f3d_flags>  (298) 
0

>  <s_epik_input>  (298) 
TzFPW0NASF0oT08yKVtDQEhdKFtDQEBdMyhbQ0BAXTEyNClbQ0gzXSlbQ0gyXVtDQEBIXTVbQ0gyXVtDQEBIXShbQ0gyXVtDQEBIXShbQ0gyXTUpW0NIMl1bQ0BIXShbQ0gzXSlbQ0gyXVtDSDJdNCkvW0NIXT1bQ0hdL1tDQEBdNjdbQ0BdKFtDSDNdKShbQ0gyXVtDQEBIXShbT0hdKVtDQEBdMzdbQ0gzXSlbQ0BASF04W0NASF0oW0NIMl02KVtDQEBIXShbQ0gzXSlbQ0BAXShbQ0gzXSkoW09IXSlbQ0gyXVtDSDJdOA==

>  <s_epik_cmdline>  (298) 
J2VwaWtfcHl0aG9uJywgJy1waHQnLCAnMi4wJywgJy1waCcsICc3LjAnLCAnLXRuJywgJzgnLCAnLW1hJywgJzIwMCcsICctaW1hZScsICc8aW5maWxlLm1hZT4nLCAnLW9tYWUnLCAnPG91dGZpbGUubWFlPic=

>  <r_lp_tautomer_probability>  (298) 
1

>  <r_epik_Ionization_Penalty>  (298) 
3.00161e-06

>  <r_epik_Ionization_Penalty_Charging>  (298) 
0

>  <r_epik_Ionization_Penalty_Neutral>  (298) 
3.00161e-06

>  <r_epik_State_Penalty>  (298) 
-0

>  <r_epik_Charging_Adjusted_Penalty>  (298) 
0

>  <i_epik_Tot_Q>  (298) 
0

>  <i_epik_Tot_abs_Q>  (298) 
0

>  <s_epik_Chemistry_Notes>  (298) 
This compound contains an acetal/aminal-like group ( X-CH(R)-Y where X, Y are N, S, or O) that may be acid/base labile, releasing an aldehyde.

>  <s_lp_Force_Field>  (298) 
OPLS3e

>  <r_lp_Energy>  (298) 
282.551

>  <b_lp_Chiralities_Consistent>  (298) 
1

>  <s_lp_Variant>  (298) 
100:0-2

>  <s_i_glide_gridfile>  (298) 
pfpi4k_grid

>  <i_i_glide_lignum>  (298) 
11

>  <i_i_glide_rotatable_bonds>  (298) 
2

>  <r_i_docking_score>  (298) 
-2.30602

>  <r_i_glide_ligand_efficiency>  (298) 
-0.0562443

>  <r_i_glide_ligand_efficiency_sa>  (298) 
-0.193943

>  <r_i_glide_ligand_efficiency_ln>  (298) 
-0.489229

>  <r_i_glide_gscore>  (298) 
-2.30602

>  <r_i_glide_lipo>  (298) 
-0.0878921

>  <r_i_glide_hbond>  (298) 
-0.32

>  <r_i_glide_metal>  (298) 
-0

>  <r_i_glide_rewards>  (298) 
0

>  <r_i_glide_evdw>  (298) 
-28.3325

>  <r_i_glide_ecoul>  (298) 
-3.08987

>  <r_i_glide_erotb>  (298) 
0

>  <r_i_glide_esite>  (298) 
-0.0180179

>  <r_i_glide_emodel>  (298) 
-35.9457

>  <r_i_glide_energy>  (298) 
-31.4224

>  <r_i_glide_einternal>  (298) 
0.412276

>  <r_i_glide_intrahb_reward>  (298) 
-0

>  <i_i_glide_confnum>  (298) 
1

>  <i_i_glide_posenum>  (298) 
24

>  <r_i_glide_eff_state_penalty>  (298) 
0

>  <ligand_id>  (298) 
100

>  <original_smiles>  (298) 
CC1CCC23OOC(OO2)C2CC4CC(C=CC56CC7C(C)C(C)(O)CCC7C5(C)CC(O)C6(C)C23C)CC(C1)C4

>  <smiles>  (298) 
[H]OC1([H])C([H])([H])C2(C([H])([H])[H])C3([H])C([H])([H])C([H])([H])C(O[H])(C([H])([H])[H])C([H])(C([H])([H])[H])C3([H])C([H])([H])C23C([H])=C([H])C2([H])C([H])([H])C4([H])C([H])([H])C([H])(C([H])([H])[H])C([H])([H])C([H])([H])C56OOC([H])(OO5)C([H])(C([H])([H])C([H])(C2([H])[H])C4([H])[H])C6(C([H])([H])[H])C13C([H])([H])[H]

$$$$
101:0:0
     RDKit          3D

 85 94  0  0  1  0  0  0  0  0999 V2000
   -0.2354   -5.0398    8.9830 C   0  0  0  0  0  0  0  0  0  0  0  0
    0.7778   -3.9126    8.8752 C   0  0  0  0  0  0  0  0  0  0  0  0
    1.5666   -3.8008   10.1693 C   0  0  0  0  0  0  0  0  0  0  0  0
    1.4684   -3.6465    7.5496 C   0  0  1  0  0  0  0  0  0  0  0  0
    1.0683   -3.9747    6.1611 C   0  0  2  0  0  0  0  0  0  0  0  0
    2.0277   -4.8225    5.5691 O   0  0  0  0  0  0  0  0  0  0  0  0
    1.7294   -4.9185    4.1913 C   0  0  2  0  0  0  0  0  0  0  0  0
    0.6240   -5.9660    3.9603 C   0  0  0  0  0  0  0  0  0  0  0  0
    0.3891   -6.2544    2.5868 O   0  0  0  0  0  0  0  0  0  0  0  0
    1.3489   -6.2787    1.6307 C   0  0  0  0  0  0  0  0  0  0  0  0
    1.0906   -6.5988    0.4781 O   0  0  0  0  0  0  0  0  0  0  0  0
    2.7517   -5.7390    1.9832 C   0  0  2  0  0  0  0  0  0  0  0  0
    3.8433   -6.7619    1.6658 C   0  0  0  0  0  0  0  0  0  0  0  0
    4.0112   -7.4815    2.8734 O   0  0  0  0  0  0  0  0  0  0  0  0
    3.3444   -6.6900    3.9760 O   0  0  0  0  0  0  0  0  0  0  0  0
    3.0035   -5.4108    3.4574 C   0  0  2  0  0  0  0  0  0  0  0  0
    4.2264   -4.4816    3.6536 C   0  0  0  0  0  0  0  0  0  0  0  0
    1.2570   -3.4821    3.8709 C   0  0  0  0  0  0  0  0  0  0  0  0
    0.8935   -2.7632    5.2092 C   0  0  2  0  0  0  0  0  0  0  0  0
    1.5178   -1.2786    5.4416 C   0  0  1  0  0  0  0  0  0  0  0  0
    3.0578   -1.3831    5.3395 C   0  0  0  0  0  0  0  0  0  0  0  0
    0.9283   -0.5641    4.1532 C   0  0  0  0  0  0  0  0  0  0  0  0
    1.2425    0.8557    3.7710 C   0  0  2  0  0  0  0  0  0  0  0  0
    2.6351    1.1173    3.6769 O   0  0  0  0  0  0  0  0  0  0  0  0
    1.8789    1.9619    4.5517 C   0  0  2  0  0  0  0  0  0  0  0  0
    2.3210    1.9428    5.9905 C   0  0  1  0  0  0  0  0  0  0  0  0
    3.5251    2.7055    6.2228 O   0  0  0  0  0  0  0  0  0  0  0  0
    2.3291    3.3583    6.5797 C   0  0  2  0  0  0  0  0  0  0  0  0
    1.8868    3.3258    8.0015 C   0  0  0  0  0  0  0  0  0  0  0  0
    1.1361    1.9942    8.1124 C   0  0  1  0  0  0  0  0  0  0  0  0
   -0.3670    2.2637    7.9275 C   0  0  0  0  0  0  0  0  0  0  0  0
   -1.2092    2.2784    9.0601 C   0  0  0  0  0  0  0  0  0  0  0  0
   -2.5859    2.5434    8.9258 C   0  0  0  0  0  0  0  0  0  0  0  0
   -3.1336    2.7876    7.6534 C   0  0  0  0  0  0  0  0  0  0  0  0
   -2.3077    2.7917    6.5177 C   0  0  0  0  0  0  0  0  0  0  0  0
   -0.9254    2.5608    6.6626 C   0  0  0  0  0  0  0  0  0  0  0  0
    1.8702    0.9684    7.1362 C   0  0  2  0  0  0  0  0  0  0  0  0
    3.1895    0.6230    7.9367 C   0  0  0  0  0  0  0  0  0  0  0  0
    1.0911   -0.4549    6.7994 C   0  0  1  0  0  0  0  0  0  0  0  0
   -0.2963   -0.2727    6.5791 O   0  0  0  0  0  0  0  0  0  0  0  0
    1.0801   -1.3035    8.1519 C   0  0  1  0  0  0  0  0  0  0  0  0
    0.3781   -0.6808    9.2135 O   0  0  0  0  0  0  0  0  0  0  0  0
    0.4690   -2.6675    8.0717 C   0  0  2  0  0  0  0  0  0  0  0  0
    0.2781   -5.9968    9.0774 H   0  0  0  0  0  0  0  0  0  0  0  0
   -0.8734   -5.0801    8.0999 H   0  0  0  0  0  0  0  0  0  0  0  0
   -0.8778   -4.8997    9.8535 H   0  0  0  0  0  0  0  0  0  0  0  0
    2.3388   -3.0370   10.0887 H   0  0  0  0  0  0  0  0  0  0  0  0
    2.0577   -4.7472   10.4023 H   0  0  0  0  0  0  0  0  0  0  0  0
    0.9085   -3.5310   10.9959 H   0  0  0  0  0  0  0  0  0  0  0  0
    2.5289   -3.4258    7.6381 H   0  0  0  0  0  0  0  0  0  0  0  0
    0.1226   -4.5167    6.1903 H   0  0  0  0  0  0  0  0  0  0  0  0
    0.8580   -6.9036    4.4674 H   0  0  0  0  0  0  0  0  0  0  0  0
   -0.3219   -5.6148    4.3744 H   0  0  0  0  0  0  0  0  0  0  0  0
    2.8874   -4.8568    1.3608 H   0  0  0  0  0  0  0  0  0  0  0  0
    3.6070   -7.4348    0.8368 H   0  0  0  0  0  0  0  0  0  0  0  0
    4.7807   -6.2594    1.4188 H   0  0  0  0  0  0  0  0  0  0  0  0
    4.1411   -3.5613    3.0728 H   0  0  0  0  0  0  0  0  0  0  0  0
    5.1581   -4.9620    3.3494 H   0  0  0  0  0  0  0  0  0  0  0  0
    4.3412   -4.2057    4.7034 H   0  0  0  0  0  0  0  0  0  0  0  0
    2.0300   -2.9821    3.2969 H   0  0  0  0  0  0  0  0  0  0  0  0
    0.3847   -3.4947    3.2230 H   0  0  0  0  0  0  0  0  0  0  0  0
   -0.1881   -2.6099    5.1952 H   0  0  0  0  0  0  0  0  0  0  0  0
    3.5430   -0.4119    5.3774 H   0  0  0  0  0  0  0  0  0  0  0  0
    3.3895   -1.8122    4.4004 H   0  0  0  0  0  0  0  0  0  0  0  0
    3.4744   -1.9950    6.1369 H   0  0  0  0  0  0  0  0  0  0  0  0
    1.2293   -1.0845    3.2511 H   0  0  0  0  0  0  0  0  0  0  0  0
   -0.1593   -0.6431    4.1320 H   0  0  0  0  0  0  0  0  0  0  0  0
    0.6940    1.1793    2.8894 H   0  0  0  0  0  0  0  0  0  0  0  0
    1.6627    2.9441    4.1339 H   0  0  0  0  0  0  0  0  0  0  0  0
    2.1043    4.2427    5.9882 H   0  0  0  0  0  0  0  0  0  0  0  0
    2.7743    3.3504    8.6376 H   0  0  0  0  0  0  0  0  0  0  0  0
    1.2788    4.1978    8.2477 H   0  0  0  0  0  0  0  0  0  0  0  0
    1.2572    1.6769    9.1464 H   0  0  0  0  0  0  0  0  0  0  0  0
   -0.8131    2.0840   10.0448 H   0  0  0  0  0  0  0  0  0  0  0  0
   -3.2225    2.5424    9.7987 H   0  0  0  0  0  0  0  0  0  0  0  0
   -4.1982    2.9428    7.5494 H   0  0  0  0  0  0  0  0  0  0  0  0
   -2.7291    2.9594    5.5356 H   0  0  0  0  0  0  0  0  0  0  0  0
   -0.3170    2.5839    5.7765 H   0  0  0  0  0  0  0  0  0  0  0  0
    2.9905    0.3498    8.9702 H   0  0  0  0  0  0  0  0  0  0  0  0
    3.8936    1.4404    8.0506 H   0  0  0  0  0  0  0  0  0  0  0  0
    3.7649   -0.1885    7.5075 H   0  0  0  0  0  0  0  0  0  0  0  0
   -0.3970    0.3507    5.8773 H   0  0  0  0  0  0  0  0  0  0  0  0
    2.0949   -1.4757    8.4966 H   0  0  0  0  0  0  0  0  0  0  0  0
    0.8891    0.0532    9.5198 H   0  0  0  0  0  0  0  0  0  0  0  0
   -0.5428   -2.6647    7.6694 H   0  0  0  0  0  0  0  0  0  0  0  0
  1  2  1  0
  1 44  1  0
  1 45  1  0
  1 46  1  0
  2 43  1  0
  2  3  1  0
  2  4  1  0
  3 47  1  0
  3 48  1  0
  3 49  1  0
  4 43  1  0
  4  5  1  0
  4 50  1  1
  5 19  1  0
  5  6  1  0
  5 51  1  1
  7  6  1  1
  7 16  1  0
  7  8  1  0
  7 18  1  0
  8  9  1  0
  8 52  1  0
  8 53  1  0
  9 10  1  0
 10 11  2  0
 10 12  1  0
 12 16  1  0
 12 13  1  0
 12 54  1  6
 13 14  1  0
 13 55  1  0
 13 56  1  0
 14 15  1  0
 15 16  1  0
 16 17  1  6
 17 57  1  0
 17 58  1  0
 17 59  1  0
 18 19  1  0
 18 60  1  0
 18 61  1  0
 19 20  1  0
 19 62  1  6
 20 39  1  0
 20 21  1  6
 20 22  1  0
 21 63  1  0
 21 64  1  0
 21 65  1  0
 22 23  1  0
 22 66  1  0
 22 67  1  0
 23 25  1  0
 23 24  1  0
 23 68  1  6
 24 25  1  0
 25 26  1  0
 25 69  1  6
 26 28  1  0
 26 37  1  0
 26 27  1  6
 27 28  1  0
 28 29  1  0
 28 70  1  6
 29 30  1  0
 29 71  1  0
 29 72  1  0
 30 31  1  0
 30 37  1  0
 30 73  1  1
 31 36  1  0
 31 32  2  0
 32 33  1  0
 32 74  1  0
 33 34  2  0
 33 75  1  0
 34 35  1  0
 34 76  1  0
 35 36  2  0
 35 77  1  0
 36 78  1  0
 37 38  1  1
 37 39  1  0
 38 79  1  0
 38 80  1  0
 38 81  1  0
 39 40  1  6
 39 41  1  0
 40 82  1  0
 41 42  1  0
 41 43  1  0
 41 83  1  1
 42 84  1  0
 43 85  1  6
M  END
>  <i_m_ct_stereo_status>  (299) 
1

>  <s_m_source_file>  (299) 
/var/tmp/pbs.5076255.sched01/tmppy4q9rbr/123plv7d954.sdf

>  <i_m_source_file_index>  (299) 
12

>  <i_lp_mmshare_version>  (299) 
48012

>  <i_f3d_flags>  (299) 
0

>  <s_epik_input>  (299) 
W0NIMl0xT0MoPU8pW0NASF0oW0NIMl1PTzIpW0NAQF0yKFtDSDNdKVtDQF0xM09bQ0BIXTRbQ0BIXTVbQ0BASF0oQzUoW0NIM10pW0NIM10pW0NASF0oW09IXSlbQ0BdNihbT0hdKVtDQEBdKFtDSDNdKShbQ0BIXTRbQ0gyXTMpW0NIMl1bQ0BIXTdbQ0BIXShPNylbQ0BdODlbQ0BASF0oTzgpW0NIMl1bQ0BIXShbQ0BAXTY5W0NIM10pYzFbY0hdW2NIXVtjSF1bY0hdW2NIXTE=

>  <s_epik_cmdline>  (299) 
J2VwaWtfcHl0aG9uJywgJy1waHQnLCAnMi4wJywgJy1waCcsICc3LjAnLCAnLXRuJywgJzgnLCAnLW1hJywgJzIwMCcsICctaW1hZScsICc8aW5maWxlLm1hZT4nLCAnLW9tYWUnLCAnPG91dGZpbGUubWFlPic=

>  <r_lp_tautomer_probability>  (299) 
1

>  <r_epik_Ionization_Penalty>  (299) 
2.3494e-07

>  <r_epik_Ionization_Penalty_Charging>  (299) 
0

>  <r_epik_Ionization_Penalty_Neutral>  (299) 
2.3494e-07

>  <r_epik_State_Penalty>  (299) 
-0

>  <r_epik_Charging_Adjusted_Penalty>  (299) 
0

>  <i_epik_Tot_Q>  (299) 
0

>  <i_epik_Tot_abs_Q>  (299) 
0

>  <s_epik_Chemistry_Notes>  (299) 
This compound has an ester and may undergo hydrolysis at high or low pH.

>  <s_lp_Force_Field>  (299) 
OPLS3e

>  <r_lp_Energy>  (299) 
131.493

>  <b_lp_Chiralities_Consistent>  (299) 
1

>  <s_lp_Variant>  (299) 
101:0-1

>  <s_i_glide_gridfile>  (299) 
pfpi4k_grid

>  <i_i_glide_lignum>  (299) 
12

>  <i_i_glide_rotatable_bonds>  (299) 
3

>  <r_i_docking_score>  (299) 
-2.92579

>  <r_i_glide_ligand_efficiency>  (299) 
-0.0680415

>  <r_i_glide_ligand_efficiency_sa>  (299) 
-0.238377

>  <r_i_glide_ligand_efficiency_ln>  (299) 
-0.614506

>  <r_i_glide_gscore>  (299) 
-2.92579

>  <r_i_glide_lipo>  (299) 
-0.345161

>  <r_i_glide_hbond>  (299) 
-0.206644

>  <r_i_glide_metal>  (299) 
-0

>  <r_i_glide_rewards>  (299) 
0

>  <r_i_glide_evdw>  (299) 
-27.9544

>  <r_i_glide_ecoul>  (299) 
-6.47625

>  <r_i_glide_erotb>  (299) 
0.0593037

>  <r_i_glide_esite>  (299) 
-0.0641287

>  <r_i_glide_emodel>  (299) 
-40.266

>  <r_i_glide_energy>  (299) 
-34.4306

>  <r_i_glide_einternal>  (299) 
1.12658

>  <r_i_glide_intrahb_reward>  (299) 
-0

>  <i_i_glide_confnum>  (299) 
3

>  <i_i_glide_posenum>  (299) 
16

>  <r_i_glide_eff_state_penalty>  (299) 
0

>  <ligand_id>  (299) 
101

>  <original_smiles>  (299) 
CC1(C)C2C3OC4(COC(=O)C5COOC54C)CC3C3(C)CC4OC4C45OC4CC(c4ccccc4)C5(C)C3(O)C(O)C21

>  <smiles>  (299) 
[H]OC1([H])C2([H])C([H])(C3([H])OC4(C([H])([H])OC(=O)C5([H])C([H])([H])OOC54C([H])([H])[H])C([H])([H])C3([H])C3(C([H])([H])[H])C([H])([H])C4([H])OC4([H])C45OC4([H])C([H])([H])C([H])(c4c([H])c([H])c([H])c([H])c4[H])C5(C([H])([H])[H])C13O[H])C2(C([H])([H])[H])C([H])([H])[H]

$$$$
101:0:1
     RDKit          3D

 85 94  0  0  1  0  0  0  0  0999 V2000
    3.8693   -0.9868    0.5086 C   0  0  0  0  0  0  0  0  0  0  0  0
    4.0864   -1.5927    1.8854 C   0  0  0  0  0  0  0  0  0  0  0  0
    5.5481   -1.9670    2.0586 C   0  0  0  0  0  0  0  0  0  0  0  0
    3.2987   -1.0643    3.0698 C   0  0  1  0  0  0  0  0  0  0  0  0
    2.0032   -0.3450    3.1342 C   0  0  2  0  0  0  0  0  0  0  0  0
    2.1863    0.9211    3.7259 O   0  0  0  0  0  0  0  0  0  0  0  0
    0.9076    1.4690    3.9722 C   0  0  2  0  0  0  0  0  0  0  0  0
    0.3267    2.1063    2.6996 C   0  0  0  0  0  0  0  0  0  0  0  0
   -0.9032    2.7823    2.9467 O   0  0  0  0  0  0  0  0  0  0  0  0
   -1.1403    3.5462    4.0341 C   0  0  0  0  0  0  0  0  0  0  0  0
   -2.1257    4.2797    4.1132 O   0  0  0  0  0  0  0  0  0  0  0  0
   -0.2119    3.3926    5.2528 C   0  0  2  0  0  0  0  0  0  0  0  0
    0.3046    4.7449    5.7480 C   0  0  0  0  0  0  0  0  0  0  0  0
    1.5372    4.9241    5.0755 O   0  0  0  0  0  0  0  0  0  0  0  0
    1.9362    3.5878    4.4900 O   0  0  0  0  0  0  0  0  0  0  0  0
    1.0725    2.5926    5.0290 C   0  0  2  0  0  0  0  0  0  0  0  0
    1.6950    2.1035    6.3585 C   0  0  0  0  0  0  0  0  0  0  0  0
    0.1030    0.2239    4.4024 C   0  0  0  0  0  0  0  0  0  0  0  0
    0.8836   -1.0531    3.9402 C   0  0  2  0  0  0  0  0  0  0  0  0
    1.1151   -2.2240    5.0509 C   0  0  1  0  0  0  0  0  0  0  0  0
    1.8574   -1.6056    6.2562 C   0  0  0  0  0  0  0  0  0  0  0  0
   -0.3992   -2.4899    5.4274 C   0  0  0  0  0  0  0  0  0  0  0  0
   -0.8383   -3.4621    6.4852 C   0  0  2  0  0  0  0  0  0  0  0  0
   -0.2575   -3.2172    7.7557 O   0  0  0  0  0  0  0  0  0  0  0  0
   -0.0865   -4.5302    7.2070 C   0  0  2  0  0  0  0  0  0  0  0  0
    1.3454   -4.9576    6.9988 C   0  0  1  0  0  0  0  0  0  0  0  0
    2.0128   -5.3127    8.2282 O   0  0  0  0  0  0  0  0  0  0  0  0
    1.5627   -6.4039    7.4598 C   0  0  2  0  0  0  0  0  0  0  0  0
    2.5122   -7.0948    6.5391 C   0  0  0  0  0  0  0  0  0  0  0  0
    2.4710   -6.2402    5.2634 C   0  0  1  0  0  0  0  0  0  0  0  0
    1.4688   -6.8558    4.2699 C   0  0  0  0  0  0  0  0  0  0  0  0
    1.9161   -7.2914    3.0025 C   0  0  0  0  0  0  0  0  0  0  0  0
    1.0242   -7.8670    2.0813 C   0  0  0  0  0  0  0  0  0  0  0  0
   -0.3315   -8.0329    2.4173 C   0  0  0  0  0  0  0  0  0  0  0  0
   -0.7918   -7.6216    3.6821 C   0  0  0  0  0  0  0  0  0  0  0  0
    0.1030   -7.0399    4.5991 C   0  0  0  0  0  0  0  0  0  0  0  0
    2.2546   -4.7323    5.7418 C   0  0  2  0  0  0  0  0  0  0  0  0
    3.6765   -4.3423    6.3094 C   0  0  0  0  0  0  0  0  0  0  0  0
    1.8505   -3.6222    4.5868 C   0  0  1  0  0  0  0  0  0  0  0  0
    0.8940   -4.1621    3.7056 O   0  0  0  0  0  0  0  0  0  0  0  0
    3.1301   -3.4385    3.6451 C   0  0  1  0  0  0  0  0  0  0  0  0
    3.5501   -4.6154    2.9890 O   0  0  0  0  0  0  0  0  0  0  0  0
    3.0105   -2.4324    2.5418 C   0  0  2  0  0  0  0  0  0  0  0  0
    4.4063   -0.0410    0.4202 H   0  0  0  0  0  0  0  0  0  0  0  0
    2.8124   -0.7916    0.3335 H   0  0  0  0  0  0  0  0  0  0  0  0
    4.2163   -1.6634   -0.2739 H   0  0  0  0  0  0  0  0  0  0  0  0
    5.7353   -2.3455    3.0629 H   0  0  0  0  0  0  0  0  0  0  0  0
    6.1881   -1.0969    1.9070 H   0  0  0  0  0  0  0  0  0  0  0  0
    5.8314   -2.7408    1.3437 H   0  0  0  0  0  0  0  0  0  0  0  0
    3.8829   -0.9528    3.9792 H   0  0  0  0  0  0  0  0  0  0  0  0
    1.6396   -0.1863    2.1179 H   0  0  0  0  0  0  0  0  0  0  0  0
    1.0495    2.7893    2.2448 H   0  0  0  0  0  0  0  0  0  0  0  0
    0.1165    1.3465    1.9462 H   0  0  0  0  0  0  0  0  0  0  0  0
   -0.8278    2.9321    6.0203 H   0  0  0  0  0  0  0  0  0  0  0  0
   -0.3691    5.5869    5.5641 H   0  0  0  0  0  0  0  0  0  0  0  0
    0.4915    4.7086    6.8230 H   0  0  0  0  0  0  0  0  0  0  0  0
    0.9878    1.5266    6.9556 H   0  0  0  0  0  0  0  0  0  0  0  0
    2.0293    2.9345    6.9828 H   0  0  0  0  0  0  0  0  0  0  0  0
    2.5678    1.4777    6.1742 H   0  0  0  0  0  0  0  0  0  0  0  0
   -0.0570    0.2757    5.4729 H   0  0  0  0  0  0  0  0  0  0  0  0
   -0.8961    0.2380    3.9618 H   0  0  0  0  0  0  0  0  0  0  0  0
    0.2743   -1.5182    3.1637 H   0  0  0  0  0  0  0  0  0  0  0  0
    1.9493   -2.3024    7.0861 H   0  0  0  0  0  0  0  0  0  0  0  0
    1.3389   -0.7513    6.6779 H   0  0  0  0  0  0  0  0  0  0  0  0
    2.8574   -1.2741    5.9858 H   0  0  0  0  0  0  0  0  0  0  0  0
   -0.8858   -1.5823    5.7640 H   0  0  0  0  0  0  0  0  0  0  0  0
   -0.9606   -2.7519    4.5314 H   0  0  0  0  0  0  0  0  0  0  0  0
   -1.9197   -3.5586    6.5324 H   0  0  0  0  0  0  0  0  0  0  0  0
   -0.7357   -5.2743    7.6622 H   0  0  0  0  0  0  0  0  0  0  0  0
    0.7790   -6.9952    7.9249 H   0  0  0  0  0  0  0  0  0  0  0  0
    3.5010   -7.0972    7.0019 H   0  0  0  0  0  0  0  0  0  0  0  0
    2.2208   -8.1340    6.3766 H   0  0  0  0  0  0  0  0  0  0  0  0
    3.4519   -6.3438    4.8015 H   0  0  0  0  0  0  0  0  0  0  0  0
    2.9562   -7.1867    2.7329 H   0  0  0  0  0  0  0  0  0  0  0  0
    1.3861   -8.2033    1.1176 H   0  0  0  0  0  0  0  0  0  0  0  0
   -1.0062   -8.4981    1.7125 H   0  0  0  0  0  0  0  0  0  0  0  0
   -1.8269   -7.7728    3.9553 H   0  0  0  0  0  0  0  0  0  0  0  0
   -0.2750   -6.7468    5.5637 H   0  0  0  0  0  0  0  0  0  0  0  0
    4.4769   -4.5925    5.6163 H   0  0  0  0  0  0  0  0  0  0  0  0
    3.9783   -4.8699    7.2101 H   0  0  0  0  0  0  0  0  0  0  0  0
    3.7857   -3.2887    6.5442 H   0  0  0  0  0  0  0  0  0  0  0  0
    0.8398   -3.5905    2.9534 H   0  0  0  0  0  0  0  0  0  0  0  0
    3.9774   -3.1064    4.2361 H   0  0  0  0  0  0  0  0  0  0  0  0
    4.3660   -4.4350    2.5424 H   0  0  0  0  0  0  0  0  0  0  0  0
    2.1528   -2.5954    1.8919 H   0  0  0  0  0  0  0  0  0  0  0  0
  1  2  1  0
  1 44  1  0
  1 45  1  0
  1 46  1  0
  2 43  1  0
  2  3  1  0
  2  4  1  0
  3 47  1  0
  3 48  1  0
  3 49  1  0
  4 43  1  0
  4  5  1  0
  4 50  1  1
  5 19  1  0
  5  6  1  0
  5 51  1  6
  7  6  1  6
  7 16  1  0
  7  8  1  0
  7 18  1  0
  8  9  1  0
  8 52  1  0
  8 53  1  0
  9 10  1  0
 10 11  2  0
 10 12  1  0
 12 16  1  0
 12 13  1  0
 12 54  1  1
 13 14  1  0
 13 55  1  0
 13 56  1  0
 14 15  1  0
 15 16  1  0
 16 17  1  1
 17 57  1  0
 17 58  1  0
 17 59  1  0
 18 19  1  0
 18 60  1  0
 18 61  1  0
 19 20  1  0
 19 62  1  6
 20 39  1  0
 20 21  1  1
 20 22  1  0
 21 63  1  0
 21 64  1  0
 21 65  1  0
 22 23  1  0
 22 66  1  0
 22 67  1  0
 23 25  1  0
 23 24  1  0
 23 68  1  1
 24 25  1  0
 25 26  1  0
 25 69  1  1
 26 28  1  0
 26 37  1  0
 26 27  1  1
 27 28  1  0
 28 29  1  0
 28 70  1  1
 29 30  1  0
 29 71  1  0
 29 72  1  0
 30 31  1  0
 30 37  1  0
 30 73  1  6
 31 36  1  0
 31 32  2  0
 32 33  1  0
 32 74  1  0
 33 34  2  0
 33 75  1  0
 34 35  1  0
 34 76  1  0
 35 36  2  0
 35 77  1  0
 36 78  1  0
 37 38  1  1
 37 39  1  0
 38 79  1  0
 38 80  1  0
 38 81  1  0
 39 40  1  6
 39 41  1  0
 40 82  1  0
 41 42  1  0
 41 43  1  0
 41 83  1  1
 42 84  1  0
 43 85  1  6
M  END
>  <i_m_ct_stereo_status>  (300) 
1

>  <s_m_source_file>  (300) 
/var/tmp/pbs.5076255.sched01/tmppy4q9rbr/123plv7d954.sdf

>  <i_m_source_file_index>  (300) 
12

>  <i_lp_mmshare_version>  (300) 
48012

>  <i_f3d_flags>  (300) 
0

>  <s_epik_input>  (300) 
W0NIMl0xT0MoPU8pW0NASF0oW0NIMl1PTzIpW0NAQF0yKFtDSDNdKVtDQF0xM09bQ0BIXTRbQ0BIXTVbQ0BASF0oQzUoW0NIM10pW0NIM10pW0NASF0oW09IXSlbQ0BdNihbT0hdKVtDQEBdKFtDSDNdKShbQ0BIXTRbQ0gyXTMpW0NIMl1bQ0BIXTdbQ0BIXShPNylbQ0BdODlbQ0BASF0oTzgpW0NIMl1bQ0BIXShbQ0BAXTY5W0NIM10pYzFbY0hdW2NIXVtjSF1bY0hdW2NIXTE=

>  <s_epik_cmdline>  (300) 
J2VwaWtfcHl0aG9uJywgJy1waHQnLCAnMi4wJywgJy1waCcsICc3LjAnLCAnLXRuJywgJzgnLCAnLW1hJywgJzIwMCcsICctaW1hZScsICc8aW5maWxlLm1hZT4nLCAnLW9tYWUnLCAnPG91dGZpbGUubWFlPic=

>  <r_lp_tautomer_probability>  (300) 
1

>  <r_epik_Ionization_Penalty>  (300) 
2.3494e-07

>  <r_epik_Ionization_Penalty_Charging>  (300) 
0

>  <r_epik_Ionization_Penalty_Neutral>  (300) 
2.3494e-07

>  <r_epik_State_Penalty>  (300) 
-0

>  <r_epik_Charging_Adjusted_Penalty>  (300) 
0

>  <i_epik_Tot_Q>  (300) 
0

>  <i_epik_Tot_abs_Q>  (300) 
0

>  <s_epik_Chemistry_Notes>  (300) 
This compound has an ester and may undergo hydrolysis at high or low pH.

>  <s_lp_Force_Field>  (300) 
OPLS3e

>  <r_lp_Energy>  (300) 
131.493

>  <b_lp_Chiralities_Consistent>  (300) 
1

>  <s_lp_Variant>  (300) 
101:0-1

>  <s_i_glide_gridfile>  (300) 
pfpi4k_grid

>  <i_i_glide_lignum>  (300) 
12

>  <i_i_glide_rotatable_bonds>  (300) 
3

>  <r_i_docking_score>  (300) 
-2.58452

>  <r_i_glide_ligand_efficiency>  (300) 
-0.0601051

>  <r_i_glide_ligand_efficiency_sa>  (300) 
-0.210572

>  <r_i_glide_ligand_efficiency_ln>  (300) 
-0.542829

>  <r_i_glide_gscore>  (300) 
-2.58452

>  <r_i_glide_lipo>  (300) 
-0.0855294

>  <r_i_glide_hbond>  (300) 
-0.12159

>  <r_i_glide_metal>  (300) 
-0

>  <r_i_glide_rewards>  (300) 
0

>  <r_i_glide_evdw>  (300) 
-32.9276

>  <r_i_glide_ecoul>  (300) 
-4.88475

>  <r_i_glide_erotb>  (300) 
0.0593037

>  <r_i_glide_esite>  (300) 
-0.0576136

>  <r_i_glide_emodel>  (300) 
-43.4283

>  <r_i_glide_energy>  (300) 
-37.8123

>  <r_i_glide_einternal>  (300) 
0.36084

>  <r_i_glide_intrahb_reward>  (300) 
-0

>  <i_i_glide_confnum>  (300) 
1

>  <i_i_glide_posenum>  (300) 
24

>  <r_i_glide_eff_state_penalty>  (300) 
0

>  <ligand_id>  (300) 
101

>  <original_smiles>  (300) 
CC1(C)C2C3OC4(COC(=O)C5COOC54C)CC3C3(C)CC4OC4C45OC4CC(c4ccccc4)C5(C)C3(O)C(O)C21

>  <smiles>  (300) 
[H]OC1([H])C2([H])C([H])(C3([H])OC4(C([H])([H])OC(=O)C5([H])C([H])([H])OOC54C([H])([H])[H])C([H])([H])C3([H])C3(C([H])([H])[H])C([H])([H])C4([H])OC4([H])C45OC4([H])C([H])([H])C([H])(c4c([H])c([H])c([H])c([H])c4[H])C5(C([H])([H])[H])C13O[H])C2(C([H])([H])[H])C([H])([H])[H]

$$$$
101:0:2
     RDKit          3D

 85 94  0  0  1  0  0  0  0  0999 V2000
    3.8395   -1.0916    0.4946 C   0  0  0  0  0  0  0  0  0  0  0  0
    4.0688   -1.6930    1.8709 C   0  0  0  0  0  0  0  0  0  0  0  0
    5.5321   -2.0676    2.0323 C   0  0  0  0  0  0  0  0  0  0  0  0
    3.2916   -1.1600    3.0605 C   0  0  1  0  0  0  0  0  0  0  0  0
    1.9966   -0.4442    3.1353 C   0  0  2  0  0  0  0  0  0  0  0  0
    2.1838    0.8231    3.7205 O   0  0  0  0  0  0  0  0  0  0  0  0
    0.9065    1.3710    3.9766 C   0  0  2  0  0  0  0  0  0  0  0  0
    0.3159    2.0047    2.7062 C   0  0  0  0  0  0  0  0  0  0  0  0
   -0.9087    2.6878    2.9597 O   0  0  0  0  0  0  0  0  0  0  0  0
   -1.1420    3.4437    4.0547 C   0  0  0  0  0  0  0  0  0  0  0  0
   -2.1360    4.1655    4.1528 O   0  0  0  0  0  0  0  0  0  0  0  0
   -0.2008    3.2963    5.2631 C   0  0  2  0  0  0  0  0  0  0  0  0
    0.3197    4.6502    5.7504 C   0  0  0  0  0  0  0  0  0  0  0  0
    1.5461    4.8282    5.0665 O   0  0  0  0  0  0  0  0  0  0  0  0
    1.9406    3.4907    4.4804 O   0  0  0  0  0  0  0  0  0  0  0  0
    1.0825    2.4970    5.0292 C   0  0  2  0  0  0  0  0  0  0  0  0
    1.7166    2.0114    6.3545 C   0  0  0  0  0  0  0  0  0  0  0  0
    0.1074    0.1256    4.4182 C   0  0  0  0  0  0  0  0  0  0  0  0
    0.8846   -1.1521    3.9539 C   0  0  2  0  0  0  0  0  0  0  0  0
    1.1263   -2.3202    5.0660 C   0  0  1  0  0  0  0  0  0  0  0  0
    1.8798   -1.6981    6.2624 C   0  0  0  0  0  0  0  0  0  0  0  0
   -0.3833   -2.5861    5.4575 C   0  0  0  0  0  0  0  0  0  0  0  0
   -0.8136   -3.5555    6.5204 C   0  0  2  0  0  0  0  0  0  0  0  0
   -0.2197   -3.3112    7.7860 O   0  0  0  0  0  0  0  0  0  0  0  0
   -0.0545   -4.6263    7.2340 C   0  0  2  0  0  0  0  0  0  0  0  0
    1.3748   -5.0508    7.0167 C   0  0  1  0  0  0  0  0  0  0  0  0
    2.0545   -5.3958    8.2433 O   0  0  0  0  0  0  0  0  0  0  0  0
    1.6013   -6.4938    7.4864 C   0  0  2  0  0  0  0  0  0  0  0  0
    2.5409   -7.1876    6.5582 C   0  0  0  0  0  0  0  0  0  0  0  0
    2.4861   -6.3401    5.2785 C   0  0  1  0  0  0  0  0  0  0  0  0
    1.4755   -6.9570    4.2940 C   0  0  0  0  0  0  0  0  0  0  0  0
    1.8817   -7.2916    2.9825 C   0  0  0  0  0  0  0  0  0  0  0  0
    0.9770   -7.8587    2.0686 C   0  0  0  0  0  0  0  0  0  0  0  0
   -0.3452   -8.1336    2.4592 C   0  0  0  0  0  0  0  0  0  0  0  0
   -0.7627   -7.8308    3.7688 C   0  0  0  0  0  0  0  0  0  0  0  0
    0.1399   -7.2421    4.6737 C   0  0  0  0  0  0  0  0  0  0  0  0
    2.2752   -4.8287    5.7518 C   0  0  2  0  0  0  0  0  0  0  0  0
    3.7017   -4.4355    6.3048 C   0  0  0  0  0  0  0  0  0  0  0  0
    1.8593   -3.7194    4.6000 C   0  0  1  0  0  0  0  0  0  0  0  0
    0.8984   -4.2694    3.7302 O   0  0  0  0  0  0  0  0  0  0  0  0
    3.1305   -3.5284    3.6490 C   0  0  1  0  0  0  0  0  0  0  0  0
    3.5531   -4.6953    2.9808 O   0  0  0  0  0  0  0  0  0  0  0  0
    2.9982   -2.5292    2.5418 C   0  0  2  0  0  0  0  0  0  0  0  0
    4.3764   -0.1465    0.3980 H   0  0  0  0  0  0  0  0  0  0  0  0
    2.7808   -0.8978    0.3285 H   0  0  0  0  0  0  0  0  0  0  0  0
    4.1800   -1.7714   -0.2883 H   0  0  0  0  0  0  0  0  0  0  0  0
    5.7280   -2.4467    3.0348 H   0  0  0  0  0  0  0  0  0  0  0  0
    6.1728   -1.1993    1.8727 H   0  0  0  0  0  0  0  0  0  0  0  0
    5.8072   -2.8464    1.3189 H   0  0  0  0  0  0  0  0  0  0  0  0
    3.8847   -1.0489    3.9647 H   0  0  0  0  0  0  0  0  0  0  0  0
    1.6247   -0.2898    2.1215 H   0  0  0  0  0  0  0  0  0  0  0  0
    1.0347    2.6850    2.2416 H   0  0  0  0  0  0  0  0  0  0  0  0
    0.0980    1.2419    1.9580 H   0  0  0  0  0  0  0  0  0  0  0  0
   -0.8084    2.8380    6.0386 H   0  0  0  0  0  0  0  0  0  0  0  0
   -0.3558    5.4920    5.5700 H   0  0  0  0  0  0  0  0  0  0  0  0
    0.5163    4.6172    6.8234 H   0  0  0  0  0  0  0  0  0  0  0  0
    1.0152    1.4354    6.9603 H   0  0  0  0  0  0  0  0  0  0  0  0
    2.0564    2.8438    6.9742 H   0  0  0  0  0  0  0  0  0  0  0  0
    2.5887    1.3849    6.1645 H   0  0  0  0  0  0  0  0  0  0  0  0
   -0.0422    0.1810    5.4897 H   0  0  0  0  0  0  0  0  0  0  0  0
   -0.8952    0.1387    3.9869 H   0  0  0  0  0  0  0  0  0  0  0  0
    0.2689   -1.6200    3.1840 H   0  0  0  0  0  0  0  0  0  0  0  0
    1.9796   -2.3927    7.0931 H   0  0  0  0  0  0  0  0  0  0  0  0
    1.3652   -0.8426    6.6861 H   0  0  0  0  0  0  0  0  0  0  0  0
    2.8770   -1.3672    5.9812 H   0  0  0  0  0  0  0  0  0  0  0  0
   -0.8682   -1.6775    5.7942 H   0  0  0  0  0  0  0  0  0  0  0  0
   -0.9499   -2.8535    4.5668 H   0  0  0  0  0  0  0  0  0  0  0  0
   -1.8943   -3.6518    6.5786 H   0  0  0  0  0  0  0  0  0  0  0  0
   -0.7003   -5.3679    7.6985 H   0  0  0  0  0  0  0  0  0  0  0  0
    0.8197   -7.0830    7.9594 H   0  0  0  0  0  0  0  0  0  0  0  0
    3.5350   -7.1881    7.0094 H   0  0  0  0  0  0  0  0  0  0  0  0
    2.2506   -8.2279    6.4020 H   0  0  0  0  0  0  0  0  0  0  0  0
    3.4631   -6.4571    4.8125 H   0  0  0  0  0  0  0  0  0  0  0  0
    2.8964   -7.1208    2.6602 H   0  0  0  0  0  0  0  0  0  0  0  0
    1.3085   -8.1073    1.0694 H   0  0  0  0  0  0  0  0  0  0  0  0
   -1.0240   -8.6007    1.7596 H   0  0  0  0  0  0  0  0  0  0  0  0
   -1.7685   -8.0740    4.0828 H   0  0  0  0  0  0  0  0  0  0  0  0
   -0.2074   -7.0352    5.6720 H   0  0  0  0  0  0  0  0  0  0  0  0
    4.4984   -4.6847    5.6074 H   0  0  0  0  0  0  0  0  0  0  0  0
    4.0111   -4.9590    7.2051 H   0  0  0  0  0  0  0  0  0  0  0  0
    3.8100   -3.3810    6.5367 H   0  0  0  0  0  0  0  0  0  0  0  0
    0.8188   -3.6916    2.9869 H   0  0  0  0  0  0  0  0  0  0  0  0
    3.9827   -3.1923    4.2309 H   0  0  0  0  0  0  0  0  0  0  0  0
    3.8154   -5.3352    3.6246 H   0  0  0  0  0  0  0  0  0  0  0  0
    2.1370   -2.7000    1.8969 H   0  0  0  0  0  0  0  0  0  0  0  0
  1  2  1  0
  1 44  1  0
  1 45  1  0
  1 46  1  0
  2 43  1  0
  2  3  1  0
  2  4  1  0
  3 47  1  0
  3 48  1  0
  3 49  1  0
  4 43  1  0
  4  5  1  0
  4 50  1  1
  5 19  1  0
  5  6  1  0
  5 51  1  6
  7  6  1  6
  7 16  1  0
  7  8  1  0
  7 18  1  0
  8  9  1  0
  8 52  1  0
  8 53  1  0
  9 10  1  0
 10 11  2  0
 10 12  1  0
 12 16  1  0
 12 13  1  0
 12 54  1  1
 13 14  1  0
 13 55  1  0
 13 56  1  0
 14 15  1  0
 15 16  1  0
 16 17  1  1
 17 57  1  0
 17 58  1  0
 17 59  1  0
 18 19  1  0
 18 60  1  0
 18 61  1  0
 19 20  1  0
 19 62  1  6
 20 39  1  0
 20 21  1  1
 20 22  1  0
 21 63  1  0
 21 64  1  0
 21 65  1  0
 22 23  1  0
 22 66  1  0
 22 67  1  0
 23 25  1  0
 23 24  1  0
 23 68  1  1
 24 25  1  0
 25 26  1  0
 25 69  1  1
 26 28  1  0
 26 37  1  0
 26 27  1  1
 27 28  1  0
 28 29  1  0
 28 70  1  1
 29 30  1  0
 29 71  1  0
 29 72  1  0
 30 31  1  0
 30 37  1  0
 30 73  1  6
 31 36  1  0
 31 32  2  0
 32 33  1  0
 32 74  1  0
 33 34  2  0
 33 75  1  0
 34 35  1  0
 34 76  1  0
 35 36  2  0
 35 77  1  0
 36 78  1  0
 37 38  1  1
 37 39  1  0
 38 79  1  0
 38 80  1  0
 38 81  1  0
 39 40  1  6
 39 41  1  0
 40 82  1  0
 41 42  1  0
 41 43  1  0
 41 83  1  1
 42 84  1  0
 43 85  1  6
M  END
>  <i_m_ct_stereo_status>  (301) 
1

>  <s_m_source_file>  (301) 
/var/tmp/pbs.5076255.sched01/tmppy4q9rbr/123plv7d954.sdf

>  <i_m_source_file_index>  (301) 
12

>  <i_lp_mmshare_version>  (301) 
48012

>  <i_f3d_flags>  (301) 
0

>  <s_epik_input>  (301) 
W0NIMl0xT0MoPU8pW0NASF0oW0NIMl1PTzIpW0NAQF0yKFtDSDNdKVtDQF0xM09bQ0BIXTRbQ0BIXTVbQ0BASF0oQzUoW0NIM10pW0NIM10pW0NASF0oW09IXSlbQ0BdNihbT0hdKVtDQEBdKFtDSDNdKShbQ0BIXTRbQ0gyXTMpW0NIMl1bQ0BIXTdbQ0BIXShPNylbQ0BdODlbQ0BASF0oTzgpW0NIMl1bQ0BIXShbQ0BAXTY5W0NIM10pYzFbY0hdW2NIXVtjSF1bY0hdW2NIXTE=

>  <s_epik_cmdline>  (301) 
J2VwaWtfcHl0aG9uJywgJy1waHQnLCAnMi4wJywgJy1waCcsICc3LjAnLCAnLXRuJywgJzgnLCAnLW1hJywgJzIwMCcsICctaW1hZScsICc8aW5maWxlLm1hZT4nLCAnLW9tYWUnLCAnPG91dGZpbGUubWFlPic=

>  <r_lp_tautomer_probability>  (301) 
1

>  <r_epik_Ionization_Penalty>  (301) 
2.3494e-07

>  <r_epik_Ionization_Penalty_Charging>  (301) 
0

>  <r_epik_Ionization_Penalty_Neutral>  (301) 
2.3494e-07

>  <r_epik_State_Penalty>  (301) 
-0

>  <r_epik_Charging_Adjusted_Penalty>  (301) 
0

>  <i_epik_Tot_Q>  (301) 
0

>  <i_epik_Tot_abs_Q>  (301) 
0

>  <s_epik_Chemistry_Notes>  (301) 
This compound has an ester and may undergo hydrolysis at high or low pH.

>  <s_lp_Force_Field>  (301) 
OPLS3e

>  <r_lp_Energy>  (301) 
131.493

>  <b_lp_Chiralities_Consistent>  (301) 
1

>  <s_lp_Variant>  (301) 
101:0-1

>  <s_i_glide_gridfile>  (301) 
pfpi4k_grid

>  <i_i_glide_lignum>  (301) 
12

>  <i_i_glide_rotatable_bonds>  (301) 
3

>  <r_i_docking_score>  (301) 
-2.5001

>  <r_i_glide_ligand_efficiency>  (301) 
-0.0581419

>  <r_i_glide_ligand_efficiency_sa>  (301) 
-0.203694

>  <r_i_glide_ligand_efficiency_ln>  (301) 
-0.525099

>  <r_i_glide_gscore>  (301) 
-2.5001

>  <r_i_glide_lipo>  (301) 
-0.0774508

>  <r_i_glide_hbond>  (301) 
-0.0748291

>  <r_i_glide_metal>  (301) 
-0

>  <r_i_glide_rewards>  (301) 
0

>  <r_i_glide_evdw>  (301) 
-33.5809

>  <r_i_glide_ecoul>  (301) 
-4.49612

>  <r_i_glide_erotb>  (301) 
0.0593037

>  <r_i_glide_esite>  (301) 
-0.0536633

>  <r_i_glide_emodel>  (301) 
-43.408

>  <r_i_glide_energy>  (301) 
-38.077

>  <r_i_glide_einternal>  (301) 
0.404995

>  <r_i_glide_intrahb_reward>  (301) 
-0

>  <i_i_glide_confnum>  (301) 
1

>  <i_i_glide_posenum>  (301) 
8

>  <r_i_glide_eff_state_penalty>  (301) 
0

>  <ligand_id>  (301) 
101

>  <original_smiles>  (301) 
CC1(C)C2C3OC4(COC(=O)C5COOC54C)CC3C3(C)CC4OC4C45OC4CC(c4ccccc4)C5(C)C3(O)C(O)C21

>  <smiles>  (301) 
[H]OC1([H])C2([H])C([H])(C3([H])OC4(C([H])([H])OC(=O)C5([H])C([H])([H])OOC54C([H])([H])[H])C([H])([H])C3([H])C3(C([H])([H])[H])C([H])([H])C4([H])OC4([H])C45OC4([H])C([H])([H])C([H])(c4c([H])c([H])c([H])c([H])c4[H])C5(C([H])([H])[H])C13O[H])C2(C([H])([H])[H])C([H])([H])[H]

$$$$
102:0:0
     RDKit          3D

 43 48  0  0  1  0  0  0  0  0999 V2000
    1.5236   -4.3256    2.6845 C   0  0  0  0  0  0  0  0  0  0  0  0
    2.0189   -4.8659    1.5504 C   0  0  0  0  0  0  0  0  0  0  0  0
    1.7238   -6.3057    1.1913 C   0  0  0  0  0  0  0  0  0  0  0  0
    2.8680   -4.0962    0.5791 C   0  0  1  0  0  0  0  0  0  0  0  0
    2.1610   -3.4584   -0.4762 O   0  0  0  0  0  0  0  0  0  0  0  0
    2.7218   -2.5938    0.5069 C   0  0  2  0  0  0  0  0  0  0  0  0
    3.8475   -1.6973    0.0274 C   0  0  1  0  0  0  0  0  0  0  0  0
    4.6928   -1.2273    1.1121 O   0  0  0  0  0  0  0  0  0  0  0  0
    5.7383   -2.1235    0.6877 C   0  0  1  0  0  0  0  0  0  0  0  0
    5.7926   -3.3312    1.6265 C   0  0  0  0  0  0  0  0  0  0  0  0
    5.0984   -4.4787    1.4232 C   0  0  0  0  0  0  0  0  0  0  0  0
    4.2205   -4.6648    0.1951 C   0  0  2  0  0  0  0  0  0  0  0  0
    4.9298   -3.8737   -0.9296 C   0  0  1  0  0  0  0  0  0  0  0  0
    4.8121   -4.0341   -2.4413 C   0  0  1  0  0  0  0  0  0  0  0  0
    3.5613   -3.5035   -3.2194 C   0  0  0  0  0  0  0  0  0  0  0  0
    3.2576   -2.0148   -3.1615 C   0  0  0  0  0  0  0  0  0  0  0  0
    4.5379   -1.2043   -3.0053 C   0  0  1  0  0  0  0  0  0  0  0  0
    4.2121    0.1411   -2.7847 O   0  0  0  0  0  0  0  0  0  0  0  0
    5.5622   -1.8616   -2.0257 C   0  0  2  0  0  0  0  0  0  0  0  0
    5.9762   -3.1264   -2.7971 C   0  0  0  0  0  0  0  0  0  0  0  0
    5.0304   -2.3952   -0.6552 C   0  0  1  0  0  0  0  0  0  0  0  0
    0.9157   -4.9124    3.3544 H   0  0  0  0  0  0  0  0  0  0  0  0
    1.7116   -3.3011    2.9621 H   0  0  0  0  0  0  0  0  0  0  0  0
    2.6449   -6.8883    1.1318 H   0  0  0  0  0  0  0  0  0  0  0  0
    1.2121   -6.3698    0.2283 H   0  0  0  0  0  0  0  0  0  0  0  0
    1.0932   -6.7801    1.9453 H   0  0  0  0  0  0  0  0  0  0  0  0
    1.9769   -2.0903    1.1130 H   0  0  0  0  0  0  0  0  0  0  0  0
    3.4901   -0.8626   -0.5643 H   0  0  0  0  0  0  0  0  0  0  0  0
    6.7054   -1.6345    0.5674 H   0  0  0  0  0  0  0  0  0  0  0  0
    6.4034   -3.2015    2.4889 H   0  0  0  0  0  0  0  0  0  0  0  0
    5.1205   -5.2898    2.1352 H   0  0  0  0  0  0  0  0  0  0  0  0
    4.1462   -5.7176   -0.0805 H   0  0  0  0  0  0  0  0  0  0  0  0
    5.9309   -4.2885   -0.7879 H   0  0  0  0  0  0  0  0  0  0  0  0
    5.0197   -5.0629   -2.7363 H   0  0  0  0  0  0  0  0  0  0  0  0
    3.6732   -3.8154   -4.2607 H   0  0  0  0  0  0  0  0  0  0  0  0
    2.6636   -3.9866   -2.8549 H   0  0  0  0  0  0  0  0  0  0  0  0
    2.7280   -1.7355   -4.0745 H   0  0  0  0  0  0  0  0  0  0  0  0
    2.5612   -1.8400   -2.3402 H   0  0  0  0  0  0  0  0  0  0  0  0
    5.0021   -1.1830   -3.9910 H   0  0  0  0  0  0  0  0  0  0  0  0
    3.2788    0.2067   -2.6335 H   0  0  0  0  0  0  0  0  0  0  0  0
    6.4212   -1.2309   -1.8820 H   0  0  0  0  0  0  0  0  0  0  0  0
    6.9508   -3.5007   -2.4682 H   0  0  0  0  0  0  0  0  0  0  0  0
    6.0371   -3.0582   -3.8798 H   0  0  0  0  0  0  0  0  0  0  0  0
  1  2  2  0
  1 22  1  0
  1 23  1  0
  2  3  1  0
  4  2  1  1
  3 24  1  0
  3 25  1  0
  3 26  1  0
  4  6  1  0
  4 12  1  0
  4  5  1  0
  5  6  1  0
  6  7  1  0
  6 27  1  1
  7 21  1  0
  7  8  1  0
  7 28  1  6
  8  9  1  0
 21  9  1  1
  9 10  1  0
  9 29  1  6
 10 11  2  0
 10 30  1  0
 11 12  1  0
 11 31  1  0
 12 13  1  0
 12 32  1  6
 13 21  1  0
 13 14  1  0
 13 33  1  1
 14 20  1  0
 14 15  1  0
 14 34  1  1
 15 16  1  0
 15 35  1  0
 15 36  1  0
 16 17  1  0
 16 37  1  0
 16 38  1  0
 17 18  1  0
 17 19  1  0
 17 39  1  6
 18 40  1  0
 19 20  1  0
 19 21  1  0
 19 41  1  1
 20 42  1  0
 20 43  1  0
M  END
>  <i_m_ct_stereo_status>  (302) 
1

>  <s_m_source_file>  (302) 
/var/tmp/pbs.5076255.sched01/tmppy4q9rbr/123plv7d954.sdf

>  <i_m_source_file_index>  (302) 
13

>  <i_lp_mmshare_version>  (302) 
48012

>  <i_f3d_flags>  (302) 
0

>  <s_epik_input>  (302) 
TzFbQ0BIXTJbQ0hdPVtDSF1bQ0BASF0oW0NAQF0oTzMpKEMoPVtDSDJdKVtDSDNdKVtDQEhdM1tDQEBIXTFbQ0BAXTI0NSlbQ0BIXTRbQ0BIXTZbQ0gyXVtDSDJdW0NAQEhdKFtPSF0pW0NAQEhdNVtDSDJdNg==

>  <s_epik_cmdline>  (302) 
J2VwaWtfcHl0aG9uJywgJy1waHQnLCAnMi4wJywgJy1waCcsICc3LjAnLCAnLXRuJywgJzgnLCAnLW1hJywgJzIwMCcsICctaW1hZScsICc8aW5maWxlLm1hZT4nLCAnLW9tYWUnLCAnPG91dGZpbGUubWFlPic=

>  <r_lp_tautomer_probability>  (302) 
1

>  <r_epik_Ionization_Penalty>  (302) 
5.28349e-07

>  <r_epik_Ionization_Penalty_Charging>  (302) 
0

>  <r_epik_Ionization_Penalty_Neutral>  (302) 
5.28349e-07

>  <r_epik_State_Penalty>  (302) 
-0

>  <r_epik_Charging_Adjusted_Penalty>  (302) 
0

>  <i_epik_Tot_Q>  (302) 
0

>  <i_epik_Tot_abs_Q>  (302) 
0

>  <s_lp_Force_Field>  (302) 
OPLS3e

>  <r_lp_Energy>  (302) 
64.3738

>  <b_lp_Chiralities_Consistent>  (302) 
1

>  <s_lp_Variant>  (302) 
102:0-1

>  <s_i_glide_gridfile>  (302) 
pfpi4k_grid

>  <i_i_glide_lignum>  (302) 
13

>  <i_i_glide_rotatable_bonds>  (302) 
2

>  <r_i_docking_score>  (302) 
-2.43946

>  <r_i_glide_ligand_efficiency>  (302) 
-0.116165

>  <r_i_glide_ligand_efficiency_sa>  (302) 
-0.32049

>  <r_i_glide_ligand_efficiency_ln>  (302) 
-0.603151

>  <r_i_glide_gscore>  (302) 
-2.43946

>  <r_i_glide_lipo>  (302) 
-0.50969

>  <r_i_glide_hbond>  (302) 
-0.0160511

>  <r_i_glide_metal>  (302) 
-0

>  <r_i_glide_rewards>  (302) 
-1.4566

>  <r_i_glide_evdw>  (302) 
-14.1539

>  <r_i_glide_ecoul>  (302) 
0.194261

>  <r_i_glide_erotb>  (302) 
0.221435

>  <r_i_glide_esite>  (302) 
0

>  <r_i_glide_emodel>  (302) 
-12.7925

>  <r_i_glide_energy>  (302) 
-13.9596

>  <r_i_glide_einternal>  (302) 
1.55724

>  <r_i_glide_intrahb_reward>  (302) 
-0

>  <i_i_glide_confnum>  (302) 
4

>  <i_i_glide_posenum>  (302) 
5

>  <r_i_glide_eff_state_penalty>  (302) 
0

>  <ligand_id>  (302) 
102

>  <original_smiles>  (302) 
C=C(C)C12OC1C1OC3C=CC2C2C4CCC(O)C(C4)C312

>  <smiles>  (302) 
[H]OC1([H])C([H])([H])C([H])([H])C2([H])C([H])([H])C1([H])C13C4([H])OC1([H])C1([H])OC1(C(=C([H])[H])C([H])([H])[H])C([H])(C([H])=C4[H])C23[H]

$$$$
102:0:1
     RDKit          3D

 43 48  0  0  1  0  0  0  0  0999 V2000
    2.0999   -3.2654    3.4177 C   0  0  0  0  0  0  0  0  0  0  0  0
    2.4177   -3.9858    2.3284 C   0  0  0  0  0  0  0  0  0  0  0  0
    2.0532   -5.4565    2.2355 C   0  0  0  0  0  0  0  0  0  0  0  0
    3.1342   -3.4086    1.1463 C   0  0  1  0  0  0  0  0  0  0  0  0
    2.2629   -2.8806    0.1584 O   0  0  0  0  0  0  0  0  0  0  0  0
    3.0529   -1.9208    0.8891 C   0  0  2  0  0  0  0  0  0  0  0  0
    4.1411   -1.1931    0.1204 C   0  0  1  0  0  0  0  0  0  0  0  0
    5.1826   -0.6515    0.9788 O   0  0  0  0  0  0  0  0  0  0  0  0
    6.0890   -1.6683    0.5127 C   0  0  1  0  0  0  0  0  0  0  0  0
    6.2168   -2.7439    1.5893 C   0  0  0  0  0  0  0  0  0  0  0  0
    5.4483   -3.8546    1.6606 C   0  0  0  0  0  0  0  0  0  0  0  0
    4.3679   -4.1281    0.6268 C   0  0  2  0  0  0  0  0  0  0  0  0
    4.9498   -3.5476   -0.6888 C   0  0  1  0  0  0  0  0  0  0  0  0
    4.6062   -3.9070   -2.1283 C   0  0  1  0  0  0  0  0  0  0  0  0
    3.2282   -3.4372   -2.7134 C   0  0  0  0  0  0  0  0  0  0  0  0
    3.0269   -1.9238   -2.8582 C   0  0  0  0  0  0  0  0  0  0  0  0
    4.3521   -1.1955   -3.0356 C   0  0  1  0  0  0  0  0  0  0  0  0
    4.2140    0.1590   -2.7949 O   0  0  0  0  0  0  0  0  0  0  0  0
    5.4709   -1.7723   -2.1460 C   0  0  2  0  0  0  0  0  0  0  0  0
    5.7109   -3.1237   -2.8131 C   0  0  0  0  0  0  0  0  0  0  0  0
    5.1532   -2.0593   -0.6476 C   0  0  1  0  0  0  0  0  0  0  0  0
    1.5707   -3.7185    4.2428 H   0  0  0  0  0  0  0  0  0  0  0  0
    2.3455   -2.2177    3.5107 H   0  0  0  0  0  0  0  0  0  0  0  0
    2.9440   -6.0770    2.1463 H   0  0  0  0  0  0  0  0  0  0  0  0
    1.4138   -5.6462    1.3715 H   0  0  0  0  0  0  0  0  0  0  0  0
    1.5212   -5.7815    3.1317 H   0  0  0  0  0  0  0  0  0  0  0  0
    2.4512   -1.2760    1.5195 H   0  0  0  0  0  0  0  0  0  0  0  0
    3.7540   -0.4060   -0.5019 H   0  0  0  0  0  0  0  0  0  0  0  0
    7.0497   -1.2726    0.1924 H   0  0  0  0  0  0  0  0  0  0  0  0
    6.9579   -2.5387    2.3146 H   0  0  0  0  0  0  0  0  0  0  0  0
    5.5545   -4.5630    2.4690 H   0  0  0  0  0  0  0  0  0  0  0  0
    4.2026   -5.2003    0.5159 H   0  0  0  0  0  0  0  0  0  0  0  0
    5.9413   -4.0051   -0.6496 H   0  0  0  0  0  0  0  0  0  0  0  0
    4.7706   -4.9688   -2.2994 H   0  0  0  0  0  0  0  0  0  0  0  0
    3.1414   -3.8598   -3.7190 H   0  0  0  0  0  0  0  0  0  0  0  0
    2.4053   -3.8593   -2.1295 H   0  0  0  0  0  0  0  0  0  0  0  0
    2.3690   -1.7083   -3.7039 H   0  0  0  0  0  0  0  0  0  0  0  0
    2.5299   -1.5528   -1.9709 H   0  0  0  0  0  0  0  0  0  0  0  0
    4.6334   -1.2431   -4.0884 H   0  0  0  0  0  0  0  0  0  0  0  0
    3.3742    0.4607   -3.0982 H   0  0  0  0  0  0  0  0  0  0  0  0
    6.3498   -1.1640   -2.2290 H   0  0  0  0  0  0  0  0  0  0  0  0
    6.7080   -3.5060   -2.5963 H   0  0  0  0  0  0  0  0  0  0  0  0
    5.5978   -3.1387   -3.8978 H   0  0  0  0  0  0  0  0  0  0  0  0
  1  2  2  0
  1 22  1  0
  1 23  1  0
  2  3  1  0
  4  2  1  1
  3 24  1  0
  3 25  1  0
  3 26  1  0
  4  6  1  0
  4 12  1  0
  4  5  1  0
  5  6  1  0
  6  7  1  0
  6 27  1  1
  7 21  1  0
  7  8  1  0
  7 28  1  6
  8  9  1  0
 21  9  1  1
  9 10  1  0
  9 29  1  6
 10 11  2  0
 10 30  1  0
 11 12  1  0
 11 31  1  0
 12 13  1  0
 12 32  1  6
 13 21  1  0
 13 14  1  0
 13 33  1  1
 14 20  1  0
 14 15  1  0
 14 34  1  1
 15 16  1  0
 15 35  1  0
 15 36  1  0
 16 17  1  0
 16 37  1  0
 16 38  1  0
 17 18  1  0
 17 19  1  0
 17 39  1  6
 18 40  1  0
 19 20  1  0
 19 21  1  0
 19 41  1  1
 20 42  1  0
 20 43  1  0
M  END
>  <i_m_ct_stereo_status>  (303) 
1

>  <s_m_source_file>  (303) 
/var/tmp/pbs.5076255.sched01/tmppy4q9rbr/123plv7d954.sdf

>  <i_m_source_file_index>  (303) 
13

>  <i_lp_mmshare_version>  (303) 
48012

>  <i_f3d_flags>  (303) 
0

>  <s_epik_input>  (303) 
TzFbQ0BIXTJbQ0hdPVtDSF1bQ0BASF0oW0NAQF0oTzMpKEMoPVtDSDJdKVtDSDNdKVtDQEhdM1tDQEBIXTFbQ0BAXTI0NSlbQ0BIXTRbQ0BIXTZbQ0gyXVtDSDJdW0NAQEhdKFtPSF0pW0NAQEhdNVtDSDJdNg==

>  <s_epik_cmdline>  (303) 
J2VwaWtfcHl0aG9uJywgJy1waHQnLCAnMi4wJywgJy1waCcsICc3LjAnLCAnLXRuJywgJzgnLCAnLW1hJywgJzIwMCcsICctaW1hZScsICc8aW5maWxlLm1hZT4nLCAnLW9tYWUnLCAnPG91dGZpbGUubWFlPic=

>  <r_lp_tautomer_probability>  (303) 
1

>  <r_epik_Ionization_Penalty>  (303) 
5.28349e-07

>  <r_epik_Ionization_Penalty_Charging>  (303) 
0

>  <r_epik_Ionization_Penalty_Neutral>  (303) 
5.28349e-07

>  <r_epik_State_Penalty>  (303) 
-0

>  <r_epik_Charging_Adjusted_Penalty>  (303) 
0

>  <i_epik_Tot_Q>  (303) 
0

>  <i_epik_Tot_abs_Q>  (303) 
0

>  <s_lp_Force_Field>  (303) 
OPLS3e

>  <r_lp_Energy>  (303) 
64.3738

>  <b_lp_Chiralities_Consistent>  (303) 
1

>  <s_lp_Variant>  (303) 
102:0-1

>  <s_i_glide_gridfile>  (303) 
pfpi4k_grid

>  <i_i_glide_lignum>  (303) 
13

>  <i_i_glide_rotatable_bonds>  (303) 
2

>  <r_i_docking_score>  (303) 
-2.35522

>  <r_i_glide_ligand_efficiency>  (303) 
-0.112154

>  <r_i_glide_ligand_efficiency_sa>  (303) 
-0.309423

>  <r_i_glide_ligand_efficiency_ln>  (303) 
-0.582325

>  <r_i_glide_gscore>  (303) 
-2.35522

>  <r_i_glide_lipo>  (303) 
-0.527504

>  <r_i_glide_hbond>  (303) 
-0.0780859

>  <r_i_glide_metal>  (303) 
-0

>  <r_i_glide_rewards>  (303) 
-1.4566

>  <r_i_glide_evdw>  (303) 
-11.9098

>  <r_i_glide_ecoul>  (303) 
0.540124

>  <r_i_glide_erotb>  (303) 
0.221435

>  <r_i_glide_esite>  (303) 
0

>  <r_i_glide_emodel>  (303) 
-10.7518

>  <r_i_glide_energy>  (303) 
-11.3697

>  <r_i_glide_einternal>  (303) 
0.884002

>  <r_i_glide_intrahb_reward>  (303) 
-0

>  <i_i_glide_confnum>  (303) 
1

>  <i_i_glide_posenum>  (303) 
14

>  <r_i_glide_eff_state_penalty>  (303) 
0

>  <ligand_id>  (303) 
102

>  <original_smiles>  (303) 
C=C(C)C12OC1C1OC3C=CC2C2C4CCC(O)C(C4)C312

>  <smiles>  (303) 
[H]OC1([H])C([H])([H])C([H])([H])C2([H])C([H])([H])C1([H])C13C4([H])OC1([H])C1([H])OC1(C(=C([H])[H])C([H])([H])[H])C([H])(C([H])=C4[H])C23[H]

$$$$
103:0:0
     RDKit          3D

 84 90  0  0  1  0  0  0  0  0999 V2000
    0.6792   -6.4836    4.8152 C   0  0  0  0  0  0  0  0  0  0  0  0
    0.4031   -7.7665    4.5168 C   0  0  0  0  0  0  0  0  0  0  0  0
   -1.0758   -8.1585    4.4617 C   0  0  0  0  0  0  0  0  0  0  0  0
    1.4010   -8.9451    4.1675 C   0  0  2  0  0  0  0  0  0  0  0  0
    0.8196   -9.4157    2.9408 O   0  0  0  0  0  0  0  0  0  0  0  0
    1.2133   -8.3544    1.9553 C   0  0  0  0  0  0  0  0  0  0  0  0
    2.4804   -7.7909    2.5796 C   0  0  0  0  0  0  0  0  0  0  0  0
    3.0547   -6.5855    2.8433 C   0  0  0  0  0  0  0  0  0  0  0  0
    2.6016   -5.3055    2.0719 C   0  0  2  0  0  0  0  0  0  0  0  0
    1.5671   -5.5874    1.1455 O   0  0  0  0  0  0  0  0  0  0  0  0
    3.6850   -4.4628    1.3707 C   0  0  0  0  0  0  0  0  0  0  0  0
    4.2090   -4.9641    0.1455 C   0  0  0  0  0  0  0  0  0  0  0  0
    5.2354   -4.2887   -0.5390 C   0  0  0  0  0  0  0  0  0  0  0  0
    5.7849   -3.1176   -0.0044 C   0  0  0  0  0  0  0  0  0  0  0  0
    5.2709   -2.5717    1.1919 C   0  0  0  0  0  0  0  0  0  0  0  0
    5.8714   -1.4117    1.7269 C   0  0  0  0  0  0  0  0  0  0  0  0
    5.4093   -0.8742    2.9366 C   0  0  0  0  0  0  0  0  0  0  0  0
    4.3253   -1.4665    3.5899 C   0  0  0  0  0  0  0  0  0  0  0  0
    3.6695   -2.5584    3.0191 C   0  0  0  0  0  0  0  0  0  0  0  0
    4.1843   -3.2122    1.8630 C   0  0  0  0  0  0  0  0  0  0  0  0
    3.9468   -6.5414    4.0563 C   0  0  0  0  0  0  0  0  0  0  0  0
    4.4891   -5.3409    4.4193 C   0  0  0  0  0  0  0  0  0  0  0  0
    5.7760   -5.2267    5.3181 C   0  0  1  0  0  0  0  0  0  0  0  0
    5.5457   -4.4374    6.6016 C   0  0  0  0  0  0  0  0  0  0  0  0
    6.6325   -6.5626    5.4726 C   0  0  0  0  0  0  0  0  0  0  0  0
    5.9924   -7.5120    4.4336 C   0  0  1  0  0  0  0  0  0  0  0  0
    6.3983   -6.8337    3.2200 O   0  0  0  0  0  0  0  0  0  0  0  0
    6.2879   -8.9170    3.7537 C   0  0  1  0  0  0  0  0  0  0  0  0
    5.9663   -9.7221    4.9068 C   0  0  0  0  0  0  0  0  0  0  0  0
    6.7013  -10.9885    5.2752 C   0  0  0  0  0  0  0  0  0  0  0  0
    4.9105   -9.1505    5.4621 C   0  0  0  0  0  0  0  0  0  0  0  0
    4.5315   -7.6560    5.0647 C   0  0  2  0  0  0  0  0  0  0  0  0
    3.6582   -7.4643    6.3816 C   0  0  0  0  0  0  0  0  0  0  0  0
    2.4428   -8.5353    6.6591 C   0  0  1  0  0  0  0  0  0  0  0  0
    1.4162   -7.9214    7.6530 C   0  0  0  0  0  0  0  0  0  0  0  0
    1.8208   -9.5792    5.5501 C   0  0  1  0  0  0  0  0  0  0  0  0
    0.7069  -10.2481    6.1112 O   0  0  0  0  0  0  0  0  0  0  0  0
    5.2109   -9.4152    2.5990 C   0  0  1  0  0  0  0  0  0  0  0  0
    5.2498   -8.6433    1.2680 C   0  0  0  0  0  0  0  0  0  0  0  0
    5.7279  -10.6658    2.1653 O   0  0  0  0  0  0  0  0  0  0  0  0
    3.7449   -9.7191    3.1242 C   0  0  0  0  0  0  0  0  0  0  0  0
    2.7096   -8.8407    3.3710 C   0  0  0  0  0  0  0  0  0  0  0  0
   -0.1328   -5.7958    5.0137 H   0  0  0  0  0  0  0  0  0  0  0  0
    1.6671   -6.0786    4.8971 H   0  0  0  0  0  0  0  0  0  0  0  0
   -1.3983   -8.4081    3.4465 H   0  0  0  0  0  0  0  0  0  0  0  0
   -1.7225   -7.3541    4.8211 H   0  0  0  0  0  0  0  0  0  0  0  0
   -1.2709   -9.0255    5.0905 H   0  0  0  0  0  0  0  0  0  0  0  0
    1.4303   -8.7971    0.9831 H   0  0  0  0  0  0  0  0  0  0  0  0
    0.4080   -7.6290    1.8404 H   0  0  0  0  0  0  0  0  0  0  0  0
    2.0659   -4.7181    2.8161 H   0  0  0  0  0  0  0  0  0  0  0  0
    1.8847   -6.2372    0.5323 H   0  0  0  0  0  0  0  0  0  0  0  0
    3.8098   -5.8787   -0.2787 H   0  0  0  0  0  0  0  0  0  0  0  0
    5.5765   -4.6596   -1.4934 H   0  0  0  0  0  0  0  0  0  0  0  0
    6.6107   -2.6429   -0.5091 H   0  0  0  0  0  0  0  0  0  0  0  0
    6.7239   -0.9702    1.2493 H   0  0  0  0  0  0  0  0  0  0  0  0
    5.9250   -0.0293    3.4013 H   0  0  0  0  0  0  0  0  0  0  0  0
    3.9980   -1.1103    4.5581 H   0  0  0  0  0  0  0  0  0  0  0  0
    2.8308   -2.9837    3.5863 H   0  0  0  0  0  0  0  0  0  0  0  0
    4.2767   -4.4845    3.9053 H   0  0  0  0  0  0  0  0  0  0  0  0
    6.4029   -4.6076    4.7033 H   0  0  0  0  0  0  0  0  0  0  0  0
    5.1306   -3.4533    6.3719 H   0  0  0  0  0  0  0  0  0  0  0  0
    6.4747   -4.2698    7.1604 H   0  0  0  0  0  0  0  0  0  0  0  0
    4.8364   -4.9532    7.2450 H   0  0  0  0  0  0  0  0  0  0  0  0
    7.7095   -6.3939    5.3107 H   0  0  0  0  0  0  0  0  0  0  0  0
    6.4989   -6.9628    6.4944 H   0  0  0  0  0  0  0  0  0  0  0  0
    7.3333   -6.9399    3.1018 H   0  0  0  0  0  0  0  0  0  0  0  0
    7.3364   -9.0300    3.4629 H   0  0  0  0  0  0  0  0  0  0  0  0
    6.7781  -11.6409    4.4160 H   0  0  0  0  0  0  0  0  0  0  0  0
    6.1918  -11.4987    6.0867 H   0  0  0  0  0  0  0  0  0  0  0  0
    7.6992  -10.7201    5.5977 H   0  0  0  0  0  0  0  0  0  0  0  0
    4.5545   -9.6535    6.3621 H   0  0  0  0  0  0  0  0  0  0  0  0
    4.3025   -7.4517    7.2661 H   0  0  0  0  0  0  0  0  0  0  0  0
    3.2125   -6.4731    6.4052 H   0  0  0  0  0  0  0  0  0  0  0  0
    2.8864   -9.2417    7.3566 H   0  0  0  0  0  0  0  0  0  0  0  0
    0.7849   -7.1367    7.2436 H   0  0  0  0  0  0  0  0  0  0  0  0
    1.9359   -7.4757    8.5031 H   0  0  0  0  0  0  0  0  0  0  0  0
    0.7511   -8.6758    8.0765 H   0  0  0  0  0  0  0  0  0  0  0  0
    2.5336  -10.3831    5.3890 H   0  0  0  0  0  0  0  0  0  0  0  0
    1.0035  -10.9548    6.6868 H   0  0  0  0  0  0  0  0  0  0  0  0
    4.8717   -7.6306    1.3453 H   0  0  0  0  0  0  0  0  0  0  0  0
    4.6660   -9.1513    0.4989 H   0  0  0  0  0  0  0  0  0  0  0  0
    6.2748   -8.5591    0.9152 H   0  0  0  0  0  0  0  0  0  0  0  0
    5.1115  -11.0903    1.5673 H   0  0  0  0  0  0  0  0  0  0  0  0
    3.6669  -10.6680    3.6186 H   0  0  0  0  0  0  0  0  0  0  0  0
  1  2  2  0
  1 43  1  0
  1 44  1  0
  2  3  1  0
  4  2  1  1
  3 45  1  0
  3 46  1  0
  3 47  1  0
  4 36  1  0
  4 42  1  0
  4  5  1  0
  5  6  1  0
  6  7  1  0
  6 48  1  0
  6 49  1  0
  7 42  1  0
  7  8  2  3
  8  9  1  0
  8 21  1  0
  9 10  1  0
  9 11  1  0
  9 50  1  1
 10 51  1  0
 11 20  1  0
 11 12  2  0
 12 13  1  0
 12 52  1  0
 13 14  2  0
 13 53  1  0
 14 15  1  0
 14 54  1  0
 15 20  2  0
 15 16  1  0
 16 17  2  0
 16 55  1  0
 17 18  1  0
 17 56  1  0
 18 19  2  0
 18 57  1  0
 19 20  1  0
 19 58  1  0
 21 32  1  0
 21 22  2  0
 22 23  1  0
 22 59  1  0
 23 24  1  0
 23 25  1  0
 23 60  1  6
 24 61  1  0
 24 62  1  0
 24 63  1  0
 25 26  1  0
 25 64  1  0
 25 65  1  0
 26 32  1  0
 26 27  1  6
 26 28  1  0
 27 66  1  0
 28 29  1  0
 28 38  1  0
 28 67  1  6
 29 30  1  0
 29 31  2  0
 30 68  1  0
 30 69  1  0
 30 70  1  0
 31 32  1  0
 31 71  1  0
 32 33  1  1
 33 34  1  0
 33 72  1  0
 33 73  1  0
 34 35  1  0
 34 36  1  0
 34 74  1  1
 35 75  1  0
 35 76  1  0
 35 77  1  0
 36 37  1  0
 36 78  1  6
 37 79  1  0
 38 39  1  0
 38 40  1  6
 38 41  1  0
 39 80  1  0
 39 81  1  0
 39 82  1  0
 40 83  1  0
 41 42  2  3
 41 84  1  0
M  END
>  <i_m_ct_stereo_status>  (304) 
1

>  <s_m_source_file>  (304) 
/var/tmp/pbs.5076255.sched01/tmppy4q9rbr/123plv7d954.sdf

>  <i_m_source_file_index>  (304) 
14

>  <i_lp_mmshare_version>  (304) 
48012

>  <i_f3d_flags>  (304) 
0

>  <s_epik_input>  (304) 
QzEyM0M0PVtDSF1bQ0BASF0oW0NIM10pW0NIMl1bQ0BAXTEoW09IXSlbQ0BASF0oQyhbQ0gzXSk9W0NIXTIpW0NAQF0oW0NIM10pKFtPSF0pL1tDSF09QzUvW0NAXShDKD1bQ0gyXSlbQ0gzXSkoW0NASF0oW09IXSlbQ0BASF0oW0NIMl0zKVtDSDNdKU9bQ0gyXS9DNT1DNFxbQ0BIXShbT0hdKWMoW2NIXVtjSF1bY0hdNiljKGM2NylbY0hdW2NIXVtjSF1bY0hdNw==

>  <s_epik_cmdline>  (304) 
J2VwaWtfcHl0aG9uJywgJy1waHQnLCAnMi4wJywgJy1waCcsICc3LjAnLCAnLXRuJywgJzgnLCAnLW1hJywgJzIwMCcsICctaW1hZScsICc8aW5maWxlLm1hZT4nLCAnLW9tYWUnLCAnPG91dGZpbGUubWFlPic=

>  <r_lp_tautomer_probability>  (304) 
1

>  <r_epik_Ionization_Penalty>  (304) 
1.31135e-05

>  <r_epik_Ionization_Penalty_Charging>  (304) 
0

>  <r_epik_Ionization_Penalty_Neutral>  (304) 
1.31135e-05

>  <r_epik_State_Penalty>  (304) 
-0

>  <r_epik_Charging_Adjusted_Penalty>  (304) 
0

>  <i_epik_Tot_Q>  (304) 
0

>  <i_epik_Tot_abs_Q>  (304) 
0

>  <s_lp_Force_Field>  (304) 
OPLS3e

>  <r_lp_Energy>  (304) 
353.905

>  <b_lp_Chiralities_Consistent>  (304) 
1

>  <s_lp_Variant>  (304) 
103:0-1

>  <s_i_glide_gridfile>  (304) 
pfpi4k_grid

>  <i_i_glide_lignum>  (304) 
14

>  <i_i_glide_rotatable_bonds>  (304) 
7

>  <r_i_docking_score>  (304) 
-3.35149

>  <r_i_glide_ligand_efficiency>  (304) 
-0.0797973

>  <r_i_glide_ligand_efficiency_sa>  (304) 
-0.277377

>  <r_i_glide_ligand_efficiency_ln>  (304) 
-0.707412

>  <r_i_glide_gscore>  (304) 
-3.35149

>  <r_i_glide_lipo>  (304) 
-0.482001

>  <r_i_glide_hbond>  (304) 
-0.266811

>  <r_i_glide_metal>  (304) 
-0

>  <r_i_glide_rewards>  (304) 
0

>  <r_i_glide_evdw>  (304) 
-27.206

>  <r_i_glide_ecoul>  (304) 
-9.0024

>  <r_i_glide_erotb>  (304) 
0.10799

>  <r_i_glide_esite>  (304) 
0

>  <r_i_glide_emodel>  (304) 
-40.6444

>  <r_i_glide_energy>  (304) 
-36.2084

>  <r_i_glide_einternal>  (304) 
5.13152

>  <r_i_glide_intrahb_reward>  (304) 
-0

>  <i_i_glide_confnum>  (304) 
2

>  <i_i_glide_posenum>  (304) 
11

>  <r_i_glide_eff_state_penalty>  (304) 
0

>  <ligand_id>  (304) 
103

>  <original_smiles>  (304) 
C=C(C)C12OCC3=C(C(O)c4cccc5ccccc45)C4=CC(C)CC5(O)C(C(C)=CC45CC(C)C1O)C(C)(O)C=C32

>  <smiles>  (304) 
[H]OC([H])(C1=C2C3=C([H])C(O[H])(C([H])([H])[H])C4([H])C(C([H])([H])[H])=C([H])C5(C1=C([H])C([H])(C([H])([H])[H])C([H])([H])C45O[H])C([H])([H])C([H])(C([H])([H])[H])C([H])(O[H])C3(C(=C([H])[H])C([H])([H])[H])OC2([H])[H])c1c([H])c([H])c([H])c2c([H])c([H])c([H])c([H])c12

$$$$
103:0:1
     RDKit          3D

 84 90  0  0  1  0  0  0  0  0999 V2000
    0.7206   -6.4759    4.8916 C   0  0  0  0  0  0  0  0  0  0  0  0
    0.4359   -7.7443    4.5511 C   0  0  0  0  0  0  0  0  0  0  0  0
   -1.0446   -8.1144    4.4652 C   0  0  0  0  0  0  0  0  0  0  0  0
    1.4256   -8.9133    4.1731 C   0  0  2  0  0  0  0  0  0  0  0  0
    0.8320   -9.3719    2.9423 O   0  0  0  0  0  0  0  0  0  0  0  0
    1.2214   -8.2967    1.9738 C   0  0  0  0  0  0  0  0  0  0  0  0
    2.5071   -7.7397    2.5983 C   0  0  0  0  0  0  0  0  0  0  0  0
    3.0667   -6.5454    2.8703 C   0  0  0  0  0  0  0  0  0  0  0  0
    2.6171   -5.2525    2.1327 C   0  0  2  0  0  0  0  0  0  0  0  0
    1.5680   -5.5057    1.2179 O   0  0  0  0  0  0  0  0  0  0  0  0
    3.7145   -4.4279    1.4175 C   0  0  0  0  0  0  0  0  0  0  0  0
    4.2287   -4.9333    0.2022 C   0  0  0  0  0  0  0  0  0  0  0  0
    5.2435   -4.2654   -0.4947 C   0  0  0  0  0  0  0  0  0  0  0  0
    5.7957   -3.0907    0.0146 C   0  0  0  0  0  0  0  0  0  0  0  0
    5.2863   -2.5297    1.2164 C   0  0  0  0  0  0  0  0  0  0  0  0
    5.8717   -1.3517    1.7257 C   0  0  0  0  0  0  0  0  0  0  0  0
    5.4187   -0.7921    2.9242 C   0  0  0  0  0  0  0  0  0  0  0  0
    4.3293   -1.4057    3.5884 C   0  0  0  0  0  0  0  0  0  0  0  0
    3.7051   -2.5155    3.0698 C   0  0  0  0  0  0  0  0  0  0  0  0
    4.2000   -3.1723    1.8918 C   0  0  0  0  0  0  0  0  0  0  0  0
    3.9774   -6.5430    4.0877 C   0  0  0  0  0  0  0  0  0  0  0  0
    4.5367   -5.3344    4.4807 C   0  0  0  0  0  0  0  0  0  0  0  0
    5.8353   -5.2324    5.3571 C   0  0  1  0  0  0  0  0  0  0  0  0
    5.6054   -4.4592    6.6516 C   0  0  0  0  0  0  0  0  0  0  0  0
    6.6688   -6.5689    5.4770 C   0  0  0  0  0  0  0  0  0  0  0  0
    6.0245   -7.4956    4.4203 C   0  0  1  0  0  0  0  0  0  0  0  0
    6.4258   -6.7861    3.2154 O   0  0  0  0  0  0  0  0  0  0  0  0
    6.3034   -8.8892    3.7250 C   0  0  1  0  0  0  0  0  0  0  0  0
    5.9853   -9.7172    4.8719 C   0  0  0  0  0  0  0  0  0  0  0  0
    6.7200  -10.9909    5.2148 C   0  0  0  0  0  0  0  0  0  0  0  0
    4.9362   -9.1399    5.4437 C   0  0  0  0  0  0  0  0  0  0  0  0
    4.5663   -7.6475    5.0660 C   0  0  2  0  0  0  0  0  0  0  0  0
    3.7080   -7.4785    6.3990 C   0  0  0  0  0  0  0  0  0  0  0  0
    2.4883   -8.5500    6.6707 C   0  0  1  0  0  0  0  0  0  0  0  0
    1.4739   -7.9504    7.6855 C   0  0  0  0  0  0  0  0  0  0  0  0
    1.8537   -9.5718    5.5494 C   0  0  1  0  0  0  0  0  0  0  0  0
    0.7362  -10.2432    6.1024 O   0  0  0  0  0  0  0  0  0  0  0  0
    5.2204   -9.3842    2.5811 C   0  0  1  0  0  0  0  0  0  0  0  0
    5.2543   -8.5847    1.2628 C   0  0  0  0  0  0  0  0  0  0  0  0
    5.7292  -10.6364    2.1171 O   0  0  0  0  0  0  0  0  0  0  0  0
    3.7564   -9.6778    3.1146 C   0  0  0  0  0  0  0  0  0  0  0  0
    2.7351   -8.8014    3.3915 C   0  0  0  0  0  0  0  0  0  0  0  0
   -0.0830   -5.7793    5.1056 H   0  0  0  0  0  0  0  0  0  0  0  0
    1.7125   -6.0805    4.9915 H   0  0  0  0  0  0  0  0  0  0  0  0
   -1.3609   -8.3217    3.4395 H   0  0  0  0  0  0  0  0  0  0  0  0
   -1.6902   -7.3162    4.8446 H   0  0  0  0  0  0  0  0  0  0  0  0
   -1.2557   -9.0009    5.0585 H   0  0  0  0  0  0  0  0  0  0  0  0
    1.4260   -8.7184    0.9939 H   0  0  0  0  0  0  0  0  0  0  0  0
    0.4168   -7.5640    1.8800 H   0  0  0  0  0  0  0  0  0  0  0  0
    2.1019   -4.6690    2.8917 H   0  0  0  0  0  0  0  0  0  0  0  0
    1.8742   -6.1508    0.5859 H   0  0  0  0  0  0  0  0  0  0  0  0
    3.8244   -5.8536   -0.2269 H   0  0  0  0  0  0  0  0  0  0  0  0
    5.5978   -4.6433   -1.4487 H   0  0  0  0  0  0  0  0  0  0  0  0
    6.6127   -2.6051   -0.4996 H   0  0  0  0  0  0  0  0  0  0  0  0
    6.7156   -0.9033    1.2269 H   0  0  0  0  0  0  0  0  0  0  0  0
    5.9081    0.0694    3.3601 H   0  0  0  0  0  0  0  0  0  0  0  0
    3.9989   -1.0054    4.5550 H   0  0  0  0  0  0  0  0  0  0  0  0
    2.8775   -2.9171    3.6304 H   0  0  0  0  0  0  0  0  0  0  0  0
    4.3015   -4.4281    3.9734 H   0  0  0  0  0  0  0  0  0  0  0  0
    6.4558   -4.5964    4.7437 H   0  0  0  0  0  0  0  0  0  0  0  0
    5.1922   -3.4694    6.4445 H   0  0  0  0  0  0  0  0  0  0  0  0
    6.5372   -4.3130    7.1986 H   0  0  0  0  0  0  0  0  0  0  0  0
    4.9013   -4.9870    7.2900 H   0  0  0  0  0  0  0  0  0  0  0  0
    7.7360   -6.4067    5.3031 H   0  0  0  0  0  0  0  0  0  0  0  0
    6.5455   -6.9852    6.4873 H   0  0  0  0  0  0  0  0  0  0  0  0
    6.0013   -7.2057    2.4683 H   0  0  0  0  0  0  0  0  0  0  0  0
    7.3563   -9.0053    3.4290 H   0  0  0  0  0  0  0  0  0  0  0  0
    6.7927  -11.6393    4.3465 H   0  0  0  0  0  0  0  0  0  0  0  0
    6.2199  -11.5207    6.0237 H   0  0  0  0  0  0  0  0  0  0  0  0
    7.7285  -10.7414    5.5348 H   0  0  0  0  0  0  0  0  0  0  0  0
    4.5998   -9.6601    6.3252 H   0  0  0  0  0  0  0  0  0  0  0  0
    4.3611   -7.4871    7.2774 H   0  0  0  0  0  0  0  0  0  0  0  0
    3.2699   -6.4828    6.4504 H   0  0  0  0  0  0  0  0  0  0  0  0
    2.9345   -9.2700    7.3522 H   0  0  0  0  0  0  0  0  0  0  0  0
    0.8408   -7.1562    7.2985 H   0  0  0  0  0  0  0  0  0  0  0  0
    2.0030   -7.5205    8.5374 H   0  0  0  0  0  0  0  0  0  0  0  0
    0.8092   -8.7092    8.1007 H   0  0  0  0  0  0  0  0  0  0  0  0
    2.5631  -10.3817    5.3712 H   0  0  0  0  0  0  0  0  0  0  0  0
    1.0196  -10.9521    6.6793 H   0  0  0  0  0  0  0  0  0  0  0  0
    4.8671   -7.5756    1.3453 H   0  0  0  0  0  0  0  0  0  0  0  0
    4.6655   -9.0822    0.4902 H   0  0  0  0  0  0  0  0  0  0  0  0
    6.2776   -8.5018    0.8956 H   0  0  0  0  0  0  0  0  0  0  0  0
    5.0996  -11.0541    1.5256 H   0  0  0  0  0  0  0  0  0  0  0  0
    3.6786  -10.6407    3.5846 H   0  0  0  0  0  0  0  0  0  0  0  0
  1  2  2  0
  1 43  1  0
  1 44  1  0
  2  3  1  0
  4  2  1  1
  3 45  1  0
  3 46  1  0
  3 47  1  0
  4 36  1  0
  4 42  1  0
  4  5  1  0
  5  6  1  0
  6  7  1  0
  6 48  1  0
  6 49  1  0
  7 42  1  0
  7  8  2  3
  8  9  1  0
  8 21  1  0
  9 10  1  0
  9 11  1  0
  9 50  1  1
 10 51  1  0
 11 20  1  0
 11 12  2  0
 12 13  1  0
 12 52  1  0
 13 14  2  0
 13 53  1  0
 14 15  1  0
 14 54  1  0
 15 20  2  0
 15 16  1  0
 16 17  2  0
 16 55  1  0
 17 18  1  0
 17 56  1  0
 18 19  2  0
 18 57  1  0
 19 20  1  0
 19 58  1  0
 21 32  1  0
 21 22  2  0
 22 23  1  0
 22 59  1  0
 23 24  1  0
 23 25  1  0
 23 60  1  6
 24 61  1  0
 24 62  1  0
 24 63  1  0
 25 26  1  0
 25 64  1  0
 25 65  1  0
 26 32  1  0
 26 27  1  6
 26 28  1  0
 27 66  1  0
 28 29  1  0
 28 38  1  0
 28 67  1  6
 29 30  1  0
 29 31  2  0
 30 68  1  0
 30 69  1  0
 30 70  1  0
 31 32  1  0
 31 71  1  0
 32 33  1  1
 33 34  1  0
 33 72  1  0
 33 73  1  0
 34 35  1  0
 34 36  1  0
 34 74  1  1
 35 75  1  0
 35 76  1  0
 35 77  1  0
 36 37  1  0
 36 78  1  6
 37 79  1  0
 38 39  1  0
 38 40  1  6
 38 41  1  0
 39 80  1  0
 39 81  1  0
 39 82  1  0
 40 83  1  0
 41 42  2  3
 41 84  1  0
M  END
>  <i_m_ct_stereo_status>  (305) 
1

>  <s_m_source_file>  (305) 
/var/tmp/pbs.5076255.sched01/tmppy4q9rbr/123plv7d954.sdf

>  <i_m_source_file_index>  (305) 
14

>  <i_lp_mmshare_version>  (305) 
48012

>  <i_f3d_flags>  (305) 
0

>  <s_epik_input>  (305) 
QzEyM0M0PVtDSF1bQ0BASF0oW0NIM10pW0NIMl1bQ0BAXTEoW09IXSlbQ0BASF0oQyhbQ0gzXSk9W0NIXTIpW0NAQF0oW0NIM10pKFtPSF0pL1tDSF09QzUvW0NAXShDKD1bQ0gyXSlbQ0gzXSkoW0NASF0oW09IXSlbQ0BASF0oW0NIMl0zKVtDSDNdKU9bQ0gyXS9DNT1DNFxbQ0BIXShbT0hdKWMoW2NIXVtjSF1bY0hdNiljKGM2NylbY0hdW2NIXVtjSF1bY0hdNw==

>  <s_epik_cmdline>  (305) 
J2VwaWtfcHl0aG9uJywgJy1waHQnLCAnMi4wJywgJy1waCcsICc3LjAnLCAnLXRuJywgJzgnLCAnLW1hJywgJzIwMCcsICctaW1hZScsICc8aW5maWxlLm1hZT4nLCAnLW9tYWUnLCAnPG91dGZpbGUubWFlPic=

>  <r_lp_tautomer_probability>  (305) 
1

>  <r_epik_Ionization_Penalty>  (305) 
1.31135e-05

>  <r_epik_Ionization_Penalty_Charging>  (305) 
0

>  <r_epik_Ionization_Penalty_Neutral>  (305) 
1.31135e-05

>  <r_epik_State_Penalty>  (305) 
-0

>  <r_epik_Charging_Adjusted_Penalty>  (305) 
0

>  <i_epik_Tot_Q>  (305) 
0

>  <i_epik_Tot_abs_Q>  (305) 
0

>  <s_lp_Force_Field>  (305) 
OPLS3e

>  <r_lp_Energy>  (305) 
353.905

>  <b_lp_Chiralities_Consistent>  (305) 
1

>  <s_lp_Variant>  (305) 
103:0-1

>  <s_i_glide_gridfile>  (305) 
pfpi4k_grid

>  <i_i_glide_lignum>  (305) 
14

>  <i_i_glide_rotatable_bonds>  (305) 
7

>  <r_i_docking_score>  (305) 
-3.33791

>  <r_i_glide_ligand_efficiency>  (305) 
-0.0794742

>  <r_i_glide_ligand_efficiency_sa>  (305) 
-0.276254

>  <r_i_glide_ligand_efficiency_ln>  (305) 
-0.704548

>  <r_i_glide_gscore>  (305) 
-3.33791

>  <r_i_glide_lipo>  (305) 
-0.511988

>  <r_i_glide_hbond>  (305) 
-0.258719

>  <r_i_glide_metal>  (305) 
-0

>  <r_i_glide_rewards>  (305) 
0

>  <r_i_glide_evdw>  (305) 
-27.2202

>  <r_i_glide_ecoul>  (305) 
-8.76124

>  <r_i_glide_erotb>  (305) 
0.10799

>  <r_i_glide_esite>  (305) 
0

>  <r_i_glide_emodel>  (305) 
-40.6878

>  <r_i_glide_energy>  (305) 
-35.9815

>  <r_i_glide_einternal>  (305) 
5.24425

>  <r_i_glide_intrahb_reward>  (305) 
-0

>  <i_i_glide_confnum>  (305) 
2

>  <i_i_glide_posenum>  (305) 
1

>  <r_i_glide_eff_state_penalty>  (305) 
0

>  <ligand_id>  (305) 
103

>  <original_smiles>  (305) 
C=C(C)C12OCC3=C(C(O)c4cccc5ccccc45)C4=CC(C)CC5(O)C(C(C)=CC45CC(C)C1O)C(C)(O)C=C32

>  <smiles>  (305) 
[H]OC([H])(C1=C2C3=C([H])C(O[H])(C([H])([H])[H])C4([H])C(C([H])([H])[H])=C([H])C5(C1=C([H])C([H])(C([H])([H])[H])C([H])([H])C45O[H])C([H])([H])C([H])(C([H])([H])[H])C([H])(O[H])C3(C(=C([H])[H])C([H])([H])[H])OC2([H])[H])c1c([H])c([H])c([H])c2c([H])c([H])c([H])c([H])c12

$$$$
103:0:2
     RDKit          3D

 84 90  0  0  1  0  0  0  0  0999 V2000
    4.2039   -8.7380    1.7568 C   0  0  0  0  0  0  0  0  0  0  0  0
    5.0713   -8.7338    2.7972 C   0  0  0  0  0  0  0  0  0  0  0  0
    6.5040   -9.1573    2.4575 C   0  0  0  0  0  0  0  0  0  0  0  0
    4.8365   -8.3224    4.3040 C   0  0  2  0  0  0  0  0  0  0  0  0
    5.9250   -7.3888    4.4916 O   0  0  0  0  0  0  0  0  0  0  0  0
    5.4541   -6.1719    3.7517 C   0  0  0  0  0  0  0  0  0  0  0  0
    3.9349   -6.2993    3.8029 C   0  0  0  0  0  0  0  0  0  0  0  0
    2.8894   -6.2436    2.9570 C   0  0  0  0  0  0  0  0  0  0  0  0
    2.9442   -5.4184    1.6375 C   0  0  2  0  0  0  0  0  0  0  0  0
    2.8662   -6.2415    0.5024 O   0  0  0  0  0  0  0  0  0  0  0  0
    4.0752   -4.3944    1.4926 C   0  0  0  0  0  0  0  0  0  0  0  0
    5.2609   -4.8176    0.8269 C   0  0  0  0  0  0  0  0  0  0  0  0
    6.3850   -3.9651    0.7186 C   0  0  0  0  0  0  0  0  0  0  0  0
    6.3002   -2.6506    1.2209 C   0  0  0  0  0  0  0  0  0  0  0  0
    5.1193   -2.1996    1.8275 C   0  0  0  0  0  0  0  0  0  0  0  0
    5.0805   -0.8775    2.2986 C   0  0  0  0  0  0  0  0  0  0  0  0
    3.9039   -0.3672    2.8912 C   0  0  0  0  0  0  0  0  0  0  0  0
    2.7701   -1.2049    3.0157 C   0  0  0  0  0  0  0  0  0  0  0  0
    2.8282   -2.5442    2.5656 C   0  0  0  0  0  0  0  0  0  0  0  0
    3.9971   -3.0582    1.9643 C   0  0  0  0  0  0  0  0  0  0  0  0
    1.6768   -7.1155    3.2808 C   0  0  0  0  0  0  0  0  0  0  0  0
    0.5846   -7.0845    2.4524 C   0  0  0  0  0  0  0  0  0  0  0  0
   -0.8333   -7.5780    2.9151 C   0  0  1  0  0  0  0  0  0  0  0  0
   -1.3710   -8.7636    2.1199 C   0  0  0  0  0  0  0  0  0  0  0  0
   -1.0086   -7.7400    4.4808 C   0  0  0  0  0  0  0  0  0  0  0  0
    0.2462   -7.0867    5.0463 C   0  0  1  0  0  0  0  0  0  0  0  0
    0.0093   -5.7197    4.6965 O   0  0  0  0  0  0  0  0  0  0  0  0
    0.7906   -6.6184    6.4731 C   0  0  1  0  0  0  0  0  0  0  0  0
    1.0680   -7.9145    7.0032 C   0  0  0  0  0  0  0  0  0  0  0  0
    0.8680   -8.2820    8.4686 C   0  0  0  0  0  0  0  0  0  0  0  0
    1.5316   -8.6214    5.9912 C   0  0  0  0  0  0  0  0  0  0  0  0
    1.3442   -8.1160    4.4942 C   0  0  2  0  0  0  0  0  0  0  0  0
    1.5892   -9.5695    3.9314 C   0  0  0  0  0  0  0  0  0  0  0  0
    2.9798  -10.3342    4.3397 C   0  0  1  0  0  0  0  0  0  0  0  0
    3.2769  -11.4526    3.3080 C   0  0  0  0  0  0  0  0  0  0  0  0
    4.2990   -9.6240    5.0052 C   0  0  1  0  0  0  0  0  0  0  0  0
    5.3377  -10.5818    5.0553 O   0  0  0  0  0  0  0  0  0  0  0  0
    2.2854   -5.9024    6.4770 C   0  0  1  0  0  0  0  0  0  0  0  0
    2.3484   -4.4887    5.8448 C   0  0  0  0  0  0  0  0  0  0  0  0
    2.5065   -5.5606    7.8345 O   0  0  0  0  0  0  0  0  0  0  0  0
    3.4939   -6.8427    6.0210 C   0  0  0  0  0  0  0  0  0  0  0  0
    3.8808   -7.2298    4.7667 C   0  0  0  0  0  0  0  0  0  0  0  0
    4.5280   -9.0356    0.7648 H   0  0  0  0  0  0  0  0  0  0  0  0
    3.1640   -8.4887    1.8403 H   0  0  0  0  0  0  0  0  0  0  0  0
    7.2098   -8.3317    2.5534 H   0  0  0  0  0  0  0  0  0  0  0  0
    6.5895   -9.5453    1.4362 H   0  0  0  0  0  0  0  0  0  0  0  0
    6.8394   -9.9609    3.1159 H   0  0  0  0  0  0  0  0  0  0  0  0
    5.7857   -5.2621    4.2552 H   0  0  0  0  0  0  0  0  0  0  0  0
    5.8762   -6.2159    2.7641 H   0  0  0  0  0  0  0  0  0  0  0  0
    2.0134   -4.8704    1.5897 H   0  0  0  0  0  0  0  0  0  0  0  0
    2.9157   -5.7077   -0.2692 H   0  0  0  0  0  0  0  0  0  0  0  0
    5.3494   -5.8391    0.4715 H   0  0  0  0  0  0  0  0  0  0  0  0
    7.3026   -4.3311    0.2754 H   0  0  0  0  0  0  0  0  0  0  0  0
    7.1645   -2.0078    1.1412 H   0  0  0  0  0  0  0  0  0  0  0  0
    5.9454   -0.2380    2.2074 H   0  0  0  0  0  0  0  0  0  0  0  0
    3.8629    0.6552    3.2430 H   0  0  0  0  0  0  0  0  0  0  0  0
    1.8596   -0.8196    3.4546 H   0  0  0  0  0  0  0  0  0  0  0  0
    1.9269   -3.1193    2.7015 H   0  0  0  0  0  0  0  0  0  0  0  0
    0.5636   -6.5165    1.5391 H   0  0  0  0  0  0  0  0  0  0  0  0
   -1.4848   -6.7405    2.6602 H   0  0  0  0  0  0  0  0  0  0  0  0
   -1.3629   -8.5276    1.0569 H   0  0  0  0  0  0  0  0  0  0  0  0
   -2.3934   -9.0151    2.3961 H   0  0  0  0  0  0  0  0  0  0  0  0
   -0.7483   -9.6473    2.2579 H   0  0  0  0  0  0  0  0  0  0  0  0
   -1.9329   -7.2646    4.8072 H   0  0  0  0  0  0  0  0  0  0  0  0
   -1.0609   -8.7929    4.7537 H   0  0  0  0  0  0  0  0  0  0  0  0
   -0.5775   -5.3558    5.3328 H   0  0  0  0  0  0  0  0  0  0  0  0
    0.0537   -6.0834    7.0735 H   0  0  0  0  0  0  0  0  0  0  0  0
    1.3406   -7.5610    9.1385 H   0  0  0  0  0  0  0  0  0  0  0  0
    1.2567   -9.2755    8.6941 H   0  0  0  0  0  0  0  0  0  0  0  0
   -0.1982   -8.2775    8.7036 H   0  0  0  0  0  0  0  0  0  0  0  0
    1.7398   -9.6368    6.2706 H   0  0  0  0  0  0  0  0  0  0  0  0
    0.7600  -10.2211    4.2075 H   0  0  0  0  0  0  0  0  0  0  0  0
    1.5322   -9.5504    2.8424 H   0  0  0  0  0  0  0  0  0  0  0  0
    2.6846  -10.9921    5.1536 H   0  0  0  0  0  0  0  0  0  0  0  0
    3.6044  -11.0877    2.3408 H   0  0  0  0  0  0  0  0  0  0  0  0
    2.3825  -12.0484    3.1208 H   0  0  0  0  0  0  0  0  0  0  0  0
    4.0287  -12.1634    3.6505 H   0  0  0  0  0  0  0  0  0  0  0  0
    4.0994   -9.4174    6.0485 H   0  0  0  0  0  0  0  0  0  0  0  0
    5.0377  -11.3293    5.5376 H   0  0  0  0  0  0  0  0  0  0  0  0
    2.2217   -4.4904    4.7666 H   0  0  0  0  0  0  0  0  0  0  0  0
    3.3026   -4.0005    6.0534 H   0  0  0  0  0  0  0  0  0  0  0  0
    1.5569   -3.8523    6.2482 H   0  0  0  0  0  0  0  0  0  0  0  0
    2.5407   -6.3493    8.3422 H   0  0  0  0  0  0  0  0  0  0  0  0
    3.8232   -7.4703    6.8494 H   0  0  0  0  0  0  0  0  0  0  0  0
  1  2  2  0
  1 43  1  0
  1 44  1  0
  2  3  1  0
  4  2  1  6
  3 45  1  0
  3 46  1  0
  3 47  1  0
  4 36  1  0
  4 42  1  0
  4  5  1  0
  5  6  1  0
  6  7  1  0
  6 48  1  0
  6 49  1  0
  7 42  1  0
  7  8  2  3
  8  9  1  0
  8 21  1  0
  9 10  1  0
  9 11  1  0
  9 50  1  1
 10 51  1  0
 11 20  1  0
 11 12  2  0
 12 13  1  0
 12 52  1  0
 13 14  2  0
 13 53  1  0
 14 15  1  0
 14 54  1  0
 15 20  2  0
 15 16  1  0
 16 17  2  0
 16 55  1  0
 17 18  1  0
 17 56  1  0
 18 19  2  0
 18 57  1  0
 19 20  1  0
 19 58  1  0
 21 32  1  0
 21 22  2  0
 22 23  1  0
 22 59  1  0
 23 24  1  0
 23 25  1  0
 23 60  1  6
 24 61  1  0
 24 62  1  0
 24 63  1  0
 25 26  1  0
 25 64  1  0
 25 65  1  0
 26 32  1  0
 26 27  1  6
 26 28  1  0
 27 66  1  0
 28 29  1  0
 28 38  1  0
 28 67  1  1
 29 30  1  0
 29 31  2  0
 30 68  1  0
 30 69  1  0
 30 70  1  0
 31 32  1  0
 31 71  1  0
 32 33  1  6
 33 34  1  0
 33 72  1  0
 33 73  1  0
 34 35  1  0
 34 36  1  0
 34 74  1  1
 35 75  1  0
 35 76  1  0
 35 77  1  0
 36 37  1  0
 36 78  1  1
 37 79  1  0
 38 39  1  0
 38 40  1  1
 38 41  1  0
 39 80  1  0
 39 81  1  0
 39 82  1  0
 40 83  1  0
 41 42  2  3
 41 84  1  0
M  END
>  <i_m_ct_stereo_status>  (306) 
1

>  <s_m_source_file>  (306) 
/var/tmp/pbs.5076255.sched01/tmppy4q9rbr/123plv7d954.sdf

>  <i_m_source_file_index>  (306) 
14

>  <i_lp_mmshare_version>  (306) 
48012

>  <i_f3d_flags>  (306) 
0

>  <s_epik_input>  (306) 
QzEyM0M0PVtDSF1bQ0BASF0oW0NIM10pW0NIMl1bQ0BAXTEoW09IXSlbQ0BASF0oQyhbQ0gzXSk9W0NIXTIpW0NAQF0oW0NIM10pKFtPSF0pL1tDSF09QzUvW0NAXShDKD1bQ0gyXSlbQ0gzXSkoW0NASF0oW09IXSlbQ0BASF0oW0NIMl0zKVtDSDNdKU9bQ0gyXS9DNT1DNFxbQ0BIXShbT0hdKWMoW2NIXVtjSF1bY0hdNiljKGM2NylbY0hdW2NIXVtjSF1bY0hdNw==

>  <s_epik_cmdline>  (306) 
J2VwaWtfcHl0aG9uJywgJy1waHQnLCAnMi4wJywgJy1waCcsICc3LjAnLCAnLXRuJywgJzgnLCAnLW1hJywgJzIwMCcsICctaW1hZScsICc8aW5maWxlLm1hZT4nLCAnLW9tYWUnLCAnPG91dGZpbGUubWFlPic=

>  <r_lp_tautomer_probability>  (306) 
1

>  <r_epik_Ionization_Penalty>  (306) 
1.31135e-05

>  <r_epik_Ionization_Penalty_Charging>  (306) 
0

>  <r_epik_Ionization_Penalty_Neutral>  (306) 
1.31135e-05

>  <r_epik_State_Penalty>  (306) 
-0

>  <r_epik_Charging_Adjusted_Penalty>  (306) 
0

>  <i_epik_Tot_Q>  (306) 
0

>  <i_epik_Tot_abs_Q>  (306) 
0

>  <s_lp_Force_Field>  (306) 
OPLS3e

>  <r_lp_Energy>  (306) 
353.905

>  <b_lp_Chiralities_Consistent>  (306) 
1

>  <s_lp_Variant>  (306) 
103:0-1

>  <s_i_glide_gridfile>  (306) 
pfpi4k_grid

>  <i_i_glide_lignum>  (306) 
14

>  <i_i_glide_rotatable_bonds>  (306) 
7

>  <r_i_docking_score>  (306) 
-2.43749

>  <r_i_glide_ligand_efficiency>  (306) 
-0.0580354

>  <r_i_glide_ligand_efficiency_sa>  (306) 
-0.201733

>  <r_i_glide_ligand_efficiency_ln>  (306) 
-0.514491

>  <r_i_glide_gscore>  (306) 
-2.43749

>  <r_i_glide_lipo>  (306) 
-0.587898

>  <r_i_glide_hbond>  (306) 
-0.0447848

>  <r_i_glide_metal>  (306) 
-0

>  <r_i_glide_rewards>  (306) 
0

>  <r_i_glide_evdw>  (306) 
-33.2786

>  <r_i_glide_ecoul>  (306) 
-1.65908

>  <r_i_glide_erotb>  (306) 
0.10799

>  <r_i_glide_esite>  (306) 
0

>  <r_i_glide_emodel>  (306) 
-39.6236

>  <r_i_glide_energy>  (306) 
-34.9377

>  <r_i_glide_einternal>  (306) 
2.37606

>  <r_i_glide_intrahb_reward>  (306) 
-0

>  <i_i_glide_confnum>  (306) 
2

>  <i_i_glide_posenum>  (306) 
2

>  <r_i_glide_eff_state_penalty>  (306) 
0

>  <ligand_id>  (306) 
103

>  <original_smiles>  (306) 
C=C(C)C12OCC3=C(C(O)c4cccc5ccccc45)C4=CC(C)CC5(O)C(C(C)=CC45CC(C)C1O)C(C)(O)C=C32

>  <smiles>  (306) 
[H]OC([H])(C1=C2C3=C([H])C(O[H])(C([H])([H])[H])C4([H])C(C([H])([H])[H])=C([H])C5(C1=C([H])C([H])(C([H])([H])[H])C([H])([H])C45O[H])C([H])([H])C([H])(C([H])([H])[H])C([H])(O[H])C3(C(=C([H])[H])C([H])([H])[H])OC2([H])[H])c1c([H])c([H])c([H])c2c([H])c([H])c([H])c([H])c12

$$$$
103:1:0
     RDKit          3D

 84 90  0  0  1  0  0  0  0  0999 V2000
    2.0070   -1.9108    8.0302 C   0  0  0  0  0  0  0  0  0  0  0  0
    1.0407   -1.5300    7.1667 C   0  0  0  0  0  0  0  0  0  0  0  0
    0.3723   -2.5482    6.2643 C   0  0  0  0  0  0  0  0  0  0  0  0
    0.5390   -0.0846    7.0266 C   0  0  1  0  0  0  0  0  0  0  0  0
   -0.8167    0.0138    6.7252 O   0  0  0  0  0  0  0  0  0  0  0  0
   -0.8048    1.3551    6.2685 C   0  0  0  0  0  0  0  0  0  0  0  0
    0.7491    1.7694    6.0907 C   0  0  0  0  0  0  0  0  0  0  0  0
    1.7164    2.7014    6.3439 C   0  0  0  0  0  0  0  0  0  0  0  0
    3.1871    2.2483    6.7511 C   0  0  2  0  0  0  0  0  0  0  0  0
    4.0297    3.2881    7.1519 O   0  0  0  0  0  0  0  0  0  0  0  0
    4.0135    1.1294    6.0647 C   0  0  0  0  0  0  0  0  0  0  0  0
    3.9064    0.9232    4.6773 C   0  0  0  0  0  0  0  0  0  0  0  0
    4.5028   -0.1851    4.0562 C   0  0  0  0  0  0  0  0  0  0  0  0
    5.3239   -1.0398    4.8011 C   0  0  0  0  0  0  0  0  0  0  0  0
    5.5636   -0.7840    6.1643 C   0  0  0  0  0  0  0  0  0  0  0  0
    6.4575   -1.6065    6.8757 C   0  0  0  0  0  0  0  0  0  0  0  0
    6.7464   -1.3517    8.2244 C   0  0  0  0  0  0  0  0  0  0  0  0
    6.1201   -0.2811    8.8763 C   0  0  0  0  0  0  0  0  0  0  0  0
    5.2042    0.5339    8.1827 C   0  0  0  0  0  0  0  0  0  0  0  0
    4.9119    0.3037    6.8114 C   0  0  0  0  0  0  0  0  0  0  0  0
    1.2409    4.0491    6.6588 C   0  0  0  0  0  0  0  0  0  0  0  0
    2.0493    5.1315    6.7329 C   0  0  0  0  0  0  0  0  0  0  0  0
    2.5824    5.6279    5.3964 C   0  0  1  0  0  0  0  0  0  0  0  0
    4.1136    5.6014    5.2046 C   0  0  0  0  0  0  0  0  0  0  0  0
    1.8358    4.8434    4.3075 C   0  0  0  0  0  0  0  0  0  0  0  0
    0.3591    4.4508    4.7649 C   0  0  1  0  0  0  0  0  0  0  0  0
   -0.2218    5.6958    4.3097 O   0  0  0  0  0  0  0  0  0  0  0  0
   -0.2409    3.2912    3.8435 C   0  0  2  0  0  0  0  0  0  0  0  0
   -1.5863    3.3736    4.4861 C   0  0  0  0  0  0  0  0  0  0  0  0
   -2.8317    2.9630    3.7411 C   0  0  0  0  0  0  0  0  0  0  0  0
   -1.5284    3.9354    5.7105 C   0  0  0  0  0  0  0  0  0  0  0  0
   -0.2006    4.4477    6.3852 C   0  0  2  0  0  0  0  0  0  0  0  0
   -0.4831    3.6719    7.8697 C   0  0  0  0  0  0  0  0  0  0  0  0
    0.3037    2.4652    8.7556 C   0  0  1  0  0  0  0  0  0  0  0  0
   -0.1412    2.6416   10.2282 C   0  0  0  0  0  0  0  0  0  0  0  0
    0.5361    0.8087    8.4709 C   0  0  1  0  0  0  0  0  0  0  0  0
   -0.2712    0.0433    9.3371 O   0  0  0  0  0  0  0  0  0  0  0  0
    0.4207    1.7959    3.4281 C   0  0  1  0  0  0  0  0  0  0  0  0
   -0.5116    1.1507    2.3811 C   0  0  0  0  0  0  0  0  0  0  0  0
    1.5111    2.1425    2.6132 O   0  0  0  0  0  0  0  0  0  0  0  0
    0.8949    0.5606    4.3905 C   0  0  0  0  0  0  0  0  0  0  0  0
    1.1133    0.5993    5.7651 C   0  0  0  0  0  0  0  0  0  0  0  0
    2.3124   -2.9457    8.0928 H   0  0  0  0  0  0  0  0  0  0  0  0
    2.5219   -1.2186    8.6779 H   0  0  0  0  0  0  0  0  0  0  0  0
   -0.6933   -2.5808    6.4704 H   0  0  0  0  0  0  0  0  0  0  0  0
    0.7848   -3.5457    6.4118 H   0  0  0  0  0  0  0  0  0  0  0  0
    0.5081   -2.2871    5.2144 H   0  0  0  0  0  0  0  0  0  0  0  0
   -1.3671    1.1937    5.3519 H   0  0  0  0  0  0  0  0  0  0  0  0
   -1.4885    1.7997    6.9577 H   0  0  0  0  0  0  0  0  0  0  0  0
    2.9403    1.8294    7.7164 H   0  0  0  0  0  0  0  0  0  0  0  0
    4.3194    3.7256    6.3703 H   0  0  0  0  0  0  0  0  0  0  0  0
    3.2842    1.5938    4.1042 H   0  0  0  0  0  0  0  0  0  0  0  0
    4.2961   -0.3991    3.0157 H   0  0  0  0  0  0  0  0  0  0  0  0
    5.7973   -1.8851    4.3134 H   0  0  0  0  0  0  0  0  0  0  0  0
    6.9476   -2.4275    6.3705 H   0  0  0  0  0  0  0  0  0  0  0  0
    7.4574   -1.9830    8.7504 H   0  0  0  0  0  0  0  0  0  0  0  0
    6.3457   -0.0712    9.9169 H   0  0  0  0  0  0  0  0  0  0  0  0
    4.7698    1.3601    8.7254 H   0  0  0  0  0  0  0  0  0  0  0  0
    1.5456    6.0084    7.1290 H   0  0  0  0  0  0  0  0  0  0  0  0
    2.2780    6.6740    5.3381 H   0  0  0  0  0  0  0  0  0  0  0  0
    4.6189    6.0757    6.0513 H   0  0  0  0  0  0  0  0  0  0  0  0
    4.4030    6.1374    4.2959 H   0  0  0  0  0  0  0  0  0  0  0  0
    4.4886    4.5878    5.0716 H   0  0  0  0  0  0  0  0  0  0  0  0
    1.8470    5.4281    3.3870 H   0  0  0  0  0  0  0  0  0  0  0  0
    2.4233    3.9543    4.0762 H   0  0  0  0  0  0  0  0  0  0  0  0
    0.2105    5.9486    3.5022 H   0  0  0  0  0  0  0  0  0  0  0  0
   -0.3862    3.7996    2.8938 H   0  0  0  0  0  0  0  0  0  0  0  0
   -2.8211    3.3444    2.7225 H   0  0  0  0  0  0  0  0  0  0  0  0
   -3.7230    3.3352    4.2369 H   0  0  0  0  0  0  0  0  0  0  0  0
   -2.9080    1.8828    3.6992 H   0  0  0  0  0  0  0  0  0  0  0  0
   -2.4637    4.1005    6.2280 H   0  0  0  0  0  0  0  0  0  0  0  0
   -0.3588    4.5271    8.5388 H   0  0  0  0  0  0  0  0  0  0  0  0
   -1.5481    3.5149    8.0432 H   0  0  0  0  0  0  0  0  0  0  0  0
    1.3257    2.8351    8.8490 H   0  0  0  0  0  0  0  0  0  0  0  0
   -1.1863    2.3704   10.3730 H   0  0  0  0  0  0  0  0  0  0  0  0
   -0.0271    3.6735   10.5568 H   0  0  0  0  0  0  0  0  0  0  0  0
    0.4606    2.0439   10.9124 H   0  0  0  0  0  0  0  0  0  0  0  0
    1.5308    0.6751    8.8891 H   0  0  0  0  0  0  0  0  0  0  0  0
   -0.1686    0.4035   10.2124 H   0  0  0  0  0  0  0  0  0  0  0  0
   -1.3433    0.6244    2.8392 H   0  0  0  0  0  0  0  0  0  0  0  0
    0.0200    0.4200    1.7687 H   0  0  0  0  0  0  0  0  0  0  0  0
   -0.9192    1.8884    1.6884 H   0  0  0  0  0  0  0  0  0  0  0  0
    1.1991    2.7282    1.9291 H   0  0  0  0  0  0  0  0  0  0  0  0
    0.7637   -0.4172    3.9666 H   0  0  0  0  0  0  0  0  0  0  0  0
  1  2  2  0
  1 43  1  0
  1 44  1  0
  2  3  1  0
  4  2  1  1
  3 45  1  0
  3 46  1  0
  3 47  1  0
  4 36  1  0
  4 42  1  0
  4  5  1  0
  5  6  1  0
  6  7  1  0
  6 48  1  0
  6 49  1  0
  7 42  1  0
  7  8  2  3
  8  9  1  0
  8 21  1  0
  9 10  1  0
  9 11  1  0
  9 50  1  1
 10 51  1  0
 11 20  1  0
 11 12  2  0
 12 13  1  0
 12 52  1  0
 13 14  2  0
 13 53  1  0
 14 15  1  0
 14 54  1  0
 15 20  2  0
 15 16  1  0
 16 17  2  0
 16 55  1  0
 17 18  1  0
 17 56  1  0
 18 19  2  0
 18 57  1  0
 19 20  1  0
 19 58  1  0
 21 32  1  0
 21 22  2  0
 22 23  1  0
 22 59  1  0
 23 24  1  0
 23 25  1  0
 23 60  1  6
 24 61  1  0
 24 62  1  0
 24 63  1  0
 25 26  1  0
 25 64  1  0
 25 65  1  0
 26 32  1  0
 26 27  1  6
 26 28  1  0
 27 66  1  0
 28 29  1  0
 28 38  1  0
 28 67  1  6
 29 30  1  0
 29 31  2  0
 30 68  1  0
 30 69  1  0
 30 70  1  0
 31 32  1  0
 31 71  1  0
 32 33  1  1
 33 34  1  0
 33 72  1  0
 33 73  1  0
 34 35  1  0
 34 36  1  0
 34 74  1  1
 35 75  1  0
 35 76  1  0
 35 77  1  0
 36 37  1  0
 36 78  1  1
 37 79  1  0
 38 39  1  0
 38 40  1  6
 38 41  1  0
 39 80  1  0
 39 81  1  0
 39 82  1  0
 40 83  1  0
 41 42  2  3
 41 84  1  0
M  END
>  <i_m_ct_stereo_status>  (307) 
1

>  <s_m_source_file>  (307) 
/var/tmp/pbs.5076255.sched01/tmppy4q9rbr/123plv7d954.sdf

>  <i_m_source_file_index>  (307) 
15

>  <i_lp_mmshare_version>  (307) 
48012

>  <i_f3d_flags>  (307) 
3

>  <s_epik_input>  (307) 
QzEyM0M0PVtDSF1bQ0BASF0oW0NIM10pW0NIMl1bQ0BAXTEoW09IXSlbQ0BASF0oQyhbQ0gzXSk9W0NIXTIpW0NAQF0oW0NIM10pKFtPSF0pL1tDSF09QzUvW0NAXShDKD1bQ0gyXSlbQ0gzXSkoW0NASF0oW09IXSlbQ0BASF0oW0NIMl0zKVtDSDNdKU9bQ0gyXS9DNT1DNFxbQ0BIXShbT0hdKWMoW2NIXVtjSF1bY0hdNiljKGM2NylbY0hdW2NIXVtjSF1bY0hdNw==

>  <s_epik_cmdline>  (307) 
J2VwaWtfcHl0aG9uJywgJy1waHQnLCAnMi4wJywgJy1waCcsICc3LjAnLCAnLXRuJywgJzgnLCAnLW1hJywgJzIwMCcsICctaW1hZScsICc8aW5maWxlLm1hZT4nLCAnLW9tYWUnLCAnPG91dGZpbGUubWFlPic=

>  <r_lp_tautomer_probability>  (307) 
1

>  <r_epik_Ionization_Penalty>  (307) 
1.31135e-05

>  <r_epik_Ionization_Penalty_Charging>  (307) 
0

>  <r_epik_Ionization_Penalty_Neutral>  (307) 
1.31135e-05

>  <r_epik_State_Penalty>  (307) 
-0

>  <r_epik_Charging_Adjusted_Penalty>  (307) 
0

>  <i_epik_Tot_Q>  (307) 
0

>  <i_epik_Tot_abs_Q>  (307) 
0

>  <s_lp_Force_Field>  (307) 
OPLS3e

>  <r_lp_Energy>  (307) 
502.9

>  <b_lp_Chiralities_Consistent>  (307) 
0

>  <s_lp_Variant>  (307) 
103:0-2

>  <s_i_glide_gridfile>  (307) 
pfpi4k_grid

>  <i_i_glide_lignum>  (307) 
15

>  <i_i_glide_rotatable_bonds>  (307) 
7

>  <r_i_docking_score>  (307) 
-2.6648

>  <r_i_glide_ligand_efficiency>  (307) 
-0.0634476

>  <r_i_glide_ligand_efficiency_sa>  (307) 
-0.220546

>  <r_i_glide_ligand_efficiency_ln>  (307) 
-0.562471

>  <r_i_glide_gscore>  (307) 
-2.6648

>  <r_i_glide_lipo>  (307) 
-0.15036

>  <r_i_glide_hbond>  (307) 
-0.153922

>  <r_i_glide_metal>  (307) 
-0

>  <r_i_glide_rewards>  (307) 
0

>  <r_i_glide_evdw>  (307) 
-24.8298

>  <r_i_glide_ecoul>  (307) 
-8.18012

>  <r_i_glide_erotb>  (307) 
0.10799

>  <r_i_glide_esite>  (307) 
0

>  <r_i_glide_emodel>  (307) 
-36.8741

>  <r_i_glide_energy>  (307) 
-33.0099

>  <r_i_glide_einternal>  (307) 
4.02172

>  <r_i_glide_intrahb_reward>  (307) 
-0

>  <i_i_glide_confnum>  (307) 
2

>  <i_i_glide_posenum>  (307) 
1

>  <r_i_glide_eff_state_penalty>  (307) 
0

>  <ligand_id>  (307) 
103

>  <original_smiles>  (307) 
C=C(C)C12OCC3=C(C(O)c4cccc5ccccc45)C4=CC(C)CC5(O)C(C(C)=CC45CC(C)C1O)C(C)(O)C=C32

>  <smiles>  (307) 
[H]OC([H])(C1=C2C3=C([H])C(O[H])(C([H])([H])[H])C4([H])C(C([H])([H])[H])=C([H])C5(C1=C([H])C([H])(C([H])([H])[H])C([H])([H])C45O[H])C([H])([H])C([H])(C([H])([H])[H])C([H])(O[H])C3(C(=C([H])[H])C([H])([H])[H])OC2([H])[H])c1c([H])c([H])c([H])c2c([H])c([H])c([H])c([H])c12

$$$$
103:1:1
     RDKit          3D

 84 90  0  0  1  0  0  0  0  0999 V2000
    0.2203   -2.6056    6.9113 C   0  0  0  0  0  0  0  0  0  0  0  0
    0.9979   -1.5505    7.1894 C   0  0  0  0  0  0  0  0  0  0  0  0
    2.4255   -1.7625    7.6505 C   0  0  0  0  0  0  0  0  0  0  0  0
    0.5192   -0.0960    7.0289 C   0  0  1  0  0  0  0  0  0  0  0  0
   -0.8402    0.0159    6.7176 O   0  0  0  0  0  0  0  0  0  0  0  0
   -0.8109    1.3503    6.2587 C   0  0  0  0  0  0  0  0  0  0  0  0
    0.7499    1.7635    6.0719 C   0  0  0  0  0  0  0  0  0  0  0  0
    1.7056    2.7014    6.3332 C   0  0  0  0  0  0  0  0  0  0  0  0
    3.1899    2.2653    6.7437 C   0  0  2  0  0  0  0  0  0  0  0  0
    4.0276    3.2980    7.2025 O   0  0  0  0  0  0  0  0  0  0  0  0
    4.0453    1.1700    6.0470 C   0  0  0  0  0  0  0  0  0  0  0  0
    3.9190    0.9635    4.6586 C   0  0  0  0  0  0  0  0  0  0  0  0
    4.5169   -0.1395    4.0189 C   0  0  0  0  0  0  0  0  0  0  0  0
    5.3436   -1.0052    4.7525 C   0  0  0  0  0  0  0  0  0  0  0  0
    5.5854   -0.7584    6.1199 C   0  0  0  0  0  0  0  0  0  0  0  0
    6.4340   -1.6319    6.8266 C   0  0  0  0  0  0  0  0  0  0  0  0
    6.6906   -1.4265    8.1938 C   0  0  0  0  0  0  0  0  0  0  0  0
    6.0644   -0.3553    8.8603 C   0  0  0  0  0  0  0  0  0  0  0  0
    5.1946    0.5047    8.1646 C   0  0  0  0  0  0  0  0  0  0  0  0
    4.9453    0.3335    6.7773 C   0  0  0  0  0  0  0  0  0  0  0  0
    1.2266    4.0460    6.6512 C   0  0  0  0  0  0  0  0  0  0  0  0
    2.0357    5.1257    6.7214 C   0  0  0  0  0  0  0  0  0  0  0  0
    2.5768    5.6195    5.3875 C   0  0  1  0  0  0  0  0  0  0  0  0
    4.1030    5.5819    5.2031 C   0  0  0  0  0  0  0  0  0  0  0  0
    1.8314    4.8352    4.2978 C   0  0  0  0  0  0  0  0  0  0  0  0
    0.3589    4.4361    4.7633 C   0  0  1  0  0  0  0  0  0  0  0  0
   -0.2279    5.6831    4.3029 O   0  0  0  0  0  0  0  0  0  0  0  0
   -0.2451    3.2853    3.8374 C   0  0  2  0  0  0  0  0  0  0  0  0
   -1.5887    3.3713    4.4803 C   0  0  0  0  0  0  0  0  0  0  0  0
   -2.8456    2.9573    3.7370 C   0  0  0  0  0  0  0  0  0  0  0  0
   -1.5351    3.9322    5.7097 C   0  0  0  0  0  0  0  0  0  0  0  0
   -0.2077    4.4390    6.3831 C   0  0  2  0  0  0  0  0  0  0  0  0
   -0.4867    3.6635    7.8674 C   0  0  0  0  0  0  0  0  0  0  0  0
    0.2979    2.4506    8.7485 C   0  0  1  0  0  0  0  0  0  0  0  0
   -0.1450    2.6361   10.2231 C   0  0  0  0  0  0  0  0  0  0  0  0
    0.5256    0.7927    8.4576 C   0  0  1  0  0  0  0  0  0  0  0  0
   -0.2761    0.0313    9.3394 O   0  0  0  0  0  0  0  0  0  0  0  0
    0.4072    1.7830    3.4260 C   0  0  1  0  0  0  0  0  0  0  0  0
   -0.5266    1.1391    2.3767 C   0  0  0  0  0  0  0  0  0  0  0  0
    1.5033    2.1267    2.5952 O   0  0  0  0  0  0  0  0  0  0  0  0
    0.8659    0.5428    4.4100 C   0  0  0  0  0  0  0  0  0  0  0  0
    1.1353    0.5772    5.7653 C   0  0  0  0  0  0  0  0  0  0  0  0
    0.6061   -3.6043    7.0301 H   0  0  0  0  0  0  0  0  0  0  0  0
   -0.7899   -2.4811    6.5647 H   0  0  0  0  0  0  0  0  0  0  0  0
    3.0580   -1.3803    6.8613 H   0  0  0  0  0  0  0  0  0  0  0  0
    2.6888   -2.8137    7.7601 H   0  0  0  0  0  0  0  0  0  0  0  0
    2.6548   -1.2552    8.5882 H   0  0  0  0  0  0  0  0  0  0  0  0
   -1.3674    1.1907    5.3450 H   0  0  0  0  0  0  0  0  0  0  0  0
   -1.4928    1.7977    6.9539 H   0  0  0  0  0  0  0  0  0  0  0  0
    2.9347    1.8091    7.6926 H   0  0  0  0  0  0  0  0  0  0  0  0
    4.6830    2.9268    7.7676 H   0  0  0  0  0  0  0  0  0  0  0  0
    3.2808    1.6158    4.0981 H   0  0  0  0  0  0  0  0  0  0  0  0
    4.3155   -0.3427    2.9729 H   0  0  0  0  0  0  0  0  0  0  0  0
    5.7964   -1.8591    4.2583 H   0  0  0  0  0  0  0  0  0  0  0  0
    6.8976   -2.4674    6.3240 H   0  0  0  0  0  0  0  0  0  0  0  0
    7.3583   -2.0922    8.7252 H   0  0  0  0  0  0  0  0  0  0  0  0
    6.2456   -0.2021    9.9169 H   0  0  0  0  0  0  0  0  0  0  0  0
    4.7261    1.2813    8.7379 H   0  0  0  0  0  0  0  0  0  0  0  0
    1.5398    6.0076    7.1192 H   0  0  0  0  0  0  0  0  0  0  0  0
    2.2848    6.6666    5.3235 H   0  0  0  0  0  0  0  0  0  0  0  0
    4.6146    6.0564    6.0417 H   0  0  0  0  0  0  0  0  0  0  0  0
    4.4128    6.0834    4.2829 H   0  0  0  0  0  0  0  0  0  0  0  0
    4.4721    4.5618    5.0944 H   0  0  0  0  0  0  0  0  0  0  0  0
    1.8388    5.4147    3.3740 H   0  0  0  0  0  0  0  0  0  0  0  0
    2.4124    3.9405    4.0682 H   0  0  0  0  0  0  0  0  0  0  0  0
    0.2063    5.9449    3.5005 H   0  0  0  0  0  0  0  0  0  0  0  0
   -0.3931    3.7867    2.8808 H   0  0  0  0  0  0  0  0  0  0  0  0
   -2.8326    3.3403    2.7189 H   0  0  0  0  0  0  0  0  0  0  0  0
   -3.7351    3.3369    4.2327 H   0  0  0  0  0  0  0  0  0  0  0  0
   -2.9254    1.8824    3.6968 H   0  0  0  0  0  0  0  0  0  0  0  0
   -2.4678    4.1028    6.2232 H   0  0  0  0  0  0  0  0  0  0  0  0
   -0.3597    4.5185    8.5316 H   0  0  0  0  0  0  0  0  0  0  0  0
   -1.5519    3.5105    8.0414 H   0  0  0  0  0  0  0  0  0  0  0  0
    1.3216    2.8190    8.8451 H   0  0  0  0  0  0  0  0  0  0  0  0
   -1.1917    2.3712   10.3717 H   0  0  0  0  0  0  0  0  0  0  0  0
   -0.0281    3.6695   10.5501 H   0  0  0  0  0  0  0  0  0  0  0  0
    0.4546    2.0395   10.9127 H   0  0  0  0  0  0  0  0  0  0  0  0
    1.5107    0.6339    8.8771 H   0  0  0  0  0  0  0  0  0  0  0  0
   -0.1688    0.3811   10.2096 H   0  0  0  0  0  0  0  0  0  0  0  0
   -1.3597    0.6184    2.8392 H   0  0  0  0  0  0  0  0  0  0  0  0
   -0.0007    0.4046    1.7626 H   0  0  0  0  0  0  0  0  0  0  0  0
   -0.9330    1.8764    1.6906 H   0  0  0  0  0  0  0  0  0  0  0  0
    1.1902    2.7228    1.9234 H   0  0  0  0  0  0  0  0  0  0  0  0
    0.7528   -0.4387    3.9659 H   0  0  0  0  0  0  0  0  0  0  0  0
  1  2  2  0
  1 43  1  0
  1 44  1  0
  2  3  1  0
  4  2  1  1
  3 45  1  0
  3 46  1  0
  3 47  1  0
  4 36  1  0
  4 42  1  0
  4  5  1  0
  5  6  1  0
  6  7  1  0
  6 48  1  0
  6 49  1  0
  7 42  1  0
  7  8  2  3
  8  9  1  0
  8 21  1  0
  9 10  1  0
  9 11  1  0
  9 50  1  1
 10 51  1  0
 11 20  1  0
 11 12  2  0
 12 13  1  0
 12 52  1  0
 13 14  2  0
 13 53  1  0
 14 15  1  0
 14 54  1  0
 15 20  2  0
 15 16  1  0
 16 17  2  0
 16 55  1  0
 17 18  1  0
 17 56  1  0
 18 19  2  0
 18 57  1  0
 19 20  1  0
 19 58  1  0
 21 32  1  0
 21 22  2  0
 22 23  1  0
 22 59  1  0
 23 24  1  0
 23 25  1  0
 23 60  1  6
 24 61  1  0
 24 62  1  0
 24 63  1  0
 25 26  1  0
 25 64  1  0
 25 65  1  0
 26 32  1  0
 26 27  1  6
 26 28  1  0
 27 66  1  0
 28 29  1  0
 28 38  1  0
 28 67  1  6
 29 30  1  0
 29 31  2  0
 30 68  1  0
 30 69  1  0
 30 70  1  0
 31 32  1  0
 31 71  1  0
 32 33  1  1
 33 34  1  0
 33 72  1  0
 33 73  1  0
 34 35  1  0
 34 36  1  0
 34 74  1  1
 35 75  1  0
 35 76  1  0
 35 77  1  0
 36 37  1  0
 36 78  1  1
 37 79  1  0
 38 39  1  0
 38 40  1  6
 38 41  1  0
 39 80  1  0
 39 81  1  0
 39 82  1  0
 40 83  1  0
 41 42  2  3
 41 84  1  0
M  END
>  <i_m_ct_stereo_status>  (308) 
1

>  <s_m_source_file>  (308) 
/var/tmp/pbs.5076255.sched01/tmppy4q9rbr/123plv7d954.sdf

>  <i_m_source_file_index>  (308) 
15

>  <i_lp_mmshare_version>  (308) 
48012

>  <i_f3d_flags>  (308) 
3

>  <s_epik_input>  (308) 
QzEyM0M0PVtDSF1bQ0BASF0oW0NIM10pW0NIMl1bQ0BAXTEoW09IXSlbQ0BASF0oQyhbQ0gzXSk9W0NIXTIpW0NAQF0oW0NIM10pKFtPSF0pL1tDSF09QzUvW0NAXShDKD1bQ0gyXSlbQ0gzXSkoW0NASF0oW09IXSlbQ0BASF0oW0NIMl0zKVtDSDNdKU9bQ0gyXS9DNT1DNFxbQ0BIXShbT0hdKWMoW2NIXVtjSF1bY0hdNiljKGM2NylbY0hdW2NIXVtjSF1bY0hdNw==

>  <s_epik_cmdline>  (308) 
J2VwaWtfcHl0aG9uJywgJy1waHQnLCAnMi4wJywgJy1waCcsICc3LjAnLCAnLXRuJywgJzgnLCAnLW1hJywgJzIwMCcsICctaW1hZScsICc8aW5maWxlLm1hZT4nLCAnLW9tYWUnLCAnPG91dGZpbGUubWFlPic=

>  <r_lp_tautomer_probability>  (308) 
1

>  <r_epik_Ionization_Penalty>  (308) 
1.31135e-05

>  <r_epik_Ionization_Penalty_Charging>  (308) 
0

>  <r_epik_Ionization_Penalty_Neutral>  (308) 
1.31135e-05

>  <r_epik_State_Penalty>  (308) 
-0

>  <r_epik_Charging_Adjusted_Penalty>  (308) 
0

>  <i_epik_Tot_Q>  (308) 
0

>  <i_epik_Tot_abs_Q>  (308) 
0

>  <s_lp_Force_Field>  (308) 
OPLS3e

>  <r_lp_Energy>  (308) 
502.9

>  <b_lp_Chiralities_Consistent>  (308) 
0

>  <s_lp_Variant>  (308) 
103:0-2

>  <s_i_glide_gridfile>  (308) 
pfpi4k_grid

>  <i_i_glide_lignum>  (308) 
15

>  <i_i_glide_rotatable_bonds>  (308) 
7

>  <r_i_docking_score>  (308) 
-2.60657

>  <r_i_glide_ligand_efficiency>  (308) 
-0.0620613

>  <r_i_glide_ligand_efficiency_sa>  (308) 
-0.215727

>  <r_i_glide_ligand_efficiency_ln>  (308) 
-0.55018

>  <r_i_glide_gscore>  (308) 
-2.60657

>  <r_i_glide_lipo>  (308) 
-0.152829

>  <r_i_glide_hbond>  (308) 
-0.161127

>  <r_i_glide_metal>  (308) 
-0

>  <r_i_glide_rewards>  (308) 
0

>  <r_i_glide_evdw>  (308) 
-24.3226

>  <r_i_glide_ecoul>  (308) 
-7.89653

>  <r_i_glide_erotb>  (308) 
0.10799

>  <r_i_glide_esite>  (308) 
0

>  <r_i_glide_emodel>  (308) 
-35.6046

>  <r_i_glide_energy>  (308) 
-32.2191

>  <r_i_glide_einternal>  (308) 
4.21332

>  <r_i_glide_intrahb_reward>  (308) 
-0

>  <i_i_glide_confnum>  (308) 
5

>  <i_i_glide_posenum>  (308) 
13

>  <r_i_glide_eff_state_penalty>  (308) 
0

>  <ligand_id>  (308) 
103

>  <original_smiles>  (308) 
C=C(C)C12OCC3=C(C(O)c4cccc5ccccc45)C4=CC(C)CC5(O)C(C(C)=CC45CC(C)C1O)C(C)(O)C=C32

>  <smiles>  (308) 
[H]OC([H])(C1=C2C3=C([H])C(O[H])(C([H])([H])[H])C4([H])C(C([H])([H])[H])=C([H])C5(C1=C([H])C([H])(C([H])([H])[H])C([H])([H])C45O[H])C([H])([H])C([H])(C([H])([H])[H])C([H])(O[H])C3(C(=C([H])[H])C([H])([H])[H])OC2([H])[H])c1c([H])c([H])c([H])c2c([H])c([H])c([H])c([H])c12

$$$$
103:1:2
     RDKit          3D

 84 90  0  0  1  0  0  0  0  0999 V2000
    1.8925   -5.3483   -0.2533 C   0  0  0  0  0  0  0  0  0  0  0  0
    2.6909   -5.0990    0.7979 C   0  0  0  0  0  0  0  0  0  0  0  0
    3.4996   -3.8126    0.8555 C   0  0  0  0  0  0  0  0  0  0  0  0
    2.8450   -6.0778    1.9612 C   0  0  1  0  0  0  0  0  0  0  0  0
    2.8355   -7.4064    1.5628 O   0  0  0  0  0  0  0  0  0  0  0  0
    2.5811   -7.9915    2.8239 C   0  0  0  0  0  0  0  0  0  0  0  0
    2.1360   -6.7796    3.7895 C   0  0  0  0  0  0  0  0  0  0  0  0
    2.3348   -6.2007    5.0242 C   0  0  0  0  0  0  0  0  0  0  0  0
    2.3433   -4.6225    5.1097 C   0  0  2  0  0  0  0  0  0  0  0  0
    3.4553   -4.1198    5.8486 O   0  0  0  0  0  0  0  0  0  0  0  0
    1.0734   -3.7278    5.2465 C   0  0  0  0  0  0  0  0  0  0  0  0
    0.0172   -4.1148    6.0996 C   0  0  0  0  0  0  0  0  0  0  0  0
   -1.0629   -3.3063    6.4451 C   0  0  0  0  0  0  0  0  0  0  0  0
   -1.2307   -2.0971    5.7668 C   0  0  0  0  0  0  0  0  0  0  0  0
   -0.2361   -1.6703    4.8534 C   0  0  0  0  0  0  0  0  0  0  0  0
   -0.4516   -0.4692    4.1718 C   0  0  0  0  0  0  0  0  0  0  0  0
    0.5160    0.0071    3.2682 C   0  0  0  0  0  0  0  0  0  0  0  0
    1.7032   -0.7156    3.0643 C   0  0  0  0  0  0  0  0  0  0  0  0
    1.9274   -1.9169    3.7573 C   0  0  0  0  0  0  0  0  0  0  0  0
    0.9394   -2.4537    4.6273 C   0  0  0  0  0  0  0  0  0  0  0  0
    2.9357   -7.0292    6.0583 C   0  0  0  0  0  0  0  0  0  0  0  0
    2.9969   -6.6276    7.3556 C   0  0  0  0  0  0  0  0  0  0  0  0
    1.6811   -6.6605    8.1189 C   0  0  1  0  0  0  0  0  0  0  0  0
    1.2698   -5.2891    8.7392 C   0  0  0  0  0  0  0  0  0  0  0  0
    0.6620   -7.4178    7.1890 C   0  0  0  0  0  0  0  0  0  0  0  0
    1.3574   -8.4411    6.2070 C   0  0  1  0  0  0  0  0  0  0  0  0
    1.1907   -9.4657    7.1789 O   0  0  0  0  0  0  0  0  0  0  0  0
    0.3907   -8.7687    4.9481 C   0  0  2  0  0  0  0  0  0  0  0  0
    1.3089   -9.8550    4.4924 C   0  0  0  0  0  0  0  0  0  0  0  0
    0.7906  -11.0345    3.6693 C   0  0  0  0  0  0  0  0  0  0  0  0
    2.5654   -9.7167    4.9712 C   0  0  0  0  0  0  0  0  0  0  0  0
    3.0389   -8.5407    5.9022 C   0  0  2  0  0  0  0  0  0  0  0  0
    4.4111   -8.1512    4.9802 C   0  0  0  0  0  0  0  0  0  0  0  0
    4.9406   -6.7994    4.1153 C   0  0  1  0  0  0  0  0  0  0  0  0
    6.4890   -6.9094    4.0497 C   0  0  0  0  0  0  0  0  0  0  0  0
    4.3808   -6.0937    2.6923 C   0  0  1  0  0  0  0  0  0  0  0  0
    5.3014   -6.3812    1.6476 O   0  0  0  0  0  0  0  0  0  0  0  0
   -0.3531   -7.7183    3.8254 C   0  0  1  0  0  0  0  0  0  0  0  0
   -1.2767   -8.6004    2.9388 C   0  0  0  0  0  0  0  0  0  0  0  0
   -1.3314   -7.0291    4.5645 O   0  0  0  0  0  0  0  0  0  0  0  0
    0.3109   -6.6196    2.8152 C   0  0  0  0  0  0  0  0  0  0  0  0
    1.5815   -6.0804    2.8700 C   0  0  0  0  0  0  0  0  0  0  0  0
    1.8097   -4.6394   -1.0737 H   0  0  0  0  0  0  0  0  0  0  0  0
    1.3223   -6.2593   -0.3164 H   0  0  0  0  0  0  0  0  0  0  0  0
    3.2118   -3.2386    1.7262 H   0  0  0  0  0  0  0  0  0  0  0  0
    3.3565   -3.1833   -0.0209 H   0  0  0  0  0  0  0  0  0  0  0  0
    4.5686   -4.0068    0.9241 H   0  0  0  0  0  0  0  0  0  0  0  0
    1.7763   -8.6597    2.5075 H   0  0  0  0  0  0  0  0  0  0  0  0
    3.4577   -8.6158    2.9319 H   0  0  0  0  0  0  0  0  0  0  0  0
    2.6889   -4.3496    4.1217 H   0  0  0  0  0  0  0  0  0  0  0  0
    4.2447   -4.5689    5.5954 H   0  0  0  0  0  0  0  0  0  0  0  0
    0.0230   -4.9952    6.6077 H   0  0  0  0  0  0  0  0  0  0  0  0
   -1.7641   -3.6756    7.1700 H   0  0  0  0  0  0  0  0  0  0  0  0
   -2.1430   -1.5312    5.9377 H   0  0  0  0  0  0  0  0  0  0  0  0
   -1.3607    0.0832    4.3331 H   0  0  0  0  0  0  0  0  0  0  0  0
    0.3518    0.9192    2.7486 H   0  0  0  0  0  0  0  0  0  0  0  0
    2.4472   -0.3572    2.3879 H   0  0  0  0  0  0  0  0  0  0  0  0
    2.8646   -2.4195    3.5973 H   0  0  0  0  0  0  0  0  0  0  0  0
    3.6037   -7.2834    7.9577 H   0  0  0  0  0  0  0  0  0  0  0  0
    1.8200   -7.3323    8.9969 H   0  0  0  0  0  0  0  0  0  0  0  0
    2.0281   -4.9168    9.4262 H   0  0  0  0  0  0  0  0  0  0  0  0
    0.2789   -5.3560    9.2196 H   0  0  0  0  0  0  0  0  0  0  0  0
    1.3052   -4.4895    8.0512 H   0  0  0  0  0  0  0  0  0  0  0  0
   -0.1815   -7.8170    7.7792 H   0  0  0  0  0  0  0  0  0  0  0  0
    0.1496   -6.8305    6.5091 H   0  0  0  0  0  0  0  0  0  0  0  0
    1.4312  -10.3237    6.8380 H   0  0  0  0  0  0  0  0  0  0  0  0
   -0.4590   -9.2850    5.3981 H   0  0  0  0  0  0  0  0  0  0  0  0
   -0.1471  -11.4050    4.0808 H   0  0  0  0  0  0  0  0  0  0  0  0
    1.4880  -11.8699    3.6644 H   0  0  0  0  0  0  0  0  0  0  0  0
    0.6058  -10.7671    2.6303 H   0  0  0  0  0  0  0  0  0  0  0  0
    3.2772  -10.5038    4.7685 H   0  0  0  0  0  0  0  0  0  0  0  0
    5.1493   -8.1862    5.7884 H   0  0  0  0  0  0  0  0  0  0  0  0
    4.7774   -9.0164    4.4264 H   0  0  0  0  0  0  0  0  0  0  0  0
    4.8830   -5.9766    4.8183 H   0  0  0  0  0  0  0  0  0  0  0  0
    6.8171   -7.7267    3.4080 H   0  0  0  0  0  0  0  0  0  0  0  0
    6.9295   -7.0884    5.0323 H   0  0  0  0  0  0  0  0  0  0  0  0
    6.9608   -5.9970    3.6806 H   0  0  0  0  0  0  0  0  0  0  0  0
    4.6022   -5.0468    2.8821 H   0  0  0  0  0  0  0  0  0  0  0  0
    5.1961   -7.2782    1.3911 H   0  0  0  0  0  0  0  0  0  0  0  0
   -0.7273   -9.0634    2.1214 H   0  0  0  0  0  0  0  0  0  0  0  0
   -2.0944   -8.0400    2.4753 H   0  0  0  0  0  0  0  0  0  0  0  0
   -1.7517   -9.4120    3.4993 H   0  0  0  0  0  0  0  0  0  0  0  0
   -1.8832   -7.6631    4.9911 H   0  0  0  0  0  0  0  0  0  0  0  0
   -0.2254   -6.4960    1.8977 H   0  0  0  0  0  0  0  0  0  0  0  0
  1  2  2  0
  1 43  1  0
  1 44  1  0
  2  3  1  0
  4  2  1  6
  3 45  1  0
  3 46  1  0
  3 47  1  0
  4 36  1  0
  4 42  1  0
  4  5  1  0
  5  6  1  0
  6  7  1  0
  6 48  1  0
  6 49  1  0
  7 42  1  0
  7  8  2  3
  8  9  1  0
  8 21  1  0
  9 10  1  0
  9 11  1  0
  9 50  1  6
 10 51  1  0
 11 20  1  0
 11 12  2  0
 12 13  1  0
 12 52  1  0
 13 14  2  0
 13 53  1  0
 14 15  1  0
 14 54  1  0
 15 20  2  0
 15 16  1  0
 16 17  2  0
 16 55  1  0
 17 18  1  0
 17 56  1  0
 18 19  2  0
 18 57  1  0
 19 20  1  0
 19 58  1  0
 21 32  1  0
 21 22  2  0
 22 23  1  0
 22 59  1  0
 23 24  1  0
 23 25  1  0
 23 60  1  1
 24 61  1  0
 24 62  1  0
 24 63  1  0
 25 26  1  0
 25 64  1  0
 25 65  1  0
 26 32  1  0
 26 27  1  1
 26 28  1  0
 27 66  1  0
 28 29  1  0
 28 38  1  0
 28 67  1  1
 29 30  1  0
 29 31  2  0
 30 68  1  0
 30 69  1  0
 30 70  1  0
 31 32  1  0
 31 71  1  0
 32 33  1  1
 33 34  1  0
 33 72  1  0
 33 73  1  0
 34 35  1  0
 34 36  1  0
 34 74  1  1
 35 75  1  0
 35 76  1  0
 35 77  1  0
 36 37  1  0
 36 78  1  1
 37 79  1  0
 38 39  1  0
 38 40  1  1
 38 41  1  0
 39 80  1  0
 39 81  1  0
 39 82  1  0
 40 83  1  0
 41 42  2  3
 41 84  1  0
M  END
>  <i_m_ct_stereo_status>  (309) 
1

>  <s_m_source_file>  (309) 
/var/tmp/pbs.5076255.sched01/tmppy4q9rbr/123plv7d954.sdf

>  <i_m_source_file_index>  (309) 
15

>  <i_lp_mmshare_version>  (309) 
48012

>  <i_f3d_flags>  (309) 
3

>  <s_epik_input>  (309) 
QzEyM0M0PVtDSF1bQ0BASF0oW0NIM10pW0NIMl1bQ0BAXTEoW09IXSlbQ0BASF0oQyhbQ0gzXSk9W0NIXTIpW0NAQF0oW0NIM10pKFtPSF0pL1tDSF09QzUvW0NAXShDKD1bQ0gyXSlbQ0gzXSkoW0NASF0oW09IXSlbQ0BASF0oW0NIMl0zKVtDSDNdKU9bQ0gyXS9DNT1DNFxbQ0BIXShbT0hdKWMoW2NIXVtjSF1bY0hdNiljKGM2NylbY0hdW2NIXVtjSF1bY0hdNw==

>  <s_epik_cmdline>  (309) 
J2VwaWtfcHl0aG9uJywgJy1waHQnLCAnMi4wJywgJy1waCcsICc3LjAnLCAnLXRuJywgJzgnLCAnLW1hJywgJzIwMCcsICctaW1hZScsICc8aW5maWxlLm1hZT4nLCAnLW9tYWUnLCAnPG91dGZpbGUubWFlPic=

>  <r_lp_tautomer_probability>  (309) 
1

>  <r_epik_Ionization_Penalty>  (309) 
1.31135e-05

>  <r_epik_Ionization_Penalty_Charging>  (309) 
0

>  <r_epik_Ionization_Penalty_Neutral>  (309) 
1.31135e-05

>  <r_epik_State_Penalty>  (309) 
-0

>  <r_epik_Charging_Adjusted_Penalty>  (309) 
0

>  <i_epik_Tot_Q>  (309) 
0

>  <i_epik_Tot_abs_Q>  (309) 
0

>  <s_lp_Force_Field>  (309) 
OPLS3e

>  <r_lp_Energy>  (309) 
502.9

>  <b_lp_Chiralities_Consistent>  (309) 
0

>  <s_lp_Variant>  (309) 
103:0-2

>  <s_i_glide_gridfile>  (309) 
pfpi4k_grid

>  <i_i_glide_lignum>  (309) 
15

>  <i_i_glide_rotatable_bonds>  (309) 
7

>  <r_i_docking_score>  (309) 
-1.87145

>  <r_i_glide_ligand_efficiency>  (309) 
-0.0445583

>  <r_i_glide_ligand_efficiency_sa>  (309) 
-0.154886

>  <r_i_glide_ligand_efficiency_ln>  (309) 
-0.395015

>  <r_i_glide_gscore>  (309) 
-1.87145

>  <r_i_glide_lipo>  (309) 
-0.10055

>  <r_i_glide_hbond>  (309) 
-0.0686608

>  <r_i_glide_metal>  (309) 
-0

>  <r_i_glide_rewards>  (309) 
0

>  <r_i_glide_evdw>  (309) 
-33.1621

>  <r_i_glide_ecoul>  (309) 
-1.01417

>  <r_i_glide_erotb>  (309) 
0.10799

>  <r_i_glide_esite>  (309) 
0

>  <r_i_glide_emodel>  (309) 
-34.4556

>  <r_i_glide_energy>  (309) 
-34.1762

>  <r_i_glide_einternal>  (309) 
2.50356

>  <r_i_glide_intrahb_reward>  (309) 
-0

>  <i_i_glide_confnum>  (309) 
3

>  <i_i_glide_posenum>  (309) 
40

>  <r_i_glide_eff_state_penalty>  (309) 
0

>  <ligand_id>  (309) 
103

>  <original_smiles>  (309) 
C=C(C)C12OCC3=C(C(O)c4cccc5ccccc45)C4=CC(C)CC5(O)C(C(C)=CC45CC(C)C1O)C(C)(O)C=C32

>  <smiles>  (309) 
[H]OC([H])(C1=C2C3=C([H])C(O[H])(C([H])([H])[H])C4([H])C(C([H])([H])[H])=C([H])C5(C1=C([H])C([H])(C([H])([H])[H])C([H])([H])C45O[H])C([H])([H])C([H])(C([H])([H])[H])C([H])(O[H])C3(C(=C([H])[H])C([H])([H])[H])OC2([H])[H])c1c([H])c([H])c([H])c2c([H])c([H])c([H])c([H])c12

$$$$
103:2:0
     RDKit          3D

 84 90  0  0  1  0  0  0  0  0999 V2000
    2.3871   -0.2387    7.3847 C   0  0  0  0  0  0  0  0  0  0  0  0
    1.6736   -1.3282    7.0470 C   0  0  0  0  0  0  0  0  0  0  0  0
    0.2188   -1.4036    7.4733 C   0  0  0  0  0  0  0  0  0  0  0  0
    2.2096   -2.5575    6.2878 C   0  0  2  0  0  0  0  0  0  0  0  0
    1.5561   -3.7206    6.8633 O   0  0  0  0  0  0  0  0  0  0  0  0
    1.3950   -4.7269    5.8579 C   0  0  0  0  0  0  0  0  0  0  0  0
    1.7427   -3.9930    4.6063 C   0  0  0  0  0  0  0  0  0  0  0  0
    2.5018   -4.4312    3.5692 C   0  0  0  0  0  0  0  0  0  0  0  0
    2.7987   -5.9564    3.4001 C   0  0  2  0  0  0  0  0  0  0  0  0
    3.6691   -6.2169    2.3112 O   0  0  0  0  0  0  0  0  0  0  0  0
    1.5824   -6.9130    3.3829 C   0  0  0  0  0  0  0  0  0  0  0  0
    0.2562   -6.3707    3.4141 C   0  0  0  0  0  0  0  0  0  0  0  0
   -0.8758   -7.2035    3.5476 C   0  0  0  0  0  0  0  0  0  0  0  0
   -0.7108   -8.5979    3.5342 C   0  0  0  0  0  0  0  0  0  0  0  0
    0.5799   -9.1456    3.4344 C   0  0  0  0  0  0  0  0  0  0  0  0
    0.6910  -10.5297    3.3963 C   0  0  0  0  0  0  0  0  0  0  0  0
    1.9576  -11.1506    3.2820 C   0  0  0  0  0  0  0  0  0  0  0  0
    3.1148  -10.3465    3.2172 C   0  0  0  0  0  0  0  0  0  0  0  0
    2.9986   -8.9460    3.2964 C   0  0  0  0  0  0  0  0  0  0  0  0
    1.7254   -8.3206    3.3699 C   0  0  0  0  0  0  0  0  0  0  0  0
    3.2404   -3.3859    2.7804 C   0  0  0  0  0  0  0  0  0  0  0  0
    3.2625   -3.5684    1.4384 C   0  0  0  0  0  0  0  0  0  0  0  0
    3.9759   -2.6858    0.4502 C   0  0  1  0  0  0  0  0  0  0  0  0
    3.5838   -3.0721   -0.9860 C   0  0  0  0  0  0  0  0  0  0  0  0
    3.5548   -1.2850    0.8085 C   0  0  0  0  0  0  0  0  0  0  0  0
    3.9184   -0.9580    2.2584 C   0  0  1  0  0  0  0  0  0  0  0  0
    5.1911   -0.3345    2.1448 O   0  0  0  0  0  0  0  0  0  0  0  0
    2.8528    0.0759    2.9209 C   0  0  2  0  0  0  0  0  0  0  0  0
    3.4767    0.1623    4.2152 C   0  0  0  0  0  0  0  0  0  0  0  0
    3.6037    1.4893    4.9505 C   0  0  0  0  0  0  0  0  0  0  0  0
    3.9368   -1.0393    4.5118 C   0  0  0  0  0  0  0  0  0  0  0  0
    4.0624   -2.1071    3.3456 C   0  0  1  0  0  0  0  0  0  0  0  0
    5.2449   -2.7912    4.0302 C   0  0  0  0  0  0  0  0  0  0  0  0
    4.8534   -3.5622    5.3889 C   0  0  1  0  0  0  0  0  0  0  0  0
    6.1684   -4.0147    6.0745 C   0  0  0  0  0  0  0  0  0  0  0  0
    3.7805   -3.0437    6.5123 C   0  0  1  0  0  0  0  0  0  0  0  0
    4.4457   -2.3178    7.5306 O   0  0  0  0  0  0  0  0  0  0  0  0
    1.3493   -0.3786    3.3036 C   0  0  1  0  0  0  0  0  0  0  0  0
    0.5513    0.5970    4.1876 C   0  0  0  0  0  0  0  0  0  0  0  0
    0.6454   -0.2362    2.0831 O   0  0  0  0  0  0  0  0  0  0  0  0
    1.1529   -1.8353    3.8402 C   0  0  0  0  0  0  0  0  0  0  0  0
    1.6639   -2.6273    4.8492 C   0  0  0  0  0  0  0  0  0  0  0  0
    1.9291    0.5905    7.9014 H   0  0  0  0  0  0  0  0  0  0  0  0
    3.4291   -0.1390    7.1275 H   0  0  0  0  0  0  0  0  0  0  0  0
   -0.4328   -1.6277    6.6294 H   0  0  0  0  0  0  0  0  0  0  0  0
   -0.0991   -0.4633    7.9178 H   0  0  0  0  0  0  0  0  0  0  0  0
    0.1067   -2.1772    8.2263 H   0  0  0  0  0  0  0  0  0  0  0  0
    2.0419   -5.5813    6.0446 H   0  0  0  0  0  0  0  0  0  0  0  0
    0.3571   -5.0441    5.8518 H   0  0  0  0  0  0  0  0  0  0  0  0
    3.3975   -6.2557    4.2636 H   0  0  0  0  0  0  0  0  0  0  0  0
    3.1868   -6.0843    1.5112 H   0  0  0  0  0  0  0  0  0  0  0  0
    0.0580   -5.3150    3.3853 H   0  0  0  0  0  0  0  0  0  0  0  0
   -1.8529   -6.7489    3.6780 H   0  0  0  0  0  0  0  0  0  0  0  0
   -1.5884   -9.2211    3.6227 H   0  0  0  0  0  0  0  0  0  0  0  0
   -0.1786  -11.1392    3.4682 H   0  0  0  0  0  0  0  0  0  0  0  0
    2.0252  -12.2272    3.2402 H   0  0  0  0  0  0  0  0  0  0  0  0
    4.0901  -10.8175    3.1160 H   0  0  0  0  0  0  0  0  0  0  0  0
    3.9328   -8.4137    3.2625 H   0  0  0  0  0  0  0  0  0  0  0  0
    2.6803   -4.3560    0.9644 H   0  0  0  0  0  0  0  0  0  0  0  0
    5.0560   -2.8165    0.5728 H   0  0  0  0  0  0  0  0  0  0  0  0
    3.8828   -4.1011   -1.2199 H   0  0  0  0  0  0  0  0  0  0  0  0
    4.0606   -2.4210   -1.7202 H   0  0  0  0  0  0  0  0  0  0  0  0
    2.5052   -3.0040   -1.1378 H   0  0  0  0  0  0  0  0  0  0  0  0
    3.9854   -0.5743    0.1033 H   0  0  0  0  0  0  0  0  0  0  0  0
    2.4844   -1.2435    0.6615 H   0  0  0  0  0  0  0  0  0  0  0  0
    5.7843   -0.9851    1.8151 H   0  0  0  0  0  0  0  0  0  0  0  0
    2.8816    1.0326    2.3974 H   0  0  0  0  0  0  0  0  0  0  0  0
    4.0107    2.2310    4.2682 H   0  0  0  0  0  0  0  0  0  0  0  0
    4.2836    1.4098    5.7948 H   0  0  0  0  0  0  0  0  0  0  0  0
    2.6432    1.8625    5.3022 H   0  0  0  0  0  0  0  0  0  0  0  0
    4.5650   -1.0347    5.3797 H   0  0  0  0  0  0  0  0  0  0  0  0
    5.7286   -3.4914    3.3406 H   0  0  0  0  0  0  0  0  0  0  0  0
    5.9757   -2.0416    4.2556 H   0  0  0  0  0  0  0  0  0  0  0  0
    4.4632   -4.5200    5.0692 H   0  0  0  0  0  0  0  0  0  0  0  0
    6.7464   -3.1714    6.4448 H   0  0  0  0  0  0  0  0  0  0  0  0
    6.7922   -4.5587    5.3672 H   0  0  0  0  0  0  0  0  0  0  0  0
    5.9688   -4.6888    6.9120 H   0  0  0  0  0  0  0  0  0  0  0  0
    3.6703   -3.9816    7.0615 H   0  0  0  0  0  0  0  0  0  0  0  0
    4.6444   -1.4654    7.2064 H   0  0  0  0  0  0  0  0  0  0  0  0
    0.8345    0.5500    5.2263 H   0  0  0  0  0  0  0  0  0  0  0  0
   -0.5103    0.3641    4.1426 H   0  0  0  0  0  0  0  0  0  0  0  0
    0.6806    1.6217    3.8353 H   0  0  0  0  0  0  0  0  0  0  0  0
    1.1197   -0.5943    1.3587 H   0  0  0  0  0  0  0  0  0  0  0  0
    0.7818   -2.4231    3.0115 H   0  0  0  0  0  0  0  0  0  0  0  0
  1  2  2  0
  1 43  1  0
  1 44  1  0
  2  3  1  0
  4  2  1  1
  3 45  1  0
  3 46  1  0
  3 47  1  0
  4 36  1  0
  4 42  1  0
  4  5  1  0
  5  6  1  0
  6  7  1  0
  6 48  1  0
  6 49  1  0
  7 42  1  0
  7  8  2  3
  8  9  1  0
  8 21  1  0
  9 10  1  0
  9 11  1  0
  9 50  1  1
 10 51  1  0
 11 20  1  0
 11 12  2  0
 12 13  1  0
 12 52  1  0
 13 14  2  0
 13 53  1  0
 14 15  1  0
 14 54  1  0
 15 20  2  0
 15 16  1  0
 16 17  2  0
 16 55  1  0
 17 18  1  0
 17 56  1  0
 18 19  2  0
 18 57  1  0
 19 20  1  0
 19 58  1  0
 21 32  1  0
 21 22  2  0
 22 23  1  0
 22 59  1  0
 23 24  1  0
 23 25  1  0
 23 60  1  6
 24 61  1  0
 24 62  1  0
 24 63  1  0
 25 26  1  0
 25 64  1  0
 25 65  1  0
 26 32  1  0
 26 27  1  6
 26 28  1  0
 27 66  1  0
 28 29  1  0
 28 38  1  0
 28 67  1  6
 29 30  1  0
 29 31  2  0
 30 68  1  0
 30 69  1  0
 30 70  1  0
 31 32  1  0
 31 71  1  0
 32 33  1  6
 33 34  1  0
 33 72  1  0
 33 73  1  0
 34 35  1  0
 34 36  1  0
 34 74  1  6
 35 75  1  0
 35 76  1  0
 35 77  1  0
 36 37  1  0
 36 78  1  1
 37 79  1  0
 38 39  1  0
 38 40  1  6
 38 41  1  0
 39 80  1  0
 39 81  1  0
 39 82  1  0
 40 83  1  0
 41 42  2  3
 41 84  1  0
M  END
>  <i_m_ct_stereo_status>  (310) 
1

>  <s_m_source_file>  (310) 
/var/tmp/pbs.5076255.sched01/tmppy4q9rbr/123plv7d954.sdf

>  <i_m_source_file_index>  (310) 
16

>  <i_lp_mmshare_version>  (310) 
48012

>  <i_f3d_flags>  (310) 
2

>  <s_epik_input>  (310) 
QzEyM0M0PVtDSF1bQ0BASF0oW0NIM10pW0NIMl1bQ0BAXTEoW09IXSlbQ0BASF0oQyhbQ0gzXSk9W0NIXTIpW0NAQF0oW0NIM10pKFtPSF0pL1tDSF09QzUvW0NAXShDKD1bQ0gyXSlbQ0gzXSkoW0NASF0oW09IXSlbQ0BASF0oW0NIMl0zKVtDSDNdKU9bQ0gyXS9DNT1DNFxbQ0BIXShbT0hdKWMoW2NIXVtjSF1bY0hdNiljKGM2NylbY0hdW2NIXVtjSF1bY0hdNw==

>  <s_epik_cmdline>  (310) 
J2VwaWtfcHl0aG9uJywgJy1waHQnLCAnMi4wJywgJy1waCcsICc3LjAnLCAnLXRuJywgJzgnLCAnLW1hJywgJzIwMCcsICctaW1hZScsICc8aW5maWxlLm1hZT4nLCAnLW9tYWUnLCAnPG91dGZpbGUubWFlPic=

>  <r_lp_tautomer_probability>  (310) 
1

>  <r_epik_Ionization_Penalty>  (310) 
1.31135e-05

>  <r_epik_Ionization_Penalty_Charging>  (310) 
0

>  <r_epik_Ionization_Penalty_Neutral>  (310) 
1.31135e-05

>  <r_epik_State_Penalty>  (310) 
-0

>  <r_epik_Charging_Adjusted_Penalty>  (310) 
0

>  <i_epik_Tot_Q>  (310) 
0

>  <i_epik_Tot_abs_Q>  (310) 
0

>  <s_lp_Force_Field>  (310) 
OPLS3e

>  <r_lp_Energy>  (310) 
228.298

>  <b_lp_Chiralities_Consistent>  (310) 
0

>  <s_lp_Variant>  (310) 
103:0-3

>  <s_i_glide_gridfile>  (310) 
pfpi4k_grid

>  <i_i_glide_lignum>  (310) 
16

>  <i_i_glide_rotatable_bonds>  (310) 
7

>  <r_i_docking_score>  (310) 
-2.15663

>  <r_i_glide_ligand_efficiency>  (310) 
-0.0513483

>  <r_i_glide_ligand_efficiency_sa>  (310) 
-0.178488

>  <r_i_glide_ligand_efficiency_ln>  (310) 
-0.455208

>  <r_i_glide_gscore>  (310) 
-2.15663

>  <r_i_glide_lipo>  (310) 
-0.25609

>  <r_i_glide_hbond>  (310) 
-0.166884

>  <r_i_glide_metal>  (310) 
-0

>  <r_i_glide_rewards>  (310) 
0

>  <r_i_glide_evdw>  (310) 
-28.0232

>  <r_i_glide_ecoul>  (310) 
-2.93656

>  <r_i_glide_erotb>  (310) 
0.10799

>  <r_i_glide_esite>  (310) 
0

>  <r_i_glide_emodel>  (310) 
-31.1725

>  <r_i_glide_energy>  (310) 
-30.9597

>  <r_i_glide_einternal>  (310) 
6.02454

>  <r_i_glide_intrahb_reward>  (310) 
-0

>  <i_i_glide_confnum>  (310) 
5

>  <i_i_glide_posenum>  (310) 
35

>  <r_i_glide_eff_state_penalty>  (310) 
0

>  <ligand_id>  (310) 
103

>  <original_smiles>  (310) 
C=C(C)C12OCC3=C(C(O)c4cccc5ccccc45)C4=CC(C)CC5(O)C(C(C)=CC45CC(C)C1O)C(C)(O)C=C32

>  <smiles>  (310) 
[H]OC([H])(C1=C2C3=C([H])C(O[H])(C([H])([H])[H])C4([H])C(C([H])([H])[H])=C([H])C5(C1=C([H])C([H])(C([H])([H])[H])C([H])([H])C45O[H])C([H])([H])C([H])(C([H])([H])[H])C([H])(O[H])C3(C(=C([H])[H])C([H])([H])[H])OC2([H])[H])c1c([H])c([H])c([H])c2c([H])c([H])c([H])c([H])c12

$$$$
103:2:1
     RDKit          3D

 84 90  0  0  1  0  0  0  0  0999 V2000
    2.0587    1.2027    7.1732 C   0  0  0  0  0  0  0  0  0  0  0  0
    1.3586    0.0518    7.1397 C   0  0  0  0  0  0  0  0  0  0  0  0
   -0.0870    0.0989    7.6176 C   0  0  0  0  0  0  0  0  0  0  0  0
    1.8928   -1.3326    6.7060 C   0  0  2  0  0  0  0  0  0  0  0  0
    1.1971   -2.3083    7.5238 O   0  0  0  0  0  0  0  0  0  0  0  0
    1.0390   -3.5412    6.7972 C   0  0  0  0  0  0  0  0  0  0  0  0
    1.4429   -3.1347    5.4097 C   0  0  0  0  0  0  0  0  0  0  0  0
    2.2541   -3.7775    4.5154 C   0  0  0  0  0  0  0  0  0  0  0  0
    2.5207   -5.2805    4.6801 C   0  0  2  0  0  0  0  0  0  0  0  0
    3.9087   -5.5730    4.5577 O   0  0  0  0  0  0  0  0  0  0  0  0
    1.6157   -6.2428    3.8791 C   0  0  0  0  0  0  0  0  0  0  0  0
    1.0072   -5.8170    2.6662 C   0  0  0  0  0  0  0  0  0  0  0  0
    0.3208   -6.7053    1.8436 C   0  0  0  0  0  0  0  0  0  0  0  0
    0.0467   -8.0127    2.2837 C   0  0  0  0  0  0  0  0  0  0  0  0
    0.5472   -8.4406    3.5329 C   0  0  0  0  0  0  0  0  0  0  0  0
    0.2176   -9.7347    3.9704 C   0  0  0  0  0  0  0  0  0  0  0  0
    0.6911  -10.2053    5.2036 C   0  0  0  0  0  0  0  0  0  0  0  0
    1.4974   -9.3888    6.0045 C   0  0  0  0  0  0  0  0  0  0  0  0
    1.8448   -8.0905    5.5728 C   0  0  0  0  0  0  0  0  0  0  0  0
    1.3595   -7.5797    4.3324 C   0  0  0  0  0  0  0  0  0  0  0  0
    3.0266   -2.9514    3.5334 C   0  0  0  0  0  0  0  0  0  0  0  0
    3.2366   -3.5335    2.3293 C   0  0  0  0  0  0  0  0  0  0  0  0
    3.7910   -2.8576    1.1122 C   0  0  1  0  0  0  0  0  0  0  0  0
    3.3507   -3.5701   -0.1911 C   0  0  0  0  0  0  0  0  0  0  0  0
    3.3086   -1.4002    1.1175 C   0  0  0  0  0  0  0  0  0  0  0  0
    3.6499   -0.7010    2.4541 C   0  0  1  0  0  0  0  0  0  0  0  0
    4.9533   -0.1918    2.1987 O   0  0  0  0  0  0  0  0  0  0  0  0
    2.5613    0.4266    2.8209 C   0  0  2  0  0  0  0  0  0  0  0  0
    3.1782    0.8518    4.0634 C   0  0  0  0  0  0  0  0  0  0  0  0
    3.3056    2.3130    4.4621 C   0  0  0  0  0  0  0  0  0  0  0  0
    3.6441   -0.2360    4.6548 C   0  0  0  0  0  0  0  0  0  0  0  0
    3.7932   -1.5483    3.7883 C   0  0  1  0  0  0  0  0  0  0  0  0
    4.9994   -2.0431    4.6257 C   0  0  0  0  0  0  0  0  0  0  0  0
    4.5728   -2.4951    6.1167 C   0  0  1  0  0  0  0  0  0  0  0  0
    5.8752   -2.7774    6.8939 C   0  0  0  0  0  0  0  0  0  0  0  0
    3.4680   -1.7459    7.0612 C   0  0  1  0  0  0  0  0  0  0  0  0
    4.1254   -0.7759    7.8598 O   0  0  0  0  0  0  0  0  0  0  0  0
    1.0659    0.0730    3.2875 C   0  0  1  0  0  0  0  0  0  0  0  0
    0.2586    1.2401    3.8983 C   0  0  0  0  0  0  0  0  0  0  0  0
    0.3796   -0.1030    2.0728 O   0  0  0  0  0  0  0  0  0  0  0  0
    0.8860   -1.2155    4.1304 C   0  0  0  0  0  0  0  0  0  0  0  0
    1.3094   -1.7467    5.3350 C   0  0  0  0  0  0  0  0  0  0  0  0
    1.6068    2.1357    7.4881 H   0  0  0  0  0  0  0  0  0  0  0  0
    3.0898    1.2359    6.8869 H   0  0  0  0  0  0  0  0  0  0  0  0
   -0.7547   -0.3288    6.8662 H   0  0  0  0  0  0  0  0  0  0  0  0
   -0.4215    1.1231    7.8199 H   0  0  0  0  0  0  0  0  0  0  0  0
   -0.1915   -0.4597    8.5503 H   0  0  0  0  0  0  0  0  0  0  0  0
    1.6935   -4.2708    7.2738 H   0  0  0  0  0  0  0  0  0  0  0  0
    0.0016   -3.8946    6.8305 H   0  0  0  0  0  0  0  0  0  0  0  0
    2.3477   -5.4960    5.7300 H   0  0  0  0  0  0  0  0  0  0  0  0
    4.1736   -5.4773    3.6573 H   0  0  0  0  0  0  0  0  0  0  0  0
    1.1036   -4.7944    2.3258 H   0  0  0  0  0  0  0  0  0  0  0  0
   -0.0405   -6.3750    0.8904 H   0  0  0  0  0  0  0  0  0  0  0  0
   -0.5810   -8.6640    1.6724 H   0  0  0  0  0  0  0  0  0  0  0  0
   -0.4131  -10.3581    3.3500 H   0  0  0  0  0  0  0  0  0  0  0  0
    0.4298  -11.1899    5.5251 H   0  0  0  0  0  0  0  0  0  0  0  0
    1.8560   -9.7538    6.9503 H   0  0  0  0  0  0  0  0  0  0  0  0
    2.4728   -7.5035    6.2354 H   0  0  0  0  0  0  0  0  0  0  0  0
    2.9239   -4.5317    2.0997 H   0  0  0  0  0  0  0  0  0  0  0  0
    4.8802   -2.9065    1.1998 H   0  0  0  0  0  0  0  0  0  0  0  0
    3.6432   -4.6147   -0.1815 H   0  0  0  0  0  0  0  0  0  0  0  0
    3.8210   -3.1250   -1.0703 H   0  0  0  0  0  0  0  0  0  0  0  0
    2.2750   -3.5386   -0.3583 H   0  0  0  0  0  0  0  0  0  0  0  0
    3.7350   -0.8593    0.2480 H   0  0  0  0  0  0  0  0  0  0  0  0
    2.2263   -1.3995    0.9386 H   0  0  0  0  0  0  0  0  0  0  0  0
    4.9503    0.1490    1.3207 H   0  0  0  0  0  0  0  0  0  0  0  0
    2.5739    1.2231    2.0862 H   0  0  0  0  0  0  0  0  0  0  0  0
    3.7264    2.8915    3.6485 H   0  0  0  0  0  0  0  0  0  0  0  0
    3.9799    2.4560    5.3041 H   0  0  0  0  0  0  0  0  0  0  0  0
    2.3514    2.7694    4.7049 H   0  0  0  0  0  0  0  0  0  0  0  0
    4.2402   -0.0449    5.5360 H   0  0  0  0  0  0  0  0  0  0  0  0
    5.4576   -2.8964    4.1145 H   0  0  0  0  0  0  0  0  0  0  0  0
    5.7976   -1.2994    4.6627 H   0  0  0  0  0  0  0  0  0  0  0  0
    4.1897   -3.5020    6.0251 H   0  0  0  0  0  0  0  0  0  0  0  0
    6.4545   -1.8701    7.0528 H   0  0  0  0  0  0  0  0  0  0  0  0
    6.5155   -3.4686    6.3456 H   0  0  0  0  0  0  0  0  0  0  0  0
    5.6801   -3.2356    7.8640 H   0  0  0  0  0  0  0  0  0  0  0  0
    3.3406   -2.5122    7.8304 H   0  0  0  0  0  0  0  0  0  0  0  0
    4.8586   -1.2073    8.2693 H   0  0  0  0  0  0  0  0  0  0  0  0
    0.5342    1.4530    4.9255 H   0  0  0  0  0  0  0  0  0  0  0  0
   -0.8155    1.0446    3.9135 H   0  0  0  0  0  0  0  0  0  0  0  0
    0.4039    2.1573    3.3267 H   0  0  0  0  0  0  0  0  0  0  0  0
    0.9879   -0.2439    1.3652 H   0  0  0  0  0  0  0  0  0  0  0  0
    0.5018   -1.9822    3.4838 H   0  0  0  0  0  0  0  0  0  0  0  0
  1  2  2  0
  1 43  1  0
  1 44  1  0
  2  3  1  0
  4  2  1  1
  3 45  1  0
  3 46  1  0
  3 47  1  0
  4 36  1  0
  4 42  1  0
  4  5  1  0
  5  6  1  0
  6  7  1  0
  6 48  1  0
  6 49  1  0
  7 42  1  0
  7  8  2  3
  8  9  1  0
  8 21  1  0
  9 10  1  0
  9 11  1  0
  9 50  1  1
 10 51  1  0
 11 20  1  0
 11 12  2  0
 12 13  1  0
 12 52  1  0
 13 14  2  0
 13 53  1  0
 14 15  1  0
 14 54  1  0
 15 20  2  0
 15 16  1  0
 16 17  2  0
 16 55  1  0
 17 18  1  0
 17 56  1  0
 18 19  2  0
 18 57  1  0
 19 20  1  0
 19 58  1  0
 21 32  1  0
 21 22  2  0
 22 23  1  0
 22 59  1  0
 23 24  1  0
 23 25  1  0
 23 60  1  1
 24 61  1  0
 24 62  1  0
 24 63  1  0
 25 26  1  0
 25 64  1  0
 25 65  1  0
 26 32  1  0
 26 27  1  6
 26 28  1  0
 27 66  1  0
 28 29  1  0
 28 38  1  0
 28 67  1  6
 29 30  1  0
 29 31  2  0
 30 68  1  0
 30 69  1  0
 30 70  1  0
 31 32  1  0
 31 71  1  0
 32 33  1  6
 33 34  1  0
 33 72  1  0
 33 73  1  0
 34 35  1  0
 34 36  1  0
 34 74  1  6
 35 75  1  0
 35 76  1  0
 35 77  1  0
 36 37  1  0
 36 78  1  1
 37 79  1  0
 38 39  1  0
 38 40  1  6
 38 41  1  0
 39 80  1  0
 39 81  1  0
 39 82  1  0
 40 83  1  0
 41 42  2  3
 41 84  1  0
M  END
>  <i_m_ct_stereo_status>  (311) 
1

>  <s_m_source_file>  (311) 
/var/tmp/pbs.5076255.sched01/tmppy4q9rbr/123plv7d954.sdf

>  <i_m_source_file_index>  (311) 
16

>  <i_lp_mmshare_version>  (311) 
48012

>  <i_f3d_flags>  (311) 
2

>  <s_epik_input>  (311) 
QzEyM0M0PVtDSF1bQ0BASF0oW0NIM10pW0NIMl1bQ0BAXTEoW09IXSlbQ0BASF0oQyhbQ0gzXSk9W0NIXTIpW0NAQF0oW0NIM10pKFtPSF0pL1tDSF09QzUvW0NAXShDKD1bQ0gyXSlbQ0gzXSkoW0NASF0oW09IXSlbQ0BASF0oW0NIMl0zKVtDSDNdKU9bQ0gyXS9DNT1DNFxbQ0BIXShbT0hdKWMoW2NIXVtjSF1bY0hdNiljKGM2NylbY0hdW2NIXVtjSF1bY0hdNw==

>  <s_epik_cmdline>  (311) 
J2VwaWtfcHl0aG9uJywgJy1waHQnLCAnMi4wJywgJy1waCcsICc3LjAnLCAnLXRuJywgJzgnLCAnLW1hJywgJzIwMCcsICctaW1hZScsICc8aW5maWxlLm1hZT4nLCAnLW9tYWUnLCAnPG91dGZpbGUubWFlPic=

>  <r_lp_tautomer_probability>  (311) 
1

>  <r_epik_Ionization_Penalty>  (311) 
1.31135e-05

>  <r_epik_Ionization_Penalty_Charging>  (311) 
0

>  <r_epik_Ionization_Penalty_Neutral>  (311) 
1.31135e-05

>  <r_epik_State_Penalty>  (311) 
-0

>  <r_epik_Charging_Adjusted_Penalty>  (311) 
0

>  <i_epik_Tot_Q>  (311) 
0

>  <i_epik_Tot_abs_Q>  (311) 
0

>  <s_lp_Force_Field>  (311) 
OPLS3e

>  <r_lp_Energy>  (311) 
228.298

>  <b_lp_Chiralities_Consistent>  (311) 
0

>  <s_lp_Variant>  (311) 
103:0-3

>  <s_i_glide_gridfile>  (311) 
pfpi4k_grid

>  <i_i_glide_lignum>  (311) 
16

>  <i_i_glide_rotatable_bonds>  (311) 
7

>  <r_i_docking_score>  (311) 
-1.81835

>  <r_i_glide_ligand_efficiency>  (311) 
-0.0432941

>  <r_i_glide_ligand_efficiency_sa>  (311) 
-0.150491

>  <r_i_glide_ligand_efficiency_ln>  (311) 
-0.383807

>  <r_i_glide_gscore>  (311) 
-1.81835

>  <r_i_glide_lipo>  (311) 
-0.0758311

>  <r_i_glide_hbond>  (311) 
-0.143988

>  <r_i_glide_metal>  (311) 
-0

>  <r_i_glide_rewards>  (311) 
0

>  <r_i_glide_evdw>  (311) 
-26.9626

>  <r_i_glide_ecoul>  (311) 
-2.38929

>  <r_i_glide_erotb>  (311) 
0.10799

>  <r_i_glide_esite>  (311) 
0

>  <r_i_glide_emodel>  (311) 
-30.3441

>  <r_i_glide_energy>  (311) 
-29.3519

>  <r_i_glide_einternal>  (311) 
2.21994

>  <r_i_glide_intrahb_reward>  (311) 
-0

>  <i_i_glide_confnum>  (311) 
5

>  <i_i_glide_posenum>  (311) 
23

>  <r_i_glide_eff_state_penalty>  (311) 
0

>  <ligand_id>  (311) 
103

>  <original_smiles>  (311) 
C=C(C)C12OCC3=C(C(O)c4cccc5ccccc45)C4=CC(C)CC5(O)C(C(C)=CC45CC(C)C1O)C(C)(O)C=C32

>  <smiles>  (311) 
[H]OC([H])(C1=C2C3=C([H])C(O[H])(C([H])([H])[H])C4([H])C(C([H])([H])[H])=C([H])C5(C1=C([H])C([H])(C([H])([H])[H])C([H])([H])C45O[H])C([H])([H])C([H])(C([H])([H])[H])C([H])(O[H])C3(C(=C([H])[H])C([H])([H])[H])OC2([H])[H])c1c([H])c([H])c([H])c2c([H])c([H])c([H])c([H])c12

$$$$
103:2:2
     RDKit          3D

 84 90  0  0  1  0  0  0  0  0999 V2000
    5.2121   -1.9402    6.7112 C   0  0  0  0  0  0  0  0  0  0  0  0
    4.2249   -2.8428    6.5823 C   0  0  0  0  0  0  0  0  0  0  0  0
    3.0868   -2.7995    7.5905 C   0  0  0  0  0  0  0  0  0  0  0  0
    4.1373   -3.9772    5.5218 C   0  0  2  0  0  0  0  0  0  0  0  0
    3.5474   -5.1259    6.1787 O   0  0  0  0  0  0  0  0  0  0  0  0
    2.7784   -5.8936    5.2392 C   0  0  0  0  0  0  0  0  0  0  0  0
    2.7309   -4.9885    4.0388 C   0  0  0  0  0  0  0  0  0  0  0  0
    2.9351   -5.2924    2.7448 C   0  0  0  0  0  0  0  0  0  0  0  0
    2.8905   -6.7792    2.3020 C   0  0  2  0  0  0  0  0  0  0  0  0
    3.0741   -6.9977    0.9083 O   0  0  0  0  0  0  0  0  0  0  0  0
    1.6775   -7.5653    2.7980 C   0  0  0  0  0  0  0  0  0  0  0  0
    0.4207   -6.9110    2.8358 C   0  0  0  0  0  0  0  0  0  0  0  0
   -0.7286   -7.5797    3.3003 C   0  0  0  0  0  0  0  0  0  0  0  0
   -0.6232   -8.9178    3.7055 C   0  0  0  0  0  0  0  0  0  0  0  0
    0.6175   -9.5883    3.6723 C   0  0  0  0  0  0  0  0  0  0  0  0
    0.6891  -10.9234    4.1150 C   0  0  0  0  0  0  0  0  0  0  0  0
    1.9083  -11.6180    4.0960 C   0  0  0  0  0  0  0  0  0  0  0  0
    3.0585  -10.9866    3.6002 C   0  0  0  0  0  0  0  0  0  0  0  0
    2.9993   -9.6573    3.1556 C   0  0  0  0  0  0  0  0  0  0  0  0
    1.7801   -8.9236    3.2042 C   0  0  0  0  0  0  0  0  0  0  0  0
    3.5076   -4.2213    1.8621 C   0  0  0  0  0  0  0  0  0  0  0  0
    2.9720   -4.1694    0.6290 C   0  0  0  0  0  0  0  0  0  0  0  0
    3.3741   -3.2153   -0.4562 C   0  0  1  0  0  0  0  0  0  0  0  0
    2.3563   -3.2548   -1.6099 C   0  0  0  0  0  0  0  0  0  0  0  0
    3.4265   -1.8608    0.2066 C   0  0  0  0  0  0  0  0  0  0  0  0
    4.3973   -1.8376    1.4032 C   0  0  1  0  0  0  0  0  0  0  0  0
    5.6221   -1.3263    0.8622 O   0  0  0  0  0  0  0  0  0  0  0  0
    3.8721   -0.8490    2.5548 C   0  0  2  0  0  0  0  0  0  0  0  0
    4.9688   -1.0807    3.4717 C   0  0  0  0  0  0  0  0  0  0  0  0
    5.6434    0.0515    4.2368 C   0  0  0  0  0  0  0  0  0  0  0  0
    5.2729   -2.3697    3.3757 C   0  0  0  0  0  0  0  0  0  0  0  0
    4.7301   -3.1981    2.1581 C   0  0  1  0  0  0  0  0  0  0  0  0
    5.9460   -4.1464    2.1486 C   0  0  0  0  0  0  0  0  0  0  0  0
    5.9821   -5.0961    3.4595 C   0  0  1  0  0  0  0  0  0  0  0  0
    7.3180   -5.8720    3.4460 C   0  0  0  0  0  0  0  0  0  0  0  0
    5.5348   -4.6897    4.9891 C   0  0  1  0  0  0  0  0  0  0  0  0
    6.6444   -4.2800    5.7565 O   0  0  0  0  0  0  0  0  0  0  0  0
    2.6033   -1.1674    3.4904 C   0  0  1  0  0  0  0  0  0  0  0  0
    2.4406   -0.2827    4.7390 C   0  0  0  0  0  0  0  0  0  0  0  0
    1.4882   -0.7461    2.7258 O   0  0  0  0  0  0  0  0  0  0  0  0
    2.3639   -2.6503    3.8659 C   0  0  0  0  0  0  0  0  0  0  0  0
    3.0174   -3.6863    4.4964 C   0  0  0  0  0  0  0  0  0  0  0  0
    5.1842   -1.1780    7.4800 H   0  0  0  0  0  0  0  0  0  0  0  0
    6.0631   -1.9270    6.0578 H   0  0  0  0  0  0  0  0  0  0  0  0
    2.1169   -2.7648    7.0977 H   0  0  0  0  0  0  0  0  0  0  0  0
    3.1663   -1.9290    8.2422 H   0  0  0  0  0  0  0  0  0  0  0  0
    3.1202   -3.6801    8.2318 H   0  0  0  0  0  0  0  0  0  0  0  0
    3.2960   -6.8304    5.0225 H   0  0  0  0  0  0  0  0  0  0  0  0
    1.7794   -6.1108    5.6238 H   0  0  0  0  0  0  0  0  0  0  0  0
    3.8050   -7.1602    2.7527 H   0  0  0  0  0  0  0  0  0  0  0  0
    3.4117   -7.8799    0.7951 H   0  0  0  0  0  0  0  0  0  0  0  0
    0.3551   -5.8800    2.5146 H   0  0  0  0  0  0  0  0  0  0  0  0
   -1.6931   -7.0912    3.3702 H   0  0  0  0  0  0  0  0  0  0  0  0
   -1.4959   -9.4410    4.0561 H   0  0  0  0  0  0  0  0  0  0  0  0
   -0.1896  -11.4305    4.4860 H   0  0  0  0  0  0  0  0  0  0  0  0
    1.9563  -12.6369    4.4518 H   0  0  0  0  0  0  0  0  0  0  0  0
    4.0030  -11.5118    3.5610 H   0  0  0  0  0  0  0  0  0  0  0  0
    3.9235   -9.2528    2.7873 H   0  0  0  0  0  0  0  0  0  0  0  0
    2.1302   -4.7820    0.3554 H   0  0  0  0  0  0  0  0  0  0  0  0
    4.3582   -3.4963   -0.8294 H   0  0  0  0  0  0  0  0  0  0  0  0
    2.3127   -4.2335   -2.0938 H   0  0  0  0  0  0  0  0  0  0  0  0
    2.5841   -2.5373   -2.3931 H   0  0  0  0  0  0  0  0  0  0  0  0
    1.3364   -3.0486   -1.2708 H   0  0  0  0  0  0  0  0  0  0  0  0
    3.6423   -1.0864   -0.5290 H   0  0  0  0  0  0  0  0  0  0  0  0
    2.4147   -1.6646    0.5556 H   0  0  0  0  0  0  0  0  0  0  0  0
    5.4056   -0.5776    0.3305 H   0  0  0  0  0  0  0  0  0  0  0  0
    3.8751    0.1895    2.2058 H   0  0  0  0  0  0  0  0  0  0  0  0
    5.8983    0.8562    3.5550 H   0  0  0  0  0  0  0  0  0  0  0  0
    6.5779   -0.2496    4.6937 H   0  0  0  0  0  0  0  0  0  0  0  0
    5.0115    0.4867    5.0039 H   0  0  0  0  0  0  0  0  0  0  0  0
    6.1577   -2.6473    3.8984 H   0  0  0  0  0  0  0  0  0  0  0  0
    5.9213   -4.7623    1.2481 H   0  0  0  0  0  0  0  0  0  0  0  0
    6.8734   -3.5742    2.0775 H   0  0  0  0  0  0  0  0  0  0  0  0
    5.3045   -5.8934    3.2231 H   0  0  0  0  0  0  0  0  0  0  0  0
    8.1979   -5.2632    3.6110 H   0  0  0  0  0  0  0  0  0  0  0  0
    7.4836   -6.3426    2.4737 H   0  0  0  0  0  0  0  0  0  0  0  0
    7.3422   -6.6562    4.2083 H   0  0  0  0  0  0  0  0  0  0  0  0
    5.4743   -5.6879    5.4214 H   0  0  0  0  0  0  0  0  0  0  0  0
    6.8760   -3.4073    5.4858 H   0  0  0  0  0  0  0  0  0  0  0  0
    3.1116   -0.5613    5.5454 H   0  0  0  0  0  0  0  0  0  0  0  0
    1.4359   -0.3543    5.1571 H   0  0  0  0  0  0  0  0  0  0  0  0
    2.6228    0.7624    4.5060 H   0  0  0  0  0  0  0  0  0  0  0  0
    1.6281   -0.9565    1.8135 H   0  0  0  0  0  0  0  0  0  0  0  0
    1.5703   -3.0244    3.2460 H   0  0  0  0  0  0  0  0  0  0  0  0
  1  2  2  0
  1 43  1  0
  1 44  1  0
  2  3  1  0
  4  2  1  1
  3 45  1  0
  3 46  1  0
  3 47  1  0
  4 36  1  0
  4 42  1  0
  4  5  1  0
  5  6  1  0
  6  7  1  0
  6 48  1  0
  6 49  1  0
  7 42  1  0
  7  8  2  3
  8  9  1  0
  8 21  1  0
  9 10  1  0
  9 11  1  0
  9 50  1  1
 10 51  1  0
 11 20  1  0
 11 12  2  0
 12 13  1  0
 12 52  1  0
 13 14  2  0
 13 53  1  0
 14 15  1  0
 14 54  1  0
 15 20  2  0
 15 16  1  0
 16 17  2  0
 16 55  1  0
 17 18  1  0
 17 56  1  0
 18 19  2  0
 18 57  1  0
 19 20  1  0
 19 58  1  0
 21 32  1  0
 21 22  2  0
 22 23  1  0
 22 59  1  0
 23 24  1  0
 23 25  1  0
 23 60  1  6
 24 61  1  0
 24 62  1  0
 24 63  1  0
 25 26  1  0
 25 64  1  0
 25 65  1  0
 26 32  1  0
 26 27  1  6
 26 28  1  0
 27 66  1  0
 28 29  1  0
 28 38  1  0
 28 67  1  6
 29 30  1  0
 29 31  2  0
 30 68  1  0
 30 69  1  0
 30 70  1  0
 31 32  1  0
 31 71  1  0
 32 33  1  6
 33 34  1  0
 33 72  1  0
 33 73  1  0
 34 35  1  0
 34 36  1  0
 34 74  1  6
 35 75  1  0
 35 76  1  0
 35 77  1  0
 36 37  1  0
 36 78  1  1
 37 79  1  0
 38 39  1  0
 38 40  1  6
 38 41  1  0
 39 80  1  0
 39 81  1  0
 39 82  1  0
 40 83  1  0
 41 42  2  3
 41 84  1  0
M  END
>  <i_m_ct_stereo_status>  (312) 
1

>  <s_m_source_file>  (312) 
/var/tmp/pbs.5076255.sched01/tmppy4q9rbr/123plv7d954.sdf

>  <i_m_source_file_index>  (312) 
16

>  <i_lp_mmshare_version>  (312) 
48012

>  <i_f3d_flags>  (312) 
2

>  <s_epik_input>  (312) 
QzEyM0M0PVtDSF1bQ0BASF0oW0NIM10pW0NIMl1bQ0BAXTEoW09IXSlbQ0BASF0oQyhbQ0gzXSk9W0NIXTIpW0NAQF0oW0NIM10pKFtPSF0pL1tDSF09QzUvW0NAXShDKD1bQ0gyXSlbQ0gzXSkoW0NASF0oW09IXSlbQ0BASF0oW0NIMl0zKVtDSDNdKU9bQ0gyXS9DNT1DNFxbQ0BIXShbT0hdKWMoW2NIXVtjSF1bY0hdNiljKGM2NylbY0hdW2NIXVtjSF1bY0hdNw==

>  <s_epik_cmdline>  (312) 
J2VwaWtfcHl0aG9uJywgJy1waHQnLCAnMi4wJywgJy1waCcsICc3LjAnLCAnLXRuJywgJzgnLCAnLW1hJywgJzIwMCcsICctaW1hZScsICc8aW5maWxlLm1hZT4nLCAnLW9tYWUnLCAnPG91dGZpbGUubWFlPic=

>  <r_lp_tautomer_probability>  (312) 
1

>  <r_epik_Ionization_Penalty>  (312) 
1.31135e-05

>  <r_epik_Ionization_Penalty_Charging>  (312) 
0

>  <r_epik_Ionization_Penalty_Neutral>  (312) 
1.31135e-05

>  <r_epik_State_Penalty>  (312) 
-0

>  <r_epik_Charging_Adjusted_Penalty>  (312) 
0

>  <i_epik_Tot_Q>  (312) 
0

>  <i_epik_Tot_abs_Q>  (312) 
0

>  <s_lp_Force_Field>  (312) 
OPLS3e

>  <r_lp_Energy>  (312) 
228.298

>  <b_lp_Chiralities_Consistent>  (312) 
0

>  <s_lp_Variant>  (312) 
103:0-3

>  <s_i_glide_gridfile>  (312) 
pfpi4k_grid

>  <i_i_glide_lignum>  (312) 
16

>  <i_i_glide_rotatable_bonds>  (312) 
7

>  <r_i_docking_score>  (312) 
-1.57636

>  <r_i_glide_ligand_efficiency>  (312) 
-0.0375325

>  <r_i_glide_ligand_efficiency_sa>  (312) 
-0.130464

>  <r_i_glide_ligand_efficiency_ln>  (312) 
-0.33273

>  <r_i_glide_gscore>  (312) 
-1.57636

>  <r_i_glide_lipo>  (312) 
-0.476916

>  <r_i_glide_hbond>  (312) 
0

>  <r_i_glide_metal>  (312) 
-0

>  <r_i_glide_rewards>  (312) 
0

>  <r_i_glide_evdw>  (312) 
-22.7699

>  <r_i_glide_ecoul>  (312) 
-0.459612

>  <r_i_glide_erotb>  (312) 
0.10799

>  <r_i_glide_esite>  (312) 
0

>  <r_i_glide_emodel>  (312) 
-21.7655

>  <r_i_glide_energy>  (312) 
-23.2295

>  <r_i_glide_einternal>  (312) 
7.68168

>  <r_i_glide_intrahb_reward>  (312) 
-0

>  <i_i_glide_confnum>  (312) 
6

>  <i_i_glide_posenum>  (312) 
21

>  <r_i_glide_eff_state_penalty>  (312) 
0

>  <ligand_id>  (312) 
103

>  <original_smiles>  (312) 
C=C(C)C12OCC3=C(C(O)c4cccc5ccccc45)C4=CC(C)CC5(O)C(C(C)=CC45CC(C)C1O)C(C)(O)C=C32

>  <smiles>  (312) 
[H]OC([H])(C1=C2C3=C([H])C(O[H])(C([H])([H])[H])C4([H])C(C([H])([H])[H])=C([H])C5(C1=C([H])C([H])(C([H])([H])[H])C([H])([H])C45O[H])C([H])([H])C([H])(C([H])([H])[H])C([H])(O[H])C3(C(=C([H])[H])C([H])([H])[H])OC2([H])[H])c1c([H])c([H])c([H])c2c([H])c([H])c([H])c([H])c12

$$$$
103:4:0
     RDKit          3D

 84 90  0  0  1  0  0  0  0  0999 V2000
   -0.2062   -7.8630    2.2435 C   0  0  0  0  0  0  0  0  0  0  0  0
    0.6299   -7.7891    3.3023 C   0  0  0  0  0  0  0  0  0  0  0  0
    0.7629   -6.3744    3.8307 C   0  0  0  0  0  0  0  0  0  0  0  0
    1.3676   -9.0891    3.9018 C   0  0  2  0  0  0  0  0  0  0  0  0
    1.5807   -9.8791    2.7252 O   0  0  0  0  0  0  0  0  0  0  0  0
    2.7168   -9.1913    2.0504 C   0  0  0  0  0  0  0  0  0  0  0  0
    3.4214   -8.4185    3.1871 C   0  0  0  0  0  0  0  0  0  0  0  0
    4.0181   -7.1612    3.3188 C   0  0  0  0  0  0  0  0  0  0  0  0
    4.2188   -6.2414    2.0940 C   0  0  2  0  0  0  0  0  0  0  0  0
    3.4068   -6.5566    0.9756 O   0  0  0  0  0  0  0  0  0  0  0  0
    5.6625   -6.0547    1.6180 C   0  0  0  0  0  0  0  0  0  0  0  0
    6.4949   -7.1996    1.6256 C   0  0  0  0  0  0  0  0  0  0  0  0
    7.8514   -7.0951    1.2760 C   0  0  0  0  0  0  0  0  0  0  0  0
    8.3875   -5.8515    0.8938 C   0  0  0  0  0  0  0  0  0  0  0  0
    7.5710   -4.7077    0.8433 C   0  0  0  0  0  0  0  0  0  0  0  0
    8.1419   -3.4832    0.4467 C   0  0  0  0  0  0  0  0  0  0  0  0
    7.3479   -2.3170    0.3861 C   0  0  0  0  0  0  0  0  0  0  0  0
    5.9815   -2.3888    0.7197 C   0  0  0  0  0  0  0  0  0  0  0  0
    5.4104   -3.6190    1.1197 C   0  0  0  0  0  0  0  0  0  0  0  0
    6.1932   -4.7989    1.1951 C   0  0  0  0  0  0  0  0  0  0  0  0
    4.4765   -6.6509    4.6862 C   0  0  0  0  0  0  0  0  0  0  0  0
    5.4511   -5.7180    4.7443 C   0  0  0  0  0  0  0  0  0  0  0  0
    6.6268   -5.9062    5.6890 C   0  0  1  0  0  0  0  0  0  0  0  0
    6.5783   -4.9485    6.8832 C   0  0  0  0  0  0  0  0  0  0  0  0
    6.8300   -7.4256    6.0340 C   0  0  0  0  0  0  0  0  0  0  0  0
    5.5933   -8.3863    5.6992 C   0  0  1  0  0  0  0  0  0  0  0  0
    6.0243   -8.8610    4.4054 O   0  0  0  0  0  0  0  0  0  0  0  0
    5.4621   -9.5490    6.5954 C   0  0  1  0  0  0  0  0  0  0  0  0
    4.9493   -8.7348    7.7839 C   0  0  0  0  0  0  0  0  0  0  0  0
    5.0636   -9.2662    9.2010 C   0  0  0  0  0  0  0  0  0  0  0  0
    4.5775   -7.4965    7.4233 C   0  0  0  0  0  0  0  0  0  0  0  0
    4.2560   -7.5418    5.9367 C   0  0  1  0  0  0  0  0  0  0  0  0
    2.6173   -7.5209    6.2827 C   0  0  0  0  0  0  0  0  0  0  0  0
    1.6102   -8.7821    6.6154 C   0  0  1  0  0  0  0  0  0  0  0  0
    0.6727   -8.3179    7.7479 C   0  0  0  0  0  0  0  0  0  0  0  0
    0.7708   -9.4188    5.3453 C   0  0  1  0  0  0  0  0  0  0  0  0
   -0.5814   -9.0325    5.4132 O   0  0  0  0  0  0  0  0  0  0  0  0
    4.6221  -10.6577    5.8377 C   0  0  1  0  0  0  0  0  0  0  0  0
    5.5090  -11.6328    5.0327 C   0  0  0  0  0  0  0  0  0  0  0  0
    4.2187  -11.4723    6.9267 O   0  0  0  0  0  0  0  0  0  0  0  0
    3.3555  -10.2486    5.0170 C   0  0  0  0  0  0  0  0  0  0  0  0
    2.8640   -9.2437    4.1828 C   0  0  0  0  0  0  0  0  0  0  0  0
   -0.6673   -6.9506    1.8953 H   0  0  0  0  0  0  0  0  0  0  0  0
   -0.4449   -8.7664    1.7197 H   0  0  0  0  0  0  0  0  0  0  0  0
    0.3581   -6.3933    4.8566 H   0  0  0  0  0  0  0  0  0  0  0  0
    0.2359   -5.6163    3.2693 H   0  0  0  0  0  0  0  0  0  0  0  0
    1.8227   -6.0882    3.8565 H   0  0  0  0  0  0  0  0  0  0  0  0
    3.4011   -9.9085    1.5860 H   0  0  0  0  0  0  0  0  0  0  0  0
    2.2850   -8.5814    1.2652 H   0  0  0  0  0  0  0  0  0  0  0  0
    3.8250   -5.2911    2.4485 H   0  0  0  0  0  0  0  0  0  0  0  0
    3.6693   -6.0254    0.2470 H   0  0  0  0  0  0  0  0  0  0  0  0
    6.1056   -8.1529    1.9256 H   0  0  0  0  0  0  0  0  0  0  0  0
    8.4911   -7.9552    1.3054 H   0  0  0  0  0  0  0  0  0  0  0  0
    9.4246   -5.8011    0.6277 H   0  0  0  0  0  0  0  0  0  0  0  0
    9.1850   -3.4159    0.1845 H   0  0  0  0  0  0  0  0  0  0  0  0
    7.7864   -1.3824    0.0953 H   0  0  0  0  0  0  0  0  0  0  0  0
    5.3654   -1.5109    0.6710 H   0  0  0  0  0  0  0  0  0  0  0  0
    4.3609   -3.6091    1.3567 H   0  0  0  0  0  0  0  0  0  0  0  0
    5.7249   -5.0991    3.9087 H   0  0  0  0  0  0  0  0  0  0  0  0
    7.5080   -5.6191    5.1174 H   0  0  0  0  0  0  0  0  0  0  0  0
    6.6530   -3.9134    6.5518 H   0  0  0  0  0  0  0  0  0  0  0  0
    7.4021   -5.1309    7.5746 H   0  0  0  0  0  0  0  0  0  0  0  0
    5.6478   -5.0405    7.4351 H   0  0  0  0  0  0  0  0  0  0  0  0
    7.7154   -7.7799    5.5095 H   0  0  0  0  0  0  0  0  0  0  0  0
    7.1300   -7.5028    7.0883 H   0  0  0  0  0  0  0  0  0  0  0  0
    5.3184   -9.3679    4.0385 H   0  0  0  0  0  0  0  0  0  0  0  0
    6.4504   -9.9287    6.8654 H   0  0  0  0  0  0  0  0  0  0  0  0
    6.0579   -9.6622    9.3692 H   0  0  0  0  0  0  0  0  0  0  0  0
    4.3485  -10.0691    9.3611 H   0  0  0  0  0  0  0  0  0  0  0  0
    4.8652   -8.4873    9.9333 H   0  0  0  0  0  0  0  0  0  0  0  0
    4.2359   -6.7236    8.0910 H   0  0  0  0  0  0  0  0  0  0  0  0
    2.4150   -6.7292    7.0323 H   0  0  0  0  0  0  0  0  0  0  0  0
    2.3071   -7.1412    5.4282 H   0  0  0  0  0  0  0  0  0  0  0  0
    2.1623   -9.5862    7.0877 H   0  0  0  0  0  0  0  0  0  0  0  0
    0.0420   -7.4664    7.4640 H   0  0  0  0  0  0  0  0  0  0  0  0
    1.2676   -7.9987    8.6072 H   0  0  0  0  0  0  0  0  0  0  0  0
    0.0254   -9.1344    8.0759 H   0  0  0  0  0  0  0  0  0  0  0  0
    0.6735  -10.5075    5.5050 H   0  0  0  0  0  0  0  0  0  0  0  0
   -1.1470   -9.8005    5.2804 H   0  0  0  0  0  0  0  0  0  0  0  0
    5.7844  -11.2527    4.0511 H   0  0  0  0  0  0  0  0  0  0  0  0
    5.0184  -12.5893    4.8583 H   0  0  0  0  0  0  0  0  0  0  0  0
    6.4410  -11.8443    5.5565 H   0  0  0  0  0  0  0  0  0  0  0  0
    3.3166  -11.7814    6.8466 H   0  0  0  0  0  0  0  0  0  0  0  0
    2.6077  -10.9420    5.3458 H   0  0  0  0  0  0  0  0  0  0  0  0
  1  2  2  0
  1 43  1  0
  1 44  1  0
  2  3  1  0
  4  2  1  6
  3 45  1  0
  3 46  1  0
  3 47  1  0
  4 36  1  0
  4 42  1  0
  4  5  1  0
  5  6  1  0
  6  7  1  0
  6 48  1  0
  6 49  1  0
  7 42  1  0
  7  8  2  3
  8  9  1  0
  8 21  1  0
  9 10  1  0
  9 11  1  0
  9 50  1  1
 10 51  1  0
 11 20  1  0
 11 12  2  0
 12 13  1  0
 12 52  1  0
 13 14  2  0
 13 53  1  0
 14 15  1  0
 14 54  1  0
 15 20  2  0
 15 16  1  0
 16 17  2  0
 16 55  1  0
 17 18  1  0
 17 56  1  0
 18 19  2  0
 18 57  1  0
 19 20  1  0
 19 58  1  0
 21 32  1  0
 21 22  2  0
 22 23  1  0
 22 59  1  0
 23 24  1  0
 23 25  1  0
 23 60  1  6
 24 61  1  0
 24 62  1  0
 24 63  1  0
 25 26  1  0
 25 64  1  0
 25 65  1  0
 26 32  1  0
 26 27  1  6
 26 28  1  0
 27 66  1  0
 28 29  1  0
 28 38  1  0
 28 67  1  1
 29 30  1  0
 29 31  2  0
 30 68  1  0
 30 69  1  0
 30 70  1  0
 31 32  1  0
 31 71  1  0
 32 33  1  1
 33 34  1  0
 33 72  1  0
 33 73  1  0
 34 35  1  0
 34 36  1  0
 34 74  1  1
 35 75  1  0
 35 76  1  0
 35 77  1  0
 36 37  1  0
 36 78  1  1
 37 79  1  0
 38 39  1  0
 38 40  1  1
 38 41  1  0
 39 80  1  0
 39 81  1  0
 39 82  1  0
 40 83  1  0
 41 42  2  3
 41 84  1  0
M  END
>  <i_m_ct_stereo_status>  (313) 
1

>  <s_m_source_file>  (313) 
/var/tmp/pbs.5076255.sched01/tmppy4q9rbr/123plv7d954.sdf

>  <i_m_source_file_index>  (313) 
18

>  <i_lp_mmshare_version>  (313) 
48012

>  <i_f3d_flags>  (313) 
0

>  <s_epik_input>  (313) 
QzEyM0M0PVtDSF1bQ0BASF0oW0NIM10pW0NIMl1bQ0BAXTEoW09IXSlbQ0BASF0oQyhbQ0gzXSk9W0NIXTIpW0NAQF0oW0NIM10pKFtPSF0pL1tDSF09QzUvW0NAXShDKD1bQ0gyXSlbQ0gzXSkoW0NASF0oW09IXSlbQ0BASF0oW0NIMl0zKVtDSDNdKU9bQ0gyXS9DNT1DNFxbQ0BIXShbT0hdKWMoW2NIXVtjSF1bY0hdNiljKGM2NylbY0hdW2NIXVtjSF1bY0hdNw==

>  <s_epik_cmdline>  (313) 
J2VwaWtfcHl0aG9uJywgJy1waHQnLCAnMi4wJywgJy1waCcsICc3LjAnLCAnLXRuJywgJzgnLCAnLW1hJywgJzIwMCcsICctaW1hZScsICc8aW5maWxlLm1hZT4nLCAnLW9tYWUnLCAnPG91dGZpbGUubWFlPic=

>  <r_lp_tautomer_probability>  (313) 
1

>  <r_epik_Ionization_Penalty>  (313) 
1.31135e-05

>  <r_epik_Ionization_Penalty_Charging>  (313) 
0

>  <r_epik_Ionization_Penalty_Neutral>  (313) 
1.31135e-05

>  <r_epik_State_Penalty>  (313) 
-0

>  <r_epik_Charging_Adjusted_Penalty>  (313) 
0

>  <i_epik_Tot_Q>  (313) 
0

>  <i_epik_Tot_abs_Q>  (313) 
0

>  <s_lp_Force_Field>  (313) 
OPLS3e

>  <r_lp_Energy>  (313) 
321.352

>  <b_lp_Chiralities_Consistent>  (313) 
1

>  <s_lp_Variant>  (313) 
103:0-5

>  <s_i_glide_gridfile>  (313) 
pfpi4k_grid

>  <i_i_glide_lignum>  (313) 
18

>  <i_i_glide_rotatable_bonds>  (313) 
7

>  <r_i_docking_score>  (313) 
-3.67566

>  <r_i_glide_ligand_efficiency>  (313) 
-0.0875158

>  <r_i_glide_ligand_efficiency_sa>  (313) 
-0.304207

>  <r_i_glide_ligand_efficiency_ln>  (313) 
-0.775838

>  <r_i_glide_gscore>  (313) 
-3.67566

>  <r_i_glide_lipo>  (313) 
-0.896447

>  <r_i_glide_hbond>  (313) 
-0.241627

>  <r_i_glide_metal>  (313) 
-0

>  <r_i_glide_rewards>  (313) 
0

>  <r_i_glide_evdw>  (313) 
-30.4256

>  <r_i_glide_ecoul>  (313) 
-7.49532

>  <r_i_glide_erotb>  (313) 
0.10799

>  <r_i_glide_esite>  (313) 
0

>  <r_i_glide_emodel>  (313) 
-43.0371

>  <r_i_glide_energy>  (313) 
-37.9209

>  <r_i_glide_einternal>  (313) 
5.10807

>  <r_i_glide_intrahb_reward>  (313) 
-0

>  <i_i_glide_confnum>  (313) 
2

>  <i_i_glide_posenum>  (313) 
39

>  <r_i_glide_eff_state_penalty>  (313) 
0

>  <ligand_id>  (313) 
103

>  <original_smiles>  (313) 
C=C(C)C12OCC3=C(C(O)c4cccc5ccccc45)C4=CC(C)CC5(O)C(C(C)=CC45CC(C)C1O)C(C)(O)C=C32

>  <smiles>  (313) 
[H]OC([H])(C1=C2C3=C([H])C(O[H])(C([H])([H])[H])C4([H])C(C([H])([H])[H])=C([H])C5(C1=C([H])C([H])(C([H])([H])[H])C([H])([H])C45O[H])C([H])([H])C([H])(C([H])([H])[H])C([H])(O[H])C3(C(=C([H])[H])C([H])([H])[H])OC2([H])[H])c1c([H])c([H])c([H])c2c([H])c([H])c([H])c([H])c12

$$$$
103:4:1
     RDKit          3D

 84 90  0  0  1  0  0  0  0  0999 V2000
    0.7733   -6.8611    4.0941 C   0  0  0  0  0  0  0  0  0  0  0  0
    0.4468   -8.1721    3.9575 C   0  0  0  0  0  0  0  0  0  0  0  0
   -0.8585   -8.4261    3.1900 C   0  0  0  0  0  0  0  0  0  0  0  0
    1.2013   -9.5111    4.3683 C   0  0  2  0  0  0  0  0  0  0  0  0
    1.1959  -10.1893    3.1028 O   0  0  0  0  0  0  0  0  0  0  0  0
    2.2531   -9.4718    2.3337 C   0  0  0  0  0  0  0  0  0  0  0  0
    3.1993   -8.8709    3.4006 C   0  0  0  0  0  0  0  0  0  0  0  0
    3.8732   -7.6619    3.5756 C   0  0  0  0  0  0  0  0  0  0  0  0
    3.9714   -6.6220    2.4109 C   0  0  2  0  0  0  0  0  0  0  0  0
    3.0489   -6.8332    1.3794 O   0  0  0  0  0  0  0  0  0  0  0  0
    5.3559   -6.4178    1.7847 C   0  0  0  0  0  0  0  0  0  0  0  0
    6.2299   -7.5255    1.7451 C   0  0  0  0  0  0  0  0  0  0  0  0
    7.5710   -7.3859    1.3205 C   0  0  0  0  0  0  0  0  0  0  0  0
    8.0271   -6.1334    0.8767 C   0  0  0  0  0  0  0  0  0  0  0  0
    7.1576   -5.0308    0.8672 C   0  0  0  0  0  0  0  0  0  0  0  0
    7.6438   -3.8056    0.3887 C   0  0  0  0  0  0  0  0  0  0  0  0
    6.8061   -2.6722    0.3571 C   0  0  0  0  0  0  0  0  0  0  0  0
    5.4645   -2.7829    0.8079 C   0  0  0  0  0  0  0  0  0  0  0  0
    4.9810   -4.0210    1.2857 C   0  0  0  0  0  0  0  0  0  0  0  0
    5.8198   -5.1567    1.3205 C   0  0  0  0  0  0  0  0  0  0  0  0
    4.5476   -7.3099    4.9030 C   0  0  0  0  0  0  0  0  0  0  0  0
    5.5891   -6.4445    4.9226 C   0  0  0  0  0  0  0  0  0  0  0  0
    6.8522   -6.8290    5.6532 C   0  0  1  0  0  0  0  0  0  0  0  0
    7.0598   -5.9984    6.9265 C   0  0  0  0  0  0  0  0  0  0  0  0
    6.9738   -8.3855    5.8279 C   0  0  0  0  0  0  0  0  0  0  0  0
    5.6137   -9.2043    5.5623 C   0  0  1  0  0  0  0  0  0  0  0  0
    5.8471   -9.5990    4.2262 O   0  0  0  0  0  0  0  0  0  0  0  0
    5.5522  -10.4535    6.3665 C   0  0  1  0  0  0  0  0  0  0  0  0
    5.2564   -9.7448    7.6840 C   0  0  0  0  0  0  0  0  0  0  0  0
    5.5565  -10.4187    9.0090 C   0  0  0  0  0  0  0  0  0  0  0  0
    4.9029   -8.4496    7.5038 C   0  0  0  0  0  0  0  0  0  0  0  0
    4.3919   -8.2865    6.0828 C   0  0  1  0  0  0  0  0  0  0  0  0
    2.8390   -8.2280    6.6146 C   0  0  0  0  0  0  0  0  0  0  0  0
    1.8093   -9.3962    6.9831 C   0  0  1  0  0  0  0  0  0  0  0  0
    1.1002   -9.0429    8.3066 C   0  0  0  0  0  0  0  0  0  0  0  0
    0.7667   -9.8981    5.8419 C   0  0  1  0  0  0  0  0  0  0  0  0
   -0.5468   -9.4539    6.1433 O   0  0  0  0  0  0  0  0  0  0  0  0
    4.5383  -11.4410    5.6545 C   0  0  1  0  0  0  0  0  0  0  0  0
    5.2316  -12.3803    4.6279 C   0  0  0  0  0  0  0  0  0  0  0  0
    4.2168  -12.3317    6.7109 O   0  0  0  0  0  0  0  0  0  0  0  0
    3.2189  -10.8613    5.0299 C   0  0  0  0  0  0  0  0  0  0  0  0
    2.7042   -9.7229    4.4220 C   0  0  0  0  0  0  0  0  0  0  0  0
    0.0745   -6.1109    3.7404 H   0  0  0  0  0  0  0  0  0  0  0  0
    1.6609   -6.4447    4.5341 H   0  0  0  0  0  0  0  0  0  0  0  0
   -0.6538   -8.7641    2.1691 H   0  0  0  0  0  0  0  0  0  0  0  0
   -1.4797   -7.5295    3.1019 H   0  0  0  0  0  0  0  0  0  0  0  0
   -1.4652   -9.1920    3.6776 H   0  0  0  0  0  0  0  0  0  0  0  0
    2.8017  -10.1750    1.7075 H   0  0  0  0  0  0  0  0  0  0  0  0
    1.7421   -8.7639    1.6934 H   0  0  0  0  0  0  0  0  0  0  0  0
    3.6554   -5.7028    2.8926 H   0  0  0  0  0  0  0  0  0  0  0  0
    3.2375   -7.6752    1.0044 H   0  0  0  0  0  0  0  0  0  0  0  0
    5.8933   -8.4984    2.0592 H   0  0  0  0  0  0  0  0  0  0  0  0
    8.2337   -8.2400    1.3442 H   0  0  0  0  0  0  0  0  0  0  0  0
    9.0452   -6.0564    0.5337 H   0  0  0  0  0  0  0  0  0  0  0  0
    8.6587   -3.7153    0.0366 H   0  0  0  0  0  0  0  0  0  0  0  0
    7.1766   -1.7287   -0.0126 H   0  0  0  0  0  0  0  0  0  0  0  0
    4.8150   -1.9176    0.7739 H   0  0  0  0  0  0  0  0  0  0  0  0
    3.9505   -4.0534    1.6064 H   0  0  0  0  0  0  0  0  0  0  0  0
    5.7958   -5.7412    4.1440 H   0  0  0  0  0  0  0  0  0  0  0  0
    7.6692   -6.5447    4.9869 H   0  0  0  0  0  0  0  0  0  0  0  0
    7.1640   -4.9404    6.6784 H   0  0  0  0  0  0  0  0  0  0  0  0
    7.9593   -6.3024    7.4650 H   0  0  0  0  0  0  0  0  0  0  0  0
    6.2084   -6.0892    7.5985 H   0  0  0  0  0  0  0  0  0  0  0  0
    7.7514   -8.7334    5.1386 H   0  0  0  0  0  0  0  0  0  0  0  0
    7.4207   -8.5902    6.8032 H   0  0  0  0  0  0  0  0  0  0  0  0
    5.0697  -10.0185    3.9050 H   0  0  0  0  0  0  0  0  0  0  0  0
    6.5357  -10.9147    6.4508 H   0  0  0  0  0  0  0  0  0  0  0  0
    6.5392  -10.8939    8.9937 H   0  0  0  0  0  0  0  0  0  0  0  0
    4.8154  -11.1988    9.1981 H   0  0  0  0  0  0  0  0  0  0  0  0
    5.5216   -9.7126    9.8389 H   0  0  0  0  0  0  0  0  0  0  0  0
    4.7459   -7.7399    8.2999 H   0  0  0  0  0  0  0  0  0  0  0  0
    2.7856   -7.4905    7.4225 H   0  0  0  0  0  0  0  0  0  0  0  0
    2.3116   -7.6564    5.8996 H   0  0  0  0  0  0  0  0  0  0  0  0
    2.3994  -10.2550    7.2923 H   0  0  0  0  0  0  0  0  0  0  0  0
    0.4842   -8.1433    8.2178 H   0  0  0  0  0  0  0  0  0  0  0  0
    1.8334   -8.8684    9.0974 H   0  0  0  0  0  0  0  0  0  0  0  0
    0.4624   -9.8647    8.6355 H   0  0  0  0  0  0  0  0  0  0  0  0
    0.6200  -10.9748    5.9119 H   0  0  0  0  0  0  0  0  0  0  0  0
   -1.1628  -10.0329    5.6806 H   0  0  0  0  0  0  0  0  0  0  0  0
    5.3960  -11.9208    3.6537 H   0  0  0  0  0  0  0  0  0  0  0  0
    4.6449  -13.2791    4.4369 H   0  0  0  0  0  0  0  0  0  0  0  0
    6.2096  -12.6988    4.9915 H   0  0  0  0  0  0  0  0  0  0  0  0
    3.3176  -12.6391    6.6617 H   0  0  0  0  0  0  0  0  0  0  0  0
    2.4673  -11.5315    5.4204 H   0  0  0  0  0  0  0  0  0  0  0  0
  1  2  2  0
  1 43  1  0
  1 44  1  0
  2  3  1  0
  4  2  1  6
  3 45  1  0
  3 46  1  0
  3 47  1  0
  4 36  1  0
  4 42  1  0
  4  5  1  0
  5  6  1  0
  6  7  1  0
  6 48  1  0
  6 49  1  0
  7 42  1  0
  7  8  2  3
  8  9  1  0
  8 21  1  0
  9 10  1  0
  9 11  1  0
  9 50  1  1
 10 51  1  0
 11 20  1  0
 11 12  2  0
 12 13  1  0
 12 52  1  0
 13 14  2  0
 13 53  1  0
 14 15  1  0
 14 54  1  0
 15 20  2  0
 15 16  1  0
 16 17  2  0
 16 55  1  0
 17 18  1  0
 17 56  1  0
 18 19  2  0
 18 57  1  0
 19 20  1  0
 19 58  1  0
 21 32  1  0
 21 22  2  0
 22 23  1  0
 22 59  1  0
 23 24  1  0
 23 25  1  0
 23 60  1  6
 24 61  1  0
 24 62  1  0
 24 63  1  0
 25 26  1  0
 25 64  1  0
 25 65  1  0
 26 32  1  0
 26 27  1  6
 26 28  1  0
 27 66  1  0
 28 29  1  0
 28 38  1  0
 28 67  1  1
 29 30  1  0
 29 31  2  0
 30 68  1  0
 30 69  1  0
 30 70  1  0
 31 32  1  0
 31 71  1  0
 32 33  1  1
 33 34  1  0
 33 72  1  0
 33 73  1  0
 34 35  1  0
 34 36  1  0
 34 74  1  1
 35 75  1  0
 35 76  1  0
 35 77  1  0
 36 37  1  0
 36 78  1  6
 37 79  1  0
 38 39  1  0
 38 40  1  1
 38 41  1  0
 39 80  1  0
 39 81  1  0
 39 82  1  0
 40 83  1  0
 41 42  2  3
 41 84  1  0
M  END
>  <i_m_ct_stereo_status>  (314) 
1

>  <s_m_source_file>  (314) 
/var/tmp/pbs.5076255.sched01/tmppy4q9rbr/123plv7d954.sdf

>  <i_m_source_file_index>  (314) 
18

>  <i_lp_mmshare_version>  (314) 
48012

>  <i_f3d_flags>  (314) 
0

>  <s_epik_input>  (314) 
QzEyM0M0PVtDSF1bQ0BASF0oW0NIM10pW0NIMl1bQ0BAXTEoW09IXSlbQ0BASF0oQyhbQ0gzXSk9W0NIXTIpW0NAQF0oW0NIM10pKFtPSF0pL1tDSF09QzUvW0NAXShDKD1bQ0gyXSlbQ0gzXSkoW0NASF0oW09IXSlbQ0BASF0oW0NIMl0zKVtDSDNdKU9bQ0gyXS9DNT1DNFxbQ0BIXShbT0hdKWMoW2NIXVtjSF1bY0hdNiljKGM2NylbY0hdW2NIXVtjSF1bY0hdNw==

>  <s_epik_cmdline>  (314) 
J2VwaWtfcHl0aG9uJywgJy1waHQnLCAnMi4wJywgJy1waCcsICc3LjAnLCAnLXRuJywgJzgnLCAnLW1hJywgJzIwMCcsICctaW1hZScsICc8aW5maWxlLm1hZT4nLCAnLW9tYWUnLCAnPG91dGZpbGUubWFlPic=

>  <r_lp_tautomer_probability>  (314) 
1

>  <r_epik_Ionization_Penalty>  (314) 
1.31135e-05

>  <r_epik_Ionization_Penalty_Charging>  (314) 
0

>  <r_epik_Ionization_Penalty_Neutral>  (314) 
1.31135e-05

>  <r_epik_State_Penalty>  (314) 
-0

>  <r_epik_Charging_Adjusted_Penalty>  (314) 
0

>  <i_epik_Tot_Q>  (314) 
0

>  <i_epik_Tot_abs_Q>  (314) 
0

>  <s_lp_Force_Field>  (314) 
OPLS3e

>  <r_lp_Energy>  (314) 
321.352

>  <b_lp_Chiralities_Consistent>  (314) 
1

>  <s_lp_Variant>  (314) 
103:0-5

>  <s_i_glide_gridfile>  (314) 
pfpi4k_grid

>  <i_i_glide_lignum>  (314) 
18

>  <i_i_glide_rotatable_bonds>  (314) 
7

>  <r_i_docking_score>  (314) 
-3.64357

>  <r_i_glide_ligand_efficiency>  (314) 
-0.0867517

>  <r_i_glide_ligand_efficiency_sa>  (314) 
-0.301551

>  <r_i_glide_ligand_efficiency_ln>  (314) 
-0.769064

>  <r_i_glide_gscore>  (314) 
-3.64357

>  <r_i_glide_lipo>  (314) 
-0.739769

>  <r_i_glide_hbond>  (314) 
-0.312353

>  <r_i_glide_metal>  (314) 
-0

>  <r_i_glide_rewards>  (314) 
0

>  <r_i_glide_evdw>  (314) 
-28.4066

>  <r_i_glide_ecoul>  (314) 
-8.52738

>  <r_i_glide_erotb>  (314) 
0.10799

>  <r_i_glide_esite>  (314) 
0

>  <r_i_glide_emodel>  (314) 
-44.6006

>  <r_i_glide_energy>  (314) 
-36.934

>  <r_i_glide_einternal>  (314) 
3.2436

>  <r_i_glide_intrahb_reward>  (314) 
-0

>  <i_i_glide_confnum>  (314) 
2

>  <i_i_glide_posenum>  (314) 
35

>  <r_i_glide_eff_state_penalty>  (314) 
0

>  <ligand_id>  (314) 
103

>  <original_smiles>  (314) 
C=C(C)C12OCC3=C(C(O)c4cccc5ccccc45)C4=CC(C)CC5(O)C(C(C)=CC45CC(C)C1O)C(C)(O)C=C32

>  <smiles>  (314) 
[H]OC([H])(C1=C2C3=C([H])C(O[H])(C([H])([H])[H])C4([H])C(C([H])([H])[H])=C([H])C5(C1=C([H])C([H])(C([H])([H])[H])C([H])([H])C45O[H])C([H])([H])C([H])(C([H])([H])[H])C([H])(O[H])C3(C(=C([H])[H])C([H])([H])[H])OC2([H])[H])c1c([H])c([H])c([H])c2c([H])c([H])c([H])c([H])c12

$$$$
103:4:2
     RDKit          3D

 84 90  0  0  1  0  0  0  0  0999 V2000
    1.0261   -6.1965    3.4284 C   0  0  0  0  0  0  0  0  0  0  0  0
    0.7095   -7.4494    3.0259 C   0  0  0  0  0  0  0  0  0  0  0  0
   -0.4558   -7.5494    2.0366 C   0  0  0  0  0  0  0  0  0  0  0  0
    1.3761   -8.8624    3.3411 C   0  0  2  0  0  0  0  0  0  0  0  0
    1.6275   -9.3100    2.0070 O   0  0  0  0  0  0  0  0  0  0  0  0
    2.8172   -8.5086    1.6060 C   0  0  0  0  0  0  0  0  0  0  0  0
    3.5045   -8.1365    2.9322 C   0  0  0  0  0  0  0  0  0  0  0  0
    4.1307   -6.9940    3.4317 C   0  0  0  0  0  0  0  0  0  0  0  0
    4.4562   -5.8025    2.4908 C   0  0  2  0  0  0  0  0  0  0  0  0
    3.4530   -5.5778    1.5297 O   0  0  0  0  0  0  0  0  0  0  0  0
    5.8465   -5.8318    1.8378 C   0  0  0  0  0  0  0  0  0  0  0  0
    6.5202   -7.0678    1.7527 C   0  0  0  0  0  0  0  0  0  0  0  0
    7.8192   -7.1592    1.2517 C   0  0  0  0  0  0  0  0  0  0  0  0
    8.4525   -6.0214    0.7436 C   0  0  0  0  0  0  0  0  0  0  0  0
    7.7887   -4.7824    0.7529 C   0  0  0  0  0  0  0  0  0  0  0  0
    8.4331   -3.6625    0.2007 C   0  0  0  0  0  0  0  0  0  0  0  0
    7.7977   -2.4136    0.1864 C   0  0  0  0  0  0  0  0  0  0  0  0
    6.4979   -2.2875    0.7144 C   0  0  0  0  0  0  0  0  0  0  0  0
    5.8434   -3.4059    1.2701 C   0  0  0  0  0  0  0  0  0  0  0  0
    6.4779   -4.6728    1.3033 C   0  0  0  0  0  0  0  0  0  0  0  0
    4.5472   -6.9029    4.8910 C   0  0  0  0  0  0  0  0  0  0  0  0
    5.5944   -6.1188    5.2138 C   0  0  0  0  0  0  0  0  0  0  0  0
    6.6734   -6.6493    6.1372 C   0  0  1  0  0  0  0  0  0  0  0  0
    6.6007   -6.0526    7.5506 C   0  0  0  0  0  0  0  0  0  0  0  0
    6.7495   -8.2153    6.0684 C   0  0  0  0  0  0  0  0  0  0  0  0
    5.4646   -8.9342    5.4252 C   0  0  1  0  0  0  0  0  0  0  0  0
    5.9563   -9.0796    4.1046 O   0  0  0  0  0  0  0  0  0  0  0  0
    5.2314  -10.2956    5.9644 C   0  0  1  0  0  0  0  0  0  0  0  0
    4.6696   -9.8121    7.3026 C   0  0  0  0  0  0  0  0  0  0  0  0
    4.7056  -10.7185    8.5160 C   0  0  0  0  0  0  0  0  0  0  0  0
    4.3746   -8.4924    7.2776 C   0  0  0  0  0  0  0  0  0  0  0  0
    4.1579   -8.0652    5.8318 C   0  0  1  0  0  0  0  0  0  0  0  0
    2.5218   -8.0421    6.0362 C   0  0  0  0  0  0  0  0  0  0  0  0
    1.4341   -9.2267    5.9984 C   0  0  1  0  0  0  0  0  0  0  0  0
    0.4824   -9.0774    7.2027 C   0  0  0  0  0  0  0  0  0  0  0  0
    0.6433   -9.4962    4.6006 C   0  0  1  0  0  0  0  0  0  0  0  0
   -0.6882   -9.0377    4.7111 O   0  0  0  0  0  0  0  0  0  0  0  0
    4.3941  -11.1113    4.9020 C   0  0  1  0  0  0  0  0  0  0  0  0
    5.2721  -11.8843    3.8811 C   0  0  0  0  0  0  0  0  0  0  0  0
    3.8674  -12.1831    5.6651 O   0  0  0  0  0  0  0  0  0  0  0  0
    3.2190  -10.4045    4.1617 C   0  0  0  0  0  0  0  0  0  0  0  0
    2.8419   -9.1729    3.6305 C   0  0  0  0  0  0  0  0  0  0  0  0
    0.4289   -5.3608    3.0888 H   0  0  0  0  0  0  0  0  0  0  0  0
    1.8400   -5.9120    4.0677 H   0  0  0  0  0  0  0  0  0  0  0  0
   -0.0915   -7.7404    1.0245 H   0  0  0  0  0  0  0  0  0  0  0  0
   -1.0427   -6.6334    1.9874 H   0  0  0  0  0  0  0  0  0  0  0  0
   -1.1492   -8.3518    2.2922 H   0  0  0  0  0  0  0  0  0  0  0  0
    3.4680   -9.1229    0.9837 H   0  0  0  0  0  0  0  0  0  0  0  0
    2.4852   -7.6679    1.0094 H   0  0  0  0  0  0  0  0  0  0  0  0
    4.4000   -4.9134    3.1137 H   0  0  0  0  0  0  0  0  0  0  0  0
    3.5522   -6.2181    0.8409 H   0  0  0  0  0  0  0  0  0  0  0  0
    6.0513   -7.9818    2.0559 H   0  0  0  0  0  0  0  0  0  0  0  0
    8.3202   -8.1159    1.2298 H   0  0  0  0  0  0  0  0  0  0  0  0
    9.4364   -6.1313    0.3183 H   0  0  0  0  0  0  0  0  0  0  0  0
    9.4216   -3.7526   -0.2182 H   0  0  0  0  0  0  0  0  0  0  0  0
    8.3265   -1.5643   -0.2187 H   0  0  0  0  0  0  0  0  0  0  0  0
    6.0033   -1.3260    0.6977 H   0  0  0  0  0  0  0  0  0  0  0  0
    4.8426   -3.2793    1.6556 H   0  0  0  0  0  0  0  0  0  0  0  0
    5.9601   -5.3576    4.5450 H   0  0  0  0  0  0  0  0  0  0  0  0
    7.6099   -6.2857    5.7101 H   0  0  0  0  0  0  0  0  0  0  0  0
    6.7582   -4.9745    7.5226 H   0  0  0  0  0  0  0  0  0  0  0  0
    7.3703   -6.4776    8.1956 H   0  0  0  0  0  0  0  0  0  0  0  0
    5.6345   -6.2287    8.0189 H   0  0  0  0  0  0  0  0  0  0  0  0
    7.6477   -8.4781    5.5052 H   0  0  0  0  0  0  0  0  0  0  0  0
    6.9851   -8.5958    7.0619 H   0  0  0  0  0  0  0  0  0  0  0  0
    5.2661   -9.4533    3.5774 H   0  0  0  0  0  0  0  0  0  0  0  0
    6.1769  -10.8001    6.1537 H   0  0  0  0  0  0  0  0  0  0  0  0
    5.6726  -11.2159    8.6048 H   0  0  0  0  0  0  0  0  0  0  0  0
    3.9388  -11.4888    8.4227 H   0  0  0  0  0  0  0  0  0  0  0  0
    4.5140  -10.1582    9.4306 H   0  0  0  0  0  0  0  0  0  0  0  0
    4.0656   -7.9117    8.1348 H   0  0  0  0  0  0  0  0  0  0  0  0
    2.3094   -7.4511    6.9361 H   0  0  0  0  0  0  0  0  0  0  0  0
    2.1402   -7.3281    5.3498 H   0  0  0  0  0  0  0  0  0  0  0  0
    1.9586  -10.1459    6.2720 H   0  0  0  0  0  0  0  0  0  0  0  0
   -0.0987   -8.1534    7.1534 H   0  0  0  0  0  0  0  0  0  0  0  0
    1.0456   -9.0684    8.1370 H   0  0  0  0  0  0  0  0  0  0  0  0
   -0.2121   -9.9185    7.2563 H   0  0  0  0  0  0  0  0  0  0  0  0
    0.4873  -10.5660    4.4543 H   0  0  0  0  0  0  0  0  0  0  0  0
   -1.2590   -9.7889    4.8863 H   0  0  0  0  0  0  0  0  0  0  0  0
    5.6192  -11.2738    3.0507 H   0  0  0  0  0  0  0  0  0  0  0  0
    4.7318  -12.7161    3.4270 H   0  0  0  0  0  0  0  0  0  0  0  0
    6.1579  -12.2991    4.3648 H   0  0  0  0  0  0  0  0  0  0  0  0
    3.1787  -11.8842    6.2465 H   0  0  0  0  0  0  0  0  0  0  0  0
    2.4038  -11.0991    4.2580 H   0  0  0  0  0  0  0  0  0  0  0  0
  1  2  2  0
  1 43  1  0
  1 44  1  0
  2  3  1  0
  4  2  1  6
  3 45  1  0
  3 46  1  0
  3 47  1  0
  4 36  1  0
  4 42  1  0
  4  5  1  0
  5  6  1  0
  6  7  1  0
  6 48  1  0
  6 49  1  0
  7 42  1  0
  7  8  2  3
  8  9  1  0
  8 21  1  0
  9 10  1  0
  9 11  1  0
  9 50  1  1
 10 51  1  0
 11 20  1  0
 11 12  2  0
 12 13  1  0
 12 52  1  0
 13 14  2  0
 13 53  1  0
 14 15  1  0
 14 54  1  0
 15 20  2  0
 15 16  1  0
 16 17  2  0
 16 55  1  0
 17 18  1  0
 17 56  1  0
 18 19  2  0
 18 57  1  0
 19 20  1  0
 19 58  1  0
 21 32  1  0
 21 22  2  0
 22 23  1  0
 22 59  1  0
 23 24  1  0
 23 25  1  0
 23 60  1  6
 24 61  1  0
 24 62  1  0
 24 63  1  0
 25 26  1  0
 25 64  1  0
 25 65  1  0
 26 32  1  0
 26 27  1  6
 26 28  1  0
 27 66  1  0
 28 29  1  0
 28 38  1  0
 28 67  1  1
 29 30  1  0
 29 31  2  0
 30 68  1  0
 30 69  1  0
 30 70  1  0
 31 32  1  0
 31 71  1  0
 32 33  1  6
 33 34  1  0
 33 72  1  0
 33 73  1  0
 34 35  1  0
 34 36  1  0
 34 74  1  1
 35 75  1  0
 35 76  1  0
 35 77  1  0
 36 37  1  0
 36 78  1  6
 37 79  1  0
 38 39  1  0
 38 40  1  1
 38 41  1  0
 39 80  1  0
 39 81  1  0
 39 82  1  0
 40 83  1  0
 41 42  2  3
 41 84  1  0
M  END
>  <i_m_ct_stereo_status>  (315) 
1

>  <s_m_source_file>  (315) 
/var/tmp/pbs.5076255.sched01/tmppy4q9rbr/123plv7d954.sdf

>  <i_m_source_file_index>  (315) 
18

>  <i_lp_mmshare_version>  (315) 
48012

>  <i_f3d_flags>  (315) 
0

>  <s_epik_input>  (315) 
QzEyM0M0PVtDSF1bQ0BASF0oW0NIM10pW0NIMl1bQ0BAXTEoW09IXSlbQ0BASF0oQyhbQ0gzXSk9W0NIXTIpW0NAQF0oW0NIM10pKFtPSF0pL1tDSF09QzUvW0NAXShDKD1bQ0gyXSlbQ0gzXSkoW0NASF0oW09IXSlbQ0BASF0oW0NIMl0zKVtDSDNdKU9bQ0gyXS9DNT1DNFxbQ0BIXShbT0hdKWMoW2NIXVtjSF1bY0hdNiljKGM2NylbY0hdW2NIXVtjSF1bY0hdNw==

>  <s_epik_cmdline>  (315) 
J2VwaWtfcHl0aG9uJywgJy1waHQnLCAnMi4wJywgJy1waCcsICc3LjAnLCAnLXRuJywgJzgnLCAnLW1hJywgJzIwMCcsICctaW1hZScsICc8aW5maWxlLm1hZT4nLCAnLW9tYWUnLCAnPG91dGZpbGUubWFlPic=

>  <r_lp_tautomer_probability>  (315) 
1

>  <r_epik_Ionization_Penalty>  (315) 
1.31135e-05

>  <r_epik_Ionization_Penalty_Charging>  (315) 
0

>  <r_epik_Ionization_Penalty_Neutral>  (315) 
1.31135e-05

>  <r_epik_State_Penalty>  (315) 
-0

>  <r_epik_Charging_Adjusted_Penalty>  (315) 
0

>  <i_epik_Tot_Q>  (315) 
0

>  <i_epik_Tot_abs_Q>  (315) 
0

>  <s_lp_Force_Field>  (315) 
OPLS3e

>  <r_lp_Energy>  (315) 
321.352

>  <b_lp_Chiralities_Consistent>  (315) 
1

>  <s_lp_Variant>  (315) 
103:0-5

>  <s_i_glide_gridfile>  (315) 
pfpi4k_grid

>  <i_i_glide_lignum>  (315) 
18

>  <i_i_glide_rotatable_bonds>  (315) 
7

>  <r_i_docking_score>  (315) 
-3.16881

>  <r_i_glide_ligand_efficiency>  (315) 
-0.075448

>  <r_i_glide_ligand_efficiency_sa>  (315) 
-0.262259

>  <r_i_glide_ligand_efficiency_ln>  (315) 
-0.668855

>  <r_i_glide_gscore>  (315) 
-3.16881

>  <r_i_glide_lipo>  (315) 
-0.809254

>  <r_i_glide_hbond>  (315) 
-0.188419

>  <r_i_glide_metal>  (315) 
-0

>  <r_i_glide_rewards>  (315) 
0

>  <r_i_glide_evdw>  (315) 
-31.0348

>  <r_i_glide_ecoul>  (315) 
-4.84928

>  <r_i_glide_erotb>  (315) 
0.10799

>  <r_i_glide_esite>  (315) 
0

>  <r_i_glide_emodel>  (315) 
-43.1795

>  <r_i_glide_energy>  (315) 
-35.8841

>  <r_i_glide_einternal>  (315) 
1.79338

>  <r_i_glide_intrahb_reward>  (315) 
-0

>  <i_i_glide_confnum>  (315) 
4

>  <i_i_glide_posenum>  (315) 
30

>  <r_i_glide_eff_state_penalty>  (315) 
0

>  <ligand_id>  (315) 
103

>  <original_smiles>  (315) 
C=C(C)C12OCC3=C(C(O)c4cccc5ccccc45)C4=CC(C)CC5(O)C(C(C)=CC45CC(C)C1O)C(C)(O)C=C32

>  <smiles>  (315) 
[H]OC([H])(C1=C2C3=C([H])C(O[H])(C([H])([H])[H])C4([H])C(C([H])([H])[H])=C([H])C5(C1=C([H])C([H])(C([H])([H])[H])C([H])([H])C45O[H])C([H])([H])C([H])(C([H])([H])[H])C([H])(O[H])C3(C(=C([H])[H])C([H])([H])[H])OC2([H])[H])c1c([H])c([H])c([H])c2c([H])c([H])c([H])c([H])c12

$$$$
104:1:0
     RDKit          3D

 34 37  0  0  1  0  0  0  0  0999 V2000
    4.8268   -4.7105    0.2818 O   0  0  0  0  0  0  0  0  0  0  0  0
    5.9382   -5.0688    0.6858 C   0  0  0  0  0  0  0  0  0  0  0  0
    7.2110   -4.4113    0.3940 C   0  0  0  0  0  0  0  0  0  0  0  0
    7.4476   -3.3251   -0.3730 C   0  0  0  0  0  0  0  0  0  0  0  0
    6.4978   -2.5388   -1.1510 C   0  0  0  0  0  0  0  0  0  0  0  0
    5.5664   -3.0408   -1.9780 C   0  0  0  0  0  0  0  0  0  0  0  0
    4.5886   -2.3359   -2.7368 C   0  0  0  0  0  0  0  0  0  0  0  0
    3.5751   -2.7615   -3.5420 C   0  0  0  0  0  0  0  0  0  0  0  0
    2.9568   -1.5762   -4.0420 C   0  0  0  0  0  0  0  0  0  0  0  0
    3.6238   -0.5327   -3.4859 C   0  0  0  0  0  0  0  0  0  0  0  0
    4.6180   -0.9766   -2.6730 O   0  0  0  0  0  0  0  0  0  0  0  0
    8.4647   -5.2884    1.2469 S   0  0  0  0  0  0  0  0  0  0  0  0
    7.3553   -6.4392    1.9138 C   0  0  0  0  0  0  0  0  0  0  0  0
    7.8279   -7.6348    2.9738 S   0  0  0  0  0  0  0  0  0  0  0  0
    6.1000   -6.1531    1.4665 N   0  0  0  0  0  0  0  0  0  0  0  0
    4.9658   -6.9494    1.8003 C   0  0  0  0  0  0  0  0  0  0  0  0
    3.9687   -6.4248    2.5370 N   0  0  0  0  0  0  0  0  0  0  0  0
    2.9603   -7.3724    2.6866 C   0  0  0  0  0  0  0  0  0  0  0  0
    1.7417   -7.2187    3.3896 C   0  0  0  0  0  0  0  0  0  0  0  0
    0.8230   -8.2832    3.5008 C   0  0  0  0  0  0  0  0  0  0  0  0
    1.1053   -9.5273    2.9019 C   0  0  0  0  0  0  0  0  0  0  0  0
    2.3062   -9.6999    2.1893 C   0  0  0  0  0  0  0  0  0  0  0  0
    3.2091   -8.6363    2.0696 C   0  0  0  0  0  0  0  0  0  0  0  0
    4.7379   -8.6142    1.1987 S   0  0  0  0  0  0  0  0  0  0  0  0
    8.4799   -3.0047   -0.4376 H   0  0  0  0  0  0  0  0  0  0  0  0
    6.5558   -1.4684   -1.0273 H   0  0  0  0  0  0  0  0  0  0  0  0
    5.5049   -4.1094   -2.1015 H   0  0  0  0  0  0  0  0  0  0  0  0
    3.3107   -3.7910   -3.7343 H   0  0  0  0  0  0  0  0  0  0  0  0
    2.1144   -1.4777   -4.7114 H   0  0  0  0  0  0  0  0  0  0  0  0
    3.5237    0.5463   -3.5352 H   0  0  0  0  0  0  0  0  0  0  0  0
    1.5429   -6.2656    3.8600 H   0  0  0  0  0  0  0  0  0  0  0  0
   -0.0931   -8.1483    4.0593 H   0  0  0  0  0  0  0  0  0  0  0  0
    0.4106  -10.3513    2.9871 H   0  0  0  0  0  0  0  0  0  0  0  0
    2.5764  -10.6359    1.7258 H   0  0  0  0  0  0  0  0  0  0  0  0
  1  2  2  0
  2 15  1  0
  2  3  1  0
  3  4  2  3
  3 12  1  0
  4  5  1  0
  4 25  1  0
  5  6  2  3
  5 26  1  0
  6  7  1  0
  6 27  1  0
  7 11  1  0
  7  8  2  0
  8  9  1  0
  8 28  1  0
  9 10  2  0
  9 29  1  0
 10 11  1  0
 10 30  1  0
 12 13  1  0
 13 14  2  0
 13 15  1  0
 15 16  1  0
 16 24  1  0
 16 17  2  0
 17 18  1  0
 18 23  2  0
 18 19  1  0
 19 20  2  0
 19 31  1  0
 20 21  1  0
 20 32  1  0
 21 22  2  0
 21 33  1  0
 22 23  1  0
 22 34  1  0
 23 24  1  0
M  END
>  <i_m_ct_stereo_status>  (316) 
1

>  <s_m_source_file>  (316) 
/var/tmp/pbs.5076255.sched01/tmppy4q9rbr/123plv7d954.sdf

>  <i_m_source_file_index>  (316) 
20

>  <i_lp_mmshare_version>  (316) 
48012

>  <i_f3d_flags>  (316) 
0

>  <s_epik_input>  (316) 
bzFbY0hdW2NIXVtjSF1jMVxbQ0hdPVtDSF1cW0NIXT1DKFxDMj1PKVNDKD1TKU4yYyhuMylzYyhjMzQpW2NIXVtjSF1bY0hdW2NIXTQ=

>  <s_epik_cmdline>  (316) 
J2VwaWtfcHl0aG9uJywgJy1waHQnLCAnMi4wJywgJy1waCcsICc3LjAnLCAnLXRuJywgJzgnLCAnLW1hJywgJzIwMCcsICctaW1hZScsICc8aW5maWxlLm1hZT4nLCAnLW9tYWUnLCAnPG91dGZpbGUubWFlPic=

>  <r_lp_tautomer_probability>  (316) 
1

>  <r_epik_Ionization_Penalty>  (316) 
2.96799e-06

>  <r_epik_Ionization_Penalty_Charging>  (316) 
0

>  <r_epik_Ionization_Penalty_Neutral>  (316) 
2.96799e-06

>  <r_epik_State_Penalty>  (316) 
-0

>  <r_epik_Charging_Adjusted_Penalty>  (316) 
0

>  <i_epik_Tot_Q>  (316) 
0

>  <i_epik_Tot_abs_Q>  (316) 
0

>  <s_lp_Force_Field>  (316) 
OPLS3e

>  <r_lp_Energy>  (316) 
26.4687

>  <b_lp_Chiralities_Consistent>  (316) 
1

>  <s_lp_Variant>  (316) 
104:0-2

>  <s_i_glide_gridfile>  (316) 
pfpi4k_grid

>  <i_i_glide_lignum>  (316) 
20

>  <i_i_glide_rotatable_bonds>  (316) 
3

>  <r_i_docking_score>  (316) 
-3.91521

>  <r_i_glide_ligand_efficiency>  (316) 
-0.163134

>  <r_i_glide_ligand_efficiency_sa>  (316) 
-0.470559

>  <r_i_glide_ligand_efficiency_ln>  (316) 
-0.937089

>  <r_i_glide_gscore>  (316) 
-3.91521

>  <r_i_glide_lipo>  (316) 
-1.18559

>  <r_i_glide_hbond>  (316) 
0

>  <r_i_glide_metal>  (316) 
-0

>  <r_i_glide_rewards>  (316) 
-1.17178

>  <r_i_glide_evdw>  (316) 
-34.8226

>  <r_i_glide_ecoul>  (316) 
-0.534796

>  <r_i_glide_erotb>  (316) 
0.28113

>  <r_i_glide_esite>  (316) 
-0.0176174

>  <r_i_glide_emodel>  (316) 
-41.7221

>  <r_i_glide_energy>  (316) 
-35.3574

>  <r_i_glide_einternal>  (316) 
4.025

>  <r_i_glide_intrahb_reward>  (316) 
-0

>  <i_i_glide_confnum>  (316) 
6

>  <i_i_glide_posenum>  (316) 
23

>  <r_i_glide_eff_state_penalty>  (316) 
0

>  <ligand_id>  (316) 
104

>  <original_smiles>  (316) 
O=C1C(=CC=Cc2ccco2)SC(=S)N1c1nc2ccccc2s1

>  <smiles>  (316) 
[H]C(C([H])=C([H])c1oc([H])c([H])c1[H])=C1SC(=S)N(c2nc3c([H])c([H])c([H])c([H])c3s2)C1=O

$$$$
104:1:1
     RDKit          3D

 34 37  0  0  1  0  0  0  0  0999 V2000
    4.7144   -4.9117    0.6811 O   0  0  0  0  0  0  0  0  0  0  0  0
    5.7826   -5.3708    1.0959 C   0  0  0  0  0  0  0  0  0  0  0  0
    7.1084   -4.8556    0.7732 C   0  0  0  0  0  0  0  0  0  0  0  0
    7.4239   -3.7949   -0.0029 C   0  0  0  0  0  0  0  0  0  0  0  0
    6.5321   -2.9269   -0.7569 C   0  0  0  0  0  0  0  0  0  0  0  0
    5.5621   -3.3536   -1.5922 C   0  0  0  0  0  0  0  0  0  0  0  0
    4.6488   -2.5637   -2.3538 C   0  0  0  0  0  0  0  0  0  0  0  0
    3.5729   -2.8897   -3.1310 C   0  0  0  0  0  0  0  0  0  0  0  0
    3.0579   -1.6670   -3.6442 C   0  0  0  0  0  0  0  0  0  0  0  0
    3.8429   -0.6811   -3.1158 C   0  0  0  0  0  0  0  0  0  0  0  0
    4.8171   -1.2110   -2.3250 O   0  0  0  0  0  0  0  0  0  0  0  0
    8.2892   -5.8376    1.6161 S   0  0  0  0  0  0  0  0  0  0  0  0
    7.0806   -6.8590    2.3200 C   0  0  0  0  0  0  0  0  0  0  0  0
    7.4869   -8.0935    3.3675 S   0  0  0  0  0  0  0  0  0  0  0  0
    5.8470   -6.4435    1.9141 N   0  0  0  0  0  0  0  0  0  0  0  0
    4.6289   -7.0640    2.3265 C   0  0  0  0  0  0  0  0  0  0  0  0
    4.3740   -8.3450    2.0277 N   0  0  0  0  0  0  0  0  0  0  0  0
    3.1321   -8.7066    2.5383 C   0  0  0  0  0  0  0  0  0  0  0  0
    2.5582   -9.9940    2.5121 C   0  0  0  0  0  0  0  0  0  0  0  0
    1.2726  -10.2285    3.0422 C   0  0  0  0  0  0  0  0  0  0  0  0
    0.5354   -9.1720    3.6115 C   0  0  0  0  0  0  0  0  0  0  0  0
    1.0956   -7.8831    3.6652 C   0  0  0  0  0  0  0  0  0  0  0  0
    2.3826   -7.6582    3.1482 C   0  0  0  0  0  0  0  0  0  0  0  0
    3.3229   -6.1680    3.1440 S   0  0  0  0  0  0  0  0  0  0  0  0
    8.4769   -3.5588   -0.0854 H   0  0  0  0  0  0  0  0  0  0  0  0
    6.6641   -1.8646   -0.6243 H   0  0  0  0  0  0  0  0  0  0  0  0
    5.4212   -4.4166   -1.7214 H   0  0  0  0  0  0  0  0  0  0  0  0
    3.1961   -3.8853   -3.3001 H   0  0  0  0  0  0  0  0  0  0  0  0
    2.2145   -1.5166   -4.2988 H   0  0  0  0  0  0  0  0  0  0  0  0
    3.8477    0.3985   -3.1843 H   0  0  0  0  0  0  0  0  0  0  0  0
    3.1305  -10.8034    2.0781 H   0  0  0  0  0  0  0  0  0  0  0  0
    0.8567  -11.2257    3.0040 H   0  0  0  0  0  0  0  0  0  0  0  0
   -0.4505   -9.3549    4.0223 H   0  0  0  0  0  0  0  0  0  0  0  0
    0.5671   -7.0567    4.1078 H   0  0  0  0  0  0  0  0  0  0  0  0
  1  2  2  0
  2 15  1  0
  2  3  1  0
  3  4  2  3
  3 12  1  0
  4  5  1  0
  4 25  1  0
  5  6  2  3
  5 26  1  0
  6  7  1  0
  6 27  1  0
  7 11  1  0
  7  8  2  0
  8  9  1  0
  8 28  1  0
  9 10  2  0
  9 29  1  0
 10 11  1  0
 10 30  1  0
 12 13  1  0
 13 14  2  0
 13 15  1  0
 15 16  1  0
 16 24  1  0
 16 17  2  0
 17 18  1  0
 18 23  2  0
 18 19  1  0
 19 20  2  0
 19 31  1  0
 20 21  1  0
 20 32  1  0
 21 22  2  0
 21 33  1  0
 22 23  1  0
 22 34  1  0
 23 24  1  0
M  END
>  <i_m_ct_stereo_status>  (317) 
1

>  <s_m_source_file>  (317) 
/var/tmp/pbs.5076255.sched01/tmppy4q9rbr/123plv7d954.sdf

>  <i_m_source_file_index>  (317) 
20

>  <i_lp_mmshare_version>  (317) 
48012

>  <i_f3d_flags>  (317) 
0

>  <s_epik_input>  (317) 
bzFbY0hdW2NIXVtjSF1jMVxbQ0hdPVtDSF1cW0NIXT1DKFxDMj1PKVNDKD1TKU4yYyhuMylzYyhjMzQpW2NIXVtjSF1bY0hdW2NIXTQ=

>  <s_epik_cmdline>  (317) 
J2VwaWtfcHl0aG9uJywgJy1waHQnLCAnMi4wJywgJy1waCcsICc3LjAnLCAnLXRuJywgJzgnLCAnLW1hJywgJzIwMCcsICctaW1hZScsICc8aW5maWxlLm1hZT4nLCAnLW9tYWUnLCAnPG91dGZpbGUubWFlPic=

>  <r_lp_tautomer_probability>  (317) 
1

>  <r_epik_Ionization_Penalty>  (317) 
2.96799e-06

>  <r_epik_Ionization_Penalty_Charging>  (317) 
0

>  <r_epik_Ionization_Penalty_Neutral>  (317) 
2.96799e-06

>  <r_epik_State_Penalty>  (317) 
-0

>  <r_epik_Charging_Adjusted_Penalty>  (317) 
0

>  <i_epik_Tot_Q>  (317) 
0

>  <i_epik_Tot_abs_Q>  (317) 
0

>  <s_lp_Force_Field>  (317) 
OPLS3e

>  <r_lp_Energy>  (317) 
26.4687

>  <b_lp_Chiralities_Consistent>  (317) 
1

>  <s_lp_Variant>  (317) 
104:0-2

>  <s_i_glide_gridfile>  (317) 
pfpi4k_grid

>  <i_i_glide_lignum>  (317) 
20

>  <i_i_glide_rotatable_bonds>  (317) 
3

>  <r_i_docking_score>  (317) 
-3.70828

>  <r_i_glide_ligand_efficiency>  (317) 
-0.154512

>  <r_i_glide_ligand_efficiency_sa>  (317) 
-0.445689

>  <r_i_glide_ligand_efficiency_ln>  (317) 
-0.887561

>  <r_i_glide_gscore>  (317) 
-3.70828

>  <r_i_glide_lipo>  (317) 
-1.06054

>  <r_i_glide_hbond>  (317) 
0

>  <r_i_glide_metal>  (317) 
-0

>  <r_i_glide_rewards>  (317) 
-1.10483

>  <r_i_glide_evdw>  (317) 
-32.5111

>  <r_i_glide_ecoul>  (317) 
-1.31949

>  <r_i_glide_erotb>  (317) 
0.28113

>  <r_i_glide_esite>  (317) 
-0.000555258

>  <r_i_glide_emodel>  (317) 
-39.6805

>  <r_i_glide_energy>  (317) 
-33.8306

>  <r_i_glide_einternal>  (317) 
4.09249

>  <r_i_glide_intrahb_reward>  (317) 
-0

>  <i_i_glide_confnum>  (317) 
6

>  <i_i_glide_posenum>  (317) 
10

>  <r_i_glide_eff_state_penalty>  (317) 
0

>  <ligand_id>  (317) 
104

>  <original_smiles>  (317) 
O=C1C(=CC=Cc2ccco2)SC(=S)N1c1nc2ccccc2s1

>  <smiles>  (317) 
[H]C(C([H])=C([H])c1oc([H])c([H])c1[H])=C1SC(=S)N(c2nc3c([H])c([H])c([H])c([H])c3s2)C1=O

$$$$
104:1:2
     RDKit          3D

 34 37  0  0  1  0  0  0  0  0999 V2000
    3.9581   -4.7643    0.8274 O   0  0  0  0  0  0  0  0  0  0  0  0
    4.8651   -5.5184    1.1940 C   0  0  0  0  0  0  0  0  0  0  0  0
    6.2756   -5.3940    0.8418 C   0  0  0  0  0  0  0  0  0  0  0  0
    6.8602   -4.4486    0.0754 C   0  0  0  0  0  0  0  0  0  0  0  0
    6.2313   -3.3584   -0.6537 C   0  0  0  0  0  0  0  0  0  0  0  0
    5.1731   -3.4830   -1.4789 C   0  0  0  0  0  0  0  0  0  0  0  0
    4.5062   -2.4413   -2.1905 C   0  0  0  0  0  0  0  0  0  0  0  0
    4.6585   -1.0809   -2.2205 C   0  0  0  0  0  0  0  0  0  0  0  0
    3.7000   -0.5886   -3.1492 C   0  0  0  0  0  0  0  0  0  0  0  0
    3.0292   -1.6833   -3.6109 C   0  0  0  0  0  0  0  0  0  0  0  0
    3.5121   -2.8205   -3.0420 O   0  0  0  0  0  0  0  0  0  0  0  0
    7.1573   -6.6802    1.6463 S   0  0  0  0  0  0  0  0  0  0  0  0
    5.7214   -7.3351    2.3633 C   0  0  0  0  0  0  0  0  0  0  0  0
    5.7729   -8.6602    3.3760 S   0  0  0  0  0  0  0  0  0  0  0  0
    4.6488   -6.5794    1.9969 N   0  0  0  0  0  0  0  0  0  0  0  0
    3.3271   -6.8343    2.4478 C   0  0  0  0  0  0  0  0  0  0  0  0
    2.6673   -7.9294    2.0503 N   0  0  0  0  0  0  0  0  0  0  0  0
    1.4006   -7.9410    2.6186 C   0  0  0  0  0  0  0  0  0  0  0  0
    0.4359   -8.9583    2.4925 C   0  0  0  0  0  0  0  0  0  0  0  0
   -0.8268   -8.8462    3.1036 C   0  0  0  0  0  0  0  0  0  0  0  0
   -1.1502   -7.7000    3.8561 C   0  0  0  0  0  0  0  0  0  0  0  0
   -0.1986   -6.6760    4.0090 C   0  0  0  0  0  0  0  0  0  0  0  0
    1.0607   -6.7973    3.3999 C   0  0  0  0  0  0  0  0  0  0  0  0
    2.4230   -5.6810    3.4538 S   0  0  0  0  0  0  0  0  0  0  0  0
    7.9322   -4.5285   -0.0425 H   0  0  0  0  0  0  0  0  0  0  0  0
    6.6538   -2.3756   -0.5111 H   0  0  0  0  0  0  0  0  0  0  0  0
    4.7442   -4.4631   -1.6312 H   0  0  0  0  0  0  0  0  0  0  0  0
    5.3673   -0.5173   -1.6330 H   0  0  0  0  0  0  0  0  0  0  0  0
    3.5107    0.4364   -3.4358 H   0  0  0  0  0  0  0  0  0  0  0  0
    2.2137   -1.8299   -4.3099 H   0  0  0  0  0  0  0  0  0  0  0  0
    0.6881   -9.8391    1.9176 H   0  0  0  0  0  0  0  0  0  0  0  0
   -1.5415   -9.6515    3.0008 H   0  0  0  0  0  0  0  0  0  0  0  0
   -2.1141   -7.6235    4.3374 H   0  0  0  0  0  0  0  0  0  0  0  0
   -0.4067   -5.7990    4.5989 H   0  0  0  0  0  0  0  0  0  0  0  0
  1  2  2  0
  2 15  1  0
  2  3  1  0
  3  4  2  3
  3 12  1  0
  4  5  1  0
  4 25  1  0
  5  6  2  3
  5 26  1  0
  6  7  1  0
  6 27  1  0
  7 11  1  0
  7  8  2  0
  8  9  1  0
  8 28  1  0
  9 10  2  0
  9 29  1  0
 10 11  1  0
 10 30  1  0
 12 13  1  0
 13 14  2  0
 13 15  1  0
 15 16  1  0
 16 24  1  0
 16 17  2  0
 17 18  1  0
 18 23  2  0
 18 19  1  0
 19 20  2  0
 19 31  1  0
 20 21  1  0
 20 32  1  0
 21 22  2  0
 21 33  1  0
 22 23  1  0
 22 34  1  0
 23 24  1  0
M  END
>  <i_m_ct_stereo_status>  (318) 
1

>  <s_m_source_file>  (318) 
/var/tmp/pbs.5076255.sched01/tmppy4q9rbr/123plv7d954.sdf

>  <i_m_source_file_index>  (318) 
20

>  <i_lp_mmshare_version>  (318) 
48012

>  <i_f3d_flags>  (318) 
0

>  <s_epik_input>  (318) 
bzFbY0hdW2NIXVtjSF1jMVxbQ0hdPVtDSF1cW0NIXT1DKFxDMj1PKVNDKD1TKU4yYyhuMylzYyhjMzQpW2NIXVtjSF1bY0hdW2NIXTQ=

>  <s_epik_cmdline>  (318) 
J2VwaWtfcHl0aG9uJywgJy1waHQnLCAnMi4wJywgJy1waCcsICc3LjAnLCAnLXRuJywgJzgnLCAnLW1hJywgJzIwMCcsICctaW1hZScsICc8aW5maWxlLm1hZT4nLCAnLW9tYWUnLCAnPG91dGZpbGUubWFlPic=

>  <r_lp_tautomer_probability>  (318) 
1

>  <r_epik_Ionization_Penalty>  (318) 
2.96799e-06

>  <r_epik_Ionization_Penalty_Charging>  (318) 
0

>  <r_epik_Ionization_Penalty_Neutral>  (318) 
2.96799e-06

>  <r_epik_State_Penalty>  (318) 
-0

>  <r_epik_Charging_Adjusted_Penalty>  (318) 
0

>  <i_epik_Tot_Q>  (318) 
0

>  <i_epik_Tot_abs_Q>  (318) 
0

>  <s_lp_Force_Field>  (318) 
OPLS3e

>  <r_lp_Energy>  (318) 
26.4687

>  <b_lp_Chiralities_Consistent>  (318) 
1

>  <s_lp_Variant>  (318) 
104:0-2

>  <s_i_glide_gridfile>  (318) 
pfpi4k_grid

>  <i_i_glide_lignum>  (318) 
20

>  <i_i_glide_rotatable_bonds>  (318) 
3

>  <r_i_docking_score>  (318) 
-3.26206

>  <r_i_glide_ligand_efficiency>  (318) 
-0.135919

>  <r_i_glide_ligand_efficiency_sa>  (318) 
-0.392058

>  <r_i_glide_ligand_efficiency_ln>  (318) 
-0.78076

>  <r_i_glide_gscore>  (318) 
-3.26206

>  <r_i_glide_lipo>  (318) 
-0.84271

>  <r_i_glide_hbond>  (318) 
0

>  <r_i_glide_metal>  (318) 
-0

>  <r_i_glide_rewards>  (318) 
-1.02544

>  <r_i_glide_evdw>  (318) 
-31.994

>  <r_i_glide_ecoul>  (318) 
-0.50091

>  <r_i_glide_erotb>  (318) 
0.28113

>  <r_i_glide_esite>  (318) 
-0.000198365

>  <r_i_glide_emodel>  (318) 
-37.4877

>  <r_i_glide_energy>  (318) 
-32.4949

>  <r_i_glide_einternal>  (318) 
3.89576

>  <r_i_glide_intrahb_reward>  (318) 
-0

>  <i_i_glide_confnum>  (318) 
5

>  <i_i_glide_posenum>  (318) 
28

>  <r_i_glide_eff_state_penalty>  (318) 
0

>  <ligand_id>  (318) 
104

>  <original_smiles>  (318) 
O=C1C(=CC=Cc2ccco2)SC(=S)N1c1nc2ccccc2s1

>  <smiles>  (318) 
[H]C(C([H])=C([H])c1oc([H])c([H])c1[H])=C1SC(=S)N(c2nc3c([H])c([H])c([H])c([H])c3s2)C1=O

$$$$
104:2:0
     RDKit          3D

 34 37  0  0  1  0  0  0  0  0999 V2000
    2.4053   -2.9984    3.0720 O   0  0  0  0  0  0  0  0  0  0  0  0
    3.3346   -3.5974    2.5242 C   0  0  0  0  0  0  0  0  0  0  0  0
    4.5898   -2.9982    2.1221 C   0  0  0  0  0  0  0  0  0  0  0  0
    4.8376   -1.6731    2.2051 C   0  0  0  0  0  0  0  0  0  0  0  0
    6.0213   -1.0277    1.6893 C   0  0  0  0  0  0  0  0  0  0  0  0
    6.5781   -1.1997    0.4674 C   0  0  0  0  0  0  0  0  0  0  0  0
    6.1619   -1.9952   -0.6486 C   0  0  0  0  0  0  0  0  0  0  0  0
    6.8176   -2.4521   -1.7690 C   0  0  0  0  0  0  0  0  0  0  0  0
    5.9018   -3.2950   -2.4551 C   0  0  0  0  0  0  0  0  0  0  0  0
    4.7697   -3.3245   -1.6955 C   0  0  0  0  0  0  0  0  0  0  0  0
    4.9084   -2.5411   -0.6041 O   0  0  0  0  0  0  0  0  0  0  0  0
    5.6157   -4.2518    1.4195 S   0  0  0  0  0  0  0  0  0  0  0  0
    4.3878   -5.4301    1.5488 C   0  0  0  0  0  0  0  0  0  0  0  0
    4.5959   -6.9913    0.9715 S   0  0  0  0  0  0  0  0  0  0  0  0
    3.2993   -4.9030    2.1777 N   0  0  0  0  0  0  0  0  0  0  0  0
    2.1577   -5.6622    2.5639 C   0  0  0  0  0  0  0  0  0  0  0  0
    1.3505   -6.2413    1.6591 N   0  0  0  0  0  0  0  0  0  0  0  0
    0.3839   -6.9717    2.3277 C   0  0  0  0  0  0  0  0  0  0  0  0
   -0.5893   -7.7595    1.7126 C   0  0  0  0  0  0  0  0  0  0  0  0
   -1.5679   -8.4118    2.4837 C   0  0  0  0  0  0  0  0  0  0  0  0
   -1.5670   -8.2882    3.8824 C   0  0  0  0  0  0  0  0  0  0  0  0
   -0.5875   -7.5112    4.5195 C   0  0  0  0  0  0  0  0  0  0  0  0
    0.3826   -6.8614    3.7447 C   0  0  0  0  0  0  0  0  0  0  0  0
    1.7340   -5.8621    4.2542 S   0  0  0  0  0  0  0  0  0  0  0  0
    4.0749   -1.0424    2.6307 H   0  0  0  0  0  0  0  0  0  0  0  0
    6.5191   -0.3577    2.3656 H   0  0  0  0  0  0  0  0  0  0  0  0
    7.4976   -0.6516    0.3120 H   0  0  0  0  0  0  0  0  0  0  0  0
    7.8487   -2.2720   -2.0422 H   0  0  0  0  0  0  0  0  0  0  0  0
    6.0843   -3.8484   -3.3686 H   0  0  0  0  0  0  0  0  0  0  0  0
    3.8315   -3.8524   -1.7770 H   0  0  0  0  0  0  0  0  0  0  0  0
   -0.5915   -7.8602    0.6327 H   0  0  0  0  0  0  0  0  0  0  0  0
   -2.3199   -9.0049    1.9968 H   0  0  0  0  0  0  0  0  0  0  0  0
   -2.2992   -8.8098    4.4756 H   0  0  0  0  0  0  0  0  0  0  0  0
   -0.5605   -7.4095    5.5882 H   0  0  0  0  0  0  0  0  0  0  0  0
  1  2  2  0
  2 15  1  0
  2  3  1  0
  3  4  2  3
  3 12  1  0
  4  5  1  0
  4 25  1  0
  5  6  2  3
  5 26  1  0
  6  7  1  0
  6 27  1  0
  7 11  1  0
  7  8  2  0
  8  9  1  0
  8 28  1  0
  9 10  2  0
  9 29  1  0
 10 11  1  0
 10 30  1  0
 12 13  1  0
 13 14  2  0
 13 15  1  0
 15 16  1  0
 16 24  1  0
 16 17  2  0
 17 18  1  0
 18 23  2  0
 18 19  1  0
 19 20  2  0
 19 31  1  0
 20 21  1  0
 20 32  1  0
 21 22  2  0
 21 33  1  0
 22 23  1  0
 22 34  1  0
 23 24  1  0
M  END
>  <i_m_ct_stereo_status>  (319) 
1

>  <s_m_source_file>  (319) 
/var/tmp/pbs.5076255.sched01/tmppy4q9rbr/123plv7d954.sdf

>  <i_m_source_file_index>  (319) 
21

>  <i_lp_mmshare_version>  (319) 
48012

>  <i_f3d_flags>  (319) 
0

>  <s_epik_input>  (319) 
bzFbY0hdW2NIXVtjSF1jMVxbQ0hdPVtDSF1cW0NIXT1DKFxDMj1PKVNDKD1TKU4yYyhuMylzYyhjMzQpW2NIXVtjSF1bY0hdW2NIXTQ=

>  <s_epik_cmdline>  (319) 
J2VwaWtfcHl0aG9uJywgJy1waHQnLCAnMi4wJywgJy1waCcsICc3LjAnLCAnLXRuJywgJzgnLCAnLW1hJywgJzIwMCcsICctaW1hZScsICc8aW5maWxlLm1hZT4nLCAnLW9tYWUnLCAnPG91dGZpbGUubWFlPic=

>  <r_lp_tautomer_probability>  (319) 
1

>  <r_epik_Ionization_Penalty>  (319) 
2.96799e-06

>  <r_epik_Ionization_Penalty_Charging>  (319) 
0

>  <r_epik_Ionization_Penalty_Neutral>  (319) 
2.96799e-06

>  <r_epik_State_Penalty>  (319) 
-0

>  <r_epik_Charging_Adjusted_Penalty>  (319) 
0

>  <i_epik_Tot_Q>  (319) 
0

>  <i_epik_Tot_abs_Q>  (319) 
0

>  <s_lp_Force_Field>  (319) 
OPLS3e

>  <r_lp_Energy>  (319) 
25.7039

>  <b_lp_Chiralities_Consistent>  (319) 
1

>  <s_lp_Variant>  (319) 
104:0-3

>  <s_i_glide_gridfile>  (319) 
pfpi4k_grid

>  <i_i_glide_lignum>  (319) 
21

>  <i_i_glide_rotatable_bonds>  (319) 
3

>  <r_i_docking_score>  (319) 
-3.21075

>  <r_i_glide_ligand_efficiency>  (319) 
-0.133781

>  <r_i_glide_ligand_efficiency_sa>  (319) 
-0.385892

>  <r_i_glide_ligand_efficiency_ln>  (319) 
-0.768479

>  <r_i_glide_gscore>  (319) 
-3.21075

>  <r_i_glide_lipo>  (319) 
-0.659534

>  <r_i_glide_hbond>  (319) 
-0.0383267

>  <r_i_glide_metal>  (319) 
-0

>  <r_i_glide_rewards>  (319) 
-1.06129

>  <r_i_glide_evdw>  (319) 
-30.3251

>  <r_i_glide_ecoul>  (319) 
-1.44311

>  <r_i_glide_erotb>  (319) 
0.28113

>  <r_i_glide_esite>  (319) 
0

>  <r_i_glide_emodel>  (319) 
-35.5234

>  <r_i_glide_energy>  (319) 
-31.7683

>  <r_i_glide_einternal>  (319) 
3.97771

>  <r_i_glide_intrahb_reward>  (319) 
-0

>  <i_i_glide_confnum>  (319) 
6

>  <i_i_glide_posenum>  (319) 
32

>  <r_i_glide_eff_state_penalty>  (319) 
0

>  <ligand_id>  (319) 
104

>  <original_smiles>  (319) 
O=C1C(=CC=Cc2ccco2)SC(=S)N1c1nc2ccccc2s1

>  <smiles>  (319) 
[H]C(C([H])=C([H])c1oc([H])c([H])c1[H])=C1SC(=S)N(c2nc3c([H])c([H])c([H])c([H])c3s2)C1=O

$$$$
104:2:1
     RDKit          3D

 34 37  0  0  1  0  0  0  0  0999 V2000
   -0.5740   -2.5260    5.2487 O   0  0  0  0  0  0  0  0  0  0  0  0
    0.2534   -2.0417    4.4660 C   0  0  0  0  0  0  0  0  0  0  0  0
    1.0784   -2.8069    3.5482 C   0  0  0  0  0  0  0  0  0  0  0  0
    1.0248   -4.1466    3.4566 C   0  0  0  0  0  0  0  0  0  0  0  0
    1.8272   -4.9402    2.5420 C   0  0  0  0  0  0  0  0  0  0  0  0
    1.6240   -6.2418    2.2576 C   0  0  0  0  0  0  0  0  0  0  0  0
    0.6086   -7.1557    2.6966 C   0  0  0  0  0  0  0  0  0  0  0  0
    0.3986   -8.4911    2.4693 C   0  0  0  0  0  0  0  0  0  0  0  0
   -0.7776   -8.8477    3.1925 C   0  0  0  0  0  0  0  0  0  0  0  0
   -1.2004   -7.7081    3.8079 C   0  0  0  0  0  0  0  0  0  0  0  0
   -0.3818   -6.6733    3.4982 O   0  0  0  0  0  0  0  0  0  0  0  0
    2.0462   -1.7015    2.5918 S   0  0  0  0  0  0  0  0  0  0  0  0
    1.3968   -0.3174    3.4079 C   0  0  0  0  0  0  0  0  0  0  0  0
    1.9172    1.2250    3.0566 S   0  0  0  0  0  0  0  0  0  0  0  0
    0.4773   -0.7187    4.3309 N   0  0  0  0  0  0  0  0  0  0  0  0
   -0.2466    0.1940    5.1437 C   0  0  0  0  0  0  0  0  0  0  0  0
   -0.0749    0.2042    6.4753 N   0  0  0  0  0  0  0  0  0  0  0  0
   -0.8730    1.1913    7.0384 C   0  0  0  0  0  0  0  0  0  0  0  0
   -0.9685    1.5131    8.4097 C   0  0  0  0  0  0  0  0  0  0  0  0
   -1.8260    2.5368    8.8583 C   0  0  0  0  0  0  0  0  0  0  0  0
   -2.6147    3.2523    7.9373 C   0  0  0  0  0  0  0  0  0  0  0  0
   -2.5458    2.9389    6.5678 C   0  0  0  0  0  0  0  0  0  0  0  0
   -1.6918    1.9176    6.1258 C   0  0  0  0  0  0  0  0  0  0  0  0
   -1.4423    1.3252    4.4851 S   0  0  0  0  0  0  0  0  0  0  0  0
    0.3622   -4.6383    4.1504 H   0  0  0  0  0  0  0  0  0  0  0  0
    2.6672   -4.4598    2.0606 H   0  0  0  0  0  0  0  0  0  0  0  0
    2.3415   -6.6826    1.5814 H   0  0  0  0  0  0  0  0  0  0  0  0
    1.0189   -9.1286    1.8549 H   0  0  0  0  0  0  0  0  0  0  0  0
   -1.2576   -9.8160    3.2691 H   0  0  0  0  0  0  0  0  0  0  0  0
   -2.0165   -7.4624    4.4731 H   0  0  0  0  0  0  0  0  0  0  0  0
   -0.3599    0.9680    9.1196 H   0  0  0  0  0  0  0  0  0  0  0  0
   -1.8763    2.7695    9.9129 H   0  0  0  0  0  0  0  0  0  0  0  0
   -3.2714    4.0397    8.2769 H   0  0  0  0  0  0  0  0  0  0  0  0
   -3.1408    3.4603    5.8380 H   0  0  0  0  0  0  0  0  0  0  0  0
  1  2  2  0
  2 15  1  0
  2  3  1  0
  3  4  2  3
  3 12  1  0
  4  5  1  0
  4 25  1  0
  5  6  2  3
  5 26  1  0
  6  7  1  0
  6 27  1  0
  7 11  1  0
  7  8  2  0
  8  9  1  0
  8 28  1  0
  9 10  2  0
  9 29  1  0
 10 11  1  0
 10 30  1  0
 12 13  1  0
 13 14  2  0
 13 15  1  0
 15 16  1  0
 16 24  1  0
 16 17  2  0
 17 18  1  0
 18 23  2  0
 18 19  1  0
 19 20  2  0
 19 31  1  0
 20 21  1  0
 20 32  1  0
 21 22  2  0
 21 33  1  0
 22 23  1  0
 22 34  1  0
 23 24  1  0
M  END
>  <i_m_ct_stereo_status>  (320) 
1

>  <s_m_source_file>  (320) 
/var/tmp/pbs.5076255.sched01/tmppy4q9rbr/123plv7d954.sdf

>  <i_m_source_file_index>  (320) 
21

>  <i_lp_mmshare_version>  (320) 
48012

>  <i_f3d_flags>  (320) 
0

>  <s_epik_input>  (320) 
bzFbY0hdW2NIXVtjSF1jMVxbQ0hdPVtDSF1cW0NIXT1DKFxDMj1PKVNDKD1TKU4yYyhuMylzYyhjMzQpW2NIXVtjSF1bY0hdW2NIXTQ=

>  <s_epik_cmdline>  (320) 
J2VwaWtfcHl0aG9uJywgJy1waHQnLCAnMi4wJywgJy1waCcsICc3LjAnLCAnLXRuJywgJzgnLCAnLW1hJywgJzIwMCcsICctaW1hZScsICc8aW5maWxlLm1hZT4nLCAnLW9tYWUnLCAnPG91dGZpbGUubWFlPic=

>  <r_lp_tautomer_probability>  (320) 
1

>  <r_epik_Ionization_Penalty>  (320) 
2.96799e-06

>  <r_epik_Ionization_Penalty_Charging>  (320) 
0

>  <r_epik_Ionization_Penalty_Neutral>  (320) 
2.96799e-06

>  <r_epik_State_Penalty>  (320) 
-0

>  <r_epik_Charging_Adjusted_Penalty>  (320) 
0

>  <i_epik_Tot_Q>  (320) 
0

>  <i_epik_Tot_abs_Q>  (320) 
0

>  <s_lp_Force_Field>  (320) 
OPLS3e

>  <r_lp_Energy>  (320) 
25.7039

>  <b_lp_Chiralities_Consistent>  (320) 
1

>  <s_lp_Variant>  (320) 
104:0-3

>  <s_i_glide_gridfile>  (320) 
pfpi4k_grid

>  <i_i_glide_lignum>  (320) 
21

>  <i_i_glide_rotatable_bonds>  (320) 
3

>  <r_i_docking_score>  (320) 
-2.95713

>  <r_i_glide_ligand_efficiency>  (320) 
-0.123214

>  <r_i_glide_ligand_efficiency_sa>  (320) 
-0.35541

>  <r_i_glide_ligand_efficiency_ln>  (320) 
-0.707777

>  <r_i_glide_gscore>  (320) 
-2.95713

>  <r_i_glide_lipo>  (320) 
-0.301516

>  <r_i_glide_hbond>  (320) 
-0.100685

>  <r_i_glide_metal>  (320) 
-0

>  <r_i_glide_rewards>  (320) 
-0.932797

>  <r_i_glide_evdw>  (320) 
-29.6065

>  <r_i_glide_ecoul>  (320) 
-2.66672

>  <r_i_glide_erotb>  (320) 
0.28113

>  <r_i_glide_esite>  (320) 
-0.022931

>  <r_i_glide_emodel>  (320) 
-37.7628

>  <r_i_glide_energy>  (320) 
-32.2732

>  <r_i_glide_einternal>  (320) 
1.14175

>  <r_i_glide_intrahb_reward>  (320) 
-0

>  <i_i_glide_confnum>  (320) 
6

>  <i_i_glide_posenum>  (320) 
29

>  <r_i_glide_eff_state_penalty>  (320) 
0

>  <ligand_id>  (320) 
104

>  <original_smiles>  (320) 
O=C1C(=CC=Cc2ccco2)SC(=S)N1c1nc2ccccc2s1

>  <smiles>  (320) 
[H]C(C([H])=C([H])c1oc([H])c([H])c1[H])=C1SC(=S)N(c2nc3c([H])c([H])c([H])c([H])c3s2)C1=O

$$$$
104:2:2
     RDKit          3D

 34 37  0  0  1  0  0  0  0  0999 V2000
    1.8884   -2.8061    2.3595 O   0  0  0  0  0  0  0  0  0  0  0  0
    2.7928   -3.3219    1.6917 C   0  0  0  0  0  0  0  0  0  0  0  0
    3.7524   -2.5983    0.8833 C   0  0  0  0  0  0  0  0  0  0  0  0
    3.7183   -1.2629    0.7111 C   0  0  0  0  0  0  0  0  0  0  0  0
    4.6354   -0.5389   -0.1400 C   0  0  0  0  0  0  0  0  0  0  0  0
    4.7525   -0.6843   -1.4772 C   0  0  0  0  0  0  0  0  0  0  0  0
    4.0587   -1.5151   -2.4068 C   0  0  0  0  0  0  0  0  0  0  0  0
    4.1741   -1.6701   -3.7635 C   0  0  0  0  0  0  0  0  0  0  0  0
    3.2352   -2.6770   -4.1280 C   0  0  0  0  0  0  0  0  0  0  0  0
    2.6102   -3.0499   -2.9748 C   0  0  0  0  0  0  0  0  0  0  0  0
    3.0825   -2.3338   -1.9274 O   0  0  0  0  0  0  0  0  0  0  0  0
    4.8944   -3.7482    0.1907 S   0  0  0  0  0  0  0  0  0  0  0  0
    4.0807   -5.0958    0.9125 C   0  0  0  0  0  0  0  0  0  0  0  0
    4.6271   -6.6589    0.7573 S   0  0  0  0  0  0  0  0  0  0  0  0
    3.0105   -4.6503    1.6231 N   0  0  0  0  0  0  0  0  0  0  0  0
    2.1808   -5.5178    2.3728 C   0  0  0  0  0  0  0  0  0  0  0  0
    1.2105   -6.2318    1.7796 N   0  0  0  0  0  0  0  0  0  0  0  0
    0.5673   -7.0082    2.7367 C   0  0  0  0  0  0  0  0  0  0  0  0
   -0.4889   -7.9117    2.5003 C   0  0  0  0  0  0  0  0  0  0  0  0
   -1.0728   -8.6324    3.5579 C   0  0  0  0  0  0  0  0  0  0  0  0
   -0.6137   -8.4533    4.8747 C   0  0  0  0  0  0  0  0  0  0  0  0
    0.4297   -7.5512    5.1375 C   0  0  0  0  0  0  0  0  0  0  0  0
    1.0153   -6.8366    4.0806 C   0  0  0  0  0  0  0  0  0  0  0  0
    2.3360   -5.6685    4.1340 S   0  0  0  0  0  0  0  0  0  0  0  0
    2.9384   -0.6863    1.1944 H   0  0  0  0  0  0  0  0  0  0  0  0
    5.2788    0.1671    0.3566 H   0  0  0  0  0  0  0  0  0  0  0  0
    5.4980   -0.0724   -1.9501 H   0  0  0  0  0  0  0  0  0  0  0  0
    4.8465   -1.1158   -4.4001 H   0  0  0  0  0  0  0  0  0  0  0  0
    3.0172   -3.0709   -5.1086 H   0  0  0  0  0  0  0  0  0  0  0  0
    1.8370   -3.7683   -2.7195 H   0  0  0  0  0  0  0  0  0  0  0  0
   -0.8239   -8.0725    1.4836 H   0  0  0  0  0  0  0  0  0  0  0  0
   -1.8655   -9.3401    3.3611 H   0  0  0  0  0  0  0  0  0  0  0  0
   -1.0501   -9.0328    5.6771 H   0  0  0  0  0  0  0  0  0  0  0  0
    0.7996   -7.4043    6.1374 H   0  0  0  0  0  0  0  0  0  0  0  0
  1  2  2  0
  2 15  1  0
  2  3  1  0
  3  4  2  3
  3 12  1  0
  4  5  1  0
  4 25  1  0
  5  6  2  3
  5 26  1  0
  6  7  1  0
  6 27  1  0
  7 11  1  0
  7  8  2  0
  8  9  1  0
  8 28  1  0
  9 10  2  0
  9 29  1  0
 10 11  1  0
 10 30  1  0
 12 13  1  0
 13 14  2  0
 13 15  1  0
 15 16  1  0
 16 24  1  0
 16 17  2  0
 17 18  1  0
 18 23  2  0
 18 19  1  0
 19 20  2  0
 19 31  1  0
 20 21  1  0
 20 32  1  0
 21 22  2  0
 21 33  1  0
 22 23  1  0
 22 34  1  0
 23 24  1  0
M  END
>  <i_m_ct_stereo_status>  (321) 
1

>  <s_m_source_file>  (321) 
/var/tmp/pbs.5076255.sched01/tmppy4q9rbr/123plv7d954.sdf

>  <i_m_source_file_index>  (321) 
21

>  <i_lp_mmshare_version>  (321) 
48012

>  <i_f3d_flags>  (321) 
0

>  <s_epik_input>  (321) 
bzFbY0hdW2NIXVtjSF1jMVxbQ0hdPVtDSF1cW0NIXT1DKFxDMj1PKVNDKD1TKU4yYyhuMylzYyhjMzQpW2NIXVtjSF1bY0hdW2NIXTQ=

>  <s_epik_cmdline>  (321) 
J2VwaWtfcHl0aG9uJywgJy1waHQnLCAnMi4wJywgJy1waCcsICc3LjAnLCAnLXRuJywgJzgnLCAnLW1hJywgJzIwMCcsICctaW1hZScsICc8aW5maWxlLm1hZT4nLCAnLW9tYWUnLCAnPG91dGZpbGUubWFlPic=

>  <r_lp_tautomer_probability>  (321) 
1

>  <r_epik_Ionization_Penalty>  (321) 
2.96799e-06

>  <r_epik_Ionization_Penalty_Charging>  (321) 
0

>  <r_epik_Ionization_Penalty_Neutral>  (321) 
2.96799e-06

>  <r_epik_State_Penalty>  (321) 
-0

>  <r_epik_Charging_Adjusted_Penalty>  (321) 
0

>  <i_epik_Tot_Q>  (321) 
0

>  <i_epik_Tot_abs_Q>  (321) 
0

>  <s_lp_Force_Field>  (321) 
OPLS3e

>  <r_lp_Energy>  (321) 
25.7039

>  <b_lp_Chiralities_Consistent>  (321) 
1

>  <s_lp_Variant>  (321) 
104:0-3

>  <s_i_glide_gridfile>  (321) 
pfpi4k_grid

>  <i_i_glide_lignum>  (321) 
21

>  <i_i_glide_rotatable_bonds>  (321) 
3

>  <r_i_docking_score>  (321) 
-2.86763

>  <r_i_glide_ligand_efficiency>  (321) 
-0.119485

>  <r_i_glide_ligand_efficiency_sa>  (321) 
-0.344653

>  <r_i_glide_ligand_efficiency_ln>  (321) 
-0.686356

>  <r_i_glide_gscore>  (321) 
-2.86763

>  <r_i_glide_lipo>  (321) 
-0.26781

>  <r_i_glide_hbond>  (321) 
-0.0511078

>  <r_i_glide_metal>  (321) 
-0

>  <r_i_glide_rewards>  (321) 
-1.08258

>  <r_i_glide_evdw>  (321) 
-31.1452

>  <r_i_glide_ecoul>  (321) 
-1.21451

>  <r_i_glide_erotb>  (321) 
0.28113

>  <r_i_glide_esite>  (321) 
-0.00782874

>  <r_i_glide_emodel>  (321) 
-35.8278

>  <r_i_glide_energy>  (321) 
-32.3597

>  <r_i_glide_einternal>  (321) 
4.86518

>  <r_i_glide_intrahb_reward>  (321) 
-0

>  <i_i_glide_confnum>  (321) 
6

>  <i_i_glide_posenum>  (321) 
37

>  <r_i_glide_eff_state_penalty>  (321) 
0

>  <ligand_id>  (321) 
104

>  <original_smiles>  (321) 
O=C1C(=CC=Cc2ccco2)SC(=S)N1c1nc2ccccc2s1

>  <smiles>  (321) 
[H]C(C([H])=C([H])c1oc([H])c([H])c1[H])=C1SC(=S)N(c2nc3c([H])c([H])c([H])c([H])c3s2)C1=O

$$$$
104:3:0
     RDKit          3D

 34 37  0  0  1  0  0  0  0  0999 V2000
    3.0353   -5.2243    1.5929 O   0  0  0  0  0  0  0  0  0  0  0  0
    2.6943   -4.1009    1.9757 C   0  0  0  0  0  0  0  0  0  0  0  0
    2.8859   -2.8504    1.2500 C   0  0  0  0  0  0  0  0  0  0  0  0
    3.4285   -2.6738    0.0275 C   0  0  0  0  0  0  0  0  0  0  0  0
    4.0074   -3.6840   -0.8451 C   0  0  0  0  0  0  0  0  0  0  0  0
    4.2165   -3.5185   -2.1649 C   0  0  0  0  0  0  0  0  0  0  0  0
    3.9776   -2.3913   -3.0130 C   0  0  0  0  0  0  0  0  0  0  0  0
    3.5414   -2.2913   -4.3069 C   0  0  0  0  0  0  0  0  0  0  0  0
    3.4495   -0.9010   -4.5995 C   0  0  0  0  0  0  0  0  0  0  0  0
    3.8139   -0.2569   -3.4546 C   0  0  0  0  0  0  0  0  0  0  0  0
    4.1417   -1.1471   -2.4853 O   0  0  0  0  0  0  0  0  0  0  0  0
    2.2185   -1.5453    2.2117 S   0  0  0  0  0  0  0  0  0  0  0  0
    1.6983   -2.6165    3.4693 C   0  0  0  0  0  0  0  0  0  0  0  0
    0.8885   -2.0869    4.8302 S   0  0  0  0  0  0  0  0  0  0  0  0
    2.0530   -3.8881    3.1451 N   0  0  0  0  0  0  0  0  0  0  0  0
    1.7846   -4.9864    3.9968 C   0  0  0  0  0  0  0  0  0  0  0  0
    0.7090   -5.7603    3.7899 N   0  0  0  0  0  0  0  0  0  0  0  0
    0.6948   -6.7755    4.7415 C   0  0  0  0  0  0  0  0  0  0  0  0
   -0.2724   -7.7932    4.8646 C   0  0  0  0  0  0  0  0  0  0  0  0
   -0.1822   -8.7555    5.8863 C   0  0  0  0  0  0  0  0  0  0  0  0
    0.8798   -8.7294    6.8068 C   0  0  0  0  0  0  0  0  0  0  0  0
    1.8572   -7.7242    6.7057 C   0  0  0  0  0  0  0  0  0  0  0  0
    1.7650   -6.7595    5.6870 C   0  0  0  0  0  0  0  0  0  0  0  0
    2.8518   -5.4161    5.3423 S   0  0  0  0  0  0  0  0  0  0  0  0
    3.4398   -1.6515   -0.3109 H   0  0  0  0  0  0  0  0  0  0  0  0
    4.3001   -4.6373   -0.4284 H   0  0  0  0  0  0  0  0  0  0  0  0
    4.6425   -4.3673   -2.6791 H   0  0  0  0  0  0  0  0  0  0  0  0
    3.2859   -3.1254   -4.9395 H   0  0  0  0  0  0  0  0  0  0  0  0
    3.1223   -0.4230   -5.5128 H   0  0  0  0  0  0  0  0  0  0  0  0
    3.8892    0.7835   -3.1620 H   0  0  0  0  0  0  0  0  0  0  0  0
   -1.0926   -7.8348    4.1629 H   0  0  0  0  0  0  0  0  0  0  0  0
   -0.9462   -9.5074    5.9683 H   0  0  0  0  0  0  0  0  0  0  0  0
    0.9530   -9.4855    7.5774 H   0  0  0  0  0  0  0  0  0  0  0  0
    2.6821   -7.6855    7.3984 H   0  0  0  0  0  0  0  0  0  0  0  0
  1  2  2  0
  2 15  1  0
  2  3  1  0
  3  4  2  3
  3 12  1  0
  4  5  1  0
  4 25  1  0
  5  6  2  3
  5 26  1  0
  6  7  1  0
  6 27  1  0
  7 11  1  0
  7  8  2  0
  8  9  1  0
  8 28  1  0
  9 10  2  0
  9 29  1  0
 10 11  1  0
 10 30  1  0
 12 13  1  0
 13 14  2  0
 13 15  1  0
 15 16  1  0
 16 24  1  0
 16 17  2  0
 17 18  1  0
 18 23  2  0
 18 19  1  0
 19 20  2  0
 19 31  1  0
 20 21  1  0
 20 32  1  0
 21 22  2  0
 21 33  1  0
 22 23  1  0
 22 34  1  0
 23 24  1  0
M  END
>  <i_m_ct_stereo_status>  (322) 
1

>  <s_m_source_file>  (322) 
/var/tmp/pbs.5076255.sched01/tmppy4q9rbr/123plv7d954.sdf

>  <i_m_source_file_index>  (322) 
22

>  <i_lp_mmshare_version>  (322) 
48012

>  <i_f3d_flags>  (322) 
0

>  <s_epik_input>  (322) 
bzFbY0hdW2NIXVtjSF1jMVxbQ0hdPVtDSF1cW0NIXT1DKFxDMj1PKVNDKD1TKU4yYyhuMylzYyhjMzQpW2NIXVtjSF1bY0hdW2NIXTQ=

>  <s_epik_cmdline>  (322) 
J2VwaWtfcHl0aG9uJywgJy1waHQnLCAnMi4wJywgJy1waCcsICc3LjAnLCAnLXRuJywgJzgnLCAnLW1hJywgJzIwMCcsICctaW1hZScsICc8aW5maWxlLm1hZT4nLCAnLW9tYWUnLCAnPG91dGZpbGUubWFlPic=

>  <r_lp_tautomer_probability>  (322) 
1

>  <r_epik_Ionization_Penalty>  (322) 
2.96799e-06

>  <r_epik_Ionization_Penalty_Charging>  (322) 
0

>  <r_epik_Ionization_Penalty_Neutral>  (322) 
2.96799e-06

>  <r_epik_State_Penalty>  (322) 
-0

>  <r_epik_Charging_Adjusted_Penalty>  (322) 
0

>  <i_epik_Tot_Q>  (322) 
0

>  <i_epik_Tot_abs_Q>  (322) 
0

>  <s_lp_Force_Field>  (322) 
OPLS3e

>  <r_lp_Energy>  (322) 
28.5446

>  <b_lp_Chiralities_Consistent>  (322) 
1

>  <s_lp_Variant>  (322) 
104:0-4

>  <s_i_glide_gridfile>  (322) 
pfpi4k_grid

>  <i_i_glide_lignum>  (322) 
22

>  <i_i_glide_rotatable_bonds>  (322) 
3

>  <r_i_docking_score>  (322) 
-2.94223

>  <r_i_glide_ligand_efficiency>  (322) 
-0.122593

>  <r_i_glide_ligand_efficiency_sa>  (322) 
-0.353619

>  <r_i_glide_ligand_efficiency_ln>  (322) 
-0.70421

>  <r_i_glide_gscore>  (322) 
-2.94223

>  <r_i_glide_lipo>  (322) 
-0.37304

>  <r_i_glide_hbond>  (322) 
0

>  <r_i_glide_metal>  (322) 
-0

>  <r_i_glide_rewards>  (322) 
-0.924663

>  <r_i_glide_evdw>  (322) 
-27.0832

>  <r_i_glide_ecoul>  (322) 
-3.74981

>  <r_i_glide_erotb>  (322) 
0.28113

>  <r_i_glide_esite>  (322) 
-0.00902479

>  <r_i_glide_emodel>  (322) 
-35.0706

>  <r_i_glide_energy>  (322) 
-30.833

>  <r_i_glide_einternal>  (322) 
3.64109

>  <r_i_glide_intrahb_reward>  (322) 
-0

>  <i_i_glide_confnum>  (322) 
6

>  <i_i_glide_posenum>  (322) 
13

>  <r_i_glide_eff_state_penalty>  (322) 
0

>  <ligand_id>  (322) 
104

>  <original_smiles>  (322) 
O=C1C(=CC=Cc2ccco2)SC(=S)N1c1nc2ccccc2s1

>  <smiles>  (322) 
[H]C(C([H])=C([H])c1oc([H])c([H])c1[H])=C1SC(=S)N(c2nc3c([H])c([H])c([H])c([H])c3s2)C1=O

$$$$
104:3:1
     RDKit          3D

 34 37  0  0  1  0  0  0  0  0999 V2000
    2.3797   -3.5247    2.8145 O   0  0  0  0  0  0  0  0  0  0  0  0
    2.1181   -2.3169    2.7870 C   0  0  0  0  0  0  0  0  0  0  0  0
    2.4210   -1.4051    1.6974 C   0  0  0  0  0  0  0  0  0  0  0  0
    3.0190   -1.6847    0.5264 C   0  0  0  0  0  0  0  0  0  0  0  0
    3.5368   -2.9613    0.0435 C   0  0  0  0  0  0  0  0  0  0  0  0
    3.9577   -3.2018   -1.2175 C   0  0  0  0  0  0  0  0  0  0  0  0
    4.0234   -2.3500   -2.3725 C   0  0  0  0  0  0  0  0  0  0  0  0
    4.3077   -2.5737   -3.6949 C   0  0  0  0  0  0  0  0  0  0  0  0
    4.1786   -1.3132   -4.3562 C   0  0  0  0  0  0  0  0  0  0  0  0
    3.8188   -0.4204   -3.3958 C   0  0  0  0  0  0  0  0  0  0  0  0
    3.7358   -1.0348   -2.1971 O   0  0  0  0  0  0  0  0  0  0  0  0
    1.8177    0.1882    2.1156 S   0  0  0  0  0  0  0  0  0  0  0  0
    1.2028   -0.3520    3.6379 C   0  0  0  0  0  0  0  0  0  0  0  0
    0.4486    0.6816    4.7113 S   0  0  0  0  0  0  0  0  0  0  0  0
    1.4684   -1.6796    3.7820 N   0  0  0  0  0  0  0  0  0  0  0  0
    1.1143   -2.4085    4.9421 C   0  0  0  0  0  0  0  0  0  0  0  0
   -0.1677   -2.7079    5.1907 N   0  0  0  0  0  0  0  0  0  0  0  0
   -0.2394   -3.4453    6.3631 C   0  0  0  0  0  0  0  0  0  0  0  0
   -1.4188   -3.9241    6.9694 C   0  0  0  0  0  0  0  0  0  0  0  0
   -1.3699   -4.6617    8.1651 C   0  0  0  0  0  0  0  0  0  0  0  0
   -0.1326   -4.9354    8.7785 C   0  0  0  0  0  0  0  0  0  0  0  0
    1.0581   -4.4673    8.1945 C   0  0  0  0  0  0  0  0  0  0  0  0
    1.0038   -3.7261    7.0025 C   0  0  0  0  0  0  0  0  0  0  0  0
    2.3272   -3.0188    6.0806 S   0  0  0  0  0  0  0  0  0  0  0  0
    3.0992   -0.8137   -0.0944 H   0  0  0  0  0  0  0  0  0  0  0  0
    3.6047   -3.7916    0.7302 H   0  0  0  0  0  0  0  0  0  0  0  0
    4.3092   -4.2064   -1.4036 H   0  0  0  0  0  0  0  0  0  0  0  0
    4.5701   -3.5315   -4.1216 H   0  0  0  0  0  0  0  0  0  0  0  0
    4.3123   -1.0503   -5.3930 H   0  0  0  0  0  0  0  0  0  0  0  0
    3.5966    0.6358   -3.3878 H   0  0  0  0  0  0  0  0  0  0  0  0
   -2.3686   -3.7323    6.4917 H   0  0  0  0  0  0  0  0  0  0  0  0
   -2.2854   -5.0362    8.5985 H   0  0  0  0  0  0  0  0  0  0  0  0
   -0.0861   -5.5078    9.6930 H   0  0  0  0  0  0  0  0  0  0  0  0
    2.0154   -4.6667    8.6505 H   0  0  0  0  0  0  0  0  0  0  0  0
  1  2  2  0
  2 15  1  0
  2  3  1  0
  3  4  2  3
  3 12  1  0
  4  5  1  0
  4 25  1  0
  5  6  2  3
  5 26  1  0
  6  7  1  0
  6 27  1  0
  7 11  1  0
  7  8  2  0
  8  9  1  0
  8 28  1  0
  9 10  2  0
  9 29  1  0
 10 11  1  0
 10 30  1  0
 12 13  1  0
 13 14  2  0
 13 15  1  0
 15 16  1  0
 16 24  1  0
 16 17  2  0
 17 18  1  0
 18 23  2  0
 18 19  1  0
 19 20  2  0
 19 31  1  0
 20 21  1  0
 20 32  1  0
 21 22  2  0
 21 33  1  0
 22 23  1  0
 22 34  1  0
 23 24  1  0
M  END
>  <i_m_ct_stereo_status>  (323) 
1

>  <s_m_source_file>  (323) 
/var/tmp/pbs.5076255.sched01/tmppy4q9rbr/123plv7d954.sdf

>  <i_m_source_file_index>  (323) 
22

>  <i_lp_mmshare_version>  (323) 
48012

>  <i_f3d_flags>  (323) 
0

>  <s_epik_input>  (323) 
bzFbY0hdW2NIXVtjSF1jMVxbQ0hdPVtDSF1cW0NIXT1DKFxDMj1PKVNDKD1TKU4yYyhuMylzYyhjMzQpW2NIXVtjSF1bY0hdW2NIXTQ=

>  <s_epik_cmdline>  (323) 
J2VwaWtfcHl0aG9uJywgJy1waHQnLCAnMi4wJywgJy1waCcsICc3LjAnLCAnLXRuJywgJzgnLCAnLW1hJywgJzIwMCcsICctaW1hZScsICc8aW5maWxlLm1hZT4nLCAnLW9tYWUnLCAnPG91dGZpbGUubWFlPic=

>  <r_lp_tautomer_probability>  (323) 
1

>  <r_epik_Ionization_Penalty>  (323) 
2.96799e-06

>  <r_epik_Ionization_Penalty_Charging>  (323) 
0

>  <r_epik_Ionization_Penalty_Neutral>  (323) 
2.96799e-06

>  <r_epik_State_Penalty>  (323) 
-0

>  <r_epik_Charging_Adjusted_Penalty>  (323) 
0

>  <i_epik_Tot_Q>  (323) 
0

>  <i_epik_Tot_abs_Q>  (323) 
0

>  <s_lp_Force_Field>  (323) 
OPLS3e

>  <r_lp_Energy>  (323) 
28.5446

>  <b_lp_Chiralities_Consistent>  (323) 
1

>  <s_lp_Variant>  (323) 
104:0-4

>  <s_i_glide_gridfile>  (323) 
pfpi4k_grid

>  <i_i_glide_lignum>  (323) 
22

>  <i_i_glide_rotatable_bonds>  (323) 
3

>  <r_i_docking_score>  (323) 
-2.56494

>  <r_i_glide_ligand_efficiency>  (323) 
-0.106872

>  <r_i_glide_ligand_efficiency_sa>  (323) 
-0.308273

>  <r_i_glide_ligand_efficiency_ln>  (323) 
-0.613907

>  <r_i_glide_gscore>  (323) 
-2.56494

>  <r_i_glide_lipo>  (323) 
-0.402261

>  <r_i_glide_hbond>  (323) 
0

>  <r_i_glide_metal>  (323) 
-0

>  <r_i_glide_rewards>  (323) 
-0.885551

>  <r_i_glide_evdw>  (323) 
-28.4098

>  <r_i_glide_ecoul>  (323) 
-0.770993

>  <r_i_glide_erotb>  (323) 
0.28113

>  <r_i_glide_esite>  (323) 
-0.022117

>  <r_i_glide_emodel>  (323) 
-33.8322

>  <r_i_glide_energy>  (323) 
-29.1808

>  <r_i_glide_einternal>  (323) 
0.590497

>  <r_i_glide_intrahb_reward>  (323) 
-0

>  <i_i_glide_confnum>  (323) 
6

>  <i_i_glide_posenum>  (323) 
3

>  <r_i_glide_eff_state_penalty>  (323) 
0

>  <ligand_id>  (323) 
104

>  <original_smiles>  (323) 
O=C1C(=CC=Cc2ccco2)SC(=S)N1c1nc2ccccc2s1

>  <smiles>  (323) 
[H]C(C([H])=C([H])c1oc([H])c([H])c1[H])=C1SC(=S)N(c2nc3c([H])c([H])c([H])c([H])c3s2)C1=O

$$$$
104:3:2
     RDKit          3D

 34 37  0  0  1  0  0  0  0  0999 V2000
    1.1170   -1.7888    4.3812 O   0  0  0  0  0  0  0  0  0  0  0  0
    1.8137   -2.1284    3.4169 C   0  0  0  0  0  0  0  0  0  0  0  0
    1.9328   -3.4774    2.8849 C   0  0  0  0  0  0  0  0  0  0  0  0
    1.3076   -4.5937    3.3000 C   0  0  0  0  0  0  0  0  0  0  0  0
    0.3686   -4.7624    4.4053 C   0  0  0  0  0  0  0  0  0  0  0  0
   -0.3122   -5.8954    4.6813 C   0  0  0  0  0  0  0  0  0  0  0  0
   -0.3321   -7.1723    4.0230 C   0  0  0  0  0  0  0  0  0  0  0  0
   -1.0483   -8.3213    4.2312 C   0  0  0  0  0  0  0  0  0  0  0  0
   -0.6129   -9.2512    3.2459 C   0  0  0  0  0  0  0  0  0  0  0  0
    0.3307   -8.6095    2.5071 C   0  0  0  0  0  0  0  0  0  0  0  0
    0.4974   -7.3471    2.9597 O   0  0  0  0  0  0  0  0  0  0  0  0
    3.0254   -3.4514    1.5166 S   0  0  0  0  0  0  0  0  0  0  0  0
    3.3045   -1.7514    1.6650 C   0  0  0  0  0  0  0  0  0  0  0  0
    4.3634   -0.9435    0.6611 S   0  0  0  0  0  0  0  0  0  0  0  0
    2.5721   -1.2677    2.7050 N   0  0  0  0  0  0  0  0  0  0  0  0
    2.5756    0.1038    3.0522 C   0  0  0  0  0  0  0  0  0  0  0  0
    3.2484    0.5302    4.1320 N   0  0  0  0  0  0  0  0  0  0  0  0
    3.0770    1.9037    4.2634 C   0  0  0  0  0  0  0  0  0  0  0  0
    3.6267    2.7276    5.2704 C   0  0  0  0  0  0  0  0  0  0  0  0
    3.3945    4.1171    5.2779 C   0  0  0  0  0  0  0  0  0  0  0  0
    2.5987    4.7088    4.2766 C   0  0  0  0  0  0  0  0  0  0  0  0
    2.0311    3.9064    3.2715 C   0  0  0  0  0  0  0  0  0  0  0  0
    2.2644    2.5226    3.2670 C   0  0  0  0  0  0  0  0  0  0  0  0
    1.6700    1.3133    2.1296 S   0  0  0  0  0  0  0  0  0  0  0  0
    1.5911   -5.4444    2.7097 H   0  0  0  0  0  0  0  0  0  0  0  0
    0.1894   -3.9330    5.0714 H   0  0  0  0  0  0  0  0  0  0  0  0
   -0.9600   -5.8493    5.5440 H   0  0  0  0  0  0  0  0  0  0  0  0
   -1.7821   -8.4874    5.0026 H   0  0  0  0  0  0  0  0  0  0  0  0
   -0.9430  -10.2662    3.0991 H   0  0  0  0  0  0  0  0  0  0  0  0
    0.9553   -8.8812    1.6682 H   0  0  0  0  0  0  0  0  0  0  0  0
    4.2400    2.2728    6.0355 H   0  0  0  0  0  0  0  0  0  0  0  0
    3.8297    4.7297    6.0529 H   0  0  0  0  0  0  0  0  0  0  0  0
    2.4158    5.7726    4.2686 H   0  0  0  0  0  0  0  0  0  0  0  0
    1.4189    4.3271    2.4863 H   0  0  0  0  0  0  0  0  0  0  0  0
  1  2  2  0
  2 15  1  0
  2  3  1  0
  3  4  2  3
  3 12  1  0
  4  5  1  0
  4 25  1  0
  5  6  2  3
  5 26  1  0
  6  7  1  0
  6 27  1  0
  7 11  1  0
  7  8  2  0
  8  9  1  0
  8 28  1  0
  9 10  2  0
  9 29  1  0
 10 11  1  0
 10 30  1  0
 12 13  1  0
 13 14  2  0
 13 15  1  0
 15 16  1  0
 16 24  1  0
 16 17  2  0
 17 18  1  0
 18 23  2  0
 18 19  1  0
 19 20  2  0
 19 31  1  0
 20 21  1  0
 20 32  1  0
 21 22  2  0
 21 33  1  0
 22 23  1  0
 22 34  1  0
 23 24  1  0
M  END
>  <i_m_ct_stereo_status>  (324) 
1

>  <s_m_source_file>  (324) 
/var/tmp/pbs.5076255.sched01/tmppy4q9rbr/123plv7d954.sdf

>  <i_m_source_file_index>  (324) 
22

>  <i_lp_mmshare_version>  (324) 
48012

>  <i_f3d_flags>  (324) 
0

>  <s_epik_input>  (324) 
bzFbY0hdW2NIXVtjSF1jMVxbQ0hdPVtDSF1cW0NIXT1DKFxDMj1PKVNDKD1TKU4yYyhuMylzYyhjMzQpW2NIXVtjSF1bY0hdW2NIXTQ=

>  <s_epik_cmdline>  (324) 
J2VwaWtfcHl0aG9uJywgJy1waHQnLCAnMi4wJywgJy1waCcsICc3LjAnLCAnLXRuJywgJzgnLCAnLW1hJywgJzIwMCcsICctaW1hZScsICc8aW5maWxlLm1hZT4nLCAnLW9tYWUnLCAnPG91dGZpbGUubWFlPic=

>  <r_lp_tautomer_probability>  (324) 
1

>  <r_epik_Ionization_Penalty>  (324) 
2.96799e-06

>  <r_epik_Ionization_Penalty_Charging>  (324) 
0

>  <r_epik_Ionization_Penalty_Neutral>  (324) 
2.96799e-06

>  <r_epik_State_Penalty>  (324) 
-0

>  <r_epik_Charging_Adjusted_Penalty>  (324) 
0

>  <i_epik_Tot_Q>  (324) 
0

>  <i_epik_Tot_abs_Q>  (324) 
0

>  <s_lp_Force_Field>  (324) 
OPLS3e

>  <r_lp_Energy>  (324) 
28.5446

>  <b_lp_Chiralities_Consistent>  (324) 
1

>  <s_lp_Variant>  (324) 
104:0-4

>  <s_i_glide_gridfile>  (324) 
pfpi4k_grid

>  <i_i_glide_lignum>  (324) 
22

>  <i_i_glide_rotatable_bonds>  (324) 
3

>  <r_i_docking_score>  (324) 
-2.52357

>  <r_i_glide_ligand_efficiency>  (324) 
-0.105149

>  <r_i_glide_ligand_efficiency_sa>  (324) 
-0.303301

>  <r_i_glide_ligand_efficiency_ln>  (324) 
-0.604005

>  <r_i_glide_gscore>  (324) 
-2.52357

>  <r_i_glide_lipo>  (324) 
0

>  <r_i_glide_hbond>  (324) 
0

>  <r_i_glide_metal>  (324) 
-0

>  <r_i_glide_rewards>  (324) 
-0.959947

>  <r_i_glide_evdw>  (324) 
-28.6696

>  <r_i_glide_ecoul>  (324) 
-2.56099

>  <r_i_glide_erotb>  (324) 
0.28113

>  <r_i_glide_esite>  (324) 
-0.0271227

>  <r_i_glide_emodel>  (324) 
-35.9911

>  <r_i_glide_energy>  (324) 
-31.2305

>  <r_i_glide_einternal>  (324) 
0.522974

>  <r_i_glide_intrahb_reward>  (324) 
-0

>  <i_i_glide_confnum>  (324) 
6

>  <i_i_glide_posenum>  (324) 
23

>  <r_i_glide_eff_state_penalty>  (324) 
0

>  <ligand_id>  (324) 
104

>  <original_smiles>  (324) 
O=C1C(=CC=Cc2ccco2)SC(=S)N1c1nc2ccccc2s1

>  <smiles>  (324) 
[H]C(C([H])=C([H])c1oc([H])c([H])c1[H])=C1SC(=S)N(c2nc3c([H])c([H])c([H])c([H])c3s2)C1=O

$$$$
108:0:0
     RDKit          3D

 66 70  0  0  1  0  0  0  0  0999 V2000
    1.8483   -4.2519   -0.9155 C   0  0  0  0  0  0  0  0  0  0  0  0
    2.9359   -4.2896   -0.1167 C   0  0  0  0  0  0  0  0  0  0  0  0
    2.9160   -5.0316    1.2238 C   0  0  2  0  0  0  0  0  0  0  0  0
    2.0508   -6.2848    1.4154 C   0  0  0  0  0  0  0  0  0  0  0  0
    2.0425   -6.5334    2.9499 C   0  0  2  0  0  0  0  0  0  0  0  0
    3.2646   -7.4021    3.3496 C   0  0  0  0  0  0  0  0  0  0  0  0
    0.7073   -7.2266    3.4008 C   0  0  1  0  0  0  0  0  0  0  0  0
    0.5127   -8.6789    2.9010 C   0  0  0  0  0  0  0  0  0  0  0  0
    0.4928   -7.1179    4.9248 C   0  0  0  0  0  0  0  0  0  0  0  0
    0.0835   -8.0503    5.6085 O   0  0  0  0  0  0  0  0  0  0  0  0
    0.7811   -5.7602    5.5563 C   0  0  0  0  0  0  0  0  0  0  0  0
    1.0517   -4.6980    4.4828 C   0  0  0  0  0  0  0  0  0  0  0  0
    2.2283   -5.0962    3.5601 C   0  0  2  0  0  0  0  0  0  0  0  0
    2.4140   -4.1367    2.3569 C   0  0  1  0  0  0  0  0  0  0  0  0
    3.2541   -2.8468    2.4675 C   0  0  1  0  0  0  0  0  0  0  0  0
    3.2010   -2.0803    3.8071 C   0  0  0  0  0  0  0  0  0  0  0  0
    4.5664   -1.4625    3.8832 C   0  0  0  0  0  0  0  0  0  0  0  0
    4.9106   -0.4570    4.8869 C   0  0  0  0  0  0  0  0  0  0  0  0
    4.1195   -0.0329    5.7303 O   0  0  0  0  0  0  0  0  0  0  0  0
    5.4052   -1.9430    2.9628 C   0  0  0  0  0  0  0  0  0  0  0  0
    4.7560   -2.9741    2.0695 C   0  0  2  0  0  0  0  0  0  0  0  0
    5.1738   -2.8758    0.5410 C   0  0  2  0  0  0  0  0  0  0  0  0
    6.6382   -3.4458    0.5160 C   0  0  0  0  0  0  0  0  0  0  0  0
    5.2304   -1.4158   -0.0532 C   0  0  1  0  0  0  0  0  0  0  0  0
    4.1059   -0.4491    0.3709 C   0  0  0  0  0  0  0  0  0  0  0  0
    6.4327   -0.7409    0.2384 O   0  0  0  0  0  0  0  0  0  0  0  0
    5.1870   -1.6171   -1.5690 C   0  0  0  0  0  0  0  0  0  0  0  0
    4.1413   -2.7021   -1.7491 C   0  0  0  0  0  0  0  0  0  0  0  0
    4.2850   -3.6695   -0.5393 C   0  0  2  0  0  0  0  0  0  0  0  0
    5.0082   -4.7587   -1.0732 O   0  0  0  0  0  0  0  0  0  0  0  0
    1.8371   -3.7844   -1.8914 H   0  0  0  0  0  0  0  0  0  0  0  0
    0.9718   -4.8079   -0.6738 H   0  0  0  0  0  0  0  0  0  0  0  0
    3.9355   -5.3704    1.4097 H   0  0  0  0  0  0  0  0  0  0  0  0
    1.0295   -6.1173    1.0769 H   0  0  0  0  0  0  0  0  0  0  0  0
    2.4421   -7.1435    0.8713 H   0  0  0  0  0  0  0  0  0  0  0  0
    3.2966   -7.5821    4.4240 H   0  0  0  0  0  0  0  0  0  0  0  0
    4.2068   -6.9205    3.0829 H   0  0  0  0  0  0  0  0  0  0  0  0
    3.2578   -8.3756    2.8565 H   0  0  0  0  0  0  0  0  0  0  0  0
   -0.1153   -6.6570    2.9695 H   0  0  0  0  0  0  0  0  0  0  0  0
   -0.5107   -9.0126    3.0775 H   0  0  0  0  0  0  0  0  0  0  0  0
    1.1626   -9.3905    3.4129 H   0  0  0  0  0  0  0  0  0  0  0  0
    0.6959   -8.7700    1.8308 H   0  0  0  0  0  0  0  0  0  0  0  0
   -0.0657   -5.4783    6.1816 H   0  0  0  0  0  0  0  0  0  0  0  0
    1.6420   -5.8552    6.2152 H   0  0  0  0  0  0  0  0  0  0  0  0
    0.1488   -4.5570    3.8877 H   0  0  0  0  0  0  0  0  0  0  0  0
    1.2281   -3.7446    4.9730 H   0  0  0  0  0  0  0  0  0  0  0  0
    3.1402   -5.0748    4.1571 H   0  0  0  0  0  0  0  0  0  0  0  0
    1.4142   -3.8100    2.0915 H   0  0  0  0  0  0  0  0  0  0  0  0
    2.7994   -2.1779    1.7421 H   0  0  0  0  0  0  0  0  0  0  0  0
    2.4148   -1.3212    3.8271 H   0  0  0  0  0  0  0  0  0  0  0  0
    3.1073   -2.7327    4.6730 H   0  0  0  0  0  0  0  0  0  0  0  0
    5.9410   -0.1025    4.8533 H   0  0  0  0  0  0  0  0  0  0  0  0
    6.4308   -1.6355    2.8516 H   0  0  0  0  0  0  0  0  0  0  0  0
    5.1291   -3.9186    2.4689 H   0  0  0  0  0  0  0  0  0  0  0  0
    7.0905   -3.3982   -0.4744 H   0  0  0  0  0  0  0  0  0  0  0  0
    6.6651   -4.4875    0.8324 H   0  0  0  0  0  0  0  0  0  0  0  0
    7.3086   -2.9109    1.1820 H   0  0  0  0  0  0  0  0  0  0  0  0
    3.1149   -0.7986    0.0843 H   0  0  0  0  0  0  0  0  0  0  0  0
    4.2302    0.5053   -0.1272 H   0  0  0  0  0  0  0  0  0  0  0  0
    4.1017   -0.2167    1.4318 H   0  0  0  0  0  0  0  0  0  0  0  0
    6.4277   -0.5188    1.1609 H   0  0  0  0  0  0  0  0  0  0  0  0
    4.9363   -0.7067   -2.1169 H   0  0  0  0  0  0  0  0  0  0  0  0
    6.1447   -1.9703   -1.9500 H   0  0  0  0  0  0  0  0  0  0  0  0
    3.1804   -2.1858   -1.7312 H   0  0  0  0  0  0  0  0  0  0  0  0
    4.2164   -3.1976   -2.7218 H   0  0  0  0  0  0  0  0  0  0  0  0
    4.4372   -5.2253   -1.6639 H   0  0  0  0  0  0  0  0  0  0  0  0
  1  2  2  0
  1 31  1  0
  1 32  1  0
  2 29  1  0
  2  3  1  0
  3 14  1  0
  3  4  1  0
  3 33  1  1
  4  5  1  0
  4 34  1  0
  4 35  1  0
  5 13  1  0
  5  6  1  6
  5  7  1  0
  6 36  1  0
  6 37  1  0
  6 38  1  0
  7  8  1  0
  7  9  1  0
  7 39  1  6
  8 40  1  0
  8 41  1  0
  8 42  1  0
  9 10  2  0
  9 11  1  0
 11 12  1  0
 11 43  1  0
 11 44  1  0
 12 13  1  0
 12 45  1  0
 12 46  1  0
 13 14  1  0
 13 47  1  1
 14 15  1  0
 14 48  1  6
 15 21  1  0
 15 16  1  0
 15 49  1  6
 16 17  1  0
 16 50  1  0
 16 51  1  0
 17 18  1  0
 17 20  2  0
 18 19  2  0
 18 52  1  0
 20 21  1  0
 20 53  1  0
 21 22  1  0
 21 54  1  1
 22 29  1  0
 22 23  1  1
 22 24  1  0
 23 55  1  0
 23 56  1  0
 23 57  1  0
 24 25  1  0
 24 26  1  6
 24 27  1  0
 25 58  1  0
 25 59  1  0
 25 60  1  0
 26 61  1  0
 27 28  1  0
 27 62  1  0
 27 63  1  0
 28 29  1  0
 28 64  1  0
 28 65  1  0
 29 30  1  6
 30 66  1  0
M  END
>  <i_m_ct_stereo_status>  (325) 
1

>  <s_m_source_file>  (325) 
/var/tmp/pbs.5076255.sched01/tmppy4q9rbr/123plv7d954.sdf

>  <i_m_source_file_index>  (325) 
26

>  <i_lp_mmshare_version>  (325) 
48012

>  <i_f3d_flags>  (325) 
0

>  <s_epik_input>  (325) 
Tz1bQ0hdQyg9W0NIXTEpW0NIMl1bQ0BIXTJbQ0BIXTFbQ0BdKFtDSDNdKShbQ0BAXShbQ0gzXSkoW09IXSlbQ0gyXVtDSDJdMylbQ0BAXTMoW09IXSlDKD1bQ0gyXSlbQ0BIXShbQ0gyXTQpW0NASF0yW0NASF0oW0NAXTQ1W0NIM10pW0NIMl1bQ0gyXUMoPU8pW0NAQEhdNVtDSDNd

>  <s_epik_cmdline>  (325) 
J2VwaWtfcHl0aG9uJywgJy1waHQnLCAnMi4wJywgJy1waCcsICc3LjAnLCAnLXRuJywgJzgnLCAnLW1hJywgJzIwMCcsICctaW1hZScsICc8aW5maWxlLm1hZT4nLCAnLW9tYWUnLCAnPG91dGZpbGUubWFlPic=

>  <r_lp_tautomer_probability>  (325) 
1

>  <r_epik_Ionization_Penalty>  (325) 
2.81816e-07

>  <r_epik_Ionization_Penalty_Charging>  (325) 
0

>  <r_epik_Ionization_Penalty_Neutral>  (325) 
2.81816e-07

>  <r_epik_State_Penalty>  (325) 
-0

>  <r_epik_Charging_Adjusted_Penalty>  (325) 
0

>  <i_epik_Tot_Q>  (325) 
0

>  <i_epik_Tot_abs_Q>  (325) 
0

>  <s_lp_Force_Field>  (325) 
OPLS3e

>  <r_lp_Energy>  (325) 
53.4533

>  <b_lp_Chiralities_Consistent>  (325) 
1

>  <s_lp_Variant>  (325) 
108:0-1

>  <s_i_glide_gridfile>  (325) 
pfpi4k_grid

>  <i_i_glide_lignum>  (325) 
26

>  <i_i_glide_rotatable_bonds>  (325) 
3

>  <r_i_docking_score>  (325) 
-3.20942

>  <r_i_glide_ligand_efficiency>  (325) 
-0.106981

>  <r_i_glide_ligand_efficiency_sa>  (325) 
-0.332414

>  <r_i_glide_ligand_efficiency_ln>  (325) 
-0.729215

>  <r_i_glide_gscore>  (325) 
-3.20942

>  <r_i_glide_lipo>  (325) 
-0.392597

>  <r_i_glide_hbond>  (325) 
-0.334202

>  <r_i_glide_metal>  (325) 
-0

>  <r_i_glide_rewards>  (325) 
-0.660147

>  <r_i_glide_evdw>  (325) 
-23.6425

>  <r_i_glide_ecoul>  (325) 
-4.16192

>  <r_i_glide_erotb>  (325) 
0

>  <r_i_glide_esite>  (325) 
-0.0160631

>  <r_i_glide_emodel>  (325) 
-32.9482

>  <r_i_glide_energy>  (325) 
-27.8044

>  <r_i_glide_einternal>  (325) 
0.124417

>  <r_i_glide_intrahb_reward>  (325) 
-0

>  <i_i_glide_confnum>  (325) 
2

>  <i_i_glide_posenum>  (325) 
9

>  <r_i_glide_eff_state_penalty>  (325) 
0

>  <ligand_id>  (325) 
108

>  <original_smiles>  (325) 
C=C1C2CC3(C)C(C)C(=O)CCC3C2C2CC(C=O)=CC2C2(C)C(C)(O)CCC12O

>  <smiles>  (325) 
[H]OC12C(=C([H])[H])C3([H])C([H])([H])C4(C([H])([H])[H])C([H])(C([H])([H])[H])C(=O)C([H])([H])C([H])([H])C4([H])C3([H])C3([H])C([H])([H])C(C([H])=O)=C([H])C3([H])C1(C([H])([H])[H])C(O[H])(C([H])([H])[H])C([H])([H])C2([H])[H]

$$$$
108:0:1
     RDKit          3D

 66 70  0  0  1  0  0  0  0  0999 V2000
    2.0408   -5.1927    0.0832 C   0  0  0  0  0  0  0  0  0  0  0  0
    3.1162   -4.9059    0.8377 C   0  0  0  0  0  0  0  0  0  0  0  0
    3.0887   -5.1577    2.3423 C   0  0  2  0  0  0  0  0  0  0  0  0
    2.2663   -6.3251    2.9082 C   0  0  0  0  0  0  0  0  0  0  0  0
    2.2188   -6.0633    4.4372 C   0  0  2  0  0  0  0  0  0  0  0  0
    3.4663   -6.6882    5.1129 C   0  0  0  0  0  0  0  0  0  0  0  0
    0.9009   -6.6451    5.0673 C   0  0  1  0  0  0  0  0  0  0  0  0
    0.7864   -8.1879    5.0572 C   0  0  0  0  0  0  0  0  0  0  0  0
    0.6307   -6.0615    6.4677 C   0  0  0  0  0  0  0  0  0  0  0  0
    0.2334   -6.7441    7.4120 O   0  0  0  0  0  0  0  0  0  0  0  0
    0.8393   -4.5596    6.6293 C   0  0  0  0  0  0  0  0  0  0  0  0
    1.0857   -3.8878    5.2691 C   0  0  0  0  0  0  0  0  0  0  0  0
    2.3105   -4.4964    4.5414 C   0  0  2  0  0  0  0  0  0  0  0  0
    2.4986   -3.9687    3.0950 C   0  0  1  0  0  0  0  0  0  0  0  0
    3.2845   -2.6672    2.8005 C   0  0  1  0  0  0  0  0  0  0  0  0
    3.1601   -1.5150    3.8242 C   0  0  0  0  0  0  0  0  0  0  0  0
    4.4936   -0.8366    3.7272 C   0  0  0  0  0  0  0  0  0  0  0  0
    4.7561    0.4539    4.3705 C   0  0  0  0  0  0  0  0  0  0  0  0
    3.9129    1.0761    5.0155 O   0  0  0  0  0  0  0  0  0  0  0  0
    5.3834   -1.5387    3.0266 C   0  0  0  0  0  0  0  0  0  0  0  0
    4.8045   -2.8322    2.4923 C   0  0  2  0  0  0  0  0  0  0  0  0
    5.2574   -3.2104    1.0182 C   0  0  2  0  0  0  0  0  0  0  0  0
    6.7410   -3.6852    1.1933 C   0  0  0  0  0  0  0  0  0  0  0  0
    5.2730   -2.0092   -0.0156 C   0  0  1  0  0  0  0  0  0  0  0  0
    4.0917   -1.0202    0.0234 C   0  0  0  0  0  0  0  0  0  0  0  0
    6.4266   -1.1916    0.0771 O   0  0  0  0  0  0  0  0  0  0  0  0
    5.2924   -2.6944   -1.3810 C   0  0  0  0  0  0  0  0  0  0  0  0
    4.3024   -3.8362   -1.2062 C   0  0  0  0  0  0  0  0  0  0  0  0
    4.4454   -4.3705    0.2469 C   0  0  2  0  0  0  0  0  0  0  0  0
    5.2452   -5.5302    0.0930 O   0  0  0  0  0  0  0  0  0  0  0  0
    2.0086   -5.0361   -0.9831 H   0  0  0  0  0  0  0  0  0  0  0  0
    1.1501   -5.6083    0.5166 H   0  0  0  0  0  0  0  0  0  0  0  0
    4.1140   -5.3581    2.6473 H   0  0  0  0  0  0  0  0  0  0  0  0
    1.2502   -6.3186    2.5193 H   0  0  0  0  0  0  0  0  0  0  0  0
    2.7047   -7.2918    2.6588 H   0  0  0  0  0  0  0  0  0  0  0  0
    3.4734   -6.5126    6.1882 H   0  0  0  0  0  0  0  0  0  0  0  0
    4.3939   -6.2700    4.7188 H   0  0  0  0  0  0  0  0  0  0  0  0
    3.5187   -7.7672    4.9577 H   0  0  0  0  0  0  0  0  0  0  0  0
    0.0707   -6.2862    4.4594 H   0  0  0  0  0  0  0  0  0  0  0  0
   -0.2283   -8.4998    5.3115 H   0  0  0  0  0  0  0  0  0  0  0  0
    1.4506   -8.6630    5.7806 H   0  0  0  0  0  0  0  0  0  0  0  0
    1.0075   -8.6070    4.0766 H   0  0  0  0  0  0  0  0  0  0  0  0
   -0.0353   -4.1356    7.1201 H   0  0  0  0  0  0  0  0  0  0  0  0
    1.6851   -4.3931    7.2934 H   0  0  0  0  0  0  0  0  0  0  0  0
    0.1913   -3.9937    4.6509 H   0  0  0  0  0  0  0  0  0  0  0  0
    1.2071   -2.8192    5.4281 H   0  0  0  0  0  0  0  0  0  0  0  0
    3.1998   -4.2323    5.1124 H   0  0  0  0  0  0  0  0  0  0  0  0
    1.4908   -3.8066    2.7070 H   0  0  0  0  0  0  0  0  0  0  0  0
    2.8287   -2.2813    1.8938 H   0  0  0  0  0  0  0  0  0  0  0  0
    2.3426   -0.8308    3.5862 H   0  0  0  0  0  0  0  0  0  0  0  0
    3.0604   -1.8601    4.8509 H   0  0  0  0  0  0  0  0  0  0  0  0
    5.7657    0.8418    4.2359 H   0  0  0  0  0  0  0  0  0  0  0  0
    6.4061   -1.2395    2.8657 H   0  0  0  0  0  0  0  0  0  0  0  0
    5.2029   -3.5820    3.1775 H   0  0  0  0  0  0  0  0  0  0  0  0
    7.2216   -3.9399    0.2479 H   0  0  0  0  0  0  0  0  0  0  0  0
    6.8074   -4.5629    1.8357 H   0  0  0  0  0  0  0  0  0  0  0  0
    7.3649   -2.9299    1.6558 H   0  0  0  0  0  0  0  0  0  0  0  0
    3.1259   -1.5016   -0.1293 H   0  0  0  0  0  0  0  0  0  0  0  0
    4.1974   -0.2797   -0.7696 H   0  0  0  0  0  0  0  0  0  0  0  0
    4.0393   -0.4584    0.9529 H   0  0  0  0  0  0  0  0  0  0  0  0
    6.3732   -0.7000    0.8840 H   0  0  0  0  0  0  0  0  0  0  0  0
    5.0126   -2.0303   -2.2012 H   0  0  0  0  0  0  0  0  0  0  0  0
    6.2780   -3.0934   -1.6179 H   0  0  0  0  0  0  0  0  0  0  0  0
    3.3148   -3.4063   -1.3747 H   0  0  0  0  0  0  0  0  0  0  0  0
    4.4595   -4.5987   -1.9711 H   0  0  0  0  0  0  0  0  0  0  0  0
    4.8211   -6.0896   -0.5406 H   0  0  0  0  0  0  0  0  0  0  0  0
  1  2  2  0
  1 31  1  0
  1 32  1  0
  2 29  1  0
  2  3  1  0
  3 14  1  0
  3  4  1  0
  3 33  1  1
  4  5  1  0
  4 34  1  0
  4 35  1  0
  5 13  1  0
  5  6  1  1
  5  7  1  0
  6 36  1  0
  6 37  1  0
  6 38  1  0
  7  8  1  0
  7  9  1  0
  7 39  1  6
  8 40  1  0
  8 41  1  0
  8 42  1  0
  9 10  2  0
  9 11  1  0
 11 12  1  0
 11 43  1  0
 11 44  1  0
 12 13  1  0
 12 45  1  0
 12 46  1  0
 13 14  1  0
 13 47  1  1
 14 15  1  0
 14 48  1  6
 15 21  1  0
 15 16  1  0
 15 49  1  6
 16 17  1  0
 16 50  1  0
 16 51  1  0
 17 18  1  0
 17 20  2  0
 18 19  2  0
 18 52  1  0
 20 21  1  0
 20 53  1  0
 21 22  1  0
 21 54  1  1
 22 29  1  0
 22 23  1  1
 22 24  1  0
 23 55  1  0
 23 56  1  0
 23 57  1  0
 24 25  1  0
 24 26  1  1
 24 27  1  0
 25 58  1  0
 25 59  1  0
 25 60  1  0
 26 61  1  0
 27 28  1  0
 27 62  1  0
 27 63  1  0
 28 29  1  0
 28 64  1  0
 28 65  1  0
 29 30  1  6
 30 66  1  0
M  END
>  <i_m_ct_stereo_status>  (326) 
1

>  <s_m_source_file>  (326) 
/var/tmp/pbs.5076255.sched01/tmppy4q9rbr/123plv7d954.sdf

>  <i_m_source_file_index>  (326) 
26

>  <i_lp_mmshare_version>  (326) 
48012

>  <i_f3d_flags>  (326) 
0

>  <s_epik_input>  (326) 
Tz1bQ0hdQyg9W0NIXTEpW0NIMl1bQ0BIXTJbQ0BIXTFbQ0BdKFtDSDNdKShbQ0BAXShbQ0gzXSkoW09IXSlbQ0gyXVtDSDJdMylbQ0BAXTMoW09IXSlDKD1bQ0gyXSlbQ0BIXShbQ0gyXTQpW0NASF0yW0NASF0oW0NAXTQ1W0NIM10pW0NIMl1bQ0gyXUMoPU8pW0NAQEhdNVtDSDNd

>  <s_epik_cmdline>  (326) 
J2VwaWtfcHl0aG9uJywgJy1waHQnLCAnMi4wJywgJy1waCcsICc3LjAnLCAnLXRuJywgJzgnLCAnLW1hJywgJzIwMCcsICctaW1hZScsICc8aW5maWxlLm1hZT4nLCAnLW9tYWUnLCAnPG91dGZpbGUubWFlPic=

>  <r_lp_tautomer_probability>  (326) 
1

>  <r_epik_Ionization_Penalty>  (326) 
2.81816e-07

>  <r_epik_Ionization_Penalty_Charging>  (326) 
0

>  <r_epik_Ionization_Penalty_Neutral>  (326) 
2.81816e-07

>  <r_epik_State_Penalty>  (326) 
-0

>  <r_epik_Charging_Adjusted_Penalty>  (326) 
0

>  <i_epik_Tot_Q>  (326) 
0

>  <i_epik_Tot_abs_Q>  (326) 
0

>  <s_lp_Force_Field>  (326) 
OPLS3e

>  <r_lp_Energy>  (326) 
53.4533

>  <b_lp_Chiralities_Consistent>  (326) 
1

>  <s_lp_Variant>  (326) 
108:0-1

>  <s_i_glide_gridfile>  (326) 
pfpi4k_grid

>  <i_i_glide_lignum>  (326) 
26

>  <i_i_glide_rotatable_bonds>  (326) 
3

>  <r_i_docking_score>  (326) 
-2.796

>  <r_i_glide_ligand_efficiency>  (326) 
-0.0932

>  <r_i_glide_ligand_efficiency_sa>  (326) 
-0.289594

>  <r_i_glide_ligand_efficiency_ln>  (326) 
-0.635281

>  <r_i_glide_gscore>  (326) 
-2.796

>  <r_i_glide_lipo>  (326) 
-0.310769

>  <r_i_glide_hbond>  (326) 
-0.0323089

>  <r_i_glide_metal>  (326) 
-0

>  <r_i_glide_rewards>  (326) 
-0.688266

>  <r_i_glide_evdw>  (326) 
-23.8121

>  <r_i_glide_ecoul>  (326) 
-3.80971

>  <r_i_glide_erotb>  (326) 
0

>  <r_i_glide_esite>  (326) 
-0.0025924

>  <r_i_glide_emodel>  (326) 
-32.1845

>  <r_i_glide_energy>  (326) 
-27.6218

>  <r_i_glide_einternal>  (326) 
0.0720671

>  <r_i_glide_intrahb_reward>  (326) 
-0

>  <i_i_glide_confnum>  (326) 
2

>  <i_i_glide_posenum>  (326) 
3

>  <r_i_glide_eff_state_penalty>  (326) 
0

>  <ligand_id>  (326) 
108

>  <original_smiles>  (326) 
C=C1C2CC3(C)C(C)C(=O)CCC3C2C2CC(C=O)=CC2C2(C)C(C)(O)CCC12O

>  <smiles>  (326) 
[H]OC12C(=C([H])[H])C3([H])C([H])([H])C4(C([H])([H])[H])C([H])(C([H])([H])[H])C(=O)C([H])([H])C([H])([H])C4([H])C3([H])C3([H])C([H])([H])C(C([H])=O)=C([H])C3([H])C1(C([H])([H])[H])C(O[H])(C([H])([H])[H])C([H])([H])C2([H])[H]

$$$$
108:0:2
     RDKit          3D

 66 70  0  0  1  0  0  0  0  0999 V2000
    2.8997   -5.8639    0.6973 C   0  0  0  0  0  0  0  0  0  0  0  0
    3.6210   -4.9325    1.3517 C   0  0  0  0  0  0  0  0  0  0  0  0
    3.3383   -4.6183    2.8194 C   0  0  2  0  0  0  0  0  0  0  0  0
    2.8494   -5.7326    3.7482 C   0  0  0  0  0  0  0  0  0  0  0  0
    2.3674   -4.9972    5.0243 C   0  0  2  0  0  0  0  0  0  0  0  0
    3.5574   -4.7902    5.9969 C   0  0  0  0  0  0  0  0  0  0  0  0
    1.2062   -5.7856    5.7309 C   0  0  1  0  0  0  0  0  0  0  0  0
    1.6201   -7.1380    6.3548 C   0  0  0  0  0  0  0  0  0  0  0  0
    0.4416   -4.9036    6.7356 C   0  0  0  0  0  0  0  0  0  0  0  0
    0.0854   -5.3131    7.8446 O   0  0  0  0  0  0  0  0  0  0  0  0
    0.1002   -3.4920    6.2832 C   0  0  0  0  0  0  0  0  0  0  0  0
    0.4356   -3.3007    4.7967 C   0  0  0  0  0  0  0  0  0  0  0  0
    1.9224   -3.5866    4.4900 C   0  0  2  0  0  0  0  0  0  0  0  0
    2.2366   -3.5822    2.9740 C   0  0  1  0  0  0  0  0  0  0  0  0
    2.5804   -2.2780    2.2155 C   0  0  1  0  0  0  0  0  0  0  0  0
    1.8437   -0.9954    2.6538 C   0  0  0  0  0  0  0  0  0  0  0  0
    2.8654    0.0724    2.3970 C   0  0  0  0  0  0  0  0  0  0  0  0
    2.5100    1.4954    2.4728 C   0  0  0  0  0  0  0  0  0  0  0  0
    1.3945    1.9011    2.7767 O   0  0  0  0  0  0  0  0  0  0  0  0
    4.0695   -0.4119    2.1218 C   0  0  0  0  0  0  0  0  0  0  0  0
    4.0930   -1.9229    2.1160 C   0  0  2  0  0  0  0  0  0  0  0  0
    4.9589   -2.5743    0.9610 C   0  0  2  0  0  0  0  0  0  0  0  0
    6.4162   -2.3123    1.4291 C   0  0  0  0  0  0  0  0  0  0  0  0
    4.8354   -1.9327   -0.4728 C   0  0  1  0  0  0  0  0  0  0  0  0
    3.4230   -1.5534   -0.9407 C   0  0  0  0  0  0  0  0  0  0  0  0
    5.5998   -0.7597   -0.6374 O   0  0  0  0  0  0  0  0  0  0  0  0
    5.4009   -2.9911   -1.4111 C   0  0  0  0  0  0  0  0  0  0  0  0
    4.8253   -4.2836   -0.8493 C   0  0  0  0  0  0  0  0  0  0  0  0
    4.7967   -4.1571    0.7005 C   0  0  2  0  0  0  0  0  0  0  0  0
    5.9534   -4.8672    1.1066 O   0  0  0  0  0  0  0  0  0  0  0  0
    3.1145   -6.1462   -0.3192 H   0  0  0  0  0  0  0  0  0  0  0  0
    2.0919   -6.4012    1.1711 H   0  0  0  0  0  0  0  0  0  0  0  0
    4.2801   -4.2780    3.2534 H   0  0  0  0  0  0  0  0  0  0  0  0
    2.0044   -6.2725    3.3125 H   0  0  0  0  0  0  0  0  0  0  0  0
    3.6287   -6.4664    3.9597 H   0  0  0  0  0  0  0  0  0  0  0  0
    3.2516   -4.2563    6.8960 H   0  0  0  0  0  0  0  0  0  0  0  0
    4.3544   -4.2051    5.5366 H   0  0  0  0  0  0  0  0  0  0  0  0
    3.9985   -5.7367    6.3085 H   0  0  0  0  0  0  0  0  0  0  0  0
    0.4695   -6.0301    4.9631 H   0  0  0  0  0  0  0  0  0  0  0  0
    0.7390   -7.7140    6.6375 H   0  0  0  0  0  0  0  0  0  0  0  0
    2.2199   -7.0162    7.2589 H   0  0  0  0  0  0  0  0  0  0  0  0
    2.1887   -7.7528    5.6569 H   0  0  0  0  0  0  0  0  0  0  0  0
   -0.9576   -3.3113    6.4716 H   0  0  0  0  0  0  0  0  0  0  0  0
    0.6568   -2.7778    6.8887 H   0  0  0  0  0  0  0  0  0  0  0  0
   -0.1748   -3.9862    4.2039 H   0  0  0  0  0  0  0  0  0  0  0  0
    0.1392   -2.2977    4.4998 H   0  0  0  0  0  0  0  0  0  0  0  0
    2.5174   -2.8059    4.9629 H   0  0  0  0  0  0  0  0  0  0  0  0
    1.3521   -3.9982    2.4899 H   0  0  0  0  0  0  0  0  0  0  0  0
    2.2453   -2.4552    1.1973 H   0  0  0  0  0  0  0  0  0  0  0  0
    0.9304   -0.8150    2.0835 H   0  0  0  0  0  0  0  0  0  0  0  0
    1.6322   -0.9561    3.7210 H   0  0  0  0  0  0  0  0  0  0  0  0
    3.3287    2.1795    2.2339 H   0  0  0  0  0  0  0  0  0  0  0  0
    4.9519    0.1794    1.9374 H   0  0  0  0  0  0  0  0  0  0  0  0
    4.5472   -2.1520    3.0813 H   0  0  0  0  0  0  0  0  0  0  0  0
    7.1740   -2.6863    0.7425 H   0  0  0  0  0  0  0  0  0  0  0  0
    6.5487   -2.8164    2.3795 H   0  0  0  0  0  0  0  0  0  0  0  0
    6.6421   -1.2640    1.6009 H   0  0  0  0  0  0  0  0  0  0  0  0
    2.7305   -2.3924   -0.9307 H   0  0  0  0  0  0  0  0  0  0  0  0
    3.4377   -1.1677   -1.9597 H   0  0  0  0  0  0  0  0  0  0  0  0
    3.0110   -0.7667   -0.3185 H   0  0  0  0  0  0  0  0  0  0  0  0
    5.1028   -0.0312   -0.2843 H   0  0  0  0  0  0  0  0  0  0  0  0
    5.1197   -2.8260   -2.4537 H   0  0  0  0  0  0  0  0  0  0  0  0
    6.4923   -3.0175   -1.3721 H   0  0  0  0  0  0  0  0  0  0  0  0
    3.8116   -4.3474   -1.2449 H   0  0  0  0  0  0  0  0  0  0  0  0
    5.3691   -5.1603   -1.2096 H   0  0  0  0  0  0  0  0  0  0  0  0
    5.8451   -5.7726    0.8586 H   0  0  0  0  0  0  0  0  0  0  0  0
  1  2  2  0
  1 31  1  0
  1 32  1  0
  2 29  1  0
  2  3  1  0
  3 14  1  0
  3  4  1  0
  3 33  1  1
  4  5  1  0
  4 34  1  0
  4 35  1  0
  5 13  1  0
  5  6  1  1
  5  7  1  0
  6 36  1  0
  6 37  1  0
  6 38  1  0
  7  8  1  0
  7  9  1  0
  7 39  1  6
  8 40  1  0
  8 41  1  0
  8 42  1  0
  9 10  2  0
  9 11  1  0
 11 12  1  0
 11 43  1  0
 11 44  1  0
 12 13  1  0
 12 45  1  0
 12 46  1  0
 13 14  1  0
 13 47  1  1
 14 15  1  0
 14 48  1  6
 15 21  1  0
 15 16  1  0
 15 49  1  6
 16 17  1  0
 16 50  1  0
 16 51  1  0
 17 18  1  0
 17 20  2  0
 18 19  2  0
 18 52  1  0
 20 21  1  0
 20 53  1  0
 21 22  1  0
 21 54  1  1
 22 29  1  0
 22 23  1  1
 22 24  1  0
 23 55  1  0
 23 56  1  0
 23 57  1  0
 24 25  1  0
 24 26  1  1
 24 27  1  0
 25 58  1  0
 25 59  1  0
 25 60  1  0
 26 61  1  0
 27 28  1  0
 27 62  1  0
 27 63  1  0
 28 29  1  0
 28 64  1  0
 28 65  1  0
 29 30  1  1
 30 66  1  0
M  END
>  <i_m_ct_stereo_status>  (327) 
1

>  <s_m_source_file>  (327) 
/var/tmp/pbs.5076255.sched01/tmppy4q9rbr/123plv7d954.sdf

>  <i_m_source_file_index>  (327) 
26

>  <i_lp_mmshare_version>  (327) 
48012

>  <i_f3d_flags>  (327) 
0

>  <s_epik_input>  (327) 
Tz1bQ0hdQyg9W0NIXTEpW0NIMl1bQ0BIXTJbQ0BIXTFbQ0BdKFtDSDNdKShbQ0BAXShbQ0gzXSkoW09IXSlbQ0gyXVtDSDJdMylbQ0BAXTMoW09IXSlDKD1bQ0gyXSlbQ0BIXShbQ0gyXTQpW0NASF0yW0NASF0oW0NAXTQ1W0NIM10pW0NIMl1bQ0gyXUMoPU8pW0NAQEhdNVtDSDNd

>  <s_epik_cmdline>  (327) 
J2VwaWtfcHl0aG9uJywgJy1waHQnLCAnMi4wJywgJy1waCcsICc3LjAnLCAnLXRuJywgJzgnLCAnLW1hJywgJzIwMCcsICctaW1hZScsICc8aW5maWxlLm1hZT4nLCAnLW9tYWUnLCAnPG91dGZpbGUubWFlPic=

>  <r_lp_tautomer_probability>  (327) 
1

>  <r_epik_Ionization_Penalty>  (327) 
2.81816e-07

>  <r_epik_Ionization_Penalty_Charging>  (327) 
0

>  <r_epik_Ionization_Penalty_Neutral>  (327) 
2.81816e-07

>  <r_epik_State_Penalty>  (327) 
-0

>  <r_epik_Charging_Adjusted_Penalty>  (327) 
0

>  <i_epik_Tot_Q>  (327) 
0

>  <i_epik_Tot_abs_Q>  (327) 
0

>  <s_lp_Force_Field>  (327) 
OPLS3e

>  <r_lp_Energy>  (327) 
53.4533

>  <b_lp_Chiralities_Consistent>  (327) 
1

>  <s_lp_Variant>  (327) 
108:0-1

>  <s_i_glide_gridfile>  (327) 
pfpi4k_grid

>  <i_i_glide_lignum>  (327) 
26

>  <i_i_glide_rotatable_bonds>  (327) 
3

>  <r_i_docking_score>  (327) 
-2.7923

>  <r_i_glide_ligand_efficiency>  (327) 
-0.0930768

>  <r_i_glide_ligand_efficiency_sa>  (327) 
-0.289211

>  <r_i_glide_ligand_efficiency_ln>  (327) 
-0.634442

>  <r_i_glide_gscore>  (327) 
-2.7923

>  <r_i_glide_lipo>  (327) 
-0.274617

>  <r_i_glide_hbond>  (327) 
-0.0634765

>  <r_i_glide_metal>  (327) 
-0

>  <r_i_glide_rewards>  (327) 
-0.625249

>  <r_i_glide_evdw>  (327) 
-24.7698

>  <r_i_glide_ecoul>  (327) 
-3.92072

>  <r_i_glide_erotb>  (327) 
0

>  <r_i_glide_esite>  (327) 
-0.00236474

>  <r_i_glide_emodel>  (327) 
-33.05

>  <r_i_glide_energy>  (327) 
-28.6905

>  <r_i_glide_einternal>  (327) 
0.259575

>  <r_i_glide_intrahb_reward>  (327) 
-0

>  <i_i_glide_confnum>  (327) 
2

>  <i_i_glide_posenum>  (327) 
39

>  <r_i_glide_eff_state_penalty>  (327) 
0

>  <ligand_id>  (327) 
108

>  <original_smiles>  (327) 
C=C1C2CC3(C)C(C)C(=O)CCC3C2C2CC(C=O)=CC2C2(C)C(C)(O)CCC12O

>  <smiles>  (327) 
[H]OC12C(=C([H])[H])C3([H])C([H])([H])C4(C([H])([H])[H])C([H])(C([H])([H])[H])C(=O)C([H])([H])C([H])([H])C4([H])C3([H])C3([H])C([H])([H])C(C([H])=O)=C([H])C3([H])C1(C([H])([H])[H])C(O[H])(C([H])([H])[H])C([H])([H])C2([H])[H]

$$$$
109:0:0
     RDKit          3D

 42 47  0  0  1  0  0  0  0  0999 V2000
    4.3072   -1.9075   -0.8909 C   0  0  0  0  0  0  0  0  0  0  0  0
    5.1653   -2.7275    0.1095 C   0  0  0  0  0  0  0  0  0  0  0  0
    6.0813   -3.6760   -0.6789 C   0  0  0  0  0  0  0  0  0  0  0  0
    5.9789   -1.8208    1.0724 C   0  0  1  0  0  0  0  0  0  0  0  0
    6.5761   -0.6888    0.4604 O   0  0  0  0  0  0  0  0  0  0  0  0
    4.9848   -1.4703    2.1596 C   0  0  0  0  0  0  0  0  0  0  0  0
    5.1233   -0.4896    2.9074 O   0  0  0  0  0  0  0  0  0  0  0  0
    3.8731   -2.4645    2.1873 C   0  0  2  0  0  0  0  0  0  0  0  0
    2.5331   -1.9316    2.2261 C   0  0  0  0  0  0  0  0  0  0  0  0
    3.0139   -2.8359    3.4188 C   0  0  1  0  0  0  0  0  0  0  0  0
    3.0203   -4.2852    3.5047 C   0  0  0  0  0  0  0  0  0  0  0  0
    3.1002   -4.8161    4.7190 C   0  0  0  0  0  0  0  0  0  0  0  0
    1.6802   -4.9917    5.0857 C   0  0  1  0  0  0  0  0  0  0  0  0
    1.1285   -5.4375    3.8154 O   0  0  0  0  0  0  0  0  0  0  0  0
    1.8223   -4.7551    2.7898 C   0  0  2  0  0  0  0  0  0  0  0  0
    2.3700   -5.4191    1.5092 C   0  0  0  0  0  0  0  0  0  0  0  0
    3.1108   -4.4116    0.5543 C   0  0  0  0  0  0  0  0  0  0  0  0
    4.2799   -3.5153    1.1260 C   0  0  1  0  0  0  0  0  0  0  0  0
    0.6563   -4.1462    5.6953 O   0  0  0  0  0  0  0  0  0  0  0  0
    1.8078   -3.4389    5.5834 C   0  0  2  0  0  0  0  0  0  0  0  0
    2.0652   -2.3113    4.5401 C   0  0  1  0  0  0  0  0  0  0  0  0
    2.5380   -1.1308    5.1513 O   0  0  0  0  0  0  0  0  0  0  0  0
    4.9379   -1.3345   -1.5690 H   0  0  0  0  0  0  0  0  0  0  0  0
    3.6347   -1.1994   -0.4011 H   0  0  0  0  0  0  0  0  0  0  0  0
    3.6957   -2.5594   -1.5206 H   0  0  0  0  0  0  0  0  0  0  0  0
    6.6704   -4.3077   -0.0147 H   0  0  0  0  0  0  0  0  0  0  0  0
    6.7704   -3.1214   -1.3121 H   0  0  0  0  0  0  0  0  0  0  0  0
    5.4994   -4.3319   -1.3295 H   0  0  0  0  0  0  0  0  0  0  0  0
    6.7644   -2.4058    1.5477 H   0  0  0  0  0  0  0  0  0  0  0  0
    7.0200   -0.1754    1.1346 H   0  0  0  0  0  0  0  0  0  0  0  0
    2.4518   -0.8673    2.4249 H   0  0  0  0  0  0  0  0  0  0  0  0
    1.8082   -2.2673    1.5075 H   0  0  0  0  0  0  0  0  0  0  0  0
    3.8287   -4.4553    5.4469 H   0  0  0  0  0  0  0  0  0  0  0  0
    1.1295   -3.9580    2.5103 H   0  0  0  0  0  0  0  0  0  0  0  0
    3.0612   -6.2233    1.7957 H   0  0  0  0  0  0  0  0  0  0  0  0
    1.5497   -5.9032    0.9753 H   0  0  0  0  0  0  0  0  0  0  0  0
    3.5314   -5.0130   -0.2404 H   0  0  0  0  0  0  0  0  0  0  0  0
    2.3671   -3.7890    0.0548 H   0  0  0  0  0  0  0  0  0  0  0  0
    4.9558   -4.2032    1.6439 H   0  0  0  0  0  0  0  0  0  0  0  0
    2.3026   -3.2768    6.5441 H   0  0  0  0  0  0  0  0  0  0  0  0
    1.0790   -2.1041    4.1192 H   0  0  0  0  0  0  0  0  0  0  0  0
    2.5679   -0.4476    4.5093 H   0  0  0  0  0  0  0  0  0  0  0  0
  1  2  1  0
  1 23  1  0
  1 24  1  0
  1 25  1  0
  2 18  1  0
  2  3  1  0
  2  4  1  0
  3 26  1  0
  3 27  1  0
  3 28  1  0
  4  5  1  0
  4  6  1  0
  4 29  1  1
  5 30  1  0
  6  7  2  0
  6  8  1  0
  8 10  1  0
  8 18  1  0
  8  9  1  6
 10  9  1  6
  9 31  1  0
  9 32  1  0
 10 21  1  0
 10 11  1  0
 11 15  1  0
 11 12  2  0
 12 13  1  0
 12 33  1  0
 13 20  1  0
 13 14  1  6
 13 19  1  0
 14 15  1  0
 15 16  1  0
 15 34  1  6
 16 17  1  0
 16 35  1  0
 16 36  1  0
 17 18  1  0
 17 37  1  0
 17 38  1  0
 18 39  1  1
 19 20  1  0
 20 21  1  0
 20 40  1  1
 21 22  1  0
 21 41  1  6
 22 42  1  0
M  END
>  <i_m_ct_stereo_status>  (328) 
1

>  <s_m_source_file>  (328) 
/var/tmp/pbs.5076255.sched01/tmppy4q9rbr/123plv7d954.sdf

>  <i_m_source_file_index>  (328) 
27

>  <i_lp_mmshare_version>  (328) 
48012

>  <i_f3d_flags>  (328) 
0

>  <s_epik_input>  (328) 
Tz1DMVtDQEhdKFtPSF0pQyhbQ0gzXSkoW0NIM10pW0NAQEhdMltDSDJdW0NIMl1bQ0BIXShDPTNbQ0BAXTQoW0NAQF0xMjUpW0NIMl01KU9DNihbQ0hdMylbQ0hdKE82KVtDQEhdNFtPSF0=

>  <s_epik_cmdline>  (328) 
J2VwaWtfcHl0aG9uJywgJy1waHQnLCAnMi4wJywgJy1waCcsICc3LjAnLCAnLXRuJywgJzgnLCAnLW1hJywgJzIwMCcsICctaW1hZScsICc8aW5maWxlLm1hZT4nLCAnLW9tYWUnLCAnPG91dGZpbGUubWFlPic=

>  <r_lp_tautomer_probability>  (328) 
1

>  <r_epik_Ionization_Penalty>  (328) 
1.08882e-06

>  <r_epik_Ionization_Penalty_Charging>  (328) 
0

>  <r_epik_Ionization_Penalty_Neutral>  (328) 
1.08882e-06

>  <r_epik_State_Penalty>  (328) 
-0

>  <r_epik_Charging_Adjusted_Penalty>  (328) 
0

>  <i_epik_Tot_Q>  (328) 
0

>  <i_epik_Tot_abs_Q>  (328) 
0

>  <s_lp_Force_Field>  (328) 
OPLS3e

>  <r_lp_Energy>  (328) 
162.271

>  <b_lp_Chiralities_Consistent>  (328) 
1

>  <s_lp_Variant>  (328) 
109:0-1

>  <s_i_glide_gridfile>  (328) 
pfpi4k_grid

>  <i_i_glide_lignum>  (328) 
27

>  <i_i_glide_rotatable_bonds>  (328) 
2

>  <r_i_docking_score>  (328) 
-3.29932

>  <r_i_glide_ligand_efficiency>  (328) 
-0.149969

>  <r_i_glide_ligand_efficiency_sa>  (328) 
-0.42022

>  <r_i_glide_ligand_efficiency_ln>  (328) 
-0.806475

>  <r_i_glide_gscore>  (328) 
-3.29932

>  <r_i_glide_lipo>  (328) 
-0.237677

>  <r_i_glide_hbond>  (328) 
0

>  <r_i_glide_metal>  (328) 
-0

>  <r_i_glide_rewards>  (328) 
-1.44577

>  <r_i_glide_evdw>  (328) 
-18.1185

>  <r_i_glide_ecoul>  (328) 
-4.73093

>  <r_i_glide_erotb>  (328) 
0

>  <r_i_glide_esite>  (328) 
-0.000317119

>  <r_i_glide_emodel>  (328) 
-26.0364

>  <r_i_glide_energy>  (328) 
-22.8494

>  <r_i_glide_einternal>  (328) 
1.99189

>  <r_i_glide_intrahb_reward>  (328) 
-0

>  <i_i_glide_confnum>  (328) 
2

>  <i_i_glide_posenum>  (328) 
3

>  <r_i_glide_eff_state_penalty>  (328) 
0

>  <ligand_id>  (328) 
109

>  <original_smiles>  (328) 
CC1(C)C(O)C(=O)C23CC24C2=CC5(OC2CCC13)OC5C4O

>  <smiles>  (328) 
[H]OC1([H])C(=O)C23C([H])([H])C24C2=C([H])C5(OC2([H])C([H])([H])C([H])([H])C3([H])C1(C([H])([H])[H])C([H])([H])[H])OC5([H])C4([H])O[H]

$$$$
109:0:1
     RDKit          3D

 42 47  0  0  1  0  0  0  0  0999 V2000
    3.7631   -1.8283   -1.2420 C   0  0  0  0  0  0  0  0  0  0  0  0
    4.5173   -3.1858   -1.2448 C   0  0  0  0  0  0  0  0  0  0  0  0
    4.5621   -3.7183   -2.6797 C   0  0  0  0  0  0  0  0  0  0  0  0
    5.9461   -3.0430   -0.6967 C   0  0  1  0  0  0  0  0  0  0  0  0
    6.5872   -1.8664   -1.1177 O   0  0  0  0  0  0  0  0  0  0  0  0
    5.7675   -3.1160    0.8151 C   0  0  0  0  0  0  0  0  0  0  0  0
    6.5775   -2.6209    1.5994 O   0  0  0  0  0  0  0  0  0  0  0  0
    4.4743   -3.7771    1.1469 C   0  0  2  0  0  0  0  0  0  0  0  0
    3.6435   -3.1032    2.1213 C   0  0  0  0  0  0  0  0  0  0  0  0
    4.1693   -4.5492    2.4549 C   0  0  1  0  0  0  0  0  0  0  0  0
    3.5924   -5.8207    2.0410 C   0  0  0  0  0  0  0  0  0  0  0  0
    3.9541   -6.8994    2.7248 C   0  0  0  0  0  0  0  0  0  0  0  0
    2.8845   -6.9751    3.7598 C   0  0  1  0  0  0  0  0  0  0  0  0
    1.7156   -6.6117    2.9674 O   0  0  0  0  0  0  0  0  0  0  0  0
    2.1363   -5.6344    2.0265 C   0  0  2  0  0  0  0  0  0  0  0  0
    1.8008   -5.6902    0.5313 C   0  0  0  0  0  0  0  0  0  0  0  0
    2.3780   -4.4611   -0.2709 C   0  0  0  0  0  0  0  0  0  0  0  0
    3.9225   -4.2129   -0.2284 C   0  0  1  0  0  0  0  0  0  0  0  0
    2.6830   -6.3738    5.0837 O   0  0  0  0  0  0  0  0  0  0  0  0
    3.8572   -5.9294    4.5800 C   0  0  2  0  0  0  0  0  0  0  0  0
    4.0800   -4.4984    4.0099 C   0  0  1  0  0  0  0  0  0  0  0  0
    5.2062   -3.9012    4.6230 O   0  0  0  0  0  0  0  0  0  0  0  0
    4.2093   -1.1101   -1.9333 H   0  0  0  0  0  0  0  0  0  0  0  0
    3.7186   -1.3557   -0.2577 H   0  0  0  0  0  0  0  0  0  0  0  0
    2.7384   -1.9626   -1.5869 H   0  0  0  0  0  0  0  0  0  0  0  0
    5.0263   -4.7007   -2.7185 H   0  0  0  0  0  0  0  0  0  0  0  0
    5.0948   -3.0545   -3.3623 H   0  0  0  0  0  0  0  0  0  0  0  0
    3.5490   -3.8395   -3.0564 H   0  0  0  0  0  0  0  0  0  0  0  0
    6.5652   -3.8931   -0.9753 H   0  0  0  0  0  0  0  0  0  0  0  0
    6.0666   -1.1485   -0.7547 H   0  0  0  0  0  0  0  0  0  0  0  0
    4.1129   -2.2915    2.6725 H   0  0  0  0  0  0  0  0  0  0  0  0
    2.6040   -2.8965    1.8942 H   0  0  0  0  0  0  0  0  0  0  0  0
    4.9911   -7.1004    2.9873 H   0  0  0  0  0  0  0  0  0  0  0  0
    1.7803   -4.6991    2.4576 H   0  0  0  0  0  0  0  0  0  0  0  0
    2.1576   -6.6267    0.1036 H   0  0  0  0  0  0  0  0  0  0  0  0
    0.7251   -5.7638    0.4050 H   0  0  0  0  0  0  0  0  0  0  0  0
    2.0862   -4.6149   -1.2962 H   0  0  0  0  0  0  0  0  0  0  0  0
    1.8744   -3.5341   -0.0068 H   0  0  0  0  0  0  0  0  0  0  0  0
    4.4061   -5.1707   -0.4540 H   0  0  0  0  0  0  0  0  0  0  0  0
    4.7280   -6.3632    5.0582 H   0  0  0  0  0  0  0  0  0  0  0  0
    3.1977   -3.9413    4.3159 H   0  0  0  0  0  0  0  0  0  0  0  0
    5.0835   -3.9119    5.5590 H   0  0  0  0  0  0  0  0  0  0  0  0
  1  2  1  0
  1 23  1  0
  1 24  1  0
  1 25  1  0
  2 18  1  0
  2  3  1  0
  2  4  1  0
  3 26  1  0
  3 27  1  0
  3 28  1  0
  4  5  1  0
  4  6  1  0
  4 29  1  6
  5 30  1  0
  6  7  2  0
  6  8  1  0
  8 10  1  0
  8 18  1  0
  8  9  1  1
 10  9  1  6
  9 31  1  0
  9 32  1  0
 10 21  1  0
 10 11  1  0
 11 15  1  0
 11 12  2  0
 12 13  1  0
 12 33  1  0
 13 20  1  0
 13 14  1  6
 13 19  1  0
 14 15  1  0
 15 16  1  0
 15 34  1  1
 16 17  1  0
 16 35  1  0
 16 36  1  0
 17 18  1  0
 17 37  1  0
 17 38  1  0
 18 39  1  6
 19 20  1  0
 20 21  1  0
 20 40  1  1
 21 22  1  0
 21 41  1  6
 22 42  1  0
M  END
>  <i_m_ct_stereo_status>  (329) 
1

>  <s_m_source_file>  (329) 
/var/tmp/pbs.5076255.sched01/tmppy4q9rbr/123plv7d954.sdf

>  <i_m_source_file_index>  (329) 
27

>  <i_lp_mmshare_version>  (329) 
48012

>  <i_f3d_flags>  (329) 
0

>  <s_epik_input>  (329) 
Tz1DMVtDQEhdKFtPSF0pQyhbQ0gzXSkoW0NIM10pW0NAQEhdMltDSDJdW0NIMl1bQ0BIXShDPTNbQ0BAXTQoW0NAQF0xMjUpW0NIMl01KU9DNihbQ0hdMylbQ0hdKE82KVtDQEhdNFtPSF0=

>  <s_epik_cmdline>  (329) 
J2VwaWtfcHl0aG9uJywgJy1waHQnLCAnMi4wJywgJy1waCcsICc3LjAnLCAnLXRuJywgJzgnLCAnLW1hJywgJzIwMCcsICctaW1hZScsICc8aW5maWxlLm1hZT4nLCAnLW9tYWUnLCAnPG91dGZpbGUubWFlPic=

>  <r_lp_tautomer_probability>  (329) 
1

>  <r_epik_Ionization_Penalty>  (329) 
1.08882e-06

>  <r_epik_Ionization_Penalty_Charging>  (329) 
0

>  <r_epik_Ionization_Penalty_Neutral>  (329) 
1.08882e-06

>  <r_epik_State_Penalty>  (329) 
-0

>  <r_epik_Charging_Adjusted_Penalty>  (329) 
0

>  <i_epik_Tot_Q>  (329) 
0

>  <i_epik_Tot_abs_Q>  (329) 
0

>  <s_lp_Force_Field>  (329) 
OPLS3e

>  <r_lp_Energy>  (329) 
162.271

>  <b_lp_Chiralities_Consistent>  (329) 
1

>  <s_lp_Variant>  (329) 
109:0-1

>  <s_i_glide_gridfile>  (329) 
pfpi4k_grid

>  <i_i_glide_lignum>  (329) 
27

>  <i_i_glide_rotatable_bonds>  (329) 
2

>  <r_i_docking_score>  (329) 
-2.73284

>  <r_i_glide_ligand_efficiency>  (329) 
-0.12422

>  <r_i_glide_ligand_efficiency_sa>  (329) 
-0.348069

>  <r_i_glide_ligand_efficiency_ln>  (329) 
-0.668006

>  <r_i_glide_gscore>  (329) 
-2.73284

>  <r_i_glide_lipo>  (329) 
-0.07481

>  <r_i_glide_hbond>  (329) 
0

>  <r_i_glide_metal>  (329) 
-0

>  <r_i_glide_rewards>  (329) 
-1.42383

>  <r_i_glide_evdw>  (329) 
-14.6961

>  <r_i_glide_ecoul>  (329) 
-3.32668

>  <r_i_glide_erotb>  (329) 
0

>  <r_i_glide_esite>  (329) 
-0.000386714

>  <r_i_glide_emodel>  (329) 
-20.2051

>  <r_i_glide_energy>  (329) 
-18.0228

>  <r_i_glide_einternal>  (329) 
1.70589

>  <r_i_glide_intrahb_reward>  (329) 
-0

>  <i_i_glide_confnum>  (329) 
2

>  <i_i_glide_posenum>  (329) 
1

>  <r_i_glide_eff_state_penalty>  (329) 
0

>  <ligand_id>  (329) 
109

>  <original_smiles>  (329) 
CC1(C)C(O)C(=O)C23CC24C2=CC5(OC2CCC13)OC5C4O

>  <smiles>  (329) 
[H]OC1([H])C(=O)C23C([H])([H])C24C2=C([H])C5(OC2([H])C([H])([H])C([H])([H])C3([H])C1(C([H])([H])[H])C([H])([H])[H])OC5([H])C4([H])O[H]

$$$$
109:1:0
     RDKit          3D

 42 47  0  0  1  0  0  0  0  0999 V2000
    3.2664   -2.8275   -2.2973 C   0  0  0  0  0  0  0  0  0  0  0  0
    4.6618   -2.8288   -1.6330 C   0  0  0  0  0  0  0  0  0  0  0  0
    5.6854   -3.4283   -2.6137 C   0  0  0  0  0  0  0  0  0  0  0  0
    5.0951   -1.4336   -1.1634 C   0  0  1  0  0  0  0  0  0  0  0  0
    4.7469   -0.3911   -2.0465 O   0  0  0  0  0  0  0  0  0  0  0  0
    4.4715   -1.2894    0.2147 C   0  0  0  0  0  0  0  0  0  0  0  0
    4.4004   -0.2099    0.7956 O   0  0  0  0  0  0  0  0  0  0  0  0
    4.0012   -2.6270    0.7329 C   0  0  2  0  0  0  0  0  0  0  0  0
    2.5697   -2.4420    1.1337 C   0  0  0  0  0  0  0  0  0  0  0  0
    3.4934   -3.0757    2.1276 C   0  0  1  0  0  0  0  0  0  0  0  0
    2.9303   -4.4311    2.4797 C   0  0  0  0  0  0  0  0  0  0  0  0
    2.5119   -4.4944    3.7411 C   0  0  0  0  0  0  0  0  0  0  0  0
    3.8239   -4.8245    4.3703 C   0  0  2  0  0  0  0  0  0  0  0  0
    4.5766   -5.6777    3.5557 O   0  0  0  0  0  0  0  0  0  0  0  0
    3.8800   -5.5943    2.3159 C   0  0  2  0  0  0  0  0  0  0  0  0
    4.8214   -5.6549    1.1040 C   0  0  0  0  0  0  0  0  0  0  0  0
    4.2655   -5.0253   -0.1930 C   0  0  0  0  0  0  0  0  0  0  0  0
    4.6605   -3.5571   -0.2705 C   0  0  1  0  0  0  0  0  0  0  0  0
    4.3785   -4.0591    5.4563 O   0  0  0  0  0  0  0  0  0  0  0  0
    4.7896   -3.6084    4.1810 C   0  0  2  0  0  0  0  0  0  0  0  0
    4.1488   -2.4372    3.3920 C   0  0  1  0  0  0  0  0  0  0  0  0
    5.1377   -1.4391    3.1613 O   0  0  0  0  0  0  0  0  0  0  0  0
    3.2841   -2.3279   -3.2683 H   0  0  0  0  0  0  0  0  0  0  0  0
    2.5179   -2.3147   -1.6931 H   0  0  0  0  0  0  0  0  0  0  0  0
    2.9134   -3.8466   -2.4733 H   0  0  0  0  0  0  0  0  0  0  0  0
    6.6792   -3.5088   -2.1684 H   0  0  0  0  0  0  0  0  0  0  0  0
    5.7763   -2.8185   -3.5125 H   0  0  0  0  0  0  0  0  0  0  0  0
    5.3738   -4.4235   -2.9317 H   0  0  0  0  0  0  0  0  0  0  0  0
    6.1714   -1.3953   -1.0142 H   0  0  0  0  0  0  0  0  0  0  0  0
    4.9638    0.4282   -1.6097 H   0  0  0  0  0  0  0  0  0  0  0  0
    2.2050   -1.4467    1.3916 H   0  0  0  0  0  0  0  0  0  0  0  0
    1.8761   -3.0655    0.5867 H   0  0  0  0  0  0  0  0  0  0  0  0
    1.9737   -3.6475    4.1951 H   0  0  0  0  0  0  0  0  0  0  0  0
    3.2358   -6.4629    2.2550 H   0  0  0  0  0  0  0  0  0  0  0  0
    5.7882   -5.2215    1.3810 H   0  0  0  0  0  0  0  0  0  0  0  0
    5.0411   -6.7095    0.9127 H   0  0  0  0  0  0  0  0  0  0  0  0
    4.7291   -5.5487   -1.0142 H   0  0  0  0  0  0  0  0  0  0  0  0
    3.1888   -5.1836   -0.2930 H   0  0  0  0  0  0  0  0  0  0  0  0
    5.7174   -3.5483    0.0297 H   0  0  0  0  0  0  0  0  0  0  0  0
    5.8263   -3.7887    3.9603 H   0  0  0  0  0  0  0  0  0  0  0  0
    3.3772   -1.9768    4.0032 H   0  0  0  0  0  0  0  0  0  0  0  0
    4.7351   -0.7182    2.6867 H   0  0  0  0  0  0  0  0  0  0  0  0
  1  2  1  0
  1 23  1  0
  1 24  1  0
  1 25  1  0
  2 18  1  0
  2  3  1  0
  2  4  1  0
  3 26  1  0
  3 27  1  0
  3 28  1  0
  4  5  1  0
  4  6  1  0
  4 29  1  1
  5 30  1  0
  6  7  2  0
  6  8  1  0
  8 10  1  0
  8 18  1  0
  8  9  1  6
 10  9  1  6
  9 31  1  0
  9 32  1  0
 10 21  1  0
 10 11  1  0
 11 15  1  0
 11 12  2  0
 12 13  1  0
 12 33  1  0
 13 20  1  0
 13 14  1  1
 13 19  1  0
 14 15  1  0
 15 16  1  0
 15 34  1  6
 16 17  1  0
 16 35  1  0
 16 36  1  0
 17 18  1  0
 17 37  1  0
 17 38  1  0
 18 39  1  1
 19 20  1  0
 20 21  1  0
 20 40  1  1
 21 22  1  0
 21 41  1  1
 22 42  1  0
M  END
>  <i_m_ct_stereo_status>  (330) 
1

>  <s_m_source_file>  (330) 
/var/tmp/pbs.5076255.sched01/tmppy4q9rbr/123plv7d954.sdf

>  <i_m_source_file_index>  (330) 
28

>  <i_lp_mmshare_version>  (330) 
48012

>  <i_f3d_flags>  (330) 
0

>  <s_epik_input>  (330) 
Tz1DMVtDQEhdKFtPSF0pQyhbQ0gzXSkoW0NIM10pW0NAQEhdMltDSDJdW0NIMl1bQ0BIXShDPTNbQ0BAXTQoW0NAQF0xMjUpW0NIMl01KU9DNihbQ0hdMylbQ0hdKE82KVtDQEhdNFtPSF0=

>  <s_epik_cmdline>  (330) 
J2VwaWtfcHl0aG9uJywgJy1waHQnLCAnMi4wJywgJy1waCcsICc3LjAnLCAnLXRuJywgJzgnLCAnLW1hJywgJzIwMCcsICctaW1hZScsICc8aW5maWxlLm1hZT4nLCAnLW9tYWUnLCAnPG91dGZpbGUubWFlPic=

>  <r_lp_tautomer_probability>  (330) 
1

>  <r_epik_Ionization_Penalty>  (330) 
1.08882e-06

>  <r_epik_Ionization_Penalty_Charging>  (330) 
0

>  <r_epik_Ionization_Penalty_Neutral>  (330) 
1.08882e-06

>  <r_epik_State_Penalty>  (330) 
-0

>  <r_epik_Charging_Adjusted_Penalty>  (330) 
0

>  <i_epik_Tot_Q>  (330) 
0

>  <i_epik_Tot_abs_Q>  (330) 
0

>  <s_lp_Force_Field>  (330) 
OPLS3e

>  <r_lp_Energy>  (330) 
101.46

>  <b_lp_Chiralities_Consistent>  (330) 
1

>  <s_lp_Variant>  (330) 
109:0-2

>  <s_i_glide_gridfile>  (330) 
pfpi4k_grid

>  <i_i_glide_lignum>  (330) 
28

>  <i_i_glide_rotatable_bonds>  (330) 
2

>  <r_i_docking_score>  (330) 
-3.82157

>  <r_i_glide_ligand_efficiency>  (330) 
-0.173708

>  <r_i_glide_ligand_efficiency_sa>  (330) 
-0.486736

>  <r_i_glide_ligand_efficiency_ln>  (330) 
-0.934132

>  <r_i_glide_gscore>  (330) 
-3.82157

>  <r_i_glide_lipo>  (330) 
-0.39386

>  <r_i_glide_hbond>  (330) 
0

>  <r_i_glide_metal>  (330) 
-0

>  <r_i_glide_rewards>  (330) 
-1.83406

>  <r_i_glide_evdw>  (330) 
-20.077

>  <r_i_glide_ecoul>  (330) 
-3.8563

>  <r_i_glide_erotb>  (330) 
0

>  <r_i_glide_esite>  (330) 
-0.0113564

>  <r_i_glide_emodel>  (330) 
-32.3863

>  <r_i_glide_energy>  (330) 
-23.9333

>  <r_i_glide_einternal>  (330) 
2.19219

>  <r_i_glide_intrahb_reward>  (330) 
-0.5

>  <i_i_glide_confnum>  (330) 
2

>  <i_i_glide_posenum>  (330) 
5

>  <r_i_glide_eff_state_penalty>  (330) 
0

>  <ligand_id>  (330) 
109

>  <original_smiles>  (330) 
CC1(C)C(O)C(=O)C23CC24C2=CC5(OC2CCC13)OC5C4O

>  <smiles>  (330) 
[H]OC1([H])C(=O)C23C([H])([H])C24C2=C([H])C5(OC2([H])C([H])([H])C([H])([H])C3([H])C1(C([H])([H])[H])C([H])([H])[H])OC5([H])C4([H])O[H]

$$$$
109:1:1
     RDKit          3D

 42 47  0  0  1  0  0  0  0  0999 V2000
    3.0727   -2.8299   -2.3874 C   0  0  0  0  0  0  0  0  0  0  0  0
    4.5123   -2.8176   -1.8142 C   0  0  0  0  0  0  0  0  0  0  0  0
    5.4589   -3.4552   -2.8353 C   0  0  0  0  0  0  0  0  0  0  0  0
    4.9755   -1.4186   -1.4191 C   0  0  1  0  0  0  0  0  0  0  0  0
    4.5967   -0.4440   -2.3769 O   0  0  0  0  0  0  0  0  0  0  0  0
    4.4339   -1.2311   -0.0005 C   0  0  0  0  0  0  0  0  0  0  0  0
    4.4191   -0.1388    0.5406 O   0  0  0  0  0  0  0  0  0  0  0  0
    4.0042   -2.5527    0.5864 C   0  0  2  0  0  0  0  0  0  0  0  0
    2.6150   -2.3302    1.0714 C   0  0  0  0  0  0  0  0  0  0  0  0
    3.5982   -2.9432    2.0251 C   0  0  1  0  0  0  0  0  0  0  0  0
    3.0268   -4.2768    2.4551 C   0  0  0  0  0  0  0  0  0  0  0  0
    2.6876   -4.2891    3.7378 C   0  0  0  0  0  0  0  0  0  0  0  0
    4.0308   -4.6130    4.3007 C   0  0  2  0  0  0  0  0  0  0  0  0
    4.7458   -5.5076    3.4713 O   0  0  0  0  0  0  0  0  0  0  0  0
    3.9819   -5.4467    2.2649 C   0  0  2  0  0  0  0  0  0  0  0  0
    4.8390   -5.5549    0.9970 C   0  0  0  0  0  0  0  0  0  0  0  0
    4.2061   -4.9609   -0.2722 C   0  0  0  0  0  0  0  0  0  0  0  0
    4.6045   -3.5021   -0.4293 C   0  0  1  0  0  0  0  0  0  0  0  0
    4.6739   -3.8471    5.3085 O   0  0  0  0  0  0  0  0  0  0  0  0
    4.9904   -3.4205    3.9964 C   0  0  2  0  0  0  0  0  0  0  0  0
    4.3308   -2.2642    3.2223 C   0  0  1  0  0  0  0  0  0  0  0  0
    5.3035   -1.2908    2.8932 O   0  0  0  0  0  0  0  0  0  0  0  0
    3.0340   -2.3646   -3.3750 H   0  0  0  0  0  0  0  0  0  0  0  0
    2.3629   -2.2943   -1.7558 H   0  0  0  0  0  0  0  0  0  0  0  0
    2.7080   -3.8501   -2.5097 H   0  0  0  0  0  0  0  0  0  0  0  0
    6.4800   -3.5229   -2.4603 H   0  0  0  0  0  0  0  0  0  0  0  0
    5.4680   -2.8745   -3.7522 H   0  0  0  0  0  0  0  0  0  0  0  0
    5.1251   -4.4587   -3.0996 H   0  0  0  0  0  0  0  0  0  0  0  0
    6.0577   -1.3787   -1.3527 H   0  0  0  0  0  0  0  0  0  0  0  0
    3.6660   -0.3106   -2.3135 H   0  0  0  0  0  0  0  0  0  0  0  0
    2.2708   -1.3229    1.3217 H   0  0  0  0  0  0  0  0  0  0  0  0
    1.8796   -2.9665    0.5908 H   0  0  0  0  0  0  0  0  0  0  0  0
    2.1951   -3.4246    4.1821 H   0  0  0  0  0  0  0  0  0  0  0  0
    3.3189   -6.3120    2.2691 H   0  0  0  0  0  0  0  0  0  0  0  0
    5.8234   -5.1241    1.2010 H   0  0  0  0  0  0  0  0  0  0  0  0
    5.0334   -6.6193    0.8252 H   0  0  0  0  0  0  0  0  0  0  0  0
    4.6323   -5.5137   -1.0983 H   0  0  0  0  0  0  0  0  0  0  0  0
    3.1278   -5.1193   -0.3007 H   0  0  0  0  0  0  0  0  0  0  0  0
    5.6760   -3.4873   -0.1983 H   0  0  0  0  0  0  0  0  0  0  0  0
    6.0103   -3.6379    3.7136 H   0  0  0  0  0  0  0  0  0  0  0  0
    3.5948   -1.7805    3.8642 H   0  0  0  0  0  0  0  0  0  0  0  0
    4.8806   -0.5851    2.4129 H   0  0  0  0  0  0  0  0  0  0  0  0
  1  2  1  0
  1 23  1  0
  1 24  1  0
  1 25  1  0
  2 18  1  0
  2  3  1  0
  2  4  1  0
  3 26  1  0
  3 27  1  0
  3 28  1  0
  4  5  1  0
  4  6  1  0
  4 29  1  1
  5 30  1  0
  6  7  2  0
  6  8  1  0
  8 10  1  0
  8 18  1  0
  8  9  1  6
 10  9  1  1
  9 31  1  0
  9 32  1  0
 10 21  1  0
 10 11  1  0
 11 15  1  0
 11 12  2  0
 12 13  1  0
 12 33  1  0
 13 20  1  0
 13 14  1  6
 13 19  1  0
 14 15  1  0
 15 16  1  0
 15 34  1  1
 16 17  1  0
 16 35  1  0
 16 36  1  0
 17 18  1  0
 17 37  1  0
 17 38  1  0
 18 39  1  1
 19 20  1  0
 20 21  1  0
 20 40  1  6
 21 22  1  0
 21 41  1  1
 22 42  1  0
M  END
>  <i_m_ct_stereo_status>  (331) 
1

>  <s_m_source_file>  (331) 
/var/tmp/pbs.5076255.sched01/tmppy4q9rbr/123plv7d954.sdf

>  <i_m_source_file_index>  (331) 
28

>  <i_lp_mmshare_version>  (331) 
48012

>  <i_f3d_flags>  (331) 
0

>  <s_epik_input>  (331) 
Tz1DMVtDQEhdKFtPSF0pQyhbQ0gzXSkoW0NIM10pW0NAQEhdMltDSDJdW0NIMl1bQ0BIXShDPTNbQ0BAXTQoW0NAQF0xMjUpW0NIMl01KU9DNihbQ0hdMylbQ0hdKE82KVtDQEhdNFtPSF0=

>  <s_epik_cmdline>  (331) 
J2VwaWtfcHl0aG9uJywgJy1waHQnLCAnMi4wJywgJy1waCcsICc3LjAnLCAnLXRuJywgJzgnLCAnLW1hJywgJzIwMCcsICctaW1hZScsICc8aW5maWxlLm1hZT4nLCAnLW9tYWUnLCAnPG91dGZpbGUubWFlPic=

>  <r_lp_tautomer_probability>  (331) 
1

>  <r_epik_Ionization_Penalty>  (331) 
1.08882e-06

>  <r_epik_Ionization_Penalty_Charging>  (331) 
0

>  <r_epik_Ionization_Penalty_Neutral>  (331) 
1.08882e-06

>  <r_epik_State_Penalty>  (331) 
-0

>  <r_epik_Charging_Adjusted_Penalty>  (331) 
0

>  <i_epik_Tot_Q>  (331) 
0

>  <i_epik_Tot_abs_Q>  (331) 
0

>  <s_lp_Force_Field>  (331) 
OPLS3e

>  <r_lp_Energy>  (331) 
101.46

>  <b_lp_Chiralities_Consistent>  (331) 
1

>  <s_lp_Variant>  (331) 
109:0-2

>  <s_i_glide_gridfile>  (331) 
pfpi4k_grid

>  <i_i_glide_lignum>  (331) 
28

>  <i_i_glide_rotatable_bonds>  (331) 
2

>  <r_i_docking_score>  (331) 
-3.46475

>  <r_i_glide_ligand_efficiency>  (331) 
-0.157489

>  <r_i_glide_ligand_efficiency_sa>  (331) 
-0.441289

>  <r_i_glide_ligand_efficiency_ln>  (331) 
-0.846911

>  <r_i_glide_gscore>  (331) 
-3.46475

>  <r_i_glide_lipo>  (331) 
-0.365875

>  <r_i_glide_hbond>  (331) 
0

>  <r_i_glide_metal>  (331) 
-0

>  <r_i_glide_rewards>  (331) 
-1.83406

>  <r_i_glide_evdw>  (331) 
-21.3666

>  <r_i_glide_ecoul>  (331) 
-1.19174

>  <r_i_glide_erotb>  (331) 
0

>  <r_i_glide_esite>  (331) 
-0.0177185

>  <r_i_glide_emodel>  (331) 
-30.7308

>  <r_i_glide_energy>  (331) 
-22.5584

>  <r_i_glide_einternal>  (331) 
1.65469

>  <r_i_glide_intrahb_reward>  (331) 
-0.5

>  <i_i_glide_confnum>  (331) 
2

>  <i_i_glide_posenum>  (331) 
21

>  <r_i_glide_eff_state_penalty>  (331) 
0

>  <ligand_id>  (331) 
109

>  <original_smiles>  (331) 
CC1(C)C(O)C(=O)C23CC24C2=CC5(OC2CCC13)OC5C4O

>  <smiles>  (331) 
[H]OC1([H])C(=O)C23C([H])([H])C24C2=C([H])C5(OC2([H])C([H])([H])C([H])([H])C3([H])C1(C([H])([H])[H])C([H])([H])[H])OC5([H])C4([H])O[H]

$$$$
109:1:2
     RDKit          3D

 42 47  0  0  1  0  0  0  0  0999 V2000
    5.4042   -1.4674   -1.5676 C   0  0  0  0  0  0  0  0  0  0  0  0
    4.1044   -2.2569   -1.3378 C   0  0  0  0  0  0  0  0  0  0  0  0
    3.0333   -1.7628   -2.3267 C   0  0  0  0  0  0  0  0  0  0  0  0
    4.2716   -3.7672   -1.4841 C   0  0  1  0  0  0  0  0  0  0  0  0
    5.0570   -4.1416   -2.5901 O   0  0  0  0  0  0  0  0  0  0  0  0
    4.8024   -4.2309   -0.1315 C   0  0  0  0  0  0  0  0  0  0  0  0
    5.3602   -5.3158    0.0200 O   0  0  0  0  0  0  0  0  0  0  0  0
    4.5821   -3.1501    0.9095 C   0  0  2  0  0  0  0  0  0  0  0  0
    5.9061   -2.9198    1.5782 C   0  0  0  0  0  0  0  0  0  0  0  0
    4.7024   -3.1522    2.4556 C   0  0  1  0  0  0  0  0  0  0  0  0
    4.5601   -1.9560    3.3696 C   0  0  0  0  0  0  0  0  0  0  0  0
    4.7834   -2.2619    4.6438 C   0  0  0  0  0  0  0  0  0  0  0  0
    3.4105   -2.7368    4.9838 C   0  0  2  0  0  0  0  0  0  0  0  0
    2.4369   -1.9643    4.3367 O   0  0  0  0  0  0  0  0  0  0  0  0
    3.2117   -1.2729    3.3594 C   0  0  2  0  0  0  0  0  0  0  0  0
    2.4660   -1.0813    2.0360 C   0  0  0  0  0  0  0  0  0  0  0  0
    3.3724   -0.8662    0.8040 C   0  0  0  0  0  0  0  0  0  0  0  0
    3.6656   -2.2092    0.1428 C   0  0  1  0  0  0  0  0  0  0  0  0
    3.1542   -4.0221    5.5721 O   0  0  0  0  0  0  0  0  0  0  0  0
    3.1011   -4.0282    4.1613 C   0  0  2  0  0  0  0  0  0  0  0  0
    4.2701   -4.4408    3.2328 C   0  0  1  0  0  0  0  0  0  0  0  0
    3.8352   -5.5408    2.4521 O   0  0  0  0  0  0  0  0  0  0  0  0
    5.6768   -1.5222   -2.6200 H   0  0  0  0  0  0  0  0  0  0  0  0
    6.2470   -1.8593   -0.9959 H   0  0  0  0  0  0  0  0  0  0  0  0
    5.2739   -0.4127   -1.3145 H   0  0  0  0  0  0  0  0  0  0  0  0
    2.0924   -2.2839   -2.1650 H   0  0  0  0  0  0  0  0  0  0  0  0
    3.3130   -1.9339   -3.3680 H   0  0  0  0  0  0  0  0  0  0  0  0
    2.8538   -0.6931   -2.2072 H   0  0  0  0  0  0  0  0  0  0  0  0
    3.3083   -4.2448   -1.6186 H   0  0  0  0  0  0  0  0  0  0  0  0
    4.9590   -5.0826   -2.6708 H   0  0  0  0  0  0  0  0  0  0  0  0
    6.6520   -3.7132    1.5890 H   0  0  0  0  0  0  0  0  0  0  0  0
    6.2974   -1.9124    1.4862 H   0  0  0  0  0  0  0  0  0  0  0  0
    5.5979   -2.9464    4.9204 H   0  0  0  0  0  0  0  0  0  0  0  0
    3.4070   -0.2822    3.7528 H   0  0  0  0  0  0  0  0  0  0  0  0
    1.7723   -1.9162    1.8884 H   0  0  0  0  0  0  0  0  0  0  0  0
    1.8133   -0.2104    2.1475 H   0  0  0  0  0  0  0  0  0  0  0  0
    2.7908   -0.2763    0.1122 H   0  0  0  0  0  0  0  0  0  0  0  0
    4.2663   -0.2847    1.0358 H   0  0  0  0  0  0  0  0  0  0  0  0
    2.6968   -2.7257    0.1385 H   0  0  0  0  0  0  0  0  0  0  0  0
    2.1131   -4.1928    3.7557 H   0  0  0  0  0  0  0  0  0  0  0  0
    5.1122   -4.7850    3.8340 H   0  0  0  0  0  0  0  0  0  0  0  0
    3.7536   -6.2937    3.0199 H   0  0  0  0  0  0  0  0  0  0  0  0
  1  2  1  0
  1 23  1  0
  1 24  1  0
  1 25  1  0
  2 18  1  0
  2  3  1  0
  2  4  1  0
  3 26  1  0
  3 27  1  0
  3 28  1  0
  4  5  1  0
  4  6  1  0
  4 29  1  6
  5 30  1  0
  6  7  2  0
  6  8  1  0
  8 10  1  0
  8 18  1  0
  8  9  1  6
 10  9  1  6
  9 31  1  0
  9 32  1  0
 10 21  1  0
 10 11  1  0
 11 15  1  0
 11 12  2  0
 12 13  1  0
 12 33  1  0
 13 20  1  0
 13 14  1  1
 13 19  1  0
 14 15  1  0
 15 16  1  0
 15 34  1  1
 16 17  1  0
 16 35  1  0
 16 36  1  0
 17 18  1  0
 17 37  1  0
 17 38  1  0
 18 39  1  6
 19 20  1  0
 20 21  1  0
 20 40  1  1
 21 22  1  0
 21 41  1  1
 22 42  1  0
M  END
>  <i_m_ct_stereo_status>  (332) 
1

>  <s_m_source_file>  (332) 
/var/tmp/pbs.5076255.sched01/tmppy4q9rbr/123plv7d954.sdf

>  <i_m_source_file_index>  (332) 
28

>  <i_lp_mmshare_version>  (332) 
48012

>  <i_f3d_flags>  (332) 
0

>  <s_epik_input>  (332) 
Tz1DMVtDQEhdKFtPSF0pQyhbQ0gzXSkoW0NIM10pW0NAQEhdMltDSDJdW0NIMl1bQ0BIXShDPTNbQ0BAXTQoW0NAQF0xMjUpW0NIMl01KU9DNihbQ0hdMylbQ0hdKE82KVtDQEhdNFtPSF0=

>  <s_epik_cmdline>  (332) 
J2VwaWtfcHl0aG9uJywgJy1waHQnLCAnMi4wJywgJy1waCcsICc3LjAnLCAnLXRuJywgJzgnLCAnLW1hJywgJzIwMCcsICctaW1hZScsICc8aW5maWxlLm1hZT4nLCAnLW9tYWUnLCAnPG91dGZpbGUubWFlPic=

>  <r_lp_tautomer_probability>  (332) 
1

>  <r_epik_Ionization_Penalty>  (332) 
1.08882e-06

>  <r_epik_Ionization_Penalty_Charging>  (332) 
0

>  <r_epik_Ionization_Penalty_Neutral>  (332) 
1.08882e-06

>  <r_epik_State_Penalty>  (332) 
-0

>  <r_epik_Charging_Adjusted_Penalty>  (332) 
0

>  <i_epik_Tot_Q>  (332) 
0

>  <i_epik_Tot_abs_Q>  (332) 
0

>  <s_lp_Force_Field>  (332) 
OPLS3e

>  <r_lp_Energy>  (332) 
101.46

>  <b_lp_Chiralities_Consistent>  (332) 
1

>  <s_lp_Variant>  (332) 
109:0-2

>  <s_i_glide_gridfile>  (332) 
pfpi4k_grid

>  <i_i_glide_lignum>  (332) 
28

>  <i_i_glide_rotatable_bonds>  (332) 
2

>  <r_i_docking_score>  (332) 
-2.99913

>  <r_i_glide_ligand_efficiency>  (332) 
-0.136324

>  <r_i_glide_ligand_efficiency_sa>  (332) 
-0.381986

>  <r_i_glide_ligand_efficiency_ln>  (332) 
-0.733097

>  <r_i_glide_gscore>  (332) 
-2.99913

>  <r_i_glide_lipo>  (332) 
-0.193343

>  <r_i_glide_hbond>  (332) 
0

>  <r_i_glide_metal>  (332) 
-0

>  <r_i_glide_rewards>  (332) 
-1.37851

>  <r_i_glide_evdw>  (332) 
-18.1726

>  <r_i_glide_ecoul>  (332) 
-3.45767

>  <r_i_glide_erotb>  (332) 
0

>  <r_i_glide_esite>  (332) 
0

>  <r_i_glide_emodel>  (332) 
-24.1182

>  <r_i_glide_energy>  (332) 
-21.6303

>  <r_i_glide_einternal>  (332) 
2.19839

>  <r_i_glide_intrahb_reward>  (332) 
-0

>  <i_i_glide_confnum>  (332) 
1

>  <i_i_glide_posenum>  (332) 
24

>  <r_i_glide_eff_state_penalty>  (332) 
0

>  <ligand_id>  (332) 
109

>  <original_smiles>  (332) 
CC1(C)C(O)C(=O)C23CC24C2=CC5(OC2CCC13)OC5C4O

>  <smiles>  (332) 
[H]OC1([H])C(=O)C23C([H])([H])C24C2=C([H])C5(OC2([H])C([H])([H])C([H])([H])C3([H])C1(C([H])([H])[H])C([H])([H])[H])OC5([H])C4([H])O[H]

$$$$
109:2:0
     RDKit          3D

 42 47  0  0  1  0  0  0  0  0999 V2000
    5.3958   -3.1388   -2.4549 C   0  0  0  0  0  0  0  0  0  0  0  0
    4.3313   -2.1400   -1.9442 C   0  0  0  0  0  0  0  0  0  0  0  0
    4.4355   -0.8223   -2.7224 C   0  0  0  0  0  0  0  0  0  0  0  0
    2.9106   -2.7212   -2.0986 C   0  0  1  0  0  0  0  0  0  0  0  0
    2.6608   -3.4544   -3.2825 O   0  0  0  0  0  0  0  0  0  0  0  0
    2.6675   -3.5375   -0.8273 C   0  0  0  0  0  0  0  0  0  0  0  0
    1.8048   -4.4060   -0.7111 O   0  0  0  0  0  0  0  0  0  0  0  0
    3.6676   -3.1301    0.2023 C   0  0  2  0  0  0  0  0  0  0  0  0
    4.4230   -4.1831    0.8898 C   0  0  0  0  0  0  0  0  0  0  0  0
    3.4619   -3.2611    1.7082 C   0  0  1  0  0  0  0  0  0  0  0  0
    3.8201   -1.9718    2.3090 C   0  0  0  0  0  0  0  0  0  0  0  0
    3.0659   -1.5249    3.3092 C   0  0  0  0  0  0  0  0  0  0  0  0
    3.8166   -2.2232    4.3350 C   0  0  1  0  0  0  0  0  0  0  0  0
    5.2160   -1.9542    4.1325 O   0  0  0  0  0  0  0  0  0  0  0  0
    5.2661   -2.0238    2.6898 C   0  0  2  0  0  0  0  0  0  0  0  0
    5.9312   -1.0419    1.7068 C   0  0  0  0  0  0  0  0  0  0  0  0
    5.8149   -1.5259    0.2085 C   0  0  0  0  0  0  0  0  0  0  0  0
    4.4023   -1.9098   -0.4037 C   0  0  1  0  0  0  0  0  0  0  0  0
    3.2043   -3.0889    5.3010 O   0  0  0  0  0  0  0  0  0  0  0  0
    3.6766   -3.8055    4.1582 C   0  0  1  0  0  0  0  0  0  0  0  0
    2.8945   -4.1762    2.8402 C   0  0  1  0  0  0  0  0  0  0  0  0
    1.4922   -4.0821    3.0091 O   0  0  0  0  0  0  0  0  0  0  0  0
    5.2760   -3.3277   -3.5249 H   0  0  0  0  0  0  0  0  0  0  0  0
    5.3318   -4.1059   -1.9518 H   0  0  0  0  0  0  0  0  0  0  0  0
    6.4009   -2.7449   -2.3191 H   0  0  0  0  0  0  0  0  0  0  0  0
    3.7224   -0.0779   -2.3818 H   0  0  0  0  0  0  0  0  0  0  0  0
    4.2784   -0.9647   -3.7935 H   0  0  0  0  0  0  0  0  0  0  0  0
    5.4113   -0.3839   -2.5838 H   0  0  0  0  0  0  0  0  0  0  0  0
    2.2184   -1.8871   -2.0687 H   0  0  0  0  0  0  0  0  0  0  0  0
    2.8077   -4.3839   -3.1026 H   0  0  0  0  0  0  0  0  0  0  0  0
    4.1129   -5.2048    0.6920 H   0  0  0  0  0  0  0  0  0  0  0  0
    5.5074   -4.1037    0.9313 H   0  0  0  0  0  0  0  0  0  0  0  0
    1.9902   -1.6301    3.3425 H   0  0  0  0  0  0  0  0  0  0  0  0
    5.7715   -2.9787    2.5738 H   0  0  0  0  0  0  0  0  0  0  0  0
    5.4832   -0.0535    1.8063 H   0  0  0  0  0  0  0  0  0  0  0  0
    6.9831   -0.9208    1.9676 H   0  0  0  0  0  0  0  0  0  0  0  0
    6.2042   -0.7141   -0.3929 H   0  0  0  0  0  0  0  0  0  0  0  0
    6.5161   -2.3437    0.0577 H   0  0  0  0  0  0  0  0  0  0  0  0
    3.7504   -1.0536   -0.2052 H   0  0  0  0  0  0  0  0  0  0  0  0
    4.5473   -4.4274    4.3629 H   0  0  0  0  0  0  0  0  0  0  0  0
    3.0759   -5.2312    2.6227 H   0  0  0  0  0  0  0  0  0  0  0  0
    1.2797   -3.1900    3.2480 H   0  0  0  0  0  0  0  0  0  0  0  0
  1  2  1  0
  1 23  1  0
  1 24  1  0
  1 25  1  0
  2 18  1  0
  2  3  1  0
  2  4  1  0
  3 26  1  0
  3 27  1  0
  3 28  1  0
  4  5  1  0
  4  6  1  0
  4 29  1  1
  5 30  1  0
  6  7  2  0
  6  8  1  0
  8 10  1  0
  8 18  1  0
  8  9  1  6
 10  9  1  1
  9 31  1  0
  9 32  1  0
 10 21  1  0
 10 11  1  0
 11 15  1  0
 11 12  2  0
 12 13  1  0
 12 33  1  0
 13 20  1  0
 13 14  1  1
 13 19  1  0
 14 15  1  0
 15 16  1  0
 15 34  1  1
 16 17  1  0
 16 35  1  0
 16 36  1  0
 17 18  1  0
 17 37  1  0
 17 38  1  0
 18 39  1  6
 19 20  1  0
 20 21  1  0
 20 40  1  1
 21 22  1  0
 21 41  1  6
 22 42  1  0
M  END
>  <i_m_ct_stereo_status>  (333) 
1

>  <s_m_source_file>  (333) 
/var/tmp/pbs.5076255.sched01/tmppy4q9rbr/123plv7d954.sdf

>  <i_m_source_file_index>  (333) 
29

>  <i_lp_mmshare_version>  (333) 
48012

>  <i_f3d_flags>  (333) 
0

>  <s_epik_input>  (333) 
Tz1DMVtDQEhdKFtPSF0pQyhbQ0gzXSkoW0NIM10pW0NAQEhdMltDSDJdW0NIMl1bQ0BIXShDPTNbQ0BAXTQoW0NAQF0xMjUpW0NIMl01KU9DNihbQ0hdMylbQ0hdKE82KVtDQEhdNFtPSF0=

>  <s_epik_cmdline>  (333) 
J2VwaWtfcHl0aG9uJywgJy1waHQnLCAnMi4wJywgJy1waCcsICc3LjAnLCAnLXRuJywgJzgnLCAnLW1hJywgJzIwMCcsICctaW1hZScsICc8aW5maWxlLm1hZT4nLCAnLW9tYWUnLCAnPG91dGZpbGUubWFlPic=

>  <r_lp_tautomer_probability>  (333) 
1

>  <r_epik_Ionization_Penalty>  (333) 
1.08882e-06

>  <r_epik_Ionization_Penalty_Charging>  (333) 
0

>  <r_epik_Ionization_Penalty_Neutral>  (333) 
1.08882e-06

>  <r_epik_State_Penalty>  (333) 
-0

>  <r_epik_Charging_Adjusted_Penalty>  (333) 
0

>  <i_epik_Tot_Q>  (333) 
0

>  <i_epik_Tot_abs_Q>  (333) 
0

>  <s_lp_Force_Field>  (333) 
OPLS3e

>  <r_lp_Energy>  (333) 
130.046

>  <b_lp_Chiralities_Consistent>  (333) 
1

>  <s_lp_Variant>  (333) 
109:0-3

>  <s_i_glide_gridfile>  (333) 
pfpi4k_grid

>  <i_i_glide_lignum>  (333) 
29

>  <i_i_glide_rotatable_bonds>  (333) 
2

>  <r_i_docking_score>  (333) 
-3.72959

>  <r_i_glide_ligand_efficiency>  (333) 
-0.169527

>  <r_i_glide_ligand_efficiency_sa>  (333) 
-0.475021

>  <r_i_glide_ligand_efficiency_ln>  (333) 
-0.911648

>  <r_i_glide_gscore>  (333) 
-3.72959

>  <r_i_glide_lipo>  (333) 
-0.465121

>  <r_i_glide_hbond>  (333) 
-0.00181339

>  <r_i_glide_metal>  (333) 
-0

>  <r_i_glide_rewards>  (333) 
-1.33407

>  <r_i_glide_evdw>  (333) 
-21.6525

>  <r_i_glide_ecoul>  (333) 
-5.54371

>  <r_i_glide_erotb>  (333) 
0

>  <r_i_glide_esite>  (333) 
-0.0144097

>  <r_i_glide_emodel>  (333) 
-31.1007

>  <r_i_glide_energy>  (333) 
-27.1962

>  <r_i_glide_einternal>  (333) 
2.45021

>  <r_i_glide_intrahb_reward>  (333) 
-0

>  <i_i_glide_confnum>  (333) 
2

>  <i_i_glide_posenum>  (333) 
21

>  <r_i_glide_eff_state_penalty>  (333) 
0

>  <ligand_id>  (333) 
109

>  <original_smiles>  (333) 
CC1(C)C(O)C(=O)C23CC24C2=CC5(OC2CCC13)OC5C4O

>  <smiles>  (333) 
[H]OC1([H])C(=O)C23C([H])([H])C24C2=C([H])C5(OC2([H])C([H])([H])C([H])([H])C3([H])C1(C([H])([H])[H])C([H])([H])[H])OC5([H])C4([H])O[H]

$$$$
109:2:1
     RDKit          3D

 42 47  0  0  1  0  0  0  0  0999 V2000
    4.2031   -0.4300    4.8225 C   0  0  0  0  0  0  0  0  0  0  0  0
    3.0879   -1.3584    4.2631 C   0  0  0  0  0  0  0  0  0  0  0  0
    2.4840   -2.1742    5.4198 C   0  0  0  0  0  0  0  0  0  0  0  0
    2.0120   -0.5627    3.4895 C   0  0  1  0  0  0  0  0  0  0  0  0
    1.6493    0.6588    4.1219 O   0  0  0  0  0  0  0  0  0  0  0  0
    2.6061   -0.3851    2.0992 C   0  0  0  0  0  0  0  0  0  0  0  0
    2.2274    0.4963    1.3333 O   0  0  0  0  0  0  0  0  0  0  0  0
    3.6558   -1.4055    1.8601 C   0  0  2  0  0  0  0  0  0  0  0  0
    4.9162   -0.9064    1.2957 C   0  0  0  0  0  0  0  0  0  0  0  0
    4.0691   -1.9382    0.4926 C   0  0  1  0  0  0  0  0  0  0  0  0
    4.1014   -3.3928    0.6297 C   0  0  0  0  0  0  0  0  0  0  0  0
    3.6174   -4.1159   -0.3770 C   0  0  0  0  0  0  0  0  0  0  0  0
    4.8846   -4.1209   -1.1089 C   0  0  1  0  0  0  0  0  0  0  0  0
    5.9691   -4.4432   -0.2247 O   0  0  0  0  0  0  0  0  0  0  0  0
    5.5180   -3.7621    0.9676 C   0  0  2  0  0  0  0  0  0  0  0  0
    5.4053   -4.2758    2.4240 C   0  0  0  0  0  0  0  0  0  0  0  0
    4.9486   -3.1299    3.4189 C   0  0  0  0  0  0  0  0  0  0  0  0
    3.6329   -2.2920    3.1307 C   0  0  1  0  0  0  0  0  0  0  0  0
    5.0400   -3.7308   -2.4583 O   0  0  0  0  0  0  0  0  0  0  0  0
    5.2581   -2.6348   -1.5636 C   0  0  1  0  0  0  0  0  0  0  0  0
    4.2379   -1.5691   -1.0056 C   0  0  1  0  0  0  0  0  0  0  0  0
    3.0377   -1.5652   -1.7573 O   0  0  0  0  0  0  0  0  0  0  0  0
    3.8027    0.2525    5.5747 H   0  0  0  0  0  0  0  0  0  0  0  0
    4.6671    0.1882    4.0486 H   0  0  0  0  0  0  0  0  0  0  0  0
    4.9897   -0.9985    5.3159 H   0  0  0  0  0  0  0  0  0  0  0  0
    1.7290   -2.8723    5.0658 H   0  0  0  0  0  0  0  0  0  0  0  0
    2.0219   -1.5239    6.1584 H   0  0  0  0  0  0  0  0  0  0  0  0
    3.2497   -2.7529    5.9387 H   0  0  0  0  0  0  0  0  0  0  0  0
    1.1065   -1.1612    3.3879 H   0  0  0  0  0  0  0  0  0  0  0  0
    1.2526    0.4762    4.9629 H   0  0  0  0  0  0  0  0  0  0  0  0
    4.9164    0.1264    0.9446 H   0  0  0  0  0  0  0  0  0  0  0  0
    5.8334   -1.1784    1.7950 H   0  0  0  0  0  0  0  0  0  0  0  0
    2.7562   -3.8348   -0.9507 H   0  0  0  0  0  0  0  0  0  0  0  0
    6.2427   -2.9614    0.9780 H   0  0  0  0  0  0  0  0  0  0  0  0
    4.7011   -5.1167    2.4768 H   0  0  0  0  0  0  0  0  0  0  0  0
    6.3665   -4.6852    2.7476 H   0  0  0  0  0  0  0  0  0  0  0  0
    4.8070   -3.6172    4.3812 H   0  0  0  0  0  0  0  0  0  0  0  0
    5.7941   -2.4657    3.5774 H   0  0  0  0  0  0  0  0  0  0  0  0
    2.8437   -3.0221    2.9494 H   0  0  0  0  0  0  0  0  0  0  0  0
    6.3091   -2.3300   -1.5472 H   0  0  0  0  0  0  0  0  0  0  0  0
    4.6810   -0.5841   -1.1062 H   0  0  0  0  0  0  0  0  0  0  0  0
    2.3236   -1.1697   -1.2495 H   0  0  0  0  0  0  0  0  0  0  0  0
  1  2  1  0
  1 23  1  0
  1 24  1  0
  1 25  1  0
  2 18  1  0
  2  3  1  0
  2  4  1  0
  3 26  1  0
  3 27  1  0
  3 28  1  0
  4  5  1  0
  4  6  1  0
  4 29  1  6
  5 30  1  0
  6  7  2  0
  6  8  1  0
  8 10  1  0
  8 18  1  0
  8  9  1  1
 10  9  1  1
  9 31  1  0
  9 32  1  0
 10 21  1  0
 10 11  1  0
 11 15  1  0
 11 12  2  0
 12 13  1  0
 12 33  1  0
 13 20  1  0
 13 14  1  1
 13 19  1  0
 14 15  1  0
 15 16  1  0
 15 34  1  1
 16 17  1  0
 16 35  1  0
 16 36  1  0
 17 18  1  0
 17 37  1  0
 17 38  1  0
 18 39  1  6
 19 20  1  0
 20 21  1  0
 20 40  1  1
 21 22  1  0
 21 41  1  1
 22 42  1  0
M  END
>  <i_m_ct_stereo_status>  (334) 
1

>  <s_m_source_file>  (334) 
/var/tmp/pbs.5076255.sched01/tmppy4q9rbr/123plv7d954.sdf

>  <i_m_source_file_index>  (334) 
29

>  <i_lp_mmshare_version>  (334) 
48012

>  <i_f3d_flags>  (334) 
0

>  <s_epik_input>  (334) 
Tz1DMVtDQEhdKFtPSF0pQyhbQ0gzXSkoW0NIM10pW0NAQEhdMltDSDJdW0NIMl1bQ0BIXShDPTNbQ0BAXTQoW0NAQF0xMjUpW0NIMl01KU9DNihbQ0hdMylbQ0hdKE82KVtDQEhdNFtPSF0=

>  <s_epik_cmdline>  (334) 
J2VwaWtfcHl0aG9uJywgJy1waHQnLCAnMi4wJywgJy1waCcsICc3LjAnLCAnLXRuJywgJzgnLCAnLW1hJywgJzIwMCcsICctaW1hZScsICc8aW5maWxlLm1hZT4nLCAnLW9tYWUnLCAnPG91dGZpbGUubWFlPic=

>  <r_lp_tautomer_probability>  (334) 
1

>  <r_epik_Ionization_Penalty>  (334) 
1.08882e-06

>  <r_epik_Ionization_Penalty_Charging>  (334) 
0

>  <r_epik_Ionization_Penalty_Neutral>  (334) 
1.08882e-06

>  <r_epik_State_Penalty>  (334) 
-0

>  <r_epik_Charging_Adjusted_Penalty>  (334) 
0

>  <i_epik_Tot_Q>  (334) 
0

>  <i_epik_Tot_abs_Q>  (334) 
0

>  <s_lp_Force_Field>  (334) 
OPLS3e

>  <r_lp_Energy>  (334) 
130.046

>  <b_lp_Chiralities_Consistent>  (334) 
1

>  <s_lp_Variant>  (334) 
109:0-3

>  <s_i_glide_gridfile>  (334) 
pfpi4k_grid

>  <i_i_glide_lignum>  (334) 
29

>  <i_i_glide_rotatable_bonds>  (334) 
2

>  <r_i_docking_score>  (334) 
-3.19212

>  <r_i_glide_ligand_efficiency>  (334) 
-0.145097

>  <r_i_glide_ligand_efficiency_sa>  (334) 
-0.406566

>  <r_i_glide_ligand_efficiency_ln>  (334) 
-0.780271

>  <r_i_glide_gscore>  (334) 
-3.19212

>  <r_i_glide_lipo>  (334) 
-0.260916

>  <r_i_glide_hbond>  (334) 
0

>  <r_i_glide_metal>  (334) 
-0

>  <r_i_glide_rewards>  (334) 
-1.33406

>  <r_i_glide_evdw>  (334) 
-19.9404

>  <r_i_glide_ecoul>  (334) 
-3.72979

>  <r_i_glide_erotb>  (334) 
0

>  <r_i_glide_esite>  (334) 
-0.0406589

>  <r_i_glide_emodel>  (334) 
-28.2226

>  <r_i_glide_energy>  (334) 
-23.6702

>  <r_i_glide_einternal>  (334) 
0.771829

>  <r_i_glide_intrahb_reward>  (334) 
-0

>  <i_i_glide_confnum>  (334) 
2

>  <i_i_glide_posenum>  (334) 
4

>  <r_i_glide_eff_state_penalty>  (334) 
0

>  <ligand_id>  (334) 
109

>  <original_smiles>  (334) 
CC1(C)C(O)C(=O)C23CC24C2=CC5(OC2CCC13)OC5C4O

>  <smiles>  (334) 
[H]OC1([H])C(=O)C23C([H])([H])C24C2=C([H])C5(OC2([H])C([H])([H])C([H])([H])C3([H])C1(C([H])([H])[H])C([H])([H])[H])OC5([H])C4([H])O[H]

$$$$
109:2:2
     RDKit          3D

 42 47  0  0  1  0  0  0  0  0999 V2000
    5.1746   -2.8575   -2.6768 C   0  0  0  0  0  0  0  0  0  0  0  0
    4.0196   -1.9371   -2.2045 C   0  0  0  0  0  0  0  0  0  0  0  0
    4.0175   -0.6534   -3.0473 C   0  0  0  0  0  0  0  0  0  0  0  0
    2.6527   -2.6609   -2.3046 C   0  0  1  0  0  0  0  0  0  0  0  0
    2.4956   -3.4389   -3.4776 O   0  0  0  0  0  0  0  0  0  0  0  0
    2.5715   -3.4527   -0.9911 C   0  0  0  0  0  0  0  0  0  0  0  0
    1.8011   -4.3768   -0.7462 O   0  0  0  0  0  0  0  0  0  0  0  0
    3.5156   -2.8902    0.0021 C   0  0  2  0  0  0  0  0  0  0  0  0
    4.3673   -3.8314    0.7357 C   0  0  0  0  0  0  0  0  0  0  0  0
    3.3272   -2.9690    1.5224 C   0  0  1  0  0  0  0  0  0  0  0  0
    3.5630   -1.6256    2.0616 C   0  0  0  0  0  0  0  0  0  0  0  0
    2.7876   -1.2073    3.0511 C   0  0  0  0  0  0  0  0  0  0  0  0
    3.6170   -1.7797    4.0949 C   0  0  1  0  0  0  0  0  0  0  0  0
    4.9797   -1.3930    3.8557 O   0  0  0  0  0  0  0  0  0  0  0  0
    5.0127   -1.5243    2.4185 C   0  0  2  0  0  0  0  0  0  0  0  0
    5.5573   -0.5327    1.3756 C   0  0  0  0  0  0  0  0  0  0  0  0
    5.4802   -1.0910   -0.1000 C   0  0  0  0  0  0  0  0  0  0  0  0
    4.1040   -1.6328   -0.6742 C   0  0  1  0  0  0  0  0  0  0  0  0
    3.1129   -2.6538    5.1123 O   0  0  0  0  0  0  0  0  0  0  0  0
    3.6338   -3.3750    3.9939 C   0  0  1  0  0  0  0  0  0  0  0  0
    2.8671   -3.8821    2.7086 C   0  0  1  0  0  0  0  0  0  0  0  0
    1.4671   -3.9165    2.9237 O   0  0  0  0  0  0  0  0  0  0  0  0
    5.0659   -3.1130   -3.7330 H   0  0  0  0  0  0  0  0  0  0  0  0
    5.2100   -3.7996   -2.1270 H   0  0  0  0  0  0  0  0  0  0  0  0
    6.1419   -2.3709   -2.5686 H   0  0  0  0  0  0  0  0  0  0  0  0
    3.2354    0.0342   -2.7284 H   0  0  0  0  0  0  0  0  0  0  0  0
    3.8644   -0.8628   -4.1076 H   0  0  0  0  0  0  0  0  0  0  0  0
    4.9661   -0.1353   -2.9403 H   0  0  0  0  0  0  0  0  0  0  0  0
    1.8462   -1.9322   -2.3292 H   0  0  0  0  0  0  0  0  0  0  0  0
    2.2063   -2.8635   -4.1708 H   0  0  0  0  0  0  0  0  0  0  0  0
    4.1493   -4.8847    0.5888 H   0  0  0  0  0  0  0  0  0  0  0  0
    5.4356   -3.6473    0.7563 H   0  0  0  0  0  0  0  0  0  0  0  0
    1.7221   -1.4132    3.1179 H   0  0  0  0  0  0  0  0  0  0  0  0
    5.6084   -2.4265    2.3379 H   0  0  0  0  0  0  0  0  0  0  0  0
    5.0057    0.4084    1.4289 H   0  0  0  0  0  0  0  0  0  0  0  0
    6.5963   -0.3058    1.6104 H   0  0  0  0  0  0  0  0  0  0  0  0
    5.7930   -0.2746   -0.7406 H   0  0  0  0  0  0  0  0  0  0  0  0
    6.2541   -1.8476   -0.2158 H   0  0  0  0  0  0  0  0  0  0  0  0
    3.3767   -0.8362   -0.4903 H   0  0  0  0  0  0  0  0  0  0  0  0
    4.5565   -3.9050    4.2135 H   0  0  0  0  0  0  0  0  0  0  0  0
    3.1422   -4.9257    2.5382 H   0  0  0  0  0  0  0  0  0  0  0  0
    1.1618   -3.0291    3.0351 H   0  0  0  0  0  0  0  0  0  0  0  0
  1  2  1  0
  1 23  1  0
  1 24  1  0
  1 25  1  0
  2 18  1  0
  2  3  1  0
  2  4  1  0
  3 26  1  0
  3 27  1  0
  3 28  1  0
  4  5  1  0
  4  6  1  0
  4 29  1  1
  5 30  1  0
  6  7  2  0
  6  8  1  0
  8 10  1  0
  8 18  1  0
  8  9  1  1
 10  9  1  1
  9 31  1  0
  9 32  1  0
 10 21  1  0
 10 11  1  0
 11 15  1  0
 11 12  2  0
 12 13  1  0
 12 33  1  0
 13 20  1  0
 13 14  1  1
 13 19  1  0
 14 15  1  0
 15 16  1  0
 15 34  1  1
 16 17  1  0
 16 35  1  0
 16 36  1  0
 17 18  1  0
 17 37  1  0
 17 38  1  0
 18 39  1  6
 19 20  1  0
 20 21  1  0
 20 40  1  1
 21 22  1  0
 21 41  1  6
 22 42  1  0
M  END
>  <i_m_ct_stereo_status>  (335) 
1

>  <s_m_source_file>  (335) 
/var/tmp/pbs.5076255.sched01/tmppy4q9rbr/123plv7d954.sdf

>  <i_m_source_file_index>  (335) 
29

>  <i_lp_mmshare_version>  (335) 
48012

>  <i_f3d_flags>  (335) 
0

>  <s_epik_input>  (335) 
Tz1DMVtDQEhdKFtPSF0pQyhbQ0gzXSkoW0NIM10pW0NAQEhdMltDSDJdW0NIMl1bQ0BIXShDPTNbQ0BAXTQoW0NAQF0xMjUpW0NIMl01KU9DNihbQ0hdMylbQ0hdKE82KVtDQEhdNFtPSF0=

>  <s_epik_cmdline>  (335) 
J2VwaWtfcHl0aG9uJywgJy1waHQnLCAnMi4wJywgJy1waCcsICc3LjAnLCAnLXRuJywgJzgnLCAnLW1hJywgJzIwMCcsICctaW1hZScsICc8aW5maWxlLm1hZT4nLCAnLW9tYWUnLCAnPG91dGZpbGUubWFlPic=

>  <r_lp_tautomer_probability>  (335) 
1

>  <r_epik_Ionization_Penalty>  (335) 
1.08882e-06

>  <r_epik_Ionization_Penalty_Charging>  (335) 
0

>  <r_epik_Ionization_Penalty_Neutral>  (335) 
1.08882e-06

>  <r_epik_State_Penalty>  (335) 
-0

>  <r_epik_Charging_Adjusted_Penalty>  (335) 
0

>  <i_epik_Tot_Q>  (335) 
0

>  <i_epik_Tot_abs_Q>  (335) 
0

>  <s_lp_Force_Field>  (335) 
OPLS3e

>  <r_lp_Energy>  (335) 
130.046

>  <b_lp_Chiralities_Consistent>  (335) 
1

>  <s_lp_Variant>  (335) 
109:0-3

>  <s_i_glide_gridfile>  (335) 
pfpi4k_grid

>  <i_i_glide_lignum>  (335) 
29

>  <i_i_glide_rotatable_bonds>  (335) 
2

>  <r_i_docking_score>  (335) 
-3.11631

>  <r_i_glide_ligand_efficiency>  (335) 
-0.14165

>  <r_i_glide_ligand_efficiency_sa>  (335) 
-0.39691

>  <r_i_glide_ligand_efficiency_ln>  (335) 
-0.761739

>  <r_i_glide_gscore>  (335) 
-3.11631

>  <r_i_glide_lipo>  (335) 
-0.557021

>  <r_i_glide_hbond>  (335) 
-0.000941834

>  <r_i_glide_metal>  (335) 
-0

>  <r_i_glide_rewards>  (335) 
-1.33415

>  <r_i_glide_evdw>  (335) 
-21.9748

>  <r_i_glide_ecoul>  (335) 
-0.801161

>  <r_i_glide_erotb>  (335) 
0

>  <r_i_glide_esite>  (335) 
-0.0052739

>  <r_i_glide_emodel>  (335) 
-27.2713

>  <r_i_glide_energy>  (335) 
-22.776

>  <r_i_glide_einternal>  (335) 
0.389703

>  <r_i_glide_intrahb_reward>  (335) 
-0

>  <i_i_glide_confnum>  (335) 
2

>  <i_i_glide_posenum>  (335) 
1

>  <r_i_glide_eff_state_penalty>  (335) 
0

>  <ligand_id>  (335) 
109

>  <original_smiles>  (335) 
CC1(C)C(O)C(=O)C23CC24C2=CC5(OC2CCC13)OC5C4O

>  <smiles>  (335) 
[H]OC1([H])C(=O)C23C([H])([H])C24C2=C([H])C5(OC2([H])C([H])([H])C([H])([H])C3([H])C1(C([H])([H])[H])C([H])([H])[H])OC5([H])C4([H])O[H]

$$$$
109:3:0
     RDKit          3D

 42 47  0  0  1  0  0  0  0  0999 V2000
    5.0416   -3.0323   -3.2376 C   0  0  0  0  0  0  0  0  0  0  0  0
    3.9743   -2.0652   -2.6755 C   0  0  0  0  0  0  0  0  0  0  0  0
    3.9938   -0.7250   -3.4307 C   0  0  0  0  0  0  0  0  0  0  0  0
    2.5558   -2.6785   -2.6870 C   0  0  1  0  0  0  0  0  0  0  0  0
    2.2191   -3.4423   -3.8397 O   0  0  0  0  0  0  0  0  0  0  0  0
    2.5055   -3.4493   -1.3784 C   0  0  0  0  0  0  0  0  0  0  0  0
    1.5835   -4.2440   -1.1265 O   0  0  0  0  0  0  0  0  0  0  0  0
    3.6832   -3.1247   -0.5053 C   0  0  2  0  0  0  0  0  0  0  0  0
    4.3693   -4.3946   -0.1338 C   0  0  0  0  0  0  0  0  0  0  0  0
    3.9410   -3.4433    0.9788 C   0  0  1  0  0  0  0  0  0  0  0  0
    5.1636   -3.0747    1.7907 C   0  0  0  0  0  0  0  0  0  0  0  0
    5.1719   -3.5923    3.0341 C   0  0  0  0  0  0  0  0  0  0  0  0
    4.1855   -2.6812    3.7127 C   0  0  2  0  0  0  0  0  0  0  0  0
    4.1707   -1.4326    3.0015 O   0  0  0  0  0  0  0  0  0  0  0  0
    5.1742   -1.5989    2.0109 C   0  0  2  0  0  0  0  0  0  0  0  0
    5.1664   -0.6455    0.8012 C   0  0  0  0  0  0  0  0  0  0  0  0
    5.4542   -1.2750   -0.5785 C   0  0  0  0  0  0  0  0  0  0  0  0
    4.1612   -1.8560   -1.1519 C   0  0  1  0  0  0  0  0  0  0  0  0
    2.9423   -2.8741    4.4117 O   0  0  0  0  0  0  0  0  0  0  0  0
    3.0044   -3.6847    3.2936 C   0  0  1  0  0  0  0  0  0  0  0  0
    2.6559   -3.4654    1.8319 C   0  0  1  0  0  0  0  0  0  0  0  0
    1.9087   -2.2804    1.6788 O   0  0  0  0  0  0  0  0  0  0  0  0
    4.9003   -3.1570   -4.3138 H   0  0  0  0  0  0  0  0  0  0  0  0
    4.9934   -4.0223   -2.7925 H   0  0  0  0  0  0  0  0  0  0  0  0
    6.0563   -2.6611   -3.0738 H   0  0  0  0  0  0  0  0  0  0  0  0
    3.2740   -0.0038   -3.0209 H   0  0  0  0  0  0  0  0  0  0  0  0
    3.7398   -0.8631   -4.4866 H   0  0  0  0  0  0  0  0  0  0  0  0
    4.9789   -0.2805   -3.3616 H   0  0  0  0  0  0  0  0  0  0  0  0
    1.8345   -1.8646   -2.6101 H   0  0  0  0  0  0  0  0  0  0  0  0
    1.3765   -3.8594   -3.6618 H   0  0  0  0  0  0  0  0  0  0  0  0
    3.8097   -5.3280   -0.1840 H   0  0  0  0  0  0  0  0  0  0  0  0
    5.4218   -4.4592   -0.3836 H   0  0  0  0  0  0  0  0  0  0  0  0
    5.1286   -4.6607    3.1867 H   0  0  0  0  0  0  0  0  0  0  0  0
    6.1079   -1.3852    2.5354 H   0  0  0  0  0  0  0  0  0  0  0  0
    4.2428   -0.0566    0.7875 H   0  0  0  0  0  0  0  0  0  0  0  0
    5.9456    0.0917    0.9856 H   0  0  0  0  0  0  0  0  0  0  0  0
    5.7751   -0.4718   -1.2273 H   0  0  0  0  0  0  0  0  0  0  0  0
    6.2678   -2.0024   -0.5476 H   0  0  0  0  0  0  0  0  0  0  0  0
    3.4014   -1.1053   -0.8886 H   0  0  0  0  0  0  0  0  0  0  0  0
    3.0573   -4.7226    3.5758 H   0  0  0  0  0  0  0  0  0  0  0  0
    2.0624   -4.3207    1.5166 H   0  0  0  0  0  0  0  0  0  0  0  0
    2.4880   -1.5438    1.8179 H   0  0  0  0  0  0  0  0  0  0  0  0
  1  2  1  0
  1 23  1  0
  1 24  1  0
  1 25  1  0
  2 18  1  0
  2  3  1  0
  2  4  1  0
  3 26  1  0
  3 27  1  0
  3 28  1  0
  4  5  1  0
  4  6  1  0
  4 29  1  1
  5 30  1  0
  6  7  2  0
  6  8  1  0
  8 10  1  0
  8 18  1  0
  8  9  1  6
 10  9  1  6
  9 31  1  0
  9 32  1  0
 10 21  1  0
 10 11  1  0
 11 15  1  0
 11 12  2  0
 12 13  1  0
 12 33  1  0
 13 20  1  0
 13 14  1  6
 13 19  1  0
 14 15  1  0
 15 16  1  0
 15 34  1  1
 16 17  1  0
 16 35  1  0
 16 36  1  0
 17 18  1  0
 17 37  1  0
 17 38  1  0
 18 39  1  1
 19 20  1  0
 20 21  1  0
 20 40  1  1
 21 22  1  0
 21 41  1  6
 22 42  1  0
M  END
>  <i_m_ct_stereo_status>  (336) 
1

>  <s_m_source_file>  (336) 
/var/tmp/pbs.5076255.sched01/tmppy4q9rbr/123plv7d954.sdf

>  <i_m_source_file_index>  (336) 
30

>  <i_lp_mmshare_version>  (336) 
48012

>  <i_f3d_flags>  (336) 
0

>  <s_epik_input>  (336) 
Tz1DMVtDQEhdKFtPSF0pQyhbQ0gzXSkoW0NIM10pW0NAQEhdMltDSDJdW0NIMl1bQ0BIXShDPTNbQ0BAXTQoW0NAQF0xMjUpW0NIMl01KU9DNihbQ0hdMylbQ0hdKE82KVtDQEhdNFtPSF0=

>  <s_epik_cmdline>  (336) 
J2VwaWtfcHl0aG9uJywgJy1waHQnLCAnMi4wJywgJy1waCcsICc3LjAnLCAnLXRuJywgJzgnLCAnLW1hJywgJzIwMCcsICctaW1hZScsICc8aW5maWxlLm1hZT4nLCAnLW9tYWUnLCAnPG91dGZpbGUubWFlPic=

>  <r_lp_tautomer_probability>  (336) 
1

>  <r_epik_Ionization_Penalty>  (336) 
1.08882e-06

>  <r_epik_Ionization_Penalty_Charging>  (336) 
0

>  <r_epik_Ionization_Penalty_Neutral>  (336) 
1.08882e-06

>  <r_epik_State_Penalty>  (336) 
-0

>  <r_epik_Charging_Adjusted_Penalty>  (336) 
0

>  <i_epik_Tot_Q>  (336) 
0

>  <i_epik_Tot_abs_Q>  (336) 
0

>  <s_lp_Force_Field>  (336) 
OPLS3e

>  <r_lp_Energy>  (336) 
124.435

>  <b_lp_Chiralities_Consistent>  (336) 
1

>  <s_lp_Variant>  (336) 
109:0-4

>  <s_i_glide_gridfile>  (336) 
pfpi4k_grid

>  <i_i_glide_lignum>  (336) 
30

>  <i_i_glide_rotatable_bonds>  (336) 
2

>  <r_i_docking_score>  (336) 
-4.2818

>  <r_i_glide_ligand_efficiency>  (336) 
-0.194627

>  <r_i_glide_ligand_efficiency_sa>  (336) 
-0.545353

>  <r_i_glide_ligand_efficiency_ln>  (336) 
-1.04663

>  <r_i_glide_gscore>  (336) 
-4.2818

>  <r_i_glide_lipo>  (336) 
-0.764086

>  <r_i_glide_hbond>  (336) 
-0.00181365

>  <r_i_glide_metal>  (336) 
-0

>  <r_i_glide_rewards>  (336) 
-1.93417

>  <r_i_glide_evdw>  (336) 
-23.5621

>  <r_i_glide_ecoul>  (336) 
-2.69083

>  <r_i_glide_erotb>  (336) 
0

>  <r_i_glide_esite>  (336) 
0

>  <r_i_glide_emodel>  (336) 
-37.6455

>  <r_i_glide_energy>  (336) 
-26.2529

>  <r_i_glide_einternal>  (336) 
1.9828

>  <r_i_glide_intrahb_reward>  (336) 
-0.5

>  <i_i_glide_confnum>  (336) 
1

>  <i_i_glide_posenum>  (336) 
1

>  <r_i_glide_eff_state_penalty>  (336) 
0

>  <ligand_id>  (336) 
109

>  <original_smiles>  (336) 
CC1(C)C(O)C(=O)C23CC24C2=CC5(OC2CCC13)OC5C4O

>  <smiles>  (336) 
[H]OC1([H])C(=O)C23C([H])([H])C24C2=C([H])C5(OC2([H])C([H])([H])C([H])([H])C3([H])C1(C([H])([H])[H])C([H])([H])[H])OC5([H])C4([H])O[H]

$$$$
109:3:1
     RDKit          3D

 42 47  0  0  1  0  0  0  0  0999 V2000
    5.0368   -3.0317   -3.2543 C   0  0  0  0  0  0  0  0  0  0  0  0
    3.9714   -2.0599   -2.7000 C   0  0  0  0  0  0  0  0  0  0  0  0
    3.9872   -0.7250   -3.4579 C   0  0  0  0  0  0  0  0  0  0  0  0
    2.5543   -2.6695   -2.7180 C   0  0  1  0  0  0  0  0  0  0  0  0
    2.2223   -3.4601   -3.8564 O   0  0  0  0  0  0  0  0  0  0  0  0
    2.4916   -3.4366   -1.4002 C   0  0  0  0  0  0  0  0  0  0  0  0
    1.5452   -4.1898   -1.1168 O   0  0  0  0  0  0  0  0  0  0  0  0
    3.6761   -3.1298   -0.5358 C   0  0  2  0  0  0  0  0  0  0  0  0
    4.3627   -4.4083   -0.1702 C   0  0  0  0  0  0  0  0  0  0  0  0
    3.9375   -3.4557    0.9457 C   0  0  1  0  0  0  0  0  0  0  0  0
    5.1562   -3.0900    1.7615 C   0  0  0  0  0  0  0  0  0  0  0  0
    5.1585   -3.6195    3.0041 C   0  0  0  0  0  0  0  0  0  0  0  0
    4.1767   -2.7174    3.6883 C   0  0  2  0  0  0  0  0  0  0  0  0
    4.1952   -1.4506    3.0097 O   0  0  0  0  0  0  0  0  0  0  0  0
    5.1727   -1.6183    1.9916 C   0  0  2  0  0  0  0  0  0  0  0  0
    5.1617   -0.6605    0.7835 C   0  0  0  0  0  0  0  0  0  0  0  0
    5.4495   -1.2823   -0.6054 C   0  0  0  0  0  0  0  0  0  0  0  0
    4.1578   -1.8589   -1.1795 C   0  0  1  0  0  0  0  0  0  0  0  0
    2.9260   -2.9104    4.3709 O   0  0  0  0  0  0  0  0  0  0  0  0
    2.9930   -3.7095    3.2438 C   0  0  1  0  0  0  0  0  0  0  0  0
    2.6390   -3.4648    1.7877 C   0  0  1  0  0  0  0  0  0  0  0  0
    1.9177   -2.2460    1.6829 O   0  0  0  0  0  0  0  0  0  0  0  0
    4.8968   -3.1518   -4.3223 H   0  0  0  0  0  0  0  0  0  0  0  0
    4.9859   -4.0308   -2.8255 H   0  0  0  0  0  0  0  0  0  0  0  0
    6.0511   -2.6611   -3.0915 H   0  0  0  0  0  0  0  0  0  0  0  0
    3.2823    0.0017   -3.0450 H   0  0  0  0  0  0  0  0  0  0  0  0
    3.7431   -0.8541   -4.5146 H   0  0  0  0  0  0  0  0  0  0  0  0
    4.9766   -0.2851   -3.3847 H   0  0  0  0  0  0  0  0  0  0  0  0
    1.8187   -1.8694   -2.6539 H   0  0  0  0  0  0  0  0  0  0  0  0
    1.3657   -3.8559   -3.7060 H   0  0  0  0  0  0  0  0  0  0  0  0
    3.8017   -5.3404   -0.2362 H   0  0  0  0  0  0  0  0  0  0  0  0
    5.4164   -4.4760   -0.4306 H   0  0  0  0  0  0  0  0  0  0  0  0
    5.1116   -4.6883    3.1587 H   0  0  0  0  0  0  0  0  0  0  0  0
    6.1157   -1.4148    2.5016 H   0  0  0  0  0  0  0  0  0  0  0  0
    4.2310   -0.0781    0.7740 H   0  0  0  0  0  0  0  0  0  0  0  0
    5.9336    0.0878    0.9688 H   0  0  0  0  0  0  0  0  0  0  0  0
    5.7728   -0.4752   -1.2499 H   0  0  0  0  0  0  0  0  0  0  0  0
    6.2616   -2.0092   -0.5747 H   0  0  0  0  0  0  0  0  0  0  0  0
    3.3998   -1.1099   -0.9189 H   0  0  0  0  0  0  0  0  0  0  0  0
    3.0347   -4.7536    3.5145 H   0  0  0  0  0  0  0  0  0  0  0  0
    2.0359   -4.3132    1.4568 H   0  0  0  0  0  0  0  0  0  0  0  0
    1.7955   -2.0133    0.7806 H   0  0  0  0  0  0  0  0  0  0  0  0
  1  2  1  0
  1 23  1  0
  1 24  1  0
  1 25  1  0
  2 18  1  0
  2  3  1  0
  2  4  1  0
  3 26  1  0
  3 27  1  0
  3 28  1  0
  4  5  1  0
  4  6  1  0
  4 29  1  1
  5 30  1  0
  6  7  2  0
  6  8  1  0
  8 10  1  0
  8 18  1  0
  8  9  1  6
 10  9  1  6
  9 31  1  0
  9 32  1  0
 10 21  1  0
 10 11  1  0
 11 15  1  0
 11 12  2  0
 12 13  1  0
 12 33  1  0
 13 20  1  0
 13 14  1  6
 13 19  1  0
 14 15  1  0
 15 16  1  0
 15 34  1  1
 16 17  1  0
 16 35  1  0
 16 36  1  0
 17 18  1  0
 17 37  1  0
 17 38  1  0
 18 39  1  1
 19 20  1  0
 20 21  1  0
 20 40  1  1
 21 22  1  0
 21 41  1  6
 22 42  1  0
M  END
>  <i_m_ct_stereo_status>  (337) 
1

>  <s_m_source_file>  (337) 
/var/tmp/pbs.5076255.sched01/tmppy4q9rbr/123plv7d954.sdf

>  <i_m_source_file_index>  (337) 
30

>  <i_lp_mmshare_version>  (337) 
48012

>  <i_f3d_flags>  (337) 
0

>  <s_epik_input>  (337) 
Tz1DMVtDQEhdKFtPSF0pQyhbQ0gzXSkoW0NIM10pW0NAQEhdMltDSDJdW0NIMl1bQ0BIXShDPTNbQ0BAXTQoW0NAQF0xMjUpW0NIMl01KU9DNihbQ0hdMylbQ0hdKE82KVtDQEhdNFtPSF0=

>  <s_epik_cmdline>  (337) 
J2VwaWtfcHl0aG9uJywgJy1waHQnLCAnMi4wJywgJy1waCcsICc3LjAnLCAnLXRuJywgJzgnLCAnLW1hJywgJzIwMCcsICctaW1hZScsICc8aW5maWxlLm1hZT4nLCAnLW9tYWUnLCAnPG91dGZpbGUubWFlPic=

>  <r_lp_tautomer_probability>  (337) 
1

>  <r_epik_Ionization_Penalty>  (337) 
1.08882e-06

>  <r_epik_Ionization_Penalty_Charging>  (337) 
0

>  <r_epik_Ionization_Penalty_Neutral>  (337) 
1.08882e-06

>  <r_epik_State_Penalty>  (337) 
-0

>  <r_epik_Charging_Adjusted_Penalty>  (337) 
0

>  <i_epik_Tot_Q>  (337) 
0

>  <i_epik_Tot_abs_Q>  (337) 
0

>  <s_lp_Force_Field>  (337) 
OPLS3e

>  <r_lp_Energy>  (337) 
124.435

>  <b_lp_Chiralities_Consistent>  (337) 
1

>  <s_lp_Variant>  (337) 
109:0-4

>  <s_i_glide_gridfile>  (337) 
pfpi4k_grid

>  <i_i_glide_lignum>  (337) 
30

>  <i_i_glide_rotatable_bonds>  (337) 
2

>  <r_i_docking_score>  (337) 
-4.12848

>  <r_i_glide_ligand_efficiency>  (337) 
-0.187658

>  <r_i_glide_ligand_efficiency_sa>  (337) 
-0.525825

>  <r_i_glide_ligand_efficiency_ln>  (337) 
-1.00915

>  <r_i_glide_gscore>  (337) 
-4.12848

>  <r_i_glide_lipo>  (337) 
-0.77084

>  <r_i_glide_hbond>  (337) 
-0.00385986

>  <r_i_glide_metal>  (337) 
-0

>  <r_i_glide_rewards>  (337) 
-1.44473

>  <r_i_glide_evdw>  (337) 
-23.6305

>  <r_i_glide_ecoul>  (337) 
-4.85017

>  <r_i_glide_erotb>  (337) 
0

>  <r_i_glide_esite>  (337) 
0

>  <r_i_glide_emodel>  (337) 
-34.3902

>  <r_i_glide_energy>  (337) 
-28.4806

>  <r_i_glide_einternal>  (337) 
2.38906

>  <r_i_glide_intrahb_reward>  (337) 
-0

>  <i_i_glide_confnum>  (337) 
1

>  <i_i_glide_posenum>  (337) 
26

>  <r_i_glide_eff_state_penalty>  (337) 
0

>  <ligand_id>  (337) 
109

>  <original_smiles>  (337) 
CC1(C)C(O)C(=O)C23CC24C2=CC5(OC2CCC13)OC5C4O

>  <smiles>  (337) 
[H]OC1([H])C(=O)C23C([H])([H])C24C2=C([H])C5(OC2([H])C([H])([H])C([H])([H])C3([H])C1(C([H])([H])[H])C([H])([H])[H])OC5([H])C4([H])O[H]

$$$$
109:3:2
     RDKit          3D

 42 47  0  0  1  0  0  0  0  0999 V2000
    6.1751   -2.0215   -1.0168 C   0  0  0  0  0  0  0  0  0  0  0  0
    4.6336   -1.9895   -0.9450 C   0  0  0  0  0  0  0  0  0  0  0  0
    4.0988   -0.9712   -1.9668 C   0  0  0  0  0  0  0  0  0  0  0  0
    3.9758   -3.3728   -1.1640 C   0  0  1  0  0  0  0  0  0  0  0  0
    4.6346   -4.1881   -2.1193 O   0  0  0  0  0  0  0  0  0  0  0  0
    3.9469   -4.0082    0.2254 C   0  0  0  0  0  0  0  0  0  0  0  0
    3.6516   -5.1856    0.4489 O   0  0  0  0  0  0  0  0  0  0  0  0
    4.3368   -2.9776    1.2626 C   0  0  2  0  0  0  0  0  0  0  0  0
    5.4982   -3.5045    2.0535 C   0  0  0  0  0  0  0  0  0  0  0  0
    4.2519   -3.0530    2.7947 C   0  0  1  0  0  0  0  0  0  0  0  0
    4.6224   -1.9606    3.7812 C   0  0  0  0  0  0  0  0  0  0  0  0
    4.5390   -2.3305    5.0596 C   0  0  0  0  0  0  0  0  0  0  0  0
    3.0537   -2.3034    5.2506 C   0  0  2  0  0  0  0  0  0  0  0  0
    2.5247   -1.3504    4.3123 O   0  0  0  0  0  0  0  0  0  0  0  0
    3.6765   -0.8128    3.6855 C   0  0  2  0  0  0  0  0  0  0  0  0
    3.4818   -0.1090    2.3288 C   0  0  0  0  0  0  0  0  0  0  0  0
    4.5257   -0.4088    1.2217 C   0  0  0  0  0  0  0  0  0  0  0  0
    4.1419   -1.6943    0.4934 C   0  0  1  0  0  0  0  0  0  0  0  0
    2.0496   -3.2470    5.6800 O   0  0  0  0  0  0  0  0  0  0  0  0
    2.9611   -3.8314    4.8104 C   0  0  1  0  0  0  0  0  0  0  0  0
    3.0602   -3.9154    3.2939 C   0  0  1  0  0  0  0  0  0  0  0  0
    1.8411   -3.5182    2.6956 O   0  0  0  0  0  0  0  0  0  0  0  0
    6.5091   -2.1989   -2.0427 H   0  0  0  0  0  0  0  0  0  0  0  0
    6.6110   -2.8115   -0.4036 H   0  0  0  0  0  0  0  0  0  0  0  0
    6.5899   -1.0711   -0.6826 H   0  0  0  0  0  0  0  0  0  0  0  0
    3.0140   -0.8705   -1.8929 H   0  0  0  0  0  0  0  0  0  0  0  0
    4.3335   -1.2654   -2.9917 H   0  0  0  0  0  0  0  0  0  0  0  0
    4.5354    0.0147   -1.8022 H   0  0  0  0  0  0  0  0  0  0  0  0
    2.9435   -3.2538   -1.4777 H   0  0  0  0  0  0  0  0  0  0  0  0
    4.0633   -4.9285   -2.2942 H   0  0  0  0  0  0  0  0  0  0  0  0
    5.6901   -4.5771    2.0801 H   0  0  0  0  0  0  0  0  0  0  0  0
    6.3822   -2.8745    2.0924 H   0  0  0  0  0  0  0  0  0  0  0  0
    5.1068   -3.1746    5.4611 H   0  0  0  0  0  0  0  0  0  0  0  0
    4.0510   -0.0429    4.3672 H   0  0  0  0  0  0  0  0  0  0  0  0
    2.4609   -0.2683    1.9558 H   0  0  0  0  0  0  0  0  0  0  0  0
    3.5183    0.9653    2.5319 H   0  0  0  0  0  0  0  0  0  0  0  0
    4.4920    0.4163    0.5122 H   0  0  0  0  0  0  0  0  0  0  0  0
    5.5417   -0.4347    1.6127 H   0  0  0  0  0  0  0  0  0  0  0  0
    3.0588   -1.6093    0.3836 H   0  0  0  0  0  0  0  0  0  0  0  0
    3.5523   -4.5820    5.3245 H   0  0  0  0  0  0  0  0  0  0  0  0
    3.2504   -4.9547    3.0350 H   0  0  0  0  0  0  0  0  0  0  0  0
    1.7431   -2.5917    2.8588 H   0  0  0  0  0  0  0  0  0  0  0  0
  1  2  1  0
  1 23  1  0
  1 24  1  0
  1 25  1  0
  2 18  1  0
  2  3  1  0
  2  4  1  0
  3 26  1  0
  3 27  1  0
  3 28  1  0
  4  5  1  0
  4  6  1  0
  4 29  1  6
  5 30  1  0
  6  7  2  0
  6  8  1  0
  8 10  1  0
  8 18  1  0
  8  9  1  1
 10  9  1  1
  9 31  1  0
  9 32  1  0
 10 21  1  0
 10 11  1  0
 11 15  1  0
 11 12  2  0
 12 13  1  0
 12 33  1  0
 13 20  1  0
 13 14  1  6
 13 19  1  0
 14 15  1  0
 15 16  1  0
 15 34  1  1
 16 17  1  0
 16 35  1  0
 16 36  1  0
 17 18  1  0
 17 37  1  0
 17 38  1  0
 18 39  1  6
 19 20  1  0
 20 21  1  0
 20 40  1  1
 21 22  1  0
 21 41  1  1
 22 42  1  0
M  END
>  <i_m_ct_stereo_status>  (338) 
1

>  <s_m_source_file>  (338) 
/var/tmp/pbs.5076255.sched01/tmppy4q9rbr/123plv7d954.sdf

>  <i_m_source_file_index>  (338) 
30

>  <i_lp_mmshare_version>  (338) 
48012

>  <i_f3d_flags>  (338) 
0

>  <s_epik_input>  (338) 
Tz1DMVtDQEhdKFtPSF0pQyhbQ0gzXSkoW0NIM10pW0NAQEhdMltDSDJdW0NIMl1bQ0BIXShDPTNbQ0BAXTQoW0NAQF0xMjUpW0NIMl01KU9DNihbQ0hdMylbQ0hdKE82KVtDQEhdNFtPSF0=

>  <s_epik_cmdline>  (338) 
J2VwaWtfcHl0aG9uJywgJy1waHQnLCAnMi4wJywgJy1waCcsICc3LjAnLCAnLXRuJywgJzgnLCAnLW1hJywgJzIwMCcsICctaW1hZScsICc8aW5maWxlLm1hZT4nLCAnLW9tYWUnLCAnPG91dGZpbGUubWFlPic=

>  <r_lp_tautomer_probability>  (338) 
1

>  <r_epik_Ionization_Penalty>  (338) 
1.08882e-06

>  <r_epik_Ionization_Penalty_Charging>  (338) 
0

>  <r_epik_Ionization_Penalty_Neutral>  (338) 
1.08882e-06

>  <r_epik_State_Penalty>  (338) 
-0

>  <r_epik_Charging_Adjusted_Penalty>  (338) 
0

>  <i_epik_Tot_Q>  (338) 
0

>  <i_epik_Tot_abs_Q>  (338) 
0

>  <s_lp_Force_Field>  (338) 
OPLS3e

>  <r_lp_Energy>  (338) 
124.435

>  <b_lp_Chiralities_Consistent>  (338) 
1

>  <s_lp_Variant>  (338) 
109:0-4

>  <s_i_glide_gridfile>  (338) 
pfpi4k_grid

>  <i_i_glide_lignum>  (338) 
30

>  <i_i_glide_rotatable_bonds>  (338) 
2

>  <r_i_docking_score>  (338) 
-3.74727

>  <r_i_glide_ligand_efficiency>  (338) 
-0.17033

>  <r_i_glide_ligand_efficiency_sa>  (338) 
-0.477272

>  <r_i_glide_ligand_efficiency_ln>  (338) 
-0.915969

>  <r_i_glide_gscore>  (338) 
-3.74727

>  <r_i_glide_lipo>  (338) 
-0.267031

>  <r_i_glide_hbond>  (338) 
0

>  <r_i_glide_metal>  (338) 
-0

>  <r_i_glide_rewards>  (338) 
-1.83948

>  <r_i_glide_evdw>  (338) 
-18.1082

>  <r_i_glide_ecoul>  (338) 
-4.9023

>  <r_i_glide_erotb>  (338) 
0

>  <r_i_glide_esite>  (338) 
0

>  <r_i_glide_emodel>  (338) 
-33.641

>  <r_i_glide_energy>  (338) 
-23.0105

>  <r_i_glide_einternal>  (338) 
1.91763

>  <r_i_glide_intrahb_reward>  (338) 
-0.5

>  <i_i_glide_confnum>  (338) 
2

>  <i_i_glide_posenum>  (338) 
28

>  <r_i_glide_eff_state_penalty>  (338) 
0

>  <ligand_id>  (338) 
109

>  <original_smiles>  (338) 
CC1(C)C(O)C(=O)C23CC24C2=CC5(OC2CCC13)OC5C4O

>  <smiles>  (338) 
[H]OC1([H])C(=O)C23C([H])([H])C24C2=C([H])C5(OC2([H])C([H])([H])C([H])([H])C3([H])C1(C([H])([H])[H])C([H])([H])[H])OC5([H])C4([H])O[H]

$$$$
111:1:0
     RDKit          3D

 77 83  0  0  1  0  0  0  0  0999 V2000
   -0.8503    1.6419    2.7895 C   0  0  0  0  0  0  0  0  0  0  0  0
   -0.2185    2.3182    4.0391 C   0  0  0  0  0  0  0  0  0  0  0  0
   -0.1591    3.8388    3.7429 C   0  0  0  0  0  0  0  0  0  0  0  0
   -1.1577    2.1313    5.2488 C   0  0  1  0  0  0  0  0  0  0  0  0
   -2.4678    2.5909    4.9678 O   0  0  0  0  0  0  0  0  0  0  0  0
   -1.2002    0.6761    5.7025 C   0  0  0  0  0  0  0  0  0  0  0  0
    0.1703    0.2803    6.2503 C   0  0  0  0  0  0  0  0  0  0  0  0
    1.4374    0.5549    5.3582 C   0  0  2  0  0  0  0  0  0  0  0  0
    2.4792    0.9414    6.4664 C   0  0  0  0  0  0  0  0  0  0  0  0
    1.2431    1.8286    4.4274 C   0  0  1  0  0  0  0  0  0  0  0  0
    2.2783    1.9434    3.2658 C   0  0  1  0  0  0  0  0  0  0  0  0
    3.0187    3.1567    3.3974 O   0  0  0  0  0  0  0  0  0  0  0  0
    3.2752    0.7681    3.0693 C   0  0  1  0  0  0  0  0  0  0  0  0
    4.3355    0.9406    3.9850 O   0  0  0  0  0  0  0  0  0  0  0  0
    2.6233   -0.6469    3.1629 C   0  0  2  0  0  0  0  0  0  0  0  0
    1.5234   -0.6888    2.0613 C   0  0  0  0  0  0  0  0  0  0  0  0
    1.8912   -0.7747    4.5845 C   0  0  1  0  0  0  0  0  0  0  0  0
    2.6245   -1.8015    5.5235 C   0  0  0  0  0  0  0  0  0  0  0  0
    2.7969   -3.2435    4.9659 C   0  0  0  0  0  0  0  0  0  0  0  0
    2.8966   -3.2529    3.4386 C   0  0  2  0  0  0  0  0  0  0  0  0
    1.4856   -3.6353    2.9544 C   0  0  0  0  0  0  0  0  0  0  0  0
    3.8862   -4.1895    2.6956 C   0  0  1  0  0  0  0  0  0  0  0  0
    4.0039   -5.1804    1.4936 C   0  0  0  0  0  0  0  0  0  0  0  0
    5.1822   -4.7202    0.4742 C   0  0  0  0  0  0  0  0  0  0  0  0
    5.1005   -3.2169   -0.0844 C   0  0  2  0  0  0  0  0  0  0  0  0
    4.9498   -3.3474   -1.4939 O   0  0  0  0  0  0  0  0  0  0  0  0
    6.1920   -2.1106    0.2272 C   0  0  0  0  0  0  0  0  0  0  0  0
    7.1957   -2.0066   -0.4771 O   0  0  0  0  0  0  0  0  0  0  0  0
    5.8950   -1.1486    1.3142 O   0  0  0  0  0  0  0  0  0  0  0  0
    5.2418   -1.3980    2.6418 C   0  0  2  0  0  0  0  0  0  0  0  0
    5.5867   -2.7521    2.8287 C   0  0  0  0  0  0  0  0  0  0  0  0
    4.2071   -2.8822    2.0936 C   0  0  1  0  0  0  0  0  0  0  0  0
    3.8692   -2.6953    0.5627 C   0  0  1  0  0  0  0  0  0  0  0  0
    3.5270   -1.3926    0.1055 O   0  0  0  0  0  0  0  0  0  0  0  0
    3.6721   -1.8565    3.0347 C   0  0  2  0  0  0  0  0  0  0  0  0
   -1.7789    2.1340    2.4972 H   0  0  0  0  0  0  0  0  0  0  0  0
   -1.1091    0.6027    2.9557 H   0  0  0  0  0  0  0  0  0  0  0  0
   -0.2265    1.6873    1.9006 H   0  0  0  0  0  0  0  0  0  0  0  0
    0.2060    4.4059    4.5997 H   0  0  0  0  0  0  0  0  0  0  0  0
   -1.1383    4.2434    3.4787 H   0  0  0  0  0  0  0  0  0  0  0  0
    0.5068    4.0612    2.9122 H   0  0  0  0  0  0  0  0  0  0  0  0
   -0.7922    2.7311    6.0832 H   0  0  0  0  0  0  0  0  0  0  0  0
   -2.7994    2.1123    4.2270 H   0  0  0  0  0  0  0  0  0  0  0  0
   -1.9314    0.5785    6.5014 H   0  0  0  0  0  0  0  0  0  0  0  0
   -1.5343   -0.0136    4.9290 H   0  0  0  0  0  0  0  0  0  0  0  0
    0.2526    0.8045    7.2109 H   0  0  0  0  0  0  0  0  0  0  0  0
    0.1328   -0.7706    6.5227 H   0  0  0  0  0  0  0  0  0  0  0  0
    3.4864    1.1245    6.1213 H   0  0  0  0  0  0  0  0  0  0  0  0
    2.5579    0.1824    7.2475 H   0  0  0  0  0  0  0  0  0  0  0  0
    2.1906    1.8582    6.9891 H   0  0  0  0  0  0  0  0  0  0  0  0
    1.5364    2.6379    5.0977 H   0  0  0  0  0  0  0  0  0  0  0  0
    1.7637    2.0770    2.3221 H   0  0  0  0  0  0  0  0  0  0  0  0
    3.6161    3.2291    2.6842 H   0  0  0  0  0  0  0  0  0  0  0  0
    3.7236    0.8750    2.0810 H   0  0  0  0  0  0  0  0  0  0  0  0
    4.7190    1.7828    3.8090 H   0  0  0  0  0  0  0  0  0  0  0  0
    1.5140   -1.5925    1.4653 H   0  0  0  0  0  0  0  0  0  0  0  0
    1.6219    0.1167    1.3337 H   0  0  0  0  0  0  0  0  0  0  0  0
    0.5251   -0.6108    2.4737 H   0  0  0  0  0  0  0  0  0  0  0  0
    0.9395   -1.2632    4.4109 H   0  0  0  0  0  0  0  0  0  0  0  0
    3.6264   -1.4178    5.7127 H   0  0  0  0  0  0  0  0  0  0  0  0
    2.1414   -1.8736    6.4991 H   0  0  0  0  0  0  0  0  0  0  0  0
    3.7019   -3.6701    5.4018 H   0  0  0  0  0  0  0  0  0  0  0  0
    1.9837   -3.8743    5.3257 H   0  0  0  0  0  0  0  0  0  0  0  0
    1.4737   -3.6812    1.8739 H   0  0  0  0  0  0  0  0  0  0  0  0
    0.6828   -2.9763    3.2744 H   0  0  0  0  0  0  0  0  0  0  0  0
    1.2122   -4.6404    3.2812 H   0  0  0  0  0  0  0  0  0  0  0  0
    4.5020   -4.5926    3.4948 H   0  0  0  0  0  0  0  0  0  0  0  0
    4.2341   -6.1818    1.8688 H   0  0  0  0  0  0  0  0  0  0  0  0
    3.0546   -5.3125    0.9665 H   0  0  0  0  0  0  0  0  0  0  0  0
    6.1442   -4.8730    0.9653 H   0  0  0  0  0  0  0  0  0  0  0  0
    5.1959   -5.4323   -0.3509 H   0  0  0  0  0  0  0  0  0  0  0  0
    4.2506   -3.9496   -1.6781 H   0  0  0  0  0  0  0  0  0  0  0  0
    5.7421   -0.8370    3.4270 H   0  0  0  0  0  0  0  0  0  0  0  0
    6.4809   -3.1986    2.3996 H   0  0  0  0  0  0  0  0  0  0  0  0
    5.6153   -2.9323    3.9075 H   0  0  0  0  0  0  0  0  0  0  0  0
    3.0148   -3.2890    0.2587 H   0  0  0  0  0  0  0  0  0  0  0  0
    4.1135   -0.7794    0.5036 H   0  0  0  0  0  0  0  0  0  0  0  0
  1  2  1  0
  1 36  1  0
  1 37  1  0
  1 38  1  0
  2 10  1  0
  2  3  1  0
  2  4  1  0
  3 39  1  0
  3 40  1  0
  3 41  1  0
  4  5  1  0
  4  6  1  0
  4 42  1  1
  5 43  1  0
  6  7  1  0
  6 44  1  0
  6 45  1  0
  7  8  1  0
  7 46  1  0
  7 47  1  0
  8 17  1  0
  8  9  1  1
  8 10  1  0
  9 48  1  0
  9 49  1  0
  9 50  1  0
 10 11  1  0
 10 51  1  1
 11 12  1  0
 11 13  1  0
 11 52  1  6
 12 53  1  0
 13 14  1  0
 13 15  1  0
 13 54  1  6
 14 55  1  0
 15 35  1  0
 15 16  1  6
 15 17  1  0
 16 56  1  0
 16 57  1  0
 16 58  1  0
 17 18  1  0
 17 59  1  6
 18 19  1  0
 18 60  1  0
 18 61  1  0
 19 20  1  0
 19 62  1  0
 19 63  1  0
 35 20  1  1
 20 21  1  6
 20 22  1  0
 21 64  1  0
 21 65  1  0
 21 66  1  0
 22 32  1  0
 22 23  1  0
 22 67  1  1
 23 24  1  0
 23 68  1  0
 23 69  1  0
 24 25  1  0
 24 70  1  0
 24 71  1  0
 25 33  1  0
 25 26  1  6
 25 27  1  0
 26 72  1  0
 27 28  2  0
 27 29  1  0
 29 30  1  0
 30 35  1  0
 30 31  1  0
 30 73  1  1
 32 31  1  6
 31 74  1  0
 31 75  1  0
 32 33  1  0
 32 35  1  0
 33 34  1  0
 33 76  1  6
 34 77  1  0
M  END
>  <i_m_ct_stereo_status>  (339) 
1

>  <s_m_source_file>  (339) 
/var/tmp/pbs.5076255.sched01/tmppy4q9rbr/123plv7d954.sdf

>  <i_m_source_file_index>  (339) 
33

>  <i_lp_mmshare_version>  (339) 
48012

>  <i_f3d_flags>  (339) 
0

>  <s_epik_input>  (339) 
W0NIMl0xW0NIMl1bQ0BIXShbT0hdKUMoW0NIM10pKFtDSDNdKVtDQEhdKFtDQEBIXShbT0hdKVtDQEhdMltPSF0pW0NAXTEoW0NIM10pW0NAQEhdKFtDQF0yKFtDSDNdKUMzNFtDQF01NjcpW0NIMl1bQ0gyXVtDQF0zKFtDSDNdKVtDQEhdNVtDSDJdW0NIMl1bQ0BAXShbT0hdKShbQ0BASF03W09IXSlDKD1PKU9bQ0BASF00W0NIMl02

>  <s_epik_cmdline>  (339) 
J2VwaWtfcHl0aG9uJywgJy1waHQnLCAnMi4wJywgJy1waCcsICc3LjAnLCAnLXRuJywgJzgnLCAnLW1hJywgJzIwMCcsICctaW1hZScsICc8aW5maWxlLm1hZT4nLCAnLW9tYWUnLCAnPG91dGZpbGUubWFlPic=

>  <r_lp_tautomer_probability>  (339) 
1

>  <r_epik_Ionization_Penalty>  (339) 
2.89899e-06

>  <r_epik_Ionization_Penalty_Charging>  (339) 
0

>  <r_epik_Ionization_Penalty_Neutral>  (339) 
2.89899e-06

>  <r_epik_State_Penalty>  (339) 
-0

>  <r_epik_Charging_Adjusted_Penalty>  (339) 
0

>  <i_epik_Tot_Q>  (339) 
0

>  <i_epik_Tot_abs_Q>  (339) 
0

>  <s_epik_Chemistry_Notes>  (339) 
This compound has an ester and may undergo hydrolysis at high or low pH.

>  <s_lp_Force_Field>  (339) 
OPLS3e

>  <r_lp_Energy>  (339) 
302.08

>  <b_lp_Chiralities_Consistent>  (339) 
1

>  <s_lp_Variant>  (339) 
111:0-2

>  <s_i_glide_gridfile>  (339) 
pfpi4k_grid

>  <i_i_glide_lignum>  (339) 
33

>  <i_i_glide_rotatable_bonds>  (339) 
5

>  <r_i_docking_score>  (339) 
-3.386

>  <r_i_glide_ligand_efficiency>  (339) 
-0.0967427

>  <r_i_glide_ligand_efficiency_sa>  (339) 
-0.316452

>  <r_i_glide_ligand_efficiency_ln>  (339) 
-0.743301

>  <r_i_glide_gscore>  (339) 
-3.386

>  <r_i_glide_lipo>  (339) 
-0.272586

>  <r_i_glide_hbond>  (339) 
-0.16

>  <r_i_glide_metal>  (339) 
-0

>  <r_i_glide_rewards>  (339) 
-0.617963

>  <r_i_glide_evdw>  (339) 
-22.5017

>  <r_i_glide_ecoul>  (339) 
-8.06907

>  <r_i_glide_erotb>  (339) 
0

>  <r_i_glide_esite>  (339) 
0

>  <r_i_glide_emodel>  (339) 
-40.932

>  <r_i_glide_energy>  (339) 
-30.5708

>  <r_i_glide_einternal>  (339) 
1.13324

>  <r_i_glide_intrahb_reward>  (339) 
-0.5

>  <i_i_glide_confnum>  (339) 
2

>  <i_i_glide_posenum>  (339) 
2

>  <r_i_glide_eff_state_penalty>  (339) 
0

>  <ligand_id>  (339) 
111

>  <original_smiles>  (339) 
CC1(C)C(O)CCC2(C)C1C(O)C(O)C1(C)C2CCC2(C)C3CCC4(O)C(=O)OC5CC3(C4O)C521

>  <smiles>  (339) 
[H]OC1([H])C([H])(O[H])C2(C([H])([H])[H])C([H])(C([H])([H])C([H])([H])C3(C([H])([H])[H])C4([H])C([H])([H])C([H])([H])C5(O[H])C(=O)OC6([H])C([H])([H])C4(C5([H])O[H])C632)C2(C([H])([H])[H])C([H])([H])C([H])([H])C([H])(O[H])C(C([H])([H])[H])(C([H])([H])[H])C12[H]

$$$$
111:1:1
     RDKit          3D

 77 83  0  0  1  0  0  0  0  0999 V2000
    3.4956   -3.9904   -0.7146 C   0  0  0  0  0  0  0  0  0  0  0  0
    4.4551   -3.0906    0.1118 C   0  0  0  0  0  0  0  0  0  0  0  0
    5.7258   -2.9073   -0.7652 C   0  0  0  0  0  0  0  0  0  0  0  0
    3.8135   -1.7072    0.2816 C   0  0  1  0  0  0  0  0  0  0  0  0
    3.4102   -1.2452   -0.9869 O   0  0  0  0  0  0  0  0  0  0  0  0
    2.6192   -1.7511    1.2221 C   0  0  0  0  0  0  0  0  0  0  0  0
    3.0866   -2.1121    2.6288 C   0  0  0  0  0  0  0  0  0  0  0  0
    3.9743   -3.4022    2.7951 C   0  0  2  0  0  0  0  0  0  0  0  0
    4.9181   -2.9120    3.9471 C   0  0  0  0  0  0  0  0  0  0  0  0
    4.8893   -3.6540    1.5276 C   0  0  1  0  0  0  0  0  0  0  0  0
    5.5298   -5.0785    1.4557 C   0  0  1  0  0  0  0  0  0  0  0  0
    6.9414   -4.9747    1.4020 O   0  0  0  0  0  0  0  0  0  0  0  0
    5.1119   -6.1161    2.5401 C   0  0  1  0  0  0  0  0  0  0  0  0
    5.8991   -5.8565    3.6808 O   0  0  0  0  0  0  0  0  0  0  0  0
    3.5697   -6.1422    2.8443 C   0  0  2  0  0  0  0  0  0  0  0  0
    2.8673   -6.4873    1.4899 C   0  0  0  0  0  0  0  0  0  0  0  0
    3.1033   -4.6635    3.2543 C   0  0  1  0  0  0  0  0  0  0  0  0
    2.6846   -4.5811    4.7666 C   0  0  0  0  0  0  0  0  0  0  0  0
    1.5667   -5.5637    5.2289 C   0  0  0  0  0  0  0  0  0  0  0  0
    1.5600   -6.8476    4.3932 C   0  0  2  0  0  0  0  0  0  0  0  0
    0.4331   -6.6485    3.3629 C   0  0  0  0  0  0  0  0  0  0  0  0
    1.3177   -8.2374    5.0460 C   0  0  1  0  0  0  0  0  0  0  0  0
    0.5102   -9.5586    4.9009 C   0  0  0  0  0  0  0  0  0  0  0  0
    1.5216  -10.8241    4.8652 C   0  0  0  0  0  0  0  0  0  0  0  0
    2.7080  -10.7716    3.7856 C   0  0  2  0  0  0  0  0  0  0  0  0
    2.4150  -11.8089    2.8892 O   0  0  0  0  0  0  0  0  0  0  0  0
    4.2342  -10.7442    4.1466 C   0  0  0  0  0  0  0  0  0  0  0  0
    4.8219  -11.8136    4.3452 O   0  0  0  0  0  0  0  0  0  0  0  0
    4.8861   -9.4414    4.1729 O   0  0  0  0  0  0  0  0  0  0  0  0
    4.3870   -8.1031    4.5991 C   0  0  2  0  0  0  0  0  0  0  0  0
    3.4755   -8.5335    5.5908 C   0  0  0  0  0  0  0  0  0  0  0  0
    2.5611   -8.4834    4.3122 C   0  0  1  0  0  0  0  0  0  0  0  0
    2.4721   -9.4780    3.1061 C   0  0  1  0  0  0  0  0  0  0  0  0
    3.3237   -9.3274    1.9714 O   0  0  0  0  0  0  0  0  0  0  0  0
    3.1460   -7.1300    4.0365 C   0  0  2  0  0  0  0  0  0  0  0  0
    3.3697   -3.6178   -1.7336 H   0  0  0  0  0  0  0  0  0  0  0  0
    2.4901   -4.0294   -0.3071 H   0  0  0  0  0  0  0  0  0  0  0  0
    3.8535   -5.0055   -0.8272 H   0  0  0  0  0  0  0  0  0  0  0  0
    6.4433   -2.2335   -0.2882 H   0  0  0  0  0  0  0  0  0  0  0  0
    5.4982   -2.4719   -1.7434 H   0  0  0  0  0  0  0  0  0  0  0  0
    6.2356   -3.8512   -0.9604 H   0  0  0  0  0  0  0  0  0  0  0  0
    4.5427   -1.0013    0.6819 H   0  0  0  0  0  0  0  0  0  0  0  0
    2.4568   -1.0877   -0.9744 H   0  0  0  0  0  0  0  0  0  0  0  0
    2.1520   -0.7653    1.2639 H   0  0  0  0  0  0  0  0  0  0  0  0
    1.8357   -2.4194    0.8823 H   0  0  0  0  0  0  0  0  0  0  0  0
    3.5881   -1.2217    3.0062 H   0  0  0  0  0  0  0  0  0  0  0  0
    2.1884   -2.1959    3.2415 H   0  0  0  0  0  0  0  0  0  0  0  0
    5.6315   -3.6294    4.3255 H   0  0  0  0  0  0  0  0  0  0  0  0
    4.3589   -2.5464    4.8115 H   0  0  0  0  0  0  0  0  0  0  0  0
    5.5219   -2.0548    3.6272 H   0  0  0  0  0  0  0  0  0  0  0  0
    5.7427   -3.0069    1.7240 H   0  0  0  0  0  0  0  0  0  0  0  0
    5.2951   -5.5411    0.5059 H   0  0  0  0  0  0  0  0  0  0  0  0
    7.2465   -4.7726    2.2731 H   0  0  0  0  0  0  0  0  0  0  0  0
    5.4038   -7.1083    2.1914 H   0  0  0  0  0  0  0  0  0  0  0  0
    5.5951   -5.0548    4.0703 H   0  0  0  0  0  0  0  0  0  0  0  0
    2.0927   -7.2420    1.5533 H   0  0  0  0  0  0  0  0  0  0  0  0
    3.5640   -6.8719    0.7426 H   0  0  0  0  0  0  0  0  0  0  0  0
    2.3827   -5.6247    1.0408 H   0  0  0  0  0  0  0  0  0  0  0  0
    2.1579   -4.4638    2.7602 H   0  0  0  0  0  0  0  0  0  0  0  0
    3.5670   -4.8182    5.3694 H   0  0  0  0  0  0  0  0  0  0  0  0
    2.3923   -3.5730    5.0627 H   0  0  0  0  0  0  0  0  0  0  0  0
    1.7405   -5.7985    6.2805 H   0  0  0  0  0  0  0  0  0  0  0  0
    0.6044   -5.0505    5.2085 H   0  0  0  0  0  0  0  0  0  0  0  0
    0.3219   -7.5207    2.7073 H   0  0  0  0  0  0  0  0  0  0  0  0
    0.5440   -5.7766    2.7256 H   0  0  0  0  0  0  0  0  0  0  0  0
   -0.5420   -6.5576    3.8553 H   0  0  0  0  0  0  0  0  0  0  0  0
    1.3635   -8.0165    6.1072 H   0  0  0  0  0  0  0  0  0  0  0  0
   -0.1709   -9.6835    5.7503 H   0  0  0  0  0  0  0  0  0  0  0  0
   -0.1461   -9.5567    4.0345 H   0  0  0  0  0  0  0  0  0  0  0  0
    1.9533  -10.9669    5.8561 H   0  0  0  0  0  0  0  0  0  0  0  0
    0.9049  -11.7229    4.7260 H   0  0  0  0  0  0  0  0  0  0  0  0
    2.5345  -12.6495    3.3108 H   0  0  0  0  0  0  0  0  0  0  0  0
    5.1599   -7.5414    5.1304 H   0  0  0  0  0  0  0  0  0  0  0  0
    3.6003   -9.4563    6.1551 H   0  0  0  0  0  0  0  0  0  0  0  0
    3.3693   -7.7237    6.3169 H   0  0  0  0  0  0  0  0  0  0  0  0
    1.4847   -9.4868    2.6392 H   0  0  0  0  0  0  0  0  0  0  0  0
    3.3049  -10.1500    1.4922 H   0  0  0  0  0  0  0  0  0  0  0  0
  1  2  1  0
  1 36  1  0
  1 37  1  0
  1 38  1  0
  2 10  1  0
  2  3  1  0
  2  4  1  0
  3 39  1  0
  3 40  1  0
  3 41  1  0
  4  5  1  0
  4  6  1  0
  4 42  1  1
  5 43  1  0
  6  7  1  0
  6 44  1  0
  6 45  1  0
  7  8  1  0
  7 46  1  0
  7 47  1  0
  8 17  1  0
  8  9  1  1
  8 10  1  0
  9 48  1  0
  9 49  1  0
  9 50  1  0
 10 11  1  0
 10 51  1  1
 11 12  1  0
 11 13  1  0
 11 52  1  6
 12 53  1  0
 13 14  1  0
 13 15  1  0
 13 54  1  6
 14 55  1  0
 15 35  1  0
 15 16  1  6
 15 17  1  0
 16 56  1  0
 16 57  1  0
 16 58  1  0
 17 18  1  0
 17 59  1  6
 18 19  1  0
 18 60  1  0
 18 61  1  0
 19 20  1  0
 19 62  1  0
 19 63  1  0
 35 20  1  1
 20 21  1  6
 20 22  1  0
 21 64  1  0
 21 65  1  0
 21 66  1  0
 22 32  1  0
 22 23  1  0
 22 67  1  1
 23 24  1  0
 23 68  1  0
 23 69  1  0
 24 25  1  0
 24 70  1  0
 24 71  1  0
 25 33  1  0
 25 26  1  6
 25 27  1  0
 26 72  1  0
 27 28  2  0
 27 29  1  0
 29 30  1  0
 30 35  1  0
 30 31  1  0
 30 73  1  1
 32 31  1  1
 31 74  1  0
 31 75  1  0
 32 33  1  0
 32 35  1  0
 33 34  1  0
 33 76  1  6
 34 77  1  0
M  END
>  <i_m_ct_stereo_status>  (340) 
1

>  <s_m_source_file>  (340) 
/var/tmp/pbs.5076255.sched01/tmppy4q9rbr/123plv7d954.sdf

>  <i_m_source_file_index>  (340) 
33

>  <i_lp_mmshare_version>  (340) 
48012

>  <i_f3d_flags>  (340) 
0

>  <s_epik_input>  (340) 
W0NIMl0xW0NIMl1bQ0BIXShbT0hdKUMoW0NIM10pKFtDSDNdKVtDQEhdKFtDQEBIXShbT0hdKVtDQEhdMltPSF0pW0NAXTEoW0NIM10pW0NAQEhdKFtDQF0yKFtDSDNdKUMzNFtDQF01NjcpW0NIMl1bQ0gyXVtDQF0zKFtDSDNdKVtDQEhdNVtDSDJdW0NIMl1bQ0BAXShbT0hdKShbQ0BASF03W09IXSlDKD1PKU9bQ0BASF00W0NIMl02

>  <s_epik_cmdline>  (340) 
J2VwaWtfcHl0aG9uJywgJy1waHQnLCAnMi4wJywgJy1waCcsICc3LjAnLCAnLXRuJywgJzgnLCAnLW1hJywgJzIwMCcsICctaW1hZScsICc8aW5maWxlLm1hZT4nLCAnLW9tYWUnLCAnPG91dGZpbGUubWFlPic=

>  <r_lp_tautomer_probability>  (340) 
1

>  <r_epik_Ionization_Penalty>  (340) 
2.89899e-06

>  <r_epik_Ionization_Penalty_Charging>  (340) 
0

>  <r_epik_Ionization_Penalty_Neutral>  (340) 
2.89899e-06

>  <r_epik_State_Penalty>  (340) 
-0

>  <r_epik_Charging_Adjusted_Penalty>  (340) 
0

>  <i_epik_Tot_Q>  (340) 
0

>  <i_epik_Tot_abs_Q>  (340) 
0

>  <s_epik_Chemistry_Notes>  (340) 
This compound has an ester and may undergo hydrolysis at high or low pH.

>  <s_lp_Force_Field>  (340) 
OPLS3e

>  <r_lp_Energy>  (340) 
302.08

>  <b_lp_Chiralities_Consistent>  (340) 
1

>  <s_lp_Variant>  (340) 
111:0-2

>  <s_i_glide_gridfile>  (340) 
pfpi4k_grid

>  <i_i_glide_lignum>  (340) 
33

>  <i_i_glide_rotatable_bonds>  (340) 
5

>  <r_i_docking_score>  (340) 
-2.51941

>  <r_i_glide_ligand_efficiency>  (340) 
-0.0719831

>  <r_i_glide_ligand_efficiency_sa>  (340) 
-0.235461

>  <r_i_glide_ligand_efficiency_ln>  (340) 
-0.553066

>  <r_i_glide_gscore>  (340) 
-2.51941

>  <r_i_glide_lipo>  (340) 
-0.175741

>  <r_i_glide_hbond>  (340) 
-0.153696

>  <r_i_glide_metal>  (340) 
-0

>  <r_i_glide_rewards>  (340) 
-0.063894

>  <r_i_glide_evdw>  (340) 
-20.8359

>  <r_i_glide_ecoul>  (340) 
-7.14755

>  <r_i_glide_erotb>  (340) 
0

>  <r_i_glide_esite>  (340) 
-0.0121509

>  <r_i_glide_emodel>  (340) 
-29.8608

>  <r_i_glide_energy>  (340) 
-27.9834

>  <r_i_glide_einternal>  (340) 
3.37665

>  <r_i_glide_intrahb_reward>  (340) 
-0

>  <i_i_glide_confnum>  (340) 
1

>  <i_i_glide_posenum>  (340) 
39

>  <r_i_glide_eff_state_penalty>  (340) 
0

>  <ligand_id>  (340) 
111

>  <original_smiles>  (340) 
CC1(C)C(O)CCC2(C)C1C(O)C(O)C1(C)C2CCC2(C)C3CCC4(O)C(=O)OC5CC3(C4O)C521

>  <smiles>  (340) 
[H]OC1([H])C([H])(O[H])C2(C([H])([H])[H])C([H])(C([H])([H])C([H])([H])C3(C([H])([H])[H])C4([H])C([H])([H])C([H])([H])C5(O[H])C(=O)OC6([H])C([H])([H])C4(C5([H])O[H])C632)C2(C([H])([H])[H])C([H])([H])C([H])([H])C([H])(O[H])C(C([H])([H])[H])(C([H])([H])[H])C12[H]

$$$$
111:1:2
     RDKit          3D

 77 83  0  0  1  0  0  0  0  0999 V2000
    4.1738   -2.7322    1.3614 C   0  0  0  0  0  0  0  0  0  0  0  0
    3.8985   -1.9305    2.6651 C   0  0  0  0  0  0  0  0  0  0  0  0
    5.1891   -1.1251    2.9692 C   0  0  0  0  0  0  0  0  0  0  0  0
    2.7720   -0.9005    2.3967 C   0  0  1  0  0  0  0  0  0  0  0  0
    3.0263   -0.0789    1.2718 O   0  0  0  0  0  0  0  0  0  0  0  0
    1.4253   -1.5831    2.1992 C   0  0  0  0  0  0  0  0  0  0  0  0
    1.0004   -2.2677    3.4967 C   0  0  0  0  0  0  0  0  0  0  0  0
    2.0211   -3.2304    4.2124 C   0  0  2  0  0  0  0  0  0  0  0  0
    1.6977   -2.9150    5.7157 C   0  0  0  0  0  0  0  0  0  0  0  0
    3.5277   -2.7996    3.9487 C   0  0  1  0  0  0  0  0  0  0  0  0
    4.5920   -3.8897    4.3076 C   0  0  1  0  0  0  0  0  0  0  0  0
    5.4883   -3.3910    5.2861 O   0  0  0  0  0  0  0  0  0  0  0  0
    4.0703   -5.2957    4.7285 C   0  0  1  0  0  0  0  0  0  0  0  0
    3.7495   -5.2402    6.1035 O   0  0  0  0  0  0  0  0  0  0  0  0
    2.8966   -5.8323    3.8334 C   0  0  2  0  0  0  0  0  0  0  0  0
    3.4456   -5.8921    2.3763 C   0  0  0  0  0  0  0  0  0  0  0  0
    1.6975   -4.7623    3.8650 C   0  0  1  0  0  0  0  0  0  0  0  0
    0.4488   -5.3117    4.6457 C   0  0  0  0  0  0  0  0  0  0  0  0
   -0.1525   -6.6544    4.1312 C   0  0  0  0  0  0  0  0  0  0  0  0
    0.9148   -7.5412    3.4747 C   0  0  2  0  0  0  0  0  0  0  0  0
    0.7549   -7.3348    1.9502 C   0  0  0  0  0  0  0  0  0  0  0  0
    0.9080   -9.0734    3.7251 C   0  0  1  0  0  0  0  0  0  0  0  0
    1.0747  -10.4365    2.9817 C   0  0  0  0  0  0  0  0  0  0  0  0
    2.2938  -11.3107    3.6086 C   0  0  0  0  0  0  0  0  0  0  0  0
    3.7240  -10.5870    3.6833 C   0  0  2  0  0  0  0  0  0  0  0  0
    4.6124  -11.3385    2.8761 O   0  0  0  0  0  0  0  0  0  0  0  0
    4.4579  -10.2504    5.0535 C   0  0  0  0  0  0  0  0  0  0  0  0
    5.1863  -11.0961    5.5731 O   0  0  0  0  0  0  0  0  0  0  0  0
    4.3327   -8.8873    5.5916 O   0  0  0  0  0  0  0  0  0  0  0  0
    3.1422   -7.9806    5.5834 C   0  0  2  0  0  0  0  0  0  0  0  0
    2.1019   -8.9390    5.6056 C   0  0  0  0  0  0  0  0  0  0  0  0
    2.3107   -8.7150    4.0510 C   0  0  1  0  0  0  0  0  0  0  0  0
    3.4454   -9.2474    3.0994 C   0  0  1  0  0  0  0  0  0  0  0  0
    4.6271   -8.4777    2.9066 O   0  0  0  0  0  0  0  0  0  0  0  0
    2.3020   -7.2439    4.3224 C   0  0  2  0  0  0  0  0  0  0  0  0
    4.5616   -2.0767    0.5798 H   0  0  0  0  0  0  0  0  0  0  0  0
    3.2817   -3.1877    0.9425 H   0  0  0  0  0  0  0  0  0  0  0  0
    4.9222   -3.5109    1.4758 H   0  0  0  0  0  0  0  0  0  0  0  0
    5.0684   -0.4862    3.8477 H   0  0  0  0  0  0  0  0  0  0  0  0
    5.4718   -0.4726    2.1393 H   0  0  0  0  0  0  0  0  0  0  0  0
    6.0353   -1.7847    3.1496 H   0  0  0  0  0  0  0  0  0  0  0  0
    2.6843   -0.2328    3.2540 H   0  0  0  0  0  0  0  0  0  0  0  0
    2.4267   -0.3259    0.5768 H   0  0  0  0  0  0  0  0  0  0  0  0
    0.6723   -0.8386    1.9374 H   0  0  0  0  0  0  0  0  0  0  0  0
    1.4249   -2.2678    1.3608 H   0  0  0  0  0  0  0  0  0  0  0  0
    0.7284   -1.4394    4.1548 H   0  0  0  0  0  0  0  0  0  0  0  0
    0.0600   -2.7804    3.3181 H   0  0  0  0  0  0  0  0  0  0  0  0
    2.2300   -3.5009    6.4515 H   0  0  0  0  0  0  0  0  0  0  0  0
    0.6348   -3.0254    5.9361 H   0  0  0  0  0  0  0  0  0  0  0  0
    1.9278   -1.8732    5.9560 H   0  0  0  0  0  0  0  0  0  0  0  0
    3.6733   -2.0413    4.7178 H   0  0  0  0  0  0  0  0  0  0  0  0
    5.2364   -4.0525    3.4538 H   0  0  0  0  0  0  0  0  0  0  0  0
    5.0227   -3.3439    6.1090 H   0  0  0  0  0  0  0  0  0  0  0  0
    4.9020   -5.9971    4.6541 H   0  0  0  0  0  0  0  0  0  0  0  0
    2.9911   -4.6884    6.2033 H   0  0  0  0  0  0  0  0  0  0  0  0
    3.2172   -6.8065    1.8415 H   0  0  0  0  0  0  0  0  0  0  0  0
    4.5315   -5.8098    2.3335 H   0  0  0  0  0  0  0  0  0  0  0  0
    3.0437   -5.1011    1.7542 H   0  0  0  0  0  0  0  0  0  0  0  0
    1.3144   -4.6879    2.8505 H   0  0  0  0  0  0  0  0  0  0  0  0
    0.7433   -5.4743    5.6837 H   0  0  0  0  0  0  0  0  0  0  0  0
   -0.3492   -4.5737    4.6797 H   0  0  0  0  0  0  0  0  0  0  0  0
   -0.6001   -7.1700    4.9832 H   0  0  0  0  0  0  0  0  0  0  0  0
   -0.9888   -6.4617    3.4566 H   0  0  0  0  0  0  0  0  0  0  0  0
    1.4668   -7.9364    1.3769 H   0  0  0  0  0  0  0  0  0  0  0  0
    0.8562   -6.3043    1.6170 H   0  0  0  0  0  0  0  0  0  0  0  0
   -0.2279   -7.6768    1.6096 H   0  0  0  0  0  0  0  0  0  0  0  0
    0.1690   -9.2388    4.5098 H   0  0  0  0  0  0  0  0  0  0  0  0
    0.1558  -11.0197    3.0840 H   0  0  0  0  0  0  0  0  0  0  0  0
    1.1847  -10.2941    1.9035 H   0  0  0  0  0  0  0  0  0  0  0  0
    2.0088  -11.6468    4.6056 H   0  0  0  0  0  0  0  0  0  0  0  0
    2.3715  -12.2390    3.0294 H   0  0  0  0  0  0  0  0  0  0  0  0
    4.2257  -11.5238    2.0186 H   0  0  0  0  0  0  0  0  0  0  0  0
    3.0920   -7.4338    6.5232 H   0  0  0  0  0  0  0  0  0  0  0  0
    2.2295   -9.9211    6.0595 H   0  0  0  0  0  0  0  0  0  0  0  0
    1.2357   -8.4802    6.0877 H   0  0  0  0  0  0  0  0  0  0  0  0
    3.0935   -9.3564    2.0728 H   0  0  0  0  0  0  0  0  0  0  0  0
    5.2005   -8.9869    2.3524 H   0  0  0  0  0  0  0  0  0  0  0  0
  1  2  1  0
  1 36  1  0
  1 37  1  0
  1 38  1  0
  2 10  1  0
  2  3  1  0
  2  4  1  0
  3 39  1  0
  3 40  1  0
  3 41  1  0
  4  5  1  0
  4  6  1  0
  4 42  1  1
  5 43  1  0
  6  7  1  0
  6 44  1  0
  6 45  1  0
  7  8  1  0
  7 46  1  0
  7 47  1  0
  8 17  1  0
  8  9  1  1
  8 10  1  0
  9 48  1  0
  9 49  1  0
  9 50  1  0
 10 11  1  0
 10 51  1  1
 11 12  1  0
 11 13  1  0
 11 52  1  6
 12 53  1  0
 13 14  1  0
 13 15  1  0
 13 54  1  1
 14 55  1  0
 15 35  1  0
 15 16  1  6
 15 17  1  0
 16 56  1  0
 16 57  1  0
 16 58  1  0
 17 18  1  0
 17 59  1  6
 18 19  1  0
 18 60  1  0
 18 61  1  0
 19 20  1  0
 19 62  1  0
 19 63  1  0
 35 20  1  1
 20 21  1  6
 20 22  1  0
 21 64  1  0
 21 65  1  0
 21 66  1  0
 22 32  1  0
 22 23  1  0
 22 67  1  1
 23 24  1  0
 23 68  1  0
 23 69  1  0
 24 25  1  0
 24 70  1  0
 24 71  1  0
 25 33  1  0
 25 26  1  6
 25 27  1  0
 26 72  1  0
 27 28  2  0
 27 29  1  0
 29 30  1  0
 30 35  1  0
 30 31  1  0
 30 73  1  1
 32 31  1  1
 31 74  1  0
 31 75  1  0
 32 33  1  0
 32 35  1  0
 33 34  1  0
 33 76  1  6
 34 77  1  0
M  END
>  <i_m_ct_stereo_status>  (341) 
1

>  <s_m_source_file>  (341) 
/var/tmp/pbs.5076255.sched01/tmppy4q9rbr/123plv7d954.sdf

>  <i_m_source_file_index>  (341) 
33

>  <i_lp_mmshare_version>  (341) 
48012

>  <i_f3d_flags>  (341) 
0

>  <s_epik_input>  (341) 
W0NIMl0xW0NIMl1bQ0BIXShbT0hdKUMoW0NIM10pKFtDSDNdKVtDQEhdKFtDQEBIXShbT0hdKVtDQEhdMltPSF0pW0NAXTEoW0NIM10pW0NAQEhdKFtDQF0yKFtDSDNdKUMzNFtDQF01NjcpW0NIMl1bQ0gyXVtDQF0zKFtDSDNdKVtDQEhdNVtDSDJdW0NIMl1bQ0BAXShbT0hdKShbQ0BASF03W09IXSlDKD1PKU9bQ0BASF00W0NIMl02

>  <s_epik_cmdline>  (341) 
J2VwaWtfcHl0aG9uJywgJy1waHQnLCAnMi4wJywgJy1waCcsICc3LjAnLCAnLXRuJywgJzgnLCAnLW1hJywgJzIwMCcsICctaW1hZScsICc8aW5maWxlLm1hZT4nLCAnLW9tYWUnLCAnPG91dGZpbGUubWFlPic=

>  <r_lp_tautomer_probability>  (341) 
1

>  <r_epik_Ionization_Penalty>  (341) 
2.89899e-06

>  <r_epik_Ionization_Penalty_Charging>  (341) 
0

>  <r_epik_Ionization_Penalty_Neutral>  (341) 
2.89899e-06

>  <r_epik_State_Penalty>  (341) 
-0

>  <r_epik_Charging_Adjusted_Penalty>  (341) 
0

>  <i_epik_Tot_Q>  (341) 
0

>  <i_epik_Tot_abs_Q>  (341) 
0

>  <s_epik_Chemistry_Notes>  (341) 
This compound has an ester and may undergo hydrolysis at high or low pH.

>  <s_lp_Force_Field>  (341) 
OPLS3e

>  <r_lp_Energy>  (341) 
302.08

>  <b_lp_Chiralities_Consistent>  (341) 
1

>  <s_lp_Variant>  (341) 
111:0-2

>  <s_i_glide_gridfile>  (341) 
pfpi4k_grid

>  <i_i_glide_lignum>  (341) 
33

>  <i_i_glide_rotatable_bonds>  (341) 
5

>  <r_i_docking_score>  (341) 
-2.4208

>  <r_i_glide_ligand_efficiency>  (341) 
-0.0691657

>  <r_i_glide_ligand_efficiency_sa>  (341) 
-0.226246

>  <r_i_glide_ligand_efficiency_ln>  (341) 
-0.53142

>  <r_i_glide_gscore>  (341) 
-2.4208

>  <r_i_glide_lipo>  (341) 
-0.37766

>  <r_i_glide_hbond>  (341) 
-0.0616332

>  <r_i_glide_metal>  (341) 
-0

>  <r_i_glide_rewards>  (341) 
-0.063894

>  <r_i_glide_evdw>  (341) 
-20.67

>  <r_i_glide_ecoul>  (341) 
-5.84668

>  <r_i_glide_erotb>  (341) 
0

>  <r_i_glide_esite>  (341) 
-0.00711071

>  <r_i_glide_emodel>  (341) 
-29.6559

>  <r_i_glide_energy>  (341) 
-26.5167

>  <r_i_glide_einternal>  (341) 
1.54135

>  <r_i_glide_intrahb_reward>  (341) 
-0

>  <i_i_glide_confnum>  (341) 
1

>  <i_i_glide_posenum>  (341) 
31

>  <r_i_glide_eff_state_penalty>  (341) 
0

>  <ligand_id>  (341) 
111

>  <original_smiles>  (341) 
CC1(C)C(O)CCC2(C)C1C(O)C(O)C1(C)C2CCC2(C)C3CCC4(O)C(=O)OC5CC3(C4O)C521

>  <smiles>  (341) 
[H]OC1([H])C([H])(O[H])C2(C([H])([H])[H])C([H])(C([H])([H])C([H])([H])C3(C([H])([H])[H])C4([H])C([H])([H])C([H])([H])C5(O[H])C(=O)OC6([H])C([H])([H])C4(C5([H])O[H])C632)C2(C([H])([H])[H])C([H])([H])C([H])([H])C([H])(O[H])C(C([H])([H])[H])(C([H])([H])[H])C12[H]

$$$$
112:0:0
     RDKit          3D

 54 59  0  0  1  0  0  0  0  0999 V2000
    8.1853   -7.5862    3.0823 C   0  0  0  0  0  0  0  0  0  0  0  0
    7.4680   -6.2342    3.1546 C   0  0  0  0  0  0  0  0  0  0  0  0
    6.7287   -5.8451    1.8614 C   0  0  1  0  0  0  0  0  0  0  0  0
    7.7668   -5.1400    0.7891 C   0  0  0  0  0  0  0  0  0  0  0  0
    7.3023   -3.8508   -0.1741 C   0  0  0  0  0  0  0  0  0  0  0  0
    6.4018   -2.5432    0.1827 C   0  0  0  0  0  0  0  0  0  0  0  0
    6.8744   -1.4621   -0.1697 O   0  0  0  0  0  0  0  0  0  0  0  0
    4.9470   -2.4602    0.9248 C   0  0  2  0  0  0  0  0  0  0  0  0
    5.0459   -1.9819    2.4207 C   0  0  0  0  0  0  0  0  0  0  0  0
    4.6726   -3.1792    3.3773 C   0  0  0  0  0  0  0  0  0  0  0  0
    4.5254   -4.3694    2.4243 C   0  0  1  0  0  0  0  0  0  0  0  0
    4.2696   -5.8312    2.7735 C   0  0  1  0  0  0  0  0  0  0  0  0
    2.8896   -6.2592    2.6103 N   0  0  0  0  0  0  0  0  0  0  0  0
    2.3329   -7.2668    3.4073 C   0  0  0  0  0  0  0  0  0  0  0  0
    3.0004   -7.8493    4.5152 C   0  0  0  0  0  0  0  0  0  0  0  0
    2.3746   -8.8528    5.2744 C   0  0  0  0  0  0  0  0  0  0  0  0
    1.0769   -9.2826    4.9477 C   0  0  0  0  0  0  0  0  0  0  0  0
    0.4605  -10.2606    5.7160 N   0  0  0  0  0  0  0  0  0  0  0  0
    0.4064   -8.7095    3.8481 C   0  0  0  0  0  0  0  0  0  0  0  0
    1.0342   -7.7054    3.0851 C   0  0  0  0  0  0  0  0  0  0  0  0
    5.2471   -6.4159    1.7094 C   0  0  1  0  0  0  0  0  0  0  0  0
    5.2431   -5.4777    0.5438 C   0  0  1  0  0  0  0  0  0  0  0  0
    4.0429   -4.7501    0.0352 C   0  0  0  0  0  0  0  0  0  0  0  0
    3.9667   -3.7020    1.1275 C   0  0  2  0  0  0  0  0  0  0  0  0
    2.6246   -3.2616    1.2720 O   0  0  0  0  0  0  0  0  0  0  0  0
    5.8086   -4.7266    1.8550 C   0  0  2  0  0  0  0  0  0  0  0  0
    8.6633   -7.8118    4.0348 H   0  0  0  0  0  0  0  0  0  0  0  0
    8.9662   -7.5851    2.3228 H   0  0  0  0  0  0  0  0  0  0  0  0
    7.4944   -8.4023    2.8664 H   0  0  0  0  0  0  0  0  0  0  0  0
    6.7668   -6.2902    3.9835 H   0  0  0  0  0  0  0  0  0  0  0  0
    8.1820   -5.4607    3.4389 H   0  0  0  0  0  0  0  0  0  0  0  0
    8.6509   -4.8073    1.3321 H   0  0  0  0  0  0  0  0  0  0  0  0
    8.1506   -5.9211    0.1304 H   0  0  0  0  0  0  0  0  0  0  0  0
    8.2376   -3.4400   -0.5546 H   0  0  0  0  0  0  0  0  0  0  0  0
    6.8175   -4.2433   -1.0644 H   0  0  0  0  0  0  0  0  0  0  0  0
    4.4055   -1.7080    0.3480 H   0  0  0  0  0  0  0  0  0  0  0  0
    6.0412   -1.5938    2.6487 H   0  0  0  0  0  0  0  0  0  0  0  0
    4.3454   -1.1639    2.5826 H   0  0  0  0  0  0  0  0  0  0  0  0
    5.4271   -3.3439    4.1469 H   0  0  0  0  0  0  0  0  0  0  0  0
    3.7236   -2.9858    3.8784 H   0  0  0  0  0  0  0  0  0  0  0  0
    4.6382   -5.9954    3.7824 H   0  0  0  0  0  0  0  0  0  0  0  0
    2.4839   -6.0963    1.7011 H   0  0  0  0  0  0  0  0  0  0  0  0
    3.9902   -7.5652    4.8228 H   0  0  0  0  0  0  0  0  0  0  0  0
    2.8971   -9.2905    6.1116 H   0  0  0  0  0  0  0  0  0  0  0  0
   -0.4297  -10.6560    5.4138 H   0  0  0  0  0  0  0  0  0  0  0  0
    0.9757  -10.8283    6.3894 H   0  0  0  0  0  0  0  0  0  0  0  0
   -0.5901   -9.0377    3.5878 H   0  0  0  0  0  0  0  0  0  0  0  0
    0.5069   -7.2698    2.2483 H   0  0  0  0  0  0  0  0  0  0  0  0
    5.1707   -7.4749    1.4615 H   0  0  0  0  0  0  0  0  0  0  0  0
    5.8096   -5.9463   -0.2694 H   0  0  0  0  0  0  0  0  0  0  0  0
    4.1682   -4.3162   -0.9604 H   0  0  0  0  0  0  0  0  0  0  0  0
    3.1649   -5.4000    0.0171 H   0  0  0  0  0  0  0  0  0  0  0  0
    2.4134   -2.6907    0.5462 H   0  0  0  0  0  0  0  0  0  0  0  0
    6.5113   -3.9359    2.0988 H   0  0  0  0  0  0  0  0  0  0  0  0
  1  2  1  0
  1 27  1  0
  1 28  1  0
  1 29  1  0
  3  2  1  1
  2 30  1  0
  2 31  1  0
  3 21  1  0
  3 26  1  0
  3  4  1  0
  4  5  1  0
  4 32  1  0
  4 33  1  0
  5  6  1  0
  5 34  1  0
  5 35  1  0
  6  7  2  0
  6  8  1  0
  8 24  1  0
  8  9  1  0
  8 36  1  6
  9 10  1  0
  9 37  1  0
  9 38  1  0
 11 10  1  1
 10 39  1  0
 10 40  1  0
 11 24  1  0
 11 26  1  0
 11 12  1  0
 12 13  1  0
 12 21  1  0
 12 41  1  1
 13 14  1  0
 13 42  1  0
 14 20  1  0
 14 15  2  0
 15 16  1  0
 15 43  1  0
 16 17  2  0
 16 44  1  0
 17 18  1  0
 17 19  1  0
 18 45  1  0
 18 46  1  0
 19 20  2  0
 19 47  1  0
 20 48  1  0
 21 22  1  0
 21 49  1  6
 22 23  1  0
 22 26  1  0
 22 50  1  6
 23 24  1  0
 23 51  1  0
 23 52  1  0
 24 25  1  1
 25 53  1  0
 26 54  1  6
M  END
>  <i_m_ct_stereo_status>  (342) 
1

>  <s_m_source_file>  (342) 
/var/tmp/pbs.5076255.sched01/tmppy4q9rbr/123plv7d954.sdf

>  <i_m_source_file_index>  (342) 
34

>  <i_lp_mmshare_version>  (342) 
48012

>  <i_f3d_flags>  (342) 
0

>  <s_epik_input>  (342) 
W0NIMl0xW0NIMl1bQ0BIXShbQ0BAXTIoW0NAQF0xMzQpW09IXSlDKD1PKVtDSDJdW0NIMl1bQ0BdNShbQ0gyXVtDSDNdKVtDQEhdKFtDSF0oW0NIMl0yKVtDSF00NSlbQ0BASF0zW05IXWM2W2NIXVtjSF1jKFtOSDJdKVtjSF1bY0hdNg==

>  <s_epik_cmdline>  (342) 
J2VwaWtfcHl0aG9uJywgJy1waHQnLCAnMi4wJywgJy1waCcsICc3LjAnLCAnLXRuJywgJzgnLCAnLW1hJywgJzIwMCcsICctaW1hZScsICc8aW5maWxlLm1hZT4nLCAnLW9tYWUnLCAnPG91dGZpbGUubWFlPic=

>  <r_lp_tautomer_probability>  (342) 
1

>  <r_epik_Ionization_Penalty>  (342) 
0.191957

>  <r_epik_Ionization_Penalty_Charging>  (342) 
0

>  <r_epik_Ionization_Penalty_Neutral>  (342) 
0.191957

>  <r_epik_State_Penalty>  (342) 
0.215057

>  <r_epik_Charging_Adjusted_Penalty>  (342) 
0.215057

>  <i_epik_Tot_Q>  (342) 
0

>  <i_epik_Tot_abs_Q>  (342) 
0

>  <s_lp_Force_Field>  (342) 
OPLS3e

>  <r_lp_Energy>  (342) 
231.457

>  <b_lp_Chiralities_Consistent>  (342) 
1

>  <s_lp_Variant>  (342) 
112:0-1

>  <s_i_glide_gridfile>  (342) 
pfpi4k_grid

>  <i_i_glide_lignum>  (342) 
34

>  <i_i_glide_rotatable_bonds>  (342) 
4

>  <r_i_docking_score>  (342) 
-3.6655

>  <r_i_glide_ligand_efficiency>  (342) 
-0.140981

>  <r_i_glide_ligand_efficiency_sa>  (342) 
-0.417655

>  <r_i_glide_ligand_efficiency_ln>  (342) 
-0.86083

>  <r_i_glide_gscore>  (342) 
-3.6655

>  <r_i_glide_lipo>  (342) 
-0.672268

>  <r_i_glide_hbond>  (342) 
-0.410827

>  <r_i_glide_metal>  (342) 
-0

>  <r_i_glide_rewards>  (342) 
-1.07844

>  <r_i_glide_evdw>  (342) 
-17.4276

>  <r_i_glide_ecoul>  (342) 
-5.60861

>  <r_i_glide_erotb>  (342) 
0.307245

>  <r_i_glide_esite>  (342) 
-0.0985402

>  <r_i_glide_emodel>  (342) 
-28.9913

>  <r_i_glide_energy>  (342) 
-23.0362

>  <r_i_glide_einternal>  (342) 
1.06358

>  <r_i_glide_intrahb_reward>  (342) 
-0

>  <i_i_glide_confnum>  (342) 
4

>  <i_i_glide_posenum>  (342) 
5

>  <r_i_glide_eff_state_penalty>  (342) 
0

>  <ligand_id>  (342) 
112

>  <original_smiles>  (342) 
CCC12CCC(=O)C3CCC45C(Nc6ccc(N)cc6)C1C(CC34O)C25

>  <smiles>  (342) 
[H]OC12C([H])([H])C3([H])C4([H])C([H])(N([H])c5c([H])c([H])c(N([H])[H])c([H])c5[H])C15C([H])([H])C([H])([H])C2([H])C(=O)C([H])([H])C([H])([H])C4(C([H])([H])C([H])([H])[H])C35[H]

$$$$
112:0:1
     RDKit          3D

 54 59  0  0  1  0  0  0  0  0999 V2000
    5.8908    0.2188    4.6297 C   0  0  0  0  0  0  0  0  0  0  0  0
    5.0187   -0.9314    5.2355 C   0  0  0  0  0  0  0  0  0  0  0  0
    4.2991   -1.8643    4.2315 C   0  0  1  0  0  0  0  0  0  0  0  0
    4.9225   -3.3915    4.3234 C   0  0  0  0  0  0  0  0  0  0  0  0
    5.1254   -4.3561    2.9645 C   0  0  0  0  0  0  0  0  0  0  0  0
    5.6519   -3.9520    1.4798 C   0  0  0  0  0  0  0  0  0  0  0  0
    6.5445   -4.6672    1.0126 O   0  0  0  0  0  0  0  0  0  0  0  0
    5.1615   -2.7267    0.5160 C   0  0  2  0  0  0  0  0  0  0  0  0
    6.1782   -1.5253    0.4766 C   0  0  0  0  0  0  0  0  0  0  0  0
    5.5141   -0.2759    1.1643 C   0  0  0  0  0  0  0  0  0  0  0  0
    4.2110   -0.8109    1.7471 C   0  0  1  0  0  0  0  0  0  0  0  0
    3.1702   -0.0730    2.6163 C   0  0  1  0  0  0  0  0  0  0  0  0
    1.9891    0.3695    1.8860 N   0  0  0  0  0  0  0  0  0  0  0  0
    1.0823    1.1783    2.5526 C   0  0  0  0  0  0  0  0  0  0  0  0
    1.3817    2.0563    3.6425 C   0  0  0  0  0  0  0  0  0  0  0  0
    0.3686    2.8277    4.2346 C   0  0  0  0  0  0  0  0  0  0  0  0
   -0.9639    2.7551    3.7562 C   0  0  0  0  0  0  0  0  0  0  0  0
   -1.9768    3.5293    4.3174 N   0  0  0  0  0  0  0  0  0  0  0  0
   -1.2538    1.8752    2.6893 C   0  0  0  0  0  0  0  0  0  0  0  0
   -0.2446    1.1074    2.1081 C   0  0  0  0  0  0  0  0  0  0  0  0
    2.9444   -1.3044    3.5683 C   0  0  1  0  0  0  0  0  0  0  0  0
    3.0913   -2.5588    2.7608 C   0  0  1  0  0  0  0  0  0  0  0  0
    2.6810   -2.6970    1.3285 C   0  0  0  0  0  0  0  0  0  0  0  0
    3.8129   -1.9023    0.7037 C   0  0  2  0  0  0  0  0  0  0  0  0
    3.4148   -1.3482   -0.5448 O   0  0  0  0  0  0  0  0  0  0  0  0
    4.4838   -1.7527    2.8090 C   0  0  2  0  0  0  0  0  0  0  0  0
    6.4276    0.7801    5.4206 H   0  0  0  0  0  0  0  0  0  0  0  0
    5.3543    0.9202    4.0268 H   0  0  0  0  0  0  0  0  0  0  0  0
    6.6949   -0.2241    4.0149 H   0  0  0  0  0  0  0  0  0  0  0  0
    5.6337   -1.5109    5.9038 H   0  0  0  0  0  0  0  0  0  0  0  0
    4.2720   -0.4870    5.8774 H   0  0  0  0  0  0  0  0  0  0  0  0
    5.8991   -3.3620    4.7990 H   0  0  0  0  0  0  0  0  0  0  0  0
    4.3316   -3.9818    5.0321 H   0  0  0  0  0  0  0  0  0  0  0  0
    5.8087   -5.1487    3.2796 H   0  0  0  0  0  0  0  0  0  0  0  0
    4.1937   -4.8948    2.7834 H   0  0  0  0  0  0  0  0  0  0  0  0
    5.1239   -3.1743   -0.4790 H   0  0  0  0  0  0  0  0  0  0  0  0
    7.1255   -1.7866    0.9536 H   0  0  0  0  0  0  0  0  0  0  0  0
    6.4040   -1.2865   -0.5595 H   0  0  0  0  0  0  0  0  0  0  0  0
    6.1697    0.1493    1.9204 H   0  0  0  0  0  0  0  0  0  0  0  0
    5.2955    0.5162    0.4615 H   0  0  0  0  0  0  0  0  0  0  0  0
    3.5793    0.7643    3.1549 H   0  0  0  0  0  0  0  0  0  0  0  0
    1.6555   -0.1847    1.0844 H   0  0  0  0  0  0  0  0  0  0  0  0
    2.3848    2.1770    4.0374 H   0  0  0  0  0  0  0  0  0  0  0  0
    0.6045    3.4978    5.0473 H   0  0  0  0  0  0  0  0  0  0  0  0
   -2.9355    3.3551    4.0612 H   0  0  0  0  0  0  0  0  0  0  0  0
   -1.8237    4.0222    5.1749 H   0  0  0  0  0  0  0  0  0  0  0  0
   -2.2559    1.7896    2.2898 H   0  0  0  0  0  0  0  0  0  0  0  0
   -0.4677    0.4383    1.3043 H   0  0  0  0  0  0  0  0  0  0  0  0
    2.0778   -1.3113    4.2235 H   0  0  0  0  0  0  0  0  0  0  0  0
    2.7598   -3.3962    3.3867 H   0  0  0  0  0  0  0  0  0  0  0  0
    2.6371   -3.7294    0.9447 H   0  0  0  0  0  0  0  0  0  0  0  0
    1.7147   -2.2100    1.1697 H   0  0  0  0  0  0  0  0  0  0  0  0
    2.4890   -1.0884   -0.5075 H   0  0  0  0  0  0  0  0  0  0  0  0
    5.5393   -1.9809    2.8001 H   0  0  0  0  0  0  0  0  0  0  0  0
  1  2  1  0
  1 27  1  0
  1 28  1  0
  1 29  1  0
  3  2  1  1
  2 30  1  0
  2 31  1  0
  3 21  1  0
  3 26  1  0
  3  4  1  0
  4  5  1  0
  4 32  1  0
  4 33  1  0
  5  6  1  0
  5 34  1  0
  5 35  1  0
  6  7  2  0
  6  8  1  0
  8 24  1  0
  8  9  1  0
  8 36  1  6
  9 10  1  0
  9 37  1  0
  9 38  1  0
 11 10  1  6
 10 39  1  0
 10 40  1  0
 11 24  1  0
 11 26  1  0
 11 12  1  0
 12 13  1  0
 12 21  1  0
 12 41  1  1
 13 14  1  0
 13 42  1  0
 14 20  1  0
 14 15  2  0
 15 16  1  0
 15 43  1  0
 16 17  2  0
 16 44  1  0
 17 18  1  0
 17 19  1  0
 18 45  1  0
 18 46  1  0
 19 20  2  0
 19 47  1  0
 20 48  1  0
 21 22  1  0
 21 49  1  1
 22 23  1  0
 22 26  1  0
 22 50  1  1
 23 24  1  0
 23 51  1  0
 23 52  1  0
 24 25  1  6
 25 53  1  0
 26 54  1  6
M  END
>  <i_m_ct_stereo_status>  (343) 
1

>  <s_m_source_file>  (343) 
/var/tmp/pbs.5076255.sched01/tmppy4q9rbr/123plv7d954.sdf

>  <i_m_source_file_index>  (343) 
34

>  <i_lp_mmshare_version>  (343) 
48012

>  <i_f3d_flags>  (343) 
0

>  <s_epik_input>  (343) 
W0NIMl0xW0NIMl1bQ0BIXShbQ0BAXTIoW0NAQF0xMzQpW09IXSlDKD1PKVtDSDJdW0NIMl1bQ0BdNShbQ0gyXVtDSDNdKVtDQEhdKFtDSF0oW0NIMl0yKVtDSF00NSlbQ0BASF0zW05IXWM2W2NIXVtjSF1jKFtOSDJdKVtjSF1bY0hdNg==

>  <s_epik_cmdline>  (343) 
J2VwaWtfcHl0aG9uJywgJy1waHQnLCAnMi4wJywgJy1waCcsICc3LjAnLCAnLXRuJywgJzgnLCAnLW1hJywgJzIwMCcsICctaW1hZScsICc8aW5maWxlLm1hZT4nLCAnLW9tYWUnLCAnPG91dGZpbGUubWFlPic=

>  <r_lp_tautomer_probability>  (343) 
1

>  <r_epik_Ionization_Penalty>  (343) 
0.191957

>  <r_epik_Ionization_Penalty_Charging>  (343) 
0

>  <r_epik_Ionization_Penalty_Neutral>  (343) 
0.191957

>  <r_epik_State_Penalty>  (343) 
0.215057

>  <r_epik_Charging_Adjusted_Penalty>  (343) 
0.215057

>  <i_epik_Tot_Q>  (343) 
0

>  <i_epik_Tot_abs_Q>  (343) 
0

>  <s_lp_Force_Field>  (343) 
OPLS3e

>  <r_lp_Energy>  (343) 
231.457

>  <b_lp_Chiralities_Consistent>  (343) 
1

>  <s_lp_Variant>  (343) 
112:0-1

>  <s_i_glide_gridfile>  (343) 
pfpi4k_grid

>  <i_i_glide_lignum>  (343) 
34

>  <i_i_glide_rotatable_bonds>  (343) 
4

>  <r_i_docking_score>  (343) 
-3.50735

>  <r_i_glide_ligand_efficiency>  (343) 
-0.134898

>  <r_i_glide_ligand_efficiency_sa>  (343) 
-0.399636

>  <r_i_glide_ligand_efficiency_ln>  (343) 
-0.823691

>  <r_i_glide_gscore>  (343) 
-3.50735

>  <r_i_glide_lipo>  (343) 
-0.524134

>  <r_i_glide_hbond>  (343) 
-0.236259

>  <r_i_glide_metal>  (343) 
-0

>  <r_i_glide_rewards>  (343) 
-1.08541

>  <r_i_glide_evdw>  (343) 
-21.7615

>  <r_i_glide_ecoul>  (343) 
-5.26964

>  <r_i_glide_erotb>  (343) 
0.307245

>  <r_i_glide_esite>  (343) 
-0.090274

>  <r_i_glide_emodel>  (343) 
-29.7667

>  <r_i_glide_energy>  (343) 
-27.0311

>  <r_i_glide_einternal>  (343) 
5.15774

>  <r_i_glide_intrahb_reward>  (343) 
-0

>  <i_i_glide_confnum>  (343) 
4

>  <i_i_glide_posenum>  (343) 
40

>  <r_i_glide_eff_state_penalty>  (343) 
0

>  <ligand_id>  (343) 
112

>  <original_smiles>  (343) 
CCC12CCC(=O)C3CCC45C(Nc6ccc(N)cc6)C1C(CC34O)C25

>  <smiles>  (343) 
[H]OC12C([H])([H])C3([H])C4([H])C([H])(N([H])c5c([H])c([H])c(N([H])[H])c([H])c5[H])C15C([H])([H])C([H])([H])C2([H])C(=O)C([H])([H])C([H])([H])C4(C([H])([H])C([H])([H])[H])C35[H]

$$$$
112:0:2
     RDKit          3D

 54 59  0  0  1  0  0  0  0  0999 V2000
    4.3054   -2.2181    6.5839 C   0  0  0  0  0  0  0  0  0  0  0  0
    4.7325   -1.7475    5.1894 C   0  0  0  0  0  0  0  0  0  0  0  0
    4.0691   -2.5044    4.0297 C   0  0  1  0  0  0  0  0  0  0  0  0
    4.7039   -4.0215    3.8856 C   0  0  0  0  0  0  0  0  0  0  0  0
    4.9646   -4.7360    2.3941 C   0  0  0  0  0  0  0  0  0  0  0  0
    5.5609   -4.0971    1.0176 C   0  0  0  0  0  0  0  0  0  0  0  0
    6.4648   -4.7333    0.4806 O   0  0  0  0  0  0  0  0  0  0  0  0
    5.1282   -2.7230    0.2449 C   0  0  2  0  0  0  0  0  0  0  0  0
    6.1507   -1.5459    0.4535 C   0  0  0  0  0  0  0  0  0  0  0  0
    5.4845   -0.4207    1.3339 C   0  0  0  0  0  0  0  0  0  0  0  0
    4.1453   -1.0341    1.7431 C   0  0  1  0  0  0  0  0  0  0  0  0
    3.0865   -0.4554    2.6717 C   0  0  1  0  0  0  0  0  0  0  0  0
    1.9395    0.1463    2.0028 N   0  0  0  0  0  0  0  0  0  0  0  0
    0.9725    0.8070    2.7789 C   0  0  0  0  0  0  0  0  0  0  0  0
   -0.1760    1.3193    2.1374 C   0  0  0  0  0  0  0  0  0  0  0  0
   -1.1847    1.9549    2.8900 C   0  0  0  0  0  0  0  0  0  0  0  0
   -1.0484    2.0989    4.2843 C   0  0  0  0  0  0  0  0  0  0  0  0
   -2.0393    2.7246    5.0402 N   0  0  0  0  0  0  0  0  0  0  0  0
    0.1026    1.6070    4.9221 C   0  0  0  0  0  0  0  0  0  0  0  0
    1.1045    0.9681    4.1754 C   0  0  0  0  0  0  0  0  0  0  0  0
    2.7798   -1.8092    3.3980 C   0  0  1  0  0  0  0  0  0  0  0  0
    2.9689   -2.9009    2.3927 C   0  0  1  0  0  0  0  0  0  0  0  0
    2.6147   -2.7881    0.9496 C   0  0  0  0  0  0  0  0  0  0  0  0
    3.7754   -1.9235    0.5125 C   0  0  2  0  0  0  0  0  0  0  0  0
    3.4153   -1.1790   -0.6392 O   0  0  0  0  0  0  0  0  0  0  0  0
    4.3649   -2.1446    2.6581 C   0  0  2  0  0  0  0  0  0  0  0  0
    4.8071   -1.6262    7.3474 H   0  0  0  0  0  0  0  0  0  0  0  0
    4.5672   -3.2604    6.7577 H   0  0  0  0  0  0  0  0  0  0  0  0
    3.2350   -2.0982    6.7345 H   0  0  0  0  0  0  0  0  0  0  0  0
    4.5065   -0.6849    5.1197 H   0  0  0  0  0  0  0  0  0  0  0  0
    5.8120   -1.8145    5.1066 H   0  0  0  0  0  0  0  0  0  0  0  0
    5.6601   -4.0477    4.4048 H   0  0  0  0  0  0  0  0  0  0  0  0
    4.0806   -4.7053    4.4624 H   0  0  0  0  0  0  0  0  0  0  0  0
    5.6257   -5.5762    2.6029 H   0  0  0  0  0  0  0  0  0  0  0  0
    4.0393   -5.2258    2.0870 H   0  0  0  0  0  0  0  0  0  0  0  0
    5.1195   -3.0033   -0.8072 H   0  0  0  0  0  0  0  0  0  0  0  0
    7.0798   -1.9012    0.9065 H   0  0  0  0  0  0  0  0  0  0  0  0
    6.4109   -1.1284   -0.5170 H   0  0  0  0  0  0  0  0  0  0  0  0
    6.1079   -0.1575    2.1904 H   0  0  0  0  0  0  0  0  0  0  0  0
    5.3115    0.4778    0.7431 H   0  0  0  0  0  0  0  0  0  0  0  0
    3.5569    0.2645    3.3385 H   0  0  0  0  0  0  0  0  0  0  0  0
    1.6736   -0.1982    1.0869 H   0  0  0  0  0  0  0  0  0  0  0  0
   -0.2796    1.2340    1.0628 H   0  0  0  0  0  0  0  0  0  0  0  0
   -2.0620    2.3334    2.3817 H   0  0  0  0  0  0  0  0  0  0  0  0
   -1.8877    2.9265    6.0155 H   0  0  0  0  0  0  0  0  0  0  0  0
   -2.8271    3.1697    4.5955 H   0  0  0  0  0  0  0  0  0  0  0  0
    0.2285    1.7069    5.9862 H   0  0  0  0  0  0  0  0  0  0  0  0
    1.9602    0.6053    4.7241 H   0  0  0  0  0  0  0  0  0  0  0  0
    1.8687   -1.8844    3.9949 H   0  0  0  0  0  0  0  0  0  0  0  0
    2.5957   -3.8311    2.8380 H   0  0  0  0  0  0  0  0  0  0  0  0
    2.5822   -3.7388    0.4105 H   0  0  0  0  0  0  0  0  0  0  0  0
    1.6595   -2.2706    0.8497 H   0  0  0  0  0  0  0  0  0  0  0  0
    2.4614   -1.0602   -0.6640 H   0  0  0  0  0  0  0  0  0  0  0  0
    5.4269   -2.3766    2.6539 H   0  0  0  0  0  0  0  0  0  0  0  0
  1  2  1  0
  1 27  1  0
  1 28  1  0
  1 29  1  0
  3  2  1  1
  2 30  1  0
  2 31  1  0
  3 21  1  0
  3 26  1  0
  3  4  1  0
  4  5  1  0
  4 32  1  0
  4 33  1  0
  5  6  1  0
  5 34  1  0
  5 35  1  0
  6  7  2  0
  6  8  1  0
  8 24  1  0
  8  9  1  0
  8 36  1  6
  9 10  1  0
  9 37  1  0
  9 38  1  0
 11 10  1  6
 10 39  1  0
 10 40  1  0
 11 24  1  0
 11 26  1  0
 11 12  1  0
 12 13  1  0
 12 21  1  0
 12 41  1  1
 13 14  1  0
 13 42  1  0
 14 20  1  0
 14 15  2  0
 15 16  1  0
 15 43  1  0
 16 17  2  0
 16 44  1  0
 17 18  1  0
 17 19  1  0
 18 45  1  0
 18 46  1  0
 19 20  2  0
 19 47  1  0
 20 48  1  0
 21 22  1  0
 21 49  1  1
 22 23  1  0
 22 26  1  0
 22 50  1  1
 23 24  1  0
 23 51  1  0
 23 52  1  0
 24 25  1  6
 25 53  1  0
 26 54  1  6
M  END
>  <i_m_ct_stereo_status>  (344) 
1

>  <s_m_source_file>  (344) 
/var/tmp/pbs.5076255.sched01/tmppy4q9rbr/123plv7d954.sdf

>  <i_m_source_file_index>  (344) 
34

>  <i_lp_mmshare_version>  (344) 
48012

>  <i_f3d_flags>  (344) 
0

>  <s_epik_input>  (344) 
W0NIMl0xW0NIMl1bQ0BIXShbQ0BAXTIoW0NAQF0xMzQpW09IXSlDKD1PKVtDSDJdW0NIMl1bQ0BdNShbQ0gyXVtDSDNdKVtDQEhdKFtDSF0oW0NIMl0yKVtDSF00NSlbQ0BASF0zW05IXWM2W2NIXVtjSF1jKFtOSDJdKVtjSF1bY0hdNg==

>  <s_epik_cmdline>  (344) 
J2VwaWtfcHl0aG9uJywgJy1waHQnLCAnMi4wJywgJy1waCcsICc3LjAnLCAnLXRuJywgJzgnLCAnLW1hJywgJzIwMCcsICctaW1hZScsICc8aW5maWxlLm1hZT4nLCAnLW9tYWUnLCAnPG91dGZpbGUubWFlPic=

>  <r_lp_tautomer_probability>  (344) 
1

>  <r_epik_Ionization_Penalty>  (344) 
0.191957

>  <r_epik_Ionization_Penalty_Charging>  (344) 
0

>  <r_epik_Ionization_Penalty_Neutral>  (344) 
0.191957

>  <r_epik_State_Penalty>  (344) 
0.215057

>  <r_epik_Charging_Adjusted_Penalty>  (344) 
0.215057

>  <i_epik_Tot_Q>  (344) 
0

>  <i_epik_Tot_abs_Q>  (344) 
0

>  <s_lp_Force_Field>  (344) 
OPLS3e

>  <r_lp_Energy>  (344) 
231.457

>  <b_lp_Chiralities_Consistent>  (344) 
1

>  <s_lp_Variant>  (344) 
112:0-1

>  <s_i_glide_gridfile>  (344) 
pfpi4k_grid

>  <i_i_glide_lignum>  (344) 
34

>  <i_i_glide_rotatable_bonds>  (344) 
4

>  <r_i_docking_score>  (344) 
-3.2172

>  <r_i_glide_ligand_efficiency>  (344) 
-0.123738

>  <r_i_glide_ligand_efficiency_sa>  (344) 
-0.366575

>  <r_i_glide_ligand_efficiency_ln>  (344) 
-0.755549

>  <r_i_glide_gscore>  (344) 
-3.2172

>  <r_i_glide_lipo>  (344) 
-0.318079

>  <r_i_glide_hbond>  (344) 
-0.234362

>  <r_i_glide_metal>  (344) 
-0

>  <r_i_glide_rewards>  (344) 
-1.08827

>  <r_i_glide_evdw>  (344) 
-20.7329

>  <r_i_glide_ecoul>  (344) 
-5.31531

>  <r_i_glide_erotb>  (344) 
0.307245

>  <r_i_glide_esite>  (344) 
-0.0497976

>  <r_i_glide_emodel>  (344) 
-30.2917

>  <r_i_glide_energy>  (344) 
-26.0482

>  <r_i_glide_einternal>  (344) 
2.59066

>  <r_i_glide_intrahb_reward>  (344) 
-0

>  <i_i_glide_confnum>  (344) 
2

>  <i_i_glide_posenum>  (344) 
20

>  <r_i_glide_eff_state_penalty>  (344) 
0

>  <ligand_id>  (344) 
112

>  <original_smiles>  (344) 
CCC12CCC(=O)C3CCC45C(Nc6ccc(N)cc6)C1C(CC34O)C25

>  <smiles>  (344) 
[H]OC12C([H])([H])C3([H])C4([H])C([H])(N([H])c5c([H])c([H])c(N([H])[H])c([H])c5[H])C15C([H])([H])C([H])([H])C2([H])C(=O)C([H])([H])C([H])([H])C4(C([H])([H])C([H])([H])[H])C35[H]

$$$$
112:1:0
     RDKit          3D

 55 60  0  0  1  0  0  0  0  0999 V2000
    9.1316   -5.4518    1.4627 C   0  0  0  0  0  0  0  0  0  0  0  0
    7.6663   -5.6932    1.1108 C   0  0  0  0  0  0  0  0  0  0  0  0
    6.6771   -5.3240    2.2261 C   0  0  1  0  0  0  0  0  0  0  0  0
    6.9151   -6.2825    3.5330 C   0  0  0  0  0  0  0  0  0  0  0  0
    5.6481   -6.8548    4.4568 C   0  0  0  0  0  0  0  0  0  0  0  0
    4.2105   -7.4518    3.9947 C   0  0  0  0  0  0  0  0  0  0  0  0
    3.8860   -8.5186    4.5090 O   0  0  0  0  0  0  0  0  0  0  0  0
    3.1290   -6.8255    2.9477 C   0  0  2  0  0  0  0  0  0  0  0  0
    3.1306   -7.5372    1.5458 C   0  0  0  0  0  0  0  0  0  0  0  0
    3.6956   -6.5436    0.4541 C   0  0  0  0  0  0  0  0  0  0  0  0
    4.1388   -5.3216    1.2571 C   0  0  1  0  0  0  0  0  0  0  0  0
    4.8689   -4.0381    0.7793 C   0  0  1  0  0  0  0  0  0  0  0  0
    4.0337   -2.8578    0.6683 N   0  0  0  0  0  0  0  0  0  0  0  0
    3.8410   -2.3328   -0.7346 C   0  0  0  0  0  0  0  0  0  0  0  0
    3.0590   -3.0620   -1.6459 C   0  0  0  0  0  0  0  0  0  0  0  0
    2.9247   -2.5995   -2.9755 C   0  0  0  0  0  0  0  0  0  0  0  0
    3.5748   -1.4047   -3.3865 C   0  0  0  0  0  0  0  0  0  0  0  0
    3.5028   -0.9834   -4.6999 N   0  0  0  0  0  0  0  0  0  0  0  0
    4.3329   -0.6705   -2.4390 C   0  0  0  0  0  0  0  0  0  0  0  0
    4.4803   -1.1330   -1.1117 C   0  0  0  0  0  0  0  0  0  0  0  0
    5.8346   -3.9862    1.9924 C   0  0  1  0  0  0  0  0  0  0  0  0
    5.1036   -4.5111    3.1910 C   0  0  1  0  0  0  0  0  0  0  0  0
    3.6495   -4.3154    3.4612 C   0  0  0  0  0  0  0  0  0  0  0  0
    3.1258   -5.3143    2.4486 C   0  0  2  0  0  0  0  0  0  0  0  0
    1.8145   -4.9585    2.0370 O   0  0  0  0  0  0  0  0  0  0  0  0
    5.2703   -5.6629    2.0848 C   0  0  2  0  0  0  0  0  0  0  0  0
    9.7421   -5.7588    0.6204 H   0  0  0  0  0  0  0  0  0  0  0  0
    9.4545   -6.0521    2.3145 H   0  0  0  0  0  0  0  0  0  0  0  0
    9.3365   -4.4034    1.6814 H   0  0  0  0  0  0  0  0  0  0  0  0
    7.4519   -5.1081    0.2138 H   0  0  0  0  0  0  0  0  0  0  0  0
    7.5374   -6.7374    0.8169 H   0  0  0  0  0  0  0  0  0  0  0  0
    7.4857   -7.1628    3.2320 H   0  0  0  0  0  0  0  0  0  0  0  0
    7.5931   -5.7654    4.2180 H   0  0  0  0  0  0  0  0  0  0  0  0
    6.0847   -7.6599    5.0554 H   0  0  0  0  0  0  0  0  0  0  0  0
    5.4053   -6.1062    5.2098 H   0  0  0  0  0  0  0  0  0  0  0  0
    2.1647   -7.0044    3.4309 H   0  0  0  0  0  0  0  0  0  0  0  0
    3.7076   -8.4663    1.5787 H   0  0  0  0  0  0  0  0  0  0  0  0
    2.1102   -7.8212    1.2855 H   0  0  0  0  0  0  0  0  0  0  0  0
    4.5025   -6.9983   -0.1236 H   0  0  0  0  0  0  0  0  0  0  0  0
    2.9017   -6.2535   -0.2375 H   0  0  0  0  0  0  0  0  0  0  0  0
    5.4289   -4.2334   -0.1414 H   0  0  0  0  0  0  0  0  0  0  0  0
    3.1371   -3.0238    1.0808 H   0  0  0  0  0  0  0  0  0  0  0  0
    2.5868   -3.9843   -1.3497 H   0  0  0  0  0  0  0  0  0  0  0  0
    2.3274   -3.1620   -3.6693 H   0  0  0  0  0  0  0  0  0  0  0  0
    3.7776   -0.0420   -4.9458 H   0  0  0  0  0  0  0  0  0  0  0  0
    2.7730   -1.3614   -5.3100 H   0  0  0  0  0  0  0  0  0  0  0  0
    4.8044    0.2526   -2.7273 H   0  0  0  0  0  0  0  0  0  0  0  0
    5.0769   -0.5789   -0.4061 H   0  0  0  0  0  0  0  0  0  0  0  0
    6.3877   -3.0543    2.1600 H   0  0  0  0  0  0  0  0  0  0  0  0
    5.7272   -4.3108    4.0706 H   0  0  0  0  0  0  0  0  0  0  0  0
    3.3427   -4.5621    4.4792 H   0  0  0  0  0  0  0  0  0  0  0  0
    3.3420   -3.2895    3.2451 H   0  0  0  0  0  0  0  0  0  0  0  0
    1.8053   -4.0545    1.8021 H   0  0  0  0  0  0  0  0  0  0  0  0
    5.3934   -6.7474    2.0587 H   0  0  0  0  0  0  0  0  0  0  0  0
    4.4678   -2.1306    1.2176 H   0  0  0  0  0  0  0  0  0  0  0  0
  1  2  1  0
  1 27  1  0
  1 28  1  0
  1 29  1  0
  3  2  1  6
  2 30  1  0
  2 31  1  0
  3 21  1  0
  3 26  1  0
  3  4  1  0
  4  5  1  0
  4 32  1  0
  4 33  1  0
  5  6  1  0
  5 34  1  0
  5 35  1  0
  6  7  2  0
  6  8  1  0
  8 24  1  0
  8  9  1  0
  8 36  1  1
  9 10  1  0
  9 37  1  0
  9 38  1  0
 11 10  1  6
 10 39  1  0
 10 40  1  0
 11 24  1  0
 11 26  1  0
 11 12  1  0
 12 13  1  0
 12 21  1  0
 12 41  1  6
 13 14  1  0
 13 42  1  0
 13 55  1  0
 14 20  1  0
 14 15  2  0
 15 16  1  0
 15 43  1  0
 16 17  2  0
 16 44  1  0
 17 18  1  0
 17 19  1  0
 18 45  1  0
 18 46  1  0
 19 20  2  0
 19 47  1  0
 20 48  1  0
 21 22  1  0
 21 49  1  1
 22 23  1  0
 22 26  1  0
 22 50  1  1
 23 24  1  0
 23 51  1  0
 23 52  1  0
 24 25  1  6
 25 53  1  0
 26 54  1  1
M  CHG  1  13   1
M  END
>  <i_m_ct_stereo_status>  (345) 
1

>  <s_m_source_file>  (345) 
/var/tmp/pbs.5076255.sched01/tmppy4q9rbr/123plv7d954.sdf

>  <i_m_source_file_index>  (345) 
35

>  <i_lp_mmshare_version>  (345) 
48012

>  <i_f3d_flags>  (345) 
0

>  <s_epik_input>  (345) 
W0NIMl0xW0NIMl1bQ0BIXShbQ0BAXTIoW0NAQF0xMzQpW09IXSlDKD1PKVtDSDJdW0NIMl1bQ0BdNShbQ0gyXVtDSDNdKVtDQEhdKFtDSF0oW0NIMl0yKVtDSF00NSlbQ0BASF0zW05IXWM2W2NIXVtjSF1jKFtOSDJdKVtjSF1bY0hdNg==

>  <s_epik_cmdline>  (345) 
J2VwaWtfcHl0aG9uJywgJy1waHQnLCAnMi4wJywgJy1waCcsICc3LjAnLCAnLXRuJywgJzgnLCAnLW1hJywgJzIwMCcsICctaW1hZScsICc8aW5maWxlLm1hZT4nLCAnLW9tYWUnLCAnPG91dGZpbGUubWFlPic=

>  <r_lp_tautomer_probability>  (345) 
1

>  <r_epik_Ionization_Penalty>  (345) 
0.667655

>  <r_epik_Ionization_Penalty_Charging>  (345) 
0.667635

>  <r_epik_Ionization_Penalty_Neutral>  (345) 
2.03978e-05

>  <r_epik_State_Penalty>  (345) 
0.859908

>  <r_epik_Charging_Adjusted_Penalty>  (345) 
1.52754

>  <i_epik_Tot_Q>  (345) 
1

>  <i_epik_Tot_abs_Q>  (345) 
1

>  <s_lp_Force_Field>  (345) 
OPLS3e

>  <r_lp_Energy>  (345) 
230.714

>  <b_lp_Chiralities_Consistent>  (345) 
1

>  <s_lp_Variant>  (345) 
112:0-2

>  <s_i_glide_gridfile>  (345) 
pfpi4k_grid

>  <i_i_glide_lignum>  (345) 
35

>  <i_i_glide_rotatable_bonds>  (345) 
4

>  <r_i_docking_score>  (345) 
-3.96821

>  <r_i_glide_ligand_efficiency>  (345) 
-0.152623

>  <r_i_glide_ligand_efficiency_sa>  (345) 
-0.452146

>  <r_i_glide_ligand_efficiency_ln>  (345) 
-0.931921

>  <r_i_glide_gscore>  (345) 
-3.96821

>  <r_i_glide_lipo>  (345) 
-0.547222

>  <r_i_glide_hbond>  (345) 
-0.334351

>  <r_i_glide_metal>  (345) 
-0

>  <r_i_glide_rewards>  (345) 
-0.999015

>  <r_i_glide_evdw>  (345) 
-22.9599

>  <r_i_glide_ecoul>  (345) 
-8.26867

>  <r_i_glide_erotb>  (345) 
0.305688

>  <r_i_glide_esite>  (345) 
-0.00501256

>  <r_i_glide_emodel>  (345) 
-38.7556

>  <r_i_glide_energy>  (345) 
-31.2286

>  <r_i_glide_einternal>  (345) 
1.81411

>  <r_i_glide_intrahb_reward>  (345) 
-0

>  <i_i_glide_confnum>  (345) 
1

>  <i_i_glide_posenum>  (345) 
7

>  <r_i_glide_eff_state_penalty>  (345) 
0

>  <ligand_id>  (345) 
112

>  <original_smiles>  (345) 
CCC12CCC(=O)C3CCC45C(Nc6ccc(N)cc6)C1C(CC34O)C25

>  <smiles>  (345) 
[H]OC12C([H])([H])C3([H])C4([H])C5(C([H])([H])C([H])([H])[H])C([H])([H])C([H])([H])C(=O)C1([H])C([H])([H])C([H])([H])C42C([H])([N+]([H])([H])c1c([H])c([H])c(N([H])[H])c([H])c1[H])C35[H]

$$$$
112:1:1
     RDKit          3D

 55 60  0  0  1  0  0  0  0  0999 V2000
    5.2170   -0.7238    6.0513 C   0  0  0  0  0  0  0  0  0  0  0  0
    5.1814   -0.6001    4.5228 C   0  0  0  0  0  0  0  0  0  0  0  0
    4.2909   -1.6260    3.7997 C   0  0  1  0  0  0  0  0  0  0  0  0
    4.8003   -3.1518    4.1036 C   0  0  0  0  0  0  0  0  0  0  0  0
    4.7834   -4.3430    2.9332 C   0  0  0  0  0  0  0  0  0  0  0  0
    5.1950   -4.2735    1.3612 C   0  0  0  0  0  0  0  0  0  0  0  0
    5.9555   -5.1536    0.9674 O   0  0  0  0  0  0  0  0  0  0  0  0
    4.7353   -3.1925    0.2317 C   0  0  2  0  0  0  0  0  0  0  0  0
    5.8452   -2.1376   -0.1136 C   0  0  0  0  0  0  0  0  0  0  0  0
    5.3998   -0.7154    0.4104 C   0  0  0  0  0  0  0  0  0  0  0  0
    4.0900   -0.9850    1.1605 C   0  0  1  0  0  0  0  0  0  0  0  0
    3.2148   -0.0254    1.9858 C   0  0  1  0  0  0  0  0  0  0  0  0
    2.0156    0.4336    1.3070 N   0  0  0  0  0  0  0  0  0  0  0  0
    1.1153    1.3364    2.1214 C   0  0  0  0  0  0  0  0  0  0  0  0
    1.6652    2.3757    2.9158 C   0  0  0  0  0  0  0  0  0  0  0  0
    0.8119    3.1802    3.6982 C   0  0  0  0  0  0  0  0  0  0  0  0
   -0.5854    2.9642    3.6822 C   0  0  0  0  0  0  0  0  0  0  0  0
   -1.4175    3.7774    4.4390 N   0  0  0  0  0  0  0  0  0  0  0  0
   -1.1317    1.9288    2.8902 C   0  0  0  0  0  0  0  0  0  0  0  0
   -0.2784    1.1093    2.1070 C   0  0  0  0  0  0  0  0  0  0  0  0
    2.9640   -1.0279    3.1390 C   0  0  1  0  0  0  0  0  0  0  0  0
    2.9207   -2.4117    2.5517 C   0  0  1  0  0  0  0  0  0  0  0  0
    2.3639   -2.7441    1.2204 C   0  0  0  0  0  0  0  0  0  0  0  0
    3.4979   -2.2028    0.3811 C   0  0  2  0  0  0  0  0  0  0  0  0
    3.0265   -1.8454   -0.9036 O   0  0  0  0  0  0  0  0  0  0  0  0
    4.3663   -1.7638    2.3461 C   0  0  2  0  0  0  0  0  0  0  0  0
    5.8658    0.0358    6.4839 H   0  0  0  0  0  0  0  0  0  0  0  0
    5.6060   -1.6888    6.3682 H   0  0  0  0  0  0  0  0  0  0  0  0
    4.2268   -0.5939    6.4822 H   0  0  0  0  0  0  0  0  0  0  0  0
    4.8552    0.4181    4.2930 H   0  0  0  0  0  0  0  0  0  0  0  0
    6.1935   -0.6483    4.1288 H   0  0  0  0  0  0  0  0  0  0  0  0
    5.8198   -3.1202    4.4798 H   0  0  0  0  0  0  0  0  0  0  0  0
    4.2397   -3.5391    4.9571 H   0  0  0  0  0  0  0  0  0  0  0  0
    5.4182   -5.1358    3.3351 H   0  0  0  0  0  0  0  0  0  0  0  0
    3.7994   -4.8144    2.9397 H   0  0  0  0  0  0  0  0  0  0  0  0
    4.5446   -3.8041   -0.6536 H   0  0  0  0  0  0  0  0  0  0  0  0
    6.8081   -2.4306    0.3080 H   0  0  0  0  0  0  0  0  0  0  0  0
    5.9858   -2.1030   -1.1948 H   0  0  0  0  0  0  0  0  0  0  0  0
    6.1714   -0.2502    1.0229 H   0  0  0  0  0  0  0  0  0  0  0  0
    5.1831   -0.0723   -0.4376 H   0  0  0  0  0  0  0  0  0  0  0  0
    3.8406    0.7961    2.3185 H   0  0  0  0  0  0  0  0  0  0  0  0
    2.2830    0.9240    0.4722 H   0  0  0  0  0  0  0  0  0  0  0  0
    2.7241    2.5719    2.9346 H   0  0  0  0  0  0  0  0  0  0  0  0
    1.2402    3.9699    4.2944 H   0  0  0  0  0  0  0  0  0  0  0  0
   -2.4149    3.6499    4.4350 H   0  0  0  0  0  0  0  0  0  0  0  0
   -1.0410    4.5083    5.0143 H   0  0  0  0  0  0  0  0  0  0  0  0
   -2.1959    1.7597    2.8592 H   0  0  0  0  0  0  0  0  0  0  0  0
   -0.6978    0.3322    1.4900 H   0  0  0  0  0  0  0  0  0  0  0  0
    2.1644   -0.8180    3.8594 H   0  0  0  0  0  0  0  0  0  0  0  0
    2.5820   -3.0969    3.3363 H   0  0  0  0  0  0  0  0  0  0  0  0
    2.2122   -3.8073    1.0461 H   0  0  0  0  0  0  0  0  0  0  0  0
    1.4408   -2.2009    1.0440 H   0  0  0  0  0  0  0  0  0  0  0  0
    2.1191   -1.4638   -0.8329 H   0  0  0  0  0  0  0  0  0  0  0  0
    5.4015   -2.1013    2.3167 H   0  0  0  0  0  0  0  0  0  0  0  0
    1.4720   -0.3567    0.9897 H   0  0  0  0  0  0  0  0  0  0  0  0
  1  2  1  0
  1 27  1  0
  1 28  1  0
  1 29  1  0
  3  2  1  1
  2 30  1  0
  2 31  1  0
  3 21  1  0
  3 26  1  0
  3  4  1  0
  4  5  1  0
  4 32  1  0
  4 33  1  0
  5  6  1  0
  5 34  1  0
  5 35  1  0
  6  7  2  0
  6  8  1  0
  8 24  1  0
  8  9  1  0
  8 36  1  6
  9 10  1  0
  9 37  1  0
  9 38  1  0
 11 10  1  6
 10 39  1  0
 10 40  1  0
 11 24  1  0
 11 26  1  0
 11 12  1  0
 12 13  1  0
 12 21  1  0
 12 41  1  1
 13 14  1  0
 13 42  1  0
 13 55  1  0
 14 20  1  0
 14 15  2  0
 15 16  1  0
 15 43  1  0
 16 17  2  0
 16 44  1  0
 17 18  1  0
 17 19  1  0
 18 45  1  0
 18 46  1  0
 19 20  2  0
 19 47  1  0
 20 48  1  0
 21 22  1  0
 21 49  1  1
 22 23  1  0
 22 26  1  0
 22 50  1  1
 23 24  1  0
 23 51  1  0
 23 52  1  0
 24 25  1  6
 25 53  1  0
 26 54  1  1
M  CHG  1  13   1
M  END
>  <i_m_ct_stereo_status>  (346) 
1

>  <s_m_source_file>  (346) 
/var/tmp/pbs.5076255.sched01/tmppy4q9rbr/123plv7d954.sdf

>  <i_m_source_file_index>  (346) 
35

>  <i_lp_mmshare_version>  (346) 
48012

>  <i_f3d_flags>  (346) 
0

>  <s_epik_input>  (346) 
W0NIMl0xW0NIMl1bQ0BIXShbQ0BAXTIoW0NAQF0xMzQpW09IXSlDKD1PKVtDSDJdW0NIMl1bQ0BdNShbQ0gyXVtDSDNdKVtDQEhdKFtDSF0oW0NIMl0yKVtDSF00NSlbQ0BASF0zW05IXWM2W2NIXVtjSF1jKFtOSDJdKVtjSF1bY0hdNg==

>  <s_epik_cmdline>  (346) 
J2VwaWtfcHl0aG9uJywgJy1waHQnLCAnMi4wJywgJy1waCcsICc3LjAnLCAnLXRuJywgJzgnLCAnLW1hJywgJzIwMCcsICctaW1hZScsICc8aW5maWxlLm1hZT4nLCAnLW9tYWUnLCAnPG91dGZpbGUubWFlPic=

>  <r_lp_tautomer_probability>  (346) 
1

>  <r_epik_Ionization_Penalty>  (346) 
0.667655

>  <r_epik_Ionization_Penalty_Charging>  (346) 
0.667635

>  <r_epik_Ionization_Penalty_Neutral>  (346) 
2.03978e-05

>  <r_epik_State_Penalty>  (346) 
0.859908

>  <r_epik_Charging_Adjusted_Penalty>  (346) 
1.52754

>  <i_epik_Tot_Q>  (346) 
1

>  <i_epik_Tot_abs_Q>  (346) 
1

>  <s_lp_Force_Field>  (346) 
OPLS3e

>  <r_lp_Energy>  (346) 
230.714

>  <b_lp_Chiralities_Consistent>  (346) 
1

>  <s_lp_Variant>  (346) 
112:0-2

>  <s_i_glide_gridfile>  (346) 
pfpi4k_grid

>  <i_i_glide_lignum>  (346) 
35

>  <i_i_glide_rotatable_bonds>  (346) 
4

>  <r_i_docking_score>  (346) 
-3.87981

>  <r_i_glide_ligand_efficiency>  (346) 
-0.149224

>  <r_i_glide_ligand_efficiency_sa>  (346) 
-0.442074

>  <r_i_glide_ligand_efficiency_ln>  (346) 
-0.911162

>  <r_i_glide_gscore>  (346) 
-3.87981

>  <r_i_glide_lipo>  (346) 
-0.349011

>  <r_i_glide_hbond>  (346) 
-0.277393

>  <r_i_glide_metal>  (346) 
-0

>  <r_i_glide_rewards>  (346) 
-1.05086

>  <r_i_glide_evdw>  (346) 
-17.6206

>  <r_i_glide_ecoul>  (346) 
-10.1008

>  <r_i_glide_erotb>  (346) 
0.305688

>  <r_i_glide_esite>  (346) 
-0.112097

>  <r_i_glide_emodel>  (346) 
-35.0681

>  <r_i_glide_energy>  (346) 
-27.7214

>  <r_i_glide_einternal>  (346) 
1.64888

>  <r_i_glide_intrahb_reward>  (346) 
-0

>  <i_i_glide_confnum>  (346) 
2

>  <i_i_glide_posenum>  (346) 
20

>  <r_i_glide_eff_state_penalty>  (346) 
0

>  <ligand_id>  (346) 
112

>  <original_smiles>  (346) 
CCC12CCC(=O)C3CCC45C(Nc6ccc(N)cc6)C1C(CC34O)C25

>  <smiles>  (346) 
[H]OC12C([H])([H])C3([H])C4([H])C5(C([H])([H])C([H])([H])[H])C([H])([H])C([H])([H])C(=O)C1([H])C([H])([H])C([H])([H])C42C([H])([N+]([H])([H])c1c([H])c([H])c(N([H])[H])c([H])c1[H])C35[H]

$$$$
112:1:2
     RDKit          3D

 55 60  0  0  1  0  0  0  0  0999 V2000
    2.5642    3.3143    3.9650 C   0  0  0  0  0  0  0  0  0  0  0  0
    2.2153    2.6773    2.6091 C   0  0  0  0  0  0  0  0  0  0  0  0
    1.3550    1.4061    2.6943 C   0  0  1  0  0  0  0  0  0  0  0  0
   -0.1856    1.7807    3.1290 C   0  0  0  0  0  0  0  0  0  0  0  0
   -1.0685    0.7960    4.1480 C   0  0  0  0  0  0  0  0  0  0  0  0
   -0.6089   -0.0081    5.4892 C   0  0  0  0  0  0  0  0  0  0  0  0
   -1.3446    0.1212    6.4693 O   0  0  0  0  0  0  0  0  0  0  0  0
    0.6935   -0.9828    5.7102 C   0  0  2  0  0  0  0  0  0  0  0  0
    1.8640   -0.3053    6.5152 C   0  0  0  0  0  0  0  0  0  0  0  0
    3.1187   -0.1066    5.5734 C   0  0  0  0  0  0  0  0  0  0  0  0
    2.5943   -0.4934    4.1772 C   0  0  1  0  0  0  0  0  0  0  0  0
    3.2721   -0.3934    2.7930 C   0  0  1  0  0  0  0  0  0  0  0  0
    3.8379   -1.6691    2.3112 N   0  0  0  0  0  0  0  0  0  0  0  0
    3.8956   -1.8340    0.8104 C   0  0  0  0  0  0  0  0  0  0  0  0
    4.6133   -0.9129    0.0324 C   0  0  0  0  0  0  0  0  0  0  0  0
    4.6293   -1.0587   -1.3748 C   0  0  0  0  0  0  0  0  0  0  0  0
    3.9410   -2.1350   -1.9919 C   0  0  0  0  0  0  0  0  0  0  0  0
    3.9801   -2.2825   -3.3648 N   0  0  0  0  0  0  0  0  0  0  0  0
    3.2247   -3.0538   -1.1892 C   0  0  0  0  0  0  0  0  0  0  0  0
    3.1984   -2.9095    0.2162 C   0  0  0  0  0  0  0  0  0  0  0  0
    1.9917    0.1012    2.0403 C   0  0  1  0  0  0  0  0  0  0  0  0
    0.8106   -0.5355    2.6927 C   0  0  1  0  0  0  0  0  0  0  0  0
    0.7809   -1.9133    3.2693 C   0  0  0  0  0  0  0  0  0  0  0  0
    1.5662   -1.6185    4.5292 C   0  0  2  0  0  0  0  0  0  0  0  0
    2.1865   -2.8046    4.9938 O   0  0  0  0  0  0  0  0  0  0  0  0
    1.5633    0.4273    3.7352 C   0  0  2  0  0  0  0  0  0  0  0  0
    3.1878    4.2025    3.8515 H   0  0  0  0  0  0  0  0  0  0  0  0
    3.1394    2.6176    4.5590 H   0  0  0  0  0  0  0  0  0  0  0  0
    1.6701    3.5891    4.5298 H   0  0  0  0  0  0  0  0  0  0  0  0
    1.7573    3.4216    1.9671 H   0  0  0  0  0  0  0  0  0  0  0  0
    3.1411    2.4318    2.1025 H   0  0  0  0  0  0  0  0  0  0  0  0
   -0.2038    2.7759    3.5669 H   0  0  0  0  0  0  0  0  0  0  0  0
   -0.7734    1.9130    2.2189 H   0  0  0  0  0  0  0  0  0  0  0  0
   -1.8960    1.4216    4.4828 H   0  0  0  0  0  0  0  0  0  0  0  0
   -1.5679    0.0425    3.5409 H   0  0  0  0  0  0  0  0  0  0  0  0
    0.3008   -1.8106    6.3004 H   0  0  0  0  0  0  0  0  0  0  0  0
    1.5386    0.6426    6.9497 H   0  0  0  0  0  0  0  0  0  0  0  0
    2.1498   -0.9476    7.3479 H   0  0  0  0  0  0  0  0  0  0  0  0
    3.5114    0.9024    5.6758 H   0  0  0  0  0  0  0  0  0  0  0  0
    3.9226   -0.7830    5.8740 H   0  0  0  0  0  0  0  0  0  0  0  0
    4.0425    0.3808    2.7823 H   0  0  0  0  0  0  0  0  0  0  0  0
    4.7587   -1.7749    2.7089 H   0  0  0  0  0  0  0  0  0  0  0  0
    5.1281   -0.0796    0.4873 H   0  0  0  0  0  0  0  0  0  0  0  0
    5.1562   -0.3418   -1.9766 H   0  0  0  0  0  0  0  0  0  0  0  0
    3.4674   -3.0234   -3.8254 H   0  0  0  0  0  0  0  0  0  0  0  0
    4.4418   -1.6136   -3.9595 H   0  0  0  0  0  0  0  0  0  0  0  0
    2.6829   -3.8650   -1.6565 H   0  0  0  0  0  0  0  0  0  0  0  0
    2.6389   -3.6091    0.8144 H   0  0  0  0  0  0  0  0  0  0  0  0
    1.9669    0.0929    0.9495 H   0  0  0  0  0  0  0  0  0  0  0  0
   -0.0505   -0.3055    2.0511 H   0  0  0  0  0  0  0  0  0  0  0  0
   -0.2109   -2.2916    3.5097 H   0  0  0  0  0  0  0  0  0  0  0  0
    1.2807   -2.6285    2.6156 H   0  0  0  0  0  0  0  0  0  0  0  0
    2.8181   -3.1014    4.3621 H   0  0  0  0  0  0  0  0  0  0  0  0
    1.2909    1.0589    4.5708 H   0  0  0  0  0  0  0  0  0  0  0  0
    3.2578   -2.4029    2.6756 H   0  0  0  0  0  0  0  0  0  0  0  0
  1  2  1  0
  1 27  1  0
  1 28  1  0
  1 29  1  0
  3  2  1  1
  2 30  1  0
  2 31  1  0
  3 21  1  0
  3 26  1  0
  3  4  1  0
  4  5  1  0
  4 32  1  0
  4 33  1  0
  5  6  1  0
  5 34  1  0
  5 35  1  0
  6  7  2  0
  6  8  1  0
  8 24  1  0
  8  9  1  0
  8 36  1  1
  9 10  1  0
  9 37  1  0
  9 38  1  0
 11 10  1  1
 10 39  1  0
 10 40  1  0
 11 24  1  0
 11 26  1  0
 11 12  1  0
 12 13  1  0
 12 21  1  0
 12 41  1  1
 13 14  1  0
 13 42  1  0
 13 55  1  0
 14 20  1  0
 14 15  2  0
 15 16  1  0
 15 43  1  0
 16 17  2  0
 16 44  1  0
 17 18  1  0
 17 19  1  0
 18 45  1  0
 18 46  1  0
 19 20  2  0
 19 47  1  0
 20 48  1  0
 21 22  1  0
 21 49  1  6
 22 23  1  0
 22 26  1  0
 22 50  1  6
 23 24  1  0
 23 51  1  0
 23 52  1  0
 24 25  1  1
 25 53  1  0
 26 54  1  1
M  CHG  1  13   1
M  END
>  <i_m_ct_stereo_status>  (347) 
1

>  <s_m_source_file>  (347) 
/var/tmp/pbs.5076255.sched01/tmppy4q9rbr/123plv7d954.sdf

>  <i_m_source_file_index>  (347) 
35

>  <i_lp_mmshare_version>  (347) 
48012

>  <i_f3d_flags>  (347) 
0

>  <s_epik_input>  (347) 
W0NIMl0xW0NIMl1bQ0BIXShbQ0BAXTIoW0NAQF0xMzQpW09IXSlDKD1PKVtDSDJdW0NIMl1bQ0BdNShbQ0gyXVtDSDNdKVtDQEhdKFtDSF0oW0NIMl0yKVtDSF00NSlbQ0BASF0zW05IXWM2W2NIXVtjSF1jKFtOSDJdKVtjSF1bY0hdNg==

>  <s_epik_cmdline>  (347) 
J2VwaWtfcHl0aG9uJywgJy1waHQnLCAnMi4wJywgJy1waCcsICc3LjAnLCAnLXRuJywgJzgnLCAnLW1hJywgJzIwMCcsICctaW1hZScsICc8aW5maWxlLm1hZT4nLCAnLW9tYWUnLCAnPG91dGZpbGUubWFlPic=

>  <r_lp_tautomer_probability>  (347) 
1

>  <r_epik_Ionization_Penalty>  (347) 
0.667655

>  <r_epik_Ionization_Penalty_Charging>  (347) 
0.667635

>  <r_epik_Ionization_Penalty_Neutral>  (347) 
2.03978e-05

>  <r_epik_State_Penalty>  (347) 
0.859908

>  <r_epik_Charging_Adjusted_Penalty>  (347) 
1.52754

>  <i_epik_Tot_Q>  (347) 
1

>  <i_epik_Tot_abs_Q>  (347) 
1

>  <s_lp_Force_Field>  (347) 
OPLS3e

>  <r_lp_Energy>  (347) 
230.714

>  <b_lp_Chiralities_Consistent>  (347) 
1

>  <s_lp_Variant>  (347) 
112:0-2

>  <s_i_glide_gridfile>  (347) 
pfpi4k_grid

>  <i_i_glide_lignum>  (347) 
35

>  <i_i_glide_rotatable_bonds>  (347) 
4

>  <r_i_docking_score>  (347) 
-3.05819

>  <r_i_glide_ligand_efficiency>  (347) 
-0.117623

>  <r_i_glide_ligand_efficiency_sa>  (347) 
-0.348456

>  <r_i_glide_ligand_efficiency_ln>  (347) 
-0.718205

>  <r_i_glide_gscore>  (347) 
-3.05819

>  <r_i_glide_lipo>  (347) 
-0.0087376

>  <r_i_glide_hbond>  (347) 
-0.154926

>  <r_i_glide_metal>  (347) 
-0

>  <r_i_glide_rewards>  (347) 
-0.999015

>  <r_i_glide_evdw>  (347) 
-23.2273

>  <r_i_glide_ecoul>  (347) 
-6.74617

>  <r_i_glide_erotb>  (347) 
0.305688

>  <r_i_glide_esite>  (347) 
-0.0279068

>  <r_i_glide_emodel>  (347) 
-34.5079

>  <r_i_glide_energy>  (347) 
-29.9734

>  <r_i_glide_einternal>  (347) 
3.51454

>  <r_i_glide_intrahb_reward>  (347) 
-0

>  <i_i_glide_confnum>  (347) 
2

>  <i_i_glide_posenum>  (347) 
3

>  <r_i_glide_eff_state_penalty>  (347) 
0

>  <ligand_id>  (347) 
112

>  <original_smiles>  (347) 
CCC12CCC(=O)C3CCC45C(Nc6ccc(N)cc6)C1C(CC34O)C25

>  <smiles>  (347) 
[H]OC12C([H])([H])C3([H])C4([H])C5(C([H])([H])C([H])([H])[H])C([H])([H])C([H])([H])C(=O)C1([H])C([H])([H])C([H])([H])C42C([H])([N+]([H])([H])c1c([H])c([H])c(N([H])[H])c([H])c1[H])C35[H]

$$$$
112:2:0
     RDKit          3D

 55 60  0  0  1  0  0  0  0  0999 V2000
    8.3759   -6.2064    4.3406 C   0  0  0  0  0  0  0  0  0  0  0  0
    6.9504   -5.8113    3.9039 C   0  0  0  0  0  0  0  0  0  0  0  0
    6.7010   -5.8021    2.3795 C   0  0  1  0  0  0  0  0  0  0  0  0
    7.8883   -4.9777    1.5633 C   0  0  0  0  0  0  0  0  0  0  0  0
    7.5436   -4.0061    0.2613 C   0  0  0  0  0  0  0  0  0  0  0  0
    6.2944   -2.9955   -0.0052 C   0  0  0  0  0  0  0  0  0  0  0  0
    6.6052   -1.8767   -0.4223 O   0  0  0  0  0  0  0  0  0  0  0  0
    4.6891   -3.2619    0.1828 C   0  0  2  0  0  0  0  0  0  0  0  0
    4.0918   -2.5968    1.4786 C   0  0  0  0  0  0  0  0  0  0  0  0
    3.6689   -3.7159    2.5041 C   0  0  0  0  0  0  0  0  0  0  0  0
    4.1666   -5.0080    1.8494 C   0  0  1  0  0  0  0  0  0  0  0  0
    4.1544   -6.4131    2.4005 C   0  0  1  0  0  0  0  0  0  0  0  0
    3.0832   -7.2690    1.9046 N   0  0  0  0  0  0  0  0  0  0  0  0
    2.4806   -8.1990    2.7632 C   0  0  0  0  0  0  0  0  0  0  0  0
    1.8307   -9.3117    2.1761 C   0  0  0  0  0  0  0  0  0  0  0  0
    1.1895  -10.2629    2.9931 C   0  0  0  0  0  0  0  0  0  0  0  0
    1.2454  -10.1170    4.3828 C   0  0  0  0  0  0  0  0  0  0  0  0
    0.6030  -11.1320    5.2693 N   0  0  0  0  0  0  0  0  0  0  0  0
    1.8796   -9.0257    4.9882 C   0  0  0  0  0  0  0  0  0  0  0  0
    2.4808   -8.0585    4.1673 C   0  0  0  0  0  0  0  0  0  0  0  0
    5.5687   -6.8061    1.8749 C   0  0  1  0  0  0  0  0  0  0  0  0
    5.7914   -6.0631    0.6070 C   0  0  1  0  0  0  0  0  0  0  0  0
    4.7430   -5.8050   -0.4109 C   0  0  0  0  0  0  0  0  0  0  0  0
    4.0145   -4.7007    0.3312 C   0  0  2  0  0  0  0  0  0  0  0  0
    2.6589   -4.6749   -0.0696 O   0  0  0  0  0  0  0  0  0  0  0  0
    5.6255   -5.0251    1.8242 C   0  0  2  0  0  0  0  0  0  0  0  0
    8.4674   -6.1701    5.4266 H   0  0  0  0  0  0  0  0  0  0  0  0
    9.1411   -5.5350    3.9544 H   0  0  0  0  0  0  0  0  0  0  0  0
    8.6281   -7.2159    4.0218 H   0  0  0  0  0  0  0  0  0  0  0  0
    6.2779   -6.5218    4.3731 H   0  0  0  0  0  0  0  0  0  0  0  0
    6.6518   -4.8621    4.3420 H   0  0  0  0  0  0  0  0  0  0  0  0
    8.4649   -4.3373    2.2116 H   0  0  0  0  0  0  0  0  0  0  0  0
    8.6391   -5.7054    1.2502 H   0  0  0  0  0  0  0  0  0  0  0  0
    8.4179   -3.3797    0.1560 H   0  0  0  0  0  0  0  0  0  0  0  0
    7.5802   -4.6309   -0.6177 H   0  0  0  0  0  0  0  0  0  0  0  0
    4.2395   -2.7880   -0.6926 H   0  0  0  0  0  0  0  0  0  0  0  0
    4.8062   -1.9024    1.9274 H   0  0  0  0  0  0  0  0  0  0  0  0
    3.2109   -2.0182    1.2071 H   0  0  0  0  0  0  0  0  0  0  0  0
    4.0958   -3.5533    3.4962 H   0  0  0  0  0  0  0  0  0  0  0  0
    2.5846   -3.7461    2.5985 H   0  0  0  0  0  0  0  0  0  0  0  0
    4.1984   -6.3499    3.4852 H   0  0  0  0  0  0  0  0  0  0  0  0
    3.0533   -7.4306    0.9037 H   0  0  0  0  0  0  0  0  0  0  0  0
    1.8274   -9.4291    1.1000 H   0  0  0  0  0  0  0  0  0  0  0  0
    0.6669  -11.1177    2.5473 H   0  0  0  0  0  0  0  0  0  0  0  0
    0.9166  -11.0312    6.2446 H   0  0  0  0  0  0  0  0  0  0  0  0
    0.8780  -12.0742    5.0098 H   0  0  0  0  0  0  0  0  0  0  0  0
    1.9182   -8.9117    6.0641 H   0  0  0  0  0  0  0  0  0  0  0  0
    2.9250   -7.2161    4.6889 H   0  0  0  0  0  0  0  0  0  0  0  0
    5.8435   -7.8472    1.8660 H   0  0  0  0  0  0  0  0  0  0  0  0
    6.7270   -6.4383    0.1696 H   0  0  0  0  0  0  0  0  0  0  0  0
    5.1000   -5.4595   -1.3867 H   0  0  0  0  0  0  0  0  0  0  0  0
    4.1317   -6.6943   -0.5469 H   0  0  0  0  0  0  0  0  0  0  0  0
    2.6269   -4.7815   -1.0153 H   0  0  0  0  0  0  0  0  0  0  0  0
    5.9920   -4.0519    2.1114 H   0  0  0  0  0  0  0  0  0  0  0  0
   -0.4004  -11.0604    5.2608 H   0  0  0  0  0  0  0  0  0  0  0  0
  1  2  1  0
  1 27  1  0
  1 28  1  0
  1 29  1  0
  3  2  1  1
  2 30  1  0
  2 31  1  0
  3 21  1  0
  3 26  1  0
  3  4  1  0
  4  5  1  0
  4 32  1  0
  4 33  1  0
  5  6  1  0
  5 34  1  0
  5 35  1  0
  6  7  2  0
  6  8  1  0
  8 24  1  0
  8  9  1  0
  8 36  1  6
  9 10  1  0
  9 37  1  0
  9 38  1  0
 11 10  1  1
 10 39  1  0
 10 40  1  0
 11 24  1  0
 11 26  1  0
 11 12  1  0
 12 13  1  0
 12 21  1  0
 12 41  1  1
 13 14  1  0
 13 42  1  0
 14 20  1  0
 14 15  2  0
 15 16  1  0
 15 43  1  0
 16 17  2  0
 16 44  1  0
 17 18  1  0
 17 19  1  0
 18 45  1  0
 18 46  1  0
 18 55  1  0
 19 20  2  0
 19 47  1  0
 20 48  1  0
 21 22  1  0
 21 49  1  6
 22 23  1  0
 22 26  1  0
 22 50  1  6
 23 24  1  0
 23 51  1  0
 23 52  1  0
 24 25  1  6
 25 53  1  0
 26 54  1  6
M  CHG  1  18   1
M  END
>  <i_m_ct_stereo_status>  (348) 
1

>  <s_m_source_file>  (348) 
/var/tmp/pbs.5076255.sched01/tmppy4q9rbr/123plv7d954.sdf

>  <i_m_source_file_index>  (348) 
36

>  <i_lp_mmshare_version>  (348) 
48012

>  <i_f3d_flags>  (348) 
0

>  <s_epik_input>  (348) 
W0NIMl0xW0NIMl1bQ0BIXShbQ0BAXTIoW0NAQF0xMzQpW09IXSlDKD1PKVtDSDJdW0NIMl1bQ0BdNShbQ0gyXVtDSDNdKVtDQEhdKFtDSF0oW0NIMl0yKVtDSF00NSlbQ0BASF0zW05IXWM2W2NIXVtjSF1jKFtOSDJdKVtjSF1bY0hdNg==

>  <s_epik_cmdline>  (348) 
J2VwaWtfcHl0aG9uJywgJy1waHQnLCAnMi4wJywgJy1waCcsICc3LjAnLCAnLXRuJywgJzgnLCAnLW1hJywgJzIwMCcsICctaW1hZScsICc8aW5maWxlLm1hZT4nLCAnLW9tYWUnLCAnPG91dGZpbGUubWFlPic=

>  <r_epik_Ionization_Penalty>  (348) 
1.19049

>  <r_epik_Ionization_Penalty_Charging>  (348) 
1.19044

>  <r_epik_Ionization_Penalty_Neutral>  (348) 
5.78922e-05

>  <r_epik_State_Penalty>  (348) 
1.57436

>  <r_epik_Charging_Adjusted_Penalty>  (348) 
2.7648

>  <i_epik_Tot_Q>  (348) 
1

>  <i_epik_Tot_abs_Q>  (348) 
1

>  <s_lp_Force_Field>  (348) 
OPLS3e

>  <r_lp_Energy>  (348) 
233.246

>  <b_lp_Chiralities_Consistent>  (348) 
1

>  <s_lp_Variant>  (348) 
112:0-3

>  <s_i_glide_gridfile>  (348) 
pfpi4k_grid

>  <i_i_glide_lignum>  (348) 
36

>  <i_i_glide_rotatable_bonds>  (348) 
4

>  <r_i_docking_score>  (348) 
-4.75392

>  <r_i_glide_ligand_efficiency>  (348) 
-0.182843

>  <r_i_glide_ligand_efficiency_sa>  (348) 
-0.541672

>  <r_i_glide_ligand_efficiency_ln>  (348) 
-1.11644

>  <r_i_glide_gscore>  (348) 
-4.75392

>  <r_i_glide_lipo>  (348) 
-0.766607

>  <r_i_glide_hbond>  (348) 
-0.683674

>  <r_i_glide_metal>  (348) 
-0

>  <r_i_glide_rewards>  (348) 
-1.08255

>  <r_i_glide_evdw>  (348) 
-16.7646

>  <r_i_glide_ecoul>  (348) 
-10.6064

>  <r_i_glide_erotb>  (348) 
0.305688

>  <r_i_glide_esite>  (348) 
-0.0975915

>  <r_i_glide_emodel>  (348) 
-38.5725

>  <r_i_glide_energy>  (348) 
-27.371

>  <r_i_glide_einternal>  (348) 
3.58067

>  <r_i_glide_intrahb_reward>  (348) 
-0

>  <i_i_glide_confnum>  (348) 
4

>  <i_i_glide_posenum>  (348) 
4

>  <r_i_glide_eff_state_penalty>  (348) 
0

>  <ligand_id>  (348) 
112

>  <original_smiles>  (348) 
CCC12CCC(=O)C3CCC45C(Nc6ccc(N)cc6)C1C(CC34O)C25

>  <smiles>  (348) 
[H]OC12C([H])([H])C3([H])C4([H])C([H])(N([H])c5c([H])c([H])c([N+]([H])([H])[H])c([H])c5[H])C15C([H])([H])C([H])([H])C2([H])C(=O)C([H])([H])C([H])([H])C4(C([H])([H])C([H])([H])[H])C35[H]

$$$$
112:2:1
     RDKit          3D

 55 60  0  0  1  0  0  0  0  0999 V2000
    8.0164   -7.3820    4.8121 C   0  0  0  0  0  0  0  0  0  0  0  0
    7.0445   -6.2902    4.3451 C   0  0  0  0  0  0  0  0  0  0  0  0
    6.8210   -6.2495    2.8228 C   0  0  1  0  0  0  0  0  0  0  0  0
    8.1353   -5.6001    2.0634 C   0  0  0  0  0  0  0  0  0  0  0  0
    7.9852   -4.5883    0.7401 C   0  0  0  0  0  0  0  0  0  0  0  0
    6.9207   -3.3871    0.4485 C   0  0  0  0  0  0  0  0  0  0  0  0
    7.4120   -2.3280    0.0553 O   0  0  0  0  0  0  0  0  0  0  0  0
    5.2902   -3.3871    0.5927 C   0  0  2  0  0  0  0  0  0  0  0  0
    4.7816   -2.6438    1.8830 C   0  0  0  0  0  0  0  0  0  0  0  0
    4.1600   -3.6902    2.8840 C   0  0  0  0  0  0  0  0  0  0  0  0
    4.4672   -5.0369    2.2226 C   0  0  1  0  0  0  0  0  0  0  0  0
    4.1941   -6.4329    2.7644 C   0  0  1  0  0  0  0  0  0  0  0  0
    3.0065   -7.0828    2.2257 N   0  0  0  0  0  0  0  0  0  0  0  0
    2.4318   -8.1582    2.9116 C   0  0  0  0  0  0  0  0  0  0  0  0
    1.6204   -9.0679    2.1999 C   0  0  0  0  0  0  0  0  0  0  0  0
    1.0128  -10.1552    2.8556 C   0  0  0  0  0  0  0  0  0  0  0  0
    1.2358  -10.3293    4.2316 C   0  0  0  0  0  0  0  0  0  0  0  0
    0.6150  -11.4725    4.9402 N   0  0  0  0  0  0  0  0  0  0  0  0
    2.0280   -9.4351    4.9680 C   0  0  0  0  0  0  0  0  0  0  0  0
    2.6202   -8.3502    4.3077 C   0  0  0  0  0  0  0  0  0  0  0  0
    5.5479   -7.0456    2.2830 C   0  0  1  0  0  0  0  0  0  0  0  0
    5.9247   -6.3463    1.0173 C   0  0  1  0  0  0  0  0  0  0  0  0
    4.9509   -5.9073   -0.0283 C   0  0  0  0  0  0  0  0  0  0  0  0
    4.3936   -4.7047    0.7019 C   0  0  2  0  0  0  0  0  0  0  0  0
    3.0609   -4.4769    0.2776 O   0  0  0  0  0  0  0  0  0  0  0  0
    5.8948   -5.3003    2.2419 C   0  0  2  0  0  0  0  0  0  0  0  0
    8.1147   -7.3542    5.8968 H   0  0  0  0  0  0  0  0  0  0  0  0
    9.0129   -7.2465    4.3902 H   0  0  0  0  0  0  0  0  0  0  0  0
    7.6592   -8.3767    4.5486 H   0  0  0  0  0  0  0  0  0  0  0  0
    6.1015   -6.4663    4.8583 H   0  0  0  0  0  0  0  0  0  0  0  0
    7.3915   -5.3225    4.7104 H   0  0  0  0  0  0  0  0  0  0  0  0
    8.7266   -5.0589    2.7995 H   0  0  0  0  0  0  0  0  0  0  0  0
    8.7909   -6.4218    1.7708 H   0  0  0  0  0  0  0  0  0  0  0  0
    8.9579   -4.1105    0.6482 H   0  0  0  0  0  0  0  0  0  0  0  0
    7.9360   -5.2148   -0.1478 H   0  0  0  0  0  0  0  0  0  0  0  0
    4.9486   -2.8422   -0.2862 H   0  0  0  0  0  0  0  0  0  0  0  0
    5.5864   -2.0798    2.3590 H   0  0  0  0  0  0  0  0  0  0  0  0
    4.0146   -1.9246    1.6045 H   0  0  0  0  0  0  0  0  0  0  0  0
    4.5835   -3.6048    3.8881 H   0  0  0  0  0  0  0  0  0  0  0  0
    3.0813   -3.5526    2.9630 H   0  0  0  0  0  0  0  0  0  0  0  0
    4.1673   -6.3524    3.8470 H   0  0  0  0  0  0  0  0  0  0  0  0
    2.8749   -7.0092    1.2223 H   0  0  0  0  0  0  0  0  0  0  0  0
    1.4592   -8.9267    1.1408 H   0  0  0  0  0  0  0  0  0  0  0  0
    0.3841  -10.8445    2.3011 H   0  0  0  0  0  0  0  0  0  0  0  0
    1.0019  -11.5847    5.8725 H   0  0  0  0  0  0  0  0  0  0  0  0
    0.7733  -12.3379    4.4485 H   0  0  0  0  0  0  0  0  0  0  0  0
    2.1780   -9.5694    6.0268 H   0  0  0  0  0  0  0  0  0  0  0  0
    3.2001   -7.6876    4.9245 H   0  0  0  0  0  0  0  0  0  0  0  0
    5.6480   -8.1301    2.2644 H   0  0  0  0  0  0  0  0  0  0  0  0
    6.7939   -6.8601    0.5943 H   0  0  0  0  0  0  0  0  0  0  0  0
    5.4044   -5.6287   -0.9824 H   0  0  0  0  0  0  0  0  0  0  0  0
    4.1958   -6.6771   -0.2075 H   0  0  0  0  0  0  0  0  0  0  0  0
    3.0584   -4.3844   -0.6649 H   0  0  0  0  0  0  0  0  0  0  0  0
    6.3922   -4.3847    2.5372 H   0  0  0  0  0  0  0  0  0  0  0  0
   -0.3921  -11.3233    5.0451 H   0  0  0  0  0  0  0  0  0  0  0  0
  1  2  1  0
  1 27  1  0
  1 28  1  0
  1 29  1  0
  3  2  1  1
  2 30  1  0
  2 31  1  0
  3 21  1  0
  3 26  1  0
  3  4  1  0
  4  5  1  0
  4 32  1  0
  4 33  1  0
  5  6  1  0
  5 34  1  0
  5 35  1  0
  6  7  2  0
  6  8  1  0
  8 24  1  0
  8  9  1  0
  8 36  1  6
  9 10  1  0
  9 37  1  0
  9 38  1  0
 11 10  1  1
 10 39  1  0
 10 40  1  0
 11 24  1  0
 11 26  1  0
 11 12  1  0
 12 13  1  0
 12 21  1  0
 12 41  1  1
 13 14  1  0
 13 42  1  0
 14 20  1  0
 14 15  2  0
 15 16  1  0
 15 43  1  0
 16 17  2  0
 16 44  1  0
 17 18  1  0
 17 19  1  0
 18 45  1  0
 18 46  1  0
 18 55  1  0
 19 20  2  0
 19 47  1  0
 20 48  1  0
 21 22  1  0
 21 49  1  6
 22 23  1  0
 22 26  1  0
 22 50  1  6
 23 24  1  0
 23 51  1  0
 23 52  1  0
 24 25  1  6
 25 53  1  0
 26 54  1  6
M  CHG  1  18   1
M  END
>  <i_m_ct_stereo_status>  (349) 
1

>  <s_m_source_file>  (349) 
/var/tmp/pbs.5076255.sched01/tmppy4q9rbr/123plv7d954.sdf

>  <i_m_source_file_index>  (349) 
36

>  <i_lp_mmshare_version>  (349) 
48012

>  <i_f3d_flags>  (349) 
0

>  <s_epik_input>  (349) 
W0NIMl0xW0NIMl1bQ0BIXShbQ0BAXTIoW0NAQF0xMzQpW09IXSlDKD1PKVtDSDJdW0NIMl1bQ0BdNShbQ0gyXVtDSDNdKVtDQEhdKFtDSF0oW0NIMl0yKVtDSF00NSlbQ0BASF0zW05IXWM2W2NIXVtjSF1jKFtOSDJdKVtjSF1bY0hdNg==

>  <s_epik_cmdline>  (349) 
J2VwaWtfcHl0aG9uJywgJy1waHQnLCAnMi4wJywgJy1waCcsICc3LjAnLCAnLXRuJywgJzgnLCAnLW1hJywgJzIwMCcsICctaW1hZScsICc8aW5maWxlLm1hZT4nLCAnLW9tYWUnLCAnPG91dGZpbGUubWFlPic=

>  <r_epik_Ionization_Penalty>  (349) 
1.19049

>  <r_epik_Ionization_Penalty_Charging>  (349) 
1.19044

>  <r_epik_Ionization_Penalty_Neutral>  (349) 
5.78922e-05

>  <r_epik_State_Penalty>  (349) 
1.57436

>  <r_epik_Charging_Adjusted_Penalty>  (349) 
2.7648

>  <i_epik_Tot_Q>  (349) 
1

>  <i_epik_Tot_abs_Q>  (349) 
1

>  <s_lp_Force_Field>  (349) 
OPLS3e

>  <r_lp_Energy>  (349) 
233.246

>  <b_lp_Chiralities_Consistent>  (349) 
1

>  <s_lp_Variant>  (349) 
112:0-3

>  <s_i_glide_gridfile>  (349) 
pfpi4k_grid

>  <i_i_glide_lignum>  (349) 
36

>  <i_i_glide_rotatable_bonds>  (349) 
4

>  <r_i_docking_score>  (349) 
-4.19446

>  <r_i_glide_ligand_efficiency>  (349) 
-0.161326

>  <r_i_glide_ligand_efficiency_sa>  (349) 
-0.477926

>  <r_i_glide_ligand_efficiency_ln>  (349) 
-0.985056

>  <r_i_glide_gscore>  (349) 
-4.19446

>  <r_i_glide_lipo>  (349) 
-0.64485

>  <r_i_glide_hbond>  (349) 
-0.4

>  <r_i_glide_metal>  (349) 
-0

>  <r_i_glide_rewards>  (349) 
-1.16126

>  <r_i_glide_evdw>  (349) 
-19.6574

>  <r_i_glide_ecoul>  (349) 
-8.29594

>  <r_i_glide_erotb>  (349) 
0.305688

>  <r_i_glide_esite>  (349) 
-0.066781

>  <r_i_glide_emodel>  (349) 
-38.9077

>  <r_i_glide_energy>  (349) 
-27.9534

>  <r_i_glide_einternal>  (349) 
1.69809

>  <r_i_glide_intrahb_reward>  (349) 
-0

>  <i_i_glide_confnum>  (349) 
4

>  <i_i_glide_posenum>  (349) 
23

>  <r_i_glide_eff_state_penalty>  (349) 
0

>  <ligand_id>  (349) 
112

>  <original_smiles>  (349) 
CCC12CCC(=O)C3CCC45C(Nc6ccc(N)cc6)C1C(CC34O)C25

>  <smiles>  (349) 
[H]OC12C([H])([H])C3([H])C4([H])C([H])(N([H])c5c([H])c([H])c([N+]([H])([H])[H])c([H])c5[H])C15C([H])([H])C([H])([H])C2([H])C(=O)C([H])([H])C([H])([H])C4(C([H])([H])C([H])([H])[H])C35[H]

$$$$
112:2:2
     RDKit          3D

 55 60  0  0  1  0  0  0  0  0999 V2000
    7.9077   -8.1048    2.9117 C   0  0  0  0  0  0  0  0  0  0  0  0
    7.3567   -6.6827    3.0817 C   0  0  0  0  0  0  0  0  0  0  0  0
    6.5787   -6.1677    1.8603 C   0  0  1  0  0  0  0  0  0  0  0  0
    7.5776   -5.3324    0.8455 C   0  0  0  0  0  0  0  0  0  0  0  0
    7.0709   -3.9551    0.0399 C   0  0  0  0  0  0  0  0  0  0  0  0
    6.1626   -2.7096    0.5571 C   0  0  0  0  0  0  0  0  0  0  0  0
    6.6110   -1.5914    0.3046 O   0  0  0  0  0  0  0  0  0  0  0  0
    4.7256   -2.7391    1.3427 C   0  0  2  0  0  0  0  0  0  0  0  0
    4.8455   -2.4269    2.8805 C   0  0  0  0  0  0  0  0  0  0  0  0
    4.5234   -3.7293    3.7110 C   0  0  0  0  0  0  0  0  0  0  0  0
    4.3701   -4.8127    2.6382 C   0  0  1  0  0  0  0  0  0  0  0  0
    4.1423   -6.3082    2.8288 C   0  0  1  0  0  0  0  0  0  0  0  0
    2.7677   -6.7388    2.6387 N   0  0  0  0  0  0  0  0  0  0  0  0
    2.2831   -7.9181    3.2161 C   0  0  0  0  0  0  0  0  0  0  0  0
    3.0813   -8.7820    4.0134 C   0  0  0  0  0  0  0  0  0  0  0  0
    2.5311   -9.9495    4.5638 C   0  0  0  0  0  0  0  0  0  0  0  0
    1.1862  -10.2578    4.3145 C   0  0  0  0  0  0  0  0  0  0  0  0
    0.6159  -11.5015    4.8871 N   0  0  0  0  0  0  0  0  0  0  0  0
    0.3677   -9.4099    3.5380 C   0  0  0  0  0  0  0  0  0  0  0  0
    0.9288   -8.2429    2.9902 C   0  0  0  0  0  0  0  0  0  0  0  0
    5.1053   -6.7467    1.6838 C   0  0  1  0  0  0  0  0  0  0  0  0
    5.0576   -5.6900    0.6244 C   0  0  1  0  0  0  0  0  0  0  0  0
    3.8314   -4.9342    0.2285 C   0  0  0  0  0  0  0  0  0  0  0  0
    3.7759   -4.0177    1.4347 C   0  0  2  0  0  0  0  0  0  0  0  0
    2.4410   -3.6234    1.6751 O   0  0  0  0  0  0  0  0  0  0  0  0
    5.6409   -5.0767    1.9962 C   0  0  2  0  0  0  0  0  0  0  0  0
    8.4364   -8.4126    3.8138 H   0  0  0  0  0  0  0  0  0  0  0  0
    8.6136   -8.1660    2.0816 H   0  0  0  0  0  0  0  0  0  0  0  0
    7.1130   -8.8302    2.7420 H   0  0  0  0  0  0  0  0  0  0  0  0
    6.7121   -6.6852    3.9560 H   0  0  0  0  0  0  0  0  0  0  0  0
    8.1754   -6.0080    3.3422 H   0  0  0  0  0  0  0  0  0  0  0  0
    8.4700   -5.0366    1.3958 H   0  0  0  0  0  0  0  0  0  0  0  0
    7.9592   -6.0296    0.0987 H   0  0  0  0  0  0  0  0  0  0  0  0
    7.9885   -3.4870   -0.3078 H   0  0  0  0  0  0  0  0  0  0  0  0
    6.5797   -4.2484   -0.8854 H   0  0  0  0  0  0  0  0  0  0  0  0
    4.1520   -1.9407    0.8655 H   0  0  0  0  0  0  0  0  0  0  0  0
    5.8350   -2.0394    3.1279 H   0  0  0  0  0  0  0  0  0  0  0  0
    4.1315   -1.6497    3.1469 H   0  0  0  0  0  0  0  0  0  0  0  0
    5.3068   -3.9605    4.4363 H   0  0  0  0  0  0  0  0  0  0  0  0
    3.5856   -3.6102    4.2539 H   0  0  0  0  0  0  0  0  0  0  0  0
    4.5228   -6.5932    3.8081 H   0  0  0  0  0  0  0  0  0  0  0  0
    2.2779   -6.3426    1.8526 H   0  0  0  0  0  0  0  0  0  0  0  0
    4.1235   -8.5842    4.2129 H   0  0  0  0  0  0  0  0  0  0  0  0
    3.1449  -10.6080    5.1676 H   0  0  0  0  0  0  0  0  0  0  0  0
   -0.4065  -11.4694    4.8507 H   0  0  0  0  0  0  0  0  0  0  0  0
    0.8710  -11.6042    5.8603 H   0  0  0  0  0  0  0  0  0  0  0  0
   -0.6702   -9.6508    3.3657 H   0  0  0  0  0  0  0  0  0  0  0  0
    0.3105   -7.5874    2.3945 H   0  0  0  0  0  0  0  0  0  0  0  0
    5.0451   -7.7712    1.3156 H   0  0  0  0  0  0  0  0  0  0  0  0
    5.6102   -6.0626   -0.2432 H   0  0  0  0  0  0  0  0  0  0  0  0
    3.9203   -4.3891   -0.7158 H   0  0  0  0  0  0  0  0  0  0  0  0
    2.9660   -5.5964    0.1626 H   0  0  0  0  0  0  0  0  0  0  0  0
    2.2177   -2.9437    1.0550 H   0  0  0  0  0  0  0  0  0  0  0  0
    6.3362   -4.3045    2.3105 H   0  0  0  0  0  0  0  0  0  0  0  0
    0.9581  -12.3199    4.3985 H   0  0  0  0  0  0  0  0  0  0  0  0
  1  2  1  0
  1 27  1  0
  1 28  1  0
  1 29  1  0
  3  2  1  1
  2 30  1  0
  2 31  1  0
  3 21  1  0
  3 26  1  0
  3  4  1  0
  4  5  1  0
  4 32  1  0
  4 33  1  0
  5  6  1  0
  5 34  1  0
  5 35  1  0
  6  7  2  0
  6  8  1  0
  8 24  1  0
  8  9  1  0
  8 36  1  6
  9 10  1  0
  9 37  1  0
  9 38  1  0
 11 10  1  1
 10 39  1  0
 10 40  1  0
 11 24  1  0
 11 26  1  0
 11 12  1  0
 12 13  1  0
 12 21  1  0
 12 41  1  1
 13 14  1  0
 13 42  1  0
 14 20  1  0
 14 15  2  0
 15 16  1  0
 15 43  1  0
 16 17  2  0
 16 44  1  0
 17 18  1  0
 17 19  1  0
 18 45  1  0
 18 46  1  0
 18 55  1  0
 19 20  2  0
 19 47  1  0
 20 48  1  0
 21 22  1  0
 21 49  1  6
 22 23  1  0
 22 26  1  0
 22 50  1  6
 23 24  1  0
 23 51  1  0
 23 52  1  0
 24 25  1  1
 25 53  1  0
 26 54  1  6
M  CHG  1  18   1
M  END
>  <i_m_ct_stereo_status>  (350) 
1

>  <s_m_source_file>  (350) 
/var/tmp/pbs.5076255.sched01/tmppy4q9rbr/123plv7d954.sdf

>  <i_m_source_file_index>  (350) 
36

>  <i_lp_mmshare_version>  (350) 
48012

>  <i_f3d_flags>  (350) 
0

>  <s_epik_input>  (350) 
W0NIMl0xW0NIMl1bQ0BIXShbQ0BAXTIoW0NAQF0xMzQpW09IXSlDKD1PKVtDSDJdW0NIMl1bQ0BdNShbQ0gyXVtDSDNdKVtDQEhdKFtDSF0oW0NIMl0yKVtDSF00NSlbQ0BASF0zW05IXWM2W2NIXVtjSF1jKFtOSDJdKVtjSF1bY0hdNg==

>  <s_epik_cmdline>  (350) 
J2VwaWtfcHl0aG9uJywgJy1waHQnLCAnMi4wJywgJy1waCcsICc3LjAnLCAnLXRuJywgJzgnLCAnLW1hJywgJzIwMCcsICctaW1hZScsICc8aW5maWxlLm1hZT4nLCAnLW9tYWUnLCAnPG91dGZpbGUubWFlPic=

>  <r_epik_Ionization_Penalty>  (350) 
1.19049

>  <r_epik_Ionization_Penalty_Charging>  (350) 
1.19044

>  <r_epik_Ionization_Penalty_Neutral>  (350) 
5.78922e-05

>  <r_epik_State_Penalty>  (350) 
1.57436

>  <r_epik_Charging_Adjusted_Penalty>  (350) 
2.7648

>  <i_epik_Tot_Q>  (350) 
1

>  <i_epik_Tot_abs_Q>  (350) 
1

>  <s_lp_Force_Field>  (350) 
OPLS3e

>  <r_lp_Energy>  (350) 
233.246

>  <b_lp_Chiralities_Consistent>  (350) 
1

>  <s_lp_Variant>  (350) 
112:0-3

>  <s_i_glide_gridfile>  (350) 
pfpi4k_grid

>  <i_i_glide_lignum>  (350) 
36

>  <i_i_glide_rotatable_bonds>  (350) 
4

>  <r_i_docking_score>  (350) 
-3.79395

>  <r_i_glide_ligand_efficiency>  (350) 
-0.145921

>  <r_i_glide_ligand_efficiency_sa>  (350) 
-0.43229

>  <r_i_glide_ligand_efficiency_ln>  (350) 
-0.890996

>  <r_i_glide_gscore>  (350) 
-3.79395

>  <r_i_glide_lipo>  (350) 
-0.587581

>  <r_i_glide_hbond>  (350) 
-0.4

>  <r_i_glide_metal>  (350) 
-0

>  <r_i_glide_rewards>  (350) 
-1.10076

>  <r_i_glide_evdw>  (350) 
-19.5527

>  <r_i_glide_ecoul>  (350) 
-6.45951

>  <r_i_glide_erotb>  (350) 
0.305688

>  <r_i_glide_esite>  (350) 
-0.0647311

>  <r_i_glide_emodel>  (350) 
-35.9202

>  <r_i_glide_energy>  (350) 
-26.0122

>  <r_i_glide_einternal>  (350) 
1.37294

>  <r_i_glide_intrahb_reward>  (350) 
-0

>  <i_i_glide_confnum>  (350) 
1

>  <i_i_glide_posenum>  (350) 
16

>  <r_i_glide_eff_state_penalty>  (350) 
0

>  <ligand_id>  (350) 
112

>  <original_smiles>  (350) 
CCC12CCC(=O)C3CCC45C(Nc6ccc(N)cc6)C1C(CC34O)C25

>  <smiles>  (350) 
[H]OC12C([H])([H])C3([H])C4([H])C([H])(N([H])c5c([H])c([H])c([N+]([H])([H])[H])c([H])c5[H])C15C([H])([H])C([H])([H])C2([H])C(=O)C([H])([H])C([H])([H])C4(C([H])([H])C([H])([H])[H])C35[H]

$$$$
113:0:0
     RDKit          3D

 42 44  0  0  1  0  0  0  0  0999 V2000
    3.9042   -1.2079   -2.2742 C   0  0  0  0  0  0  0  0  0  0  0  0
    4.7797   -2.1285   -1.6399 O   0  0  0  0  0  0  0  0  0  0  0  0
    4.0653   -3.1088   -0.8952 C   0  0  2  0  0  0  0  0  0  0  0  0
    3.5716   -2.6098    0.4622 C   0  0  0  0  0  0  0  0  0  0  0  0
    3.5886   -3.7400    1.3278 O   0  0  0  0  0  0  0  0  0  0  0  0
    4.3024   -4.8348    0.7478 C   0  0  1  0  0  0  0  0  0  0  0  0
    5.3317   -5.3732    1.7567 C   0  0  0  0  0  0  0  0  0  0  0  0
    4.6308   -6.0421    2.9395 C   0  0  0  0  0  0  0  0  0  0  0  0
    3.6696   -7.1324    2.4772 C   0  0  0  0  0  0  0  0  0  0  0  0
    2.6645   -6.5772    1.5519 N   0  0  0  0  0  0  0  0  0  0  0  0
    1.3293   -6.7463    1.6398 C   0  0  0  0  0  0  0  0  0  0  0  0
    0.5517   -6.2756    0.8161 O   0  0  0  0  0  0  0  0  0  0  0  0
    0.6987   -7.5303    2.8281 C   0  0  0  0  0  0  0  0  0  0  0  0
   -0.4685   -8.4399    2.3524 C   0  0  0  0  0  0  0  0  0  0  0  0
   -1.6144   -8.0421    3.2392 C   0  0  0  0  0  0  0  0  0  0  0  0
   -1.2986   -7.0590    4.0871 C   0  0  0  0  0  0  0  0  0  0  0  0
    0.1211   -6.5880    3.9275 C   0  0  0  0  0  0  0  0  0  0  0  0
    3.2708   -5.9209    0.3604 C   0  0  0  0  0  0  0  0  0  0  0  0
    5.0003   -4.2262   -0.4823 C   0  0  0  0  0  0  0  0  0  0  0  0
    4.4737   -0.4718   -2.8450 H   0  0  0  0  0  0  0  0  0  0  0  0
    3.2977   -0.6723   -1.5437 H   0  0  0  0  0  0  0  0  0  0  0  0
    3.2316   -1.7221   -2.9636 H   0  0  0  0  0  0  0  0  0  0  0  0
    3.2398   -3.5398   -1.4648 H   0  0  0  0  0  0  0  0  0  0  0  0
    4.2689   -1.8829    0.8755 H   0  0  0  0  0  0  0  0  0  0  0  0
    2.5879   -2.1452    0.4160 H   0  0  0  0  0  0  0  0  0  0  0  0
    5.9486   -6.1274    1.2690 H   0  0  0  0  0  0  0  0  0  0  0  0
    5.9999   -4.5806    2.0948 H   0  0  0  0  0  0  0  0  0  0  0  0
    5.3582   -6.4724    3.6181 H   0  0  0  0  0  0  0  0  0  0  0  0
    4.0537   -5.3105    3.5027 H   0  0  0  0  0  0  0  0  0  0  0  0
    4.1991   -7.9517    1.9745 H   0  0  0  0  0  0  0  0  0  0  0  0
    3.2733   -7.5252    3.4143 H   0  0  0  0  0  0  0  0  0  0  0  0
    1.3684   -8.2544    3.2826 H   0  0  0  0  0  0  0  0  0  0  0  0
   -0.7544   -8.3506    1.3027 H   0  0  0  0  0  0  0  0  0  0  0  0
   -0.2018   -9.4807    2.5288 H   0  0  0  0  0  0  0  0  0  0  0  0
   -2.5737   -8.5339    3.1772 H   0  0  0  0  0  0  0  0  0  0  0  0
   -1.9704   -6.6315    4.8116 H   0  0  0  0  0  0  0  0  0  0  0  0
    0.6592   -6.7334    4.8601 H   0  0  0  0  0  0  0  0  0  0  0  0
    0.1675   -5.5229    3.6962 H   0  0  0  0  0  0  0  0  0  0  0  0
    2.5390   -5.4814   -0.3129 H   0  0  0  0  0  0  0  0  0  0  0  0
    3.7728   -6.6904   -0.2203 H   0  0  0  0  0  0  0  0  0  0  0  0
    5.1777   -4.9512   -1.2794 H   0  0  0  0  0  0  0  0  0  0  0  0
    5.9697   -3.8153   -0.1875 H   0  0  0  0  0  0  0  0  0  0  0  0
  1  2  1  0
  1 20  1  0
  1 21  1  0
  1 22  1  0
  2  3  1  0
  3 19  1  0
  3  4  1  0
  3 23  1  6
  4  5  1  0
  4 24  1  0
  4 25  1  0
  6  5  1  1
  6 18  1  0
  6  7  1  0
  6 19  1  0
  7  8  1  0
  7 26  1  0
  7 27  1  0
  8  9  1  0
  8 28  1  0
  8 29  1  0
  9 10  1  0
  9 30  1  0
  9 31  1  0
 10 11  1  0
 10 18  1  0
 11 12  2  0
 11 13  1  0
 13 17  1  0
 13 14  1  0
 13 32  1  0
 14 15  1  0
 14 33  1  0
 14 34  1  0
 15 16  2  0
 15 35  1  0
 16 17  1  0
 16 36  1  0
 17 37  1  0
 17 38  1  0
 18 39  1  0
 18 40  1  0
 19 41  1  0
 19 42  1  0
M  END
>  <i_m_ct_stereo_status>  (351) 
1

>  <s_m_source_file>  (351) 
/var/tmp/pbs.5076255.sched01/tmppy4q9rbr/123plv7d954.sdf

>  <i_m_source_file_index>  (351) 
37

>  <i_lp_mmshare_version>  (351) 
48012

>  <i_f3d_flags>  (351) 
0

>  <s_epik_input>  (351) 
W0NIM11PW0NAQEhdKFtDSDJdMSlbQ0gyXU9bQ0BdMTJbQ0gyXVtDSDJdW0NIMl1OKFtDSDJdMilDKD1PKVtDSF0zW0NIMl1bQ0hdPVtDSF1bQ0gyXTM=

>  <s_epik_cmdline>  (351) 
J2VwaWtfcHl0aG9uJywgJy1waHQnLCAnMi4wJywgJy1waCcsICc3LjAnLCAnLXRuJywgJzgnLCAnLW1hJywgJzIwMCcsICctaW1hZScsICc8aW5maWxlLm1hZT4nLCAnLW9tYWUnLCAnPG91dGZpbGUubWFlPic=

>  <r_lp_tautomer_probability>  (351) 
1

>  <r_epik_Ionization_Penalty>  (351) 
1.53892e-08

>  <r_epik_Ionization_Penalty_Charging>  (351) 
0

>  <r_epik_Ionization_Penalty_Neutral>  (351) 
1.53892e-08

>  <r_epik_State_Penalty>  (351) 
-0

>  <r_epik_Charging_Adjusted_Penalty>  (351) 
0

>  <i_epik_Tot_Q>  (351) 
0

>  <i_epik_Tot_abs_Q>  (351) 
0

>  <s_lp_Force_Field>  (351) 
OPLS3e

>  <r_lp_Energy>  (351) 
13.7005

>  <b_lp_Chiralities_Consistent>  (351) 
1

>  <s_lp_Variant>  (351) 
113:0-1

>  <s_i_glide_gridfile>  (351) 
pfpi4k_grid

>  <i_i_glide_lignum>  (351) 
37

>  <i_i_glide_rotatable_bonds>  (351) 
3

>  <r_i_docking_score>  (351) 
-3.33324

>  <r_i_glide_ligand_efficiency>  (351) 
-0.175434

>  <r_i_glide_ligand_efficiency_sa>  (351) 
-0.468127

>  <r_i_glide_ligand_efficiency_ln>  (351) 
-0.845047

>  <r_i_glide_gscore>  (351) 
-3.33324

>  <r_i_glide_lipo>  (351) 
-0.127088

>  <r_i_glide_hbond>  (351) 
-0.16

>  <r_i_glide_metal>  (351) 
-0

>  <r_i_glide_rewards>  (351) 
-1.5999

>  <r_i_glide_evdw>  (351) 
-20.8763

>  <r_i_glide_ecoul>  (351) 
-5.68761

>  <r_i_glide_erotb>  (351) 
0.505444

>  <r_i_glide_esite>  (351) 
-0.0547367

>  <r_i_glide_emodel>  (351) 
-31.8439

>  <r_i_glide_energy>  (351) 
-26.5639

>  <r_i_glide_einternal>  (351) 
1.46251

>  <r_i_glide_intrahb_reward>  (351) 
-0

>  <i_i_glide_confnum>  (351) 
5

>  <i_i_glide_posenum>  (351) 
31

>  <r_i_glide_eff_state_penalty>  (351) 
0

>  <ligand_id>  (351) 
113

>  <original_smiles>  (351) 
COC1COC2(CCCN(C(=O)C3CC=CC3)C2)C1

>  <smiles>  (351) 
[H]C1=C([H])C([H])([H])C([H])(C(=O)N2C([H])([H])C([H])([H])C([H])([H])C3(OC([H])([H])C([H])(OC([H])([H])[H])C3([H])[H])C2([H])[H])C1([H])[H]

$$$$
113:0:1
     RDKit          3D

 42 44  0  0  1  0  0  0  0  0999 V2000
    4.8366   -0.6105   -0.0668 C   0  0  0  0  0  0  0  0  0  0  0  0
    5.3447   -1.8987    0.2363 O   0  0  0  0  0  0  0  0  0  0  0  0
    4.4512   -2.9528   -0.0896 C   0  0  2  0  0  0  0  0  0  0  0  0
    3.3475   -3.0811    0.9685 C   0  0  0  0  0  0  0  0  0  0  0  0
    3.8267   -4.0952    1.8393 O   0  0  0  0  0  0  0  0  0  0  0  0
    4.4561   -5.1028    1.0520 C   0  0  1  0  0  0  0  0  0  0  0  0
    5.4477   -5.9213    1.9100 C   0  0  0  0  0  0  0  0  0  0  0  0
    4.7185   -6.7525    2.9608 C   0  0  0  0  0  0  0  0  0  0  0  0
    3.6462   -7.6394    2.3181 C   0  0  0  0  0  0  0  0  0  0  0  0
    2.7183   -6.8256    1.5267 N   0  0  0  0  0  0  0  0  0  0  0  0
    1.3702   -6.8454    1.6864 C   0  0  0  0  0  0  0  0  0  0  0  0
    0.6221   -6.2321    0.9194 O   0  0  0  0  0  0  0  0  0  0  0  0
    0.7143   -7.6687    2.8150 C   0  0  0  0  0  0  0  0  0  0  0  0
   -0.4946   -8.4922    2.3047 C   0  0  0  0  0  0  0  0  0  0  0  0
   -1.6272   -8.0835    3.1962 C   0  0  0  0  0  0  0  0  0  0  0  0
   -1.2740   -7.1586    4.0823 C   0  0  0  0  0  0  0  0  0  0  0  0
    0.1754   -6.7690    3.9612 C   0  0  0  0  0  0  0  0  0  0  0  0
    3.3659   -6.0293    0.4610 C   0  0  0  0  0  0  0  0  0  0  0  0
    5.1973   -4.2814   -0.0182 C   0  0  0  0  0  0  0  0  0  0  0  0
    5.5582    0.1457    0.2456 H   0  0  0  0  0  0  0  0  0  0  0  0
    3.8972   -0.3946    0.4429 H   0  0  0  0  0  0  0  0  0  0  0  0
    4.6733   -0.5103   -1.1399 H   0  0  0  0  0  0  0  0  0  0  0  0
    4.0410   -2.8096   -1.0893 H   0  0  0  0  0  0  0  0  0  0  0  0
    3.1189   -2.1638    1.5102 H   0  0  0  0  0  0  0  0  0  0  0  0
    2.4157   -3.4001    0.5030 H   0  0  0  0  0  0  0  0  0  0  0  0
    5.9967   -6.6052    1.2610 H   0  0  0  0  0  0  0  0  0  0  0  0
    6.2009   -5.2767    2.3796 H   0  0  0  0  0  0  0  0  0  0  0  0
    5.4293   -7.3756    3.5030 H   0  0  0  0  0  0  0  0  0  0  0  0
    4.2555   -6.0899    3.6920 H   0  0  0  0  0  0  0  0  0  0  0  0
    4.1134   -8.3589    1.6403 H   0  0  0  0  0  0  0  0  0  0  0  0
    3.2147   -8.1934    3.1314 H   0  0  0  0  0  0  0  0  0  0  0  0
    1.3674   -8.4022    3.2410 H   0  0  0  0  0  0  0  0  0  0  0  0
   -0.7720   -8.3021    1.2662 H   0  0  0  0  0  0  0  0  0  0  0  0
   -0.2902   -9.5556    2.4035 H   0  0  0  0  0  0  0  0  0  0  0  0
   -2.6025   -8.5321    3.0949 H   0  0  0  0  0  0  0  0  0  0  0  0
   -1.9312   -6.7349    4.8367 H   0  0  0  0  0  0  0  0  0  0  0  0
    0.6889   -6.9965    4.8869 H   0  0  0  0  0  0  0  0  0  0  0  0
    0.2727   -5.6913    3.7892 H   0  0  0  0  0  0  0  0  0  0  0  0
    2.6537   -5.4508   -0.1342 H   0  0  0  0  0  0  0  0  0  0  0  0
    3.8095   -6.7072   -0.2649 H   0  0  0  0  0  0  0  0  0  0  0  0
    5.2282   -4.8025   -0.9764 H   0  0  0  0  0  0  0  0  0  0  0  0
    6.2306   -4.1130    0.2831 H   0  0  0  0  0  0  0  0  0  0  0  0
  1  2  1  0
  1 20  1  0
  1 21  1  0
  1 22  1  0
  2  3  1  0
  3 19  1  0
  3  4  1  0
  3 23  1  6
  4  5  1  0
  4 24  1  0
  4 25  1  0
  6  5  1  1
  6 18  1  0
  6  7  1  0
  6 19  1  0
  7  8  1  0
  7 26  1  0
  7 27  1  0
  8  9  1  0
  8 28  1  0
  8 29  1  0
  9 10  1  0
  9 30  1  0
  9 31  1  0
 10 11  1  0
 10 18  1  0
 11 12  2  0
 11 13  1  0
 13 17  1  0
 13 14  1  0
 13 32  1  0
 14 15  1  0
 14 33  1  0
 14 34  1  0
 15 16  2  0
 15 35  1  0
 16 17  1  0
 16 36  1  0
 17 37  1  0
 17 38  1  0
 18 39  1  0
 18 40  1  0
 19 41  1  0
 19 42  1  0
M  END
>  <i_m_ct_stereo_status>  (352) 
1

>  <s_m_source_file>  (352) 
/var/tmp/pbs.5076255.sched01/tmppy4q9rbr/123plv7d954.sdf

>  <i_m_source_file_index>  (352) 
37

>  <i_lp_mmshare_version>  (352) 
48012

>  <i_f3d_flags>  (352) 
0

>  <s_epik_input>  (352) 
W0NIM11PW0NAQEhdKFtDSDJdMSlbQ0gyXU9bQ0BdMTJbQ0gyXVtDSDJdW0NIMl1OKFtDSDJdMilDKD1PKVtDSF0zW0NIMl1bQ0hdPVtDSF1bQ0gyXTM=

>  <s_epik_cmdline>  (352) 
J2VwaWtfcHl0aG9uJywgJy1waHQnLCAnMi4wJywgJy1waCcsICc3LjAnLCAnLXRuJywgJzgnLCAnLW1hJywgJzIwMCcsICctaW1hZScsICc8aW5maWxlLm1hZT4nLCAnLW9tYWUnLCAnPG91dGZpbGUubWFlPic=

>  <r_lp_tautomer_probability>  (352) 
1

>  <r_epik_Ionization_Penalty>  (352) 
1.53892e-08

>  <r_epik_Ionization_Penalty_Charging>  (352) 
0

>  <r_epik_Ionization_Penalty_Neutral>  (352) 
1.53892e-08

>  <r_epik_State_Penalty>  (352) 
-0

>  <r_epik_Charging_Adjusted_Penalty>  (352) 
0

>  <i_epik_Tot_Q>  (352) 
0

>  <i_epik_Tot_abs_Q>  (352) 
0

>  <s_lp_Force_Field>  (352) 
OPLS3e

>  <r_lp_Energy>  (352) 
13.7005

>  <b_lp_Chiralities_Consistent>  (352) 
1

>  <s_lp_Variant>  (352) 
113:0-1

>  <s_i_glide_gridfile>  (352) 
pfpi4k_grid

>  <i_i_glide_lignum>  (352) 
37

>  <i_i_glide_rotatable_bonds>  (352) 
3

>  <r_i_docking_score>  (352) 
-3.3211

>  <r_i_glide_ligand_efficiency>  (352) 
-0.174795

>  <r_i_glide_ligand_efficiency_sa>  (352) 
-0.466423

>  <r_i_glide_ligand_efficiency_ln>  (352) 
-0.84197

>  <r_i_glide_gscore>  (352) 
-3.3211

>  <r_i_glide_lipo>  (352) 
-0.163237

>  <r_i_glide_hbond>  (352) 
-0.16

>  <r_i_glide_metal>  (352) 
-0

>  <r_i_glide_rewards>  (352) 
-1.60784

>  <r_i_glide_evdw>  (352) 
-19.6989

>  <r_i_glide_ecoul>  (352) 
-5.7478

>  <r_i_glide_erotb>  (352) 
0.505444

>  <r_i_glide_esite>  (352) 
-0.0483559

>  <r_i_glide_emodel>  (352) 
-30.7744

>  <r_i_glide_energy>  (352) 
-25.4467

>  <r_i_glide_einternal>  (352) 
0.829595

>  <r_i_glide_intrahb_reward>  (352) 
-0

>  <i_i_glide_confnum>  (352) 
4

>  <i_i_glide_posenum>  (352) 
32

>  <r_i_glide_eff_state_penalty>  (352) 
0

>  <ligand_id>  (352) 
113

>  <original_smiles>  (352) 
COC1COC2(CCCN(C(=O)C3CC=CC3)C2)C1

>  <smiles>  (352) 
[H]C1=C([H])C([H])([H])C([H])(C(=O)N2C([H])([H])C([H])([H])C([H])([H])C3(OC([H])([H])C([H])(OC([H])([H])[H])C3([H])[H])C2([H])[H])C1([H])[H]

$$$$
113:0:2
     RDKit          3D

 42 44  0  0  1  0  0  0  0  0999 V2000
    4.3048   -1.3977   -2.1760 C   0  0  0  0  0  0  0  0  0  0  0  0
    4.1503   -1.3280   -0.7666 O   0  0  0  0  0  0  0  0  0  0  0  0
    3.5409   -2.4898   -0.2230 C   0  0  2  0  0  0  0  0  0  0  0  0
    3.0531   -2.2784    1.2077 C   0  0  0  0  0  0  0  0  0  0  0  0
    3.1597   -3.5480    1.8448 O   0  0  0  0  0  0  0  0  0  0  0  0
    3.9245   -4.4648    1.0584 C   0  0  1  0  0  0  0  0  0  0  0  0
    5.0117   -5.1051    1.9410 C   0  0  0  0  0  0  0  0  0  0  0  0
    4.3959   -6.0242    2.9889 C   0  0  0  0  0  0  0  0  0  0  0  0
    3.4984   -7.0839    2.3414 C   0  0  0  0  0  0  0  0  0  0  0  0
    2.4423   -6.4441    1.5395 N   0  0  0  0  0  0  0  0  0  0  0  0
    1.1267   -6.7217    1.6428 C   0  0  0  0  0  0  0  0  0  0  0  0
    0.3023   -6.2651    0.8517 O   0  0  0  0  0  0  0  0  0  0  0  0
    0.5979   -7.6243    2.7828 C   0  0  0  0  0  0  0  0  0  0  0  0
   -0.5314   -8.5709    2.2939 C   0  0  0  0  0  0  0  0  0  0  0  0
   -1.6739   -8.2975    3.2244 C   0  0  0  0  0  0  0  0  0  0  0  0
   -1.3999   -7.3498    4.1143 C   0  0  0  0  0  0  0  0  0  0  0  0
   -0.0137   -6.7962    3.9591 C   0  0  0  0  0  0  0  0  0  0  0  0
    2.9602   -5.5437    0.4834 C   0  0  0  0  0  0  0  0  0  0  0  0
    4.5543   -3.5989   -0.0395 C   0  0  0  0  0  0  0  0  0  0  0  0
    4.7249   -0.4642   -2.5513 H   0  0  0  0  0  0  0  0  0  0  0  0
    3.3447   -1.5541   -2.6704 H   0  0  0  0  0  0  0  0  0  0  0  0
    4.9759   -2.2094   -2.4600 H   0  0  0  0  0  0  0  0  0  0  0  0
    2.6986   -2.8314   -0.8242 H   0  0  0  0  0  0  0  0  0  0  0  0
    3.6993   -1.5811    1.7406 H   0  0  0  0  0  0  0  0  0  0  0  0
    2.0327   -1.8941    1.2552 H   0  0  0  0  0  0  0  0  0  0  0  0
    5.6742   -5.7041    1.3137 H   0  0  0  0  0  0  0  0  0  0  0  0
    5.6278   -4.3393    2.4187 H   0  0  0  0  0  0  0  0  0  0  0  0
    5.1825   -6.5188    3.5636 H   0  0  0  0  0  0  0  0  0  0  0  0
    3.8048   -5.4421    3.6984 H   0  0  0  0  0  0  0  0  0  0  0  0
    4.0869   -7.7307    1.6840 H   0  0  0  0  0  0  0  0  0  0  0  0
    3.1654   -7.6870    3.1744 H   0  0  0  0  0  0  0  0  0  0  0  0
    1.3295   -8.3101    3.1873 H   0  0  0  0  0  0  0  0  0  0  0  0
   -0.8616   -8.4162    1.2789 H   0  0  0  0  0  0  0  0  0  0  0  0
   -0.1964   -9.6111    2.3777 H   0  0  0  0  0  0  0  0  0  0  0  0
   -2.5935   -8.8511    3.1343 H   0  0  0  0  0  0  0  0  0  0  0  0
   -2.0817   -7.0150    4.8813 H   0  0  0  0  0  0  0  0  0  0  0  0
    0.5512   -6.9824    4.8784 H   0  0  0  0  0  0  0  0  0  0  0  0
   -0.0373   -5.7198    3.8106 H   0  0  0  0  0  0  0  0  0  0  0  0
    2.1821   -5.0430   -0.0991 H   0  0  0  0  0  0  0  0  0  0  0  0
    3.4904   -6.1537   -0.2465 H   0  0  0  0  0  0  0  0  0  0  0  0
    4.7665   -4.1557   -0.9512 H   0  0  0  0  0  0  0  0  0  0  0  0
    5.4954   -3.1845    0.3227 H   0  0  0  0  0  0  0  0  0  0  0  0
  1  2  1  0
  1 20  1  0
  1 21  1  0
  1 22  1  0
  2  3  1  0
  3 19  1  0
  3  4  1  0
  3 23  1  6
  4  5  1  0
  4 24  1  0
  4 25  1  0
  6  5  1  1
  6 18  1  0
  6  7  1  0
  6 19  1  0
  7  8  1  0
  7 26  1  0
  7 27  1  0
  8  9  1  0
  8 28  1  0
  8 29  1  0
  9 10  1  0
  9 30  1  0
  9 31  1  0
 10 11  1  0
 10 18  1  0
 11 12  2  0
 11 13  1  0
 13 17  1  0
 13 14  1  0
 13 32  1  0
 14 15  1  0
 14 33  1  0
 14 34  1  0
 15 16  2  0
 15 35  1  0
 16 17  1  0
 16 36  1  0
 17 37  1  0
 17 38  1  0
 18 39  1  0
 18 40  1  0
 19 41  1  0
 19 42  1  0
M  END
>  <i_m_ct_stereo_status>  (353) 
1

>  <s_m_source_file>  (353) 
/var/tmp/pbs.5076255.sched01/tmppy4q9rbr/123plv7d954.sdf

>  <i_m_source_file_index>  (353) 
37

>  <i_lp_mmshare_version>  (353) 
48012

>  <i_f3d_flags>  (353) 
0

>  <s_epik_input>  (353) 
W0NIM11PW0NAQEhdKFtDSDJdMSlbQ0gyXU9bQ0BdMTJbQ0gyXVtDSDJdW0NIMl1OKFtDSDJdMilDKD1PKVtDSF0zW0NIMl1bQ0hdPVtDSF1bQ0gyXTM=

>  <s_epik_cmdline>  (353) 
J2VwaWtfcHl0aG9uJywgJy1waHQnLCAnMi4wJywgJy1waCcsICc3LjAnLCAnLXRuJywgJzgnLCAnLW1hJywgJzIwMCcsICctaW1hZScsICc8aW5maWxlLm1hZT4nLCAnLW9tYWUnLCAnPG91dGZpbGUubWFlPic=

>  <r_lp_tautomer_probability>  (353) 
1

>  <r_epik_Ionization_Penalty>  (353) 
1.53892e-08

>  <r_epik_Ionization_Penalty_Charging>  (353) 
0

>  <r_epik_Ionization_Penalty_Neutral>  (353) 
1.53892e-08

>  <r_epik_State_Penalty>  (353) 
-0

>  <r_epik_Charging_Adjusted_Penalty>  (353) 
0

>  <i_epik_Tot_Q>  (353) 
0

>  <i_epik_Tot_abs_Q>  (353) 
0

>  <s_lp_Force_Field>  (353) 
OPLS3e

>  <r_lp_Energy>  (353) 
13.7005

>  <b_lp_Chiralities_Consistent>  (353) 
1

>  <s_lp_Variant>  (353) 
113:0-1

>  <s_i_glide_gridfile>  (353) 
pfpi4k_grid

>  <i_i_glide_lignum>  (353) 
37

>  <i_i_glide_rotatable_bonds>  (353) 
3

>  <r_i_docking_score>  (353) 
-3.20485

>  <r_i_glide_ligand_efficiency>  (353) 
-0.168676

>  <r_i_glide_ligand_efficiency_sa>  (353) 
-0.450096

>  <r_i_glide_ligand_efficiency_ln>  (353) 
-0.812498

>  <r_i_glide_gscore>  (353) 
-3.20485

>  <r_i_glide_lipo>  (353) 
-0.0700595

>  <r_i_glide_hbond>  (353) 
-0.16

>  <r_i_glide_metal>  (353) 
-0

>  <r_i_glide_rewards>  (353) 
-1.5999

>  <r_i_glide_evdw>  (353) 
-20.4908

>  <r_i_glide_ecoul>  (353) 
-5.22131

>  <r_i_glide_erotb>  (353) 
0.505444

>  <r_i_glide_esite>  (353) 
-0.0725969

>  <r_i_glide_emodel>  (353) 
-30.9266

>  <r_i_glide_energy>  (353) 
-25.7121

>  <r_i_glide_einternal>  (353) 
0.909996

>  <r_i_glide_intrahb_reward>  (353) 
-0

>  <i_i_glide_confnum>  (353) 
5

>  <i_i_glide_posenum>  (353) 
1

>  <r_i_glide_eff_state_penalty>  (353) 
0

>  <ligand_id>  (353) 
113

>  <original_smiles>  (353) 
COC1COC2(CCCN(C(=O)C3CC=CC3)C2)C1

>  <smiles>  (353) 
[H]C1=C([H])C([H])([H])C([H])(C(=O)N2C([H])([H])C([H])([H])C([H])([H])C3(OC([H])([H])C([H])(OC([H])([H])[H])C3([H])[H])C2([H])[H])C1([H])[H]

$$$$
114:1:0
     RDKit          3D

105111  0  0  1  0  0  0  0  0999 V2000
    2.9738    3.7918    6.8844 C   0  0  0  0  0  0  0  0  0  0  0  0
    2.4932    2.3905    6.4611 C   0  0  0  0  0  0  0  0  0  0  0  0
    1.2876    1.9801    7.3232 C   0  0  0  0  0  0  0  0  0  0  0  0
    3.6299    1.3462    6.5314 C   0  0  2  0  0  0  0  0  0  0  0  0
    4.8670    1.6977    5.6524 C   0  0  0  0  0  0  0  0  0  0  0  0
    5.2641    0.3911    5.0192 C   0  0  0  0  0  0  0  0  0  0  0  0
    4.3647   -0.5600    5.2448 C   0  0  0  0  0  0  0  0  0  0  0  0
    3.2292   -0.1100    6.1009 C   0  0  1  0  0  0  0  0  0  0  0  0
    3.0113   -1.0801    7.2842 C   0  0  0  0  0  0  0  0  0  0  0  0
    3.3500   -2.5850    7.0586 C   0  0  1  0  0  0  0  0  0  0  0  0
    2.1705   -3.5623    6.9067 C   0  0  0  0  0  0  0  0  0  0  0  0
    2.8423   -4.9153    6.5600 C   0  0  2  0  0  0  0  0  0  0  0  0
    3.4735   -5.5102    7.8580 C   0  0  0  0  0  0  0  0  0  0  0  0
    3.9396   -4.4398    5.5814 C   0  0  2  0  0  0  0  0  0  0  0  0
    4.9462   -5.5632    5.3021 C   0  0  0  0  0  0  0  0  0  0  0  0
    4.1873   -6.8207    4.8877 C   0  0  0  0  0  0  0  0  0  0  0  0
    2.8616   -7.0298    5.0923 C   0  0  0  0  0  0  0  0  0  0  0  0
    2.0861   -8.1813    4.4215 C   0  0  2  0  0  0  0  0  0  0  0  0
    2.8913   -9.4691    4.0482 C   0  0  1  0  0  0  0  0  0  0  0  0
    3.6908  -10.0589    5.2269 C   0  0  0  0  0  0  0  0  0  0  0  0
    1.9514  -10.5445    3.4355 C   0  0  1  0  0  0  0  0  0  0  0  0
    1.0044  -11.2381    4.4472 C   0  0  0  0  0  0  0  0  0  0  0  0
    1.1619   -9.9555    2.2538 C   0  0  0  0  0  0  0  0  0  0  0  0
    0.3417   -8.7227    2.6663 C   0  0  0  0  0  0  0  0  0  0  0  0
    1.2099   -7.5916    3.2630 C   0  0  2  0  0  0  0  0  0  0  0  0
    2.0160   -6.9387    2.1088 C   0  0  0  0  0  0  0  0  0  0  0  0
    3.1967   -7.2100    1.8968 O   0  0  0  0  0  0  0  0  0  0  0  0
    1.2774   -6.1129    1.3199 O   0  0  0  0  0  0  0  0  0  0  0  0
    1.8590   -5.4871    0.1765 C   0  0  0  0  0  0  0  0  0  0  0  0
    2.8527   -4.3823    0.5421 C   0  0  0  0  0  0  0  0  0  0  0  0
    3.3082   -3.5455   -0.6705 C   0  0  0  0  0  0  0  0  0  0  0  0
    4.4586   -2.6300   -0.3739 C   0  0  0  0  0  0  0  0  0  0  0  0
    5.7604   -2.7424   -0.7756 C   0  0  0  0  0  0  0  0  0  0  0  0
    6.5176   -1.6465   -0.2500 N   0  0  0  0  0  0  0  0  0  0  0  0
    5.5857   -0.9745    0.4367 C   0  0  0  0  0  0  0  0  0  0  0  0
    4.3659   -1.4731    0.4097 N   0  0  0  0  0  0  0  0  0  0  0  0
    3.1851   -0.9029    1.0406 C   0  0  0  0  0  0  0  0  0  0  0  0
    0.2543   -6.5476    3.9307 C   0  0  0  0  0  0  0  0  0  0  0  0
    0.9570   -5.4540    4.7859 C   0  0  0  0  0  0  0  0  0  0  0  0
    1.9536   -6.0266    5.8438 C   0  0  2  0  0  0  0  0  0  0  0  0
    1.0892   -6.7438    6.9348 C   0  0  0  0  0  0  0  0  0  0  0  0
    4.3933   -2.9847    5.9733 C   0  0  2  0  0  0  0  0  0  0  0  0
    5.8230   -2.9616    6.5586 C   0  0  0  0  0  0  0  0  0  0  0  0
    4.3620   -1.9951    4.7611 C   0  0  1  0  0  0  0  0  0  0  0  0
    3.1915   -2.1490    3.9796 O   0  0  0  0  0  0  0  0  0  0  0  0
    3.3556    3.7897    7.9049 H   0  0  0  0  0  0  0  0  0  0  0  0
    2.1588    4.5151    6.8396 H   0  0  0  0  0  0  0  0  0  0  0  0
    3.7638    4.1660    6.2347 H   0  0  0  0  0  0  0  0  0  0  0  0
    2.1521    2.4604    5.4261 H   0  0  0  0  0  0  0  0  0  0  0  0
    1.5777    1.8343    8.3632 H   0  0  0  0  0  0  0  0  0  0  0  0
    0.8379    1.0553    6.9670 H   0  0  0  0  0  0  0  0  0  0  0  0
    0.5099    2.7435    7.2995 H   0  0  0  0  0  0  0  0  0  0  0  0
    3.9931    1.3187    7.5556 H   0  0  0  0  0  0  0  0  0  0  0  0
    4.6089    2.4121    4.8677 H   0  0  0  0  0  0  0  0  0  0  0  0
    5.6810    2.1104    6.2467 H   0  0  0  0  0  0  0  0  0  0  0  0
    6.1571    0.2897    4.4169 H   0  0  0  0  0  0  0  0  0  0  0  0
    2.3507   -0.0905    5.4576 H   0  0  0  0  0  0  0  0  0  0  0  0
    3.6156   -0.7455    8.1190 H   0  0  0  0  0  0  0  0  0  0  0  0
    1.9800   -0.9837    7.6260 H   0  0  0  0  0  0  0  0  0  0  0  0
    3.7886   -2.8585    8.0201 H   0  0  0  0  0  0  0  0  0  0  0  0
    1.5645   -3.6219    7.8096 H   0  0  0  0  0  0  0  0  0  0  0  0
    1.5282   -3.2113    6.0979 H   0  0  0  0  0  0  0  0  0  0  0  0
    3.8457   -6.5263    7.7133 H   0  0  0  0  0  0  0  0  0  0  0  0
    2.7527   -5.5547    8.6769 H   0  0  0  0  0  0  0  0  0  0  0  0
    4.3176   -4.9376    8.2298 H   0  0  0  0  0  0  0  0  0  0  0  0
    3.4579   -4.3603    4.6155 H   0  0  0  0  0  0  0  0  0  0  0  0
    5.5899   -5.2694    4.4711 H   0  0  0  0  0  0  0  0  0  0  0  0
    5.5919   -5.7870    6.1534 H   0  0  0  0  0  0  0  0  0  0  0  0
    4.7688   -7.5234    4.3134 H   0  0  0  0  0  0  0  0  0  0  0  0
    1.3952   -8.5521    5.1713 H   0  0  0  0  0  0  0  0  0  0  0  0
    3.6194   -9.2303    3.2733 H   0  0  0  0  0  0  0  0  0  0  0  0
    3.0583  -10.2305    6.1011 H   0  0  0  0  0  0  0  0  0  0  0  0
    4.5064   -9.4104    5.5428 H   0  0  0  0  0  0  0  0  0  0  0  0
    4.1400  -11.0145    4.9523 H   0  0  0  0  0  0  0  0  0  0  0  0
    2.5788  -11.3425    3.0272 H   0  0  0  0  0  0  0  0  0  0  0  0
    0.3428  -10.5340    4.9554 H   0  0  0  0  0  0  0  0  0  0  0  0
    1.5595  -11.7798    5.2136 H   0  0  0  0  0  0  0  0  0  0  0  0
    0.3680  -11.9711    3.9464 H   0  0  0  0  0  0  0  0  0  0  0  0
    1.8425   -9.7160    1.4398 H   0  0  0  0  0  0  0  0  0  0  0  0
    0.4708  -10.6947    1.8568 H   0  0  0  0  0  0  0  0  0  0  0  0
   -0.1891   -8.3658    1.7799 H   0  0  0  0  0  0  0  0  0  0  0  0
   -0.4274   -9.0309    3.3632 H   0  0  0  0  0  0  0  0  0  0  0  0
    2.3489   -6.2162   -0.4488 H   0  0  0  0  0  0  0  0  0  0  0  0
    1.0485   -5.0639   -0.4183 H   0  0  0  0  0  0  0  0  0  0  0  0
    2.3999   -3.7604    1.3062 H   0  0  0  0  0  0  0  0  0  0  0  0
    3.7450   -4.8218    0.9932 H   0  0  0  0  0  0  0  0  0  0  0  0
    3.6042   -4.2159   -1.4816 H   0  0  0  0  0  0  0  0  0  0  0  0
    2.4726   -2.9606   -1.0649 H   0  0  0  0  0  0  0  0  0  0  0  0
    6.2546   -3.4719   -1.3794 H   0  0  0  0  0  0  0  0  0  0  0  0
    5.8363   -0.0688    0.9708 H   0  0  0  0  0  0  0  0  0  0  0  0
    3.4867   -0.2774    1.8769 H   0  0  0  0  0  0  0  0  0  0  0  0
    2.5193   -1.6710    1.4154 H   0  0  0  0  0  0  0  0  0  0  0  0
    2.6324   -0.3021    0.3275 H   0  0  0  0  0  0  0  0  0  0  0  0
   -0.3290   -6.0362    3.1701 H   0  0  0  0  0  0  0  0  0  0  0  0
   -0.4887   -7.0563    4.5290 H   0  0  0  0  0  0  0  0  0  0  0  0
    1.4529   -4.7639    4.1102 H   0  0  0  0  0  0  0  0  0  0  0  0
    0.1872   -4.8635    5.2842 H   0  0  0  0  0  0  0  0  0  0  0  0
    0.6214   -6.0341    7.6124 H   0  0  0  0  0  0  0  0  0  0  0  0
    1.6822   -7.4423    7.5259 H   0  0  0  0  0  0  0  0  0  0  0  0
    0.2700   -7.3361    6.5235 H   0  0  0  0  0  0  0  0  0  0  0  0
    6.5630   -3.2263    5.8038 H   0  0  0  0  0  0  0  0  0  0  0  0
    5.9446   -3.6588    7.3851 H   0  0  0  0  0  0  0  0  0  0  0  0
    6.0838   -1.9725    6.9333 H   0  0  0  0  0  0  0  0  0  0  0  0
    5.2157   -2.1624    4.1072 H   0  0  0  0  0  0  0  0  0  0  0  0
    3.2693   -1.6059    3.2202 H   0  0  0  0  0  0  0  0  0  0  0  0
  1  2  1  0
  1 46  1  0
  1 47  1  0
  1 48  1  0
  2  3  1  0
  2  4  1  0
  2 49  1  0
  3 50  1  0
  3 51  1  0
  3 52  1  0
  4  8  1  0
  4  5  1  0
  4 53  1  1
  5  6  1  0
  5 54  1  0
  5 55  1  0
  6  7  2  0
  6 56  1  0
  7 44  1  0
  7  8  1  0
  8  9  1  0
  8 57  1  6
  9 10  1  0
  9 58  1  0
  9 59  1  0
 10 42  1  0
 10 11  1  0
 10 60  1  1
 11 12  1  0
 11 61  1  0
 11 62  1  0
 12 40  1  0
 12 13  1  1
 12 14  1  0
 13 63  1  0
 13 64  1  0
 13 65  1  0
 14 15  1  0
 14 42  1  0
 14 66  1  6
 15 16  1  0
 15 67  1  0
 15 68  1  0
 16 17  2  0
 16 69  1  0
 17 40  1  0
 17 18  1  0
 18 25  1  0
 18 19  1  0
 18 70  1  1
 19 20  1  0
 19 21  1  0
 19 71  1  6
 20 72  1  0
 20 73  1  0
 20 74  1  0
 21 22  1  0
 21 23  1  0
 21 75  1  6
 22 76  1  0
 22 77  1  0
 22 78  1  0
 23 24  1  0
 23 79  1  0
 23 80  1  0
 24 25  1  0
 24 81  1  0
 24 82  1  0
 25 26  1  6
 25 38  1  0
 26 27  2  0
 26 28  1  0
 28 29  1  0
 29 30  1  0
 29 83  1  0
 29 84  1  0
 30 31  1  0
 30 85  1  0
 30 86  1  0
 31 32  1  0
 31 87  1  0
 31 88  1  0
 32 36  1  0
 32 33  2  0
 33 34  1  0
 33 89  1  0
 34 35  2  0
 35 36  1  0
 35 90  1  0
 36 37  1  0
 37 91  1  0
 37 92  1  0
 37 93  1  0
 38 39  1  0
 38 94  1  0
 38 95  1  0
 39 40  1  0
 39 96  1  0
 39 97  1  0
 40 41  1  1
 41 98  1  0
 41 99  1  0
 41100  1  0
 42 43  1  1
 42 44  1  0
 43101  1  0
 43102  1  0
 43103  1  0
 44 45  1  0
 44104  1  6
 45105  1  0
M  END
>  <i_m_ct_stereo_status>  (354) 
1

>  <s_m_source_file>  (354) 
/var/tmp/pbs.5076255.sched01/tmppy4q9rbr/123plv7d954.sdf

>  <i_m_source_file_index>  (354) 
39

>  <i_lp_mmshare_version>  (354) 
48012

>  <i_f3d_flags>  (354) 
0

>  <s_epik_input>  (354) 
W0NIM11bQ0hdKFtDSDNdKVtDQEBIXTFbQ0gyXVtDSF09QyhbQ0BASF0yW09IXSlbQ0BIXTFbQ0gyXVtDQEBIXShbQ0gyXTMpW0NAQF0yKFtDSDNdKVtDQEhdKFtDQEBdMzRbQ0gzXSlbQ0gyXVtDSF09QzVbQ0BIXTZbQ0BdKFtDSDJdW0NIMl1bQ0BdNDVbQ0gzXSkoW0NIMl1bQ0gyXVtDQEhdKFtDSDNdKVtDQEBIXTZbQ0gzXSlDKD1PKU9bQ0gyXVtDSDJdW0NIMl1jN1tjSF1uW2NIXW43W0NIM10=

>  <s_epik_cmdline>  (354) 
J2VwaWtfcHl0aG9uJywgJy1waHQnLCAnMi4wJywgJy1waCcsICc3LjAnLCAnLXRuJywgJzgnLCAnLW1hJywgJzIwMCcsICctaW1hZScsICc8aW5maWxlLm1hZT4nLCAnLW9tYWUnLCAnPG91dGZpbGUubWFlPic=

>  <r_lp_tautomer_probability>  (354) 
1

>  <r_epik_Ionization_Penalty>  (354) 
0.810308

>  <r_epik_Ionization_Penalty_Charging>  (354) 
0.810307

>  <r_epik_Ionization_Penalty_Neutral>  (354) 
6.94381e-07

>  <r_epik_State_Penalty>  (354) 
0.842398

>  <r_epik_Charging_Adjusted_Penalty>  (354) 
1.65271

>  <i_epik_Tot_Q>  (354) 
0

>  <i_epik_Tot_abs_Q>  (354) 
0

>  <s_epik_Chemistry_Notes>  (354) 
This compound has an ester and may undergo hydrolysis at high or low pH.

>  <s_lp_Force_Field>  (354) 
OPLS3e

>  <r_lp_Energy>  (354) 
70.285

>  <b_lp_Chiralities_Consistent>  (354) 
1

>  <s_lp_Variant>  (354) 
114:0-2

>  <s_i_glide_gridfile>  (354) 
pfpi4k_grid

>  <i_i_glide_lignum>  (354) 
39

>  <i_i_glide_rotatable_bonds>  (354) 
8

>  <r_i_docking_score>  (354) 
-2.64004

>  <r_i_glide_ligand_efficiency>  (354) 
-0.0586675

>  <r_i_glide_ligand_efficiency_sa>  (354) 
-0.208674

>  <r_i_glide_ligand_efficiency_ln>  (354) 
-0.549245

>  <r_i_glide_gscore>  (354) 
-2.64004

>  <r_i_glide_lipo>  (354) 
-0.41264

>  <r_i_glide_hbond>  (354) 
-0.227047

>  <r_i_glide_metal>  (354) 
-0

>  <r_i_glide_rewards>  (354) 
-0.157484

>  <r_i_glide_evdw>  (354) 
-29.5172

>  <r_i_glide_ecoul>  (354) 
-3.60015

>  <r_i_glide_erotb>  (354) 
0.202839

>  <r_i_glide_esite>  (354) 
-0.0298224

>  <r_i_glide_emodel>  (354) 
-38.7503

>  <r_i_glide_energy>  (354) 
-33.1174

>  <r_i_glide_einternal>  (354) 
2.23118

>  <r_i_glide_intrahb_reward>  (354) 
-0

>  <i_i_glide_confnum>  (354) 
5

>  <i_i_glide_posenum>  (354) 
1

>  <r_i_glide_eff_state_penalty>  (354) 
0

>  <ligand_id>  (354) 
114

>  <original_smiles>  (354) 
CC(C)C1CC=C2C1CC1CC3(C)C(CC=C4C5C(C)C(C)CCC5(C(=O)OCCCc5cncn5C)CCC43C)C1(C)C2O

>  <smiles>  (354) 
[H]OC1([H])C2=C([H])C([H])([H])C([H])(C([H])(C([H])([H])[H])C([H])([H])[H])C2([H])C([H])([H])C2([H])C([H])([H])C3(C([H])([H])[H])C([H])(C([H])([H])C([H])=C4C5([H])C([H])(C([H])([H])[H])C([H])(C([H])([H])[H])C([H])([H])C([H])([H])C5(C(=O)OC([H])([H])C([H])([H])C([H])([H])c5c([H])nc([H])n5C([H])([H])[H])C([H])([H])C([H])([H])C43C([H])([H])[H])C12C([H])([H])[H]

$$$$
114:1:1
     RDKit          3D

105111  0  0  1  0  0  0  0  0999 V2000
   -1.7670    2.4234    2.8450 C   0  0  0  0  0  0  0  0  0  0  0  0
   -1.2948    2.7233    4.2833 C   0  0  0  0  0  0  0  0  0  0  0  0
   -1.5326    4.2095    4.6146 C   0  0  0  0  0  0  0  0  0  0  0  0
    0.1681    2.2965    4.5722 C   0  0  2  0  0  0  0  0  0  0  0  0
    1.2428    3.0619    3.7540 C   0  0  0  0  0  0  0  0  0  0  0  0
    2.2154    1.9921    3.3439 C   0  0  0  0  0  0  0  0  0  0  0  0
    1.7934    0.7714    3.6670 C   0  0  0  0  0  0  0  0  0  0  0  0
    0.4757    0.7736    4.3820 C   0  0  1  0  0  0  0  0  0  0  0  0
    0.5487   -0.0395    5.6909 C   0  0  0  0  0  0  0  0  0  0  0  0
    1.5163   -1.2610    5.7210 C   0  0  1  0  0  0  0  0  0  0  0  0
    0.8880   -2.6674    5.6564 C   0  0  0  0  0  0  0  0  0  0  0  0
    2.1026   -3.6230    5.5608 C   0  0  2  0  0  0  0  0  0  0  0  0
    2.7758   -3.7262    6.9710 C   0  0  0  0  0  0  0  0  0  0  0  0
    3.0035   -2.8397    4.5836 C   0  0  2  0  0  0  0  0  0  0  0  0
    4.4195   -3.4375    4.5664 C   0  0  0  0  0  0  0  0  0  0  0  0
    4.3269   -4.9472    4.3579 C   0  0  0  0  0  0  0  0  0  0  0  0
    3.1919   -5.6876    4.4770 C   0  0  0  0  0  0  0  0  0  0  0  0
    3.0641   -7.1392    3.9613 C   0  0  2  0  0  0  0  0  0  0  0  0
    4.3874   -7.9784    3.8223 C   0  0  1  0  0  0  0  0  0  0  0  0
    5.2188   -8.0118    5.1193 C   0  0  0  0  0  0  0  0  0  0  0  0
    4.0708   -9.4182    3.3196 C   0  0  1  0  0  0  0  0  0  0  0  0
    3.3879  -10.3231    4.3668 C   0  0  0  0  0  0  0  0  0  0  0  0
    3.2546   -9.3872    2.0140 C   0  0  0  0  0  0  0  0  0  0  0  0
    1.9378   -8.6016    2.1962 C   0  0  0  0  0  0  0  0  0  0  0  0
    2.1458   -7.1329    2.6711 C   0  0  2  0  0  0  0  0  0  0  0  0
    2.6967   -6.3081    1.4757 C   0  0  0  0  0  0  0  0  0  0  0  0
    1.9257   -5.7153    0.7005 O   0  0  0  0  0  0  0  0  0  0  0  0
    4.0345   -6.3964    1.3214 O   0  0  0  0  0  0  0  0  0  0  0  0
    4.8572   -5.2642    1.1247 C   0  0  0  0  0  0  0  0  0  0  0  0
    4.3282   -4.2018    0.1668 C   0  0  0  0  0  0  0  0  0  0  0  0
    5.1934   -4.0440   -1.0842 C   0  0  0  0  0  0  0  0  0  0  0  0
    4.5477   -3.1507   -2.0852 C   0  0  0  0  0  0  0  0  0  0  0  0
    4.1713   -3.4005   -3.3801 C   0  0  0  0  0  0  0  0  0  0  0  0
    3.5686   -2.2805   -3.9378 N   0  0  0  0  0  0  0  0  0  0  0  0
    3.5462   -1.4118   -2.9200 C   0  0  0  0  0  0  0  0  0  0  0  0
    4.0991   -1.8522   -1.7972 N   0  0  0  0  0  0  0  0  0  0  0  0
    4.2158   -1.1263   -0.5380 C   0  0  0  0  0  0  0  0  0  0  0  0
    0.7601   -6.5426    3.1114 C   0  0  0  0  0  0  0  0  0  0  0  0
    0.8506   -5.1493    3.8033 C   0  0  0  0  0  0  0  0  0  0  0  0
    1.8546   -5.0889    4.9944 C   0  0  2  0  0  0  0  0  0  0  0  0
    1.2593   -5.9805    6.1253 C   0  0  0  0  0  0  0  0  0  0  0  0
    2.7453   -1.2956    4.7547 C   0  0  2  0  0  0  0  0  0  0  0  0
    3.9545   -0.5794    5.4094 C   0  0  0  0  0  0  0  0  0  0  0  0
    2.4372   -0.5706    3.3951 C   0  0  1  0  0  0  0  0  0  0  0  0
    1.5544   -1.3094    2.5640 O   0  0  0  0  0  0  0  0  0  0  0  0
   -1.1627    2.9500    2.1065 H   0  0  0  0  0  0  0  0  0  0  0  0
   -2.8014    2.7354    2.6982 H   0  0  0  0  0  0  0  0  0  0  0  0
   -1.7268    1.3615    2.6060 H   0  0  0  0  0  0  0  0  0  0  0  0
   -1.9332    2.1504    4.9586 H   0  0  0  0  0  0  0  0  0  0  0  0
   -0.8923    4.8618    4.0188 H   0  0  0  0  0  0  0  0  0  0  0  0
   -1.3435    4.4264    5.6673 H   0  0  0  0  0  0  0  0  0  0  0  0
   -2.5639    4.4849    4.3984 H   0  0  0  0  0  0  0  0  0  0  0  0
    0.3704    2.5569    5.6125 H   0  0  0  0  0  0  0  0  0  0  0  0
    0.8433    3.5314    2.8584 H   0  0  0  0  0  0  0  0  0  0  0  0
    1.7318    3.8444    4.3357 H   0  0  0  0  0  0  0  0  0  0  0  0
    3.1274    2.2156    2.8136 H   0  0  0  0  0  0  0  0  0  0  0  0
   -0.2292    0.2817    3.7120 H   0  0  0  0  0  0  0  0  0  0  0  0
    0.8540    0.6259    6.5035 H   0  0  0  0  0  0  0  0  0  0  0  0
   -0.4584   -0.3646    5.9468 H   0  0  0  0  0  0  0  0  0  0  0  0
    1.9193   -1.2044    6.7279 H   0  0  0  0  0  0  0  0  0  0  0  0
    0.2654   -2.8860    6.5276 H   0  0  0  0  0  0  0  0  0  0  0  0
    0.2613   -2.7308    4.7663 H   0  0  0  0  0  0  0  0  0  0  0  0
    3.5592   -4.4853    7.0087 H   0  0  0  0  0  0  0  0  0  0  0  0
    2.0550   -3.9838    7.7466 H   0  0  0  0  0  0  0  0  0  0  0  0
    3.2498   -2.8036    7.2905 H   0  0  0  0  0  0  0  0  0  0  0  0
    2.6570   -3.0876    3.5887 H   0  0  0  0  0  0  0  0  0  0  0  0
    4.9617   -3.0142    3.7229 H   0  0  0  0  0  0  0  0  0  0  0  0
    5.0007   -3.2162    5.4627 H   0  0  0  0  0  0  0  0  0  0  0  0
    5.2373   -5.4010    3.9959 H   0  0  0  0  0  0  0  0  0  0  0  0
    2.5171   -7.6841    4.7279 H   0  0  0  0  0  0  0  0  0  0  0  0
    5.0606   -7.5403    3.0848 H   0  0  0  0  0  0  0  0  0  0  0  0
    4.6193   -8.3285    5.9740 H   0  0  0  0  0  0  0  0  0  0  0  0
    5.6406   -7.0389    5.3622 H   0  0  0  0  0  0  0  0  0  0  0  0
    6.0642   -8.6924    5.0090 H   0  0  0  0  0  0  0  0  0  0  0  0
    5.0203   -9.8955    3.0740 H   0  0  0  0  0  0  0  0  0  0  0  0
    2.4404   -9.9147    4.7169 H   0  0  0  0  0  0  0  0  0  0  0  0
    4.0261  -10.4701    5.2359 H   0  0  0  0  0  0  0  0  0  0  0  0
    3.1824  -11.3092    3.9481 H   0  0  0  0  0  0  0  0  0  0  0  0
    3.8524   -8.9687    1.2016 H   0  0  0  0  0  0  0  0  0  0  0  0
    3.0260  -10.4027    1.6830 H   0  0  0  0  0  0  0  0  0  0  0  0
    1.4229   -8.5950    1.2380 H   0  0  0  0  0  0  0  0  0  0  0  0
    1.2837   -9.1504    2.8813 H   0  0  0  0  0  0  0  0  0  0  0  0
    5.0103   -4.7612    2.0770 H   0  0  0  0  0  0  0  0  0  0  0  0
    5.8730   -5.5939    0.8647 H   0  0  0  0  0  0  0  0  0  0  0  0
    3.3315   -4.3792   -0.1937 H   0  0  0  0  0  0  0  0  0  0  0  0
    4.3087   -3.2815    0.7666 H   0  0  0  0  0  0  0  0  0  0  0  0
    6.2228   -3.7024   -0.8688 H   0  0  0  0  0  0  0  0  0  0  0  0
    5.2714   -5.0415   -1.5170 H   0  0  0  0  0  0  0  0  0  0  0  0
    4.2885   -4.3127   -3.9579 H   0  0  0  0  0  0  0  0  0  0  0  0
    3.1237   -0.4206   -2.9954 H   0  0  0  0  0  0  0  0  0  0  0  0
    4.2150   -0.0541   -0.7204 H   0  0  0  0  0  0  0  0  0  0  0  0
    5.1456   -1.3933   -0.0299 H   0  0  0  0  0  0  0  0  0  0  0  0
    3.3609   -1.3540    0.1055 H   0  0  0  0  0  0  0  0  0  0  0  0
    0.1260   -6.4407    2.2372 H   0  0  0  0  0  0  0  0  0  0  0  0
    0.2205   -7.2574    3.7411 H   0  0  0  0  0  0  0  0  0  0  0  0
    1.0773   -4.3923    3.0503 H   0  0  0  0  0  0  0  0  0  0  0  0
   -0.1465   -4.8929    4.1562 H   0  0  0  0  0  0  0  0  0  0  0  0
    0.4596   -5.4728    6.6618 H   0  0  0  0  0  0  0  0  0  0  0  0
    2.0249   -6.2740    6.8432 H   0  0  0  0  0  0  0  0  0  0  0  0
    0.8292   -6.9131    5.7663 H   0  0  0  0  0  0  0  0  0  0  0  0
    4.8195   -0.5769    4.7471 H   0  0  0  0  0  0  0  0  0  0  0  0
    4.2664   -1.0496    6.3405 H   0  0  0  0  0  0  0  0  0  0  0  0
    3.7274    0.4613    5.6420 H   0  0  0  0  0  0  0  0  0  0  0  0
    3.3611   -0.4186    2.8339 H   0  0  0  0  0  0  0  0  0  0  0  0
    1.4916   -0.8739    1.7246 H   0  0  0  0  0  0  0  0  0  0  0  0
  1  2  1  0
  1 46  1  0
  1 47  1  0
  1 48  1  0
  2  3  1  0
  2  4  1  0
  2 49  1  0
  3 50  1  0
  3 51  1  0
  3 52  1  0
  4  8  1  0
  4  5  1  0
  4 53  1  1
  5  6  1  0
  5 54  1  0
  5 55  1  0
  6  7  2  0
  6 56  1  0
  7 44  1  0
  7  8  1  0
  8  9  1  0
  8 57  1  6
  9 10  1  0
  9 58  1  0
  9 59  1  0
 10 42  1  0
 10 11  1  0
 10 60  1  1
 11 12  1  0
 11 61  1  0
 11 62  1  0
 12 40  1  0
 12 13  1  1
 12 14  1  0
 13 63  1  0
 13 64  1  0
 13 65  1  0
 14 15  1  0
 14 42  1  0
 14 66  1  6
 15 16  1  0
 15 67  1  0
 15 68  1  0
 16 17  2  0
 16 69  1  0
 17 40  1  0
 17 18  1  0
 18 25  1  0
 18 19  1  0
 18 70  1  1
 19 20  1  0
 19 21  1  0
 19 71  1  6
 20 72  1  0
 20 73  1  0
 20 74  1  0
 21 22  1  0
 21 23  1  0
 21 75  1  6
 22 76  1  0
 22 77  1  0
 22 78  1  0
 23 24  1  0
 23 79  1  0
 23 80  1  0
 24 25  1  0
 24 81  1  0
 24 82  1  0
 25 26  1  6
 25 38  1  0
 26 27  2  0
 26 28  1  0
 28 29  1  0
 29 30  1  0
 29 83  1  0
 29 84  1  0
 30 31  1  0
 30 85  1  0
 30 86  1  0
 31 32  1  0
 31 87  1  0
 31 88  1  0
 32 36  1  0
 32 33  2  0
 33 34  1  0
 33 89  1  0
 34 35  2  0
 35 36  1  0
 35 90  1  0
 36 37  1  0
 37 91  1  0
 37 92  1  0
 37 93  1  0
 38 39  1  0
 38 94  1  0
 38 95  1  0
 39 40  1  0
 39 96  1  0
 39 97  1  0
 40 41  1  1
 41 98  1  0
 41 99  1  0
 41100  1  0
 42 43  1  1
 42 44  1  0
 43101  1  0
 43102  1  0
 43103  1  0
 44 45  1  0
 44104  1  6
 45105  1  0
M  END
>  <i_m_ct_stereo_status>  (355) 
1

>  <s_m_source_file>  (355) 
/var/tmp/pbs.5076255.sched01/tmppy4q9rbr/123plv7d954.sdf

>  <i_m_source_file_index>  (355) 
39

>  <i_lp_mmshare_version>  (355) 
48012

>  <i_f3d_flags>  (355) 
0

>  <s_epik_input>  (355) 
W0NIM11bQ0hdKFtDSDNdKVtDQEBIXTFbQ0gyXVtDSF09QyhbQ0BASF0yW09IXSlbQ0BIXTFbQ0gyXVtDQEBIXShbQ0gyXTMpW0NAQF0yKFtDSDNdKVtDQEhdKFtDQEBdMzRbQ0gzXSlbQ0gyXVtDSF09QzVbQ0BIXTZbQ0BdKFtDSDJdW0NIMl1bQ0BdNDVbQ0gzXSkoW0NIMl1bQ0gyXVtDQEhdKFtDSDNdKVtDQEBIXTZbQ0gzXSlDKD1PKU9bQ0gyXVtDSDJdW0NIMl1jN1tjSF1uW2NIXW43W0NIM10=

>  <s_epik_cmdline>  (355) 
J2VwaWtfcHl0aG9uJywgJy1waHQnLCAnMi4wJywgJy1waCcsICc3LjAnLCAnLXRuJywgJzgnLCAnLW1hJywgJzIwMCcsICctaW1hZScsICc8aW5maWxlLm1hZT4nLCAnLW9tYWUnLCAnPG91dGZpbGUubWFlPic=

>  <r_lp_tautomer_probability>  (355) 
1

>  <r_epik_Ionization_Penalty>  (355) 
0.810308

>  <r_epik_Ionization_Penalty_Charging>  (355) 
0.810307

>  <r_epik_Ionization_Penalty_Neutral>  (355) 
6.94381e-07

>  <r_epik_State_Penalty>  (355) 
0.842398

>  <r_epik_Charging_Adjusted_Penalty>  (355) 
1.65271

>  <i_epik_Tot_Q>  (355) 
0

>  <i_epik_Tot_abs_Q>  (355) 
0

>  <s_epik_Chemistry_Notes>  (355) 
This compound has an ester and may undergo hydrolysis at high or low pH.

>  <s_lp_Force_Field>  (355) 
OPLS3e

>  <r_lp_Energy>  (355) 
70.285

>  <b_lp_Chiralities_Consistent>  (355) 
1

>  <s_lp_Variant>  (355) 
114:0-2

>  <s_i_glide_gridfile>  (355) 
pfpi4k_grid

>  <i_i_glide_lignum>  (355) 
39

>  <i_i_glide_rotatable_bonds>  (355) 
8

>  <r_i_docking_score>  (355) 
-2.59748

>  <r_i_glide_ligand_efficiency>  (355) 
-0.0577217

>  <r_i_glide_ligand_efficiency_sa>  (355) 
-0.20531

>  <r_i_glide_ligand_efficiency_ln>  (355) 
-0.540391

>  <r_i_glide_gscore>  (355) 
-2.59748

>  <r_i_glide_lipo>  (355) 
-0.22306

>  <r_i_glide_hbond>  (355) 
-0.164876

>  <r_i_glide_metal>  (355) 
-0

>  <r_i_glide_rewards>  (355) 
0

>  <r_i_glide_evdw>  (355) 
-37.5604

>  <r_i_glide_ecoul>  (355) 
-3.22047

>  <r_i_glide_erotb>  (355) 
0.202839

>  <r_i_glide_esite>  (355) 
-0.0512894

>  <r_i_glide_emodel>  (355) 
-36.8141

>  <r_i_glide_energy>  (355) 
-40.7809

>  <r_i_glide_einternal>  (355) 
18.4553

>  <r_i_glide_intrahb_reward>  (355) 
-0

>  <i_i_glide_confnum>  (355) 
5

>  <i_i_glide_posenum>  (355) 
18

>  <r_i_glide_eff_state_penalty>  (355) 
0

>  <ligand_id>  (355) 
114

>  <original_smiles>  (355) 
CC(C)C1CC=C2C1CC1CC3(C)C(CC=C4C5C(C)C(C)CCC5(C(=O)OCCCc5cncn5C)CCC43C)C1(C)C2O

>  <smiles>  (355) 
[H]OC1([H])C2=C([H])C([H])([H])C([H])(C([H])(C([H])([H])[H])C([H])([H])[H])C2([H])C([H])([H])C2([H])C([H])([H])C3(C([H])([H])[H])C([H])(C([H])([H])C([H])=C4C5([H])C([H])(C([H])([H])[H])C([H])(C([H])([H])[H])C([H])([H])C([H])([H])C5(C(=O)OC([H])([H])C([H])([H])C([H])([H])c5c([H])nc([H])n5C([H])([H])[H])C([H])([H])C([H])([H])C43C([H])([H])[H])C12C([H])([H])[H]

$$$$
114:1:2
     RDKit          3D

105111  0  0  1  0  0  0  0  0999 V2000
   -1.0621    3.9897    3.6818 C   0  0  0  0  0  0  0  0  0  0  0  0
   -0.9666    2.4596    3.5715 C   0  0  0  0  0  0  0  0  0  0  0  0
   -2.1162    1.8181    4.3600 C   0  0  0  0  0  0  0  0  0  0  0  0
    0.4070    1.9443    4.0476 C   0  0  2  0  0  0  0  0  0  0  0  0
    1.6212    2.5059    3.2325 C   0  0  0  0  0  0  0  0  0  0  0  0
    2.5228    1.3186    3.0536 C   0  0  0  0  0  0  0  0  0  0  0  0
    1.9430    0.1934    3.4543 C   0  0  0  0  0  0  0  0  0  0  0  0
    0.5807    0.3861    4.0162 C   0  0  1  0  0  0  0  0  0  0  0  0
    0.4598   -0.3131    5.3905 C   0  0  0  0  0  0  0  0  0  0  0  0
    1.2903   -1.6169    5.6166 C   0  0  1  0  0  0  0  0  0  0  0  0
    0.5402   -2.9616    5.6160 C   0  0  0  0  0  0  0  0  0  0  0  0
    1.6657   -4.0246    5.7235 C   0  0  2  0  0  0  0  0  0  0  0  0
    2.1967   -4.0446    7.1916 C   0  0  0  0  0  0  0  0  0  0  0  0
    2.7131   -3.4133    4.7647 C   0  0  2  0  0  0  0  0  0  0  0  0
    4.0612   -4.1400    4.9087 C   0  0  0  0  0  0  0  0  0  0  0  0
    3.8416   -5.6447    4.7766 C   0  0  0  0  0  0  0  0  0  0  0  0
    2.6423   -6.2655    4.9009 C   0  0  0  0  0  0  0  0  0  0  0  0
    2.4111   -7.7316    4.4980 C   0  0  2  0  0  0  0  0  0  0  0  0
    3.6409   -8.6928    4.5864 C   0  0  1  0  0  0  0  0  0  0  0  0
    4.3474   -8.6785    5.9582 C   0  0  0  0  0  0  0  0  0  0  0  0
    3.2319  -10.1439    4.2032 C   0  0  1  0  0  0  0  0  0  0  0  0
    2.3816  -10.8831    5.2685 C   0  0  0  0  0  0  0  0  0  0  0  0
    2.5393  -10.1779    2.8280 C   0  0  0  0  0  0  0  0  0  0  0  0
    1.3065   -9.2483    2.8019 C   0  0  0  0  0  0  0  0  0  0  0  0
    1.6308   -7.7732    3.1410 C   0  0  2  0  0  0  0  0  0  0  0  0
    2.3997   -7.1105    1.9629 C   0  0  0  0  0  0  0  0  0  0  0  0
    3.5869   -7.3420    1.7577 O   0  0  0  0  0  0  0  0  0  0  0  0
    1.6481   -6.3007    1.1719 O   0  0  0  0  0  0  0  0  0  0  0  0
    2.2631   -5.5625    0.1257 C   0  0  0  0  0  0  0  0  0  0  0  0
    2.9303   -4.3033    0.6736 C   0  0  0  0  0  0  0  0  0  0  0  0
    3.4727   -3.3501   -0.4047 C   0  0  0  0  0  0  0  0  0  0  0  0
    4.3169   -2.2436    0.1352 C   0  0  0  0  0  0  0  0  0  0  0  0
    3.9676   -0.9353    0.3849 C   0  0  0  0  0  0  0  0  0  0  0  0
    5.0999   -0.2551    0.9320 N   0  0  0  0  0  0  0  0  0  0  0  0
    6.0429   -1.1899    0.9422 C   0  0  0  0  0  0  0  0  0  0  0  0
    5.6678   -2.3739    0.4684 N   0  0  0  0  0  0  0  0  0  0  0  0
    6.4955   -3.5540    0.3674 C   0  0  0  0  0  0  0  0  0  0  0  0
    0.2742   -7.0332    3.4174 C   0  0  0  0  0  0  0  0  0  0  0  0
    0.4228   -5.5917    4.0015 C   0  0  0  0  0  0  0  0  0  0  0  0
    1.3406   -5.5110    5.2557 C   0  0  2  0  0  0  0  0  0  0  0  0
    0.5577   -6.2192    6.4132 C   0  0  0  0  0  0  0  0  0  0  0  0
    2.5935   -1.8467    4.8068 C   0  0  2  0  0  0  0  0  0  0  0  0
    3.8098   -1.1873    5.4932 C   0  0  0  0  0  0  0  0  0  0  0  0
    2.4650   -1.2105    3.3929 C   0  0  1  0  0  0  0  0  0  0  0  0
    1.5232   -1.8660    2.5883 O   0  0  0  0  0  0  0  0  0  0  0  0
   -0.9145    4.3235    4.7076 H   0  0  0  0  0  0  0  0  0  0  0  0
   -2.0374    4.3383    3.3470 H   0  0  0  0  0  0  0  0  0  0  0  0
   -0.3160    4.4839    3.0605 H   0  0  0  0  0  0  0  0  0  0  0  0
   -1.0906    2.1938    2.5192 H   0  0  0  0  0  0  0  0  0  0  0  0
   -2.0152    1.9933    5.4298 H   0  0  0  0  0  0  0  0  0  0  0  0
   -2.1664    0.7427    4.1968 H   0  0  0  0  0  0  0  0  0  0  0  0
   -3.0693    2.2317    4.0375 H   0  0  0  0  0  0  0  0  0  0  0  0
    0.5584    2.2738    5.0718 H   0  0  0  0  0  0  0  0  0  0  0  0
    1.3213    2.8849    2.2478 H   0  0  0  0  0  0  0  0  0  0  0  0
    2.1329    3.3023    3.7735 H   0  0  0  0  0  0  0  0  0  0  0  0
    3.4877    1.3965    2.5715 H   0  0  0  0  0  0  0  0  0  0  0  0
   -0.1053   -0.0530    3.2947 H   0  0  0  0  0  0  0  0  0  0  0  0
    0.7613    0.3911    6.1546 H   0  0  0  0  0  0  0  0  0  0  0  0
   -0.5976   -0.5248    5.5661 H   0  0  0  0  0  0  0  0  0  0  0  0
    1.6080   -1.4944    6.6529 H   0  0  0  0  0  0  0  0  0  0  0  0
   -0.1732   -3.0301    6.4338 H   0  0  0  0  0  0  0  0  0  0  0  0
   -0.0052   -3.0512    4.6761 H   0  0  0  0  0  0  0  0  0  0  0  0
    2.8943   -4.8646    7.3735 H   0  0  0  0  0  0  0  0  0  0  0  0
    1.3872   -4.1591    7.9146 H   0  0  0  0  0  0  0  0  0  0  0  0
    2.7261   -3.1408    7.4752 H   0  0  0  0  0  0  0  0  0  0  0  0
    2.4217   -3.7041    3.7616 H   0  0  0  0  0  0  0  0  0  0  0  0
    4.7305   -3.8272    4.1047 H   0  0  0  0  0  0  0  0  0  0  0  0
    4.5701   -3.9274    5.8526 H   0  0  0  0  0  0  0  0  0  0  0  0
    4.7209   -6.1994    4.4871 H   0  0  0  0  0  0  0  0  0  0  0  0
    1.7467   -8.1455    5.2502 H   0  0  0  0  0  0  0  0  0  0  0  0
    4.3903   -8.3876    3.8566 H   0  0  0  0  0  0  0  0  0  0  0  0
    3.6492   -8.8633    6.7768 H   0  0  0  0  0  0  0  0  0  0  0  0
    4.8390   -7.7296    6.1658 H   0  0  0  0  0  0  0  0  0  0  0  0
    5.1215   -9.4458    6.0072 H   0  0  0  0  0  0  0  0  0  0  0  0
    4.1466  -10.7367    4.1088 H   0  0  0  0  0  0  0  0  0  0  0  0
    1.4455  -10.3685    5.4955 H   0  0  0  0  0  0  0  0  0  0  0  0
    2.9234  -11.0084    6.2071 H   0  0  0  0  0  0  0  0  0  0  0  0
    2.1168  -11.8895    4.9309 H   0  0  0  0  0  0  0  0  0  0  0  0
    3.2525   -9.9101    2.0538 H   0  0  0  0  0  0  0  0  0  0  0  0
    2.2432  -11.2001    2.5902 H   0  0  0  0  0  0  0  0  0  0  0  0
    0.8828   -9.3056    1.7970 H   0  0  0  0  0  0  0  0  0  0  0  0
    0.5521   -9.6436    3.4717 H   0  0  0  0  0  0  0  0  0  0  0  0
    2.9826   -6.1830   -0.3931 H   0  0  0  0  0  0  0  0  0  0  0  0
    1.4760   -5.2831   -0.5773 H   0  0  0  0  0  0  0  0  0  0  0  0
    2.1802   -3.8080    1.2515 H   0  0  0  0  0  0  0  0  0  0  0  0
    3.7339   -4.5732    1.3612 H   0  0  0  0  0  0  0  0  0  0  0  0
    4.0476   -3.9278   -1.1344 H   0  0  0  0  0  0  0  0  0  0  0  0
    2.6330   -2.9220   -0.9625 H   0  0  0  0  0  0  0  0  0  0  0  0
    3.0298   -0.4278    0.2894 H   0  0  0  0  0  0  0  0  0  0  0  0
    7.0287   -0.9846    1.3035 H   0  0  0  0  0  0  0  0  0  0  0  0
    7.5401   -3.2702    0.2934 H   0  0  0  0  0  0  0  0  0  0  0  0
    6.2404   -4.1211   -0.5302 H   0  0  0  0  0  0  0  0  0  0  0  0
    6.3573   -4.1886    1.2392 H   0  0  0  0  0  0  0  0  0  0  0  0
   -0.2980   -6.9508    2.4886 H   0  0  0  0  0  0  0  0  0  0  0  0
   -0.3614   -7.6286    4.0531 H   0  0  0  0  0  0  0  0  0  0  0  0
    0.7814   -4.9234    3.2254 H   0  0  0  0  0  0  0  0  0  0  0  0
   -0.5689   -5.2309    4.2672 H   0  0  0  0  0  0  0  0  0  0  0  0
   -0.2359   -5.5917    6.8150 H   0  0  0  0  0  0  0  0  0  0  0  0
    1.2150   -6.5092    7.2339 H   0  0  0  0  0  0  0  0  0  0  0  0
    0.0628   -7.1424    6.1030 H   0  0  0  0  0  0  0  0  0  0  0  0
    4.7218   -1.3316    4.9126 H   0  0  0  0  0  0  0  0  0  0  0  0
    3.9951   -1.5898    6.4854 H   0  0  0  0  0  0  0  0  0  0  0  0
    3.6714   -0.1129    5.6020 H   0  0  0  0  0  0  0  0  0  0  0  0
    3.4342   -1.2401    2.9213 H   0  0  0  0  0  0  0  0  0  0  0  0
    1.6082   -1.5486    1.7021 H   0  0  0  0  0  0  0  0  0  0  0  0
  1  2  1  0
  1 46  1  0
  1 47  1  0
  1 48  1  0
  2  3  1  0
  2  4  1  0
  2 49  1  0
  3 50  1  0
  3 51  1  0
  3 52  1  0
  4  8  1  0
  4  5  1  0
  4 53  1  1
  5  6  1  0
  5 54  1  0
  5 55  1  0
  6  7  2  0
  6 56  1  0
  7 44  1  0
  7  8  1  0
  8  9  1  0
  8 57  1  6
  9 10  1  0
  9 58  1  0
  9 59  1  0
 10 42  1  0
 10 11  1  0
 10 60  1  1
 11 12  1  0
 11 61  1  0
 11 62  1  0
 12 40  1  0
 12 13  1  1
 12 14  1  0
 13 63  1  0
 13 64  1  0
 13 65  1  0
 14 15  1  0
 14 42  1  0
 14 66  1  6
 15 16  1  0
 15 67  1  0
 15 68  1  0
 16 17  2  0
 16 69  1  0
 17 40  1  0
 17 18  1  0
 18 25  1  0
 18 19  1  0
 18 70  1  1
 19 20  1  0
 19 21  1  0
 19 71  1  6
 20 72  1  0
 20 73  1  0
 20 74  1  0
 21 22  1  0
 21 23  1  0
 21 75  1  6
 22 76  1  0
 22 77  1  0
 22 78  1  0
 23 24  1  0
 23 79  1  0
 23 80  1  0
 24 25  1  0
 24 81  1  0
 24 82  1  0
 25 26  1  6
 25 38  1  0
 26 27  2  0
 26 28  1  0
 28 29  1  0
 29 30  1  0
 29 83  1  0
 29 84  1  0
 30 31  1  0
 30 85  1  0
 30 86  1  0
 31 32  1  0
 31 87  1  0
 31 88  1  0
 32 36  1  0
 32 33  2  0
 33 34  1  0
 33 89  1  0
 34 35  2  0
 35 36  1  0
 35 90  1  0
 36 37  1  0
 37 91  1  0
 37 92  1  0
 37 93  1  0
 38 39  1  0
 38 94  1  0
 38 95  1  0
 39 40  1  0
 39 96  1  0
 39 97  1  0
 40 41  1  1
 41 98  1  0
 41 99  1  0
 41100  1  0
 42 43  1  1
 42 44  1  0
 43101  1  0
 43102  1  0
 43103  1  0
 44 45  1  0
 44104  1  6
 45105  1  0
M  END
>  <i_m_ct_stereo_status>  (356) 
1

>  <s_m_source_file>  (356) 
/var/tmp/pbs.5076255.sched01/tmppy4q9rbr/123plv7d954.sdf

>  <i_m_source_file_index>  (356) 
39

>  <i_lp_mmshare_version>  (356) 
48012

>  <i_f3d_flags>  (356) 
0

>  <s_epik_input>  (356) 
W0NIM11bQ0hdKFtDSDNdKVtDQEBIXTFbQ0gyXVtDSF09QyhbQ0BASF0yW09IXSlbQ0BIXTFbQ0gyXVtDQEBIXShbQ0gyXTMpW0NAQF0yKFtDSDNdKVtDQEhdKFtDQEBdMzRbQ0gzXSlbQ0gyXVtDSF09QzVbQ0BIXTZbQ0BdKFtDSDJdW0NIMl1bQ0BdNDVbQ0gzXSkoW0NIMl1bQ0gyXVtDQEhdKFtDSDNdKVtDQEBIXTZbQ0gzXSlDKD1PKU9bQ0gyXVtDSDJdW0NIMl1jN1tjSF1uW2NIXW43W0NIM10=

>  <s_epik_cmdline>  (356) 
J2VwaWtfcHl0aG9uJywgJy1waHQnLCAnMi4wJywgJy1waCcsICc3LjAnLCAnLXRuJywgJzgnLCAnLW1hJywgJzIwMCcsICctaW1hZScsICc8aW5maWxlLm1hZT4nLCAnLW9tYWUnLCAnPG91dGZpbGUubWFlPic=

>  <r_lp_tautomer_probability>  (356) 
1

>  <r_epik_Ionization_Penalty>  (356) 
0.810308

>  <r_epik_Ionization_Penalty_Charging>  (356) 
0.810307

>  <r_epik_Ionization_Penalty_Neutral>  (356) 
6.94381e-07

>  <r_epik_State_Penalty>  (356) 
0.842398

>  <r_epik_Charging_Adjusted_Penalty>  (356) 
1.65271

>  <i_epik_Tot_Q>  (356) 
0

>  <i_epik_Tot_abs_Q>  (356) 
0

>  <s_epik_Chemistry_Notes>  (356) 
This compound has an ester and may undergo hydrolysis at high or low pH.

>  <s_lp_Force_Field>  (356) 
OPLS3e

>  <r_lp_Energy>  (356) 
70.285

>  <b_lp_Chiralities_Consistent>  (356) 
1

>  <s_lp_Variant>  (356) 
114:0-2

>  <s_i_glide_gridfile>  (356) 
pfpi4k_grid

>  <i_i_glide_lignum>  (356) 
39

>  <i_i_glide_rotatable_bonds>  (356) 
8

>  <r_i_docking_score>  (356) 
-2.20323

>  <r_i_glide_ligand_efficiency>  (356) 
-0.0489607

>  <r_i_glide_ligand_efficiency_sa>  (356) 
-0.174148

>  <r_i_glide_ligand_efficiency_ln>  (356) 
-0.45837

>  <r_i_glide_gscore>  (356) 
-2.20323

>  <r_i_glide_lipo>  (356) 
-0.172491

>  <r_i_glide_hbond>  (356) 
-0.0259157

>  <r_i_glide_metal>  (356) 
-0

>  <r_i_glide_rewards>  (356) 
-0.263265

>  <r_i_glide_evdw>  (356) 
-33.7481

>  <r_i_glide_ecoul>  (356) 
-1.65859

>  <r_i_glide_erotb>  (356) 
0.202839

>  <r_i_glide_esite>  (356) 
-0.0082061

>  <r_i_glide_emodel>  (356) 
-38.3971

>  <r_i_glide_energy>  (356) 
-35.4067

>  <r_i_glide_einternal>  (356) 
4.36986

>  <r_i_glide_intrahb_reward>  (356) 
-0

>  <i_i_glide_confnum>  (356) 
5

>  <i_i_glide_posenum>  (356) 
23

>  <r_i_glide_eff_state_penalty>  (356) 
0

>  <ligand_id>  (356) 
114

>  <original_smiles>  (356) 
CC(C)C1CC=C2C1CC1CC3(C)C(CC=C4C5C(C)C(C)CCC5(C(=O)OCCCc5cncn5C)CCC43C)C1(C)C2O

>  <smiles>  (356) 
[H]OC1([H])C2=C([H])C([H])([H])C([H])(C([H])(C([H])([H])[H])C([H])([H])[H])C2([H])C([H])([H])C2([H])C([H])([H])C3(C([H])([H])[H])C([H])(C([H])([H])C([H])=C4C5([H])C([H])(C([H])([H])[H])C([H])(C([H])([H])[H])C([H])([H])C([H])([H])C5(C(=O)OC([H])([H])C([H])([H])C([H])([H])c5c([H])nc([H])n5C([H])([H])[H])C([H])([H])C([H])([H])C43C([H])([H])[H])C12C([H])([H])[H]

$$$$
115:0:0
     RDKit          3D

 55 59  0  0  1  0  0  0  0  0999 V2000
    6.1722   -5.1038    1.0598 C   0  0  0  0  0  0  0  0  0  0  0  0
    4.8271   -4.5280    0.6268 C   0  0  0  0  0  0  0  0  0  0  0  0
    3.8642   -5.2213    0.8991 O   0  0  0  0  0  0  0  0  0  0  0  0
    4.7791   -3.1562   -0.1436 C   0  0  1  0  0  0  0  0  0  0  0  0
    5.6659   -3.4101   -1.4250 C   0  0  1  0  0  0  0  0  0  0  0  0
    5.0394   -4.4438   -2.3632 C   0  0  0  0  0  0  0  0  0  0  0  0
    3.9782   -3.7059   -3.1889 C   0  0  0  0  0  0  0  0  0  0  0  0
    3.9844   -2.3671   -2.4103 C   0  0  2  0  0  0  0  0  0  0  0  0
    3.3067   -1.2600   -3.2490 C   0  0  0  0  0  0  0  0  0  0  0  0
    3.7654   -0.8927   -4.3362 O   0  0  0  0  0  0  0  0  0  0  0  0
    5.5213   -2.2552   -2.3870 C   0  0  0  0  0  0  0  0  0  0  0  0
    3.4802   -2.5956   -0.8853 C   0  0  1  0  0  0  0  0  0  0  0  0
    2.1696   -3.4705   -1.0099 C   0  0  0  0  0  0  0  0  0  0  0  0
    1.4574   -3.2604   -2.0219 O   0  0  0  0  0  0  0  0  0  0  0  0
    1.8220   -4.3365   -0.1924 O   0  0  0  0  0  0  0  0  0  0  0  0
    3.2337   -1.2354   -0.1115 C   0  0  2  0  0  0  0  0  0  0  0  0
    4.6488   -0.6541    0.0657 C   0  0  0  0  0  0  0  0  0  0  0  0
    5.1674   -1.8967    0.8241 C   0  0  2  0  0  0  0  0  0  0  0  0
    6.6315   -1.7362    1.2671 C   0  0  0  0  0  0  0  0  0  0  0  0
    6.6082   -0.6511    2.1626 O   0  0  0  0  0  0  0  0  0  0  0  0
    7.5379   -1.5323    0.1940 O   0  0  0  0  0  0  0  0  0  0  0  0
    4.1955   -1.6685    2.0483 C   0  0  2  0  0  0  0  0  0  0  0  0
    3.4335   -2.7680    2.7161 C   0  0  0  0  0  0  0  0  0  0  0  0
    3.8659   -3.6896    3.8474 C   0  0  0  0  0  0  0  0  0  0  0  0
    2.7544   -4.6643    4.2647 C   0  0  0  0  0  0  0  0  0  0  0  0
    4.4154   -2.9221    5.0673 C   0  0  0  0  0  0  0  0  0  0  0  0
    2.2882   -2.5269    2.0751 C   0  0  0  0  0  0  0  0  0  0  0  0
    2.8702   -1.3015    1.3868 C   0  0  2  0  0  0  0  0  0  0  0  0
    6.9929   -4.3760    1.0947 H   0  0  0  0  0  0  0  0  0  0  0  0
    6.4376   -5.9060    0.3588 H   0  0  0  0  0  0  0  0  0  0  0  0
    6.0100   -5.5424    2.0562 H   0  0  0  0  0  0  0  0  0  0  0  0
    6.7139   -3.6523   -1.2265 H   0  0  0  0  0  0  0  0  0  0  0  0
    5.7633   -4.6241   -3.1337 H   0  0  0  0  0  0  0  0  0  0  0  0
    4.6793   -5.3488   -1.8581 H   0  0  0  0  0  0  0  0  0  0  0  0
    4.2966   -3.5981   -4.2321 H   0  0  0  0  0  0  0  0  0  0  0  0
    3.0517   -4.2431   -3.3206 H   0  0  0  0  0  0  0  0  0  0  0  0
    2.3800   -0.8750   -2.8282 H   0  0  0  0  0  0  0  0  0  0  0  0
    6.0245   -1.3494   -2.0855 H   0  0  0  0  0  0  0  0  0  0  0  0
    5.9632   -2.4852   -3.3622 H   0  0  0  0  0  0  0  0  0  0  0  0
    2.6162   -0.5542   -0.6310 H   0  0  0  0  0  0  0  0  0  0  0  0
    5.1115   -0.2683   -0.8300 H   0  0  0  0  0  0  0  0  0  0  0  0
    4.6503    0.2501    0.6846 H   0  0  0  0  0  0  0  0  0  0  0  0
    6.9601   -2.5985    1.8280 H   0  0  0  0  0  0  0  0  0  0  0  0
    7.2590   -0.0146    1.8876 H   0  0  0  0  0  0  0  0  0  0  0  0
    8.4077   -1.8025    0.4623 H   0  0  0  0  0  0  0  0  0  0  0  0
    4.4260   -0.8483    2.7381 H   0  0  0  0  0  0  0  0  0  0  0  0
    4.6941   -4.2785    3.4532 H   0  0  0  0  0  0  0  0  0  0  0  0
    2.4244   -5.2642    3.4177 H   0  0  0  0  0  0  0  0  0  0  0  0
    1.8904   -4.1430    4.6737 H   0  0  0  0  0  0  0  0  0  0  0  0
    3.1167   -5.3508    5.0275 H   0  0  0  0  0  0  0  0  0  0  0  0
    5.2744   -2.3057    4.7991 H   0  0  0  0  0  0  0  0  0  0  0  0
    4.7500   -3.6192    5.8375 H   0  0  0  0  0  0  0  0  0  0  0  0
    3.6603   -2.2778    5.5171 H   0  0  0  0  0  0  0  0  0  0  0  0
    1.2924   -2.9241    2.1326 H   0  0  0  0  0  0  0  0  0  0  0  0
    2.5275   -0.3220    1.7665 H   0  0  0  0  0  0  0  0  0  0  0  0
  1  2  1  0
  1 29  1  0
  1 30  1  0
  1 31  1  0
  2  3  2  0
  4  2  1  1
  4 12  1  0
  4 18  1  0
  4  5  1  0
  5 11  1  0
  5  6  1  0
  5 32  1  1
  6  7  1  0
  6 33  1  0
  6 34  1  0
  7  8  1  0
  7 35  1  0
  7 36  1  0
  8  9  1  6
  8 11  1  0
  8 12  1  0
  9 10  2  0
  9 37  1  0
 11 38  1  0
 11 39  1  0
 12 13  1  6
 12 16  1  0
 13 14  2  0
 13 15  1  0
 16 28  1  0
 16 17  1  0
 16 40  1  6
 17 18  1  0
 17 41  1  0
 17 42  1  0
 18 19  1  1
 18 22  1  0
 19 20  1  0
 19 21  1  0
 19 43  1  0
 20 44  1  0
 21 45  1  0
 22 28  1  0
 22 23  1  0
 22 46  1  1
 23 24  1  0
 23 27  2  0
 24 25  1  0
 24 26  1  0
 24 47  1  0
 25 48  1  0
 25 49  1  0
 25 50  1  0
 26 51  1  0
 26 52  1  0
 26 53  1  0
 27 28  1  0
 27 54  1  0
 28 55  1  1
M  CHG  1  15  -1
M  END
>  <i_m_ct_stereo_status>  (357) 
1

>  <s_m_source_file>  (357) 
/var/tmp/pbs.5076255.sched01/tmppy4q9rbr/123plv7d954.sdf

>  <i_m_source_file_index>  (357) 
40

>  <i_lp_mmshare_version>  (357) 
48012

>  <i_f3d_flags>  (357) 
0

>  <s_epik_input>  (357) 
W0NIM11DKD1PKVtDQEBdMTJbQ0BIXTNbQ0gyXVtDSDJdW0NAXShbQ0hdPU8pKFtDSDJdMylbQ0BdMShDKD1PKVtPSF0pW0NASF00W0NAQEhdNVtDQEhdKFtDQEBdMihbQ0gyXTQpW0NIXShbT0hdKVtPSF0pQyg9W0NIXTUpW0NIXShbQ0gzXSlbQ0gzXQ==

>  <s_epik_cmdline>  (357) 
J2VwaWtfcHl0aG9uJywgJy1waHQnLCAnMi4wJywgJy1waCcsICc3LjAnLCAnLXRuJywgJzgnLCAnLW1hJywgJzIwMCcsICctaW1hZScsICc8aW5maWxlLm1hZT4nLCAnLW9tYWUnLCAnPG91dGZpbGUubWFlPic=

>  <r_lp_tautomer_probability>  (357) 
0.99995

>  <r_epik_Ionization_Penalty>  (357) 
0.0014007

>  <r_epik_Ionization_Penalty_Charging>  (357) 
0.00140055

>  <r_epik_Ionization_Penalty_Neutral>  (357) 
1.50981e-07

>  <r_epik_State_Penalty>  (357) 
0.000933954

>  <r_epik_Charging_Adjusted_Penalty>  (357) 
0.0023345

>  <i_epik_Tot_Q>  (357) 
-1

>  <i_epik_Tot_abs_Q>  (357) 
1

>  <s_epik_Chemistry_Notes>  (357) 
This compound contains an acetal/aminal-like group ( X-CH(R)-Y where X, Y are N, S, or O) that may be acid/base labile, releasing an aldehyde.

>  <s_lp_Force_Field>  (357) 
OPLS3e

>  <r_lp_Energy>  (357) 
101.807

>  <b_lp_Chiralities_Consistent>  (357) 
1

>  <s_lp_Variant>  (357) 
115:0-1

>  <s_i_glide_gridfile>  (357) 
pfpi4k_grid

>  <i_i_glide_lignum>  (357) 
40

>  <i_i_glide_rotatable_bonds>  (357) 
7

>  <r_i_docking_score>  (357) 
-2.35723

>  <r_i_glide_ligand_efficiency>  (357) 
-0.0841866

>  <r_i_glide_ligand_efficiency_sa>  (357) 
-0.25564

>  <r_i_glide_ligand_efficiency_ln>  (357) 
-0.544117

>  <r_i_glide_gscore>  (357) 
-2.35723

>  <r_i_glide_lipo>  (357) 
-0.406573

>  <r_i_glide_hbond>  (357) 
-0.0337812

>  <r_i_glide_metal>  (357) 
-0

>  <r_i_glide_rewards>  (357) 
-1.02462

>  <r_i_glide_evdw>  (357) 
-2.8774

>  <r_i_glide_ecoul>  (357) 
-7.28984

>  <r_i_glide_erotb>  (357) 
0.129726

>  <r_i_glide_esite>  (357) 
-0.0253995

>  <r_i_glide_emodel>  (357) 
-5.80683

>  <r_i_glide_energy>  (357) 
-10.1672

>  <r_i_glide_einternal>  (357) 
7.47483

>  <r_i_glide_intrahb_reward>  (357) 
-0

>  <i_i_glide_confnum>  (357) 
2

>  <i_i_glide_posenum>  (357) 
3

>  <r_i_glide_eff_state_penalty>  (357) 
0

>  <ligand_id>  (357) 
115

>  <original_smiles>  (357) 
CC(=O)C12C3CCC(C=O)(C3)C1(C(=O)O)C1CC2(C(O)O)C2C(C(C)C)=CC21

>  <smiles>  (357) 
[H]OC([H])(O[H])C12C([H])([H])C([H])(C3([H])C([H])=C(C([H])(C([H])([H])[H])C([H])([H])[H])C31[H])C1(C(=O)[O-])C3(C([H])=O)C([H])([H])C([H])([H])C([H])(C3([H])[H])C12C(=O)C([H])([H])[H]

$$$$
115:0:1
     RDKit          3D

 55 59  0  0  1  0  0  0  0  0999 V2000
    1.5940   -8.1077    1.4264 C   0  0  0  0  0  0  0  0  0  0  0  0
    2.1876   -6.9560    2.2536 C   0  0  0  0  0  0  0  0  0  0  0  0
    1.4543   -6.4415    3.1033 O   0  0  0  0  0  0  0  0  0  0  0  0
    3.6667   -6.4819    1.9507 C   0  0  1  0  0  0  0  0  0  0  0  0
    3.6047   -5.9267    0.4472 C   0  0  1  0  0  0  0  0  0  0  0  0
    2.6614   -4.6842    0.2917 C   0  0  0  0  0  0  0  0  0  0  0  0
    3.5051   -3.5106    0.8277 C   0  0  0  0  0  0  0  0  0  0  0  0
    4.7345   -4.2673    1.3953 C   0  0  2  0  0  0  0  0  0  0  0  0
    5.9150   -3.3019    1.6077 C   0  0  0  0  0  0  0  0  0  0  0  0
    6.6387   -2.9474    0.6752 O   0  0  0  0  0  0  0  0  0  0  0  0
    4.8967   -5.1855    0.1664 C   0  0  0  0  0  0  0  0  0  0  0  0
    4.3429   -5.1785    2.6662 C   0  0  1  0  0  0  0  0  0  0  0  0
    3.5746   -4.2509    3.6824 C   0  0  0  0  0  0  0  0  0  0  0  0
    4.3129   -3.5926    4.4612 O   0  0  0  0  0  0  0  0  0  0  0  0
    2.3407   -4.1010    3.6261 O   0  0  0  0  0  0  0  0  0  0  0  0
    5.5750   -5.8139    3.4226 C   0  0  2  0  0  0  0  0  0  0  0  0
    6.1021   -6.8455    2.4404 C   0  0  0  0  0  0  0  0  0  0  0  0
    4.7792   -7.6552    2.3080 C   0  0  2  0  0  0  0  0  0  0  0  0
    4.9577   -8.8892    1.3683 C   0  0  0  0  0  0  0  0  0  0  0  0
    3.9760   -9.8302    1.5566 O   0  0  0  0  0  0  0  0  0  0  0  0
    6.2014   -9.4916    1.5944 O   0  0  0  0  0  0  0  0  0  0  0  0
    4.8164   -8.0945    3.8215 C   0  0  2  0  0  0  0  0  0  0  0  0
    3.6076   -8.0628    4.7273 C   0  0  0  0  0  0  0  0  0  0  0  0
    2.5321   -9.1241    4.9291 C   0  0  0  0  0  0  0  0  0  0  0  0
    1.4423   -8.6955    5.9231 C   0  0  0  0  0  0  0  0  0  0  0  0
    3.1134  -10.4997    5.3041 C   0  0  0  0  0  0  0  0  0  0  0  0
    3.9064   -6.8750    5.2830 C   0  0  0  0  0  0  0  0  0  0  0  0
    5.2559   -6.8196    4.5645 C   0  0  2  0  0  0  0  0  0  0  0  0
    2.3399   -8.6759    0.8982 H   0  0  0  0  0  0  0  0  0  0  0  0
    0.8821   -7.7076    0.6910 H   0  0  0  0  0  0  0  0  0  0  0  0
    1.0332   -8.7409    2.1337 H   0  0  0  0  0  0  0  0  0  0  0  0
    3.4249   -6.6819   -0.3003 H   0  0  0  0  0  0  0  0  0  0  0  0
    2.4060   -4.5070   -0.7517 H   0  0  0  0  0  0  0  0  0  0  0  0
    1.7291   -4.7716    0.8385 H   0  0  0  0  0  0  0  0  0  0  0  0
    3.7876   -2.8527    0.0032 H   0  0  0  0  0  0  0  0  0  0  0  0
    2.9691   -2.8742    1.5270 H   0  0  0  0  0  0  0  0  0  0  0  0
    6.0630   -2.9618    2.6305 H   0  0  0  0  0  0  0  0  0  0  0  0
    5.7443   -5.8346    0.0306 H   0  0  0  0  0  0  0  0  0  0  0  0
    4.8710   -4.6514   -0.7892 H   0  0  0  0  0  0  0  0  0  0  0  0
    6.3365   -5.0884    3.7292 H   0  0  0  0  0  0  0  0  0  0  0  0
    6.6227   -6.4398    1.5840 H   0  0  0  0  0  0  0  0  0  0  0  0
    6.9138   -7.4289    2.8849 H   0  0  0  0  0  0  0  0  0  0  0  0
    4.9521   -8.5599    0.3344 H   0  0  0  0  0  0  0  0  0  0  0  0
    4.0213  -10.5317    0.9109 H   0  0  0  0  0  0  0  0  0  0  0  0
    6.1000   -9.9281    2.4333 H   0  0  0  0  0  0  0  0  0  0  0  0
    5.5104   -8.9190    4.0205 H   0  0  0  0  0  0  0  0  0  0  0  0
    2.0557   -9.2588    3.9621 H   0  0  0  0  0  0  0  0  0  0  0  0
    0.9653   -7.7686    5.6076 H   0  0  0  0  0  0  0  0  0  0  0  0
    1.8459   -8.5535    6.9248 H   0  0  0  0  0  0  0  0  0  0  0  0
    0.6635   -9.4550    5.9901 H   0  0  0  0  0  0  0  0  0  0  0  0
    3.7999  -10.8681    4.5419 H   0  0  0  0  0  0  0  0  0  0  0  0
    2.3217  -11.2446    5.3976 H   0  0  0  0  0  0  0  0  0  0  0  0
    3.6406  -10.4753    6.2567 H   0  0  0  0  0  0  0  0  0  0  0  0
    3.4608   -6.2576    6.0577 H   0  0  0  0  0  0  0  0  0  0  0  0
    6.1283   -7.0245    5.1892 H   0  0  0  0  0  0  0  0  0  0  0  0
  1  2  1  0
  1 29  1  0
  1 30  1  0
  1 31  1  0
  2  3  2  0
  4  2  1  1
  4 12  1  0
  4 18  1  0
  4  5  1  0
  5 11  1  0
  5  6  1  0
  5 32  1  6
  6  7  1  0
  6 33  1  0
  6 34  1  0
  7  8  1  0
  7 35  1  0
  7 36  1  0
  8  9  1  1
  8 11  1  0
  8 12  1  0
  9 10  2  0
  9 37  1  0
 11 38  1  0
 11 39  1  0
 12 13  1  1
 12 16  1  0
 13 14  2  0
 13 15  1  0
 16 28  1  0
 16 17  1  0
 16 40  1  1
 17 18  1  0
 17 41  1  0
 17 42  1  0
 18 19  1  6
 18 22  1  0
 19 20  1  0
 19 21  1  0
 19 43  1  0
 20 44  1  0
 21 45  1  0
 22 28  1  0
 22 23  1  0
 22 46  1  6
 23 24  1  0
 23 27  2  0
 24 25  1  0
 24 26  1  0
 24 47  1  0
 25 48  1  0
 25 49  1  0
 25 50  1  0
 26 51  1  0
 26 52  1  0
 26 53  1  0
 27 28  1  0
 27 54  1  0
 28 55  1  1
M  CHG  1  15  -1
M  END
>  <i_m_ct_stereo_status>  (358) 
1

>  <s_m_source_file>  (358) 
/var/tmp/pbs.5076255.sched01/tmppy4q9rbr/123plv7d954.sdf

>  <i_m_source_file_index>  (358) 
40

>  <i_lp_mmshare_version>  (358) 
48012

>  <i_f3d_flags>  (358) 
0

>  <s_epik_input>  (358) 
W0NIM11DKD1PKVtDQEBdMTJbQ0BIXTNbQ0gyXVtDSDJdW0NAXShbQ0hdPU8pKFtDSDJdMylbQ0BdMShDKD1PKVtPSF0pW0NASF00W0NAQEhdNVtDQEhdKFtDQEBdMihbQ0gyXTQpW0NIXShbT0hdKVtPSF0pQyg9W0NIXTUpW0NIXShbQ0gzXSlbQ0gzXQ==

>  <s_epik_cmdline>  (358) 
J2VwaWtfcHl0aG9uJywgJy1waHQnLCAnMi4wJywgJy1waCcsICc3LjAnLCAnLXRuJywgJzgnLCAnLW1hJywgJzIwMCcsICctaW1hZScsICc8aW5maWxlLm1hZT4nLCAnLW9tYWUnLCAnPG91dGZpbGUubWFlPic=

>  <r_lp_tautomer_probability>  (358) 
0.99995

>  <r_epik_Ionization_Penalty>  (358) 
0.0014007

>  <r_epik_Ionization_Penalty_Charging>  (358) 
0.00140055

>  <r_epik_Ionization_Penalty_Neutral>  (358) 
1.50981e-07

>  <r_epik_State_Penalty>  (358) 
0.000933954

>  <r_epik_Charging_Adjusted_Penalty>  (358) 
0.0023345

>  <i_epik_Tot_Q>  (358) 
-1

>  <i_epik_Tot_abs_Q>  (358) 
1

>  <s_epik_Chemistry_Notes>  (358) 
This compound contains an acetal/aminal-like group ( X-CH(R)-Y where X, Y are N, S, or O) that may be acid/base labile, releasing an aldehyde.

>  <s_lp_Force_Field>  (358) 
OPLS3e

>  <r_lp_Energy>  (358) 
101.807

>  <b_lp_Chiralities_Consistent>  (358) 
1

>  <s_lp_Variant>  (358) 
115:0-1

>  <s_i_glide_gridfile>  (358) 
pfpi4k_grid

>  <i_i_glide_lignum>  (358) 
40

>  <i_i_glide_rotatable_bonds>  (358) 
7

>  <r_i_docking_score>  (358) 
-2.07099

>  <r_i_glide_ligand_efficiency>  (358) 
-0.0739639

>  <r_i_glide_ligand_efficiency_sa>  (358) 
-0.224598

>  <r_i_glide_ligand_efficiency_ln>  (358) 
-0.478045

>  <r_i_glide_gscore>  (358) 
-2.07099

>  <r_i_glide_lipo>  (358) 
-0.13851

>  <r_i_glide_hbond>  (358) 
0

>  <r_i_glide_metal>  (358) 
-0

>  <r_i_glide_rewards>  (358) 
-0.859375

>  <r_i_glide_evdw>  (358) 
-16.1981

>  <r_i_glide_ecoul>  (358) 
-2.37223

>  <r_i_glide_erotb>  (358) 
0.129726

>  <r_i_glide_esite>  (358) 
-0.037091

>  <r_i_glide_emodel>  (358) 
-18.585

>  <r_i_glide_energy>  (358) 
-18.5703

>  <r_i_glide_einternal>  (358) 
2.44333

>  <r_i_glide_intrahb_reward>  (358) 
-0

>  <i_i_glide_confnum>  (358) 
3

>  <i_i_glide_posenum>  (358) 
18

>  <r_i_glide_eff_state_penalty>  (358) 
0

>  <ligand_id>  (358) 
115

>  <original_smiles>  (358) 
CC(=O)C12C3CCC(C=O)(C3)C1(C(=O)O)C1CC2(C(O)O)C2C(C(C)C)=CC21

>  <smiles>  (358) 
[H]OC([H])(O[H])C12C([H])([H])C([H])(C3([H])C([H])=C(C([H])(C([H])([H])[H])C([H])([H])[H])C31[H])C1(C(=O)[O-])C3(C([H])=O)C([H])([H])C([H])([H])C([H])(C3([H])[H])C12C(=O)C([H])([H])[H]

$$$$
115:0:2
     RDKit          3D

 55 59  0  0  1  0  0  0  0  0999 V2000
    4.2135   -0.7457    1.7658 C   0  0  0  0  0  0  0  0  0  0  0  0
    3.7742   -2.1766    1.4042 C   0  0  0  0  0  0  0  0  0  0  0  0
    2.5756   -2.3544    1.2147 O   0  0  0  0  0  0  0  0  0  0  0  0
    4.8274   -3.3283    1.4295 C   0  0  1  0  0  0  0  0  0  0  0  0
    5.2108   -3.4207    2.9769 C   0  0  1  0  0  0  0  0  0  0  0  0
    3.9970   -3.8239    3.8786 C   0  0  0  0  0  0  0  0  0  0  0  0
    3.8863   -5.3448    3.6856 C   0  0  0  0  0  0  0  0  0  0  0  0
    4.9253   -5.5930    2.5593 C   0  0  2  0  0  0  0  0  0  0  0  0
    5.3349   -7.0814    2.4741 C   0  0  0  0  0  0  0  0  0  0  0  0
    6.4180   -7.4288    2.0264 O   0  0  0  0  0  0  0  0  0  0  0  0
    6.0014   -4.7009    3.1923 C   0  0  0  0  0  0  0  0  0  0  0  0
    4.4574   -4.8981    1.1816 C   0  0  1  0  0  0  0  0  0  0  0  0
    3.0118   -5.4391    0.8630 C   0  0  0  0  0  0  0  0  0  0  0  0
    2.7743   -6.6414    1.1808 O   0  0  0  0  0  0  0  0  0  0  0  0
    2.1464   -4.7444    0.3248 O   0  0  0  0  0  0  0  0  0  0  0  0
    5.3325   -5.2418   -0.0778 C   0  0  2  0  0  0  0  0  0  0  0  0
    6.6453   -4.5444    0.2369 C   0  0  0  0  0  0  0  0  0  0  0  0
    6.0573   -3.1127    0.3413 C   0  0  2  0  0  0  0  0  0  0  0  0
    7.1869   -2.0673    0.6106 C   0  0  0  0  0  0  0  0  0  0  0  0
    6.8181   -0.7477    0.3021 O   0  0  0  0  0  0  0  0  0  0  0  0
    8.4255   -2.4060   -0.0234 O   0  0  0  0  0  0  0  0  0  0  0  0
    5.6421   -3.0686   -1.1625 C   0  0  2  0  0  0  0  0  0  0  0  0
    4.3037   -2.5478   -1.5862 C   0  0  0  0  0  0  0  0  0  0  0  0
    3.8457   -1.1548   -1.9305 C   0  0  0  0  0  0  0  0  0  0  0  0
    2.6421   -1.1664   -2.8747 C   0  0  0  0  0  0  0  0  0  0  0  0
    4.9421   -0.3302   -2.5384 C   0  0  0  0  0  0  0  0  0  0  0  0
    3.7307   -3.7371   -1.6695 C   0  0  0  0  0  0  0  0  0  0  0  0
    5.0330   -4.4686   -1.3921 C   0  0  2  0  0  0  0  0  0  0  0  0
    5.2742   -0.6165    1.8110 H   0  0  0  0  0  0  0  0  0  0  0  0
    3.7976   -0.4817    2.7474 H   0  0  0  0  0  0  0  0  0  0  0  0
    3.7602   -0.0505    1.0272 H   0  0  0  0  0  0  0  0  0  0  0  0
    5.7311   -2.5415    3.3584 H   0  0  0  0  0  0  0  0  0  0  0  0
    4.1991   -3.6164    4.9279 H   0  0  0  0  0  0  0  0  0  0  0  0
    3.0607   -3.3321    3.6357 H   0  0  0  0  0  0  0  0  0  0  0  0
    4.1792   -5.8729    4.5982 H   0  0  0  0  0  0  0  0  0  0  0  0
    2.8669   -5.6758    3.4863 H   0  0  0  0  0  0  0  0  0  0  0  0
    4.5791   -7.7959    2.8240 H   0  0  0  0  0  0  0  0  0  0  0  0
    7.0069   -4.6949    2.8116 H   0  0  0  0  0  0  0  0  0  0  0  0
    6.1696   -4.9263    4.2506 H   0  0  0  0  0  0  0  0  0  0  0  0
    5.4454   -6.3121   -0.2512 H   0  0  0  0  0  0  0  0  0  0  0  0
    7.2659   -4.9958    0.9871 H   0  0  0  0  0  0  0  0  0  0  0  0
    7.3509   -4.5898   -0.5838 H   0  0  0  0  0  0  0  0  0  0  0  0
    7.3836   -2.0853    1.6513 H   0  0  0  0  0  0  0  0  0  0  0  0
    7.1512   -0.1523    0.9800 H   0  0  0  0  0  0  0  0  0  0  0  0
    9.0976   -1.8270    0.2902 H   0  0  0  0  0  0  0  0  0  0  0  0
    6.4697   -2.8953   -1.8610 H   0  0  0  0  0  0  0  0  0  0  0  0
    3.5467   -0.7067   -0.9950 H   0  0  0  0  0  0  0  0  0  0  0  0
    1.8867   -1.7932   -2.3997 H   0  0  0  0  0  0  0  0  0  0  0  0
    2.8533   -1.5743   -3.8728 H   0  0  0  0  0  0  0  0  0  0  0  0
    2.2928   -0.1373   -2.9886 H   0  0  0  0  0  0  0  0  0  0  0  0
    5.8029   -0.2745   -1.8969 H   0  0  0  0  0  0  0  0  0  0  0  0
    4.5827    0.6776   -2.7419 H   0  0  0  0  0  0  0  0  0  0  0  0
    5.1563   -0.8159   -3.4835 H   0  0  0  0  0  0  0  0  0  0  0  0
    2.7714   -4.1126   -1.9900 H   0  0  0  0  0  0  0  0  0  0  0  0
    5.3836   -4.9525   -2.2990 H   0  0  0  0  0  0  0  0  0  0  0  0
  1  2  1  0
  1 29  1  0
  1 30  1  0
  1 31  1  0
  2  3  2  0
  4  2  1  1
  4 12  1  0
  4 18  1  0
  4  5  1  0
  5 11  1  0
  5  6  1  0
  5 32  1  1
  6  7  1  0
  6 33  1  0
  6 34  1  0
  7  8  1  0
  7 35  1  0
  7 36  1  0
  8  9  1  6
  8 11  1  0
  8 12  1  0
  9 10  2  0
  9 37  1  0
 11 38  1  0
 11 39  1  0
 12 13  1  6
 12 16  1  0
 13 14  2  0
 13 15  1  0
 16 28  1  0
 16 17  1  0
 16 40  1  6
 17 18  1  0
 17 41  1  0
 17 42  1  0
 18 19  1  1
 18 22  1  0
 19 20  1  0
 19 21  1  0
 19 43  1  0
 20 44  1  0
 21 45  1  0
 22 28  1  0
 22 23  1  0
 22 46  1  6
 23 24  1  0
 23 27  2  0
 24 25  1  0
 24 26  1  0
 24 47  1  0
 25 48  1  0
 25 49  1  0
 25 50  1  0
 26 51  1  0
 26 52  1  0
 26 53  1  0
 27 28  1  0
 27 54  1  0
 28 55  1  6
M  CHG  1  15  -1
M  END
>  <i_m_ct_stereo_status>  (359) 
1

>  <s_m_source_file>  (359) 
/var/tmp/pbs.5076255.sched01/tmppy4q9rbr/123plv7d954.sdf

>  <i_m_source_file_index>  (359) 
40

>  <i_lp_mmshare_version>  (359) 
48012

>  <i_f3d_flags>  (359) 
0

>  <s_epik_input>  (359) 
W0NIM11DKD1PKVtDQEBdMTJbQ0BIXTNbQ0gyXVtDSDJdW0NAXShbQ0hdPU8pKFtDSDJdMylbQ0BdMShDKD1PKVtPSF0pW0NASF00W0NAQEhdNVtDQEhdKFtDQEBdMihbQ0gyXTQpW0NIXShbT0hdKVtPSF0pQyg9W0NIXTUpW0NIXShbQ0gzXSlbQ0gzXQ==

>  <s_epik_cmdline>  (359) 
J2VwaWtfcHl0aG9uJywgJy1waHQnLCAnMi4wJywgJy1waCcsICc3LjAnLCAnLXRuJywgJzgnLCAnLW1hJywgJzIwMCcsICctaW1hZScsICc8aW5maWxlLm1hZT4nLCAnLW9tYWUnLCAnPG91dGZpbGUubWFlPic=

>  <r_lp_tautomer_probability>  (359) 
0.99995

>  <r_epik_Ionization_Penalty>  (359) 
0.0014007

>  <r_epik_Ionization_Penalty_Charging>  (359) 
0.00140055

>  <r_epik_Ionization_Penalty_Neutral>  (359) 
1.50981e-07

>  <r_epik_State_Penalty>  (359) 
0.000933954

>  <r_epik_Charging_Adjusted_Penalty>  (359) 
0.0023345

>  <i_epik_Tot_Q>  (359) 
-1

>  <i_epik_Tot_abs_Q>  (359) 
1

>  <s_epik_Chemistry_Notes>  (359) 
This compound contains an acetal/aminal-like group ( X-CH(R)-Y where X, Y are N, S, or O) that may be acid/base labile, releasing an aldehyde.

>  <s_lp_Force_Field>  (359) 
OPLS3e

>  <r_lp_Energy>  (359) 
101.807

>  <b_lp_Chiralities_Consistent>  (359) 
1

>  <s_lp_Variant>  (359) 
115:0-1

>  <s_i_glide_gridfile>  (359) 
pfpi4k_grid

>  <i_i_glide_lignum>  (359) 
40

>  <i_i_glide_rotatable_bonds>  (359) 
7

>  <r_i_docking_score>  (359) 
-1.89205

>  <r_i_glide_ligand_efficiency>  (359) 
-0.0675733

>  <r_i_glide_ligand_efficiency_sa>  (359) 
-0.205192

>  <r_i_glide_ligand_efficiency_ln>  (359) 
-0.436741

>  <r_i_glide_gscore>  (359) 
-1.89205

>  <r_i_glide_lipo>  (359) 
-0.418107

>  <r_i_glide_hbond>  (359) 
-0.0266532

>  <r_i_glide_metal>  (359) 
-0

>  <r_i_glide_rewards>  (359) 
-0.823652

>  <r_i_glide_evdw>  (359) 
-6.63686

>  <r_i_glide_ecoul>  (359) 
-2.88797

>  <r_i_glide_erotb>  (359) 
0.129726

>  <r_i_glide_esite>  (359) 
-0.0241105

>  <r_i_glide_emodel>  (359) 
-5.76774

>  <r_i_glide_energy>  (359) 
-9.52483

>  <r_i_glide_einternal>  (359) 
5.66901

>  <r_i_glide_intrahb_reward>  (359) 
-0

>  <i_i_glide_confnum>  (359) 
6

>  <i_i_glide_posenum>  (359) 
25

>  <r_i_glide_eff_state_penalty>  (359) 
0

>  <ligand_id>  (359) 
115

>  <original_smiles>  (359) 
CC(=O)C12C3CCC(C=O)(C3)C1(C(=O)O)C1CC2(C(O)O)C2C(C(C)C)=CC21

>  <smiles>  (359) 
[H]OC([H])(O[H])C12C([H])([H])C([H])(C3([H])C([H])=C(C([H])(C([H])([H])[H])C([H])([H])[H])C31[H])C1(C(=O)[O-])C3(C([H])=O)C([H])([H])C([H])([H])C([H])(C3([H])[H])C12C(=O)C([H])([H])[H]

$$$$
