0:0:0
     RDKit          3D

 44 48  0  0  1  0  0  0  0  0999 V2000
    1.0452   -3.6249    4.3273 C   0  0  0  0  0  0  0  0  0  0  0  0
    2.3591   -4.0250    4.7298 O   0  0  0  0  0  0  0  0  0  0  0  0
    3.1963   -4.4448    3.7234 C   0  0  0  0  0  0  0  0  0  0  0  0
    4.2204   -5.3825    4.0084 C   0  0  0  0  0  0  0  0  0  0  0  0
    5.2378   -5.6795    3.0595 C   0  0  0  0  0  0  0  0  0  0  0  0
    5.1640   -5.1439    1.7522 C   0  0  0  0  0  0  0  0  0  0  0  0
    3.9799   -4.4281    1.4646 C   0  0  0  0  0  0  0  0  0  0  0  0
    3.1539   -3.8754    2.4367 C   0  0  0  0  0  0  0  0  0  0  0  0
    2.9016   -2.5467    2.1554 O   0  0  0  0  0  0  0  0  0  0  0  0
    3.9819   -2.2858    1.2477 C   0  0  2  0  0  0  0  0  0  0  0  0
    4.3736   -0.9707    0.6104 C   0  0  0  0  0  0  0  0  0  0  0  0
    5.8181   -1.0930    0.0023 C   0  0  0  0  0  0  0  0  0  0  0  0
    6.6326   -2.3151    0.3938 N   0  0  2  0  0  0  0  0  0  0  0  0
    8.0896   -2.0525    0.2756 C   0  0  0  0  0  0  0  0  0  0  0  0
    6.2817   -3.6535   -0.2167 C   0  0  1  0  0  0  0  0  0  0  0  0
    6.3618   -4.8762    0.7877 C   0  0  0  0  0  0  0  0  0  0  0  0
    4.8832   -3.7596   -0.7693 C   0  0  2  0  0  0  0  0  0  0  0  0
    4.3521   -3.0112   -1.9610 C   0  0  0  0  0  0  0  0  0  0  0  0
    3.0367   -2.8601   -1.8231 C   0  0  0  0  0  0  0  0  0  0  0  0
    2.5263   -3.3947   -0.4966 C   0  0  1  0  0  0  0  0  0  0  0  0
    1.8823   -4.6402   -0.7139 O   0  0  0  0  0  0  0  0  0  0  0  0
    3.8566   -3.5039    0.3144 C   0  0  1  0  0  0  0  0  0  0  0  0
    0.4963   -3.2028    5.1712 H   0  0  0  0  0  0  0  0  0  0  0  0
    0.5132   -4.5056    3.9717 H   0  0  0  0  0  0  0  0  0  0  0  0
    1.0044   -2.8729    3.5406 H   0  0  0  0  0  0  0  0  0  0  0  0
    4.2937   -5.7728    5.0109 H   0  0  0  0  0  0  0  0  0  0  0  0
    6.1157   -6.2284    3.3791 H   0  0  0  0  0  0  0  0  0  0  0  0
    4.8233   -2.3580    1.9494 H   0  0  0  0  0  0  0  0  0  0  0  0
    3.6478   -0.6591   -0.1410 H   0  0  0  0  0  0  0  0  0  0  0  0
    4.3649   -0.1983    1.3824 H   0  0  0  0  0  0  0  0  0  0  0  0
    5.7877   -0.9686   -1.0788 H   0  0  0  0  0  0  0  0  0  0  0  0
    6.3518   -0.2173    0.3730 H   0  0  0  0  0  0  0  0  0  0  0  0
    8.3708   -1.8656   -0.7619 H   0  0  0  0  0  0  0  0  0  0  0  0
    8.6699   -2.9076    0.6275 H   0  0  0  0  0  0  0  0  0  0  0  0
    8.3779   -1.1859    0.8727 H   0  0  0  0  0  0  0  0  0  0  0  0
    6.9761   -3.8319   -1.0410 H   0  0  0  0  0  0  0  0  0  0  0  0
    7.2776   -4.8050    1.3739 H   0  0  0  0  0  0  0  0  0  0  0  0
    6.4649   -5.7890    0.2043 H   0  0  0  0  0  0  0  0  0  0  0  0
    4.7725   -4.7932   -1.1010 H   0  0  0  0  0  0  0  0  0  0  0  0
    4.9529   -2.7092   -2.8090 H   0  0  0  0  0  0  0  0  0  0  0  0
    2.3833   -2.3700   -2.5279 H   0  0  0  0  0  0  0  0  0  0  0  0
    1.8312   -2.6977   -0.0341 H   0  0  0  0  0  0  0  0  0  0  0  0
    2.3709   -5.1260   -1.3773 H   0  0  0  0  0  0  0  0  0  0  0  0
    6.4613   -2.4422    1.3834 H   0  0  0  0  0  0  0  0  0  0  0  0
  1  2  1  0
  1 23  1  0
  1 24  1  0
  1 25  1  0
  2  3  1  0
  3  8  2  0
  3  4  1  0
  4  5  2  0
  4 26  1  0
  5  6  1  0
  5 27  1  0
  6 16  1  0
  6  7  2  0
 22  7  1  1
  7  8  1  0
  8  9  1  0
  9 10  1  0
 10 22  1  0
 10 11  1  0
 10 28  1  1
 11 12  1  0
 11 29  1  0
 11 30  1  0
 12 13  1  0
 12 31  1  0
 12 32  1  0
 13 14  1  0
 13 15  1  0
 13 44  1  1
 14 33  1  0
 14 34  1  0
 14 35  1  0
 15 16  1  0
 15 17  1  0
 15 36  1  6
 16 37  1  0
 16 38  1  0
 17 22  1  0
 17 18  1  0
 17 39  1  6
 18 19  2  0
 18 40  1  0
 19 20  1  0
 19 41  1  0
 20 21  1  0
 20 22  1  0
 20 42  1  1
 21 43  1  0
M  CHG  1  13   1
M  END
>  <i_m_ct_stereo_status>  (1) 
1

>  <s_m_source_file>  (1) 
/var/tmp/pbs.5076255.sched01/tmphbojuwnv/0fr5z8inm.sdf

>  <i_m_source_file_index>  (1) 
1

>  <i_lp_mmshare_version>  (1) 
48012

>  <i_f3d_flags>  (1) 
0

>  <s_epik_input>  (1) 
W0NAXTEyM2M0YzVbY0hdW2NIXWMoT1tDSDNdKWM0T1tDQEBIXTFbQ0gyXVtDSDJdTihbQ0gzXSlbQ0BASF0oW0NIMl01KVtDQEBIXTJbQ0hdPVtDSF1bQ0BIXTNbT0hd

>  <s_epik_cmdline>  (1) 
J2VwaWtfcHl0aG9uJywgJy1waHQnLCAnMi4wJywgJy1waCcsICc3LjAnLCAnLXRuJywgJzgnLCAnLW1hJywgJzIwMCcsICctaW1hZScsICc8aW5maWxlLm1hZT4nLCAnLW9tYWUnLCAnPG91dGZpbGUubWFlPic=

>  <r_lp_tautomer_probability>  (1) 
1

>  <r_epik_Ionization_Penalty>  (1) 
0.0440332

>  <r_epik_Ionization_Penalty_Charging>  (1) 
0.0440299

>  <r_epik_Ionization_Penalty_Neutral>  (1) 
3.28327e-06

>  <r_epik_State_Penalty>  (1) 
0.0372912

>  <r_epik_Charging_Adjusted_Penalty>  (1) 
0.0813211

>  <i_epik_Tot_Q>  (1) 
1

>  <i_epik_Tot_abs_Q>  (1) 
1

>  <s_lp_Force_Field>  (1) 
OPLS3e

>  <r_lp_Energy>  (1) 
109.4

>  <b_lp_Chiralities_Consistent>  (1) 
1

>  <s_lp_Variant>  (1) 
0:0-1

>  <s_i_glide_gridfile>  (1) 
pfpi4k_grid

>  <i_i_glide_lignum>  (1) 
1

>  <i_i_glide_rotatable_bonds>  (1) 
2

>  <r_i_docking_score>  (1) 
-3.97978

>  <r_i_glide_ligand_efficiency>  (1) 
-0.180899

>  <r_i_glide_ligand_efficiency_sa>  (1) 
-0.506886

>  <r_i_glide_ligand_efficiency_ln>  (1) 
-0.972803

>  <r_i_glide_gscore>  (1) 
-3.97978

>  <r_i_glide_lipo>  (1) 
-0.409016

>  <r_i_glide_hbond>  (1) 
-0.32287

>  <r_i_glide_metal>  (1) 
-0

>  <r_i_glide_rewards>  (1) 
-1.3611

>  <r_i_glide_evdw>  (1) 
-17.3025

>  <r_i_glide_ecoul>  (1) 
-6.81111

>  <r_i_glide_erotb>  (1) 
0

>  <r_i_glide_esite>  (1) 
0

>  <r_i_glide_emodel>  (1) 
-27.2469

>  <r_i_glide_energy>  (1) 
-24.1136

>  <r_i_glide_einternal>  (1) 
4.11913

>  <r_i_glide_intrahb_reward>  (1) 
-0

>  <i_i_glide_confnum>  (1) 
2

>  <i_i_glide_posenum>  (1) 
25

>  <r_i_glide_eff_state_penalty>  (1) 
0

>  <ligand_id>  (1) 
0

>  <original_smiles>  (1) 
COc1ccc2c3c1OC1CCN(C)C(C2)C2C=CC(O)C312

>  <smiles>  (1) 
[H]OC1([H])C([H])=C([H])C2([H])C13c1c4c(OC([H])([H])[H])c([H])c([H])c1C([H])([H])C2([H])[N+]([H])(C([H])([H])[H])C([H])([H])C([H])([H])C3([H])O4

$$$$
0:0:1
     RDKit          3D

 44 48  0  0  1  0  0  0  0  0999 V2000
    2.5258   -4.5603    6.0230 C   0  0  0  0  0  0  0  0  0  0  0  0
    2.4362   -4.0375    4.7082 O   0  0  0  0  0  0  0  0  0  0  0  0
    3.2808   -4.5381    3.7433 C   0  0  0  0  0  0  0  0  0  0  0  0
    4.2912   -5.5175    3.9721 C   0  0  0  0  0  0  0  0  0  0  0  0
    5.2886   -5.7779    2.9931 C   0  0  0  0  0  0  0  0  0  0  0  0
    5.1977   -5.1989    1.7064 C   0  0  0  0  0  0  0  0  0  0  0  0
    4.0070   -4.4807    1.4603 C   0  0  0  0  0  0  0  0  0  0  0  0
    3.1990   -3.9517    2.4678 C   0  0  0  0  0  0  0  0  0  0  0  0
    2.9283   -2.6200    2.2196 O   0  0  0  0  0  0  0  0  0  0  0  0
    3.9938   -2.3332    1.2903 C   0  0  2  0  0  0  0  0  0  0  0  0
    4.3878   -1.0039    0.6725 C   0  0  0  0  0  0  0  0  0  0  0  0
    5.8258   -1.1135    0.0432 C   0  0  0  0  0  0  0  0  0  0  0  0
    6.6467   -2.3430    0.3895 N   0  0  2  0  0  0  0  0  0  0  0  0
    8.1007   -2.0771    0.2584 C   0  0  0  0  0  0  0  0  0  0  0  0
    6.2859   -3.6659   -0.2460 C   0  0  1  0  0  0  0  0  0  0  0  0
    6.3801   -4.9115    0.7275 C   0  0  0  0  0  0  0  0  0  0  0  0
    4.8786   -3.7593   -0.7789 C   0  0  2  0  0  0  0  0  0  0  0  0
    4.3387   -2.9821   -1.9482 C   0  0  0  0  0  0  0  0  0  0  0  0
    3.0210   -2.8308   -1.7942 C   0  0  0  0  0  0  0  0  0  0  0  0
    2.5260   -3.4022   -0.4757 C   0  0  1  0  0  0  0  0  0  0  0  0
    1.8797   -4.6441   -0.7167 O   0  0  0  0  0  0  0  0  0  0  0  0
    3.8638   -3.5311    0.3283 C   0  0  1  0  0  0  0  0  0  0  0  0
    1.7761   -4.0743    6.6474 H   0  0  0  0  0  0  0  0  0  0  0  0
    3.5012   -4.3607    6.4660 H   0  0  0  0  0  0  0  0  0  0  0  0
    2.3257   -5.6318    6.0436 H   0  0  0  0  0  0  0  0  0  0  0  0
    4.4141   -5.9617    4.9460 H   0  0  0  0  0  0  0  0  0  0  0  0
    6.1749   -6.3324    3.2734 H   0  0  0  0  0  0  0  0  0  0  0  0
    4.8483   -2.4168    1.9744 H   0  0  0  0  0  0  0  0  0  0  0  0
    3.6516   -0.6760   -0.0622 H   0  0  0  0  0  0  0  0  0  0  0  0
    4.3888   -0.2459    1.4589 H   0  0  0  0  0  0  0  0  0  0  0  0
    5.7863   -0.9631   -1.0332 H   0  0  0  0  0  0  0  0  0  0  0  0
    6.3657   -0.2476    0.4242 H   0  0  0  0  0  0  0  0  0  0  0  0
    8.3689   -1.8669   -0.7772 H   0  0  0  0  0  0  0  0  0  0  0  0
    8.6871   -2.9378    0.5818 H   0  0  0  0  0  0  0  0  0  0  0  0
    8.3997   -1.2252    0.8695 H   0  0  0  0  0  0  0  0  0  0  0  0
    6.9678   -3.8295   -1.0819 H   0  0  0  0  0  0  0  0  0  0  0  0
    7.3038   -4.8558    1.3029 H   0  0  0  0  0  0  0  0  0  0  0  0
    6.4753   -5.8156    0.1283 H   0  0  0  0  0  0  0  0  0  0  0  0
    4.7625   -4.7836   -1.1375 H   0  0  0  0  0  0  0  0  0  0  0  0
    4.9283   -2.6652   -2.7960 H   0  0  0  0  0  0  0  0  0  0  0  0
    2.3621   -2.3221   -2.4805 H   0  0  0  0  0  0  0  0  0  0  0  0
    1.8283   -2.7197    0.0074 H   0  0  0  0  0  0  0  0  0  0  0  0
    2.3769   -5.1221   -1.3808 H   0  0  0  0  0  0  0  0  0  0  0  0
    6.4887   -2.4918    1.3783 H   0  0  0  0  0  0  0  0  0  0  0  0
  1  2  1  0
  1 23  1  0
  1 24  1  0
  1 25  1  0
  2  3  1  0
  3  8  2  0
  3  4  1  0
  4  5  2  0
  4 26  1  0
  5  6  1  0
  5 27  1  0
  6 16  1  0
  6  7  2  0
 22  7  1  1
  7  8  1  0
  8  9  1  0
  9 10  1  0
 10 22  1  0
 10 11  1  0
 10 28  1  1
 11 12  1  0
 11 29  1  0
 11 30  1  0
 12 13  1  0
 12 31  1  0
 12 32  1  0
 13 14  1  0
 13 15  1  0
 13 44  1  1
 14 33  1  0
 14 34  1  0
 14 35  1  0
 15 16  1  0
 15 17  1  0
 15 36  1  6
 16 37  1  0
 16 38  1  0
 17 22  1  0
 17 18  1  0
 17 39  1  6
 18 19  2  0
 18 40  1  0
 19 20  1  0
 19 41  1  0
 20 21  1  0
 20 22  1  0
 20 42  1  1
 21 43  1  0
M  CHG  1  13   1
M  END
>  <i_m_ct_stereo_status>  (2) 
1

>  <s_m_source_file>  (2) 
/var/tmp/pbs.5076255.sched01/tmphbojuwnv/0fr5z8inm.sdf

>  <i_m_source_file_index>  (2) 
1

>  <i_lp_mmshare_version>  (2) 
48012

>  <i_f3d_flags>  (2) 
0

>  <s_epik_input>  (2) 
W0NAXTEyM2M0YzVbY0hdW2NIXWMoT1tDSDNdKWM0T1tDQEBIXTFbQ0gyXVtDSDJdTihbQ0gzXSlbQ0BASF0oW0NIMl01KVtDQEBIXTJbQ0hdPVtDSF1bQ0BIXTNbT0hd

>  <s_epik_cmdline>  (2) 
J2VwaWtfcHl0aG9uJywgJy1waHQnLCAnMi4wJywgJy1waCcsICc3LjAnLCAnLXRuJywgJzgnLCAnLW1hJywgJzIwMCcsICctaW1hZScsICc8aW5maWxlLm1hZT4nLCAnLW9tYWUnLCAnPG91dGZpbGUubWFlPic=

>  <r_lp_tautomer_probability>  (2) 
1

>  <r_epik_Ionization_Penalty>  (2) 
0.0440332

>  <r_epik_Ionization_Penalty_Charging>  (2) 
0.0440299

>  <r_epik_Ionization_Penalty_Neutral>  (2) 
3.28327e-06

>  <r_epik_State_Penalty>  (2) 
0.0372912

>  <r_epik_Charging_Adjusted_Penalty>  (2) 
0.0813211

>  <i_epik_Tot_Q>  (2) 
1

>  <i_epik_Tot_abs_Q>  (2) 
1

>  <s_lp_Force_Field>  (2) 
OPLS3e

>  <r_lp_Energy>  (2) 
109.4

>  <b_lp_Chiralities_Consistent>  (2) 
1

>  <s_lp_Variant>  (2) 
0:0-1

>  <s_i_glide_gridfile>  (2) 
pfpi4k_grid

>  <i_i_glide_lignum>  (2) 
1

>  <i_i_glide_rotatable_bonds>  (2) 
2

>  <r_i_docking_score>  (2) 
-3.80787

>  <r_i_glide_ligand_efficiency>  (2) 
-0.173085

>  <r_i_glide_ligand_efficiency_sa>  (2) 
-0.484991

>  <r_i_glide_ligand_efficiency_ln>  (2) 
-0.930783

>  <r_i_glide_gscore>  (2) 
-3.80787

>  <r_i_glide_lipo>  (2) 
-0.394938

>  <r_i_glide_hbond>  (2) 
-0.322924

>  <r_i_glide_metal>  (2) 
-0

>  <r_i_glide_rewards>  (2) 
-1.3611

>  <r_i_glide_evdw>  (2) 
-16.5285

>  <r_i_glide_ecoul>  (2) 
-6.01658

>  <r_i_glide_erotb>  (2) 
0

>  <r_i_glide_esite>  (2) 
0

>  <r_i_glide_emodel>  (2) 
-27.6494

>  <r_i_glide_energy>  (2) 
-22.5451

>  <r_i_glide_einternal>  (2) 
0.213149

>  <r_i_glide_intrahb_reward>  (2) 
-0

>  <i_i_glide_confnum>  (2) 
2

>  <i_i_glide_posenum>  (2) 
2

>  <r_i_glide_eff_state_penalty>  (2) 
0

>  <ligand_id>  (2) 
0

>  <original_smiles>  (2) 
COc1ccc2c3c1OC1CCN(C)C(C2)C2C=CC(O)C312

>  <smiles>  (2) 
[H]OC1([H])C([H])=C([H])C2([H])C13c1c4c(OC([H])([H])[H])c([H])c([H])c1C([H])([H])C2([H])[N+]([H])(C([H])([H])[H])C([H])([H])C([H])([H])C3([H])O4

$$$$
0:0:2
     RDKit          3D

 44 48  0  0  1  0  0  0  0  0999 V2000
   -4.2036    3.9090    2.0827 C   0  0  0  0  0  0  0  0  0  0  0  0
   -3.0313    4.6027    2.4834 O   0  0  0  0  0  0  0  0  0  0  0  0
   -2.1839    3.9861    3.3751 C   0  0  0  0  0  0  0  0  0  0  0  0
   -2.5558    2.9385    4.2630 C   0  0  0  0  0  0  0  0  0  0  0  0
   -1.7145    2.5715    5.3506 C   0  0  0  0  0  0  0  0  0  0  0  0
   -0.4080    3.1060    5.4593 C   0  0  0  0  0  0  0  0  0  0  0  0
   -0.0056    3.9058    4.3706 C   0  0  0  0  0  0  0  0  0  0  0  0
   -0.9017    4.5350    3.5100 C   0  0  0  0  0  0  0  0  0  0  0  0
   -0.5838    5.8687    3.3741 O   0  0  0  0  0  0  0  0  0  0  0  0
    0.2376    6.0418    4.5479 C   0  0  2  0  0  0  0  0  0  0  0  0
    0.8575    7.3077    5.1182 C   0  0  0  0  0  0  0  0  0  0  0  0
    1.3213    7.0584    6.6042 C   0  0  0  0  0  0  0  0  0  0  0  0
    0.8376    5.7852    7.2762 N   0  0  2  0  0  0  0  0  0  0  0  0
    0.8162    5.9332    8.7525 C   0  0  0  0  0  0  0  0  0  0  0  0
    1.4629    4.4693    6.8773 C   0  0  1  0  0  0  0  0  0  0  0  0
    0.4426    3.2625    6.7636 C   0  0  0  0  0  0  0  0  0  0  0  0
    2.1430    4.4688    5.5320 C   0  0  2  0  0  0  0  0  0  0  0  0
    3.3885    5.2378    5.1883 C   0  0  0  0  0  0  0  0  0  0  0  0
    3.3871    5.5006    3.8788 C   0  0  0  0  0  0  0  0  0  0  0  0
    2.1076    5.0394    3.2006 C   0  0  1  0  0  0  0  0  0  0  0  0
    2.3382    3.8367    2.5025 O   0  0  0  0  0  0  0  0  0  0  0  0
    1.1628    4.8234    4.4256 C   0  0  1  0  0  0  0  0  0  0  0  0
   -4.7346    4.5105    1.3438 H   0  0  0  0  0  0  0  0  0  0  0  0
   -4.8917    3.7423    2.9066 H   0  0  0  0  0  0  0  0  0  0  0  0
   -3.9524    2.9537    1.6225 H   0  0  0  0  0  0  0  0  0  0  0  0
   -3.5546    2.5424    4.2252 H   0  0  0  0  0  0  0  0  0  0  0  0
   -2.1192    1.9739    6.1570 H   0  0  0  0  0  0  0  0  0  0  0  0
   -0.5310    5.9185    5.3196 H   0  0  0  0  0  0  0  0  0  0  0  0
    1.6823    7.6623    4.4974 H   0  0  0  0  0  0  0  0  0  0  0  0
    0.1044    8.0977    5.0939 H   0  0  0  0  0  0  0  0  0  0  0  0
    2.3999    7.1656    6.6972 H   0  0  0  0  0  0  0  0  0  0  0  0
    0.9151    7.8960    7.1698 H   0  0  0  0  0  0  0  0  0  0  0  0
    1.8249    6.0908    9.1385 H   0  0  0  0  0  0  0  0  0  0  0  0
    0.4008    5.0422    9.2270 H   0  0  0  0  0  0  0  0  0  0  0  0
    0.1968    6.7811    9.0467 H   0  0  0  0  0  0  0  0  0  0  0  0
    2.2103    4.2137    7.6306 H   0  0  0  0  0  0  0  0  0  0  0  0
   -0.2296    3.2743    7.6210 H   0  0  0  0  0  0  0  0  0  0  0  0
    1.0059    2.3335    6.8505 H   0  0  0  0  0  0  0  0  0  0  0  0
    2.4804    3.4426    5.3709 H   0  0  0  0  0  0  0  0  0  0  0  0
    4.1795    5.4644    5.8879 H   0  0  0  0  0  0  0  0  0  0  0  0
    4.1707    6.0132    3.3451 H   0  0  0  0  0  0  0  0  0  0  0  0
    1.7499    5.7888    2.4942 H   0  0  0  0  0  0  0  0  0  0  0  0
    1.6558    3.7694    1.8415 H   0  0  0  0  0  0  0  0  0  0  0  0
   -0.1295    5.6874    7.0045 H   0  0  0  0  0  0  0  0  0  0  0  0
  1  2  1  0
  1 23  1  0
  1 24  1  0
  1 25  1  0
  2  3  1  0
  3  8  2  0
  3  4  1  0
  4  5  2  0
  4 26  1  0
  5  6  1  0
  5 27  1  0
  6 16  1  0
  6  7  2  0
 22  7  1  6
  7  8  1  0
  8  9  1  0
  9 10  1  0
 10 22  1  0
 10 11  1  0
 10 28  1  1
 11 12  1  0
 11 29  1  0
 11 30  1  0
 12 13  1  0
 12 31  1  0
 12 32  1  0
 13 14  1  0
 13 15  1  0
 13 44  1  6
 14 33  1  0
 14 34  1  0
 14 35  1  0
 15 16  1  0
 15 17  1  0
 15 36  1  1
 16 37  1  0
 16 38  1  0
 17 22  1  0
 17 18  1  0
 17 39  1  6
 18 19  2  0
 18 40  1  0
 19 20  1  0
 19 41  1  0
 20 21  1  0
 20 22  1  0
 20 42  1  6
 21 43  1  0
M  CHG  1  13   1
M  END
>  <i_m_ct_stereo_status>  (3) 
1

>  <s_m_source_file>  (3) 
/var/tmp/pbs.5076255.sched01/tmphbojuwnv/0fr5z8inm.sdf

>  <i_m_source_file_index>  (3) 
1

>  <i_lp_mmshare_version>  (3) 
48012

>  <i_f3d_flags>  (3) 
0

>  <s_epik_input>  (3) 
W0NAXTEyM2M0YzVbY0hdW2NIXWMoT1tDSDNdKWM0T1tDQEBIXTFbQ0gyXVtDSDJdTihbQ0gzXSlbQ0BASF0oW0NIMl01KVtDQEBIXTJbQ0hdPVtDSF1bQ0BIXTNbT0hd

>  <s_epik_cmdline>  (3) 
J2VwaWtfcHl0aG9uJywgJy1waHQnLCAnMi4wJywgJy1waCcsICc3LjAnLCAnLXRuJywgJzgnLCAnLW1hJywgJzIwMCcsICctaW1hZScsICc8aW5maWxlLm1hZT4nLCAnLW9tYWUnLCAnPG91dGZpbGUubWFlPic=

>  <r_lp_tautomer_probability>  (3) 
1

>  <r_epik_Ionization_Penalty>  (3) 
0.0440332

>  <r_epik_Ionization_Penalty_Charging>  (3) 
0.0440299

>  <r_epik_Ionization_Penalty_Neutral>  (3) 
3.28327e-06

>  <r_epik_State_Penalty>  (3) 
0.0372912

>  <r_epik_Charging_Adjusted_Penalty>  (3) 
0.0813211

>  <i_epik_Tot_Q>  (3) 
1

>  <i_epik_Tot_abs_Q>  (3) 
1

>  <s_lp_Force_Field>  (3) 
OPLS3e

>  <r_lp_Energy>  (3) 
109.4

>  <b_lp_Chiralities_Consistent>  (3) 
1

>  <s_lp_Variant>  (3) 
0:0-1

>  <s_i_glide_gridfile>  (3) 
pfpi4k_grid

>  <i_i_glide_lignum>  (3) 
1

>  <i_i_glide_rotatable_bonds>  (3) 
2

>  <r_i_docking_score>  (3) 
-3.30874

>  <r_i_glide_ligand_efficiency>  (3) 
-0.150397

>  <r_i_glide_ligand_efficiency_sa>  (3) 
-0.421419

>  <r_i_glide_ligand_efficiency_ln>  (3) 
-0.808777

>  <r_i_glide_gscore>  (3) 
-3.30874

>  <r_i_glide_lipo>  (3) 
-0.258836

>  <r_i_glide_hbond>  (3) 
-0.31207

>  <r_i_glide_metal>  (3) 
-0

>  <r_i_glide_rewards>  (3) 
-1.3611

>  <r_i_glide_evdw>  (3) 
-18.2357

>  <r_i_glide_ecoul>  (3) 
-3.09745

>  <r_i_glide_erotb>  (3) 
0

>  <r_i_glide_esite>  (3) 
-0.000332184

>  <r_i_glide_emodel>  (3) 
-25.0079

>  <r_i_glide_energy>  (3) 
-21.3332

>  <r_i_glide_einternal>  (3) 
1.33242

>  <r_i_glide_intrahb_reward>  (3) 
-0

>  <i_i_glide_confnum>  (3) 
2

>  <i_i_glide_posenum>  (3) 
4

>  <r_i_glide_eff_state_penalty>  (3) 
0

>  <ligand_id>  (3) 
0

>  <original_smiles>  (3) 
COc1ccc2c3c1OC1CCN(C)C(C2)C2C=CC(O)C312

>  <smiles>  (3) 
[H]OC1([H])C([H])=C([H])C2([H])C13c1c4c(OC([H])([H])[H])c([H])c([H])c1C([H])([H])C2([H])[N+]([H])(C([H])([H])[H])C([H])([H])C([H])([H])C3([H])O4

$$$$
0:1:0
     RDKit          3D

 43 47  0  0  1  0  0  0  0  0999 V2000
    2.7644   -4.5217    5.9752 C   0  0  0  0  0  0  0  0  0  0  0  0
    2.6408   -3.9968    4.6650 O   0  0  0  0  0  0  0  0  0  0  0  0
    3.4526   -4.5037    3.6730 C   0  0  0  0  0  0  0  0  0  0  0  0
    4.4501   -5.5011    3.8670 C   0  0  0  0  0  0  0  0  0  0  0  0
    5.4178   -5.7699    2.8574 C   0  0  0  0  0  0  0  0  0  0  0  0
    5.3050   -5.1758    1.5807 C   0  0  0  0  0  0  0  0  0  0  0  0
    4.1056   -4.4577    1.3669 C   0  0  0  0  0  0  0  0  0  0  0  0
    3.3447   -3.9192    2.3967 C   0  0  0  0  0  0  0  0  0  0  0  0
    3.0692   -2.5856    2.1450 O   0  0  0  0  0  0  0  0  0  0  0  0
    4.1020   -2.3097    1.1766 C   0  0  2  0  0  0  0  0  0  0  0  0
    4.4669   -0.9845    0.5236 C   0  0  0  0  0  0  0  0  0  0  0  0
    5.8703   -1.0881   -0.1795 C   0  0  0  0  0  0  0  0  0  0  0  0
    6.6846   -2.2958    0.1440 N   0  0  0  0  0  0  0  0  0  0  0  0
    8.1201   -2.0389    0.0835 C   0  0  0  0  0  0  0  0  0  0  0  0
    6.3449   -3.6288   -0.4225 C   0  0  1  0  0  0  0  0  0  0  0  0
    6.4898   -4.8187    0.6144 C   0  0  0  0  0  0  0  0  0  0  0  0
    4.9211   -3.7618   -0.8946 C   0  0  2  0  0  0  0  0  0  0  0  0
    4.3346   -3.0332   -2.0678 C   0  0  0  0  0  0  0  0  0  0  0  0
    3.0236   -2.8766   -1.8756 C   0  0  0  0  0  0  0  0  0  0  0  0
    2.5667   -3.4012   -0.5255 C   0  0  1  0  0  0  0  0  0  0  0  0
    1.8996   -4.6405   -0.7116 O   0  0  0  0  0  0  0  0  0  0  0  0
    3.9341   -3.5169    0.2333 C   0  0  1  0  0  0  0  0  0  0  0  0
    2.0457   -4.0247    6.6272 H   0  0  0  0  0  0  0  0  0  0  0  0
    3.7574   -4.3405    6.3862 H   0  0  0  0  0  0  0  0  0  0  0  0
    2.5474   -5.5892    6.0016 H   0  0  0  0  0  0  0  0  0  0  0  0
    4.5963   -5.9408    4.8409 H   0  0  0  0  0  0  0  0  0  0  0  0
    6.3111   -6.3143    3.1276 H   0  0  0  0  0  0  0  0  0  0  0  0
    4.9840   -2.3974    1.8282 H   0  0  0  0  0  0  0  0  0  0  0  0
    3.6861   -0.6529   -0.1635 H   0  0  0  0  0  0  0  0  0  0  0  0
    4.5308   -0.2267    1.3069 H   0  0  0  0  0  0  0  0  0  0  0  0
    5.7637   -0.9742   -1.2568 H   0  0  0  0  0  0  0  0  0  0  0  0
    6.4306   -0.2094    0.1467 H   0  0  0  0  0  0  0  0  0  0  0  0
    8.6756   -2.8830    0.4972 H   0  0  0  0  0  0  0  0  0  0  0  0
    8.3713   -1.1602    0.6821 H   0  0  0  0  0  0  0  0  0  0  0  0
    8.4655   -1.8774   -0.9376 H   0  0  0  0  0  0  0  0  0  0  0  0
    7.0093   -3.8047   -1.2701 H   0  0  0  0  0  0  0  0  0  0  0  0
    7.3820   -4.6558    1.2193 H   0  0  0  0  0  0  0  0  0  0  0  0
    6.6791   -5.7375    0.0596 H   0  0  0  0  0  0  0  0  0  0  0  0
    4.8033   -4.8007   -1.2124 H   0  0  0  0  0  0  0  0  0  0  0  0
    4.8950   -2.7415   -2.9430 H   0  0  0  0  0  0  0  0  0  0  0  0
    2.3409   -2.3937   -2.5573 H   0  0  0  0  0  0  0  0  0  0  0  0
    1.9007   -2.6921   -0.0353 H   0  0  0  0  0  0  0  0  0  0  0  0
    2.3839   -5.1292   -1.3724 H   0  0  0  0  0  0  0  0  0  0  0  0
  1  2  1  0
  1 23  1  0
  1 24  1  0
  1 25  1  0
  2  3  1  0
  3  8  2  0
  3  4  1  0
  4  5  2  0
  4 26  1  0
  5  6  1  0
  5 27  1  0
  6 16  1  0
  6  7  2  0
 22  7  1  1
  7  8  1  0
  8  9  1  0
  9 10  1  0
 10 22  1  0
 10 11  1  0
 10 28  1  1
 11 12  1  0
 11 29  1  0
 11 30  1  0
 12 13  1  0
 12 31  1  0
 12 32  1  0
 13 14  1  0
 13 15  1  0
 14 33  1  0
 14 34  1  0
 14 35  1  0
 15 16  1  0
 15 17  1  0
 15 36  1  6
 16 37  1  0
 16 38  1  0
 17 22  1  0
 17 18  1  0
 17 39  1  6
 18 19  2  0
 18 40  1  0
 19 20  1  0
 19 41  1  0
 20 21  1  0
 20 22  1  0
 20 42  1  1
 21 43  1  0
M  END
>  <i_m_ct_stereo_status>  (4) 
1

>  <s_m_source_file>  (4) 
/var/tmp/pbs.5076255.sched01/tmphbojuwnv/0fr5z8inm.sdf

>  <i_m_source_file_index>  (4) 
2

>  <i_lp_mmshare_version>  (4) 
48012

>  <i_f3d_flags>  (4) 
0

>  <s_epik_input>  (4) 
W0NAXTEyM2M0YzVbY0hdW2NIXWMoT1tDSDNdKWM0T1tDQEBIXTFbQ0gyXVtDSDJdTihbQ0gzXSlbQ0BASF0oW0NIMl01KVtDQEBIXTJbQ0hdPVtDSF1bQ0BIXTNbT0hd

>  <s_epik_cmdline>  (4) 
J2VwaWtfcHl0aG9uJywgJy1waHQnLCAnMi4wJywgJy1waCcsICc3LjAnLCAnLXRuJywgJzgnLCAnLW1hJywgJzIwMCcsICctaW1hZScsICc8aW5maWxlLm1hZT4nLCAnLW9tYWUnLCAnPG91dGZpbGUubWFlPic=

>  <r_lp_tautomer_probability>  (4) 
1

>  <r_epik_Ionization_Penalty>  (4) 
1.56202

>  <r_epik_Ionization_Penalty_Charging>  (4) 
0

>  <r_epik_Ionization_Penalty_Neutral>  (4) 
1.56202

>  <r_epik_State_Penalty>  (4) 
1.65711

>  <r_epik_Charging_Adjusted_Penalty>  (4) 
1.65711

>  <i_epik_Tot_Q>  (4) 
0

>  <i_epik_Tot_abs_Q>  (4) 
0

>  <s_lp_Force_Field>  (4) 
OPLS3e

>  <r_lp_Energy>  (4) 
104.614

>  <b_lp_Chiralities_Consistent>  (4) 
1

>  <s_lp_Variant>  (4) 
0:0-2

>  <s_i_glide_gridfile>  (4) 
pfpi4k_grid

>  <i_i_glide_lignum>  (4) 
2

>  <i_i_glide_rotatable_bonds>  (4) 
2

>  <r_i_docking_score>  (4) 
-3.68215

>  <r_i_glide_ligand_efficiency>  (4) 
-0.16737

>  <r_i_glide_ligand_efficiency_sa>  (4) 
-0.468978

>  <r_i_glide_ligand_efficiency_ln>  (4) 
-0.900052

>  <r_i_glide_gscore>  (4) 
-3.68215

>  <r_i_glide_lipo>  (4) 
-0.345336

>  <r_i_glide_hbond>  (4) 
-0.322078

>  <r_i_glide_metal>  (4) 
-0

>  <r_i_glide_rewards>  (4) 
-1.36797

>  <r_i_glide_evdw>  (4) 
-17.4873

>  <r_i_glide_ecoul>  (4) 
-5.14934

>  <r_i_glide_erotb>  (4) 
0

>  <r_i_glide_esite>  (4) 
0

>  <r_i_glide_emodel>  (4) 
-28.1941

>  <r_i_glide_energy>  (4) 
-22.6366

>  <r_i_glide_einternal>  (4) 
0.211318

>  <r_i_glide_intrahb_reward>  (4) 
-0

>  <i_i_glide_confnum>  (4) 
1

>  <i_i_glide_posenum>  (4) 
13

>  <r_i_glide_eff_state_penalty>  (4) 
0

>  <ligand_id>  (4) 
0

>  <original_smiles>  (4) 
COc1ccc2c3c1OC1CCN(C)C(C2)C2C=CC(O)C312

>  <smiles>  (4) 
[H]OC1([H])C([H])=C([H])C2([H])C3([H])N(C([H])([H])[H])C([H])([H])C([H])([H])C4([H])Oc5c(OC([H])([H])[H])c([H])c([H])c(c5C142)C3([H])[H]

$$$$
0:1:1
     RDKit          3D

 43 47  0  0  1  0  0  0  0  0999 V2000
    1.5118   -7.2817    2.0637 C   0  0  0  0  0  0  0  0  0  0  0  0
    1.5897   -6.0544    1.3534 O   0  0  0  0  0  0  0  0  0  0  0  0
    2.7856   -5.7550    0.7250 C   0  0  0  0  0  0  0  0  0  0  0  0
    3.9697   -6.5334    0.8002 C   0  0  0  0  0  0  0  0  0  0  0  0
    5.2127   -6.0217    0.3262 C   0  0  0  0  0  0  0  0  0  0  0  0
    5.2482   -4.7988   -0.3979 C   0  0  0  0  0  0  0  0  0  0  0  0
    3.9962   -4.2652   -0.7193 C   0  0  0  0  0  0  0  0  0  0  0  0
    2.8449   -4.5270    0.0302 C   0  0  0  0  0  0  0  0  0  0  0  0
    2.2106   -3.3608    0.3616 O   0  0  0  0  0  0  0  0  0  0  0  0
    3.2873   -2.4438    0.1787 C   0  0  2  0  0  0  0  0  0  0  0  0
    3.3326   -0.9762    0.5173 C   0  0  0  0  0  0  0  0  0  0  0  0
    4.8115   -0.4917    0.5268 C   0  0  0  0  0  0  0  0  0  0  0  0
    5.8571   -1.5400    0.4969 N   0  0  0  0  0  0  0  0  0  0  0  0
    7.0759   -1.0727    1.1027 C   0  0  0  0  0  0  0  0  0  0  0  0
    6.1891   -2.2576   -0.7456 C   0  0  1  0  0  0  0  0  0  0  0  0
    6.4381   -3.7769   -0.4268 C   0  0  0  0  0  0  0  0  0  0  0  0
    5.0911   -2.2837   -1.7759 C   0  0  2  0  0  0  0  0  0  0  0  0
    4.6192   -1.0864   -2.5403 C   0  0  0  0  0  0  0  0  0  0  0  0
    3.3385   -1.2412   -2.8757 C   0  0  0  0  0  0  0  0  0  0  0  0
    2.7875   -2.5232   -2.3236 C   0  0  1  0  0  0  0  0  0  0  0  0
    2.7483   -3.4474   -3.3811 O   0  0  0  0  0  0  0  0  0  0  0  0
    3.8173   -2.8712   -1.2032 C   0  0  1  0  0  0  0  0  0  0  0  0
    0.5258   -7.3597    2.5189 H   0  0  0  0  0  0  0  0  0  0  0  0
    2.2442   -7.3394    2.8706 H   0  0  0  0  0  0  0  0  0  0  0  0
    1.6363   -8.1325    1.3936 H   0  0  0  0  0  0  0  0  0  0  0  0
    3.9877   -7.4576    1.3633 H   0  0  0  0  0  0  0  0  0  0  0  0
    6.1339   -6.5089    0.6179 H   0  0  0  0  0  0  0  0  0  0  0  0
    3.9337   -2.7839    0.9977 H   0  0  0  0  0  0  0  0  0  0  0  0
    2.7136   -0.4029   -0.1655 H   0  0  0  0  0  0  0  0  0  0  0  0
    2.9044   -0.8312    1.5034 H   0  0  0  0  0  0  0  0  0  0  0  0
    4.9224    0.1117   -0.3598 H   0  0  0  0  0  0  0  0  0  0  0  0
    4.9421    0.1456    1.4102 H   0  0  0  0  0  0  0  0  0  0  0  0
    7.7589   -1.9132    1.2339 H   0  0  0  0  0  0  0  0  0  0  0  0
    6.8631   -0.6944    2.0982 H   0  0  0  0  0  0  0  0  0  0  0  0
    7.5436   -0.3345    0.4574 H   0  0  0  0  0  0  0  0  0  0  0  0
    7.0845   -1.8397   -1.2229 H   0  0  0  0  0  0  0  0  0  0  0  0
    7.0295   -3.8837    0.4791 H   0  0  0  0  0  0  0  0  0  0  0  0
    7.1079   -4.0861   -1.1986 H   0  0  0  0  0  0  0  0  0  0  0  0
    5.4118   -2.9428   -2.5859 H   0  0  0  0  0  0  0  0  0  0  0  0
    5.2225   -0.2425   -2.7634 H   0  0  0  0  0  0  0  0  0  0  0  0
    2.7509   -0.5490   -3.4432 H   0  0  0  0  0  0  0  0  0  0  0  0
    1.7905   -2.3887   -1.9354 H   0  0  0  0  0  0  0  0  0  0  0  0
    2.6190   -4.3152   -3.0085 H   0  0  0  0  0  0  0  0  0  0  0  0
  1  2  1  0
  1 23  1  0
  1 24  1  0
  1 25  1  0
  2  3  1  0
  3  8  2  0
  3  4  1  0
  4  5  2  0
  4 26  1  0
  5  6  1  0
  5 27  1  0
  6 16  1  0
  6  7  2  0
 22  7  1  1
  7  8  1  0
  8  9  1  0
  9 10  1  0
 10 22  1  0
 10 11  1  0
 10 28  1  1
 11 12  1  0
 11 29  1  0
 11 30  1  0
 12 13  1  0
 12 31  1  0
 12 32  1  0
 13 14  1  0
 13 15  1  0
 14 33  1  0
 14 34  1  0
 14 35  1  0
 15 16  1  0
 15 17  1  0
 15 36  1  6
 16 37  1  0
 16 38  1  0
 17 22  1  0
 17 18  1  0
 17 39  1  6
 18 19  2  0
 18 40  1  0
 19 20  1  0
 19 41  1  0
 20 21  1  0
 20 22  1  0
 20 42  1  1
 21 43  1  0
M  END
>  <i_m_ct_stereo_status>  (5) 
1

>  <s_m_source_file>  (5) 
/var/tmp/pbs.5076255.sched01/tmphbojuwnv/0fr5z8inm.sdf

>  <i_m_source_file_index>  (5) 
2

>  <i_lp_mmshare_version>  (5) 
48012

>  <i_f3d_flags>  (5) 
0

>  <s_epik_input>  (5) 
W0NAXTEyM2M0YzVbY0hdW2NIXWMoT1tDSDNdKWM0T1tDQEBIXTFbQ0gyXVtDSDJdTihbQ0gzXSlbQ0BASF0oW0NIMl01KVtDQEBIXTJbQ0hdPVtDSF1bQ0BIXTNbT0hd

>  <s_epik_cmdline>  (5) 
J2VwaWtfcHl0aG9uJywgJy1waHQnLCAnMi4wJywgJy1waCcsICc3LjAnLCAnLXRuJywgJzgnLCAnLW1hJywgJzIwMCcsICctaW1hZScsICc8aW5maWxlLm1hZT4nLCAnLW9tYWUnLCAnPG91dGZpbGUubWFlPic=

>  <r_lp_tautomer_probability>  (5) 
1

>  <r_epik_Ionization_Penalty>  (5) 
1.56202

>  <r_epik_Ionization_Penalty_Charging>  (5) 
0

>  <r_epik_Ionization_Penalty_Neutral>  (5) 
1.56202

>  <r_epik_State_Penalty>  (5) 
1.65711

>  <r_epik_Charging_Adjusted_Penalty>  (5) 
1.65711

>  <i_epik_Tot_Q>  (5) 
0

>  <i_epik_Tot_abs_Q>  (5) 
0

>  <s_lp_Force_Field>  (5) 
OPLS3e

>  <r_lp_Energy>  (5) 
104.614

>  <b_lp_Chiralities_Consistent>  (5) 
1

>  <s_lp_Variant>  (5) 
0:0-2

>  <s_i_glide_gridfile>  (5) 
pfpi4k_grid

>  <i_i_glide_lignum>  (5) 
2

>  <i_i_glide_rotatable_bonds>  (5) 
2

>  <r_i_docking_score>  (5) 
-3.65898

>  <r_i_glide_ligand_efficiency>  (5) 
-0.166317

>  <r_i_glide_ligand_efficiency_sa>  (5) 
-0.466027

>  <r_i_glide_ligand_efficiency_ln>  (5) 
-0.894388

>  <r_i_glide_gscore>  (5) 
-3.65898

>  <r_i_glide_lipo>  (5) 
-0.470663

>  <r_i_glide_hbond>  (5) 
-0.383447

>  <r_i_glide_metal>  (5) 
-0

>  <r_i_glide_rewards>  (5) 
-1.36797

>  <r_i_glide_evdw>  (5) 
-16.5623

>  <r_i_glide_ecoul>  (5) 
-4.05857

>  <r_i_glide_erotb>  (5) 
0

>  <r_i_glide_esite>  (5) 
0

>  <r_i_glide_emodel>  (5) 
-25.638

>  <r_i_glide_energy>  (5) 
-20.6208

>  <r_i_glide_einternal>  (5) 
0.615477

>  <r_i_glide_intrahb_reward>  (5) 
-0

>  <i_i_glide_confnum>  (5) 
1

>  <i_i_glide_posenum>  (5) 
31

>  <r_i_glide_eff_state_penalty>  (5) 
0

>  <ligand_id>  (5) 
0

>  <original_smiles>  (5) 
COc1ccc2c3c1OC1CCN(C)C(C2)C2C=CC(O)C312

>  <smiles>  (5) 
[H]OC1([H])C([H])=C([H])C2([H])C3([H])N(C([H])([H])[H])C([H])([H])C([H])([H])C4([H])Oc5c(OC([H])([H])[H])c([H])c([H])c(c5C142)C3([H])[H]

$$$$
0:1:2
     RDKit          3D

 43 47  0  0  1  0  0  0  0  0999 V2000
   -4.1639    3.8694    2.1197 C   0  0  0  0  0  0  0  0  0  0  0  0
   -3.0145    4.6217    2.4923 O   0  0  0  0  0  0  0  0  0  0  0  0
   -2.1500    4.0674    3.4090 C   0  0  0  0  0  0  0  0  0  0  0  0
   -2.4926    3.0650    4.3594 C   0  0  0  0  0  0  0  0  0  0  0  0
   -1.6505    2.7912    5.4801 C   0  0  0  0  0  0  0  0  0  0  0  0
   -0.3648    3.3819    5.5616 C   0  0  0  0  0  0  0  0  0  0  0  0
    0.0293    4.1116    4.4214 C   0  0  0  0  0  0  0  0  0  0  0  0
   -0.8765    4.6577    3.5174 C   0  0  0  0  0  0  0  0  0  0  0  0
   -0.5823    5.9849    3.2912 O   0  0  0  0  0  0  0  0  0  0  0  0
    0.2314    6.2618    4.4424 C   0  0  2  0  0  0  0  0  0  0  0  0
    0.8362    7.5757    4.9236 C   0  0  0  0  0  0  0  0  0  0  0  0
    1.3171    7.4558    6.4191 C   0  0  0  0  0  0  0  0  0  0  0  0
    0.8521    6.2447    7.1554 N   0  0  0  0  0  0  0  0  0  0  0  0
    0.7239    6.4961    8.5848 C   0  0  0  0  0  0  0  0  0  0  0  0
    1.4679    4.9122    6.9037 C   0  0  1  0  0  0  0  0  0  0  0  0
    0.4136    3.7240    6.8787 C   0  0  0  0  0  0  0  0  0  0  0  0
    2.1442    4.7907    5.5588 C   0  0  2  0  0  0  0  0  0  0  0  0
    3.3983    5.5113    5.1533 C   0  0  0  0  0  0  0  0  0  0  0  0
    3.3973    5.6798    3.8310 C   0  0  0  0  0  0  0  0  0  0  0  0
    2.1163    5.1833    3.1915 C   0  0  1  0  0  0  0  0  0  0  0  0
    2.3512    3.9422    2.5595 O   0  0  0  0  0  0  0  0  0  0  0  0
    1.1749    5.0528    4.4224 C   0  0  1  0  0  0  0  0  0  0  0  0
   -4.7050    4.4054    1.3442 H   0  0  0  0  0  0  0  0  0  0  0  0
   -4.8623    3.7462    2.9438 H   0  0  0  0  0  0  0  0  0  0  0  0
   -3.8806    2.8949    1.7216 H   0  0  0  0  0  0  0  0  0  0  0  0
   -3.4825    2.6569    4.3368 H   0  0  0  0  0  0  0  0  0  0  0  0
   -2.0655    2.2579    6.3186 H   0  0  0  0  0  0  0  0  0  0  0  0
   -0.5368    6.1677    5.2174 H   0  0  0  0  0  0  0  0  0  0  0  0
    1.6342    7.9199    4.2632 H   0  0  0  0  0  0  0  0  0  0  0  0
    0.0635    8.3426    4.8769 H   0  0  0  0  0  0  0  0  0  0  0  0
    2.3995    7.5509    6.4869 H   0  0  0  0  0  0  0  0  0  0  0  0
    0.9278    8.3322    6.9421 H   0  0  0  0  0  0  0  0  0  0  0  0
    0.2447    5.6521    9.0796 H   0  0  0  0  0  0  0  0  0  0  0  0
    0.0954    7.3678    8.7529 H   0  0  0  0  0  0  0  0  0  0  0  0
    1.6911    6.6664    9.0523 H   0  0  0  0  0  0  0  0  0  0  0  0
    2.2136    4.7278    7.6858 H   0  0  0  0  0  0  0  0  0  0  0  0
   -0.3051    3.8920    7.6814 H   0  0  0  0  0  0  0  0  0  0  0  0
    0.9443    2.8072    7.1421 H   0  0  0  0  0  0  0  0  0  0  0  0
    2.4753    3.7516    5.4728 H   0  0  0  0  0  0  0  0  0  0  0  0
    4.1846    5.7955    5.8330 H   0  0  0  0  0  0  0  0  0  0  0  0
    4.1774    6.1511    3.2588 H   0  0  0  0  0  0  0  0  0  0  0  0
    1.7516    5.9012    2.4677 H   0  0  0  0  0  0  0  0  0  0  0  0
    1.6484    3.8157    1.9308 H   0  0  0  0  0  0  0  0  0  0  0  0
  1  2  1  0
  1 23  1  0
  1 24  1  0
  1 25  1  0
  2  3  1  0
  3  8  2  0
  3  4  1  0
  4  5  2  0
  4 26  1  0
  5  6  1  0
  5 27  1  0
  6 16  1  0
  6  7  2  0
 22  7  1  6
  7  8  1  0
  8  9  1  0
  9 10  1  0
 10 22  1  0
 10 11  1  0
 10 28  1  1
 11 12  1  0
 11 29  1  0
 11 30  1  0
 12 13  1  0
 12 31  1  0
 12 32  1  0
 13 14  1  0
 13 15  1  0
 14 33  1  0
 14 34  1  0
 14 35  1  0
 15 16  1  0
 15 17  1  0
 15 36  1  1
 16 37  1  0
 16 38  1  0
 17 22  1  0
 17 18  1  0
 17 39  1  6
 18 19  2  0
 18 40  1  0
 19 20  1  0
 19 41  1  0
 20 21  1  0
 20 22  1  0
 20 42  1  6
 21 43  1  0
M  END
>  <i_m_ct_stereo_status>  (6) 
1

>  <s_m_source_file>  (6) 
/var/tmp/pbs.5076255.sched01/tmphbojuwnv/0fr5z8inm.sdf

>  <i_m_source_file_index>  (6) 
2

>  <i_lp_mmshare_version>  (6) 
48012

>  <i_f3d_flags>  (6) 
0

>  <s_epik_input>  (6) 
W0NAXTEyM2M0YzVbY0hdW2NIXWMoT1tDSDNdKWM0T1tDQEBIXTFbQ0gyXVtDSDJdTihbQ0gzXSlbQ0BASF0oW0NIMl01KVtDQEBIXTJbQ0hdPVtDSF1bQ0BIXTNbT0hd

>  <s_epik_cmdline>  (6) 
J2VwaWtfcHl0aG9uJywgJy1waHQnLCAnMi4wJywgJy1waCcsICc3LjAnLCAnLXRuJywgJzgnLCAnLW1hJywgJzIwMCcsICctaW1hZScsICc8aW5maWxlLm1hZT4nLCAnLW9tYWUnLCAnPG91dGZpbGUubWFlPic=

>  <r_lp_tautomer_probability>  (6) 
1

>  <r_epik_Ionization_Penalty>  (6) 
1.56202

>  <r_epik_Ionization_Penalty_Charging>  (6) 
0

>  <r_epik_Ionization_Penalty_Neutral>  (6) 
1.56202

>  <r_epik_State_Penalty>  (6) 
1.65711

>  <r_epik_Charging_Adjusted_Penalty>  (6) 
1.65711

>  <i_epik_Tot_Q>  (6) 
0

>  <i_epik_Tot_abs_Q>  (6) 
0

>  <s_lp_Force_Field>  (6) 
OPLS3e

>  <r_lp_Energy>  (6) 
104.614

>  <b_lp_Chiralities_Consistent>  (6) 
1

>  <s_lp_Variant>  (6) 
0:0-2

>  <s_i_glide_gridfile>  (6) 
pfpi4k_grid

>  <i_i_glide_lignum>  (6) 
2

>  <i_i_glide_rotatable_bonds>  (6) 
2

>  <r_i_docking_score>  (6) 
-3.35042

>  <r_i_glide_ligand_efficiency>  (6) 
-0.152292

>  <r_i_glide_ligand_efficiency_sa>  (6) 
-0.426727

>  <r_i_glide_ligand_efficiency_ln>  (6) 
-0.818964

>  <r_i_glide_gscore>  (6) 
-3.35042

>  <r_i_glide_lipo>  (6) 
-0.273898

>  <r_i_glide_hbond>  (6) 
-0.316585

>  <r_i_glide_metal>  (6) 
-0

>  <r_i_glide_rewards>  (6) 
-1.36797

>  <r_i_glide_evdw>  (6) 
-18.3059

>  <r_i_glide_ecoul>  (6) 
-3.1778

>  <r_i_glide_erotb>  (6) 
0

>  <r_i_glide_esite>  (6) 
0

>  <r_i_glide_emodel>  (6) 
-25.8371

>  <r_i_glide_energy>  (6) 
-21.4837

>  <r_i_glide_einternal>  (6) 
1.25791

>  <r_i_glide_intrahb_reward>  (6) 
-0

>  <i_i_glide_confnum>  (6) 
2

>  <i_i_glide_posenum>  (6) 
2

>  <r_i_glide_eff_state_penalty>  (6) 
0

>  <ligand_id>  (6) 
0

>  <original_smiles>  (6) 
COc1ccc2c3c1OC1CCN(C)C(C2)C2C=CC(O)C312

>  <smiles>  (6) 
[H]OC1([H])C([H])=C([H])C2([H])C3([H])N(C([H])([H])[H])C([H])([H])C([H])([H])C4([H])Oc5c(OC([H])([H])[H])c([H])c([H])c(c5C142)C3([H])[H]

$$$$
1:0:0
     RDKit          3D

 59 63  0  0  1  0  0  0  0  0999 V2000
    0.8034   -5.3376    5.5760 C   0  0  0  0  0  0  0  0  0  0  0  0
    0.2737   -5.6122    4.2886 O   0  0  0  0  0  0  0  0  0  0  0  0
    1.1835   -5.5276    3.1987 C   0  0  1  0  0  0  0  0  0  0  0  0
    1.6577   -4.1178    2.8268 C   0  0  0  0  0  0  0  0  0  0  0  0
    3.1773   -3.7890    3.0769 C   0  0  1  0  0  0  0  0  0  0  0  0
    3.2267   -2.9203    4.3672 C   0  0  0  0  0  0  0  0  0  0  0  0
    3.9675   -5.0782    3.4166 C   0  0  0  0  0  0  0  0  0  0  0  0
    3.5365   -6.3159    2.6333 C   0  0  2  0  0  0  0  0  0  0  0  0
    3.8740   -6.2850    1.1594 C   0  0  0  0  0  0  0  0  0  0  0  0
    3.9915   -5.2499    0.3052 C   0  0  0  0  0  0  0  0  0  0  0  0
    3.7542   -3.7388    0.4424 C   0  0  2  0  0  0  0  0  0  0  0  0
    4.4858   -2.9103   -0.6914 C   0  0  0  0  0  0  0  0  0  0  0  0
    5.7845   -3.5717   -1.2287 C   0  0  0  0  0  0  0  0  0  0  0  0
    3.5293   -2.6905   -1.8939 C   0  0  0  0  0  0  0  0  0  0  0  0
    4.8486   -1.5168   -0.0763 C   0  0  2  0  0  0  0  0  0  0  0  0
    5.3798   -0.6601   -1.0647 O   0  0  0  0  0  0  0  0  0  0  0  0
    5.8710   -1.6392    1.0691 C   0  0  0  0  0  0  0  0  0  0  0  0
    5.3540   -2.6784    2.0830 C   0  0  0  0  0  0  0  0  0  0  0  0
    3.8507   -3.0258    1.8454 C   0  0  2  0  0  0  0  0  0  0  0  0
    3.1559   -1.6500    1.6095 C   0  0  0  0  0  0  0  0  0  0  0  0
    3.6845   -0.9712    0.4602 O   0  0  0  0  0  0  0  0  0  0  0  0
    2.1052   -6.7093    2.9921 C   0  0  2  0  0  0  0  0  0  0  0  0
    0.8113   -6.6029    2.1809 C   0  0  0  0  0  0  0  0  0  0  0  0
   -0.2538   -7.6469    2.4900 C   0  0  0  0  0  0  0  0  0  0  0  0
    0.7456   -6.3409    0.6818 C   0  0  0  0  0  0  0  0  0  0  0  0
    0.1167   -5.7030    6.3459 H   0  0  0  0  0  0  0  0  0  0  0  0
    0.9012   -4.2632    5.7345 H   0  0  0  0  0  0  0  0  0  0  0  0
    1.7685   -5.8218    5.7394 H   0  0  0  0  0  0  0  0  0  0  0  0
    1.4556   -3.9882    1.7775 H   0  0  0  0  0  0  0  0  0  0  0  0
    0.9925   -3.3931    3.2982 H   0  0  0  0  0  0  0  0  0  0  0  0
    4.2353   -2.6374    4.6610 H   0  0  0  0  0  0  0  0  0  0  0  0
    2.8372   -3.4682    5.2242 H   0  0  0  0  0  0  0  0  0  0  0  0
    2.6239   -2.0133    4.2958 H   0  0  0  0  0  0  0  0  0  0  0  0
    5.0418   -4.9426    3.3317 H   0  0  0  0  0  0  0  0  0  0  0  0
    3.8237   -5.3254    4.4721 H   0  0  0  0  0  0  0  0  0  0  0  0
    4.1612   -7.1269    3.0079 H   0  0  0  0  0  0  0  0  0  0  0  0
    4.0300   -7.2706    0.7456 H   0  0  0  0  0  0  0  0  0  0  0  0
    4.1933   -5.5538   -0.7106 H   0  0  0  0  0  0  0  0  0  0  0  0
    2.7084   -3.6736    0.1567 H   0  0  0  0  0  0  0  0  0  0  0  0
    6.3679   -2.8851   -1.8417 H   0  0  0  0  0  0  0  0  0  0  0  0
    5.5573   -4.4167   -1.8762 H   0  0  0  0  0  0  0  0  0  0  0  0
    6.4301   -3.9277   -0.4256 H   0  0  0  0  0  0  0  0  0  0  0  0
    4.0070   -2.1360   -2.7012 H   0  0  0  0  0  0  0  0  0  0  0  0
    2.6381   -2.1322   -1.6077 H   0  0  0  0  0  0  0  0  0  0  0  0
    3.1937   -3.6383   -2.3156 H   0  0  0  0  0  0  0  0  0  0  0  0
    5.3319    0.2372   -0.7437 H   0  0  0  0  0  0  0  0  0  0  0  0
    6.8460   -1.9340    0.6856 H   0  0  0  0  0  0  0  0  0  0  0  0
    5.9912   -0.6609    1.5373 H   0  0  0  0  0  0  0  0  0  0  0  0
    5.9775   -3.5707    2.0108 H   0  0  0  0  0  0  0  0  0  0  0  0
    5.5285   -2.2579    3.0707 H   0  0  0  0  0  0  0  0  0  0  0  0
    2.0803   -1.7487    1.4656 H   0  0  0  0  0  0  0  0  0  0  0  0
    3.2925   -0.9827    2.4596 H   0  0  0  0  0  0  0  0  0  0  0  0
    2.0821   -7.4454    3.7888 H   0  0  0  0  0  0  0  0  0  0  0  0
   -0.0795   -8.5473    1.9003 H   0  0  0  0  0  0  0  0  0  0  0  0
   -1.2497   -7.2725    2.2562 H   0  0  0  0  0  0  0  0  0  0  0  0
   -0.2327   -7.9382    3.5392 H   0  0  0  0  0  0  0  0  0  0  0  0
    0.9965   -7.2536    0.1466 H   0  0  0  0  0  0  0  0  0  0  0  0
    1.4362   -5.5722    0.3628 H   0  0  0  0  0  0  0  0  0  0  0  0
   -0.2638   -6.0567    0.3793 H   0  0  0  0  0  0  0  0  0  0  0  0
  1  2  1  0
  1 26  1  0
  1 27  1  0
  1 28  1  0
  3  2  1  1
  3 22  1  0
  3 23  1  0
  3  4  1  0
  4  5  1  0
  4 29  1  0
  4 30  1  0
  5 19  1  0
  5  6  1  1
  5  7  1  0
  6 31  1  0
  6 32  1  0
  6 33  1  0
  7  8  1  0
  7 34  1  0
  7 35  1  0
  8  9  1  0
  8 22  1  0
  8 36  1  1
  9 10  2  0
  9 37  1  0
 10 11  1  0
 10 38  1  0
 11 19  1  0
 11 12  1  0
 11 39  1  6
 12 13  1  0
 12 14  1  0
 12 15  1  0
 13 40  1  0
 13 41  1  0
 13 42  1  0
 14 43  1  0
 14 44  1  0
 14 45  1  0
 15 21  1  0
 15 16  1  6
 15 17  1  0
 16 46  1  0
 17 18  1  0
 17 47  1  0
 17 48  1  0
 19 18  1  1
 18 49  1  0
 18 50  1  0
 19 20  1  0
 20 21  1  0
 20 51  1  0
 20 52  1  0
 22 23  1  0
 22 53  1  1
 23 24  1  0
 23 25  1  0
 24 54  1  0
 24 55  1  0
 24 56  1  0
 25 57  1  0
 25 58  1  0
 25 59  1  0
M  END
>  <i_m_ct_stereo_status>  (7) 
1

>  <s_m_source_file>  (7) 
/var/tmp/pbs.5076255.sched01/tmphbojuwnv/0fr5z8inm.sdf

>  <i_m_source_file_index>  (7) 
3

>  <i_lp_mmshare_version>  (7) 
48012

>  <i_f3d_flags>  (7) 
0

>  <s_epik_input>  (7) 
W0NIM11bQ0BdMShbQ0BdMjM0KVtDSDJdW0NAXTUoT1tDSDNdKVtDQEBIXShDNShbQ0gzXSlbQ0gzXSlbQ0BASF0oW0NIMl0xKVtDSF09W0NIXVtDQEBIXTJDKFtDSDNdKShbQ0gzXSlbQ0BdKFtPSF0pKFtDSDJdW0NIMl0zKU9bQ0gyXTQ=

>  <s_epik_cmdline>  (7) 
J2VwaWtfcHl0aG9uJywgJy1waHQnLCAnMi4wJywgJy1waCcsICc3LjAnLCAnLXRuJywgJzgnLCAnLW1hJywgJzIwMCcsICctaW1hZScsICc8aW5maWxlLm1hZT4nLCAnLW9tYWUnLCAnPG91dGZpbGUubWFlPic=

>  <r_lp_tautomer_probability>  (7) 
1

>  <r_epik_Ionization_Penalty>  (7) 
4.77462e-08

>  <r_epik_Ionization_Penalty_Charging>  (7) 
0

>  <r_epik_Ionization_Penalty_Neutral>  (7) 
4.77462e-08

>  <r_epik_State_Penalty>  (7) 
-0

>  <r_epik_Charging_Adjusted_Penalty>  (7) 
0

>  <i_epik_Tot_Q>  (7) 
0

>  <i_epik_Tot_abs_Q>  (7) 
0

>  <s_lp_Force_Field>  (7) 
OPLS3e

>  <r_lp_Energy>  (7) 
90.0552

>  <b_lp_Chiralities_Consistent>  (7) 
1

>  <s_lp_Variant>  (7) 
1:0-1

>  <s_i_glide_gridfile>  (7) 
pfpi4k_grid

>  <i_i_glide_lignum>  (7) 
3

>  <i_i_glide_rotatable_bonds>  (7) 
2

>  <r_i_docking_score>  (7) 
-2.95579

>  <r_i_glide_ligand_efficiency>  (7) 
-0.118231

>  <r_i_glide_ligand_efficiency_sa>  (7) 
-0.345711

>  <r_i_glide_ligand_efficiency_ln>  (7) 
-0.70061

>  <r_i_glide_gscore>  (7) 
-2.95579

>  <r_i_glide_lipo>  (7) 
-0.358879

>  <r_i_glide_hbond>  (7) 
0

>  <r_i_glide_metal>  (7) 
-0

>  <r_i_glide_rewards>  (7) 
-1.04657

>  <r_i_glide_evdw>  (7) 
-18.4302

>  <r_i_glide_ecoul>  (7) 
-4.11997

>  <r_i_glide_erotb>  (7) 
0

>  <r_i_glide_esite>  (7) 
-0.0108331

>  <r_i_glide_emodel>  (7) 
-26.1739

>  <r_i_glide_energy>  (7) 
-22.5502

>  <r_i_glide_einternal>  (7) 
0.565904

>  <r_i_glide_intrahb_reward>  (7) 
-0

>  <i_i_glide_confnum>  (7) 
1

>  <i_i_glide_posenum>  (7) 
1

>  <r_i_glide_eff_state_penalty>  (7) 
0

>  <ligand_id>  (7) 
1

>  <original_smiles>  (7) 
COC12CC3(C)CC(C=CC4C(C)(C)C5(O)CCC43CO5)C1C2(C)C

>  <smiles>  (7) 
[H]OC12OC([H])([H])C3(C([H])([H])C1([H])[H])C([H])(C([H])=C([H])C1([H])C([H])([H])C3(C([H])([H])[H])C([H])([H])C3(OC([H])([H])[H])C1([H])C3(C([H])([H])[H])C([H])([H])[H])C2(C([H])([H])[H])C([H])([H])[H]

$$$$
1:0:1
     RDKit          3D

 59 63  0  0  1  0  0  0  0  0999 V2000
    2.0611   -5.0491    5.8884 C   0  0  0  0  0  0  0  0  0  0  0  0
    1.3281   -5.4687    4.7464 O   0  0  0  0  0  0  0  0  0  0  0  0
    2.0101   -5.4216    3.4932 C   0  0  1  0  0  0  0  0  0  0  0  0
    2.3035   -4.0220    2.9419 C   0  0  0  0  0  0  0  0  0  0  0  0
    3.8258   -3.5927    2.8986 C   0  0  1  0  0  0  0  0  0  0  0  0
    4.0528   -2.6275    4.1010 C   0  0  0  0  0  0  0  0  0  0  0  0
    4.7555   -4.8033    3.1731 C   0  0  0  0  0  0  0  0  0  0  0  0
    4.2794   -6.1214    2.5675 C   0  0  2  0  0  0  0  0  0  0  0  0
    4.3433   -6.1829    1.0589 C   0  0  0  0  0  0  0  0  0  0  0  0
    4.2325   -5.2081    0.1343 C   0  0  0  0  0  0  0  0  0  0  0  0
    3.9185   -3.7082    0.2121 C   0  0  2  0  0  0  0  0  0  0  0  0
    4.3718   -2.9291   -1.0897 C   0  0  0  0  0  0  0  0  0  0  0  0
    5.5970   -3.5562   -1.8153 C   0  0  0  0  0  0  0  0  0  0  0  0
    3.2018   -2.8595   -2.1072 C   0  0  0  0  0  0  0  0  0  0  0  0
    4.7392   -1.4739   -0.6414 C   0  0  2  0  0  0  0  0  0  0  0  0
    5.0156   -0.6581   -1.7600 O   0  0  0  0  0  0  0  0  0  0  0  0
    5.9627   -1.4525    0.2964 C   0  0  0  0  0  0  0  0  0  0  0  0
    5.7124   -2.4396    1.4544 C   0  0  0  0  0  0  0  0  0  0  0  0
    4.2190   -2.8865    1.5225 C   0  0  2  0  0  0  0  0  0  0  0  0
    3.4008   -1.5748    1.3372 C   0  0  0  0  0  0  0  0  0  0  0  0
    3.6610   -0.9578    0.0713 O   0  0  0  0  0  0  0  0  0  0  0  0
    2.9679   -6.5626    3.2093 C   0  0  2  0  0  0  0  0  0  0  0  0
    1.5477   -6.6004    2.6433 C   0  0  0  0  0  0  0  0  0  0  0  0
    0.6311   -7.6683    3.2149 C   0  0  0  0  0  0  0  0  0  0  0  0
    1.1941   -6.4558    1.1723 C   0  0  0  0  0  0  0  0  0  0  0  0
    1.5545   -5.3957    6.7942 H   0  0  0  0  0  0  0  0  0  0  0  0
    2.0889   -3.9609    5.9472 H   0  0  0  0  0  0  0  0  0  0  0  0
    3.0781   -5.4474    5.9075 H   0  0  0  0  0  0  0  0  0  0  0  0
    1.8650   -3.9566    1.9532 H   0  0  0  0  0  0  0  0  0  0  0  0
    1.7047   -3.3050    3.5062 H   0  0  0  0  0  0  0  0  0  0  0  0
    5.0761   -2.2683    4.1843 H   0  0  0  0  0  0  0  0  0  0  0  0
    3.8658   -3.1286    5.0509 H   0  0  0  0  0  0  0  0  0  0  0  0
    3.3894   -1.7612    4.0884 H   0  0  0  0  0  0  0  0  0  0  0  0
    5.7864   -4.6152    2.8840 H   0  0  0  0  0  0  0  0  0  0  0  0
    4.8237   -4.9766    4.2502 H   0  0  0  0  0  0  0  0  0  0  0  0
    5.0172   -6.8664    2.8714 H   0  0  0  0  0  0  0  0  0  0  0  0
    4.4868   -7.1856    0.6862 H   0  0  0  0  0  0  0  0  0  0  0  0
    4.2693   -5.5750   -0.8766 H   0  0  0  0  0  0  0  0  0  0  0  0
    2.8353   -3.7247    0.1261 H   0  0  0  0  0  0  0  0  0  0  0  0
    6.0076   -2.8821   -2.5657 H   0  0  0  0  0  0  0  0  0  0  0  0
    5.3241   -4.4626   -2.3547 H   0  0  0  0  0  0  0  0  0  0  0  0
    6.3990   -3.8119   -1.1219 H   0  0  0  0  0  0  0  0  0  0  0  0
    3.4890   -2.3396   -3.0196 H   0  0  0  0  0  0  0  0  0  0  0  0
    2.3426   -2.3297   -1.6976 H   0  0  0  0  0  0  0  0  0  0  0  0
    2.8618   -3.8543   -2.3954 H   0  0  0  0  0  0  0  0  0  0  0  0
    5.0089    0.2492   -1.4644 H   0  0  0  0  0  0  0  0  0  0  0  0
    6.8719   -1.7244   -0.2412 H   0  0  0  0  0  0  0  0  0  0  0  0
    6.0957   -0.4382    0.6724 H   0  0  0  0  0  0  0  0  0  0  0  0
    6.3719   -3.2990    1.3257 H   0  0  0  0  0  0  0  0  0  0  0  0
    6.0366   -1.9370    2.3655 H   0  0  0  0  0  0  0  0  0  0  0  0
    2.3256   -1.7435    1.3999 H   0  0  0  0  0  0  0  0  0  0  0  0
    3.6434   -0.8376    2.1035 H   0  0  0  0  0  0  0  0  0  0  0  0
    3.1411   -7.2326    4.0474 H   0  0  0  0  0  0  0  0  0  0  0  0
    0.7528   -8.5992    2.6607 H   0  0  0  0  0  0  0  0  0  0  0  0
   -0.4128   -7.3624    3.1481 H   0  0  0  0  0  0  0  0  0  0  0  0
    0.8619   -7.8756    4.2605 H   0  0  0  0  0  0  0  0  0  0  0  0
    1.4025   -7.3919    0.6552 H   0  0  0  0  0  0  0  0  0  0  0  0
    1.7569   -5.6671    0.6867 H   0  0  0  0  0  0  0  0  0  0  0  0
    0.1300   -6.2459    1.0612 H   0  0  0  0  0  0  0  0  0  0  0  0
  1  2  1  0
  1 26  1  0
  1 27  1  0
  1 28  1  0
  3  2  1  1
  3 22  1  0
  3 23  1  0
  3  4  1  0
  4  5  1  0
  4 29  1  0
  4 30  1  0
  5 19  1  0
  5  6  1  1
  5  7  1  0
  6 31  1  0
  6 32  1  0
  6 33  1  0
  7  8  1  0
  7 34  1  0
  7 35  1  0
  8  9  1  0
  8 22  1  0
  8 36  1  1
  9 10  2  0
  9 37  1  0
 10 11  1  0
 10 38  1  0
 11 19  1  0
 11 12  1  0
 11 39  1  6
 12 13  1  0
 12 14  1  0
 12 15  1  0
 13 40  1  0
 13 41  1  0
 13 42  1  0
 14 43  1  0
 14 44  1  0
 14 45  1  0
 15 21  1  0
 15 16  1  6
 15 17  1  0
 16 46  1  0
 17 18  1  0
 17 47  1  0
 17 48  1  0
 19 18  1  1
 18 49  1  0
 18 50  1  0
 19 20  1  0
 20 21  1  0
 20 51  1  0
 20 52  1  0
 22 23  1  0
 22 53  1  1
 23 24  1  0
 23 25  1  0
 24 54  1  0
 24 55  1  0
 24 56  1  0
 25 57  1  0
 25 58  1  0
 25 59  1  0
M  END
>  <i_m_ct_stereo_status>  (8) 
1

>  <s_m_source_file>  (8) 
/var/tmp/pbs.5076255.sched01/tmphbojuwnv/0fr5z8inm.sdf

>  <i_m_source_file_index>  (8) 
3

>  <i_lp_mmshare_version>  (8) 
48012

>  <i_f3d_flags>  (8) 
0

>  <s_epik_input>  (8) 
W0NIM11bQ0BdMShbQ0BdMjM0KVtDSDJdW0NAXTUoT1tDSDNdKVtDQEBIXShDNShbQ0gzXSlbQ0gzXSlbQ0BASF0oW0NIMl0xKVtDSF09W0NIXVtDQEBIXTJDKFtDSDNdKShbQ0gzXSlbQ0BdKFtPSF0pKFtDSDJdW0NIMl0zKU9bQ0gyXTQ=

>  <s_epik_cmdline>  (8) 
J2VwaWtfcHl0aG9uJywgJy1waHQnLCAnMi4wJywgJy1waCcsICc3LjAnLCAnLXRuJywgJzgnLCAnLW1hJywgJzIwMCcsICctaW1hZScsICc8aW5maWxlLm1hZT4nLCAnLW9tYWUnLCAnPG91dGZpbGUubWFlPic=

>  <r_lp_tautomer_probability>  (8) 
1

>  <r_epik_Ionization_Penalty>  (8) 
4.77462e-08

>  <r_epik_Ionization_Penalty_Charging>  (8) 
0

>  <r_epik_Ionization_Penalty_Neutral>  (8) 
4.77462e-08

>  <r_epik_State_Penalty>  (8) 
-0

>  <r_epik_Charging_Adjusted_Penalty>  (8) 
0

>  <i_epik_Tot_Q>  (8) 
0

>  <i_epik_Tot_abs_Q>  (8) 
0

>  <s_lp_Force_Field>  (8) 
OPLS3e

>  <r_lp_Energy>  (8) 
90.0552

>  <b_lp_Chiralities_Consistent>  (8) 
1

>  <s_lp_Variant>  (8) 
1:0-1

>  <s_i_glide_gridfile>  (8) 
pfpi4k_grid

>  <i_i_glide_lignum>  (8) 
3

>  <i_i_glide_rotatable_bonds>  (8) 
2

>  <r_i_docking_score>  (8) 
-2.8812

>  <r_i_glide_ligand_efficiency>  (8) 
-0.115248

>  <r_i_glide_ligand_efficiency_sa>  (8) 
-0.336987

>  <r_i_glide_ligand_efficiency_ln>  (8) 
-0.68293

>  <r_i_glide_gscore>  (8) 
-2.8812

>  <r_i_glide_lipo>  (8) 
-0.37739

>  <r_i_glide_hbond>  (8) 
0

>  <r_i_glide_metal>  (8) 
-0

>  <r_i_glide_rewards>  (8) 
-1.04657

>  <r_i_glide_evdw>  (8) 
-19.3968

>  <r_i_glide_ecoul>  (8) 
-3.01687

>  <r_i_glide_erotb>  (8) 
0

>  <r_i_glide_esite>  (8) 
-0.0348673

>  <r_i_glide_emodel>  (8) 
-26.086

>  <r_i_glide_energy>  (8) 
-22.4137

>  <r_i_glide_einternal>  (8) 
0.373975

>  <r_i_glide_intrahb_reward>  (8) 
-0

>  <i_i_glide_confnum>  (8) 
1

>  <i_i_glide_posenum>  (8) 
23

>  <r_i_glide_eff_state_penalty>  (8) 
0

>  <ligand_id>  (8) 
1

>  <original_smiles>  (8) 
COC12CC3(C)CC(C=CC4C(C)(C)C5(O)CCC43CO5)C1C2(C)C

>  <smiles>  (8) 
[H]OC12OC([H])([H])C3(C([H])([H])C1([H])[H])C([H])(C([H])=C([H])C1([H])C([H])([H])C3(C([H])([H])[H])C([H])([H])C3(OC([H])([H])[H])C1([H])C3(C([H])([H])[H])C([H])([H])[H])C2(C([H])([H])[H])C([H])([H])[H]

$$$$
1:0:2
     RDKit          3D

 59 63  0  0  1  0  0  0  0  0999 V2000
    0.5579   -4.6733    5.6354 C   0  0  0  0  0  0  0  0  0  0  0  0
    0.5090   -5.4805    4.4669 O   0  0  0  0  0  0  0  0  0  0  0  0
    1.6214   -5.3932    3.5815 C   0  0  1  0  0  0  0  0  0  0  0  0
    1.7995   -4.0527    2.8544 C   0  0  0  0  0  0  0  0  0  0  0  0
    3.0614   -3.1969    3.2631 C   0  0  1  0  0  0  0  0  0  0  0  0
    2.5431   -2.0625    4.2000 C   0  0  0  0  0  0  0  0  0  0  0  0
    4.0383   -4.0267    4.1377 C   0  0  0  0  0  0  0  0  0  0  0  0
    4.1638   -5.4916    3.7307 C   0  0  2  0  0  0  0  0  0  0  0  0
    4.8572   -5.7273    2.4074 C   0  0  0  0  0  0  0  0  0  0  0  0
    4.9238   -4.9646    1.2969 C   0  0  0  0  0  0  0  0  0  0  0  0
    4.2826   -3.6258    0.9012 C   0  0  2  0  0  0  0  0  0  0  0  0
    5.0490   -2.9209   -0.2892 C   0  0  0  0  0  0  0  0  0  0  0  0
    6.5711   -3.2375   -0.3453 C   0  0  0  0  0  0  0  0  0  0  0  0
    4.4216   -3.3319   -1.6472 C   0  0  0  0  0  0  0  0  0  0  0  0
    4.8630   -1.3754   -0.1012 C   0  0  2  0  0  0  0  0  0  0  0  0
    5.3851   -0.6628   -1.2047 O   0  0  0  0  0  0  0  0  0  0  0  0
    5.5457   -0.8720    1.1862 C   0  0  0  0  0  0  0  0  0  0  0  0
    5.0648   -1.7271    2.3714 C   0  0  0  0  0  0  0  0  0  0  0  0
    3.8205   -2.5905    1.9963 C   0  0  2  0  0  0  0  0  0  0  0  0
    2.8828   -1.6191    1.2207 C   0  0  0  0  0  0  0  0  0  0  0  0
    3.4971   -1.1283    0.0251 O   0  0  0  0  0  0  0  0  0  0  0  0
    2.8368   -6.2180    3.9419 C   0  0  2  0  0  0  0  0  0  0  0  0
    1.8301   -6.7538    2.9227 C   0  0  0  0  0  0  0  0  0  0  0  0
    1.0217   -7.9705    3.3600 C   0  0  0  0  0  0  0  0  0  0  0  0
    2.0977   -6.9097    1.4348 C   0  0  0  0  0  0  0  0  0  0  0  0
   -0.1763   -5.0281    6.3645 H   0  0  0  0  0  0  0  0  0  0  0  0
    0.2895   -3.6421    5.4010 H   0  0  0  0  0  0  0  0  0  0  0  0
    1.5383   -4.6988    6.1169 H   0  0  0  0  0  0  0  0  0  0  0  0
    1.8113   -4.2563    1.7923 H   0  0  0  0  0  0  0  0  0  0  0  0
    0.8798   -3.4802    2.9762 H   0  0  0  0  0  0  0  0  0  0  0  0
    3.3294   -1.4028    4.5618 H   0  0  0  0  0  0  0  0  0  0  0  0
    2.0956   -2.4690    5.1069 H   0  0  0  0  0  0  0  0  0  0  0  0
    1.7689   -1.4454    3.7401 H   0  0  0  0  0  0  0  0  0  0  0  0
    5.0246   -3.5753    4.2060 H   0  0  0  0  0  0  0  0  0  0  0  0
    3.6897   -4.0310    5.1738 H   0  0  0  0  0  0  0  0  0  0  0  0
    4.8542   -5.9334    4.4503 H   0  0  0  0  0  0  0  0  0  0  0  0
    5.3629   -6.6809    2.3664 H   0  0  0  0  0  0  0  0  0  0  0  0
    5.4504   -5.4371    0.4840 H   0  0  0  0  0  0  0  0  0  0  0  0
    3.3670   -3.9765    0.4341 H   0  0  0  0  0  0  0  0  0  0  0  0
    7.0968   -2.5775   -1.0351 H   0  0  0  0  0  0  0  0  0  0  0  0
    6.7612   -4.2479   -0.7056 H   0  0  0  0  0  0  0  0  0  0  0  0
    7.0469   -3.1446    0.6314 H   0  0  0  0  0  0  0  0  0  0  0  0
    4.9338   -2.8736   -2.4933 H   0  0  0  0  0  0  0  0  0  0  0  0
    3.3712   -3.0425   -1.7137 H   0  0  0  0  0  0  0  0  0  0  0  0
    4.4734   -4.4110   -1.7921 H   0  0  0  0  0  0  0  0  0  0  0  0
    5.2063    0.2651   -1.0661 H   0  0  0  0  0  0  0  0  0  0  0  0
    6.6309   -0.9156    1.0918 H   0  0  0  0  0  0  0  0  0  0  0  0
    5.2737    0.1726    1.3243 H   0  0  0  0  0  0  0  0  0  0  0  0
    5.8894   -2.3572    2.7015 H   0  0  0  0  0  0  0  0  0  0  0  0
    4.8575   -1.0370    3.1852 H   0  0  0  0  0  0  0  0  0  0  0  0
    1.9482   -2.0974    0.9343 H   0  0  0  0  0  0  0  0  0  0  0  0
    2.6137   -0.7512    1.8201 H   0  0  0  0  0  0  0  0  0  0  0  0
    2.7932   -6.6960    4.9159 H   0  0  0  0  0  0  0  0  0  0  0  0
    1.5670   -8.8845    3.1279 H   0  0  0  0  0  0  0  0  0  0  0  0
    0.0633   -8.0035    2.8442 H   0  0  0  0  0  0  0  0  0  0  0  0
    0.8363   -7.9620    4.4323 H   0  0  0  0  0  0  0  0  0  0  0  0
    2.7079   -7.7964    1.2594 H   0  0  0  0  0  0  0  0  0  0  0  0
    2.6199   -6.0590    1.0148 H   0  0  0  0  0  0  0  0  0  0  0  0
    1.1597   -7.0144    0.8877 H   0  0  0  0  0  0  0  0  0  0  0  0
  1  2  1  0
  1 26  1  0
  1 27  1  0
  1 28  1  0
  3  2  1  1
  3 22  1  0
  3 23  1  0
  3  4  1  0
  4  5  1  0
  4 29  1  0
  4 30  1  0
  5 19  1  0
  5  6  1  1
  5  7  1  0
  6 31  1  0
  6 32  1  0
  6 33  1  0
  7  8  1  0
  7 34  1  0
  7 35  1  0
  8  9  1  0
  8 22  1  0
  8 36  1  1
  9 10  2  0
  9 37  1  0
 10 11  1  0
 10 38  1  0
 11 19  1  0
 11 12  1  0
 11 39  1  6
 12 13  1  0
 12 14  1  0
 12 15  1  0
 13 40  1  0
 13 41  1  0
 13 42  1  0
 14 43  1  0
 14 44  1  0
 14 45  1  0
 15 21  1  0
 15 16  1  6
 15 17  1  0
 16 46  1  0
 17 18  1  0
 17 47  1  0
 17 48  1  0
 19 18  1  1
 18 49  1  0
 18 50  1  0
 19 20  1  0
 20 21  1  0
 20 51  1  0
 20 52  1  0
 22 23  1  0
 22 53  1  1
 23 24  1  0
 23 25  1  0
 24 54  1  0
 24 55  1  0
 24 56  1  0
 25 57  1  0
 25 58  1  0
 25 59  1  0
M  END
>  <i_m_ct_stereo_status>  (9) 
1

>  <s_m_source_file>  (9) 
/var/tmp/pbs.5076255.sched01/tmphbojuwnv/0fr5z8inm.sdf

>  <i_m_source_file_index>  (9) 
3

>  <i_lp_mmshare_version>  (9) 
48012

>  <i_f3d_flags>  (9) 
0

>  <s_epik_input>  (9) 
W0NIM11bQ0BdMShbQ0BdMjM0KVtDSDJdW0NAXTUoT1tDSDNdKVtDQEBIXShDNShbQ0gzXSlbQ0gzXSlbQ0BASF0oW0NIMl0xKVtDSF09W0NIXVtDQEBIXTJDKFtDSDNdKShbQ0gzXSlbQ0BdKFtPSF0pKFtDSDJdW0NIMl0zKU9bQ0gyXTQ=

>  <s_epik_cmdline>  (9) 
J2VwaWtfcHl0aG9uJywgJy1waHQnLCAnMi4wJywgJy1waCcsICc3LjAnLCAnLXRuJywgJzgnLCAnLW1hJywgJzIwMCcsICctaW1hZScsICc8aW5maWxlLm1hZT4nLCAnLW9tYWUnLCAnPG91dGZpbGUubWFlPic=

>  <r_lp_tautomer_probability>  (9) 
1

>  <r_epik_Ionization_Penalty>  (9) 
4.77462e-08

>  <r_epik_Ionization_Penalty_Charging>  (9) 
0

>  <r_epik_Ionization_Penalty_Neutral>  (9) 
4.77462e-08

>  <r_epik_State_Penalty>  (9) 
-0

>  <r_epik_Charging_Adjusted_Penalty>  (9) 
0

>  <i_epik_Tot_Q>  (9) 
0

>  <i_epik_Tot_abs_Q>  (9) 
0

>  <s_lp_Force_Field>  (9) 
OPLS3e

>  <r_lp_Energy>  (9) 
90.0552

>  <b_lp_Chiralities_Consistent>  (9) 
1

>  <s_lp_Variant>  (9) 
1:0-1

>  <s_i_glide_gridfile>  (9) 
pfpi4k_grid

>  <i_i_glide_lignum>  (9) 
3

>  <i_i_glide_rotatable_bonds>  (9) 
2

>  <r_i_docking_score>  (9) 
-2.8072

>  <r_i_glide_ligand_efficiency>  (9) 
-0.112288

>  <r_i_glide_ligand_efficiency_sa>  (9) 
-0.328332

>  <r_i_glide_ligand_efficiency_ln>  (9) 
-0.66539

>  <r_i_glide_gscore>  (9) 
-2.8072

>  <r_i_glide_lipo>  (9) 
-0.380871

>  <r_i_glide_hbond>  (9) 
0

>  <r_i_glide_metal>  (9) 
-0

>  <r_i_glide_rewards>  (9) 
-1.04657

>  <r_i_glide_evdw>  (9) 
-16.5759

>  <r_i_glide_ecoul>  (9) 
-3.59005

>  <r_i_glide_erotb>  (9) 
0

>  <r_i_glide_esite>  (9) 
-0.0124603

>  <r_i_glide_emodel>  (9) 
-23.933

>  <r_i_glide_energy>  (9) 
-20.1659

>  <r_i_glide_einternal>  (9) 
0.127902

>  <r_i_glide_intrahb_reward>  (9) 
-0

>  <i_i_glide_confnum>  (9) 
1

>  <i_i_glide_posenum>  (9) 
7

>  <r_i_glide_eff_state_penalty>  (9) 
0

>  <ligand_id>  (9) 
1

>  <original_smiles>  (9) 
COC12CC3(C)CC(C=CC4C(C)(C)C5(O)CCC43CO5)C1C2(C)C

>  <smiles>  (9) 
[H]OC12OC([H])([H])C3(C([H])([H])C1([H])[H])C([H])(C([H])=C([H])C1([H])C([H])([H])C3(C([H])([H])[H])C([H])([H])C3(OC([H])([H])[H])C1([H])C3(C([H])([H])[H])C([H])([H])[H])C2(C([H])([H])[H])C([H])([H])[H]

$$$$
1:1:0
     RDKit          3D

 59 63  0  0  1  0  0  0  0  0999 V2000
    7.4036   -6.9009    3.1371 C   0  0  0  0  0  0  0  0  0  0  0  0
    6.0822   -6.7696    2.6292 O   0  0  0  0  0  0  0  0  0  0  0  0
    5.5697   -5.4509    2.7668 C   0  0  1  0  0  0  0  0  0  0  0  0
    6.2138   -4.4319    1.7292 C   0  0  0  0  0  0  0  0  0  0  0  0
    5.1183   -4.1131    0.6839 C   0  0  1  0  0  0  0  0  0  0  0  0
    4.9217   -5.5922    0.0686 C   0  0  0  0  0  0  0  0  0  0  0  0
    4.1240   -3.3575    1.6506 C   0  0  0  0  0  0  0  0  0  0  0  0
    3.1470   -4.3449    2.1081 C   0  0  1  0  0  0  0  0  0  0  0  0
    2.3279   -4.6762    0.8312 C   0  0  0  0  0  0  0  0  0  0  0  0
    2.4794   -4.1370   -0.4647 C   0  0  0  0  0  0  0  0  0  0  0  0
    3.5454   -3.1256   -1.0446 C   0  0  2  0  0  0  0  0  0  0  0  0
    3.4919   -2.6929   -2.5344 C   0  0  0  0  0  0  0  0  0  0  0  0
    3.2650   -3.7930   -3.5874 C   0  0  0  0  0  0  0  0  0  0  0  0
    2.3190   -1.7772   -2.7346 C   0  0  0  0  0  0  0  0  0  0  0  0
    4.7833   -1.8924   -2.8214 C   0  0  2  0  0  0  0  0  0  0  0  0
    4.6163   -1.1609   -4.0156 O   0  0  0  0  0  0  0  0  0  0  0  0
    5.9690   -2.8697   -2.9508 C   0  0  0  0  0  0  0  0  0  0  0  0
    5.9937   -3.7271   -1.7140 C   0  0  0  0  0  0  0  0  0  0  0  0
    5.0724   -3.1965   -0.5857 C   0  0  2  0  0  0  0  0  0  0  0  0
    5.4881   -1.7016   -0.5012 C   0  0  0  0  0  0  0  0  0  0  0  0
    5.0883   -1.0290   -1.7226 O   0  0  0  0  0  0  0  0  0  0  0  0
    3.9925   -5.4395    2.8550 C   0  0  2  0  0  0  0  0  0  0  0  0
    4.8415   -5.2190    4.0949 C   0  0  0  0  0  0  0  0  0  0  0  0
    4.7462   -6.3355    5.1243 C   0  0  0  0  0  0  0  0  0  0  0  0
    5.0133   -3.9149    4.8489 C   0  0  0  0  0  0  0  0  0  0  0  0
    7.7007   -7.9380    3.0325 H   0  0  0  0  0  0  0  0  0  0  0  0
    7.4710   -6.6317    4.1925 H   0  0  0  0  0  0  0  0  0  0  0  0
    8.1201   -6.2980    2.5804 H   0  0  0  0  0  0  0  0  0  0  0  0
    6.5854   -3.5405    2.2246 H   0  0  0  0  0  0  0  0  0  0  0  0
    7.0845   -4.8843    1.2462 H   0  0  0  0  0  0  0  0  0  0  0  0
    4.3572   -5.6435   -0.8586 H   0  0  0  0  0  0  0  0  0  0  0  0
    4.4225   -6.3401    0.6757 H   0  0  0  0  0  0  0  0  0  0  0  0
    5.8888   -6.0354   -0.1816 H   0  0  0  0  0  0  0  0  0  0  0  0
    4.6113   -2.8527    2.4671 H   0  0  0  0  0  0  0  0  0  0  0  0
    3.5665   -2.4927    1.3113 H   0  0  0  0  0  0  0  0  0  0  0  0
    2.4517   -3.8982    2.8243 H   0  0  0  0  0  0  0  0  0  0  0  0
    1.5294   -5.3851    0.9893 H   0  0  0  0  0  0  0  0  0  0  0  0
    1.7714   -4.4672   -1.1947 H   0  0  0  0  0  0  0  0  0  0  0  0
    3.1415   -2.2312   -0.5790 H   0  0  0  0  0  0  0  0  0  0  0  0
    3.3033   -3.3796   -4.5990 H   0  0  0  0  0  0  0  0  0  0  0  0
    2.2759   -4.2317   -3.4635 H   0  0  0  0  0  0  0  0  0  0  0  0
    4.0347   -4.5765   -3.5547 H   0  0  0  0  0  0  0  0  0  0  0  0
    2.2307   -1.5379   -3.7933 H   0  0  0  0  0  0  0  0  0  0  0  0
    2.4514   -0.8288   -2.2152 H   0  0  0  0  0  0  0  0  0  0  0  0
    1.4008   -2.2689   -2.4316 H   0  0  0  0  0  0  0  0  0  0  0  0
    3.8318   -0.5937   -3.8783 H   0  0  0  0  0  0  0  0  0  0  0  0
    5.8907   -3.4652   -3.8693 H   0  0  0  0  0  0  0  0  0  0  0  0
    6.9115   -2.3376   -2.9149 H   0  0  0  0  0  0  0  0  0  0  0  0
    5.6518   -4.6730   -2.0780 H   0  0  0  0  0  0  0  0  0  0  0  0
    7.0188   -3.8054   -1.3601 H   0  0  0  0  0  0  0  0  0  0  0  0
    5.0343   -1.1684    0.3258 H   0  0  0  0  0  0  0  0  0  0  0  0
    6.5645   -1.6205   -0.3875 H   0  0  0  0  0  0  0  0  0  0  0  0
    3.4973   -6.4055    2.8211 H   0  0  0  0  0  0  0  0  0  0  0  0
    3.8838   -6.1755    5.7675 H   0  0  0  0  0  0  0  0  0  0  0  0
    5.6429   -6.3698    5.7374 H   0  0  0  0  0  0  0  0  0  0  0  0
    4.6294   -7.3000    4.6364 H   0  0  0  0  0  0  0  0  0  0  0  0
    4.0465   -3.5638    5.2181 H   0  0  0  0  0  0  0  0  0  0  0  0
    5.4855   -3.1497    4.2380 H   0  0  0  0  0  0  0  0  0  0  0  0
    5.6839   -4.0652    5.6972 H   0  0  0  0  0  0  0  0  0  0  0  0
  1  2  1  0
  1 26  1  0
  1 27  1  0
  1 28  1  0
  3  2  1  1
  3 22  1  0
  3 23  1  0
  3  4  1  0
  4  5  1  0
  4 29  1  0
  4 30  1  0
  5 19  1  0
  5  6  1  6
  5  7  1  0
  6 31  1  0
  6 32  1  0
  6 33  1  0
  7  8  1  0
  7 34  1  0
  7 35  1  0
  8  9  1  0
  8 22  1  0
  8 36  1  1
  9 10  2  0
  9 37  1  0
 10 11  1  0
 10 38  1  0
 11 19  1  0
 11 12  1  0
 11 39  1  1
 12 13  1  0
 12 14  1  0
 12 15  1  0
 13 40  1  0
 13 41  1  0
 13 42  1  0
 14 43  1  0
 14 44  1  0
 14 45  1  0
 15 21  1  0
 15 16  1  6
 15 17  1  0
 16 46  1  0
 17 18  1  0
 17 47  1  0
 17 48  1  0
 19 18  1  6
 18 49  1  0
 18 50  1  0
 19 20  1  0
 20 21  1  0
 20 51  1  0
 20 52  1  0
 22 23  1  0
 22 53  1  1
 23 24  1  0
 23 25  1  0
 24 54  1  0
 24 55  1  0
 24 56  1  0
 25 57  1  0
 25 58  1  0
 25 59  1  0
M  END
>  <i_m_ct_stereo_status>  (10) 
1

>  <s_m_source_file>  (10) 
/var/tmp/pbs.5076255.sched01/tmphbojuwnv/0fr5z8inm.sdf

>  <i_m_source_file_index>  (10) 
4

>  <i_lp_mmshare_version>  (10) 
48012

>  <i_f3d_flags>  (10) 
0

>  <s_epik_input>  (10) 
W0NIM11bQ0BdMShbQ0BdMjM0KVtDSDJdW0NAXTUoT1tDSDNdKVtDQEBIXShDNShbQ0gzXSlbQ0gzXSlbQ0BASF0oW0NIMl0xKVtDSF09W0NIXVtDQEBIXTJDKFtDSDNdKShbQ0gzXSlbQ0BdKFtPSF0pKFtDSDJdW0NIMl0zKU9bQ0gyXTQ=

>  <s_epik_cmdline>  (10) 
J2VwaWtfcHl0aG9uJywgJy1waHQnLCAnMi4wJywgJy1waCcsICc3LjAnLCAnLXRuJywgJzgnLCAnLW1hJywgJzIwMCcsICctaW1hZScsICc8aW5maWxlLm1hZT4nLCAnLW9tYWUnLCAnPG91dGZpbGUubWFlPic=

>  <r_lp_tautomer_probability>  (10) 
1

>  <r_epik_Ionization_Penalty>  (10) 
4.77462e-08

>  <r_epik_Ionization_Penalty_Charging>  (10) 
0

>  <r_epik_Ionization_Penalty_Neutral>  (10) 
4.77462e-08

>  <r_epik_State_Penalty>  (10) 
-0

>  <r_epik_Charging_Adjusted_Penalty>  (10) 
0

>  <i_epik_Tot_Q>  (10) 
0

>  <i_epik_Tot_abs_Q>  (10) 
0

>  <s_lp_Force_Field>  (10) 
OPLS3e

>  <r_lp_Energy>  (10) 
164.697

>  <b_lp_Chiralities_Consistent>  (10) 
1

>  <s_lp_Variant>  (10) 
1:0-2

>  <s_i_glide_gridfile>  (10) 
pfpi4k_grid

>  <i_i_glide_lignum>  (10) 
4

>  <i_i_glide_rotatable_bonds>  (10) 
2

>  <r_i_docking_score>  (10) 
-2.29013

>  <r_i_glide_ligand_efficiency>  (10) 
-0.0916054

>  <r_i_glide_ligand_efficiency_sa>  (10) 
-0.267856

>  <r_i_glide_ligand_efficiency_ln>  (10) 
-0.54283

>  <r_i_glide_gscore>  (10) 
-2.29013

>  <r_i_glide_lipo>  (10) 
-0.50015

>  <r_i_glide_hbond>  (10) 
0

>  <r_i_glide_metal>  (10) 
-0

>  <r_i_glide_rewards>  (10) 
-1.08165

>  <r_i_glide_evdw>  (10) 
-8.07537

>  <r_i_glide_ecoul>  (10) 
-2.03041

>  <r_i_glide_erotb>  (10) 
0

>  <r_i_glide_esite>  (10) 
0

>  <r_i_glide_emodel>  (10) 
-10.8371

>  <r_i_glide_energy>  (10) 
-10.1058

>  <r_i_glide_einternal>  (10) 
0.0163117

>  <r_i_glide_intrahb_reward>  (10) 
-0

>  <i_i_glide_confnum>  (10) 
1

>  <i_i_glide_posenum>  (10) 
11

>  <r_i_glide_eff_state_penalty>  (10) 
0

>  <ligand_id>  (10) 
1

>  <original_smiles>  (10) 
COC12CC3(C)CC(C=CC4C(C)(C)C5(O)CCC43CO5)C1C2(C)C

>  <smiles>  (10) 
[H]OC12OC([H])([H])C3(C([H])([H])C1([H])[H])C([H])(C([H])=C([H])C1([H])C([H])([H])C3(C([H])([H])[H])C([H])([H])C3(OC([H])([H])[H])C1([H])C3(C([H])([H])[H])C([H])([H])[H])C2(C([H])([H])[H])C([H])([H])[H]

$$$$
1:1:1
     RDKit          3D

 59 63  0  0  1  0  0  0  0  0999 V2000
    6.9425   -6.2112    3.9277 C   0  0  0  0  0  0  0  0  0  0  0  0
    5.7714   -6.3326    3.1410 O   0  0  0  0  0  0  0  0  0  0  0  0
    4.9673   -5.1505    3.1674 C   0  0  1  0  0  0  0  0  0  0  0  0
    5.5801   -3.9777    2.2903 C   0  0  0  0  0  0  0  0  0  0  0  0
    4.6888   -3.8528    1.0198 C   0  0  1  0  0  0  0  0  0  0  0  0
    4.9205   -5.3186    0.3782 C   0  0  0  0  0  0  0  0  0  0  0  0
    3.3873   -3.3375    1.7562 C   0  0  0  0  0  0  0  0  0  0  0  0
    2.5684   -4.5239    2.0075 C   0  0  1  0  0  0  0  0  0  0  0  0
    2.1090   -4.9484    0.5647 C   0  0  0  0  0  0  0  0  0  0  0  0
    2.3580   -4.3137   -0.6257 C   0  0  0  0  0  0  0  0  0  0  0  0
    3.3236   -3.1122   -1.0049 C   0  0  2  0  0  0  0  0  0  0  0  0
    3.4672   -2.6398   -2.4818 C   0  0  0  0  0  0  0  0  0  0  0  0
    3.6873   -3.7536   -3.5248 C   0  0  0  0  0  0  0  0  0  0  0  0
    2.2265   -1.9180   -2.9257 C   0  0  0  0  0  0  0  0  0  0  0  0
    4.6375   -1.6055   -2.4866 C   0  0  2  0  0  0  0  0  0  0  0  0
    4.5832   -0.8601   -3.6733 O   0  0  0  0  0  0  0  0  0  0  0  0
    5.9918   -2.3047   -2.3830 C   0  0  0  0  0  0  0  0  0  0  0  0
    5.9664   -3.2199   -1.1586 C   0  0  0  0  0  0  0  0  0  0  0  0
    4.7240   -2.9300   -0.2426 C   0  0  2  0  0  0  0  0  0  0  0  0
    4.7995   -1.3836   -0.0668 C   0  0  0  0  0  0  0  0  0  0  0  0
    4.5266   -0.7610   -1.3470 O   0  0  0  0  0  0  0  0  0  0  0  0
    3.4329   -5.4592    2.9208 C   0  0  2  0  0  0  0  0  0  0  0  0
    3.9480   -5.1178    4.3141 C   0  0  0  0  0  0  0  0  0  0  0  0
    3.8770   -6.2659    5.3070 C   0  0  0  0  0  0  0  0  0  0  0  0
    3.6932   -3.8175    5.0696 C   0  0  0  0  0  0  0  0  0  0  0  0
    7.4617   -7.1612    3.8954 H   0  0  0  0  0  0  0  0  0  0  0  0
    6.7223   -5.9838    4.9697 H   0  0  0  0  0  0  0  0  0  0  0  0
    7.6168   -5.4591    3.5420 H   0  0  0  0  0  0  0  0  0  0  0  0
    5.6492   -3.0421    2.8547 H   0  0  0  0  0  0  0  0  0  0  0  0
    6.6013   -4.2085    1.9973 H   0  0  0  0  0  0  0  0  0  0  0  0
    4.5681   -5.4416   -0.6480 H   0  0  0  0  0  0  0  0  0  0  0  0
    4.4733   -6.1699    0.8815 H   0  0  0  0  0  0  0  0  0  0  0  0
    5.9890   -5.5496    0.3363 H   0  0  0  0  0  0  0  0  0  0  0  0
    3.5711   -2.7700    2.6559 H   0  0  0  0  0  0  0  0  0  0  0  0
    2.7390   -2.5936    1.3061 H   0  0  0  0  0  0  0  0  0  0  0  0
    1.6649   -4.2545    2.5580 H   0  0  0  0  0  0  0  0  0  0  0  0
    1.4402   -5.8101    0.5649 H   0  0  0  0  0  0  0  0  0  0  0  0
    1.8027   -4.6688   -1.4854 H   0  0  0  0  0  0  0  0  0  0  0  0
    2.6685   -2.3231   -0.6304 H   0  0  0  0  0  0  0  0  0  0  0  0
    3.9849   -3.3517   -4.4951 H   0  0  0  0  0  0  0  0  0  0  0  0
    2.7127   -4.2171   -3.6559 H   0  0  0  0  0  0  0  0  0  0  0  0
    4.4236   -4.4910   -3.2030 H   0  0  0  0  0  0  0  0  0  0  0  0
    2.2482   -1.6652   -3.9812 H   0  0  0  0  0  0  0  0  0  0  0  0
    2.1950   -1.0040   -2.3372 H   0  0  0  0  0  0  0  0  0  0  0  0
    1.3759   -2.5681   -2.7545 H   0  0  0  0  0  0  0  0  0  0  0  0
    3.7463   -0.4123   -3.6734 H   0  0  0  0  0  0  0  0  0  0  0  0
    6.2061   -2.8768   -3.2967 H   0  0  0  0  0  0  0  0  0  0  0  0
    6.7459   -1.5388   -2.2517 H   0  0  0  0  0  0  0  0  0  0  0  0
    6.0081   -4.2363   -1.5379 H   0  0  0  0  0  0  0  0  0  0  0  0
    6.8833   -3.0757   -0.5831 H   0  0  0  0  0  0  0  0  0  0  0  0
    4.0774   -0.9838    0.6496 H   0  0  0  0  0  0  0  0  0  0  0  0
    5.7886   -1.0759    0.2785 H   0  0  0  0  0  0  0  0  0  0  0  0
    3.1522   -6.5052    2.7957 H   0  0  0  0  0  0  0  0  0  0  0  0
    2.8906   -6.3153    5.7611 H   0  0  0  0  0  0  0  0  0  0  0  0
    4.6175   -6.1456    6.0937 H   0  0  0  0  0  0  0  0  0  0  0  0
    4.0635   -7.2200    4.8161 H   0  0  0  0  0  0  0  0  0  0  0  0
    2.6243   -3.6772    5.2376 H   0  0  0  0  0  0  0  0  0  0  0  0
    4.1067   -2.9464    4.5695 H   0  0  0  0  0  0  0  0  0  0  0  0
    4.1958   -3.8520    6.0368 H   0  0  0  0  0  0  0  0  0  0  0  0
  1  2  1  0
  1 26  1  0
  1 27  1  0
  1 28  1  0
  3  2  1  1
  3 22  1  0
  3 23  1  0
  3  4  1  0
  4  5  1  0
  4 29  1  0
  4 30  1  0
  5 19  1  0
  5  6  1  6
  5  7  1  0
  6 31  1  0
  6 32  1  0
  6 33  1  0
  7  8  1  0
  7 34  1  0
  7 35  1  0
  8  9  1  0
  8 22  1  0
  8 36  1  1
  9 10  2  0
  9 37  1  0
 10 11  1  0
 10 38  1  0
 11 19  1  0
 11 12  1  0
 11 39  1  1
 12 13  1  0
 12 14  1  0
 12 15  1  0
 13 40  1  0
 13 41  1  0
 13 42  1  0
 14 43  1  0
 14 44  1  0
 14 45  1  0
 15 21  1  0
 15 16  1  6
 15 17  1  0
 16 46  1  0
 17 18  1  0
 17 47  1  0
 17 48  1  0
 19 18  1  6
 18 49  1  0
 18 50  1  0
 19 20  1  0
 20 21  1  0
 20 51  1  0
 20 52  1  0
 22 23  1  0
 22 53  1  1
 23 24  1  0
 23 25  1  0
 24 54  1  0
 24 55  1  0
 24 56  1  0
 25 57  1  0
 25 58  1  0
 25 59  1  0
M  END
>  <i_m_ct_stereo_status>  (11) 
1

>  <s_m_source_file>  (11) 
/var/tmp/pbs.5076255.sched01/tmphbojuwnv/0fr5z8inm.sdf

>  <i_m_source_file_index>  (11) 
4

>  <i_lp_mmshare_version>  (11) 
48012

>  <i_f3d_flags>  (11) 
0

>  <s_epik_input>  (11) 
W0NIM11bQ0BdMShbQ0BdMjM0KVtDSDJdW0NAXTUoT1tDSDNdKVtDQEBIXShDNShbQ0gzXSlbQ0gzXSlbQ0BASF0oW0NIMl0xKVtDSF09W0NIXVtDQEBIXTJDKFtDSDNdKShbQ0gzXSlbQ0BdKFtPSF0pKFtDSDJdW0NIMl0zKU9bQ0gyXTQ=

>  <s_epik_cmdline>  (11) 
J2VwaWtfcHl0aG9uJywgJy1waHQnLCAnMi4wJywgJy1waCcsICc3LjAnLCAnLXRuJywgJzgnLCAnLW1hJywgJzIwMCcsICctaW1hZScsICc8aW5maWxlLm1hZT4nLCAnLW9tYWUnLCAnPG91dGZpbGUubWFlPic=

>  <r_lp_tautomer_probability>  (11) 
1

>  <r_epik_Ionization_Penalty>  (11) 
4.77462e-08

>  <r_epik_Ionization_Penalty_Charging>  (11) 
0

>  <r_epik_Ionization_Penalty_Neutral>  (11) 
4.77462e-08

>  <r_epik_State_Penalty>  (11) 
-0

>  <r_epik_Charging_Adjusted_Penalty>  (11) 
0

>  <i_epik_Tot_Q>  (11) 
0

>  <i_epik_Tot_abs_Q>  (11) 
0

>  <s_lp_Force_Field>  (11) 
OPLS3e

>  <r_lp_Energy>  (11) 
164.697

>  <b_lp_Chiralities_Consistent>  (11) 
1

>  <s_lp_Variant>  (11) 
1:0-2

>  <s_i_glide_gridfile>  (11) 
pfpi4k_grid

>  <i_i_glide_lignum>  (11) 
4

>  <i_i_glide_rotatable_bonds>  (11) 
2

>  <r_i_docking_score>  (11) 
-2.00786

>  <r_i_glide_ligand_efficiency>  (11) 
-0.0803142

>  <r_i_glide_ligand_efficiency_sa>  (11) 
-0.23484

>  <r_i_glide_ligand_efficiency_ln>  (11) 
-0.475922

>  <r_i_glide_gscore>  (11) 
-2.00786

>  <r_i_glide_lipo>  (11) 
-0.306932

>  <r_i_glide_hbond>  (11) 
0

>  <r_i_glide_metal>  (11) 
-0

>  <r_i_glide_rewards>  (11) 
-1.04657

>  <r_i_glide_evdw>  (11) 
-9.25021

>  <r_i_glide_ecoul>  (11) 
-1.12663

>  <r_i_glide_erotb>  (11) 
0

>  <r_i_glide_esite>  (11) 
-0.0228522

>  <r_i_glide_emodel>  (11) 
-10.9018

>  <r_i_glide_energy>  (11) 
-10.3768

>  <r_i_glide_einternal>  (11) 
0.031073

>  <r_i_glide_intrahb_reward>  (11) 
-0

>  <i_i_glide_confnum>  (11) 
2

>  <i_i_glide_posenum>  (11) 
5

>  <r_i_glide_eff_state_penalty>  (11) 
0

>  <ligand_id>  (11) 
1

>  <original_smiles>  (11) 
COC12CC3(C)CC(C=CC4C(C)(C)C5(O)CCC43CO5)C1C2(C)C

>  <smiles>  (11) 
[H]OC12OC([H])([H])C3(C([H])([H])C1([H])[H])C([H])(C([H])=C([H])C1([H])C([H])([H])C3(C([H])([H])[H])C([H])([H])C3(OC([H])([H])[H])C1([H])C3(C([H])([H])[H])C([H])([H])[H])C2(C([H])([H])[H])C([H])([H])[H]

$$$$
2:0:0
     RDKit          3D

 40 46  0  0  1  0  0  0  0  0999 V2000
    6.2198   -0.3306    0.3124 O   0  0  0  0  0  0  0  0  0  0  0  0
    5.1098   -0.9214    0.9609 C   0  0  2  0  0  0  0  0  0  0  0  0
    5.6159   -2.1277    1.8763 C   0  0  1  0  0  0  0  0  0  0  0  0
    4.4288   -2.8872    2.1511 C   0  0  2  0  0  0  0  0  0  0  0  0
    4.3290   -4.1778    1.8674 C   0  0  1  0  0  0  0  0  0  0  0  0
    2.8106   -3.8804    0.9701 C   0  0  2  0  0  0  0  0  0  0  0  0
    2.4064   -4.2568   -0.6100 C   0  0  0  0  0  0  0  0  0  0  0  0
    3.3119   -3.4492   -1.7556 C   0  0  1  0  0  0  0  0  0  0  0  0
    2.4330   -2.6904   -2.7592 C   0  0  0  0  0  0  0  0  0  0  0  0
    3.2659   -2.0512   -3.8514 C   0  0  0  0  0  0  0  0  0  0  0  0
    4.3343   -1.1329   -3.2543 C   0  0  0  0  0  0  0  0  0  0  0  0
    5.2033   -1.8364   -2.2869 N   0  0  0  0  0  0  0  0  0  0  0  0
    4.5125   -2.4744   -1.1624 C   0  0  1  0  0  0  0  0  0  0  0  0
    4.0183   -1.4575   -0.1356 C   0  0  1  0  0  0  0  0  0  0  0  0
    2.9910   -2.4002    0.5128 C   0  0  1  0  0  0  0  0  0  0  0  0
    4.2768   -3.2628    0.6077 C   0  0  1  0  0  0  0  0  0  0  0  0
    5.5633   -3.2167   -0.2472 C   0  0  2  0  0  0  0  0  0  0  0  0
    5.7771   -3.5066    1.2546 C   0  0  1  0  0  0  0  0  0  0  0  0
    6.7644    0.0849    0.9662 H   0  0  0  0  0  0  0  0  0  0  0  0
    4.6215   -0.1677    1.5759 H   0  0  0  0  0  0  0  0  0  0  0  0
    6.2014   -1.9198    2.7713 H   0  0  0  0  0  0  0  0  0  0  0  0
    3.6605   -2.4885    2.8160 H   0  0  0  0  0  0  0  0  0  0  0  0
    4.3536   -4.8073    2.7550 H   0  0  0  0  0  0  0  0  0  0  0  0
    1.9403   -4.0048    1.6158 H   0  0  0  0  0  0  0  0  0  0  0  0
    2.5318   -5.3299   -0.7062 H   0  0  0  0  0  0  0  0  0  0  0  0
    1.3568   -4.0540   -0.7909 H   0  0  0  0  0  0  0  0  0  0  0  0
    3.8350   -4.2184   -2.3278 H   0  0  0  0  0  0  0  0  0  0  0  0
    1.6447   -3.3239   -3.1693 H   0  0  0  0  0  0  0  0  0  0  0  0
    1.9366   -1.8529   -2.3038 H   0  0  0  0  0  0  0  0  0  0  0  0
    3.7031   -2.8300   -4.4754 H   0  0  0  0  0  0  0  0  0  0  0  0
    2.6169   -1.4404   -4.4827 H   0  0  0  0  0  0  0  0  0  0  0  0
    4.9487   -0.7843   -4.0767 H   0  0  0  0  0  0  0  0  0  0  0  0
    3.8999   -0.2412   -2.7957 H   0  0  0  0  0  0  0  0  0  0  0  0
    5.7170   -2.5532   -2.7823 H   0  0  0  0  0  0  0  0  0  0  0  0
    3.4756   -0.6465   -0.6072 H   0  0  0  0  0  0  0  0  0  0  0  0
    2.5552   -1.7971    1.3127 H   0  0  0  0  0  0  0  0  0  0  0  0
    4.4641   -4.3187   -0.0518 H   0  0  0  0  0  0  0  0  0  0  0  0
    6.0377   -4.0484   -0.8073 H   0  0  0  0  0  0  0  0  0  0  0  0
    6.6872   -4.0240    1.5642 H   0  0  0  0  0  0  0  0  0  0  0  0
    5.8259   -1.1626   -1.8691 H   0  0  0  0  0  0  0  0  0  0  0  0
  1  2  1  0
  1 19  1  0
  2 14  1  0
  2  3  1  0
  2 20  1  1
  3 18  1  0
  3  4  1  0
  3 21  1  1
  4 16  1  0
  4  5  1  0
  4 22  1  1
  5 18  1  0
  5  6  1  0
  5 23  1  1
  6 15  1  0
  6  7  1  0
  6 24  1  1
  7  8  1  0
  7 25  1  0
  7 26  1  0
  8 13  1  0
  8  9  1  0
  8 27  1  6
  9 10  1  0
  9 28  1  0
  9 29  1  0
 10 11  1  0
 10 30  1  0
 10 31  1  0
 11 12  1  0
 11 32  1  0
 11 33  1  0
 13 12  1  6
 12 34  1  0
 12 40  1  0
 13 17  1  0
 13 14  1  0
 14 15  1  0
 14 35  1  6
 15 16  1  0
 15 36  1  1
 16 17  1  0
 16 37  1  1
 17 18  1  0
 17 38  1  6
 18 39  1  6
M  CHG  1  12   1
M  END
>  <i_m_ct_stereo_status>  (12) 
1

>  <s_m_source_file>  (12) 
/var/tmp/pbs.5076255.sched01/tmphbojuwnv/0fr5z8inm.sdf

>  <i_m_source_file_index>  (12) 
5

>  <i_lp_mmshare_version>  (12) 
48012

>  <i_f3d_flags>  (12) 
0

>  <s_epik_input>  (12) 
W09IXVtDQEhdMVtDQEBIXTJbQ0BASF0zW0NASF00W0NAQEhdNVtDQEhdNltDQEBIXTFbQ0BASF00W0NASF02W0NAQEhdM1tDSDJdW0NASF0oW0NAQF0yNTcpW0NIMl1bQ0gyXVtDSDJdW05IXTc=

>  <s_epik_cmdline>  (12) 
J2VwaWtfcHl0aG9uJywgJy1waHQnLCAnMi4wJywgJy1waCcsICc3LjAnLCAnLXRuJywgJzgnLCAnLW1hJywgJzIwMCcsICctaW1hZScsICc8aW5maWxlLm1hZT4nLCAnLW9tYWUnLCAnPG91dGZpbGUubWFlPic=

>  <r_lp_tautomer_probability>  (12) 
1

>  <r_epik_Ionization_Penalty>  (12) 
3.2426e-05

>  <r_epik_Ionization_Penalty_Charging>  (12) 
3.23116e-05

>  <r_epik_Ionization_Penalty_Neutral>  (12) 
1.14394e-07

>  <r_epik_State_Penalty>  (12) 
-0

>  <r_epik_Charging_Adjusted_Penalty>  (12) 
3.23116e-05

>  <i_epik_Tot_Q>  (12) 
1

>  <i_epik_Tot_abs_Q>  (12) 
1

>  <s_lp_Force_Field>  (12) 
OPLS3e

>  <r_lp_Energy>  (12) 
549.831

>  <b_lp_Chiralities_Consistent>  (12) 
1

>  <s_lp_Variant>  (12) 
2:0-1

>  <s_i_glide_gridfile>  (12) 
pfpi4k_grid

>  <i_i_glide_lignum>  (12) 
5

>  <i_i_glide_rotatable_bonds>  (12) 
1

>  <r_i_docking_score>  (12) 
-4.51754

>  <r_i_glide_ligand_efficiency>  (12) 
-0.250975

>  <r_i_glide_ligand_efficiency_sa>  (12) 
-0.65774

>  <r_i_glide_ligand_efficiency_ln>  (12) 
-1.16121

>  <r_i_glide_gscore>  (12) 
-4.51754

>  <r_i_glide_lipo>  (12) 
-0.640058

>  <r_i_glide_hbond>  (12) 
-0.32

>  <r_i_glide_metal>  (12) 
-0

>  <r_i_glide_rewards>  (12) 
-2.24305

>  <r_i_glide_evdw>  (12) 
-14.8974

>  <r_i_glide_ecoul>  (12) 
-3.72471

>  <r_i_glide_erotb>  (12) 
0

>  <r_i_glide_esite>  (12) 
-0.0108537

>  <r_i_glide_emodel>  (12) 
-29.7201

>  <r_i_glide_energy>  (12) 
-18.6221

>  <r_i_glide_einternal>  (12) 
0.324037

>  <r_i_glide_intrahb_reward>  (12) 
-0.5

>  <i_i_glide_confnum>  (12) 
1

>  <i_i_glide_posenum>  (12) 
17

>  <r_i_glide_eff_state_penalty>  (12) 
0

>  <ligand_id>  (12) 
2

>  <original_smiles>  (12) 
OC1C2C3C4C5CC6CCCNC67C1C5C3C7C24

>  <smiles>  (12) 
[H]OC1([H])C2([H])C3([H])C4([H])C5([H])C([H])([H])C6([H])C([H])([H])C([H])([H])C([H])([H])[N+]([H])([H])C67C1([H])C5([H])C3([H])C7([H])C24[H]

$$$$
2:0:1
     RDKit          3D

 40 46  0  0  1  0  0  0  0  0999 V2000
    5.4376    0.1075    0.8814 O   0  0  0  0  0  0  0  0  0  0  0  0
    4.5070   -0.7640    1.4579 C   0  0  2  0  0  0  0  0  0  0  0  0
    5.2598   -1.8304    2.3915 C   0  0  1  0  0  0  0  0  0  0  0  0
    4.2904   -2.8644    2.5958 C   0  0  2  0  0  0  0  0  0  0  0  0
    4.5299   -4.1336    2.3078 C   0  0  1  0  0  0  0  0  0  0  0  0
    3.0372   -4.2120    1.3281 C   0  0  2  0  0  0  0  0  0  0  0  0
    2.8372   -4.6598   -0.2657 C   0  0  0  0  0  0  0  0  0  0  0  0
    3.5602   -3.6195   -1.3565 C   0  0  1  0  0  0  0  0  0  0  0  0
    2.5629   -3.0786   -2.3882 C   0  0  0  0  0  0  0  0  0  0  0  0
    3.2874   -2.2394   -3.4426 C   0  0  0  0  0  0  0  0  0  0  0  0
    4.0756   -1.0972   -2.8018 C   0  0  0  0  0  0  0  0  0  0  0  0
    5.0355   -1.5685   -1.7835 N   0  0  0  0  0  0  0  0  0  0  0  0
    4.4460   -2.3849   -0.6994 C   0  0  1  0  0  0  0  0  0  0  0  0
    3.6531   -1.5459    0.2987 C   0  0  1  0  0  0  0  0  0  0  0  0
    2.8500   -2.7340    0.8735 C   0  0  1  0  0  0  0  0  0  0  0  0
    4.3097   -3.2365    1.0459 C   0  0  1  0  0  0  0  0  0  0  0  0
    5.5949   -2.8587    0.2632 C   0  0  2  0  0  0  0  0  0  0  0  0
    5.7889   -3.1053    1.7678 C   0  0  1  0  0  0  0  0  0  0  0  0
    4.9692    0.7671    0.3596 H   0  0  0  0  0  0  0  0  0  0  0  0
    3.8019   -0.1857    2.0539 H   0  0  0  0  0  0  0  0  0  0  0  0
    5.7491   -1.5024    3.3082 H   0  0  0  0  0  0  0  0  0  0  0  0
    3.4131   -2.6871    3.2173 H   0  0  0  0  0  0  0  0  0  0  0  0
    4.6702   -4.7414    3.1983 H   0  0  0  0  0  0  0  0  0  0  0  0
    2.1912   -4.5770    1.9149 H   0  0  0  0  0  0  0  0  0  0  0  0
    3.2595   -5.6659   -0.3494 H   0  0  0  0  0  0  0  0  0  0  0  0
    1.7798   -4.7392   -0.4956 H   0  0  0  0  0  0  0  0  0  0  0  0
    4.2672   -4.2309   -1.9147 H   0  0  0  0  0  0  0  0  0  0  0  0
    2.0097   -3.8831   -2.8635 H   0  0  0  0  0  0  0  0  0  0  0  0
    1.8121   -2.4515   -1.9174 H   0  0  0  0  0  0  0  0  0  0  0  0
    3.9368   -2.8860   -4.0342 H   0  0  0  0  0  0  0  0  0  0  0  0
    2.5508   -1.8160   -4.1271 H   0  0  0  0  0  0  0  0  0  0  0  0
    4.6137   -0.5805   -3.5906 H   0  0  0  0  0  0  0  0  0  0  0  0
    3.4029   -0.3564   -2.3743 H   0  0  0  0  0  0  0  0  0  0  0  0
    5.7196   -2.1451   -2.2457 H   0  0  0  0  0  0  0  0  0  0  0  0
    2.9833   -0.8541   -0.2071 H   0  0  0  0  0  0  0  0  0  0  0  0
    2.2462   -2.2726    1.6552 H   0  0  0  0  0  0  0  0  0  0  0  0
    4.7982   -4.2012    0.3963 H   0  0  0  0  0  0  0  0  0  0  0  0
    6.2910   -3.5405   -0.2595 H   0  0  0  0  0  0  0  0  0  0  0  0
    6.7864   -3.4013    2.0760 H   0  0  0  0  0  0  0  0  0  0  0  0
    5.4544   -0.7729   -1.3346 H   0  0  0  0  0  0  0  0  0  0  0  0
  1  2  1  0
  1 19  1  0
  2 14  1  0
  2  3  1  0
  2 20  1  1
  3 18  1  0
  3  4  1  0
  3 21  1  1
  4 16  1  0
  4  5  1  0
  4 22  1  1
  5 18  1  0
  5  6  1  0
  5 23  1  1
  6 15  1  0
  6  7  1  0
  6 24  1  1
  7  8  1  0
  7 25  1  0
  7 26  1  0
  8 13  1  0
  8  9  1  0
  8 27  1  6
  9 10  1  0
  9 28  1  0
  9 29  1  0
 10 11  1  0
 10 30  1  0
 10 31  1  0
 11 12  1  0
 11 32  1  0
 11 33  1  0
 13 12  1  6
 12 34  1  0
 12 40  1  0
 13 17  1  0
 13 14  1  0
 14 15  1  0
 14 35  1  6
 15 16  1  0
 15 36  1  1
 16 17  1  0
 16 37  1  1
 17 18  1  0
 17 38  1  6
 18 39  1  6
M  CHG  1  12   1
M  END
>  <i_m_ct_stereo_status>  (13) 
1

>  <s_m_source_file>  (13) 
/var/tmp/pbs.5076255.sched01/tmphbojuwnv/0fr5z8inm.sdf

>  <i_m_source_file_index>  (13) 
5

>  <i_lp_mmshare_version>  (13) 
48012

>  <i_f3d_flags>  (13) 
0

>  <s_epik_input>  (13) 
W09IXVtDQEhdMVtDQEBIXTJbQ0BASF0zW0NASF00W0NAQEhdNVtDQEhdNltDQEBIXTFbQ0BASF00W0NASF02W0NAQEhdM1tDSDJdW0NASF0oW0NAQF0yNTcpW0NIMl1bQ0gyXVtDSDJdW05IXTc=

>  <s_epik_cmdline>  (13) 
J2VwaWtfcHl0aG9uJywgJy1waHQnLCAnMi4wJywgJy1waCcsICc3LjAnLCAnLXRuJywgJzgnLCAnLW1hJywgJzIwMCcsICctaW1hZScsICc8aW5maWxlLm1hZT4nLCAnLW9tYWUnLCAnPG91dGZpbGUubWFlPic=

>  <r_lp_tautomer_probability>  (13) 
1

>  <r_epik_Ionization_Penalty>  (13) 
3.2426e-05

>  <r_epik_Ionization_Penalty_Charging>  (13) 
3.23116e-05

>  <r_epik_Ionization_Penalty_Neutral>  (13) 
1.14394e-07

>  <r_epik_State_Penalty>  (13) 
-0

>  <r_epik_Charging_Adjusted_Penalty>  (13) 
3.23116e-05

>  <i_epik_Tot_Q>  (13) 
1

>  <i_epik_Tot_abs_Q>  (13) 
1

>  <s_lp_Force_Field>  (13) 
OPLS3e

>  <r_lp_Energy>  (13) 
549.831

>  <b_lp_Chiralities_Consistent>  (13) 
1

>  <s_lp_Variant>  (13) 
2:0-1

>  <s_i_glide_gridfile>  (13) 
pfpi4k_grid

>  <i_i_glide_lignum>  (13) 
5

>  <i_i_glide_rotatable_bonds>  (13) 
1

>  <r_i_docking_score>  (13) 
-4.26112

>  <r_i_glide_ligand_efficiency>  (13) 
-0.236729

>  <r_i_glide_ligand_efficiency_sa>  (13) 
-0.620405

>  <r_i_glide_ligand_efficiency_ln>  (13) 
-1.0953

>  <r_i_glide_gscore>  (13) 
-4.26112

>  <r_i_glide_lipo>  (13) 
-0.522525

>  <r_i_glide_hbond>  (13) 
-0.434641

>  <r_i_glide_metal>  (13) 
-0

>  <r_i_glide_rewards>  (13) 
-1.74305

>  <r_i_glide_evdw>  (13) 
-16.6366

>  <r_i_glide_ecoul>  (13) 
-4.59999

>  <r_i_glide_erotb>  (13) 
0

>  <r_i_glide_esite>  (13) 
-0.0390683

>  <r_i_glide_emodel>  (13) 
-27.2383

>  <r_i_glide_energy>  (13) 
-21.2366

>  <r_i_glide_einternal>  (13) 
0.356665

>  <r_i_glide_intrahb_reward>  (13) 
-0

>  <i_i_glide_confnum>  (13) 
2

>  <i_i_glide_posenum>  (13) 
11

>  <r_i_glide_eff_state_penalty>  (13) 
0

>  <ligand_id>  (13) 
2

>  <original_smiles>  (13) 
OC1C2C3C4C5CC6CCCNC67C1C5C3C7C24

>  <smiles>  (13) 
[H]OC1([H])C2([H])C3([H])C4([H])C5([H])C([H])([H])C6([H])C([H])([H])C([H])([H])C([H])([H])[N+]([H])([H])C67C1([H])C5([H])C3([H])C7([H])C24[H]

$$$$
2:0:2
     RDKit          3D

 40 46  0  0  1  0  0  0  0  0999 V2000
    8.4969   -4.2835    0.9633 O   0  0  0  0  0  0  0  0  0  0  0  0
    7.5924   -3.7557    0.0105 C   0  0  2  0  0  0  0  0  0  0  0  0
    7.3528   -2.1826    0.1772 C   0  0  1  0  0  0  0  0  0  0  0  0
    6.1832   -1.9154   -0.6297 C   0  0  2  0  0  0  0  0  0  0  0  0
    5.0923   -1.3420   -0.1267 C   0  0  1  0  0  0  0  0  0  0  0  0
    4.0676   -2.6722   -0.7392 C   0  0  2  0  0  0  0  0  0  0  0  0
    2.9858   -3.6632    0.0781 C   0  0  0  0  0  0  0  0  0  0  0  0
    3.7210   -4.6770    1.1830 C   0  0  1  0  0  0  0  0  0  0  0  0
    3.4424   -6.1575    0.8798 C   0  0  0  0  0  0  0  0  0  0  0  0
    4.0143   -7.0437    1.9975 C   0  0  0  0  0  0  0  0  0  0  0  0
    5.5281   -6.8450    2.1705 C   0  0  0  0  0  0  0  0  0  0  0  0
    5.8764   -5.4273    2.4074 N   0  0  0  0  0  0  0  0  0  0  0  0
    5.3738   -4.4677    1.3895 C   0  0  1  0  0  0  0  0  0  0  0  0
    6.1539   -4.5576    0.0790 C   0  0  1  0  0  0  0  0  0  0  0  0
    5.0742   -3.8624   -0.7845 C   0  0  1  0  0  0  0  0  0  0  0  0
    5.2724   -2.8091    0.3496 C   0  0  1  0  0  0  0  0  0  0  0  0
    5.7966   -2.9967    1.7904 C   0  0  2  0  0  0  0  0  0  0  0  0
    6.2392   -1.6924    1.0936 C   0  0  1  0  0  0  0  0  0  0  0  0
    8.2259   -4.0043    1.8226 H   0  0  0  0  0  0  0  0  0  0  0  0
    8.0368   -3.9290   -0.9745 H   0  0  0  0  0  0  0  0  0  0  0  0
    8.1793   -1.4914    0.0170 H   0  0  0  0  0  0  0  0  0  0  0  0
    6.2281   -1.9776   -1.7219 H   0  0  0  0  0  0  0  0  0  0  0  0
    4.9617   -0.3113   -0.4711 H   0  0  0  0  0  0  0  0  0  0  0  0
    3.6615   -2.4426   -1.7294 H   0  0  0  0  0  0  0  0  0  0  0  0
    2.2483   -3.0383    0.5882 H   0  0  0  0  0  0  0  0  0  0  0  0
    2.4359   -4.2592   -0.6563 H   0  0  0  0  0  0  0  0  0  0  0  0
    3.2549   -4.4573    2.1482 H   0  0  0  0  0  0  0  0  0  0  0  0
    2.3709   -6.3302    0.7827 H   0  0  0  0  0  0  0  0  0  0  0  0
    3.8966   -6.4407   -0.0762 H   0  0  0  0  0  0  0  0  0  0  0  0
    3.4954   -6.8329    2.9351 H   0  0  0  0  0  0  0  0  0  0  0  0
    3.8267   -8.0934    1.7632 H   0  0  0  0  0  0  0  0  0  0  0  0
    5.8721   -7.4238    3.0288 H   0  0  0  0  0  0  0  0  0  0  0  0
    6.0682   -7.2183    1.2979 H   0  0  0  0  0  0  0  0  0  0  0  0
    5.4997   -5.1577    3.3043 H   0  0  0  0  0  0  0  0  0  0  0  0
    6.2628   -5.5905   -0.2606 H   0  0  0  0  0  0  0  0  0  0  0  0
    5.5215   -3.8351   -1.7810 H   0  0  0  0  0  0  0  0  0  0  0  0
    4.4021   -2.5393    1.2197 H   0  0  0  0  0  0  0  0  0  0  0  0
    5.3056   -2.7097    2.7404 H   0  0  0  0  0  0  0  0  0  0  0  0
    6.5264   -0.8416    1.7230 H   0  0  0  0  0  0  0  0  0  0  0  0
    6.8809   -5.3726    2.4406 H   0  0  0  0  0  0  0  0  0  0  0  0
  1  2  1  0
  1 19  1  0
  2 14  1  0
  2  3  1  0
  2 20  1  6
  3 18  1  0
  3  4  1  0
  3 21  1  6
  4 16  1  0
  4  5  1  0
  4 22  1  6
  5 18  1  0
  5  6  1  0
  5 23  1  6
  6 15  1  0
  6  7  1  0
  6 24  1  6
  7  8  1  0
  7 25  1  0
  7 26  1  0
  8 13  1  0
  8  9  1  0
  8 27  1  1
  9 10  1  0
  9 28  1  0
  9 29  1  0
 10 11  1  0
 10 30  1  0
 10 31  1  0
 11 12  1  0
 11 32  1  0
 11 33  1  0
 13 12  1  1
 12 34  1  0
 12 40  1  0
 13 17  1  0
 13 14  1  0
 14 15  1  0
 14 35  1  6
 15 16  1  0
 15 36  1  6
 16 17  1  0
 16 37  1  1
 17 18  1  0
 17 38  1  1
 18 39  1  1
M  CHG  1  12   1
M  END
>  <i_m_ct_stereo_status>  (14) 
1

>  <s_m_source_file>  (14) 
/var/tmp/pbs.5076255.sched01/tmphbojuwnv/0fr5z8inm.sdf

>  <i_m_source_file_index>  (14) 
5

>  <i_lp_mmshare_version>  (14) 
48012

>  <i_f3d_flags>  (14) 
0

>  <s_epik_input>  (14) 
W09IXVtDQEhdMVtDQEBIXTJbQ0BASF0zW0NASF00W0NAQEhdNVtDQEhdNltDQEBIXTFbQ0BASF00W0NASF02W0NAQEhdM1tDSDJdW0NASF0oW0NAQF0yNTcpW0NIMl1bQ0gyXVtDSDJdW05IXTc=

>  <s_epik_cmdline>  (14) 
J2VwaWtfcHl0aG9uJywgJy1waHQnLCAnMi4wJywgJy1waCcsICc3LjAnLCAnLXRuJywgJzgnLCAnLW1hJywgJzIwMCcsICctaW1hZScsICc8aW5maWxlLm1hZT4nLCAnLW9tYWUnLCAnPG91dGZpbGUubWFlPic=

>  <r_lp_tautomer_probability>  (14) 
1

>  <r_epik_Ionization_Penalty>  (14) 
3.2426e-05

>  <r_epik_Ionization_Penalty_Charging>  (14) 
3.23116e-05

>  <r_epik_Ionization_Penalty_Neutral>  (14) 
1.14394e-07

>  <r_epik_State_Penalty>  (14) 
-0

>  <r_epik_Charging_Adjusted_Penalty>  (14) 
3.23116e-05

>  <i_epik_Tot_Q>  (14) 
1

>  <i_epik_Tot_abs_Q>  (14) 
1

>  <s_lp_Force_Field>  (14) 
OPLS3e

>  <r_lp_Energy>  (14) 
549.831

>  <b_lp_Chiralities_Consistent>  (14) 
1

>  <s_lp_Variant>  (14) 
2:0-1

>  <s_i_glide_gridfile>  (14) 
pfpi4k_grid

>  <i_i_glide_lignum>  (14) 
5

>  <i_i_glide_rotatable_bonds>  (14) 
1

>  <r_i_docking_score>  (14) 
-3.79475

>  <r_i_glide_ligand_efficiency>  (14) 
-0.210819

>  <r_i_glide_ligand_efficiency_sa>  (14) 
-0.552503

>  <r_i_glide_ligand_efficiency_ln>  (14) 
-0.97542

>  <r_i_glide_gscore>  (14) 
-3.79475

>  <r_i_glide_lipo>  (14) 
-0.678536

>  <r_i_glide_hbond>  (14) 
0

>  <r_i_glide_metal>  (14) 
-0

>  <r_i_glide_rewards>  (14) 
-1.74305

>  <r_i_glide_evdw>  (14) 
-20.2804

>  <r_i_glide_ecoul>  (14) 
-2.39425

>  <r_i_glide_erotb>  (14) 
0

>  <r_i_glide_esite>  (14) 
0

>  <r_i_glide_emodel>  (14) 
-28.1567

>  <r_i_glide_energy>  (14) 
-22.6746

>  <r_i_glide_einternal>  (14) 
0.00704741

>  <r_i_glide_intrahb_reward>  (14) 
-0

>  <i_i_glide_confnum>  (14) 
1

>  <i_i_glide_posenum>  (14) 
1

>  <r_i_glide_eff_state_penalty>  (14) 
0

>  <ligand_id>  (14) 
2

>  <original_smiles>  (14) 
OC1C2C3C4C5CC6CCCNC67C1C5C3C7C24

>  <smiles>  (14) 
[H]OC1([H])C2([H])C3([H])C4([H])C5([H])C([H])([H])C6([H])C([H])([H])C([H])([H])C([H])([H])[N+]([H])([H])C67C1([H])C5([H])C3([H])C7([H])C24[H]

$$$$
6:0:0
     RDKit          3D

 50 53  0  0  1  0  0  0  0  0999 V2000
    5.6195   -7.8904    5.5510 C   0  0  0  0  0  0  0  0  0  0  0  0
    5.2278   -7.2539    4.4356 C   0  0  0  0  0  0  0  0  0  0  0  0
    6.1140   -6.9416    3.2525 C   0  0  0  0  0  0  0  0  0  0  0  0
    5.1553   -6.7947    2.0323 C   0  0  2  0  0  0  0  0  0  0  0  0
    5.2077   -5.3360    1.4750 C   0  0  1  0  0  0  0  0  0  0  0  0
    6.4770   -5.1498    0.6282 C   0  0  0  0  0  0  0  0  0  0  0  0
    6.6233   -3.7164    0.1191 C   0  0  0  0  0  0  0  0  0  0  0  0
    5.4137   -3.2963   -0.6961 C   0  0  0  0  0  0  0  0  0  0  0  0
    5.5765   -2.7879   -1.9411 C   0  0  0  0  0  0  0  0  0  0  0  0
    4.4425   -2.2984   -2.7326 C   0  0  0  0  0  0  0  0  0  0  0  0
    4.5424   -1.9532   -3.9103 O   0  0  0  0  0  0  0  0  0  0  0  0
    3.0981   -2.1844   -2.0356 C   0  0  0  0  0  0  0  0  0  0  0  0
    2.8959   -3.3327   -1.0371 C   0  0  0  0  0  0  0  0  0  0  0  0
    4.0497   -3.4954   -0.0017 C   0  0  2  0  0  0  0  0  0  0  0  0
    3.8906   -2.3933    1.0732 C   0  0  0  0  0  0  0  0  0  0  0  0
    3.9704   -4.9394    0.6266 C   0  0  2  0  0  0  0  0  0  0  0  0
    2.7046   -5.1857    1.4654 C   0  0  0  0  0  0  0  0  0  0  0  0
    2.5587   -6.6689    1.8079 C   0  0  0  0  0  0  0  0  0  0  0  0
    3.7636   -7.2757    2.5585 C   0  0  1  0  0  0  0  0  0  0  0  0
    3.6760   -8.8184    2.3908 C   0  0  0  0  0  0  0  0  0  0  0  0
    3.8175   -6.8847    4.0519 C   0  0  1  0  0  0  0  0  0  0  0  0
    2.8298   -7.4838    4.8694 O   0  0  0  0  0  0  0  0  0  0  0  0
    4.9122   -8.1491    6.3288 H   0  0  0  0  0  0  0  0  0  0  0  0
    6.6535   -8.1702    5.6970 H   0  0  0  0  0  0  0  0  0  0  0  0
    6.6590   -6.0225    3.4699 H   0  0  0  0  0  0  0  0  0  0  0  0
    6.8481   -7.7327    3.1083 H   0  0  0  0  0  0  0  0  0  0  0  0
    5.4742   -7.4678    1.2337 H   0  0  0  0  0  0  0  0  0  0  0  0
    5.2512   -4.6516    2.3238 H   0  0  0  0  0  0  0  0  0  0  0  0
    7.3648   -5.4310    1.1948 H   0  0  0  0  0  0  0  0  0  0  0  0
    6.4238   -5.8270   -0.2257 H   0  0  0  0  0  0  0  0  0  0  0  0
    6.7351   -3.0353    0.9623 H   0  0  0  0  0  0  0  0  0  0  0  0
    7.5262   -3.6351   -0.4850 H   0  0  0  0  0  0  0  0  0  0  0  0
    6.5613   -2.6919   -2.3709 H   0  0  0  0  0  0  0  0  0  0  0  0
    3.0417   -1.2206   -1.5261 H   0  0  0  0  0  0  0  0  0  0  0  0
    2.3050   -2.1902   -2.7823 H   0  0  0  0  0  0  0  0  0  0  0  0
    1.9416   -3.1709   -0.5379 H   0  0  0  0  0  0  0  0  0  0  0  0
    2.7725   -4.2559   -1.5986 H   0  0  0  0  0  0  0  0  0  0  0  0
    2.8983   -2.4026    1.5238 H   0  0  0  0  0  0  0  0  0  0  0  0
    4.0320   -1.3995    0.6441 H   0  0  0  0  0  0  0  0  0  0  0  0
    4.6160   -2.5016    1.8785 H   0  0  0  0  0  0  0  0  0  0  0  0
    3.9287   -5.6325   -0.2158 H   0  0  0  0  0  0  0  0  0  0  0  0
    2.7166   -4.5961    2.3841 H   0  0  0  0  0  0  0  0  0  0  0  0
    1.8183   -4.8763    0.9137 H   0  0  0  0  0  0  0  0  0  0  0  0
    1.6508   -6.8203    2.3915 H   0  0  0  0  0  0  0  0  0  0  0  0
    2.4037   -7.2172    0.8799 H   0  0  0  0  0  0  0  0  0  0  0  0
    2.7418   -9.2203    2.7865 H   0  0  0  0  0  0  0  0  0  0  0  0
    4.4968   -9.3391    2.8876 H   0  0  0  0  0  0  0  0  0  0  0  0
    3.7221   -9.1027    1.3364 H   0  0  0  0  0  0  0  0  0  0  0  0
    3.7377   -5.8012    4.1593 H   0  0  0  0  0  0  0  0  0  0  0  0
    2.8624   -8.4238    4.7602 H   0  0  0  0  0  0  0  0  0  0  0  0
  1  2  2  0
  1 23  1  0
  1 24  1  0
  2 21  1  0
  2  3  1  0
  3  4  1  0
  3 25  1  0
  3 26  1  0
  4 19  1  0
  4  5  1  0
  4 27  1  6
  5 16  1  0
  5  6  1  0
  5 28  1  1
  6  7  1  0
  6 29  1  0
  6 30  1  0
  7  8  1  0
  7 31  1  0
  7 32  1  0
  8 14  1  0
  8  9  2  0
  9 10  1  0
  9 33  1  0
 10 11  2  0
 10 12  1  0
 12 13  1  0
 12 34  1  0
 12 35  1  0
 13 14  1  0
 13 36  1  0
 13 37  1  0
 14 15  1  1
 14 16  1  0
 15 38  1  0
 15 39  1  0
 15 40  1  0
 16 17  1  0
 16 41  1  6
 17 18  1  0
 17 42  1  0
 17 43  1  0
 18 19  1  0
 18 44  1  0
 18 45  1  0
 19 20  1  1
 19 21  1  0
 20 46  1  0
 20 47  1  0
 20 48  1  0
 21 22  1  0
 21 49  1  6
 22 50  1  0
M  END
>  <i_m_ct_stereo_status>  (15) 
1

>  <s_m_source_file>  (15) 
/var/tmp/pbs.5076255.sched01/tmphbojuwnv/0fr5z8inm.sdf

>  <i_m_source_file_index>  (15) 
9

>  <i_lp_mmshare_version>  (15) 
48012

>  <i_f3d_flags>  (15) 
0

>  <s_epik_input>  (15) 
W0NIMl09QyhbQ0gyXTEpW0NASF0oW09IXSlbQ0BAXShbQ0gzXSkoW0NIMl1bQ0gyXVtDQEhdMjMpW0NASF0xW0NASF0yW0NIMl1bQ0gyXUMoW0NAXTM0W0NIM10pPVtDSF1DKD1PKVtDSDJdW0NIMl00

>  <s_epik_cmdline>  (15) 
J2VwaWtfcHl0aG9uJywgJy1waHQnLCAnMi4wJywgJy1waCcsICc3LjAnLCAnLXRuJywgJzgnLCAnLW1hJywgJzIwMCcsICctaW1hZScsICc8aW5maWxlLm1hZT4nLCAnLW9tYWUnLCAnPG91dGZpbGUubWFlPic=

>  <r_lp_tautomer_probability>  (15) 
1

>  <r_epik_Ionization_Penalty>  (15) 
2.46981e-07

>  <r_epik_Ionization_Penalty_Charging>  (15) 
0

>  <r_epik_Ionization_Penalty_Neutral>  (15) 
2.46981e-07

>  <r_epik_State_Penalty>  (15) 
-0

>  <r_epik_Charging_Adjusted_Penalty>  (15) 
0

>  <i_epik_Tot_Q>  (15) 
0

>  <i_epik_Tot_abs_Q>  (15) 
0

>  <s_lp_Force_Field>  (15) 
OPLS3e

>  <r_lp_Energy>  (15) 
35.726

>  <b_lp_Chiralities_Consistent>  (15) 
1

>  <s_lp_Variant>  (15) 
6:0-1

>  <s_i_glide_gridfile>  (15) 
pfpi4k_grid

>  <i_i_glide_lignum>  (15) 
9

>  <i_i_glide_rotatable_bonds>  (15) 
1

>  <r_i_docking_score>  (15) 
-3.6991

>  <r_i_glide_ligand_efficiency>  (15) 
-0.168141

>  <r_i_glide_ligand_efficiency_sa>  (15) 
-0.471137

>  <r_i_glide_ligand_efficiency_ln>  (15) 
-0.904195

>  <r_i_glide_gscore>  (15) 
-3.6991

>  <r_i_glide_lipo>  (15) 
-0.505824

>  <r_i_glide_hbond>  (15) 
-0.105994

>  <r_i_glide_metal>  (15) 
-0

>  <r_i_glide_rewards>  (15) 
-1.52585

>  <r_i_glide_evdw>  (15) 
-22.8198

>  <r_i_glide_ecoul>  (15) 
-2.80291

>  <r_i_glide_erotb>  (15) 
0

>  <r_i_glide_esite>  (15) 
0

>  <r_i_glide_emodel>  (15) 
-31.7883

>  <r_i_glide_energy>  (15) 
-25.6228

>  <r_i_glide_einternal>  (15) 
0.000426858

>  <r_i_glide_intrahb_reward>  (15) 
-0

>  <i_i_glide_confnum>  (15) 
1

>  <i_i_glide_posenum>  (15) 
31

>  <r_i_glide_eff_state_penalty>  (15) 
0

>  <ligand_id>  (15) 
6

>  <original_smiles>  (15) 
C=C1CC2C3CCC4=CC(=O)CCC4(C)C3CCC2(C)C1O

>  <smiles>  (15) 
[H]OC1([H])C(=C([H])[H])C([H])([H])C2([H])C3([H])C([H])([H])C([H])([H])C4=C([H])C(=O)C([H])([H])C([H])([H])C4(C([H])([H])[H])C3([H])C([H])([H])C([H])([H])C12C([H])([H])[H]

$$$$
6:0:1
     RDKit          3D

 50 53  0  0  1  0  0  0  0  0999 V2000
    5.6500   -7.4887    5.9336 C   0  0  0  0  0  0  0  0  0  0  0  0
    5.2487   -6.9156    4.7856 C   0  0  0  0  0  0  0  0  0  0  0  0
    6.1040   -6.7333    3.5548 C   0  0  0  0  0  0  0  0  0  0  0  0
    5.1106   -6.6304    2.3592 C   0  0  2  0  0  0  0  0  0  0  0  0
    5.2070   -5.2231    1.6919 C   0  0  1  0  0  0  0  0  0  0  0  0
    6.4559   -5.1589    0.7956 C   0  0  0  0  0  0  0  0  0  0  0  0
    6.6455   -3.7753    0.1769 C   0  0  0  0  0  0  0  0  0  0  0  0
    5.4288   -3.3582   -0.6324 C   0  0  0  0  0  0  0  0  0  0  0  0
    5.5707   -2.9511   -1.9129 C   0  0  0  0  0  0  0  0  0  0  0  0
    4.4342   -2.4647   -2.7053 C   0  0  0  0  0  0  0  0  0  0  0  0
    4.5052   -2.2089   -3.9073 O   0  0  0  0  0  0  0  0  0  0  0  0
    3.1217   -2.2382   -1.9742 C   0  0  0  0  0  0  0  0  0  0  0  0
    2.9027   -3.3045   -0.8918 C   0  0  0  0  0  0  0  0  0  0  0  0
    4.0807   -3.4430    0.1184 C   0  0  2  0  0  0  0  0  0  0  0  0
    4.0102   -2.2586    1.1154 C   0  0  0  0  0  0  0  0  0  0  0  0
    3.9595   -4.8300    0.8578 C   0  0  2  0  0  0  0  0  0  0  0  0
    2.7103   -4.9535    1.7512 C   0  0  0  0  0  0  0  0  0  0  0  0
    2.5159   -6.4024    2.2014 C   0  0  0  0  0  0  0  0  0  0  0  0
    3.7178   -7.0046    2.9625 C   0  0  1  0  0  0  0  0  0  0  0  0
    3.5555   -8.5501    2.9146 C   0  0  0  0  0  0  0  0  0  0  0  0
    3.8438   -6.5112    4.4191 C   0  0  1  0  0  0  0  0  0  0  0  0
    2.8729   -7.0245    5.3058 O   0  0  0  0  0  0  0  0  0  0  0  0
    4.9643   -7.6668    6.7514 H   0  0  0  0  0  0  0  0  0  0  0  0
    6.6749   -7.8079    6.0644 H   0  0  0  0  0  0  0  0  0  0  0  0
    6.6973   -5.8284    3.6877 H   0  0  0  0  0  0  0  0  0  0  0  0
    6.7946   -7.5686    3.4479 H   0  0  0  0  0  0  0  0  0  0  0  0
    5.3693   -7.3760    1.6040 H   0  0  0  0  0  0  0  0  0  0  0  0
    5.3120   -4.4807    2.4850 H   0  0  0  0  0  0  0  0  0  0  0  0
    7.3492   -5.4397    1.3546 H   0  0  0  0  0  0  0  0  0  0  0  0
    6.3495   -5.8914   -0.0070 H   0  0  0  0  0  0  0  0  0  0  0  0
    6.8183   -3.0414    0.9634 H   0  0  0  0  0  0  0  0  0  0  0  0
    7.5291   -3.7807   -0.4603 H   0  0  0  0  0  0  0  0  0  0  0  0
    6.5432   -2.9319   -2.3797 H   0  0  0  0  0  0  0  0  0  0  0  0
    3.1252   -1.2405   -1.5316 H   0  0  0  0  0  0  0  0  0  0  0  0
    2.3005   -2.2581   -2.6906 H   0  0  0  0  0  0  0  0  0  0  0  0
    1.9757   -3.0635   -0.3743 H   0  0  0  0  0  0  0  0  0  0  0  0
    2.7204   -4.2490   -1.3908 H   0  0  0  0  0  0  0  0  0  0  0  0
    3.0357   -2.1863    1.5984 H   0  0  0  0  0  0  0  0  0  0  0  0
    4.1821   -1.3058    0.6104 H   0  0  0  0  0  0  0  0  0  0  0  0
    4.7586   -2.3416    1.9028 H   0  0  0  0  0  0  0  0  0  0  0  0
    3.8563   -5.5797    0.0720 H   0  0  0  0  0  0  0  0  0  0  0  0
    2.7848   -4.3032    2.6252 H   0  0  0  0  0  0  0  0  0  0  0  0
    1.8170   -4.6429    1.2133 H   0  0  0  0  0  0  0  0  0  0  0  0
    1.6235   -6.4700    2.8244 H   0  0  0  0  0  0  0  0  0  0  0  0
    2.3051   -7.0043    1.3142 H   0  0  0  0  0  0  0  0  0  0  0  0
    2.6200   -8.8742    3.3755 H   0  0  0  0  0  0  0  0  0  0  0  0
    4.3672   -9.0713    3.4242 H   0  0  0  0  0  0  0  0  0  0  0  0
    3.5479   -8.9131    1.8836 H   0  0  0  0  0  0  0  0  0  0  0  0
    3.8103   -5.4220    4.4535 H   0  0  0  0  0  0  0  0  0  0  0  0
    3.0574   -6.6954    6.1731 H   0  0  0  0  0  0  0  0  0  0  0  0
  1  2  2  0
  1 23  1  0
  1 24  1  0
  2 21  1  0
  2  3  1  0
  3  4  1  0
  3 25  1  0
  3 26  1  0
  4 19  1  0
  4  5  1  0
  4 27  1  6
  5 16  1  0
  5  6  1  0
  5 28  1  1
  6  7  1  0
  6 29  1  0
  6 30  1  0
  7  8  1  0
  7 31  1  0
  7 32  1  0
  8 14  1  0
  8  9  2  0
  9 10  1  0
  9 33  1  0
 10 11  2  0
 10 12  1  0
 12 13  1  0
 12 34  1  0
 12 35  1  0
 13 14  1  0
 13 36  1  0
 13 37  1  0
 14 15  1  1
 14 16  1  0
 15 38  1  0
 15 39  1  0
 15 40  1  0
 16 17  1  0
 16 41  1  6
 17 18  1  0
 17 42  1  0
 17 43  1  0
 18 19  1  0
 18 44  1  0
 18 45  1  0
 19 20  1  1
 19 21  1  0
 20 46  1  0
 20 47  1  0
 20 48  1  0
 21 22  1  0
 21 49  1  6
 22 50  1  0
M  END
>  <i_m_ct_stereo_status>  (16) 
1

>  <s_m_source_file>  (16) 
/var/tmp/pbs.5076255.sched01/tmphbojuwnv/0fr5z8inm.sdf

>  <i_m_source_file_index>  (16) 
9

>  <i_lp_mmshare_version>  (16) 
48012

>  <i_f3d_flags>  (16) 
0

>  <s_epik_input>  (16) 
W0NIMl09QyhbQ0gyXTEpW0NASF0oW09IXSlbQ0BAXShbQ0gzXSkoW0NIMl1bQ0gyXVtDQEhdMjMpW0NASF0xW0NASF0yW0NIMl1bQ0gyXUMoW0NAXTM0W0NIM10pPVtDSF1DKD1PKVtDSDJdW0NIMl00

>  <s_epik_cmdline>  (16) 
J2VwaWtfcHl0aG9uJywgJy1waHQnLCAnMi4wJywgJy1waCcsICc3LjAnLCAnLXRuJywgJzgnLCAnLW1hJywgJzIwMCcsICctaW1hZScsICc8aW5maWxlLm1hZT4nLCAnLW9tYWUnLCAnPG91dGZpbGUubWFlPic=

>  <r_lp_tautomer_probability>  (16) 
1

>  <r_epik_Ionization_Penalty>  (16) 
2.46981e-07

>  <r_epik_Ionization_Penalty_Charging>  (16) 
0

>  <r_epik_Ionization_Penalty_Neutral>  (16) 
2.46981e-07

>  <r_epik_State_Penalty>  (16) 
-0

>  <r_epik_Charging_Adjusted_Penalty>  (16) 
0

>  <i_epik_Tot_Q>  (16) 
0

>  <i_epik_Tot_abs_Q>  (16) 
0

>  <s_lp_Force_Field>  (16) 
OPLS3e

>  <r_lp_Energy>  (16) 
35.726

>  <b_lp_Chiralities_Consistent>  (16) 
1

>  <s_lp_Variant>  (16) 
6:0-1

>  <s_i_glide_gridfile>  (16) 
pfpi4k_grid

>  <i_i_glide_lignum>  (16) 
9

>  <i_i_glide_rotatable_bonds>  (16) 
1

>  <r_i_docking_score>  (16) 
-3.63405

>  <r_i_glide_ligand_efficiency>  (16) 
-0.165184

>  <r_i_glide_ligand_efficiency_sa>  (16) 
-0.462852

>  <r_i_glide_ligand_efficiency_ln>  (16) 
-0.888294

>  <r_i_glide_gscore>  (16) 
-3.63405

>  <r_i_glide_lipo>  (16) 
-0.471326

>  <r_i_glide_hbond>  (16) 
-0.138755

>  <r_i_glide_metal>  (16) 
-0

>  <r_i_glide_rewards>  (16) 
-1.52502

>  <r_i_glide_evdw>  (16) 
-22.4025

>  <r_i_glide_ecoul>  (16) 
-2.5255

>  <r_i_glide_erotb>  (16) 
0

>  <r_i_glide_esite>  (16) 
0

>  <r_i_glide_emodel>  (16) 
-30.7975

>  <r_i_glide_energy>  (16) 
-24.928

>  <r_i_glide_einternal>  (16) 
0.379703

>  <r_i_glide_intrahb_reward>  (16) 
-0

>  <i_i_glide_confnum>  (16) 
1

>  <i_i_glide_posenum>  (16) 
22

>  <r_i_glide_eff_state_penalty>  (16) 
0

>  <ligand_id>  (16) 
6

>  <original_smiles>  (16) 
C=C1CC2C3CCC4=CC(=O)CCC4(C)C3CCC2(C)C1O

>  <smiles>  (16) 
[H]OC1([H])C(=C([H])[H])C([H])([H])C2([H])C3([H])C([H])([H])C([H])([H])C4=C([H])C(=O)C([H])([H])C([H])([H])C4(C([H])([H])[H])C3([H])C([H])([H])C([H])([H])C12C([H])([H])[H]

$$$$
6:0:2
     RDKit          3D

 50 53  0  0  1  0  0  0  0  0999 V2000
    2.6210   -2.9425   -3.3812 C   0  0  0  0  0  0  0  0  0  0  0  0
    3.0445   -2.6357   -2.1429 C   0  0  0  0  0  0  0  0  0  0  0  0
    2.8127   -3.4601   -0.8988 C   0  0  0  0  0  0  0  0  0  0  0  0
    3.9445   -3.0712    0.0946 C   0  0  2  0  0  0  0  0  0  0  0  0
    3.3391   -2.4184    1.3763 C   0  0  1  0  0  0  0  0  0  0  0  0
    2.7723   -3.5137    2.2999 C   0  0  0  0  0  0  0  0  0  0  0  0
    2.0880   -2.9148    3.5255 C   0  0  0  0  0  0  0  0  0  0  0  0
    3.0438   -2.0379    4.3162 C   0  0  0  0  0  0  0  0  0  0  0  0
    3.2178   -2.2480    5.6375 C   0  0  0  0  0  0  0  0  0  0  0  0
    4.0683   -1.3810    6.4586 C   0  0  0  0  0  0  0  0  0  0  0  0
    4.3452   -1.6313    7.6302 O   0  0  0  0  0  0  0  0  0  0  0  0
    4.5914   -0.1015    5.8216 C   0  0  0  0  0  0  0  0  0  0  0  0
    4.9282   -0.3289    4.3394 C   0  0  0  0  0  0  0  0  0  0  0  0
    3.7591   -0.9356    3.5031 C   0  0  2  0  0  0  0  0  0  0  0  0
    2.7324    0.1866    3.2142 C   0  0  0  0  0  0  0  0  0  0  0  0
    4.3422   -1.5454    2.1739 C   0  0  2  0  0  0  0  0  0  0  0  0
    4.9492   -0.5010    1.2240 C   0  0  0  0  0  0  0  0  0  0  0  0
    5.7345   -1.1811    0.1065 C   0  0  0  0  0  0  0  0  0  0  0  0
    4.9171   -2.1786   -0.7422 C   0  0  1  0  0  0  0  0  0  0  0  0
    5.9350   -3.0955   -1.4778 C   0  0  0  0  0  0  0  0  0  0  0  0
    3.9576   -1.5056   -1.7452 C   0  0  1  0  0  0  0  0  0  0  0  0
    4.5803   -0.8781   -2.8443 O   0  0  0  0  0  0  0  0  0  0  0  0
    2.8738   -2.3339   -4.2382 H   0  0  0  0  0  0  0  0  0  0  0  0
    2.0147   -3.8209   -3.5519 H   0  0  0  0  0  0  0  0  0  0  0  0
    1.8184   -3.2201   -0.5228 H   0  0  0  0  0  0  0  0  0  0  0  0
    2.8318   -4.5233   -1.1195 H   0  0  0  0  0  0  0  0  0  0  0  0
    4.4838   -3.9700    0.3992 H   0  0  0  0  0  0  0  0  0  0  0  0
    2.5208   -1.7680    1.0612 H   0  0  0  0  0  0  0  0  0  0  0  0
    2.0685   -4.1457    1.7600 H   0  0  0  0  0  0  0  0  0  0  0  0
    3.5835   -4.1691    2.6293 H   0  0  0  0  0  0  0  0  0  0  0  0
    1.2302   -2.3176    3.2188 H   0  0  0  0  0  0  0  0  0  0  0  0
    1.7094   -3.7175    4.1582 H   0  0  0  0  0  0  0  0  0  0  0  0
    2.6917   -3.0455    6.1441 H   0  0  0  0  0  0  0  0  0  0  0  0
    3.8367    0.6778    5.9351 H   0  0  0  0  0  0  0  0  0  0  0  0
    5.4762    0.2289    6.3654 H   0  0  0  0  0  0  0  0  0  0  0  0
    5.2562    0.6210    3.9184 H   0  0  0  0  0  0  0  0  0  0  0  0
    5.7982   -0.9842    4.2943 H   0  0  0  0  0  0  0  0  0  0  0  0
    3.1934    1.0545    2.7403 H   0  0  0  0  0  0  0  0  0  0  0  0
    2.2641    0.5399    4.1350 H   0  0  0  0  0  0  0  0  0  0  0  0
    1.9295   -0.1524    2.5590 H   0  0  0  0  0  0  0  0  0  0  0  0
    5.1563   -2.2073    2.4741 H   0  0  0  0  0  0  0  0  0  0  0  0
    4.1808    0.1439    0.7970 H   0  0  0  0  0  0  0  0  0  0  0  0
    5.6398    0.1445    1.7606 H   0  0  0  0  0  0  0  0  0  0  0  0
    6.1583   -0.4153   -0.5402 H   0  0  0  0  0  0  0  0  0  0  0  0
    6.5825   -1.6968    0.5621 H   0  0  0  0  0  0  0  0  0  0  0  0
    6.6083   -2.5283   -2.1243 H   0  0  0  0  0  0  0  0  0  0  0  0
    5.4456   -3.8492   -2.0981 H   0  0  0  0  0  0  0  0  0  0  0  0
    6.5549   -3.6374   -0.7604 H   0  0  0  0  0  0  0  0  0  0  0  0
    3.3445   -0.7658   -1.2326 H   0  0  0  0  0  0  0  0  0  0  0  0
    3.9544   -0.2659   -3.2081 H   0  0  0  0  0  0  0  0  0  0  0  0
  1  2  2  0
  1 23  1  0
  1 24  1  0
  2 21  1  0
  2  3  1  0
  3  4  1  0
  3 25  1  0
  3 26  1  0
  4 19  1  0
  4  5  1  0
  4 27  1  1
  5 16  1  0
  5  6  1  0
  5 28  1  6
  6  7  1  0
  6 29  1  0
  6 30  1  0
  7  8  1  0
  7 31  1  0
  7 32  1  0
  8 14  1  0
  8  9  2  0
  9 10  1  0
  9 33  1  0
 10 11  2  0
 10 12  1  0
 12 13  1  0
 12 34  1  0
 12 35  1  0
 13 14  1  0
 13 36  1  0
 13 37  1  0
 14 15  1  6
 14 16  1  0
 15 38  1  0
 15 39  1  0
 15 40  1  0
 16 17  1  0
 16 41  1  1
 17 18  1  0
 17 42  1  0
 17 43  1  0
 18 19  1  0
 18 44  1  0
 18 45  1  0
 19 20  1  6
 19 21  1  0
 20 46  1  0
 20 47  1  0
 20 48  1  0
 21 22  1  0
 21 49  1  1
 22 50  1  0
M  END
>  <i_m_ct_stereo_status>  (17) 
1

>  <s_m_source_file>  (17) 
/var/tmp/pbs.5076255.sched01/tmphbojuwnv/0fr5z8inm.sdf

>  <i_m_source_file_index>  (17) 
9

>  <i_lp_mmshare_version>  (17) 
48012

>  <i_f3d_flags>  (17) 
0

>  <s_epik_input>  (17) 
W0NIMl09QyhbQ0gyXTEpW0NASF0oW09IXSlbQ0BAXShbQ0gzXSkoW0NIMl1bQ0gyXVtDQEhdMjMpW0NASF0xW0NASF0yW0NIMl1bQ0gyXUMoW0NAXTM0W0NIM10pPVtDSF1DKD1PKVtDSDJdW0NIMl00

>  <s_epik_cmdline>  (17) 
J2VwaWtfcHl0aG9uJywgJy1waHQnLCAnMi4wJywgJy1waCcsICc3LjAnLCAnLXRuJywgJzgnLCAnLW1hJywgJzIwMCcsICctaW1hZScsICc8aW5maWxlLm1hZT4nLCAnLW9tYWUnLCAnPG91dGZpbGUubWFlPic=

>  <r_lp_tautomer_probability>  (17) 
1

>  <r_epik_Ionization_Penalty>  (17) 
2.46981e-07

>  <r_epik_Ionization_Penalty_Charging>  (17) 
0

>  <r_epik_Ionization_Penalty_Neutral>  (17) 
2.46981e-07

>  <r_epik_State_Penalty>  (17) 
-0

>  <r_epik_Charging_Adjusted_Penalty>  (17) 
0

>  <i_epik_Tot_Q>  (17) 
0

>  <i_epik_Tot_abs_Q>  (17) 
0

>  <s_lp_Force_Field>  (17) 
OPLS3e

>  <r_lp_Energy>  (17) 
35.726

>  <b_lp_Chiralities_Consistent>  (17) 
1

>  <s_lp_Variant>  (17) 
6:0-1

>  <s_i_glide_gridfile>  (17) 
pfpi4k_grid

>  <i_i_glide_lignum>  (17) 
9

>  <i_i_glide_rotatable_bonds>  (17) 
1

>  <r_i_docking_score>  (17) 
-3.48678

>  <r_i_glide_ligand_efficiency>  (17) 
-0.15849

>  <r_i_glide_ligand_efficiency_sa>  (17) 
-0.444095

>  <r_i_glide_ligand_efficiency_ln>  (17) 
-0.852296

>  <r_i_glide_gscore>  (17) 
-3.48678

>  <r_i_glide_lipo>  (17) 
-0.564423

>  <r_i_glide_hbond>  (17) 
0

>  <r_i_glide_metal>  (17) 
-0

>  <r_i_glide_rewards>  (17) 
-1.36067

>  <r_i_glide_evdw>  (17) 
-25.3367

>  <r_i_glide_ecoul>  (17) 
-1.9657

>  <r_i_glide_erotb>  (17) 
0

>  <r_i_glide_esite>  (17) 
0

>  <r_i_glide_emodel>  (17) 
-32.8593

>  <r_i_glide_energy>  (17) 
-27.3024

>  <r_i_glide_einternal>  (17) 
0.375758

>  <r_i_glide_intrahb_reward>  (17) 
-0

>  <i_i_glide_confnum>  (17) 
2

>  <i_i_glide_posenum>  (17) 
40

>  <r_i_glide_eff_state_penalty>  (17) 
0

>  <ligand_id>  (17) 
6

>  <original_smiles>  (17) 
C=C1CC2C3CCC4=CC(=O)CCC4(C)C3CCC2(C)C1O

>  <smiles>  (17) 
[H]OC1([H])C(=C([H])[H])C([H])([H])C2([H])C3([H])C([H])([H])C([H])([H])C4=C([H])C(=O)C([H])([H])C([H])([H])C4(C([H])([H])[H])C3([H])C([H])([H])C([H])([H])C12C([H])([H])[H]

$$$$
7:0:0
     RDKit          3D

 41 44  0  0  1  0  0  0  0  0999 V2000
    1.4164   -5.5021    0.0738 O   0  0  0  0  0  0  0  0  0  0  0  0
    2.2203   -4.6573   -0.3410 C   0  0  0  0  0  0  0  0  0  0  0  0
    1.8905   -3.8171   -1.3473 N   0  0  0  0  0  0  0  0  0  0  0  0
    2.6807   -2.7568   -1.9007 C   0  0  0  0  0  0  0  0  0  0  0  0
    2.6165   -2.4460   -3.2723 C   0  0  0  0  0  0  0  0  0  0  0  0
    3.4030   -1.3782   -3.7727 C   0  0  0  0  0  0  0  0  0  0  0  0
    4.2230   -0.6761   -2.8694 C   0  0  0  0  0  0  0  0  0  0  0  0
    4.3094   -0.9779   -1.5657 N   0  0  0  0  0  0  0  0  0  0  0  0
    3.5137   -1.9397   -1.0859 C   0  0  0  0  0  0  0  0  0  0  0  0
    3.4669   -4.4849    0.0926 N   0  0  0  0  0  0  0  0  0  0  0  0
    4.2288   -5.2175    1.0673 C   0  0  1  0  0  0  0  0  0  0  0  0
    5.6486   -4.5936    1.1396 C   0  0  0  0  0  0  0  0  0  0  0  0
    6.4981   -5.3583    2.1764 C   0  0  2  0  0  0  0  0  0  0  0  0
    6.6096   -6.8348    1.7444 C   0  0  0  0  0  0  0  0  0  0  0  0
    5.1990   -7.4571    1.6802 C   0  0  1  0  0  0  0  0  0  0  0  0
    4.5100   -7.3497    3.0623 C   0  0  0  0  0  0  0  0  0  0  0  0
    4.4053   -5.8672    3.4902 C   0  0  1  0  0  0  0  0  0  0  0  0
    5.8160   -5.2495    3.5596 C   0  0  0  0  0  0  0  0  0  0  0  0
    3.5650   -5.0993    2.4574 C   0  0  0  0  0  0  0  0  0  0  0  0
    4.3601   -6.6960    0.6445 C   0  0  0  0  0  0  0  0  0  0  0  0
    1.0345   -4.0243   -1.8320 H   0  0  0  0  0  0  0  0  0  0  0  0
    1.9645   -2.9966   -3.9491 H   0  0  0  0  0  0  0  0  0  0  0  0
    3.3545   -1.0561   -4.7991 H   0  0  0  0  0  0  0  0  0  0  0  0
    4.8304    0.1675   -3.1575 H   0  0  0  0  0  0  0  0  0  0  0  0
    3.5603   -2.0236   -0.0089 H   0  0  0  0  0  0  0  0  0  0  0  0
    4.0134   -3.7983   -0.4083 H   0  0  0  0  0  0  0  0  0  0  0  0
    6.1471   -4.6191    0.1682 H   0  0  0  0  0  0  0  0  0  0  0  0
    5.6006   -3.5386    1.4161 H   0  0  0  0  0  0  0  0  0  0  0  0
    7.5015   -4.9297    2.2223 H   0  0  0  0  0  0  0  0  0  0  0  0
    7.0869   -6.8899    0.7650 H   0  0  0  0  0  0  0  0  0  0  0  0
    7.2393   -7.3934    2.4352 H   0  0  0  0  0  0  0  0  0  0  0  0
    5.2623   -8.5049    1.3751 H   0  0  0  0  0  0  0  0  0  0  0  0
    3.5115   -7.7868    3.0143 H   0  0  0  0  0  0  0  0  0  0  0  0
    5.0721   -7.9168    3.8032 H   0  0  0  0  0  0  0  0  0  0  0  0
    3.9266   -5.7970    4.4701 H   0  0  0  0  0  0  0  0  0  0  0  0
    6.4119   -5.7575    4.3172 H   0  0  0  0  0  0  0  0  0  0  0  0
    5.7520   -4.2014    3.8587 H   0  0  0  0  0  0  0  0  0  0  0  0
    3.4772   -4.0485    2.7417 H   0  0  0  0  0  0  0  0  0  0  0  0
    2.5545   -5.5039    2.4547 H   0  0  0  0  0  0  0  0  0  0  0  0
    3.3825   -7.1644    0.5717 H   0  0  0  0  0  0  0  0  0  0  0  0
    4.8162   -6.7621   -0.3439 H   0  0  0  0  0  0  0  0  0  0  0  0
  1  2  2  0
  2  3  1  0
  2 10  1  0
  3  4  1  0
  3 21  1  0
  4  9  1  0
  4  5  2  0
  5  6  1  0
  5 22  1  0
  6  7  2  0
  6 23  1  0
  7  8  1  0
  7 24  1  0
  8  9  2  0
  9 25  1  0
 11 10  1  6
 10 26  1  0
 11 19  1  0
 11 20  1  0
 11 12  1  0
 12 13  1  0
 12 27  1  0
 12 28  1  0
 13 18  1  0
 13 14  1  0
 13 29  1  1
 14 15  1  0
 14 30  1  0
 14 31  1  0
 15 16  1  0
 15 20  1  0
 15 32  1  6
 16 17  1  0
 16 33  1  0
 16 34  1  0
 17 18  1  0
 17 19  1  0
 17 35  1  1
 18 36  1  0
 18 37  1  0
 19 38  1  0
 19 39  1  0
 20 40  1  0
 20 41  1  0
M  END
>  <i_m_ct_stereo_status>  (18) 
1

>  <s_m_source_file>  (18) 
/var/tmp/pbs.5076255.sched01/tmphbojuwnv/0fr5z8inm.sdf

>  <i_m_source_file_index>  (18) 
10

>  <i_lp_mmshare_version>  (18) 
48012

>  <i_f3d_flags>  (18) 
0

>  <s_epik_input>  (18) 
W2NIXTFuW2NIXVtjSF1bY0hdYzFbTkhdQyg9TylbTkhdQzIzW0NIMl1bQ0BIXTRbQ0gyXVtDQEBIXShbQ0gyXTMpW0NIMl1bQ0BIXShbQ0gyXTQpW0NIMl0y

>  <s_epik_cmdline>  (18) 
J2VwaWtfcHl0aG9uJywgJy1waHQnLCAnMi4wJywgJy1waCcsICc3LjAnLCAnLXRuJywgJzgnLCAnLW1hJywgJzIwMCcsICctaW1hZScsICc8aW5maWxlLm1hZT4nLCAnLW9tYWUnLCAnPG91dGZpbGUubWFlPic=

>  <r_epik_Ionization_Penalty>  (18) 
0.00516352

>  <r_epik_Ionization_Penalty_Charging>  (18) 
0

>  <r_epik_Ionization_Penalty_Neutral>  (18) 
0.00516352

>  <r_epik_State_Penalty>  (18) 
0.00372887

>  <r_epik_Charging_Adjusted_Penalty>  (18) 
0.00372887

>  <i_epik_Tot_Q>  (18) 
0

>  <i_epik_Tot_abs_Q>  (18) 
0

>  <s_lp_Force_Field>  (18) 
OPLS3e

>  <r_lp_Energy>  (18) 
9.89465

>  <b_lp_Chiralities_Consistent>  (18) 
1

>  <s_lp_Variant>  (18) 
7:0-1

>  <s_i_glide_gridfile>  (18) 
pfpi4k_grid

>  <i_i_glide_lignum>  (18) 
10

>  <i_i_glide_rotatable_bonds>  (18) 
4

>  <r_i_docking_score>  (18) 
-3.00653

>  <r_i_glide_ligand_efficiency>  (18) 
-0.150327

>  <r_i_glide_ligand_efficiency_sa>  (18) 
-0.40805

>  <r_i_glide_ligand_efficiency_ln>  (18) 
-0.752436

>  <r_i_glide_gscore>  (18) 
-3.00653

>  <r_i_glide_lipo>  (18) 
-0.834014

>  <r_i_glide_hbond>  (18) 
-0.142925

>  <r_i_glide_metal>  (18) 
-0

>  <r_i_glide_rewards>  (18) 
-0.498927

>  <r_i_glide_evdw>  (18) 
-18.3282

>  <r_i_glide_ecoul>  (18) 
-5.53243

>  <r_i_glide_erotb>  (18) 
0.340377

>  <r_i_glide_esite>  (18) 
-0.12477

>  <r_i_glide_emodel>  (18) 
-24.5731

>  <r_i_glide_energy>  (18) 
-23.8607

>  <r_i_glide_einternal>  (18) 
6.76149

>  <r_i_glide_intrahb_reward>  (18) 
-0

>  <i_i_glide_confnum>  (18) 
5

>  <i_i_glide_posenum>  (18) 
7

>  <r_i_glide_eff_state_penalty>  (18) 
0

>  <ligand_id>  (18) 
7

>  <original_smiles>  (18) 
O=C(Nc1cccnc1)NC12CC3CC(CC(C3)C1)C2

>  <smiles>  (18) 
[H]c1nc([H])c(N([H])C(=O)N([H])C23C([H])([H])C4([H])C([H])([H])C([H])(C([H])([H])C([H])(C4([H])[H])C2([H])[H])C3([H])[H])c([H])c1[H]

$$$$
9:0:0
     RDKit          3D

 62 68  0  0  1  0  0  0  0  0999 V2000
    4.3729   -6.9375    6.1836 C   0  0  0  0  0  0  0  0  0  0  0  0
    3.9287   -6.0723    5.0193 C   0  0  0  0  0  0  0  0  0  0  0  0
    4.4333   -6.2823    3.7833 C   0  0  0  0  0  0  0  0  0  0  0  0
    4.1320   -5.5113    2.4917 C   0  0  1  0  0  0  0  0  0  0  0  0
    2.6300   -5.5506    2.1019 C   0  0  1  0  0  0  0  0  0  0  0  0
    2.4724   -5.3457    0.5683 C   0  0  0  0  0  0  0  0  0  0  0  0
    1.8861   -6.8752    2.4357 C   0  0  0  0  0  0  0  0  0  0  0  0
    2.1533   -7.8785    1.7739 O   0  0  0  0  0  0  0  0  0  0  0  0
    0.8836   -6.9015    3.5297 C   0  0  0  0  0  0  0  0  0  0  0  0
   -0.0363   -8.1079    3.6064 C   0  0  0  0  0  0  0  0  0  0  0  0
    0.8458   -5.8954    4.4223 C   0  0  0  0  0  0  0  0  0  0  0  0
    1.7798   -4.7011    4.3929 C   0  0  1  0  0  0  0  0  0  0  0  0
    2.9453   -4.9596    5.3825 C   0  0  0  0  0  0  0  0  0  0  0  0
    2.1192   -4.3460    2.9149 C   0  0  1  0  0  0  0  0  0  0  0  0
    3.1905   -3.2576    2.6651 C   0  0  1  0  0  0  0  0  0  0  0  0
    3.1276   -1.9765    3.5179 C   0  0  2  0  0  0  0  0  0  0  0  0
    1.7673   -1.5396    3.6127 O   0  0  0  0  0  0  0  0  0  0  0  0
    1.4254   -0.6586    2.5427 C   0  0  1  0  0  0  0  0  0  0  0  0
    0.3471    0.3137    3.0426 C   0  0  0  0  0  0  0  0  0  0  0  0
    2.7562   -0.0187    2.1872 C   0  0  2  0  0  0  0  0  0  0  0  0
    3.2602   -0.4427    0.8945 O   0  0  0  0  0  0  0  0  0  0  0  0
    4.5206   -0.7799    1.5161 C   0  0  1  0  0  0  0  0  0  0  0  0
    3.8408   -0.7863    2.8929 C   0  0  2  0  0  0  0  0  0  0  0  0
    5.2190   -1.9715    0.8426 C   0  0  1  0  0  0  0  0  0  0  0  0
    5.5502   -1.6197   -0.5990 C   0  0  0  0  0  0  0  0  0  0  0  0
    6.3174   -2.3686    1.6372 O   0  0  0  0  0  0  0  0  0  0  0  0
    5.3954   -3.4350    1.3492 C   0  0  2  0  0  0  0  0  0  0  0  0
    6.0689   -4.5089    0.5029 C   0  0  0  0  0  0  0  0  0  0  0  0
    4.5621   -3.9800    2.5459 C   0  0  2  0  0  0  0  0  0  0  0  0
    5.3791   -3.7543    3.6851 O   0  0  0  0  0  0  0  0  0  0  0  0
    4.8326   -6.3309    6.9618 H   0  0  0  0  0  0  0  0  0  0  0  0
    5.1029   -7.6809    5.8667 H   0  0  0  0  0  0  0  0  0  0  0  0
    3.5270   -7.4708    6.6171 H   0  0  0  0  0  0  0  0  0  0  0  0
    5.1394   -7.0874    3.6518 H   0  0  0  0  0  0  0  0  0  0  0  0
    4.6693   -6.0894    1.7459 H   0  0  0  0  0  0  0  0  0  0  0  0
    2.9764   -4.4645    0.1807 H   0  0  0  0  0  0  0  0  0  0  0  0
    1.4263   -5.2732    0.2780 H   0  0  0  0  0  0  0  0  0  0  0  0
    2.8912   -6.1852    0.0152 H   0  0  0  0  0  0  0  0  0  0  0  0
   -0.6838   -8.1664    2.7342 H   0  0  0  0  0  0  0  0  0  0  0  0
   -0.6697   -8.0727    4.4913 H   0  0  0  0  0  0  0  0  0  0  0  0
    0.5435   -9.0287    3.6578 H   0  0  0  0  0  0  0  0  0  0  0  0
    0.1265   -5.9147    5.2301 H   0  0  0  0  0  0  0  0  0  0  0  0
    1.2032   -3.8628    4.7881 H   0  0  0  0  0  0  0  0  0  0  0  0
    2.4935   -5.2203    6.3430 H   0  0  0  0  0  0  0  0  0  0  0  0
    3.5055   -4.0503    5.5860 H   0  0  0  0  0  0  0  0  0  0  0  0
    1.1871   -3.9953    2.4768 H   0  0  0  0  0  0  0  0  0  0  0  0
    2.9296   -2.9196    1.6664 H   0  0  0  0  0  0  0  0  0  0  0  0
    3.4852   -2.1593    4.5284 H   0  0  0  0  0  0  0  0  0  0  0  0
    1.0425   -1.2398    1.7020 H   0  0  0  0  0  0  0  0  0  0  0  0
    0.0339    1.0103    2.2620 H   0  0  0  0  0  0  0  0  0  0  0  0
    0.6949    0.8963    3.8967 H   0  0  0  0  0  0  0  0  0  0  0  0
   -0.5389   -0.2341    3.3669 H   0  0  0  0  0  0  0  0  0  0  0  0
    2.8334    1.0607    2.3252 H   0  0  0  0  0  0  0  0  0  0  0  0
    5.1841    0.0906    1.5060 H   0  0  0  0  0  0  0  0  0  0  0  0
    4.3532   -0.1493    3.6146 H   0  0  0  0  0  0  0  0  0  0  0  0
    4.6301   -1.5603   -1.1830 H   0  0  0  0  0  0  0  0  0  0  0  0
    6.1865   -2.3619   -1.0721 H   0  0  0  0  0  0  0  0  0  0  0  0
    6.0661   -0.6625   -0.6547 H   0  0  0  0  0  0  0  0  0  0  0  0
    5.3448   -4.9883   -0.1579 H   0  0  0  0  0  0  0  0  0  0  0  0
    6.5523   -5.2590    1.1268 H   0  0  0  0  0  0  0  0  0  0  0  0
    6.8660   -4.0990   -0.1146 H   0  0  0  0  0  0  0  0  0  0  0  0
    4.9047   -4.0588    4.4463 H   0  0  0  0  0  0  0  0  0  0  0  0
  1  2  1  0
  1 31  1  0
  1 32  1  0
  1 33  1  0
  2 13  1  0
  2  3  2  0
  3  4  1  0
  3 34  1  0
  4 29  1  0
  4  5  1  0
  4 35  1  6
  5 14  1  0
  5  6  1  6
  5  7  1  0
  6 36  1  0
  6 37  1  0
  6 38  1  0
  7  8  2  0
  7  9  1  0
  9 10  1  0
  9 11  2  0
 10 39  1  0
 10 40  1  0
 10 41  1  0
 11 12  1  0
 11 42  1  0
 12 13  1  0
 12 14  1  0
 12 43  1  1
 13 44  1  0
 13 45  1  0
 14 15  1  0
 14 46  1  6
 15 29  1  0
 15 16  1  0
 15 47  1  6
 16 23  1  0
 16 17  1  0
 16 48  1  1
 17 18  1  0
 18 19  1  0
 18 20  1  0
 18 49  1  6
 19 50  1  0
 19 51  1  0
 19 52  1  0
 20 23  1  0
 20 21  1  0
 20 53  1  6
 21 22  1  0
 22 23  1  0
 22 24  1  0
 22 54  1  1
 23 55  1  1
 24 27  1  0
 24 25  1  6
 24 26  1  0
 25 56  1  0
 25 57  1  0
 25 58  1  0
 26 27  1  0
 27 28  1  6
 27 29  1  0
 28 59  1  0
 28 60  1  0
 28 61  1  0
 29 30  1  1
 30 62  1  0
M  END
>  <i_m_ct_stereo_status>  (19) 
1

>  <s_m_source_file>  (19) 
/var/tmp/pbs.5076255.sched01/tmphbojuwnv/0fr5z8inm.sdf

>  <i_m_source_file_index>  (19) 
12

>  <i_lp_mmshare_version>  (19) 
48012

>  <i_f3d_flags>  (19) 
0

>  <s_epik_input>  (19) 
Tz1DMUMoW0NIM10pPVtDSF1bQ0BASF0oW0NIMl1DKFtDSDNdKT1bQ0hdMilbQ0BIXTNbQ0BIXShbQ0BAXTQoW09IXSlbQ0BASF0yW0NAQF0xM1tDSDNdKVtDQEhdNVtDQEBIXTZbQ0BIXShbQ0BASF0oTzUpW0NIM10pT1tDQEBIXTZbQ0BdNyhbQ0gzXSlbQ0BdNChPNylbQ0gzXQ==

>  <s_epik_cmdline>  (19) 
J2VwaWtfcHl0aG9uJywgJy1waHQnLCAnMi4wJywgJy1waCcsICc3LjAnLCAnLXRuJywgJzgnLCAnLW1hJywgJzIwMCcsICctaW1hZScsICc8aW5maWxlLm1hZT4nLCAnLW9tYWUnLCAnPG91dGZpbGUubWFlPic=

>  <r_lp_tautomer_probability>  (19) 
1

>  <r_epik_Ionization_Penalty>  (19) 
7.42302e-08

>  <r_epik_Ionization_Penalty_Charging>  (19) 
0

>  <r_epik_Ionization_Penalty_Neutral>  (19) 
7.42302e-08

>  <r_epik_State_Penalty>  (19) 
-0

>  <r_epik_Charging_Adjusted_Penalty>  (19) 
0

>  <i_epik_Tot_Q>  (19) 
0

>  <i_epik_Tot_abs_Q>  (19) 
0

>  <s_lp_Force_Field>  (19) 
OPLS3e

>  <r_lp_Energy>  (19) 
54.3908

>  <b_lp_Chiralities_Consistent>  (19) 
1

>  <s_lp_Variant>  (19) 
9:0-1

>  <s_i_glide_gridfile>  (19) 
pfpi4k_grid

>  <i_i_glide_lignum>  (19) 
12

>  <i_i_glide_rotatable_bonds>  (19) 
1

>  <r_i_docking_score>  (19) 
-2.21369

>  <r_i_glide_ligand_efficiency>  (19) 
-0.0737896

>  <r_i_glide_ligand_efficiency_sa>  (19) 
-0.229282

>  <r_i_glide_ligand_efficiency_ln>  (19) 
-0.502974

>  <r_i_glide_gscore>  (19) 
-2.21369

>  <r_i_glide_lipo>  (19) 
-0.328753

>  <r_i_glide_hbond>  (19) 
0

>  <r_i_glide_metal>  (19) 
-0

>  <r_i_glide_rewards>  (19) 
-0.596464

>  <r_i_glide_evdw>  (19) 
-26.5466

>  <r_i_glide_ecoul>  (19) 
0.372531

>  <r_i_glide_erotb>  (19) 
0

>  <r_i_glide_esite>  (19) 
-0.017024

>  <r_i_glide_emodel>  (19) 
-29.3858

>  <r_i_glide_energy>  (19) 
-26.174

>  <r_i_glide_einternal>  (19) 
0.0105833

>  <r_i_glide_intrahb_reward>  (19) 
-0

>  <i_i_glide_confnum>  (19) 
1

>  <i_i_glide_posenum>  (19) 
18

>  <r_i_glide_eff_state_penalty>  (19) 
0

>  <ligand_id>  (19) 
9

>  <original_smiles>  (19) 
CC1=CC2C3(C)C(=O)C(C)=CC(C1)C3C1C3OC(C)C4OC(C43)C3(C)OC3(C)C12O

>  <smiles>  (19) 
[H]OC12C3([H])C([H])=C(C([H])([H])[H])C([H])([H])C4([H])C([H])=C(C([H])([H])[H])C(=O)C3(C([H])([H])[H])C4([H])C1([H])C1([H])OC([H])(C([H])([H])[H])C3([H])OC([H])(C31[H])C1(C([H])([H])[H])OC12C([H])([H])[H]

$$$$
9:0:1
     RDKit          3D

 62 68  0  0  1  0  0  0  0  0999 V2000
    4.4657   -6.9740    6.0932 C   0  0  0  0  0  0  0  0  0  0  0  0
    3.9988   -6.0996    4.9443 C   0  0  0  0  0  0  0  0  0  0  0  0
    4.4878   -6.2915    3.6988 C   0  0  0  0  0  0  0  0  0  0  0  0
    4.1591   -5.5099    2.4209 C   0  0  1  0  0  0  0  0  0  0  0  0
    2.6515   -5.5555    2.0528 C   0  0  1  0  0  0  0  0  0  0  0  0
    2.4749   -5.3349    0.5231 C   0  0  0  0  0  0  0  0  0  0  0  0
    1.9267   -6.8918    2.3822 C   0  0  0  0  0  0  0  0  0  0  0  0
    2.1937   -7.8838    1.7039 O   0  0  0  0  0  0  0  0  0  0  0  0
    0.9406   -6.9371    3.4898 C   0  0  0  0  0  0  0  0  0  0  0  0
    0.0321   -8.1508    3.5660 C   0  0  0  0  0  0  0  0  0  0  0  0
    0.9073   -5.9415    4.3955 C   0  0  0  0  0  0  0  0  0  0  0  0
    1.8298   -4.7402    4.3663 C   0  0  1  0  0  0  0  0  0  0  0  0
    3.0118   -5.0011    5.3352 C   0  0  0  0  0  0  0  0  0  0  0  0
    2.1421   -4.3646    2.8886 C   0  0  1  0  0  0  0  0  0  0  0  0
    3.1960   -3.2630    2.6311 C   0  0  1  0  0  0  0  0  0  0  0  0
    3.1389   -1.9936    3.5021 C   0  0  2  0  0  0  0  0  0  0  0  0
    1.7792   -1.5658    3.6203 O   0  0  0  0  0  0  0  0  0  0  0  0
    1.4164   -0.6782    2.5644 C   0  0  1  0  0  0  0  0  0  0  0  0
    0.3379    0.2795    3.0902 C   0  0  0  0  0  0  0  0  0  0  0  0
    2.7365   -0.0243    2.1978 C   0  0  2  0  0  0  0  0  0  0  0  0
    3.2241   -0.4299    0.8934 O   0  0  0  0  0  0  0  0  0  0  0  0
    4.4941   -0.7620    1.4931 C   0  0  1  0  0  0  0  0  0  0  0  0
    3.8358   -0.7907    2.8801 C   0  0  2  0  0  0  0  0  0  0  0  0
    5.1947   -1.9411    0.8031 C   0  0  1  0  0  0  0  0  0  0  0  0
    5.5067   -1.5689   -0.6385 C   0  0  0  0  0  0  0  0  0  0  0  0
    6.2979   -2.3381    1.5912 O   0  0  0  0  0  0  0  0  0  0  0  0
    5.3854   -3.4079    1.2887 C   0  0  2  0  0  0  0  0  0  0  0  0
    6.0628   -4.4637    0.4226 C   0  0  0  0  0  0  0  0  0  0  0  0
    4.5701   -3.9750    2.4862 C   0  0  2  0  0  0  0  0  0  0  0  0
    5.3961   -3.7445    3.6169 O   0  0  0  0  0  0  0  0  0  0  0  0
    4.9292   -6.3696    6.8713 H   0  0  0  0  0  0  0  0  0  0  0  0
    5.1986   -7.7057    5.7574 H   0  0  0  0  0  0  0  0  0  0  0  0
    3.6297   -7.5193    6.5329 H   0  0  0  0  0  0  0  0  0  0  0  0
    5.2027   -7.0853    3.5498 H   0  0  0  0  0  0  0  0  0  0  0  0
    4.6934   -6.0726    1.6608 H   0  0  0  0  0  0  0  0  0  0  0  0
    2.9638   -4.4427    0.1394 H   0  0  0  0  0  0  0  0  0  0  0  0
    1.4244   -5.2717    0.2495 H   0  0  0  0  0  0  0  0  0  0  0  0
    2.8984   -6.1618   -0.0440 H   0  0  0  0  0  0  0  0  0  0  0  0
   -0.6240   -8.2065    2.7010 H   0  0  0  0  0  0  0  0  0  0  0  0
   -0.5910   -8.1296    4.4571 H   0  0  0  0  0  0  0  0  0  0  0  0
    0.6192   -9.0680    3.6014 H   0  0  0  0  0  0  0  0  0  0  0  0
    0.1979   -5.9749    5.2098 H   0  0  0  0  0  0  0  0  0  0  0  0
    1.2533   -3.9100    4.7793 H   0  0  0  0  0  0  0  0  0  0  0  0
    2.5765   -5.2723    6.3002 H   0  0  0  0  0  0  0  0  0  0  0  0
    3.5749   -4.0922    5.5311 H   0  0  0  0  0  0  0  0  0  0  0  0
    1.2005   -4.0156    2.4734 H   0  0  0  0  0  0  0  0  0  0  0  0
    2.9204   -2.9159    1.6392 H   0  0  0  0  0  0  0  0  0  0  0  0
    3.5111   -2.1846    4.5056 H   0  0  0  0  0  0  0  0  0  0  0  0
    1.0281   -1.2539    1.7233 H   0  0  0  0  0  0  0  0  0  0  0  0
    0.0058    0.9794    2.3201 H   0  0  0  0  0  0  0  0  0  0  0  0
    0.6954    0.8561    3.9443 H   0  0  0  0  0  0  0  0  0  0  0  0
   -0.5366   -0.2804    3.4236 H   0  0  0  0  0  0  0  0  0  0  0  0
    2.8101    1.0545    2.3487 H   0  0  0  0  0  0  0  0  0  0  0  0
    5.1515    0.1145    1.4847 H   0  0  0  0  0  0  0  0  0  0  0  0
    4.3534   -0.1545    3.6001 H   0  0  0  0  0  0  0  0  0  0  0  0
    4.5804   -1.5066   -1.2137 H   0  0  0  0  0  0  0  0  0  0  0  0
    6.1426   -2.3004   -1.1321 H   0  0  0  0  0  0  0  0  0  0  0  0
    6.0144   -0.6079   -0.6890 H   0  0  0  0  0  0  0  0  0  0  0  0
    5.3359   -4.9430   -0.2366 H   0  0  0  0  0  0  0  0  0  0  0  0
    6.5595   -5.2171    1.0309 H   0  0  0  0  0  0  0  0  0  0  0  0
    6.8486   -4.0392   -0.2001 H   0  0  0  0  0  0  0  0  0  0  0  0
    5.6036   -2.8191    3.6369 H   0  0  0  0  0  0  0  0  0  0  0  0
  1  2  1  0
  1 31  1  0
  1 32  1  0
  1 33  1  0
  2 13  1  0
  2  3  2  0
  3  4  1  0
  3 34  1  0
  4 29  1  0
  4  5  1  0
  4 35  1  6
  5 14  1  0
  5  6  1  6
  5  7  1  0
  6 36  1  0
  6 37  1  0
  6 38  1  0
  7  8  2  0
  7  9  1  0
  9 10  1  0
  9 11  2  0
 10 39  1  0
 10 40  1  0
 10 41  1  0
 11 12  1  0
 11 42  1  0
 12 13  1  0
 12 14  1  0
 12 43  1  1
 13 44  1  0
 13 45  1  0
 14 15  1  0
 14 46  1  6
 15 29  1  0
 15 16  1  0
 15 47  1  6
 16 23  1  0
 16 17  1  0
 16 48  1  1
 17 18  1  0
 18 19  1  0
 18 20  1  0
 18 49  1  6
 19 50  1  0
 19 51  1  0
 19 52  1  0
 20 23  1  0
 20 21  1  0
 20 53  1  6
 21 22  1  0
 22 23  1  0
 22 24  1  0
 22 54  1  1
 23 55  1  1
 24 27  1  0
 24 25  1  6
 24 26  1  0
 25 56  1  0
 25 57  1  0
 25 58  1  0
 26 27  1  0
 27 28  1  6
 27 29  1  0
 28 59  1  0
 28 60  1  0
 28 61  1  0
 29 30  1  1
 30 62  1  0
M  END
>  <i_m_ct_stereo_status>  (20) 
1

>  <s_m_source_file>  (20) 
/var/tmp/pbs.5076255.sched01/tmphbojuwnv/0fr5z8inm.sdf

>  <i_m_source_file_index>  (20) 
12

>  <i_lp_mmshare_version>  (20) 
48012

>  <i_f3d_flags>  (20) 
0

>  <s_epik_input>  (20) 
Tz1DMUMoW0NIM10pPVtDSF1bQ0BASF0oW0NIMl1DKFtDSDNdKT1bQ0hdMilbQ0BIXTNbQ0BIXShbQ0BAXTQoW09IXSlbQ0BASF0yW0NAQF0xM1tDSDNdKVtDQEhdNVtDQEBIXTZbQ0BIXShbQ0BASF0oTzUpW0NIM10pT1tDQEBIXTZbQ0BdNyhbQ0gzXSlbQ0BdNChPNylbQ0gzXQ==

>  <s_epik_cmdline>  (20) 
J2VwaWtfcHl0aG9uJywgJy1waHQnLCAnMi4wJywgJy1waCcsICc3LjAnLCAnLXRuJywgJzgnLCAnLW1hJywgJzIwMCcsICctaW1hZScsICc8aW5maWxlLm1hZT4nLCAnLW9tYWUnLCAnPG91dGZpbGUubWFlPic=

>  <r_lp_tautomer_probability>  (20) 
1

>  <r_epik_Ionization_Penalty>  (20) 
7.42302e-08

>  <r_epik_Ionization_Penalty_Charging>  (20) 
0

>  <r_epik_Ionization_Penalty_Neutral>  (20) 
7.42302e-08

>  <r_epik_State_Penalty>  (20) 
-0

>  <r_epik_Charging_Adjusted_Penalty>  (20) 
0

>  <i_epik_Tot_Q>  (20) 
0

>  <i_epik_Tot_abs_Q>  (20) 
0

>  <s_lp_Force_Field>  (20) 
OPLS3e

>  <r_lp_Energy>  (20) 
54.3908

>  <b_lp_Chiralities_Consistent>  (20) 
1

>  <s_lp_Variant>  (20) 
9:0-1

>  <s_i_glide_gridfile>  (20) 
pfpi4k_grid

>  <i_i_glide_lignum>  (20) 
12

>  <i_i_glide_rotatable_bonds>  (20) 
1

>  <r_i_docking_score>  (20) 
-2.19659

>  <r_i_glide_ligand_efficiency>  (20) 
-0.0732196

>  <r_i_glide_ligand_efficiency_sa>  (20) 
-0.22751

>  <r_i_glide_ligand_efficiency_ln>  (20) 
-0.499088

>  <r_i_glide_gscore>  (20) 
-2.19659

>  <r_i_glide_lipo>  (20) 
-0.327261

>  <r_i_glide_hbond>  (20) 
0

>  <r_i_glide_metal>  (20) 
-0

>  <r_i_glide_rewards>  (20) 
-0.596464

>  <r_i_glide_evdw>  (20) 
-26.6232

>  <r_i_glide_ecoul>  (20) 
0.498199

>  <r_i_glide_erotb>  (20) 
0

>  <r_i_glide_esite>  (20) 
-0.016431

>  <r_i_glide_emodel>  (20) 
-29.2798

>  <r_i_glide_energy>  (20) 
-26.125

>  <r_i_glide_einternal>  (20) 
0.00288001

>  <r_i_glide_intrahb_reward>  (20) 
-0

>  <i_i_glide_confnum>  (20) 
2

>  <i_i_glide_posenum>  (20) 
5

>  <r_i_glide_eff_state_penalty>  (20) 
0

>  <ligand_id>  (20) 
9

>  <original_smiles>  (20) 
CC1=CC2C3(C)C(=O)C(C)=CC(C1)C3C1C3OC(C)C4OC(C43)C3(C)OC3(C)C12O

>  <smiles>  (20) 
[H]OC12C3([H])C([H])=C(C([H])([H])[H])C([H])([H])C4([H])C([H])=C(C([H])([H])[H])C(=O)C3(C([H])([H])[H])C4([H])C1([H])C1([H])OC([H])(C([H])([H])[H])C3([H])OC([H])(C31[H])C1(C([H])([H])[H])OC12C([H])([H])[H]

$$$$
10:0:0
     RDKit          3D

 28 33  0  0  1  0  0  0  0  0999 V2000
    5.0232   -1.1603    2.4219 O   0  0  0  0  0  0  0  0  0  0  0  0
    4.7586   -1.9131    1.2469 C   0  0  2  0  0  0  0  0  0  0  0  0
    5.7212   -3.0718    1.0557 C   0  0  2  0  0  0  0  0  0  0  0  0
    6.8988   -2.3009    0.7589 O   0  0  0  0  0  0  0  0  0  0  0  0
    6.2296   -2.0668   -0.4929 C   0  0  1  0  0  0  0  0  0  0  0  0
    5.7932   -3.5284   -0.4236 C   0  0  2  0  0  0  0  0  0  0  0  0
    4.5887   -3.8870   -1.3306 C   0  0  2  0  0  0  0  0  0  0  0  0
    5.0691   -3.7669   -2.8191 C   0  0  0  0  0  0  0  0  0  0  0  0
    4.3337   -2.5716   -3.3887 C   0  0  1  0  0  0  0  0  0  0  0  0
    3.1100   -2.5074   -2.6194 C   0  0  1  0  0  0  0  0  0  0  0  0
    3.3990   -2.8720   -1.2043 C   0  0  2  0  0  0  0  0  0  0  0  0
    3.8600   -1.4226   -1.0086 C   0  0  1  0  0  0  0  0  0  0  0  0
    5.0518   -1.1988   -0.0805 C   0  0  1  0  0  0  0  0  0  0  0  0
    4.0176   -1.3300   -2.5291 C   0  0  1  0  0  0  0  0  0  0  0  0
    4.3860   -0.4650    2.4751 H   0  0  0  0  0  0  0  0  0  0  0  0
    3.7189   -2.2667    1.3224 H   0  0  0  0  0  0  0  0  0  0  0  0
    5.8146   -3.8399    1.8268 H   0  0  0  0  0  0  0  0  0  0  0  0
    6.8510   -1.7898   -1.3567 H   0  0  0  0  0  0  0  0  0  0  0  0
    6.6308   -4.2036   -0.5868 H   0  0  0  0  0  0  0  0  0  0  0  0
    4.2438   -4.9023   -1.1185 H   0  0  0  0  0  0  0  0  0  0  0  0
    6.1451   -3.6245   -2.9378 H   0  0  0  0  0  0  0  0  0  0  0  0
    4.7940   -4.6442   -3.3940 H   0  0  0  0  0  0  0  0  0  0  0  0
    4.2490   -2.5157   -4.4731 H   0  0  0  0  0  0  0  0  0  0  0  0
    2.0916   -2.3675   -3.0009 H   0  0  0  0  0  0  0  0  0  0  0  0
    2.5490   -3.1539   -0.5994 H   0  0  0  0  0  0  0  0  0  0  0  0
    3.0102   -0.8286   -0.6863 H   0  0  0  0  0  0  0  0  0  0  0  0
    5.3053   -0.1504    0.0597 H   0  0  0  0  0  0  0  0  0  0  0  0
    3.7017   -0.4039   -3.0192 H   0  0  0  0  0  0  0  0  0  0  0  0
  1  2  1  0
  1 15  1  0
  2 13  1  0
  2  3  1  0
  2 16  1  6
  3  6  1  0
  3  4  1  0
  3 17  1  1
  4  5  1  0
  5 13  1  0
  5  6  1  0
  5 18  1  6
  6  7  1  0
  6 19  1  1
  7 11  1  0
  7  8  1  0
  7 20  1  1
  8  9  1  0
  8 21  1  0
  8 22  1  0
  9 14  1  0
  9 10  1  0
  9 23  1  6
 10 14  1  0
 10 11  1  0
 10 24  1  6
 11 12  1  0
 11 25  1  1
 12 13  1  0
 12 14  1  0
 12 26  1  1
 13 27  1  1
 14 28  1  6
M  END
>  <i_m_ct_stereo_status>  (21) 
1

>  <s_m_source_file>  (21) 
/var/tmp/pbs.5076255.sched01/tmphbojuwnv/0fr5z8inm.sdf

>  <i_m_source_file_index>  (21) 
13

>  <i_lp_mmshare_version>  (21) 
48012

>  <i_f3d_flags>  (21) 
0

>  <s_epik_input>  (21) 
W0NAQEhdMTJbQ0BASF0zW0NASF0oTzIpW0NASF0oW0NAQEhdMVtPSF0pW0NAQEhdNFtDQEBIXTVbQ0BIXTNbQ0gyXVtDQEhdNltDQEBIXTVbQ0BASF00Ng==

>  <s_epik_cmdline>  (21) 
J2VwaWtfcHl0aG9uJywgJy1waHQnLCAnMi4wJywgJy1waCcsICc3LjAnLCAnLXRuJywgJzgnLCAnLW1hJywgJzIwMCcsICctaW1hZScsICc8aW5maWxlLm1hZT4nLCAnLW9tYWUnLCAnPG91dGZpbGUubWFlPic=

>  <r_lp_tautomer_probability>  (21) 
1

>  <r_epik_Ionization_Penalty>  (21) 
8.31248e-08

>  <r_epik_Ionization_Penalty_Charging>  (21) 
0

>  <r_epik_Ionization_Penalty_Neutral>  (21) 
8.31248e-08

>  <r_epik_State_Penalty>  (21) 
-0

>  <r_epik_Charging_Adjusted_Penalty>  (21) 
0

>  <i_epik_Tot_Q>  (21) 
0

>  <i_epik_Tot_abs_Q>  (21) 
0

>  <s_lp_Force_Field>  (21) 
OPLS3e

>  <r_lp_Energy>  (21) 
63.3548

>  <b_lp_Chiralities_Consistent>  (21) 
1

>  <s_lp_Variant>  (21) 
10:0-1

>  <s_i_glide_gridfile>  (21) 
pfpi4k_grid

>  <i_i_glide_lignum>  (21) 
13

>  <i_i_glide_rotatable_bonds>  (21) 
1

>  <r_i_docking_score>  (21) 
-3.5987

>  <r_i_glide_ligand_efficiency>  (21) 
-0.25705

>  <r_i_glide_ligand_efficiency_sa>  (21) 
-0.619527

>  <r_i_glide_ligand_efficiency_ln>  (21) 
-0.98891

>  <r_i_glide_gscore>  (21) 
-3.5987

>  <r_i_glide_lipo>  (21) 
-0.375986

>  <r_i_glide_hbond>  (21) 
0

>  <r_i_glide_metal>  (21) 
-0

>  <r_i_glide_rewards>  (21) 
-2.11201

>  <r_i_glide_evdw>  (21) 
-20.744

>  <r_i_glide_ecoul>  (21) 
-0.490003

>  <r_i_glide_erotb>  (21) 
0

>  <r_i_glide_esite>  (21) 
0

>  <r_i_glide_emodel>  (21) 
-25.6831

>  <r_i_glide_energy>  (21) 
-21.234

>  <r_i_glide_einternal>  (21) 
0.305102

>  <r_i_glide_intrahb_reward>  (21) 
-0

>  <i_i_glide_confnum>  (21) 
1

>  <i_i_glide_posenum>  (21) 
40

>  <r_i_glide_eff_state_penalty>  (21) 
0

>  <ligand_id>  (21) 
10

>  <original_smiles>  (21) 
OC1C2OC3C2C2CC4C5C2C(C13)C45

>  <smiles>  (21) 
[H]OC1([H])C2([H])OC3([H])C2([H])C2([H])C([H])([H])C4([H])C5([H])C([H])(C13[H])C2([H])C45[H]

$$$$
10:0:1
     RDKit          3D

 28 33  0  0  1  0  0  0  0  0999 V2000
    5.3180   -1.2204    2.4379 O   0  0  0  0  0  0  0  0  0  0  0  0
    4.9344   -1.9361    1.2718 C   0  0  2  0  0  0  0  0  0  0  0  0
    5.8070   -3.1643    1.0610 C   0  0  2  0  0  0  0  0  0  0  0  0
    7.0320   -2.4743    0.7674 O   0  0  0  0  0  0  0  0  0  0  0  0
    6.3781   -2.1859   -0.4835 C   0  0  1  0  0  0  0  0  0  0  0  0
    5.8367   -3.6172   -0.4235 C   0  0  2  0  0  0  0  0  0  0  0  0
    4.5965   -3.8781   -1.3182 C   0  0  2  0  0  0  0  0  0  0  0  0
    5.0671   -3.7856   -2.8096 C   0  0  0  0  0  0  0  0  0  0  0  0
    4.4176   -2.5323   -3.3612 C   0  0  1  0  0  0  0  0  0  0  0  0
    3.2118   -2.3818   -2.5787 C   0  0  1  0  0  0  0  0  0  0  0  0
    3.4893   -2.7793   -1.1701 C   0  0  2  0  0  0  0  0  0  0  0  0
    4.0587   -1.3650   -0.9702 C   0  0  1  0  0  0  0  0  0  0  0  0
    5.2725   -1.2410   -0.0563 C   0  0  1  0  0  0  0  0  0  0  0  0
    4.2043   -1.2795   -2.4912 C   0  0  1  0  0  0  0  0  0  0  0  0
    6.2452   -1.0441    2.3608 H   0  0  0  0  0  0  0  0  0  0  0  0
    3.8700   -2.2073    1.3666 H   0  0  0  0  0  0  0  0  0  0  0  0
    5.8515   -3.9457    1.8213 H   0  0  0  0  0  0  0  0  0  0  0  0
    7.0221   -1.9392   -1.3419 H   0  0  0  0  0  0  0  0  0  0  0  0
    6.6244   -4.3486   -0.5956 H   0  0  0  0  0  0  0  0  0  0  0  0
    4.1897   -4.8753   -1.1170 H   0  0  0  0  0  0  0  0  0  0  0  0
    6.1487   -3.7292   -2.9424 H   0  0  0  0  0  0  0  0  0  0  0  0
    4.7170   -4.6347   -3.3895 H   0  0  0  0  0  0  0  0  0  0  0  0
    4.3229   -2.4659   -4.4452 H   0  0  0  0  0  0  0  0  0  0  0  0
    2.2037   -2.1632   -2.9470 H   0  0  0  0  0  0  0  0  0  0  0  0
    2.6263   -2.9983   -0.5558 H   0  0  0  0  0  0  0  0  0  0  0  0
    3.2409   -0.7124   -0.6352 H   0  0  0  0  0  0  0  0  0  0  0  0
    5.6078   -0.2142    0.0774 H   0  0  0  0  0  0  0  0  0  0  0  0
    3.9581   -0.3252   -2.9723 H   0  0  0  0  0  0  0  0  0  0  0  0
  1  2  1  0
  1 15  1  0
  2 13  1  0
  2  3  1  0
  2 16  1  1
  3  6  1  0
  3  4  1  0
  3 17  1  1
  4  5  1  0
  5 13  1  0
  5  6  1  0
  5 18  1  6
  6  7  1  0
  6 19  1  1
  7 11  1  0
  7  8  1  0
  7 20  1  1
  8  9  1  0
  8 21  1  0
  8 22  1  0
  9 14  1  0
  9 10  1  0
  9 23  1  6
 10 14  1  0
 10 11  1  0
 10 24  1  6
 11 12  1  0
 11 25  1  1
 12 13  1  0
 12 14  1  0
 12 26  1  1
 13 27  1  1
 14 28  1  6
M  END
>  <i_m_ct_stereo_status>  (22) 
1

>  <s_m_source_file>  (22) 
/var/tmp/pbs.5076255.sched01/tmphbojuwnv/0fr5z8inm.sdf

>  <i_m_source_file_index>  (22) 
13

>  <i_lp_mmshare_version>  (22) 
48012

>  <i_f3d_flags>  (22) 
0

>  <s_epik_input>  (22) 
W0NAQEhdMTJbQ0BASF0zW0NASF0oTzIpW0NASF0oW0NAQEhdMVtPSF0pW0NAQEhdNFtDQEBIXTVbQ0BIXTNbQ0gyXVtDQEhdNltDQEBIXTVbQ0BASF00Ng==

>  <s_epik_cmdline>  (22) 
J2VwaWtfcHl0aG9uJywgJy1waHQnLCAnMi4wJywgJy1waCcsICc3LjAnLCAnLXRuJywgJzgnLCAnLW1hJywgJzIwMCcsICctaW1hZScsICc8aW5maWxlLm1hZT4nLCAnLW9tYWUnLCAnPG91dGZpbGUubWFlPic=

>  <r_lp_tautomer_probability>  (22) 
1

>  <r_epik_Ionization_Penalty>  (22) 
8.31248e-08

>  <r_epik_Ionization_Penalty_Charging>  (22) 
0

>  <r_epik_Ionization_Penalty_Neutral>  (22) 
8.31248e-08

>  <r_epik_State_Penalty>  (22) 
-0

>  <r_epik_Charging_Adjusted_Penalty>  (22) 
0

>  <i_epik_Tot_Q>  (22) 
0

>  <i_epik_Tot_abs_Q>  (22) 
0

>  <s_lp_Force_Field>  (22) 
OPLS3e

>  <r_lp_Energy>  (22) 
63.3548

>  <b_lp_Chiralities_Consistent>  (22) 
1

>  <s_lp_Variant>  (22) 
10:0-1

>  <s_i_glide_gridfile>  (22) 
pfpi4k_grid

>  <i_i_glide_lignum>  (22) 
13

>  <i_i_glide_rotatable_bonds>  (22) 
1

>  <r_i_docking_score>  (22) 
-3.57202

>  <r_i_glide_ligand_efficiency>  (22) 
-0.255144

>  <r_i_glide_ligand_efficiency_sa>  (22) 
-0.614933

>  <r_i_glide_ligand_efficiency_ln>  (22) 
-0.981577

>  <r_i_glide_gscore>  (22) 
-3.57202

>  <r_i_glide_lipo>  (22) 
-0.366466

>  <r_i_glide_hbond>  (22) 
0

>  <r_i_glide_metal>  (22) 
-0

>  <r_i_glide_rewards>  (22) 
-2.11201

>  <r_i_glide_evdw>  (22) 
-20.7545

>  <r_i_glide_ecoul>  (22) 
-0.372074

>  <r_i_glide_erotb>  (22) 
0

>  <r_i_glide_esite>  (22) 
0

>  <r_i_glide_emodel>  (22) 
-25.7149

>  <r_i_glide_energy>  (22) 
-21.1266

>  <r_i_glide_einternal>  (22) 
0.00148073

>  <r_i_glide_intrahb_reward>  (22) 
-0

>  <i_i_glide_confnum>  (22) 
1

>  <i_i_glide_posenum>  (22) 
3

>  <r_i_glide_eff_state_penalty>  (22) 
0

>  <ligand_id>  (22) 
10

>  <original_smiles>  (22) 
OC1C2OC3C2C2CC4C5C2C(C13)C45

>  <smiles>  (22) 
[H]OC1([H])C2([H])OC3([H])C2([H])C2([H])C([H])([H])C4([H])C5([H])C([H])(C13[H])C2([H])C45[H]

$$$$
10:0:2
     RDKit          3D

 28 33  0  0  1  0  0  0  0  0999 V2000
    5.0738   -1.1890    2.4385 O   0  0  0  0  0  0  0  0  0  0  0  0
    4.7926   -1.9252    1.2569 C   0  0  2  0  0  0  0  0  0  0  0  0
    5.7560   -3.0823    1.0447 C   0  0  2  0  0  0  0  0  0  0  0  0
    6.9351   -2.3086    0.7399 O   0  0  0  0  0  0  0  0  0  0  0  0
    6.2414   -2.0691   -0.4941 C   0  0  1  0  0  0  0  0  0  0  0  0
    5.8139   -3.5333   -0.4385 C   0  0  2  0  0  0  0  0  0  0  0  0
    4.6121   -3.8943   -1.3294 C   0  0  2  0  0  0  0  0  0  0  0  0
    5.0769   -3.7635   -2.8237 C   0  0  0  0  0  0  0  0  0  0  0  0
    4.3267   -2.5600   -3.3708 C   0  0  1  0  0  0  0  0  0  0  0  0
    3.1237   -2.5307   -2.5885 C   0  0  1  0  0  0  0  0  0  0  0  0
    3.4073   -2.8942   -1.1810 C   0  0  2  0  0  0  0  0  0  0  0  0
    3.8763   -1.4404   -0.9801 C   0  0  1  0  0  0  0  0  0  0  0  0
    5.0664   -1.2043   -0.0664 C   0  0  1  0  0  0  0  0  0  0  0  0
    4.0020   -1.3500   -2.5050 C   0  0  1  0  0  0  0  0  0  0  0  0
    4.9311   -1.7642    3.1669 H   0  0  0  0  0  0  0  0  0  0  0  0
    3.7621   -2.2905    1.3447 H   0  0  0  0  0  0  0  0  0  0  0  0
    5.8730   -3.8617    1.7987 H   0  0  0  0  0  0  0  0  0  0  0  0
    6.8481   -1.7898   -1.3639 H   0  0  0  0  0  0  0  0  0  0  0  0
    6.6657   -4.1884   -0.6102 H   0  0  0  0  0  0  0  0  0  0  0  0
    4.2748   -4.9210   -1.1218 H   0  0  0  0  0  0  0  0  0  0  0  0
    6.1490   -3.6095   -2.9576 H   0  0  0  0  0  0  0  0  0  0  0  0
    4.7933   -4.6359   -3.4021 H   0  0  0  0  0  0  0  0  0  0  0  0
    4.2234   -2.5025   -4.4595 H   0  0  0  0  0  0  0  0  0  0  0  0
    2.0910   -2.3955   -2.9552 H   0  0  0  0  0  0  0  0  0  0  0  0
    2.5635   -3.1696   -0.5759 H   0  0  0  0  0  0  0  0  0  0  0  0
    3.0183   -0.8593   -0.6478 H   0  0  0  0  0  0  0  0  0  0  0  0
    5.3137   -0.1512    0.0743 H   0  0  0  0  0  0  0  0  0  0  0  0
    3.6610   -0.4167   -2.9752 H   0  0  0  0  0  0  0  0  0  0  0  0
  1  2  1  0
  1 15  1  0
  2 13  1  0
  2  3  1  0
  2 16  1  1
  3  6  1  0
  3  4  1  0
  3 17  1  1
  4  5  1  0
  5 13  1  0
  5  6  1  0
  5 18  1  6
  6  7  1  0
  6 19  1  1
  7 11  1  0
  7  8  1  0
  7 20  1  1
  8  9  1  0
  8 21  1  0
  8 22  1  0
  9 14  1  0
  9 10  1  0
  9 23  1  6
 10 14  1  0
 10 11  1  0
 10 24  1  6
 11 12  1  0
 11 25  1  1
 12 13  1  0
 12 14  1  0
 12 26  1  1
 13 27  1  1
 14 28  1  6
M  END
>  <i_m_ct_stereo_status>  (23) 
1

>  <s_m_source_file>  (23) 
/var/tmp/pbs.5076255.sched01/tmphbojuwnv/0fr5z8inm.sdf

>  <i_m_source_file_index>  (23) 
13

>  <i_lp_mmshare_version>  (23) 
48012

>  <i_f3d_flags>  (23) 
0

>  <s_epik_input>  (23) 
W0NAQEhdMTJbQ0BASF0zW0NASF0oTzIpW0NASF0oW0NAQEhdMVtPSF0pW0NAQEhdNFtDQEBIXTVbQ0BIXTNbQ0gyXVtDQEhdNltDQEBIXTVbQ0BASF00Ng==

>  <s_epik_cmdline>  (23) 
J2VwaWtfcHl0aG9uJywgJy1waHQnLCAnMi4wJywgJy1waCcsICc3LjAnLCAnLXRuJywgJzgnLCAnLW1hJywgJzIwMCcsICctaW1hZScsICc8aW5maWxlLm1hZT4nLCAnLW9tYWUnLCAnPG91dGZpbGUubWFlPic=

>  <r_lp_tautomer_probability>  (23) 
1

>  <r_epik_Ionization_Penalty>  (23) 
8.31248e-08

>  <r_epik_Ionization_Penalty_Charging>  (23) 
0

>  <r_epik_Ionization_Penalty_Neutral>  (23) 
8.31248e-08

>  <r_epik_State_Penalty>  (23) 
-0

>  <r_epik_Charging_Adjusted_Penalty>  (23) 
0

>  <i_epik_Tot_Q>  (23) 
0

>  <i_epik_Tot_abs_Q>  (23) 
0

>  <s_lp_Force_Field>  (23) 
OPLS3e

>  <r_lp_Energy>  (23) 
63.3548

>  <b_lp_Chiralities_Consistent>  (23) 
1

>  <s_lp_Variant>  (23) 
10:0-1

>  <s_i_glide_gridfile>  (23) 
pfpi4k_grid

>  <i_i_glide_lignum>  (23) 
13

>  <i_i_glide_rotatable_bonds>  (23) 
1

>  <r_i_docking_score>  (23) 
-3.56238

>  <r_i_glide_ligand_efficiency>  (23) 
-0.254456

>  <r_i_glide_ligand_efficiency_sa>  (23) 
-0.613275

>  <r_i_glide_ligand_efficiency_ln>  (23) 
-0.97893

>  <r_i_glide_gscore>  (23) 
-3.56238

>  <r_i_glide_lipo>  (23) 
-0.383035

>  <r_i_glide_hbond>  (23) 
0

>  <r_i_glide_metal>  (23) 
-0

>  <r_i_glide_rewards>  (23) 
-2.11201

>  <r_i_glide_evdw>  (23) 
-20.8678

>  <r_i_glide_ecoul>  (23) 
-0.15964

>  <r_i_glide_erotb>  (23) 
0

>  <r_i_glide_esite>  (23) 
0

>  <r_i_glide_emodel>  (23) 
-25.4333

>  <r_i_glide_energy>  (23) 
-21.0275

>  <r_i_glide_einternal>  (23) 
0.306902

>  <r_i_glide_intrahb_reward>  (23) 
-0

>  <i_i_glide_confnum>  (23) 
2

>  <i_i_glide_posenum>  (23) 
35

>  <r_i_glide_eff_state_penalty>  (23) 
0

>  <ligand_id>  (23) 
10

>  <original_smiles>  (23) 
OC1C2OC3C2C2CC4C5C2C(C13)C45

>  <smiles>  (23) 
[H]OC1([H])C2([H])OC3([H])C2([H])C2([H])C([H])([H])C4([H])C5([H])C([H])(C13[H])C2([H])C45[H]

$$$$
11:1:0
     RDKit          3D

 99106  0  0  1  0  0  0  0  0999 V2000
    3.2090   -1.5921   11.3051 C   0  0  0  0  0  0  0  0  0  0  0  0
    2.7492   -0.9830    9.9859 C   0  0  0  0  0  0  0  0  0  0  0  0
    1.8799   -0.0227    9.7592 C   0  0  0  0  0  0  0  0  0  0  0  0
    1.4702    1.1658   10.4832 C   0  0  1  0  0  0  0  0  0  0  0  0
    0.8881    0.8834   11.9331 C   0  0  0  0  0  0  0  0  0  0  0  0
    0.0251   -0.4043   11.9737 C   0  0  0  0  0  0  0  0  0  0  0  0
   -0.0724    1.9777   12.4857 C   0  0  0  0  0  0  0  0  0  0  0  0
    2.6909    2.1239   10.0811 C   0  0  1  0  0  0  0  0  0  0  0  0
    2.3482    3.2856   11.1052 C   0  0  0  0  0  0  0  0  0  0  0  0
    4.0504    1.6202   10.6780 C   0  0  0  0  0  0  0  0  0  0  0  0
    5.0776    0.8467    9.8260 C   0  0  1  0  0  0  0  0  0  0  0  0
    5.9057    0.1165   10.7039 O   0  0  0  0  0  0  0  0  0  0  0  0
    4.6552   -0.0188    8.5959 C   0  0  1  0  0  0  0  0  0  0  0  0
    3.5780   -1.1991    8.7543 C   0  0  2  0  0  0  0  0  0  0  0  0
    2.6648   -1.4576    7.4774 C   0  0  0  0  0  0  0  0  0  0  0  0
    2.6796   -0.3390    6.3653 C   0  0  1  0  0  0  0  0  0  0  0  0
    1.4247    0.8246    6.5166 C   0  0  2  0  0  0  0  0  0  0  0  0
    0.1298    0.1168    7.1155 C   0  0  0  0  0  0  0  0  0  0  0  0
    0.6596    0.9491    5.0729 C   0  0  0  0  0  0  0  0  0  0  0  0
    1.2197    1.7192    3.8663 C   0  0  2  0  0  0  0  0  0  0  0  0
    1.2080    1.1872    2.4179 C   0  0  1  0  0  0  0  0  0  0  0  0
    0.1580    1.7428    1.5266 N   0  0  0  0  0  0  0  0  0  0  0  0
    2.5636    1.8895    2.2665 C   0  0  0  0  0  0  0  0  0  0  0  0
    2.7109    1.6665    3.7761 C   0  0  1  0  0  0  0  0  0  0  0  0
    3.5393    2.5854    4.5384 O   0  0  0  0  0  0  0  0  0  0  0  0
    3.2833    2.9642    5.9020 C   0  0  1  0  0  0  0  0  0  0  0  0
    1.8408    3.2704    6.2393 C   0  0  1  0  0  0  0  0  0  0  0  0
    1.5979    2.2971    7.3704 C   0  0  2  0  0  0  0  0  0  0  0  0
    2.8271    2.5661    8.4270 C   0  0  1  0  0  0  0  0  0  0  0  0
    3.2057    4.0640    8.7763 C   0  0  0  0  0  0  0  0  0  0  0  0
    3.9482    2.2896    7.2812 C   0  0  1  0  0  0  0  0  0  0  0  0
    4.6556    0.8333    7.2562 C   0  0  1  0  0  0  0  0  0  0  0  0
    6.0331    1.1236    7.0262 O   0  0  0  0  0  0  0  0  0  0  0  0
    4.2905   -0.1465    6.1188 C   0  0  0  0  0  0  0  0  0  0  0  0
    5.0853   -1.5426    6.1802 C   0  0  0  0  0  0  0  0  0  0  0  0
    5.0213    0.1933    4.7454 C   0  0  0  0  0  0  0  0  0  0  0  0
    2.1833    4.6820    6.3961 N   0  0  2  0  0  0  0  0  0  0  0  0
    1.1381    5.6866    6.0178 C   0  0  0  0  0  0  0  0  0  0  0  0
    3.3774    4.4743    5.5654 C   0  0  1  0  0  0  0  0  0  0  0  0
    4.6533    5.2911    5.8379 C   0  0  0  0  0  0  0  0  0  0  0  0
    2.9086    4.9128    4.3081 O   0  0  0  0  0  0  0  0  0  0  0  0
    4.2784   -1.7706   11.3151 H   0  0  0  0  0  0  0  0  0  0  0  0
    2.7336   -2.5626   11.4502 H   0  0  0  0  0  0  0  0  0  0  0  0
    2.9612   -0.9723   12.1605 H   0  0  0  0  0  0  0  0  0  0  0  0
    1.8821    0.2980    8.7658 H   0  0  0  0  0  0  0  0  0  0  0  0
    0.5994    1.5348    9.9447 H   0  0  0  0  0  0  0  0  0  0  0  0
    1.6963    0.7530   12.6510 H   0  0  0  0  0  0  0  0  0  0  0  0
   -0.8427   -0.3249   11.3158 H   0  0  0  0  0  0  0  0  0  0  0  0
   -0.3771   -0.5732   12.9767 H   0  0  0  0  0  0  0  0  0  0  0  0
    0.5600   -1.3161   11.7138 H   0  0  0  0  0  0  0  0  0  0  0  0
   -0.8481    2.2304   11.7594 H   0  0  0  0  0  0  0  0  0  0  0  0
    0.3962    2.9026   12.8086 H   0  0  0  0  0  0  0  0  0  0  0  0
   -0.5895    1.6334   13.3814 H   0  0  0  0  0  0  0  0  0  0  0  0
    3.0424    4.1199   11.2219 H   0  0  0  0  0  0  0  0  0  0  0  0
    2.4047    2.9068   12.1237 H   0  0  0  0  0  0  0  0  0  0  0  0
    1.3597    3.7177   10.9237 H   0  0  0  0  0  0  0  0  0  0  0  0
    4.6124    2.4774   11.0484 H   0  0  0  0  0  0  0  0  0  0  0  0
    3.8379    1.0752   11.5986 H   0  0  0  0  0  0  0  0  0  0  0  0
    5.7731    1.6038    9.4687 H   0  0  0  0  0  0  0  0  0  0  0  0
    5.3950   -0.5893   11.0825 H   0  0  0  0  0  0  0  0  0  0  0  0
    5.5623   -0.6175    8.4863 H   0  0  0  0  0  0  0  0  0  0  0  0
    4.1049   -2.1291    8.9628 H   0  0  0  0  0  0  0  0  0  0  0  0
    2.9280   -2.4188    7.0313 H   0  0  0  0  0  0  0  0  0  0  0  0
    1.6638   -1.7318    7.7875 H   0  0  0  0  0  0  0  0  0  0  0  0
    2.3670   -0.9095    5.4922 H   0  0  0  0  0  0  0  0  0  0  0  0
   -0.7267    0.7953    7.1254 H   0  0  0  0  0  0  0  0  0  0  0  0
    0.1209   -0.2533    8.1308 H   0  0  0  0  0  0  0  0  0  0  0  0
   -0.1611   -0.7672    6.5386 H   0  0  0  0  0  0  0  0  0  0  0  0
    0.4984   -0.0555    4.6859 H   0  0  0  0  0  0  0  0  0  0  0  0
   -0.3515    1.3431    5.1865 H   0  0  0  0  0  0  0  0  0  0  0  0
    0.8566    2.7392    3.7400 H   0  0  0  0  0  0  0  0  0  0  0  0
    1.3026    0.1038    2.3854 H   0  0  0  0  0  0  0  0  0  0  0  0
    0.1672    2.7637    1.4722 H   0  0  0  0  0  0  0  0  0  0  0  0
   -0.7425    1.4011    1.8081 H   0  0  0  0  0  0  0  0  0  0  0  0
    3.3001    1.3432    1.6727 H   0  0  0  0  0  0  0  0  0  0  0  0
    2.5239    2.9608    2.0450 H   0  0  0  0  0  0  0  0  0  0  0  0
    2.8822    0.6198    3.9485 H   0  0  0  0  0  0  0  0  0  0  0  0
    1.0268    3.3549    5.5560 H   0  0  0  0  0  0  0  0  0  0  0  0
    0.6630    2.5437    7.8851 H   0  0  0  0  0  0  0  0  0  0  0  0
    3.7381    4.6734    8.0793 H   0  0  0  0  0  0  0  0  0  0  0  0
    4.0258    4.1035    9.4957 H   0  0  0  0  0  0  0  0  0  0  0  0
    2.3604    4.6737    9.0998 H   0  0  0  0  0  0  0  0  0  0  0  0
    4.7987    2.9118    7.5568 H   0  0  0  0  0  0  0  0  0  0  0  0
    6.3658    1.6445    7.7423 H   0  0  0  0  0  0  0  0  0  0  0  0
    6.1696   -1.4348    6.1824 H   0  0  0  0  0  0  0  0  0  0  0  0
    4.8289   -2.1796    5.3320 H   0  0  0  0  0  0  0  0  0  0  0  0
    4.9914   -2.1958    7.0359 H   0  0  0  0  0  0  0  0  0  0  0  0
    6.0682   -0.1067    4.6950 H   0  0  0  0  0  0  0  0  0  0  0  0
    5.2083    1.2346    4.5398 H   0  0  0  0  0  0  0  0  0  0  0  0
    4.6212   -0.3245    3.8744 H   0  0  0  0  0  0  0  0  0  0  0  0
    0.6612    5.5277    5.0469 H   0  0  0  0  0  0  0  0  0  0  0  0
    1.5367    6.7066    5.9974 H   0  0  0  0  0  0  0  0  0  0  0  0
    0.3261    5.6908    6.7443 H   0  0  0  0  0  0  0  0  0  0  0  0
    5.2248    4.9490    6.6945 H   0  0  0  0  0  0  0  0  0  0  0  0
    4.4733    6.3598    5.9453 H   0  0  0  0  0  0  0  0  0  0  0  0
    5.3484    5.1702    5.0114 H   0  0  0  0  0  0  0  0  0  0  0  0
    3.3896    4.3926    3.6873 H   0  0  0  0  0  0  0  0  0  0  0  0
    0.3029    1.3874    0.5956 H   0  0  0  0  0  0  0  0  0  0  0  0
    2.4806    4.8454    7.3367 H   0  0  0  0  0  0  0  0  0  0  0  0
  1  2  1  0
  1 42  1  0
  1 43  1  0
  1 44  1  0
  2 14  1  0
  2  3  2  3
  3  4  1  0
  3 45  1  0
  4  5  1  0
  4  8  1  0
  4 46  1  6
  5  6  1  0
  5  7  1  0
  5 47  1  0
  6 48  1  0
  6 49  1  0
  6 50  1  0
  7 51  1  0
  7 52  1  0
  7 53  1  0
  8 29  1  0
  8  9  1  1
  8 10  1  0
  9 54  1  0
  9 55  1  0
  9 56  1  0
 10 11  1  0
 10 57  1  0
 10 58  1  0
 11 12  1  0
 11 13  1  0
 11 59  1  6
 12 60  1  0
 13 32  1  0
 13 14  1  0
 13 61  1  6
 14 15  1  0
 14 62  1  1
 15 16  1  0
 15 63  1  0
 15 64  1  0
 16 34  1  0
 16 17  1  0
 16 65  1  6
 17 28  1  0
 17 18  1  1
 17 19  1  0
 18 66  1  0
 18 67  1  0
 18 68  1  0
 19 20  1  0
 19 69  1  0
 19 70  1  0
 20 24  1  0
 20 21  1  0
 20 71  1  6
 21 22  1  0
 21 23  1  0
 21 72  1  1
 22 73  1  0
 22 74  1  0
 22 98  1  0
 23 24  1  0
 23 75  1  0
 23 76  1  0
 24 25  1  0
 24 77  1  6
 26 25  1  6
 26 31  1  0
 26 39  1  0
 26 27  1  0
 27 28  1  0
 27 37  1  0
 27 78  1  6
 28 29  1  0
 28 79  1  1
 29 30  1  1
 29 31  1  0
 30 80  1  0
 30 81  1  0
 30 82  1  0
 31 32  1  0
 31 83  1  1
 32 33  1  6
 32 34  1  0
 33 84  1  0
 34 35  1  0
 34 36  1  0
 35 85  1  0
 35 86  1  0
 35 87  1  0
 36 88  1  0
 36 89  1  0
 36 90  1  0
 37 38  1  0
 37 39  1  0
 37 99  1  1
 38 91  1  0
 38 92  1  0
 38 93  1  0
 39 40  1  0
 39 41  1  6
 40 94  1  0
 40 95  1  0
 40 96  1  0
 41 97  1  0
M  CHG  2  22   1  37   1
M  END
>  <i_m_ct_stereo_status>  (24) 
1

>  <s_m_source_file>  (24) 
/var/tmp/pbs.5076255.sched01/tmphbojuwnv/0fr5z8inm.sdf

>  <i_m_source_file_index>  (24) 
15

>  <i_lp_mmshare_version>  (24) 
48012

>  <i_f3d_flags>  (24) 
2

>  <s_epik_input>  (24) 
W0NIM10vQzE9W0NIXS9bQ0BASF0oW0NIXShbQ0gzXSlbQ0gzXSlbQ0BAXShbQ0gzXSkoW0NIMl1bQ0BIXTJbT0hdKVtDQEBdMyhbQ0gzXSlbQ0BIXTRbQ0BdKFtPSF0pKEM1KFtDSDNdKVtDSDNdKVtDQEBIXTJbQ0BIXTFbQ0gyXVtDQEhdNVtDQEBdKFtDSDNdKShbQ0BASF0zW0NAQEhdKFtDQF00NjcpTihbQ0gzXSlbQ0BdNyhbQ0gzXSlbT0hdKVtDSDJdW0NAQEhdOFtDQEhdKE82KVtDSDJdW0NAQEhdOFtOSDJd

>  <s_epik_cmdline>  (24) 
J2VwaWtfcHl0aG9uJywgJy1waHQnLCAnMi4wJywgJy1waCcsICc3LjAnLCAnLXRuJywgJzgnLCAnLW1hJywgJzIwMCcsICctaW1hZScsICc8aW5maWxlLm1hZT4nLCAnLW9tYWUnLCAnPG91dGZpbGUubWFlPic=

>  <r_epik_Ionization_Penalty>  (24) 
0.108526

>  <r_epik_Ionization_Penalty_Charging>  (24) 
0.0702489

>  <r_epik_Ionization_Penalty_Neutral>  (24) 
0.0382773

>  <r_epik_State_Penalty>  (24) 
0.0895909

>  <r_epik_Charging_Adjusted_Penalty>  (24) 
0.15984

>  <i_epik_Tot_Q>  (24) 
2

>  <i_epik_Tot_abs_Q>  (24) 
2

>  <s_lp_Force_Field>  (24) 
OPLS3e

>  <r_lp_Energy>  (24) 
425.558

>  <b_lp_Chiralities_Consistent>  (24) 
0

>  <s_lp_Variant>  (24) 
11:0-2

>  <s_i_glide_gridfile>  (24) 
pfpi4k_grid

>  <i_i_glide_lignum>  (24) 
15

>  <i_i_glide_rotatable_bonds>  (24) 
4

>  <r_i_docking_score>  (24) 
-2.34012

>  <r_i_glide_ligand_efficiency>  (24) 
-0.057076

>  <r_i_glide_ligand_efficiency_sa>  (24) 
-0.19681

>  <r_i_glide_ligand_efficiency_ln>  (24) 
-0.496463

>  <r_i_glide_gscore>  (24) 
-2.34012

>  <r_i_glide_lipo>  (24) 
-0.0826077

>  <r_i_glide_hbond>  (24) 
-0.262606

>  <r_i_glide_metal>  (24) 
-0

>  <r_i_glide_rewards>  (24) 
0

>  <r_i_glide_evdw>  (24) 
-14.8393

>  <r_i_glide_ecoul>  (24) 
-7.81053

>  <r_i_glide_erotb>  (24) 
0

>  <r_i_glide_esite>  (24) 
-0.08136

>  <r_i_glide_emodel>  (24) 
-26.6525

>  <r_i_glide_energy>  (24) 
-22.6498

>  <r_i_glide_einternal>  (24) 
0.132385

>  <r_i_glide_intrahb_reward>  (24) 
-0

>  <i_i_glide_confnum>  (24) 
2

>  <i_i_glide_posenum>  (24) 
34

>  <r_i_glide_eff_state_penalty>  (24) 
0

>  <ligand_id>  (24) 
11

>  <original_smiles>  (24) 
CC1=CC(C(C)C)C2(C)CC(O)C3C1CC1C4(C)CC5C(N)CC5OC56C(C4C2(C)C5C3(O)C1(C)C)N(C)C6(C)O

>  <smiles>  (24) 
[H]OC1([H])C([H])([H])C2(C([H])([H])[H])C([H])(C([H])(C([H])([H])[H])C([H])([H])[H])C([H])=C(C([H])([H])[H])C3([H])C([H])([H])C4([H])C5(C([H])([H])[H])C([H])([H])C6([H])C([H])(OC78C([H])(C(O[H])(C13[H])C4(C([H])([H])[H])C([H])([H])[H])C2(C([H])([H])[H])C5([H])C7([H])[N+]([H])(C([H])([H])[H])C8(O[H])C([H])([H])[H])C([H])([H])C6([H])[N+]([H])([H])[H]

$$$$
11:1:1
     RDKit          3D

 99106  0  0  1  0  0  0  0  0999 V2000
    2.9909   -3.5089   10.3107 C   0  0  0  0  0  0  0  0  0  0  0  0
    2.5628   -2.6496    9.1286 C   0  0  0  0  0  0  0  0  0  0  0  0
    1.7201   -1.6246    9.0861 C   0  0  0  0  0  0  0  0  0  0  0  0
    1.3555   -0.5755   10.0230 C   0  0  1  0  0  0  0  0  0  0  0  0
    0.7419   -1.1049   11.3901 C   0  0  0  0  0  0  0  0  0  0  0  0
   -0.2683   -2.2595   11.1506 C   0  0  0  0  0  0  0  0  0  0  0  0
   -0.0779   -0.0804   12.2255 C   0  0  0  0  0  0  0  0  0  0  0  0
    2.6164    0.3963    9.8131 C   0  0  1  0  0  0  0  0  0  0  0  0
    2.3154    1.3434   11.0463 C   0  0  0  0  0  0  0  0  0  0  0  0
    3.9519   -0.2601   10.3053 C   0  0  0  0  0  0  0  0  0  0  0  0
    4.9701   -0.8830    9.3353 C   0  0  1  0  0  0  0  0  0  0  0  0
    5.7486   -1.8129   10.0718 O   0  0  0  0  0  0  0  0  0  0  0  0
    4.5353   -1.4864    7.9624 C   0  0  1  0  0  0  0  0  0  0  0  0
    3.4159   -2.6428    7.8874 C   0  0  2  0  0  0  0  0  0  0  0  0
    2.5056   -2.6275    6.5857 C   0  0  0  0  0  0  0  0  0  0  0  0
    2.5707   -1.3228    5.6988 C   0  0  1  0  0  0  0  0  0  0  0  0
    1.3524   -0.1765    6.0575 C   0  0  2  0  0  0  0  0  0  0  0  0
    0.0298   -0.9326    6.5041 C   0  0  0  0  0  0  0  0  0  0  0  0
    0.6195    0.2593    4.6547 C   0  0  0  0  0  0  0  0  0  0  0  0
    1.2169    1.2354    3.6256 C   0  0  2  0  0  0  0  0  0  0  0  0
    1.2178    0.9569    2.1099 C   0  0  1  0  0  0  0  0  0  0  0  0
    0.2021    1.6663    1.3290 N   0  0  0  0  0  0  0  0  0  0  0  0
    2.5940    1.6567    2.1039 C   0  0  0  0  0  0  0  0  0  0  0  0
    2.7046    1.1356    3.5375 C   0  0  1  0  0  0  0  0  0  0  0  0
    3.5541    1.8470    4.4637 O   0  0  0  0  0  0  0  0  0  0  0  0
    3.2909    2.0028    5.8755 C   0  0  1  0  0  0  0  0  0  0  0  0
    1.8485    2.2634    6.2628 C   0  0  1  0  0  0  0  0  0  0  0  0
    1.5637    1.0913    7.1788 C   0  0  2  0  0  0  0  0  0  0  0  0
    2.7861    1.1343    8.2738 C   0  0  1  0  0  0  0  0  0  0  0  0
    3.2069    2.5273    8.8999 C   0  0  0  0  0  0  0  0  0  0  0  0
    3.9108    1.0405    7.1024 C   0  0  1  0  0  0  0  0  0  0  0  0
    4.5822   -0.4003    6.8097 C   0  0  1  0  0  0  0  0  0  0  0  0
    5.9718   -0.1017    6.6763 O   0  0  0  0  0  0  0  0  0  0  0  0
    4.1945   -1.1345    5.5030 C   0  0  0  0  0  0  0  0  0  0  0  0
    4.9431   -2.5407    5.3056 C   0  0  0  0  0  0  0  0  0  0  0  0
    4.9420   -0.5454    4.2314 C   0  0  0  0  0  0  0  0  0  0  0  0
    2.2102    3.6293    6.7037 N   0  0  2  0  0  0  0  0  0  0  0  0
    1.1994    4.7305    6.4989 C   0  0  0  0  0  0  0  0  0  0  0  0
    3.4138    3.5556    5.8416 C   0  0  1  0  0  0  0  0  0  0  0  0
    4.7213    4.2421    6.2741 C   0  0  0  0  0  0  0  0  0  0  0  0
    3.0028    4.2358    4.6687 O   0  0  0  0  0  0  0  0  0  0  0  0
    4.0633   -3.6987   10.2905 H   0  0  0  0  0  0  0  0  0  0  0  0
    2.4958   -4.4757   10.2568 H   0  0  0  0  0  0  0  0  0  0  0  0
    2.7580   -3.0654   11.2725 H   0  0  0  0  0  0  0  0  0  0  0  0
    1.7579   -1.1195    8.1757 H   0  0  0  0  0  0  0  0  0  0  0  0
    0.5060   -0.0747    9.5585 H   0  0  0  0  0  0  0  0  0  0  0  0
    1.5271   -1.4805   12.0429 H   0  0  0  0  0  0  0  0  0  0  0  0
   -1.1166   -1.9208   10.5584 H   0  0  0  0  0  0  0  0  0  0  0  0
   -0.6869   -2.6161   12.0895 H   0  0  0  0  0  0  0  0  0  0  0  0
    0.1605   -3.1297   10.6579 H   0  0  0  0  0  0  0  0  0  0  0  0
   -0.8318    0.4237   11.6183 H   0  0  0  0  0  0  0  0  0  0  0  0
    0.4999    0.6757   12.7605 H   0  0  0  0  0  0  0  0  0  0  0  0
   -0.5837   -0.6049   13.0242 H   0  0  0  0  0  0  0  0  0  0  0  0
    3.0147    2.1461   11.2921 H   0  0  0  0  0  0  0  0  0  0  0  0
    2.3854    0.7653   11.9684 H   0  0  0  0  0  0  0  0  0  0  0  0
    1.3304    1.8082   10.9690 H   0  0  0  0  0  0  0  0  0  0  0  0
    4.5379    0.4834   10.8441 H   0  0  0  0  0  0  0  0  0  0  0  0
    3.7121   -0.9760   11.0908 H   0  0  0  0  0  0  0  0  0  0  0  0
    5.6861   -0.0868    9.1229 H   0  0  0  0  0  0  0  0  0  0  0  0
    6.4760   -2.0902    9.5437 H   0  0  0  0  0  0  0  0  0  0  0  0
    5.4113   -2.0977    7.7469 H   0  0  0  0  0  0  0  0  0  0  0  0
    3.9092   -3.6153    7.9227 H   0  0  0  0  0  0  0  0  0  0  0  0
    2.7530   -3.4844    5.9593 H   0  0  0  0  0  0  0  0  0  0  0  0
    1.4923   -2.9214    6.8194 H   0  0  0  0  0  0  0  0  0  0  0  0
    2.2566   -1.6970    4.7252 H   0  0  0  0  0  0  0  0  0  0  0  0
   -0.8060   -0.2416    6.6339 H   0  0  0  0  0  0  0  0  0  0  0  0
   -0.0030   -1.4915    7.4229 H   0  0  0  0  0  0  0  0  0  0  0  0
   -0.2749   -1.6790    5.7644 H   0  0  0  0  0  0  0  0  0  0  0  0
    0.4257   -0.6514    4.0928 H   0  0  0  0  0  0  0  0  0  0  0  0
   -0.3799    0.6617    4.8334 H   0  0  0  0  0  0  0  0  0  0  0  0
    0.8756    2.2622    3.6977 H   0  0  0  0  0  0  0  0  0  0  0  0
    1.2867   -0.1056    1.8702 H   0  0  0  0  0  0  0  0  0  0  0  0
    0.2239    2.7038    1.4529 H   0  0  0  0  0  0  0  0  0  0  0  0
   -0.7295    1.3280    1.5371 H   0  0  0  0  0  0  0  0  0  0  0  0
    3.3155    1.2161    1.4216 H   0  0  0  0  0  0  0  0  0  0  0  0
    2.5783    2.7456    2.0817 H   0  0  0  0  0  0  0  0  0  0  0  0
    2.8639    0.0760    3.5253 H   0  0  0  0  0  0  0  0  0  0  0  0
    1.0551    2.5094    5.5930 H   0  0  0  0  0  0  0  0  0  0  0  0
    0.6353    1.2928    7.7162 H   0  0  0  0  0  0  0  0  0  0  0  0
    3.7700    3.2452    8.3413 H   0  0  0  0  0  0  0  0  0  0  0  0
    4.0237    2.4027    9.6068 H   0  0  0  0  0  0  0  0  0  0  0  0
    2.3716    3.0898    9.3277 H   0  0  0  0  0  0  0  0  0  0  0  0
    4.7737    1.5734    7.5050 H   0  0  0  0  0  0  0  0  0  0  0  0
    6.4275   -0.9099    6.5272 H   0  0  0  0  0  0  0  0  0  0  0  0
    6.0325   -2.4712    5.3364 H   0  0  0  0  0  0  0  0  0  0  0  0
    4.6806   -2.9908    4.3458 H   0  0  0  0  0  0  0  0  0  0  0  0
    4.8173   -3.3395    6.0187 H   0  0  0  0  0  0  0  0  0  0  0  0
    5.9749   -0.8573    4.1283 H   0  0  0  0  0  0  0  0  0  0  0  0
    5.1665    0.5048    4.2331 H   0  0  0  0  0  0  0  0  0  0  0  0
    4.5432   -0.8842    3.2749 H   0  0  0  0  0  0  0  0  0  0  0  0
    0.7540    4.7431    5.4936 H   0  0  0  0  0  0  0  0  0  0  0  0
    1.6706    5.7021    6.6783 H   0  0  0  0  0  0  0  0  0  0  0  0
    0.3942    4.5846    7.2178 H   0  0  0  0  0  0  0  0  0  0  0  0
    5.2755    3.7322    7.0551 H   0  0  0  0  0  0  0  0  0  0  0  0
    4.5632    5.2736    6.5814 H   0  0  0  0  0  0  0  0  0  0  0  0
    5.4211    4.2682    5.4394 H   0  0  0  0  0  0  0  0  0  0  0  0
    3.4323    3.7696    3.9681 H   0  0  0  0  0  0  0  0  0  0  0  0
    0.3407    1.4767    0.3430 H   0  0  0  0  0  0  0  0  0  0  0  0
    2.5312    3.5744    7.6609 H   0  0  0  0  0  0  0  0  0  0  0  0
  1  2  1  0
  1 42  1  0
  1 43  1  0
  1 44  1  0
  2 14  1  0
  2  3  2  3
  3  4  1  0
  3 45  1  0
  4  5  1  0
  4  8  1  0
  4 46  1  6
  5  6  1  0
  5  7  1  0
  5 47  1  0
  6 48  1  0
  6 49  1  0
  6 50  1  0
  7 51  1  0
  7 52  1  0
  7 53  1  0
  8 29  1  0
  8  9  1  1
  8 10  1  0
  9 54  1  0
  9 55  1  0
  9 56  1  0
 10 11  1  0
 10 57  1  0
 10 58  1  0
 11 12  1  0
 11 13  1  0
 11 59  1  6
 12 60  1  0
 13 32  1  0
 13 14  1  0
 13 61  1  6
 14 15  1  0
 14 62  1  6
 15 16  1  0
 15 63  1  0
 15 64  1  0
 16 34  1  0
 16 17  1  0
 16 65  1  6
 17 28  1  0
 17 18  1  1
 17 19  1  0
 18 66  1  0
 18 67  1  0
 18 68  1  0
 19 20  1  0
 19 69  1  0
 19 70  1  0
 20 24  1  0
 20 21  1  0
 20 71  1  6
 21 22  1  0
 21 23  1  0
 21 72  1  1
 22 73  1  0
 22 74  1  0
 22 98  1  0
 23 24  1  0
 23 75  1  0
 23 76  1  0
 24 25  1  0
 24 77  1  6
 26 25  1  6
 26 31  1  0
 26 39  1  0
 26 27  1  0
 27 28  1  0
 27 37  1  0
 27 78  1  6
 28 29  1  0
 28 79  1  1
 29 30  1  1
 29 31  1  0
 30 80  1  0
 30 81  1  0
 30 82  1  0
 31 32  1  0
 31 83  1  1
 32 33  1  6
 32 34  1  0
 33 84  1  0
 34 35  1  0
 34 36  1  0
 35 85  1  0
 35 86  1  0
 35 87  1  0
 36 88  1  0
 36 89  1  0
 36 90  1  0
 37 38  1  0
 37 39  1  0
 37 99  1  1
 38 91  1  0
 38 92  1  0
 38 93  1  0
 39 40  1  0
 39 41  1  6
 40 94  1  0
 40 95  1  0
 40 96  1  0
 41 97  1  0
M  CHG  2  22   1  37   1
M  END
>  <i_m_ct_stereo_status>  (25) 
1

>  <s_m_source_file>  (25) 
/var/tmp/pbs.5076255.sched01/tmphbojuwnv/0fr5z8inm.sdf

>  <i_m_source_file_index>  (25) 
15

>  <i_lp_mmshare_version>  (25) 
48012

>  <i_f3d_flags>  (25) 
2

>  <s_epik_input>  (25) 
W0NIM10vQzE9W0NIXS9bQ0BASF0oW0NIXShbQ0gzXSlbQ0gzXSlbQ0BAXShbQ0gzXSkoW0NIMl1bQ0BIXTJbT0hdKVtDQEBdMyhbQ0gzXSlbQ0BIXTRbQ0BdKFtPSF0pKEM1KFtDSDNdKVtDSDNdKVtDQEBIXTJbQ0BIXTFbQ0gyXVtDQEhdNVtDQEBdKFtDSDNdKShbQ0BASF0zW0NAQEhdKFtDQF00NjcpTihbQ0gzXSlbQ0BdNyhbQ0gzXSlbT0hdKVtDSDJdW0NAQEhdOFtDQEhdKE82KVtDSDJdW0NAQEhdOFtOSDJd

>  <s_epik_cmdline>  (25) 
J2VwaWtfcHl0aG9uJywgJy1waHQnLCAnMi4wJywgJy1waCcsICc3LjAnLCAnLXRuJywgJzgnLCAnLW1hJywgJzIwMCcsICctaW1hZScsICc8aW5maWxlLm1hZT4nLCAnLW9tYWUnLCAnPG91dGZpbGUubWFlPic=

>  <r_epik_Ionization_Penalty>  (25) 
0.108526

>  <r_epik_Ionization_Penalty_Charging>  (25) 
0.0702489

>  <r_epik_Ionization_Penalty_Neutral>  (25) 
0.0382773

>  <r_epik_State_Penalty>  (25) 
0.0895909

>  <r_epik_Charging_Adjusted_Penalty>  (25) 
0.15984

>  <i_epik_Tot_Q>  (25) 
2

>  <i_epik_Tot_abs_Q>  (25) 
2

>  <s_lp_Force_Field>  (25) 
OPLS3e

>  <r_lp_Energy>  (25) 
425.558

>  <b_lp_Chiralities_Consistent>  (25) 
0

>  <s_lp_Variant>  (25) 
11:0-2

>  <s_i_glide_gridfile>  (25) 
pfpi4k_grid

>  <i_i_glide_lignum>  (25) 
15

>  <i_i_glide_rotatable_bonds>  (25) 
4

>  <r_i_docking_score>  (25) 
-2.16219

>  <r_i_glide_ligand_efficiency>  (25) 
-0.0527363

>  <r_i_glide_ligand_efficiency_sa>  (25) 
-0.181846

>  <r_i_glide_ligand_efficiency_ln>  (25) 
-0.458715

>  <r_i_glide_gscore>  (25) 
-2.16219

>  <r_i_glide_lipo>  (25) 
-0.103932

>  <r_i_glide_hbond>  (25) 
-0.255249

>  <r_i_glide_metal>  (25) 
-0

>  <r_i_glide_rewards>  (25) 
0

>  <r_i_glide_evdw>  (25) 
-14.0797

>  <r_i_glide_ecoul>  (25) 
-6.76616

>  <r_i_glide_erotb>  (25) 
0

>  <r_i_glide_esite>  (25) 
-0.0840986

>  <r_i_glide_emodel>  (25) 
-23.9267

>  <r_i_glide_energy>  (25) 
-20.8458

>  <r_i_glide_einternal>  (25) 
0.642502

>  <r_i_glide_intrahb_reward>  (25) 
-0

>  <i_i_glide_confnum>  (25) 
2

>  <i_i_glide_posenum>  (25) 
10

>  <r_i_glide_eff_state_penalty>  (25) 
0

>  <ligand_id>  (25) 
11

>  <original_smiles>  (25) 
CC1=CC(C(C)C)C2(C)CC(O)C3C1CC1C4(C)CC5C(N)CC5OC56C(C4C2(C)C5C3(O)C1(C)C)N(C)C6(C)O

>  <smiles>  (25) 
[H]OC1([H])C([H])([H])C2(C([H])([H])[H])C([H])(C([H])(C([H])([H])[H])C([H])([H])[H])C([H])=C(C([H])([H])[H])C3([H])C([H])([H])C4([H])C5(C([H])([H])[H])C([H])([H])C6([H])C([H])(OC78C([H])(C(O[H])(C13[H])C4(C([H])([H])[H])C([H])([H])[H])C2(C([H])([H])[H])C5([H])C7([H])[N+]([H])(C([H])([H])[H])C8(O[H])C([H])([H])[H])C([H])([H])C6([H])[N+]([H])([H])[H]

$$$$
11:1:2
     RDKit          3D

 99106  0  0  1  0  0  0  0  0999 V2000
    4.2965   -3.6371    7.3787 C   0  0  0  0  0  0  0  0  0  0  0  0
    3.2227   -2.6982    6.8612 C   0  0  0  0  0  0  0  0  0  0  0  0
    1.9970   -2.4771    7.3187 C   0  0  0  0  0  0  0  0  0  0  0  0
    1.3941   -2.5027    8.6384 C   0  0  1  0  0  0  0  0  0  0  0  0
    1.4882   -3.9065    9.3816 C   0  0  0  0  0  0  0  0  0  0  0  0
    1.2634   -5.0902    8.4072 C   0  0  0  0  0  0  0  0  0  0  0  0
    0.4341   -4.1534   10.4989 C   0  0  0  0  0  0  0  0  0  0  0  0
    1.8923   -1.0676    9.1632 C   0  0  1  0  0  0  0  0  0  0  0  0
    1.4536   -1.2715   10.6727 C   0  0  0  0  0  0  0  0  0  0  0  0
    3.4505   -1.0119    9.3348 C   0  0  0  0  0  0  0  0  0  0  0  0
    4.3683   -0.3414    8.2908 C   0  0  1  0  0  0  0  0  0  0  0  0
    5.6619   -0.9032    8.4335 O   0  0  0  0  0  0  0  0  0  0  0  0
    3.9733   -0.2540    6.7811 C   0  0  1  0  0  0  0  0  0  0  0  0
    3.6104   -1.5757    5.9428 C   0  0  2  0  0  0  0  0  0  0  0  0
    2.5305   -1.3739    4.7910 C   0  0  0  0  0  0  0  0  0  0  0  0
    1.7095   -0.0306    4.8240 C   0  0  1  0  0  0  0  0  0  0  0  0
    0.2092   -0.1444    5.6432 C   0  0  2  0  0  0  0  0  0  0  0  0
   -0.3967   -1.6044    5.4343 C   0  0  0  0  0  0  0  0  0  0  0  0
   -0.9697    0.4667    4.6737 C   0  0  0  0  0  0  0  0  0  0  0  0
   -1.2210    1.9611    4.4681 C   0  0  2  0  0  0  0  0  0  0  0  0
   -1.4881    2.6209    3.0886 C   0  0  1  0  0  0  0  0  0  0  0  0
   -2.8789    2.9382    2.7762 N   0  0  0  0  0  0  0  0  0  0  0  0
   -0.6689    3.8142    3.6331 C   0  0  0  0  0  0  0  0  0  0  0  0
    0.0338    2.7705    4.5056 C   0  0  1  0  0  0  0  0  0  0  0  0
    0.6102    3.2102    5.7527 O   0  0  0  0  0  0  0  0  0  0  0  0
    0.6673    2.4190    6.9525 C   0  0  1  0  0  0  0  0  0  0  0  0
   -0.5622    1.6064    7.2772 C   0  0  1  0  0  0  0  0  0  0  0  0
    0.0287    0.2058    7.3086 C   0  0  2  0  0  0  0  0  0  0  0  0
    1.2840    0.3175    8.3522 C   0  0  1  0  0  0  0  0  0  0  0  0
    1.0767    1.1184    9.7053 C   0  0  0  0  0  0  0  0  0  0  0  0
    1.9692    1.5006    7.4693 C   0  0  1  0  0  0  0  0  0  0  0  0
    3.1768    1.0871    6.4710 C   0  0  1  0  0  0  0  0  0  0  0  0
    4.1498    2.1141    6.6822 O   0  0  0  0  0  0  0  0  0  0  0  0
    2.9107    1.0874    4.9489 C   0  0  0  0  0  0  0  0  0  0  0  0
    4.1908    0.6960    4.0636 C   0  0  0  0  0  0  0  0  0  0  0  0
    2.9305    2.5484    4.3205 C   0  0  0  0  0  0  0  0  0  0  0  0
   -0.8464    2.4594    8.4369 N   0  0  2  0  0  0  0  0  0  0  0  0
   -2.2708    2.7080    8.7969 C   0  0  0  0  0  0  0  0  0  0  0  0
   -0.0057    3.5135    7.8294 C   0  0  1  0  0  0  0  0  0  0  0  0
    0.8259    4.4550    8.7116 C   0  0  0  0  0  0  0  0  0  0  0  0
   -0.9903    4.3595    7.2368 O   0  0  0  0  0  0  0  0  0  0  0  0
    5.2755   -3.1661    7.3714 H   0  0  0  0  0  0  0  0  0  0  0  0
    4.3639   -4.5155    6.7333 H   0  0  0  0  0  0  0  0  0  0  0  0
    4.1094   -3.9850    8.3902 H   0  0  0  0  0  0  0  0  0  0  0  0
    1.5448   -1.6542    6.8694 H   0  0  0  0  0  0  0  0  0  0  0  0
    0.3263   -2.4055    8.4493 H   0  0  0  0  0  0  0  0  0  0  0  0
    2.4755   -4.0294    9.8255 H   0  0  0  0  0  0  0  0  0  0  0  0
    0.2693   -5.0550    7.9606 H   0  0  0  0  0  0  0  0  0  0  0  0
    1.3323   -6.0493    8.9310 H   0  0  0  0  0  0  0  0  0  0  0  0
    1.9882   -5.1445    7.5969 H   0  0  0  0  0  0  0  0  0  0  0  0
   -0.5740   -3.9236   10.1481 H   0  0  0  0  0  0  0  0  0  0  0  0
    0.5932   -3.6139   11.4279 H   0  0  0  0  0  0  0  0  0  0  0  0
    0.4269   -5.1992   10.8071 H   0  0  0  0  0  0  0  0  0  0  0  0
    1.7118   -0.5151   11.4136 H   0  0  0  0  0  0  0  0  0  0  0  0
    2.0076   -2.1069   11.1077 H   0  0  0  0  0  0  0  0  0  0  0  0
    0.3788   -1.4477   10.7719 H   0  0  0  0  0  0  0  0  0  0  0  0
    3.6887   -0.4886   10.2629 H   0  0  0  0  0  0  0  0  0  0  0  0
    3.8082   -2.0208    9.5448 H   0  0  0  0  0  0  0  0  0  0  0  0
    4.5093    0.6745    8.6522 H   0  0  0  0  0  0  0  0  0  0  0  0
    6.2687   -0.4161    7.9114 H   0  0  0  0  0  0  0  0  0  0  0  0
    4.9543   -0.0457    6.3539 H   0  0  0  0  0  0  0  0  0  0  0  0
    4.5224   -1.9511    5.4661 H   0  0  0  0  0  0  0  0  0  0  0  0
    3.0140   -1.4728    3.8214 H   0  0  0  0  0  0  0  0  0  0  0  0
    1.8972   -2.2571    4.7066 H   0  0  0  0  0  0  0  0  0  0  0  0
    1.4012    0.0623    3.7792 H   0  0  0  0  0  0  0  0  0  0  0  0
   -1.4023   -1.6941    5.8450 H   0  0  0  0  0  0  0  0  0  0  0  0
    0.0860   -2.4725    5.8639 H   0  0  0  0  0  0  0  0  0  0  0  0
   -0.4523   -1.8744    4.3769 H   0  0  0  0  0  0  0  0  0  0  0  0
   -0.8048    0.0725    3.6679 H   0  0  0  0  0  0  0  0  0  0  0  0
   -1.9524    0.0732    4.9374 H   0  0  0  0  0  0  0  0  0  0  0  0
   -2.0146    2.4016    5.0890 H   0  0  0  0  0  0  0  0  0  0  0  0
   -0.9738    2.0955    2.2776 H   0  0  0  0  0  0  0  0  0  0  0  0
   -3.3448    3.4463    3.5128 H   0  0  0  0  0  0  0  0  0  0  0  0
   -3.3840    2.0589    2.6231 H   0  0  0  0  0  0  0  0  0  0  0  0
    0.0186    4.2845    2.9418 H   0  0  0  0  0  0  0  0  0  0  0  0
   -1.2422    4.5405    4.2169 H   0  0  0  0  0  0  0  0  0  0  0  0
    0.6874    2.1834    3.8842 H   0  0  0  0  0  0  0  0  0  0  0  0
   -1.5075    1.6567    6.7816 H   0  0  0  0  0  0  0  0  0  0  0  0
   -0.6781   -0.4837    7.7521 H   0  0  0  0  0  0  0  0  0  0  0  0
    1.0466    2.1852    9.7198 H   0  0  0  0  0  0  0  0  0  0  0  0
    1.9907    1.1110   10.3057 H   0  0  0  0  0  0  0  0  0  0  0  0
    0.2129    0.7998   10.2865 H   0  0  0  0  0  0  0  0  0  0  0  0
    2.5129    2.1069    8.1863 H   0  0  0  0  0  0  0  0  0  0  0  0
    4.8805    1.9506    6.1181 H   0  0  0  0  0  0  0  0  0  0  0  0
    5.0596    1.3231    4.2410 H   0  0  0  0  0  0  0  0  0  0  0  0
    3.9608    0.7548    2.9967 H   0  0  0  0  0  0  0  0  0  0  0  0
    4.6679   -0.2728    4.1738 H   0  0  0  0  0  0  0  0  0  0  0  0
    3.9175    2.9711    4.1649 H   0  0  0  0  0  0  0  0  0  0  0  0
    2.5842    3.3574    4.9487 H   0  0  0  0  0  0  0  0  0  0  0  0
    2.5255    2.6172    3.3105 H   0  0  0  0  0  0  0  0  0  0  0  0
   -2.9066    2.9991    7.9516 H   0  0  0  0  0  0  0  0  0  0  0  0
   -2.3541    3.5015    9.5550 H   0  0  0  0  0  0  0  0  0  0  0  0
   -2.7081    1.8031    9.2228 H   0  0  0  0  0  0  0  0  0  0  0  0
    1.7370    4.0072    9.1131 H   0  0  0  0  0  0  0  0  0  0  0  0
    0.2588    4.8758    9.5358 H   0  0  0  0  0  0  0  0  0  0  0  0
    1.1972    5.2865    8.1190 H   0  0  0  0  0  0  0  0  0  0  0  0
   -0.4944    4.9182    6.6598 H   0  0  0  0  0  0  0  0  0  0  0  0
   -2.9070    3.4745    1.9282 H   0  0  0  0  0  0  0  0  0  0  0  0
   -0.3316    2.1008    9.2433 H   0  0  0  0  0  0  0  0  0  0  0  0
  1  2  1  0
  1 42  1  0
  1 43  1  0
  1 44  1  0
  2 14  1  0
  2  3  2  3
  3  4  1  0
  3 45  1  0
  4  5  1  0
  4  8  1  0
  4 46  1  6
  5  6  1  0
  5  7  1  0
  5 47  1  0
  6 48  1  0
  6 49  1  0
  6 50  1  0
  7 51  1  0
  7 52  1  0
  7 53  1  0
  8 29  1  0
  8  9  1  1
  8 10  1  0
  9 54  1  0
  9 55  1  0
  9 56  1  0
 10 11  1  0
 10 57  1  0
 10 58  1  0
 11 12  1  0
 11 13  1  0
 11 59  1  1
 12 60  1  0
 13 32  1  0
 13 14  1  0
 13 61  1  6
 14 15  1  0
 14 62  1  6
 15 16  1  0
 15 63  1  0
 15 64  1  0
 16 34  1  0
 16 17  1  0
 16 65  1  6
 17 28  1  0
 17 18  1  1
 17 19  1  0
 18 66  1  0
 18 67  1  0
 18 68  1  0
 19 20  1  0
 19 69  1  0
 19 70  1  0
 20 24  1  0
 20 21  1  0
 20 71  1  1
 21 22  1  0
 21 23  1  0
 21 72  1  6
 22 73  1  0
 22 74  1  0
 22 98  1  0
 23 24  1  0
 23 75  1  0
 23 76  1  0
 24 25  1  0
 24 77  1  6
 26 25  1  6
 26 31  1  0
 26 39  1  0
 26 27  1  0
 27 28  1  0
 27 37  1  0
 27 78  1  6
 28 29  1  0
 28 79  1  1
 29 30  1  1
 29 31  1  0
 30 80  1  0
 30 81  1  0
 30 82  1  0
 31 32  1  0
 31 83  1  1
 32 33  1  6
 32 34  1  0
 33 84  1  0
 34 35  1  0
 34 36  1  0
 35 85  1  0
 35 86  1  0
 35 87  1  0
 36 88  1  0
 36 89  1  0
 36 90  1  0
 37 38  1  0
 37 39  1  0
 37 99  1  1
 38 91  1  0
 38 92  1  0
 38 93  1  0
 39 40  1  0
 39 41  1  6
 40 94  1  0
 40 95  1  0
 40 96  1  0
 41 97  1  0
M  CHG  2  22   1  37   1
M  END
>  <i_m_ct_stereo_status>  (26) 
1

>  <s_m_source_file>  (26) 
/var/tmp/pbs.5076255.sched01/tmphbojuwnv/0fr5z8inm.sdf

>  <i_m_source_file_index>  (26) 
15

>  <i_lp_mmshare_version>  (26) 
48012

>  <i_f3d_flags>  (26) 
2

>  <s_epik_input>  (26) 
W0NIM10vQzE9W0NIXS9bQ0BASF0oW0NIXShbQ0gzXSlbQ0gzXSlbQ0BAXShbQ0gzXSkoW0NIMl1bQ0BIXTJbT0hdKVtDQEBdMyhbQ0gzXSlbQ0BIXTRbQ0BdKFtPSF0pKEM1KFtDSDNdKVtDSDNdKVtDQEBIXTJbQ0BIXTFbQ0gyXVtDQEhdNVtDQEBdKFtDSDNdKShbQ0BASF0zW0NAQEhdKFtDQF00NjcpTihbQ0gzXSlbQ0BdNyhbQ0gzXSlbT0hdKVtDSDJdW0NAQEhdOFtDQEhdKE82KVtDSDJdW0NAQEhdOFtOSDJd

>  <s_epik_cmdline>  (26) 
J2VwaWtfcHl0aG9uJywgJy1waHQnLCAnMi4wJywgJy1waCcsICc3LjAnLCAnLXRuJywgJzgnLCAnLW1hJywgJzIwMCcsICctaW1hZScsICc8aW5maWxlLm1hZT4nLCAnLW9tYWUnLCAnPG91dGZpbGUubWFlPic=

>  <r_epik_Ionization_Penalty>  (26) 
0.108526

>  <r_epik_Ionization_Penalty_Charging>  (26) 
0.0702489

>  <r_epik_Ionization_Penalty_Neutral>  (26) 
0.0382773

>  <r_epik_State_Penalty>  (26) 
0.0895909

>  <r_epik_Charging_Adjusted_Penalty>  (26) 
0.15984

>  <i_epik_Tot_Q>  (26) 
2

>  <i_epik_Tot_abs_Q>  (26) 
2

>  <s_lp_Force_Field>  (26) 
OPLS3e

>  <r_lp_Energy>  (26) 
425.558

>  <b_lp_Chiralities_Consistent>  (26) 
0

>  <s_lp_Variant>  (26) 
11:0-2

>  <s_i_glide_gridfile>  (26) 
pfpi4k_grid

>  <i_i_glide_lignum>  (26) 
15

>  <i_i_glide_rotatable_bonds>  (26) 
4

>  <r_i_docking_score>  (26) 
-1.34488

>  <r_i_glide_ligand_efficiency>  (26) 
-0.0328021

>  <r_i_glide_ligand_efficiency_sa>  (26) 
-0.113109

>  <r_i_glide_ligand_efficiency_ln>  (26) 
-0.285322

>  <r_i_glide_gscore>  (26) 
-1.34488

>  <r_i_glide_lipo>  (26) 
0

>  <r_i_glide_hbond>  (26) 
0

>  <r_i_glide_metal>  (26) 
-0

>  <r_i_glide_rewards>  (26) 
0

>  <r_i_glide_evdw>  (26) 
-16.8374

>  <r_i_glide_ecoul>  (26) 
-3.23299

>  <r_i_glide_erotb>  (26) 
0

>  <r_i_glide_esite>  (26) 
-0.0180643

>  <r_i_glide_emodel>  (26) 
-21.9251

>  <r_i_glide_energy>  (26) 
-20.0704

>  <r_i_glide_einternal>  (26) 
0.368548

>  <r_i_glide_intrahb_reward>  (26) 
-0

>  <i_i_glide_confnum>  (26) 
2

>  <i_i_glide_posenum>  (26) 
18

>  <r_i_glide_eff_state_penalty>  (26) 
0

>  <ligand_id>  (26) 
11

>  <original_smiles>  (26) 
CC1=CC(C(C)C)C2(C)CC(O)C3C1CC1C4(C)CC5C(N)CC5OC56C(C4C2(C)C5C3(O)C1(C)C)N(C)C6(C)O

>  <smiles>  (26) 
[H]OC1([H])C([H])([H])C2(C([H])([H])[H])C([H])(C([H])(C([H])([H])[H])C([H])([H])[H])C([H])=C(C([H])([H])[H])C3([H])C([H])([H])C4([H])C5(C([H])([H])[H])C([H])([H])C6([H])C([H])(OC78C([H])(C(O[H])(C13[H])C4(C([H])([H])[H])C([H])([H])[H])C2(C([H])([H])[H])C5([H])C7([H])[N+]([H])(C([H])([H])[H])C8(O[H])C([H])([H])[H])C([H])([H])C6([H])[N+]([H])([H])[H]

$$$$
11:4:0
     RDKit          3D

 98105  0  0  1  0  0  0  0  0999 V2000
    2.6538   -9.7745    3.7123 C   0  0  0  0  0  0  0  0  0  0  0  0
    2.7814   -8.4906    2.9104 C   0  0  0  0  0  0  0  0  0  0  0  0
    1.8759   -7.5450    2.6765 C   0  0  0  0  0  0  0  0  0  0  0  0
    0.7799   -7.0117    3.4602 C   0  0  1  0  0  0  0  0  0  0  0  0
   -0.3473   -8.0774    3.8080 C   0  0  0  0  0  0  0  0  0  0  0  0
   -0.5583   -9.1212    2.6818 C   0  0  0  0  0  0  0  0  0  0  0  0
   -1.7613   -7.4677    4.0177 C   0  0  0  0  0  0  0  0  0  0  0  0
    1.6057   -6.0796    4.4737 C   0  0  1  0  0  0  0  0  0  0  0  0
    0.3945   -5.8040    5.4689 C   0  0  0  0  0  0  0  0  0  0  0  0
    2.5506   -6.8967    5.4189 C   0  0  0  0  0  0  0  0  0  0  0  0
    4.0752   -7.0144    5.1567 C   0  0  1  0  0  0  0  0  0  0  0  0
    4.5435   -8.1633    5.8408 O   0  0  0  0  0  0  0  0  0  0  0  0
    4.6730   -6.9546    3.7165 C   0  0  1  0  0  0  0  0  0  0  0  0
    4.1446   -7.9621    2.5769 C   0  0  2  0  0  0  0  0  0  0  0  0
    4.1642   -7.3857    1.0982 C   0  0  0  0  0  0  0  0  0  0  0  0
    4.3499   -5.8337    0.9617 C   0  0  1  0  0  0  0  0  0  0  0  0
    2.9496   -4.8911    0.9094 C   0  0  2  0  0  0  0  0  0  0  0  0
    1.7981   -5.6588    0.1355 C   0  0  0  0  0  0  0  0  0  0  0  0
    3.1393   -3.8300   -0.2760 C   0  0  0  0  0  0  0  0  0  0  0  0
    4.3771   -2.9419   -0.4544 C   0  0  1  0  0  0  0  0  0  0  0  0
    4.2623   -1.6100   -1.2532 C   0  0  1  0  0  0  0  0  0  0  0  0
    3.0609   -1.4524   -2.0687 N   0  0  0  0  0  0  0  0  0  0  0  0
    4.2643   -0.8426    0.0774 C   0  0  0  0  0  0  0  0  0  0  0  0
    5.0081   -2.0749    0.6557 C   0  0  1  0  0  0  0  0  0  0  0  0
    5.0796   -2.5307    2.0317 O   0  0  0  0  0  0  0  0  0  0  0  0
    4.0085   -2.8657    2.9103 C   0  0  1  0  0  0  0  0  0  0  0  0
    2.6538   -2.7442    2.2529 C   0  0  1  0  0  0  0  0  0  0  0  0
    2.1882   -4.2118    2.2695 C   0  0  2  0  0  0  0  0  0  0  0  0
    2.4318   -4.7301    3.8008 C   0  0  1  0  0  0  0  0  0  0  0  0
    1.9573   -3.7928    4.9824 C   0  0  0  0  0  0  0  0  0  0  0  0
    3.9994   -4.3157    3.7093 C   0  0  1  0  0  0  0  0  0  0  0  0
    5.0710   -5.4679    3.2980 C   0  0  1  0  0  0  0  0  0  0  0  0
    6.1884   -5.1554    4.1159 O   0  0  0  0  0  0  0  0  0  0  0  0
    5.6621   -5.5698    1.8419 C   0  0  0  0  0  0  0  0  0  0  0  0
    6.7542   -6.7395    1.7344 C   0  0  0  0  0  0  0  0  0  0  0  0
    6.7127   -4.4923    1.3657 C   0  0  0  0  0  0  0  0  0  0  0  0
    2.3294   -1.7361    3.2779 N   0  0  0  0  0  0  0  0  0  0  0  0
    1.4103   -0.6527    2.8988 C   0  0  0  0  0  0  0  0  0  0  0  0
    3.7508   -1.4729    3.5854 C   0  0  1  0  0  0  0  0  0  0  0  0
    4.2042   -1.1831    5.0185 C   0  0  0  0  0  0  0  0  0  0  0  0
    4.0860   -0.2809    2.9009 O   0  0  0  0  0  0  0  0  0  0  0  0
    2.5827  -10.6200    3.0261 H   0  0  0  0  0  0  0  0  0  0  0  0
    1.7770   -9.7930    4.3535 H   0  0  0  0  0  0  0  0  0  0  0  0
    3.5281   -9.9540    4.3334 H   0  0  0  0  0  0  0  0  0  0  0  0
    2.2841   -6.6963    2.2374 H   0  0  0  0  0  0  0  0  0  0  0  0
    0.2655   -6.3251    2.7914 H   0  0  0  0  0  0  0  0  0  0  0  0
   -0.0793   -8.6318    4.7079 H   0  0  0  0  0  0  0  0  0  0  0  0
   -0.8624   -8.6480    1.7500 H   0  0  0  0  0  0  0  0  0  0  0  0
   -1.3410   -9.8333    2.9537 H   0  0  0  0  0  0  0  0  0  0  0  0
    0.3195   -9.7252    2.4703 H   0  0  0  0  0  0  0  0  0  0  0  0
   -2.0343   -6.8038    3.1979 H   0  0  0  0  0  0  0  0  0  0  0  0
   -1.8922   -6.9192    4.9422 H   0  0  0  0  0  0  0  0  0  0  0  0
   -2.5163   -8.2554    4.0494 H   0  0  0  0  0  0  0  0  0  0  0  0
    0.5917   -5.2812    6.4040 H   0  0  0  0  0  0  0  0  0  0  0  0
    0.0154   -6.7349    5.8940 H   0  0  0  0  0  0  0  0  0  0  0  0
   -0.4250   -5.2703    4.9782 H   0  0  0  0  0  0  0  0  0  0  0  0
    2.5044   -6.4724    6.4239 H   0  0  0  0  0  0  0  0  0  0  0  0
    2.1204   -7.8874    5.5684 H   0  0  0  0  0  0  0  0  0  0  0  0
    4.5372   -6.2091    5.7229 H   0  0  0  0  0  0  0  0  0  0  0  0
    4.1429   -8.9232    5.4616 H   0  0  0  0  0  0  0  0  0  0  0  0
    5.6437   -7.4115    3.9167 H   0  0  0  0  0  0  0  0  0  0  0  0
    4.7654   -8.8630    2.5775 H   0  0  0  0  0  0  0  0  0  0  0  0
    4.9343   -7.9033    0.5279 H   0  0  0  0  0  0  0  0  0  0  0  0
    3.3024   -7.7300    0.5436 H   0  0  0  0  0  0  0  0  0  0  0  0
    4.7143   -5.7580   -0.0673 H   0  0  0  0  0  0  0  0  0  0  0  0
    1.0816   -4.9986   -0.3482 H   0  0  0  0  0  0  0  0  0  0  0  0
    1.1428   -6.3217    0.6841 H   0  0  0  0  0  0  0  0  0  0  0  0
    2.1958   -6.2466   -0.6777 H   0  0  0  0  0  0  0  0  0  0  0  0
    3.1408   -4.3667   -1.2230 H   0  0  0  0  0  0  0  0  0  0  0  0
    2.2334   -3.2279   -0.3784 H   0  0  0  0  0  0  0  0  0  0  0  0
    5.1511   -3.5040   -0.9736 H   0  0  0  0  0  0  0  0  0  0  0  0
    5.1769   -1.4029   -1.8117 H   0  0  0  0  0  0  0  0  0  0  0  0
    2.1910   -1.5933   -1.5271 H   0  0  0  0  0  0  0  0  0  0  0  0
    3.0621   -2.0931   -2.8451 H   0  0  0  0  0  0  0  0  0  0  0  0
    4.8641    0.0676    0.0704 H   0  0  0  0  0  0  0  0  0  0  0  0
    3.2527   -0.6325    0.4225 H   0  0  0  0  0  0  0  0  0  0  0  0
    6.0540   -1.8980    0.3914 H   0  0  0  0  0  0  0  0  0  0  0  0
    2.5595   -2.2322    1.3236 H   0  0  0  0  0  0  0  0  0  0  0  0
    1.1156   -4.2566    2.1350 H   0  0  0  0  0  0  0  0  0  0  0  0
    2.4728   -2.8950    5.2229 H   0  0  0  0  0  0  0  0  0  0  0  0
    2.2048   -4.2219    5.9520 H   0  0  0  0  0  0  0  0  0  0  0  0
    0.9135   -3.4859    4.9044 H   0  0  0  0  0  0  0  0  0  0  0  0
    4.2759   -4.1116    4.7396 H   0  0  0  0  0  0  0  0  0  0  0  0
    6.8705   -5.7823    3.9309 H   0  0  0  0  0  0  0  0  0  0  0  0
    7.6251   -6.5606    2.3691 H   0  0  0  0  0  0  0  0  0  0  0  0
    7.1240   -6.8331    0.7104 H   0  0  0  0  0  0  0  0  0  0  0  0
    6.5046   -7.7613    2.0016 H   0  0  0  0  0  0  0  0  0  0  0  0
    6.9133   -3.7032    2.0803 H   0  0  0  0  0  0  0  0  0  0  0  0
    6.5019   -4.1133    0.3811 H   0  0  0  0  0  0  0  0  0  0  0  0
    7.7390   -4.8221    1.2093 H   0  0  0  0  0  0  0  0  0  0  0  0
    1.3131    0.0579    3.7268 H   0  0  0  0  0  0  0  0  0  0  0  0
    0.4199   -1.0635    2.7044 H   0  0  0  0  0  0  0  0  0  0  0  0
    1.7216   -0.1091    2.0039 H   0  0  0  0  0  0  0  0  0  0  0  0
    4.2903   -2.0790    5.6397 H   0  0  0  0  0  0  0  0  0  0  0  0
    3.5498   -0.4834    5.5294 H   0  0  0  0  0  0  0  0  0  0  0  0
    5.2108   -0.7654    5.0312 H   0  0  0  0  0  0  0  0  0  0  0  0
    3.3901   -0.1124    2.3035 H   0  0  0  0  0  0  0  0  0  0  0  0
    2.9918   -0.5057   -2.4222 H   0  0  0  0  0  0  0  0  0  0  0  0
  1  2  1  0
  1 42  1  0
  1 43  1  0
  1 44  1  0
  2 14  1  0
  2  3  2  3
  3  4  1  0
  3 45  1  0
  4  5  1  0
  4  8  1  0
  4 46  1  6
  5  6  1  0
  5  7  1  0
  5 47  1  0
  6 48  1  0
  6 49  1  0
  6 50  1  0
  7 51  1  0
  7 52  1  0
  7 53  1  0
  8 29  1  0
  8  9  1  1
  8 10  1  0
  9 54  1  0
  9 55  1  0
  9 56  1  0
 10 11  1  0
 10 57  1  0
 10 58  1  0
 11 12  1  0
 11 13  1  0
 11 59  1  1
 12 60  1  0
 13 32  1  0
 13 14  1  0
 13 61  1  1
 14 15  1  0
 14 62  1  6
 15 16  1  0
 15 63  1  0
 15 64  1  0
 16 34  1  0
 16 17  1  0
 16 65  1  6
 17 28  1  0
 17 18  1  6
 17 19  1  0
 18 66  1  0
 18 67  1  0
 18 68  1  0
 19 20  1  0
 19 69  1  0
 19 70  1  0
 20 24  1  0
 20 21  1  0
 20 71  1  6
 21 22  1  0
 21 23  1  0
 21 72  1  6
 22 73  1  0
 22 74  1  0
 22 98  1  0
 23 24  1  0
 23 75  1  0
 23 76  1  0
 24 25  1  0
 24 77  1  6
 26 25  1  6
 26 31  1  0
 26 39  1  0
 26 27  1  0
 27 28  1  0
 27 37  1  0
 27 78  1  6
 28 29  1  0
 28 79  1  6
 29 30  1  1
 29 31  1  0
 30 80  1  0
 30 81  1  0
 30 82  1  0
 31 32  1  0
 31 83  1  1
 32 33  1  1
 32 34  1  0
 33 84  1  0
 34 35  1  0
 34 36  1  0
 35 85  1  0
 35 86  1  0
 35 87  1  0
 36 88  1  0
 36 89  1  0
 36 90  1  0
 37 38  1  0
 37 39  1  0
 38 91  1  0
 38 92  1  0
 38 93  1  0
 39 40  1  0
 39 41  1  6
 40 94  1  0
 40 95  1  0
 40 96  1  0
 41 97  1  0
M  CHG  1  22   1
M  END
>  <i_m_ct_stereo_status>  (27) 
1

>  <s_m_source_file>  (27) 
/var/tmp/pbs.5076255.sched01/tmphbojuwnv/0fr5z8inm.sdf

>  <i_m_source_file_index>  (27) 
18

>  <i_lp_mmshare_version>  (27) 
48012

>  <i_f3d_flags>  (27) 
2

>  <s_epik_input>  (27) 
W0NIM10vQzE9W0NIXS9bQ0BASF0oW0NIXShbQ0gzXSlbQ0gzXSlbQ0BAXShbQ0gzXSkoW0NIMl1bQ0BIXTJbT0hdKVtDQEBdMyhbQ0gzXSlbQ0BIXTRbQ0BdKFtPSF0pKEM1KFtDSDNdKVtDSDNdKVtDQEBIXTJbQ0BIXTFbQ0gyXVtDQEhdNVtDQEBdKFtDSDNdKShbQ0BASF0zW0NAQEhdKFtDQF00NjcpTihbQ0gzXSlbQ0BdNyhbQ0gzXSlbT0hdKVtDSDJdW0NAQEhdOFtDQEhdKE82KVtDSDJdW0NAQEhdOFtOSDJd

>  <s_epik_cmdline>  (27) 
J2VwaWtfcHl0aG9uJywgJy1waHQnLCAnMi4wJywgJy1waCcsICc3LjAnLCAnLXRuJywgJzgnLCAnLW1hJywgJzIwMCcsICctaW1hZScsICc8aW5maWxlLm1hZT4nLCAnLW9tYWUnLCAnPG91dGZpbGUubWFlPic=

>  <r_epik_Ionization_Penalty>  (27) 
1.30795

>  <r_epik_Ionization_Penalty_Charging>  (27) 
0.000934019

>  <r_epik_Ionization_Penalty_Neutral>  (27) 
1.30702

>  <r_epik_State_Penalty>  (27) 
1.4105

>  <r_epik_Charging_Adjusted_Penalty>  (27) 
1.41143

>  <i_epik_Tot_Q>  (27) 
1

>  <i_epik_Tot_abs_Q>  (27) 
1

>  <s_lp_Force_Field>  (27) 
OPLS3e

>  <r_lp_Energy>  (27) 
391.997

>  <b_lp_Chiralities_Consistent>  (27) 
0

>  <s_lp_Variant>  (27) 
11:0-5

>  <s_i_glide_gridfile>  (27) 
pfpi4k_grid

>  <i_i_glide_lignum>  (27) 
18

>  <i_i_glide_rotatable_bonds>  (27) 
4

>  <r_i_docking_score>  (27) 
-2.91709

>  <r_i_glide_ligand_efficiency>  (27) 
-0.0711486

>  <r_i_glide_ligand_efficiency_sa>  (27) 
-0.245336

>  <r_i_glide_ligand_efficiency_ln>  (27) 
-0.618871

>  <r_i_glide_gscore>  (27) 
-2.91709

>  <r_i_glide_lipo>  (27) 
-0.44272

>  <r_i_glide_hbond>  (27) 
-0.2

>  <r_i_glide_metal>  (27) 
-0

>  <r_i_glide_rewards>  (27) 
-0.000496619

>  <r_i_glide_evdw>  (27) 
-22.4951

>  <r_i_glide_ecoul>  (27) 
-7.01341

>  <r_i_glide_erotb>  (27) 
0

>  <r_i_glide_esite>  (27) 
-0.0971093

>  <r_i_glide_emodel>  (27) 
-34.9074

>  <r_i_glide_energy>  (27) 
-29.5085

>  <r_i_glide_einternal>  (27) 
0.480445

>  <r_i_glide_intrahb_reward>  (27) 
-0

>  <i_i_glide_confnum>  (27) 
2

>  <i_i_glide_posenum>  (27) 
9

>  <r_i_glide_eff_state_penalty>  (27) 
0

>  <ligand_id>  (27) 
11

>  <original_smiles>  (27) 
CC1=CC(C(C)C)C2(C)CC(O)C3C1CC1C4(C)CC5C(N)CC5OC56C(C4C2(C)C5C3(O)C1(C)C)N(C)C6(C)O

>  <smiles>  (27) 
[H]OC1([H])C([H])([H])C2(C([H])([H])[H])C([H])(C([H])(C([H])([H])[H])C([H])([H])[H])C([H])=C(C([H])([H])[H])C3([H])C([H])([H])C4([H])C5(C([H])([H])[H])C([H])([H])C6([H])C([H])(OC78C([H])(N(C([H])([H])[H])C7(O[H])C([H])([H])[H])C5([H])C2(C([H])([H])[H])C8([H])C(O[H])(C13[H])C4(C([H])([H])[H])C([H])([H])[H])C([H])([H])C6([H])[N+]([H])([H])[H]

$$$$
11:4:1
     RDKit          3D

 98105  0  0  1  0  0  0  0  0999 V2000
    2.8670   -9.9669    3.6643 C   0  0  0  0  0  0  0  0  0  0  0  0
    2.9976   -8.6561    2.9001 C   0  0  0  0  0  0  0  0  0  0  0  0
    2.1190   -7.6730    2.7496 C   0  0  0  0  0  0  0  0  0  0  0  0
    1.0827   -7.1297    3.6037 C   0  0  1  0  0  0  0  0  0  0  0  0
   -0.0583   -8.1685    3.9716 C   0  0  0  0  0  0  0  0  0  0  0  0
   -0.3746   -9.1522    2.8160 C   0  0  0  0  0  0  0  0  0  0  0  0
   -1.4290   -7.5205    4.2950 C   0  0  0  0  0  0  0  0  0  0  0  0
    1.9856   -6.2647    4.6053 C   0  0  1  0  0  0  0  0  0  0  0  0
    0.8380   -5.9861    5.6738 C   0  0  0  0  0  0  0  0  0  0  0  0
    2.9518   -7.1465    5.4735 C   0  0  0  0  0  0  0  0  0  0  0  0
    4.4538   -7.3084    5.1312 C   0  0  1  0  0  0  0  0  0  0  0  0
    4.9198   -8.4924    5.7495 O   0  0  0  0  0  0  0  0  0  0  0  0
    4.9835   -7.2169    3.6655 C   0  0  1  0  0  0  0  0  0  0  0  0
    4.3620   -8.1631    2.5180 C   0  0  2  0  0  0  0  0  0  0  0  0
    4.3152   -7.5325    1.0642 C   0  0  0  0  0  0  0  0  0  0  0  0
    4.5552   -5.9842    0.9709 C   0  0  1  0  0  0  0  0  0  0  0  0
    3.1927   -4.9931    1.0205 C   0  0  2  0  0  0  0  0  0  0  0  0
    1.9847   -5.6986    0.2852 C   0  0  0  0  0  0  0  0  0  0  0  0
    3.3627   -3.9040   -0.1448 C   0  0  0  0  0  0  0  0  0  0  0  0
    4.6258   -3.0472   -0.3441 C   0  0  1  0  0  0  0  0  0  0  0  0
    4.5095   -1.6867   -1.0856 C   0  0  1  0  0  0  0  0  0  0  0  0
    3.2616   -1.4517   -1.8446 N   0  0  0  0  0  0  0  0  0  0  0  0
    4.6092   -0.9636    0.2628 C   0  0  0  0  0  0  0  0  0  0  0  0
    5.3334   -2.2390    0.7614 C   0  0  1  0  0  0  0  0  0  0  0  0
    5.4691   -2.7381    2.1270 O   0  0  0  0  0  0  0  0  0  0  0  0
    4.4184   -3.0818    3.0337 C   0  0  1  0  0  0  0  0  0  0  0  0
    3.0398   -2.8940    2.4569 C   0  0  1  0  0  0  0  0  0  0  0  0
    2.5079   -4.3396    2.4301 C   0  0  2  0  0  0  0  0  0  0  0  0
    2.8182   -4.9199    3.9350 C   0  0  1  0  0  0  0  0  0  0  0  0
    2.4452   -4.0148    5.1792 C   0  0  0  0  0  0  0  0  0  0  0  0
    4.3982   -4.5634    3.7767 C   0  0  1  0  0  0  0  0  0  0  0  0
    5.4097   -5.7326    3.2817 C   0  0  1  0  0  0  0  0  0  0  0  0
    6.5802   -5.4802    4.0500 O   0  0  0  0  0  0  0  0  0  0  0  0
    5.9220   -5.8012    1.7970 C   0  0  0  0  0  0  0  0  0  0  0  0
    6.9708   -6.9966    1.5870 C   0  0  0  0  0  0  0  0  0  0  0  0
    6.9801   -4.7432    1.3112 C   0  0  0  0  0  0  0  0  0  0  0  0
    2.7884   -1.9244    3.5292 N   0  0  0  0  0  0  0  0  0  0  0  0
    1.9124   -0.7864    3.2374 C   0  0  0  0  0  0  0  0  0  0  0  0
    4.2254   -1.7149    3.7714 C   0  0  1  0  0  0  0  0  0  0  0  0
    4.7782   -1.4933    5.1915 C   0  0  0  0  0  0  0  0  0  0  0  0
    4.5819   -0.5220    3.1052 O   0  0  0  0  0  0  0  0  0  0  0  0
    2.7334  -10.7799    2.9519 H   0  0  0  0  0  0  0  0  0  0  0  0
    2.0221   -9.9781    4.3474 H   0  0  0  0  0  0  0  0  0  0  0  0
    3.7652  -10.1947    4.2336 H   0  0  0  0  0  0  0  0  0  0  0  0
    2.5326   -6.8173    2.3240 H   0  0  0  0  0  0  0  0  0  0  0  0
    0.5605   -6.4004    2.9870 H   0  0  0  0  0  0  0  0  0  0  0  0
    0.2390   -8.7718    4.8306 H   0  0  0  0  0  0  0  0  0  0  0  0
   -0.7135   -8.6253    1.9235 H   0  0  0  0  0  0  0  0  0  0  0  0
   -1.1670   -9.8457    3.1013 H   0  0  0  0  0  0  0  0  0  0  0  0
    0.4658   -9.7766    2.5274 H   0  0  0  0  0  0  0  0  0  0  0  0
   -1.7350   -6.8076    3.5293 H   0  0  0  0  0  0  0  0  0  0  0  0
   -1.4878   -7.0205    5.2572 H   0  0  0  0  0  0  0  0  0  0  0  0
   -2.1872   -8.2987    4.3384 H   0  0  0  0  0  0  0  0  0  0  0  0
    1.1038   -5.5017    6.6145 H   0  0  0  0  0  0  0  0  0  0  0  0
    0.4603   -6.9211    6.0864 H   0  0  0  0  0  0  0  0  0  0  0  0
    0.0165   -5.4080    5.2434 H   0  0  0  0  0  0  0  0  0  0  0  0
    2.9711   -6.7590    6.4928 H   0  0  0  0  0  0  0  0  0  0  0  0
    2.4956   -8.1266    5.6083 H   0  0  0  0  0  0  0  0  0  0  0  0
    4.9748   -6.5375    5.6981 H   0  0  0  0  0  0  0  0  0  0  0  0
    4.4661   -9.2271    5.3642 H   0  0  0  0  0  0  0  0  0  0  0  0
    5.9474   -7.7111    3.7966 H   0  0  0  0  0  0  0  0  0  0  0  0
    4.9500   -9.0804    2.4524 H   0  0  0  0  0  0  0  0  0  0  0  0
    5.0372   -8.0546    0.4372 H   0  0  0  0  0  0  0  0  0  0  0  0
    3.4084   -7.8222    0.5439 H   0  0  0  0  0  0  0  0  0  0  0  0
    4.8772   -5.8794   -0.0673 H   0  0  0  0  0  0  0  0  0  0  0  0
    1.2820   -4.9840   -0.1310 H   0  0  0  0  0  0  0  0  0  0  0  0
    1.3353   -6.3561    0.8411 H   0  0  0  0  0  0  0  0  0  0  0  0
    2.3224   -6.2471   -0.5620 H   0  0  0  0  0  0  0  0  0  0  0  0
    3.3024   -4.4163   -1.1084 H   0  0  0  0  0  0  0  0  0  0  0  0
    2.4772   -3.2641   -0.1748 H   0  0  0  0  0  0  0  0  0  0  0  0
    5.3528   -3.6158   -0.9209 H   0  0  0  0  0  0  0  0  0  0  0  0
    5.3984   -1.4846   -1.6915 H   0  0  0  0  0  0  0  0  0  0  0  0
    2.4313   -1.5992   -1.2742 H   0  0  0  0  0  0  0  0  0  0  0  0
    3.2148   -2.0634   -2.6419 H   0  0  0  0  0  0  0  0  0  0  0  0
    5.2413   -0.0728    0.2480 H   0  0  0  0  0  0  0  0  0  0  0  0
    3.6307   -0.7259    0.6745 H   0  0  0  0  0  0  0  0  0  0  0  0
    6.3723   -2.0890    0.4447 H   0  0  0  0  0  0  0  0  0  0  0  0
    2.9236   -2.3419    1.5481 H   0  0  0  0  0  0  0  0  0  0  0  0
    1.4253   -4.2923    2.3206 H   0  0  0  0  0  0  0  0  0  0  0  0
    3.0066   -3.1467    5.4306 H   0  0  0  0  0  0  0  0  0  0  0  0
    2.7286   -4.4881    6.1177 H   0  0  0  0  0  0  0  0  0  0  0  0
    1.4086   -3.6670    5.1656 H   0  0  0  0  0  0  0  0  0  0  0  0
    4.7326   -4.4044    4.7998 H   0  0  0  0  0  0  0  0  0  0  0  0
    7.2218   -6.1316    3.8192 H   0  0  0  0  0  0  0  0  0  0  0  0
    7.8757   -6.8692    2.1878 H   0  0  0  0  0  0  0  0  0  0  0  0
    7.2970   -7.0454    0.5459 H   0  0  0  0  0  0  0  0  0  0  0  0
    6.6970   -8.0158    1.8227 H   0  0  0  0  0  0  0  0  0  0  0  0
    7.2488   -3.9979    2.0655 H   0  0  0  0  0  0  0  0  0  0  0  0
    6.7427   -4.2893    0.3761 H   0  0  0  0  0  0  0  0  0  0  0  0
    7.9921   -5.0876    1.0918 H   0  0  0  0  0  0  0  0  0  0  0  0
    1.8858   -0.1044    4.0940 H   0  0  0  0  0  0  0  0  0  0  0  0
    0.8979   -1.1513    3.0667 H   0  0  0  0  0  0  0  0  0  0  0  0
    2.2214   -0.2216    2.3512 H   0  0  0  0  0  0  0  0  0  0  0  0
    4.8705   -2.4013    5.7880 H   0  0  0  0  0  0  0  0  0  0  0  0
    4.1788   -0.7838    5.7540 H   0  0  0  0  0  0  0  0  0  0  0  0
    5.7937   -1.0967    5.1713 H   0  0  0  0  0  0  0  0  0  0  0  0
    5.4982   -0.6267    2.9036 H   0  0  0  0  0  0  0  0  0  0  0  0
    3.2149   -0.4917   -2.1543 H   0  0  0  0  0  0  0  0  0  0  0  0
  1  2  1  0
  1 42  1  0
  1 43  1  0
  1 44  1  0
  2 14  1  0
  2  3  2  3
  3  4  1  0
  3 45  1  0
  4  5  1  0
  4  8  1  0
  4 46  1  6
  5  6  1  0
  5  7  1  0
  5 47  1  0
  6 48  1  0
  6 49  1  0
  6 50  1  0
  7 51  1  0
  7 52  1  0
  7 53  1  0
  8 29  1  0
  8  9  1  1
  8 10  1  0
  9 54  1  0
  9 55  1  0
  9 56  1  0
 10 11  1  0
 10 57  1  0
 10 58  1  0
 11 12  1  0
 11 13  1  0
 11 59  1  1
 12 60  1  0
 13 32  1  0
 13 14  1  0
 13 61  1  1
 14 15  1  0
 14 62  1  6
 15 16  1  0
 15 63  1  0
 15 64  1  0
 16 34  1  0
 16 17  1  0
 16 65  1  6
 17 28  1  0
 17 18  1  6
 17 19  1  0
 18 66  1  0
 18 67  1  0
 18 68  1  0
 19 20  1  0
 19 69  1  0
 19 70  1  0
 20 24  1  0
 20 21  1  0
 20 71  1  6
 21 22  1  0
 21 23  1  0
 21 72  1  6
 22 73  1  0
 22 74  1  0
 22 98  1  0
 23 24  1  0
 23 75  1  0
 23 76  1  0
 24 25  1  0
 24 77  1  6
 26 25  1  6
 26 31  1  0
 26 39  1  0
 26 27  1  0
 27 28  1  0
 27 37  1  0
 27 78  1  6
 28 29  1  0
 28 79  1  6
 29 30  1  1
 29 31  1  0
 30 80  1  0
 30 81  1  0
 30 82  1  0
 31 32  1  0
 31 83  1  1
 32 33  1  1
 32 34  1  0
 33 84  1  0
 34 35  1  0
 34 36  1  0
 35 85  1  0
 35 86  1  0
 35 87  1  0
 36 88  1  0
 36 89  1  0
 36 90  1  0
 37 38  1  0
 37 39  1  0
 38 91  1  0
 38 92  1  0
 38 93  1  0
 39 40  1  0
 39 41  1  6
 40 94  1  0
 40 95  1  0
 40 96  1  0
 41 97  1  0
M  CHG  1  22   1
M  END
>  <i_m_ct_stereo_status>  (28) 
1

>  <s_m_source_file>  (28) 
/var/tmp/pbs.5076255.sched01/tmphbojuwnv/0fr5z8inm.sdf

>  <i_m_source_file_index>  (28) 
18

>  <i_lp_mmshare_version>  (28) 
48012

>  <i_f3d_flags>  (28) 
2

>  <s_epik_input>  (28) 
W0NIM10vQzE9W0NIXS9bQ0BASF0oW0NIXShbQ0gzXSlbQ0gzXSlbQ0BAXShbQ0gzXSkoW0NIMl1bQ0BIXTJbT0hdKVtDQEBdMyhbQ0gzXSlbQ0BIXTRbQ0BdKFtPSF0pKEM1KFtDSDNdKVtDSDNdKVtDQEBIXTJbQ0BIXTFbQ0gyXVtDQEhdNVtDQEBdKFtDSDNdKShbQ0BASF0zW0NAQEhdKFtDQF00NjcpTihbQ0gzXSlbQ0BdNyhbQ0gzXSlbT0hdKVtDSDJdW0NAQEhdOFtDQEhdKE82KVtDSDJdW0NAQEhdOFtOSDJd

>  <s_epik_cmdline>  (28) 
J2VwaWtfcHl0aG9uJywgJy1waHQnLCAnMi4wJywgJy1waCcsICc3LjAnLCAnLXRuJywgJzgnLCAnLW1hJywgJzIwMCcsICctaW1hZScsICc8aW5maWxlLm1hZT4nLCAnLW9tYWUnLCAnPG91dGZpbGUubWFlPic=

>  <r_epik_Ionization_Penalty>  (28) 
1.30795

>  <r_epik_Ionization_Penalty_Charging>  (28) 
0.000934019

>  <r_epik_Ionization_Penalty_Neutral>  (28) 
1.30702

>  <r_epik_State_Penalty>  (28) 
1.4105

>  <r_epik_Charging_Adjusted_Penalty>  (28) 
1.41143

>  <i_epik_Tot_Q>  (28) 
1

>  <i_epik_Tot_abs_Q>  (28) 
1

>  <s_lp_Force_Field>  (28) 
OPLS3e

>  <r_lp_Energy>  (28) 
391.997

>  <b_lp_Chiralities_Consistent>  (28) 
0

>  <s_lp_Variant>  (28) 
11:0-5

>  <s_i_glide_gridfile>  (28) 
pfpi4k_grid

>  <i_i_glide_lignum>  (28) 
18

>  <i_i_glide_rotatable_bonds>  (28) 
4

>  <r_i_docking_score>  (28) 
-2.86195

>  <r_i_glide_ligand_efficiency>  (28) 
-0.0698037

>  <r_i_glide_ligand_efficiency_sa>  (28) 
-0.240698

>  <r_i_glide_ligand_efficiency_ln>  (28) 
-0.607173

>  <r_i_glide_gscore>  (28) 
-2.86195

>  <r_i_glide_lipo>  (28) 
-0.562659

>  <r_i_glide_hbond>  (28) 
-0.185344

>  <r_i_glide_metal>  (28) 
-0

>  <r_i_glide_rewards>  (28) 
-0.0109744

>  <r_i_glide_evdw>  (28) 
-23.135

>  <r_i_glide_ecoul>  (28) 
-5.64149

>  <r_i_glide_erotb>  (28) 
0

>  <r_i_glide_esite>  (28) 
-0.1

>  <r_i_glide_emodel>  (28) 
-34.232

>  <r_i_glide_energy>  (28) 
-28.7765

>  <r_i_glide_einternal>  (28) 
0.160475

>  <r_i_glide_intrahb_reward>  (28) 
-0

>  <i_i_glide_confnum>  (28) 
2

>  <i_i_glide_posenum>  (28) 
18

>  <r_i_glide_eff_state_penalty>  (28) 
0

>  <ligand_id>  (28) 
11

>  <original_smiles>  (28) 
CC1=CC(C(C)C)C2(C)CC(O)C3C1CC1C4(C)CC5C(N)CC5OC56C(C4C2(C)C5C3(O)C1(C)C)N(C)C6(C)O

>  <smiles>  (28) 
[H]OC1([H])C([H])([H])C2(C([H])([H])[H])C([H])(C([H])(C([H])([H])[H])C([H])([H])[H])C([H])=C(C([H])([H])[H])C3([H])C([H])([H])C4([H])C5(C([H])([H])[H])C([H])([H])C6([H])C([H])(OC78C([H])(N(C([H])([H])[H])C7(O[H])C([H])([H])[H])C5([H])C2(C([H])([H])[H])C8([H])C(O[H])(C13[H])C4(C([H])([H])[H])C([H])([H])[H])C([H])([H])C6([H])[N+]([H])([H])[H]

$$$$
11:4:2
     RDKit          3D

 98105  0  0  1  0  0  0  0  0999 V2000
    2.2699   -7.8499    7.7341 C   0  0  0  0  0  0  0  0  0  0  0  0
    2.3444   -7.1121    6.4257 C   0  0  0  0  0  0  0  0  0  0  0  0
    1.5851   -6.1590    5.9278 C   0  0  0  0  0  0  0  0  0  0  0  0
    0.8962   -4.9990    6.5237 C   0  0  1  0  0  0  0  0  0  0  0  0
   -0.2725   -5.3399    7.5583 C   0  0  0  0  0  0  0  0  0  0  0  0
   -1.4849   -4.3692    7.4677 C   0  0  0  0  0  0  0  0  0  0  0  0
   -0.0004   -5.5606    9.0803 C   0  0  0  0  0  0  0  0  0  0  0  0
    2.0842   -3.9538    6.7174 C   0  0  1  0  0  0  0  0  0  0  0  0
    1.2419   -2.8703    7.5429 C   0  0  0  0  0  0  0  0  0  0  0  0
    3.0947   -4.4955    7.7818 C   0  0  0  0  0  0  0  0  0  0  0  0
    4.4369   -5.1752    7.4057 C   0  0  1  0  0  0  0  0  0  0  0  0
    4.8298   -5.9776    8.5083 O   0  0  0  0  0  0  0  0  0  0  0  0
    4.6219   -5.9658    6.0653 C   0  0  1  0  0  0  0  0  0  0  0  0
    3.6274   -7.1768    5.6816 C   0  0  2  0  0  0  0  0  0  0  0  0
    3.3515   -7.3832    4.1376 C   0  0  0  0  0  0  0  0  0  0  0  0
    3.8010   -6.1974    3.1953 C   0  0  1  0  0  0  0  0  0  0  0  0
    2.6339   -5.0214    2.8686 C   0  0  2  0  0  0  0  0  0  0  0  0
    1.2075   -5.7006    2.7736 C   0  0  0  0  0  0  0  0  0  0  0  0
    2.6932   -4.7493    1.2942 C   0  0  0  0  0  0  0  0  0  0  0  0
    3.9925   -4.4410    0.5268 C   0  0  1  0  0  0  0  0  0  0  0  0
    3.9007   -3.6397   -0.8091 C   0  0  1  0  0  0  0  0  0  0  0  0
    2.5611   -3.5061   -1.4384 N   0  0  0  0  0  0  0  0  0  0  0  0
    4.4013   -2.3906   -0.0698 C   0  0  0  0  0  0  0  0  0  0  0  0
    5.0324   -3.3737    0.9390 C   0  0  1  0  0  0  0  0  0  0  0  0
    5.3926   -3.1610    2.3319 O   0  0  0  0  0  0  0  0  0  0  0  0
    4.5398   -2.6996    3.3857 C   0  0  1  0  0  0  0  0  0  0  0  0
    3.0980   -2.5111    2.9604 C   0  0  1  0  0  0  0  0  0  0  0  0
    2.3813   -3.6042    3.7783 C   0  0  2  0  0  0  0  0  0  0  0  0
    2.9311   -3.3997    5.3169 C   0  0  1  0  0  0  0  0  0  0  0  0
    2.9956   -1.9196    5.8864 C   0  0  0  0  0  0  0  0  0  0  0  0
    4.4743   -3.5602    4.8067 C   0  0  1  0  0  0  0  0  0  0  0  0
    5.1729   -5.0325    4.8973 C   0  0  1  0  0  0  0  0  0  0  0  0
    6.5042   -4.7452    5.2822 O   0  0  0  0  0  0  0  0  0  0  0  0
    5.3280   -5.9596    3.6331 C   0  0  0  0  0  0  0  0  0  0  0  0
    6.1062   -7.3141    3.9956 C   0  0  0  0  0  0  0  0  0  0  0  0
    6.3883   -5.5819    2.5483 C   0  0  0  0  0  0  0  0  0  0  0  0
    3.2197   -1.1070    3.3529 N   0  0  0  0  0  0  0  0  0  0  0  0
    2.4724   -0.0914    2.6082 C   0  0  0  0  0  0  0  0  0  0  0  0
    4.7013   -1.1416    3.2872 C   0  0  1  0  0  0  0  0  0  0  0  0
    5.5838   -0.3725    4.3047 C   0  0  0  0  0  0  0  0  0  0  0  0
    5.0860   -0.5729    2.0494 O   0  0  0  0  0  0  0  0  0  0  0  0
    1.8775   -8.8457    7.5799 H   0  0  0  0  0  0  0  0  0  0  0  0
    1.6932   -7.3060    8.3798 H   0  0  0  0  0  0  0  0  0  0  0  0
    3.2440   -7.9748    8.1774 H   0  0  0  0  0  0  0  0  0  0  0  0
    1.9865   -5.7351    5.0375 H   0  0  0  0  0  0  0  0  0  0  0  0
    0.3542   -4.5875    5.6556 H   0  0  0  0  0  0  0  0  0  0  0  0
   -0.6832   -6.2465    7.1462 H   0  0  0  0  0  0  0  0  0  0  0  0
   -1.2554   -3.3584    7.8155 H   0  0  0  0  0  0  0  0  0  0  0  0
   -2.3249   -4.7225    8.0841 H   0  0  0  0  0  0  0  0  0  0  0  0
   -1.9273   -4.2557    6.4745 H   0  0  0  0  0  0  0  0  0  0  0  0
    0.6150   -4.7921    9.5052 H   0  0  0  0  0  0  0  0  0  0  0  0
    0.3458   -6.5221    9.3743 H   0  0  0  0  0  0  0  0  0  0  0  0
   -0.9519   -5.4918    9.5933 H   0  0  0  0  0  0  0  0  0  0  0  0
    1.8059   -2.0662    8.0030 H   0  0  0  0  0  0  0  0  0  0  0  0
    0.7714   -3.2455    8.4189 H   0  0  0  0  0  0  0  0  0  0  0  0
    0.4966   -2.3969    6.9021 H   0  0  0  0  0  0  0  0  0  0  0  0
    3.3904   -3.6776    8.4328 H   0  0  0  0  0  0  0  0  0  0  0  0
    2.5671   -5.1670    8.4538 H   0  0  0  0  0  0  0  0  0  0  0  0
    5.1849   -4.3804    7.4138 H   0  0  0  0  0  0  0  0  0  0  0  0
    5.6729   -6.3662    8.3234 H   0  0  0  0  0  0  0  0  0  0  0  0
    5.5185   -6.5395    6.3306 H   0  0  0  0  0  0  0  0  0  0  0  0
    4.0793   -8.1039    6.0225 H   0  0  0  0  0  0  0  0  0  0  0  0
    3.8489   -8.3059    3.8024 H   0  0  0  0  0  0  0  0  0  0  0  0
    2.3250   -7.6797    3.9490 H   0  0  0  0  0  0  0  0  0  0  0  0
    3.8963   -6.7175    2.2396 H   0  0  0  0  0  0  0  0  0  0  0  0
    0.5466   -5.0871    2.1759 H   0  0  0  0  0  0  0  0  0  0  0  0
    0.6093   -5.8107    3.6670 H   0  0  0  0  0  0  0  0  0  0  0  0
    1.2401   -6.6824    2.2935 H   0  0  0  0  0  0  0  0  0  0  0  0
    2.3401   -5.6403    0.7685 H   0  0  0  0  0  0  0  0  0  0  0  0
    1.9444   -4.0102    1.0340 H   0  0  0  0  0  0  0  0  0  0  0  0
    4.4760   -5.3804    0.2518 H   0  0  0  0  0  0  0  0  0  0  0  0
    4.6282   -3.9898   -1.5484 H   0  0  0  0  0  0  0  0  0  0  0  0
    1.8755   -3.1926   -0.7707 H   0  0  0  0  0  0  0  0  0  0  0  0
    2.2951   -4.4131   -1.8075 H   0  0  0  0  0  0  0  0  0  0  0  0
    5.1277   -1.8077   -0.6301 H   0  0  0  0  0  0  0  0  0  0  0  0
    3.5915   -1.7550    0.2663 H   0  0  0  0  0  0  0  0  0  0  0  0
    5.9870   -3.6533    0.4904 H   0  0  0  0  0  0  0  0  0  0  0  0
    2.8588   -2.4883    1.9238 H   0  0  0  0  0  0  0  0  0  0  0  0
    1.3164   -3.3734    3.7805 H   0  0  0  0  0  0  0  0  0  0  0  0
    3.7074   -1.2042    5.5671 H   0  0  0  0  0  0  0  0  0  0  0  0
    3.4228   -1.9055    6.8824 H   0  0  0  0  0  0  0  0  0  0  0  0
    2.0492   -1.3795    5.7926 H   0  0  0  0  0  0  0  0  0  0  0  0
    5.0516   -2.9953    5.5370 H   0  0  0  0  0  0  0  0  0  0  0  0
    6.9159   -4.3301    4.5601 H   0  0  0  0  0  0  0  0  0  0  0  0
    7.1320   -7.1231    4.3243 H   0  0  0  0  0  0  0  0  0  0  0  0
    6.1615   -7.9761    3.1276 H   0  0  0  0  0  0  0  0  0  0  0  0
    5.7601   -7.9702    4.7811 H   0  0  0  0  0  0  0  0  0  0  0  0
    6.9320   -4.6620    2.7478 H   0  0  0  0  0  0  0  0  0  0  0  0
    6.0128   -5.6176    1.5521 H   0  0  0  0  0  0  0  0  0  0  0  0
    7.2538   -6.2293    2.4361 H   0  0  0  0  0  0  0  0  0  0  0  0
    2.7247    0.9186    2.9606 H   0  0  0  0  0  0  0  0  0  0  0  0
    1.4077   -0.2365    2.7805 H   0  0  0  0  0  0  0  0  0  0  0  0
    2.6448   -0.1303    1.5245 H   0  0  0  0  0  0  0  0  0  0  0  0
    5.6873   -0.8739    5.2590 H   0  0  0  0  0  0  0  0  0  0  0  0
    5.2046    0.6235    4.4789 H   0  0  0  0  0  0  0  0  0  0  0  0
    6.5999   -0.2314    3.9471 H   0  0  0  0  0  0  0  0  0  0  0  0
    6.0233   -0.6968    1.9968 H   0  0  0  0  0  0  0  0  0  0  0  0
    2.5780   -2.8428   -2.1995 H   0  0  0  0  0  0  0  0  0  0  0  0
  1  2  1  0
  1 42  1  0
  1 43  1  0
  1 44  1  0
  2 14  1  0
  2  3  2  3
  3  4  1  0
  3 45  1  0
  4  5  1  0
  4  8  1  0
  4 46  1  6
  5  6  1  0
  5  7  1  0
  5 47  1  0
  6 48  1  0
  6 49  1  0
  6 50  1  0
  7 51  1  0
  7 52  1  0
  7 53  1  0
  8 29  1  0
  8  9  1  1
  8 10  1  0
  9 54  1  0
  9 55  1  0
  9 56  1  0
 10 11  1  0
 10 57  1  0
 10 58  1  0
 11 12  1  0
 11 13  1  0
 11 59  1  6
 12 60  1  0
 13 32  1  0
 13 14  1  0
 13 61  1  1
 14 15  1  0
 14 62  1  1
 15 16  1  0
 15 63  1  0
 15 64  1  0
 16 34  1  0
 16 17  1  0
 16 65  1  6
 17 28  1  0
 17 18  1  6
 17 19  1  0
 18 66  1  0
 18 67  1  0
 18 68  1  0
 19 20  1  0
 19 69  1  0
 19 70  1  0
 20 24  1  0
 20 21  1  0
 20 71  1  6
 21 22  1  0
 21 23  1  0
 21 72  1  6
 22 73  1  0
 22 74  1  0
 22 98  1  0
 23 24  1  0
 23 75  1  0
 23 76  1  0
 24 25  1  0
 24 77  1  6
 26 25  1  6
 26 31  1  0
 26 39  1  0
 26 27  1  0
 27 28  1  0
 27 37  1  0
 27 78  1  6
 28 29  1  0
 28 79  1  1
 29 30  1  1
 29 31  1  0
 30 80  1  0
 30 81  1  0
 30 82  1  0
 31 32  1  0
 31 83  1  1
 32 33  1  1
 32 34  1  0
 33 84  1  0
 34 35  1  0
 34 36  1  0
 35 85  1  0
 35 86  1  0
 35 87  1  0
 36 88  1  0
 36 89  1  0
 36 90  1  0
 37 38  1  0
 37 39  1  0
 38 91  1  0
 38 92  1  0
 38 93  1  0
 39 40  1  0
 39 41  1  6
 40 94  1  0
 40 95  1  0
 40 96  1  0
 41 97  1  0
M  CHG  1  22   1
M  END
>  <i_m_ct_stereo_status>  (29) 
1

>  <s_m_source_file>  (29) 
/var/tmp/pbs.5076255.sched01/tmphbojuwnv/0fr5z8inm.sdf

>  <i_m_source_file_index>  (29) 
18

>  <i_lp_mmshare_version>  (29) 
48012

>  <i_f3d_flags>  (29) 
2

>  <s_epik_input>  (29) 
W0NIM10vQzE9W0NIXS9bQ0BASF0oW0NIXShbQ0gzXSlbQ0gzXSlbQ0BAXShbQ0gzXSkoW0NIMl1bQ0BIXTJbT0hdKVtDQEBdMyhbQ0gzXSlbQ0BIXTRbQ0BdKFtPSF0pKEM1KFtDSDNdKVtDSDNdKVtDQEBIXTJbQ0BIXTFbQ0gyXVtDQEhdNVtDQEBdKFtDSDNdKShbQ0BASF0zW0NAQEhdKFtDQF00NjcpTihbQ0gzXSlbQ0BdNyhbQ0gzXSlbT0hdKVtDSDJdW0NAQEhdOFtDQEhdKE82KVtDSDJdW0NAQEhdOFtOSDJd

>  <s_epik_cmdline>  (29) 
J2VwaWtfcHl0aG9uJywgJy1waHQnLCAnMi4wJywgJy1waCcsICc3LjAnLCAnLXRuJywgJzgnLCAnLW1hJywgJzIwMCcsICctaW1hZScsICc8aW5maWxlLm1hZT4nLCAnLW9tYWUnLCAnPG91dGZpbGUubWFlPic=

>  <r_epik_Ionization_Penalty>  (29) 
1.30795

>  <r_epik_Ionization_Penalty_Charging>  (29) 
0.000934019

>  <r_epik_Ionization_Penalty_Neutral>  (29) 
1.30702

>  <r_epik_State_Penalty>  (29) 
1.4105

>  <r_epik_Charging_Adjusted_Penalty>  (29) 
1.41143

>  <i_epik_Tot_Q>  (29) 
1

>  <i_epik_Tot_abs_Q>  (29) 
1

>  <s_lp_Force_Field>  (29) 
OPLS3e

>  <r_lp_Energy>  (29) 
391.997

>  <b_lp_Chiralities_Consistent>  (29) 
0

>  <s_lp_Variant>  (29) 
11:0-5

>  <s_i_glide_gridfile>  (29) 
pfpi4k_grid

>  <i_i_glide_lignum>  (29) 
18

>  <i_i_glide_rotatable_bonds>  (29) 
4

>  <r_i_docking_score>  (29) 
-2.09983

>  <r_i_glide_ligand_efficiency>  (29) 
-0.0512154

>  <r_i_glide_ligand_efficiency_sa>  (29) 
-0.176602

>  <r_i_glide_ligand_efficiency_ln>  (29) 
-0.445487

>  <r_i_glide_gscore>  (29) 
-2.09983

>  <r_i_glide_lipo>  (29) 
-0.26606

>  <r_i_glide_hbond>  (29) 
0

>  <r_i_glide_metal>  (29) 
-0

>  <r_i_glide_rewards>  (29) 
-0.0889314

>  <r_i_glide_evdw>  (29) 
-17.2807

>  <r_i_glide_ecoul>  (29) 
-5.87204

>  <r_i_glide_erotb>  (29) 
0

>  <r_i_glide_esite>  (29) 
0

>  <r_i_glide_emodel>  (29) 
-24.2597

>  <r_i_glide_energy>  (29) 
-23.1527

>  <r_i_glide_einternal>  (29) 
2.45751

>  <r_i_glide_intrahb_reward>  (29) 
-0

>  <i_i_glide_confnum>  (29) 
1

>  <i_i_glide_posenum>  (29) 
12

>  <r_i_glide_eff_state_penalty>  (29) 
0

>  <ligand_id>  (29) 
11

>  <original_smiles>  (29) 
CC1=CC(C(C)C)C2(C)CC(O)C3C1CC1C4(C)CC5C(N)CC5OC56C(C4C2(C)C5C3(O)C1(C)C)N(C)C6(C)O

>  <smiles>  (29) 
[H]OC1([H])C([H])([H])C2(C([H])([H])[H])C([H])(C([H])(C([H])([H])[H])C([H])([H])[H])C([H])=C(C([H])([H])[H])C3([H])C([H])([H])C4([H])C5(C([H])([H])[H])C([H])([H])C6([H])C([H])(OC78C([H])(N(C([H])([H])[H])C7(O[H])C([H])([H])[H])C5([H])C2(C([H])([H])[H])C8([H])C(O[H])(C13[H])C4(C([H])([H])[H])C([H])([H])[H])C([H])([H])C6([H])[N+]([H])([H])[H]

$$$$
11:7:0
     RDKit          3D

 98105  0  0  1  0  0  0  0  0999 V2000
    5.3563   -1.0157    5.1017 C   0  0  0  0  0  0  0  0  0  0  0  0
    5.1614   -2.3821    5.7816 C   0  0  0  0  0  0  0  0  0  0  0  0
    6.0835   -2.9812    6.5350 C   0  0  0  0  0  0  0  0  0  0  0  0
    5.9067   -4.2306    7.4279 C   0  0  1  0  0  0  0  0  0  0  0  0
    7.3195   -4.7992    7.7713 C   0  0  0  0  0  0  0  0  0  0  0  0
    8.3438   -3.8253    8.4151 C   0  0  0  0  0  0  0  0  0  0  0  0
    8.0040   -5.3955    6.5243 C   0  0  0  0  0  0  0  0  0  0  0  0
    4.6957   -4.2017    8.5788 C   0  0  1  0  0  0  0  0  0  0  0  0
    5.5204   -3.8617    9.9291 C   0  0  0  0  0  0  0  0  0  0  0  0
    3.8543   -2.8306    8.7700 C   0  0  0  0  0  0  0  0  0  0  0  0
    2.8164   -2.2662    7.7953 C   0  0  1  0  0  0  0  0  0  0  0  0
    3.0186   -0.8827    7.5139 O   0  0  0  0  0  0  0  0  0  0  0  0
    2.6063   -3.0491    6.5200 C   0  0  1  0  0  0  0  0  0  0  0  0
    3.8292   -3.1045    5.5118 C   0  0  2  0  0  0  0  0  0  0  0  0
    4.0296   -4.4630    4.7436 C   0  0  0  0  0  0  0  0  0  0  0  0
    2.9947   -5.6433    5.0138 C   0  0  1  0  0  0  0  0  0  0  0  0
    3.6039   -6.8900    5.9003 C   0  0  2  0  0  0  0  0  0  0  0  0
    5.0472   -7.1784    5.3550 C   0  0  0  0  0  0  0  0  0  0  0  0
    3.0027   -8.2713    5.3674 C   0  0  0  0  0  0  0  0  0  0  0  0
    1.5014   -8.5762    5.2310 C   0  0  1  0  0  0  0  0  0  0  0  0
    1.0058  -10.0522    5.3216 C   0  0  1  0  0  0  0  0  0  0  0  0
    2.0471  -11.1044    5.2719 N   0  0  0  0  0  0  0  0  0  0  0  0
    0.4023   -9.7423    6.7070 C   0  0  0  0  0  0  0  0  0  0  0  0
    0.4161   -8.2618    6.2949 C   0  0  1  0  0  0  0  0  0  0  0  0
    0.4677   -7.1032    7.1714 O   0  0  0  0  0  0  0  0  0  0  0  0
    1.4535   -6.7478    8.1370 C   0  0  1  0  0  0  0  0  0  0  0  0
    2.5747   -7.7420    8.1365 C   0  0  1  0  0  0  0  0  0  0  0  0
    3.7695   -6.8714    7.5603 C   0  0  2  0  0  0  0  0  0  0  0  0
    3.6960   -5.5281    8.4454 C   0  0  1  0  0  0  0  0  0  0  0  0
    4.1209   -6.1155    9.8595 C   0  0  0  0  0  0  0  0  0  0  0  0
    2.1256   -5.2886    8.0564 C   0  0  1  0  0  0  0  0  0  0  0  0
    1.7441   -4.3624    6.7300 C   0  0  1  0  0  0  0  0  0  0  0  0
    0.4440   -3.8991    7.0858 O   0  0  0  0  0  0  0  0  0  0  0  0
    1.5709   -4.9566    5.2538 C   0  0  0  0  0  0  0  0  0  0  0  0
    1.3185   -3.9066    4.0631 C   0  0  0  0  0  0  0  0  0  0  0  0
    0.1703   -5.6447    4.9521 C   0  0  0  0  0  0  0  0  0  0  0  0
    2.2386   -8.0351    9.5770 N   0  0  2  0  0  0  0  0  0  0  0  0
    2.2943   -9.4592   10.0569 C   0  0  0  0  0  0  0  0  0  0  0  0
    0.9538   -7.3058    9.5096 C   0  0  1  0  0  0  0  0  0  0  0  0
    0.6652   -6.3290   10.6696 C   0  0  0  0  0  0  0  0  0  0  0  0
   -0.0072   -8.1481    9.4848 O   0  0  0  0  0  0  0  0  0  0  0  0
    5.4525   -1.1692    4.0287 H   0  0  0  0  0  0  0  0  0  0  0  0
    6.2476   -0.5206    5.4867 H   0  0  0  0  0  0  0  0  0  0  0  0
    4.5102   -0.3361    5.2852 H   0  0  0  0  0  0  0  0  0  0  0  0
    5.5273   -2.7608    7.3334 H   0  0  0  0  0  0  0  0  0  0  0  0
    5.4751   -4.9487    6.7769 H   0  0  0  0  0  0  0  0  0  0  0  0
    7.1644   -5.6183    8.4567 H   0  0  0  0  0  0  0  0  0  0  0  0
    8.7235   -3.0800    7.7124 H   0  0  0  0  0  0  0  0  0  0  0  0
    9.2158   -4.3829    8.7719 H   0  0  0  0  0  0  0  0  0  0  0  0
    8.0010   -3.2702    9.2848 H   0  0  0  0  0  0  0  0  0  0  0  0
    7.7173   -4.8659    5.6144 H   0  0  0  0  0  0  0  0  0  0  0  0
    7.7464   -6.4478    6.4172 H   0  0  0  0  0  0  0  0  0  0  0  0
    9.0952   -5.3551    6.5946 H   0  0  0  0  0  0  0  0  0  0  0  0
    4.9161   -3.8116   10.8436 H   0  0  0  0  0  0  0  0  0  0  0  0
    6.0142   -2.8866    9.9080 H   0  0  0  0  0  0  0  0  0  0  0  0
    6.3599   -4.5137   10.1660 H   0  0  0  0  0  0  0  0  0  0  0  0
    3.3099   -2.8640    9.7071 H   0  0  0  0  0  0  0  0  0  0  0  0
    4.5220   -1.9679    8.9132 H   0  0  0  0  0  0  0  0  0  0  0  0
    1.8645   -2.2361    8.3275 H   0  0  0  0  0  0  0  0  0  0  0  0
    3.8155   -0.7688    7.0187 H   0  0  0  0  0  0  0  0  0  0  0  0
    1.9047   -2.3857    6.0000 H   0  0  0  0  0  0  0  0  0  0  0  0
    3.4968   -2.4347    4.7286 H   0  0  0  0  0  0  0  0  0  0  0  0
    3.9938   -4.2463    3.6720 H   0  0  0  0  0  0  0  0  0  0  0  0
    5.0720   -4.7595    4.7564 H   0  0  0  0  0  0  0  0  0  0  0  0
    2.8835   -6.0843    4.0169 H   0  0  0  0  0  0  0  0  0  0  0  0
    5.4422   -8.1401    5.6845 H   0  0  0  0  0  0  0  0  0  0  0  0
    5.8129   -6.5063    5.6666 H   0  0  0  0  0  0  0  0  0  0  0  0
    5.1133   -7.1580    4.2639 H   0  0  0  0  0  0  0  0  0  0  0  0
    3.3795   -8.4622    4.3577 H   0  0  0  0  0  0  0  0  0  0  0  0
    3.4705   -9.0768    5.9263 H   0  0  0  0  0  0  0  0  0  0  0  0
    1.1873   -8.2546    4.2408 H   0  0  0  0  0  0  0  0  0  0  0  0
    0.2278  -10.2861    4.5899 H   0  0  0  0  0  0  0  0  0  0  0  0
    2.7727  -10.9428    5.9689 H   0  0  0  0  0  0  0  0  0  0  0  0
    2.4496  -11.1808    4.3589 H   0  0  0  0  0  0  0  0  0  0  0  0
   -0.5974  -10.1395    6.8679 H   0  0  0  0  0  0  0  0  0  0  0  0
    1.0384  -10.0286    7.5303 H   0  0  0  0  0  0  0  0  0  0  0  0
   -0.5393   -8.1201    5.7862 H   0  0  0  0  0  0  0  0  0  0  0  0
    2.4900   -8.7084    7.7002 H   0  0  0  0  0  0  0  0  0  0  0  0
    4.7186   -7.3524    7.7846 H   0  0  0  0  0  0  0  0  0  0  0  0
    4.2187   -7.1733   10.0085 H   0  0  0  0  0  0  0  0  0  0  0  0
    3.6640   -5.6344   10.7214 H   0  0  0  0  0  0  0  0  0  0  0  0
    5.1966   -6.1224    9.9772 H   0  0  0  0  0  0  0  0  0  0  0  0
    1.7698   -4.6899    8.8956 H   0  0  0  0  0  0  0  0  0  0  0  0
   -0.1086   -4.6556    7.2222 H   0  0  0  0  0  0  0  0  0  0  0  0
    0.5738   -3.1513    4.3282 H   0  0  0  0  0  0  0  0  0  0  0  0
    0.9617   -4.3910    3.1476 H   0  0  0  0  0  0  0  0  0  0  0  0
    2.1267   -3.3523    3.6190 H   0  0  0  0  0  0  0  0  0  0  0  0
   -0.4977   -5.8023    5.7862 H   0  0  0  0  0  0  0  0  0  0  0  0
    0.2161   -6.4953    4.2906 H   0  0  0  0  0  0  0  0  0  0  0  0
   -0.5609   -5.0256    4.4322 H   0  0  0  0  0  0  0  0  0  0  0  0
    1.6193  -10.1459    9.5674 H   0  0  0  0  0  0  0  0  0  0  0  0
    2.0902   -9.5392   11.1213 H   0  0  0  0  0  0  0  0  0  0  0  0
    3.2955   -9.8613    9.9258 H   0  0  0  0  0  0  0  0  0  0  0  0
    1.4787   -5.6447   10.8557 H   0  0  0  0  0  0  0  0  0  0  0  0
    0.4364   -6.8321   11.6110 H   0  0  0  0  0  0  0  0  0  0  0  0
   -0.2018   -5.7105   10.4263 H   0  0  0  0  0  0  0  0  0  0  0  0
    1.6238  -11.9932    5.5291 H   0  0  0  0  0  0  0  0  0  0  0  0
    2.8373   -7.5252   10.1879 H   0  0  0  0  0  0  0  0  0  0  0  0
  1  2  1  0
  1 42  1  0
  1 43  1  0
  1 44  1  0
  2 14  1  0
  2  3  2  3
  3  4  1  0
  3 45  1  0
  4  5  1  0
  4  8  1  0
  4 46  1  6
  5  6  1  0
  5  7  1  0
  5 47  1  0
  6 48  1  0
  6 49  1  0
  6 50  1  0
  7 51  1  0
  7 52  1  0
  7 53  1  0
  8 29  1  0
  8  9  1  1
  8 10  1  0
  9 54  1  0
  9 55  1  0
  9 56  1  0
 10 11  1  0
 10 57  1  0
 10 58  1  0
 11 12  1  0
 11 13  1  0
 11 59  1  1
 12 60  1  0
 13 32  1  0
 13 14  1  0
 13 61  1  6
 14 15  1  0
 14 62  1  6
 15 16  1  0
 15 63  1  0
 15 64  1  0
 16 34  1  0
 16 17  1  0
 16 65  1  6
 17 28  1  0
 17 18  1  6
 17 19  1  0
 18 66  1  0
 18 67  1  0
 18 68  1  0
 19 20  1  0
 19 69  1  0
 19 70  1  0
 20 24  1  0
 20 21  1  0
 20 71  1  6
 21 22  1  0
 21 23  1  0
 21 72  1  6
 22 73  1  0
 22 74  1  0
 22 97  1  0
 23 24  1  0
 23 75  1  0
 23 76  1  0
 24 25  1  0
 24 77  1  6
 26 25  1  6
 26 31  1  0
 26 39  1  0
 26 27  1  0
 27 28  1  0
 27 37  1  0
 27 78  1  6
 28 29  1  0
 28 79  1  6
 29 30  1  1
 29 31  1  0
 30 80  1  0
 30 81  1  0
 30 82  1  0
 31 32  1  0
 31 83  1  1
 32 33  1  1
 32 34  1  0
 33 84  1  0
 34 35  1  0
 34 36  1  0
 35 85  1  0
 35 86  1  0
 35 87  1  0
 36 88  1  0
 36 89  1  0
 36 90  1  0
 37 38  1  0
 37 39  1  0
 37 98  1  1
 38 91  1  0
 38 92  1  0
 38 93  1  0
 39 40  1  0
 39 41  1  6
 40 94  1  0
 40 95  1  0
 40 96  1  0
M  CHG  3  22   1  37   1  41  -1
M  END
>  <i_m_ct_stereo_status>  (30) 
1

>  <s_m_source_file>  (30) 
/var/tmp/pbs.5076255.sched01/tmphbojuwnv/0fr5z8inm.sdf

>  <i_m_source_file_index>  (30) 
21

>  <i_lp_mmshare_version>  (30) 
48012

>  <i_f3d_flags>  (30) 
2

>  <s_epik_input>  (30) 
W0NIM10vQzE9W0NIXS9bQ0BASF0oW0NIXShbQ0gzXSlbQ0gzXSlbQ0BAXShbQ0gzXSkoW0NIMl1bQ0BIXTJbT0hdKVtDQEBdMyhbQ0gzXSlbQ0BIXTRbQ0BdKFtPSF0pKEM1KFtDSDNdKVtDSDNdKVtDQEBIXTJbQ0BIXTFbQ0gyXVtDQEhdNVtDQEBdKFtDSDNdKShbQ0BASF0zW0NAQEhdKFtDQF00NjcpTihbQ0gzXSlbQ0BdNyhbQ0gzXSlbT0hdKVtDSDJdW0NAQEhdOFtDQEhdKE82KVtDSDJdW0NAQEhdOFtOSDJd

>  <s_epik_cmdline>  (30) 
J2VwaWtfcHl0aG9uJywgJy1waHQnLCAnMi4wJywgJy1waCcsICc3LjAnLCAnLXRuJywgJzgnLCAnLW1hJywgJzIwMCcsICctaW1hZScsICc8aW5maWxlLm1hZT4nLCAnLW9tYWUnLCAnPG91dGZpbGUubWFlPic=

>  <r_epik_Ionization_Penalty>  (30) 
1.64423

>  <r_epik_Ionization_Penalty_Charging>  (30) 
1.64423

>  <r_epik_Ionization_Penalty_Neutral>  (30) 
9.19537e-07

>  <r_epik_State_Penalty>  (30) 
1.80105

>  <r_epik_Charging_Adjusted_Penalty>  (30) 
3.44527

>  <i_epik_Tot_Q>  (30) 
1

>  <i_epik_Tot_abs_Q>  (30) 
3

>  <s_lp_Force_Field>  (30) 
OPLS3e

>  <r_lp_Energy>  (30) 
352.097

>  <b_lp_Chiralities_Consistent>  (30) 
0

>  <s_lp_Variant>  (30) 
11:0-8

>  <s_i_glide_gridfile>  (30) 
pfpi4k_grid

>  <i_i_glide_lignum>  (30) 
21

>  <i_i_glide_rotatable_bonds>  (30) 
3

>  <r_i_docking_score>  (30) 
4.02667

>  <r_i_glide_ligand_efficiency>  (30) 
0.0982115

>  <r_i_glide_ligand_efficiency_sa>  (30) 
0.338655

>  <r_i_glide_ligand_efficiency_ln>  (30) 
0.854272

>  <r_i_glide_gscore>  (30) 
4.02667

>  <r_i_glide_lipo>  (30) 
-0.148934

>  <r_i_glide_hbond>  (30) 
-0.18357

>  <r_i_glide_metal>  (30) 
-0

>  <r_i_glide_rewards>  (30) 
-0.3

>  <r_i_glide_evdw>  (30) 
-14.1951

>  <r_i_glide_ecoul>  (30) 
-9.62539

>  <r_i_glide_erotb>  (30) 
0

>  <r_i_glide_esite>  (30) 
-0.115207

>  <r_i_glide_emodel>  (30) 
-0.198183

>  <r_i_glide_energy>  (30) 
-23.8205

>  <r_i_glide_einternal>  (30) 
1.08146

>  <r_i_glide_intrahb_reward>  (30) 
-0

>  <i_i_glide_confnum>  (30) 
2

>  <i_i_glide_posenum>  (30) 
22

>  <r_i_glide_eff_state_penalty>  (30) 
0

>  <ligand_id>  (30) 
11

>  <original_smiles>  (30) 
CC1=CC(C(C)C)C2(C)CC(O)C3C1CC1C4(C)CC5C(N)CC5OC56C(C4C2(C)C5C3(O)C1(C)C)N(C)C6(C)O

>  <smiles>  (30) 
[H]OC1([H])C([H])([H])C2(C([H])([H])[H])C([H])(C([H])(C([H])([H])[H])C([H])([H])[H])C([H])=C(C([H])([H])[H])C3([H])C([H])([H])C4([H])C5(C([H])([H])[H])C([H])([H])C6([H])C([H])(OC78C([H])(C(O[H])(C13[H])C4(C([H])([H])[H])C([H])([H])[H])C2(C([H])([H])[H])C5([H])C7([H])[N+]([H])(C([H])([H])[H])C8([O-])C([H])([H])[H])C([H])([H])C6([H])[N+]([H])([H])[H]

$$$$
11:7:1
     RDKit          3D

 98105  0  0  1  0  0  0  0  0999 V2000
    2.0913   -1.6670    3.7932 C   0  0  0  0  0  0  0  0  0  0  0  0
    2.5735   -3.0646    3.4017 C   0  0  0  0  0  0  0  0  0  0  0  0
    3.1548   -3.3872    2.2408 C   0  0  0  0  0  0  0  0  0  0  0  0
    3.8712   -4.6927    1.8700 C   0  0  1  0  0  0  0  0  0  0  0  0
    4.0593   -4.7103    0.3086 C   0  0  0  0  0  0  0  0  0  0  0  0
    4.7068   -5.9788   -0.2933 C   0  0  0  0  0  0  0  0  0  0  0  0
    4.7028   -3.4501   -0.3332 C   0  0  0  0  0  0  0  0  0  0  0  0
    5.1104   -5.2118    2.8568 C   0  0  1  0  0  0  0  0  0  0  0  0
    6.4726   -4.7062    2.1105 C   0  0  0  0  0  0  0  0  0  0  0  0
    5.5560   -4.2792    4.1095 C   0  0  0  0  0  0  0  0  0  0  0  0
    4.7561   -4.0323    5.3799 C   0  0  1  0  0  0  0  0  0  0  0  0
    4.6651   -2.6508    5.7142 O   0  0  0  0  0  0  0  0  0  0  0  0
    3.4048   -4.6987    5.4463 C   0  0  1  0  0  0  0  0  0  0  0  0
    2.3089   -4.2015    4.4196 C   0  0  2  0  0  0  0  0  0  0  0  0
    1.3411   -5.2946    3.8424 C   0  0  0  0  0  0  0  0  0  0  0  0
    1.5176   -6.7929    4.3466 C   0  0  1  0  0  0  0  0  0  0  0  0
    2.1688   -7.8095    3.2259 C   0  0  2  0  0  0  0  0  0  0  0  0
    1.4875   -7.4763    1.8448 C   0  0  0  0  0  0  0  0  0  0  0  0
    1.4928   -9.2531    3.3582 C   0  0  0  0  0  0  0  0  0  0  0  0
    1.4258  -10.0755    4.6577 C   0  0  1  0  0  0  0  0  0  0  0  0
    1.3389  -11.6284    4.5833 C   0  0  1  0  0  0  0  0  0  0  0  0
    1.0651  -12.2074    3.2491 N   0  0  0  0  0  0  0  0  0  0  0  0
    2.8006  -11.7168    5.0748 C   0  0  0  0  0  0  0  0  0  0  0  0
    2.6022  -10.3013    5.6456 C   0  0  1  0  0  0  0  0  0  0  0  0
    3.6256   -9.3049    5.8978 O   0  0  0  0  0  0  0  0  0  0  0  0
    4.5584   -8.7188    5.0009 C   0  0  1  0  0  0  0  0  0  0  0  0
    4.3321   -9.2193    3.6102 C   0  0  1  0  0  0  0  0  0  0  0  0
    3.7978   -7.9143    2.8903 C   0  0  2  0  0  0  0  0  0  0  0  0
    4.8758   -6.8002    3.3332 C   0  0  1  0  0  0  0  0  0  0  0  0
    6.1575   -7.3290    2.5634 C   0  0  0  0  0  0  0  0  0  0  0  0
    4.6361   -7.1092    4.9120 C   0  0  1  0  0  0  0  0  0  0  0  0
    3.4873   -6.2496    5.7532 C   0  0  1  0  0  0  0  0  0  0  0  0
    4.0186   -6.3219    7.0731 O   0  0  0  0  0  0  0  0  0  0  0  0
    1.9593   -6.7085    5.8818 C   0  0  0  0  0  0  0  0  0  0  0  0
    0.9530   -5.7070    6.6336 C   0  0  0  0  0  0  0  0  0  0  0  0
    1.6684   -7.8252    6.9751 C   0  0  0  0  0  0  0  0  0  0  0  0
    5.7362   -9.7634    3.6390 N   0  0  2  0  0  0  0  0  0  0  0  0
    6.0026  -11.1046    3.0192 C   0  0  0  0  0  0  0  0  0  0  0  0
    5.8709   -9.5498    5.0818 C   0  0  1  0  0  0  0  0  0  0  0  0
    7.1760   -8.8888    5.5684 C   0  0  0  0  0  0  0  0  0  0  0  0
    5.7992  -10.7059    5.6555 O   0  0  0  0  0  0  0  0  0  0  0  0
    1.0028   -1.6473    3.7792 H   0  0  0  0  0  0  0  0  0  0  0  0
    2.4752   -0.9149    3.0934 H   0  0  0  0  0  0  0  0  0  0  0  0
    2.4352   -1.3659    4.7936 H   0  0  0  0  0  0  0  0  0  0  0  0
    4.0959   -3.4314    2.6794 H   0  0  0  0  0  0  0  0  0  0  0  0
    3.1781   -5.4053    2.0780 H   0  0  0  0  0  0  0  0  0  0  0  0
    3.0335   -4.7112   -0.0886 H   0  0  0  0  0  0  0  0  0  0  0  0
    5.7939   -6.0058   -0.2963 H   0  0  0  0  0  0  0  0  0  0  0  0
    4.6595   -6.0247   -1.3665 H   0  0  0  0  0  0  0  0  0  0  0  0
    4.3582   -6.8996    0.1685 H   0  0  0  0  0  0  0  0  0  0  0  0
    5.4384   -2.9635    0.2958 H   0  0  0  0  0  0  0  0  0  0  0  0
    3.9642   -2.6861   -0.5798 H   0  0  0  0  0  0  0  0  0  0  0  0
    5.2205   -3.6991   -1.2638 H   0  0  0  0  0  0  0  0  0  0  0  0
    7.4151   -5.0170    2.5629 H   0  0  0  0  0  0  0  0  0  0  0  0
    6.5294   -3.6186    1.9885 H   0  0  0  0  0  0  0  0  0  0  0  0
    6.6320   -4.9604    1.0718 H   0  0  0  0  0  0  0  0  0  0  0  0
    6.5036   -4.6321    4.4892 H   0  0  0  0  0  0  0  0  0  0  0  0
    5.7690   -3.2493    3.7775 H   0  0  0  0  0  0  0  0  0  0  0  0
    5.3627   -4.4122    6.2023 H   0  0  0  0  0  0  0  0  0  0  0  0
    4.1468   -2.1969    5.0665 H   0  0  0  0  0  0  0  0  0  0  0  0
    3.0387   -4.2860    6.3917 H   0  0  0  0  0  0  0  0  0  0  0  0
    1.6587   -3.6137    5.0600 H   0  0  0  0  0  0  0  0  0  0  0  0
    0.3199   -4.9904    4.0839 H   0  0  0  0  0  0  0  0  0  0  0  0
    1.2368   -5.1857    2.7684 H   0  0  0  0  0  0  0  0  0  0  0  0
    0.4801   -7.1383    4.4155 H   0  0  0  0  0  0  0  0  0  0  0  0
    1.6347   -8.2687    1.1108 H   0  0  0  0  0  0  0  0  0  0  0  0
    1.8388   -6.6135    1.3056 H   0  0  0  0  0  0  0  0  0  0  0  0
    0.4083   -7.3294    1.9332 H   0  0  0  0  0  0  0  0  0  0  0  0
    0.4414   -9.1863    3.0657 H   0  0  0  0  0  0  0  0  0  0  0  0
    1.8946   -9.8859    2.5709 H   0  0  0  0  0  0  0  0  0  0  0  0
    0.5165   -9.7902    5.1872 H   0  0  0  0  0  0  0  0  0  0  0  0
    0.6403  -12.0504    5.3067 H   0  0  0  0  0  0  0  0  0  0  0  0
    1.7073  -11.8541    2.5538 H   0  0  0  0  0  0  0  0  0  0  0  0
    0.1146  -12.0182    2.9647 H   0  0  0  0  0  0  0  0  0  0  0  0
    2.9971  -12.4617    5.8446 H   0  0  0  0  0  0  0  0  0  0  0  0
    3.5246  -11.8336    4.2855 H   0  0  0  0  0  0  0  0  0  0  0  0
    2.1972  -10.4610    6.6464 H   0  0  0  0  0  0  0  0  0  0  0  0
    3.7709  -10.0958    3.3946 H   0  0  0  0  0  0  0  0  0  0  0  0
    3.8725   -8.0536    1.8221 H   0  0  0  0  0  0  0  0  0  0  0  0
    6.1370   -8.2801    2.0574 H   0  0  0  0  0  0  0  0  0  0  0  0
    7.1135   -7.1446    3.0492 H   0  0  0  0  0  0  0  0  0  0  0  0
    6.2274   -6.9237    1.5697 H   0  0  0  0  0  0  0  0  0  0  0  0
    5.5757   -6.7785    5.3521 H   0  0  0  0  0  0  0  0  0  0  0  0
    3.4572   -5.8575    7.6737 H   0  0  0  0  0  0  0  0  0  0  0  0
    1.3772   -5.3118    7.5598 H   0  0  0  0  0  0  0  0  0  0  0  0
    0.0083   -6.1917    6.9038 H   0  0  0  0  0  0  0  0  0  0  0  0
    0.5330   -4.8509    6.1350 H   0  0  0  0  0  0  0  0  0  0  0  0
    2.5263   -8.3030    7.4283 H   0  0  0  0  0  0  0  0  0  0  0  0
    0.8951   -8.5296    6.7074 H   0  0  0  0  0  0  0  0  0  0  0  0
    1.2907   -7.4708    7.9381 H   0  0  0  0  0  0  0  0  0  0  0  0
    5.4732  -11.9400    3.4589 H   0  0  0  0  0  0  0  0  0  0  0  0
    7.0584  -11.3720    3.0558 H   0  0  0  0  0  0  0  0  0  0  0  0
    5.7453  -11.0990    1.9629 H   0  0  0  0  0  0  0  0  0  0  0  0
    7.4013   -7.9717    5.0373 H   0  0  0  0  0  0  0  0  0  0  0  0
    8.0520   -9.5332    5.4895 H   0  0  0  0  0  0  0  0  0  0  0  0
    7.0913   -8.6080    6.6224 H   0  0  0  0  0  0  0  0  0  0  0  0
    1.2272  -13.2225    3.2829 H   0  0  0  0  0  0  0  0  0  0  0  0
    6.3685   -9.1338    3.1905 H   0  0  0  0  0  0  0  0  0  0  0  0
  1  2  1  0
  1 42  1  0
  1 43  1  0
  1 44  1  0
  2 14  1  0
  2  3  2  3
  3  4  1  0
  3 45  1  0
  4  5  1  0
  4  8  1  0
  4 46  1  6
  5  6  1  0
  5  7  1  0
  5 47  1  0
  6 48  1  0
  6 49  1  0
  6 50  1  0
  7 51  1  0
  7 52  1  0
  7 53  1  0
  8 29  1  0
  8  9  1  6
  8 10  1  0
  9 54  1  0
  9 55  1  0
  9 56  1  0
 10 11  1  0
 10 57  1  0
 10 58  1  0
 11 12  1  0
 11 13  1  0
 11 59  1  1
 12 60  1  0
 13 32  1  0
 13 14  1  0
 13 61  1  1
 14 15  1  0
 14 62  1  1
 15 16  1  0
 15 63  1  0
 15 64  1  0
 16 34  1  0
 16 17  1  0
 16 65  1  1
 17 28  1  0
 17 18  1  6
 17 19  1  0
 18 66  1  0
 18 67  1  0
 18 68  1  0
 19 20  1  0
 19 69  1  0
 19 70  1  0
 20 24  1  0
 20 21  1  0
 20 71  1  1
 21 22  1  0
 21 23  1  0
 21 72  1  1
 22 73  1  0
 22 74  1  0
 22 97  1  0
 23 24  1  0
 23 75  1  0
 23 76  1  0
 24 25  1  0
 24 77  1  1
 26 25  1  1
 26 31  1  0
 26 39  1  0
 26 27  1  0
 27 28  1  0
 27 37  1  0
 27 78  1  1
 28 29  1  0
 28 79  1  6
 29 30  1  6
 29 31  1  0
 30 80  1  0
 30 81  1  0
 30 82  1  0
 31 32  1  0
 31 83  1  1
 32 33  1  1
 32 34  1  0
 33 84  1  0
 34 35  1  0
 34 36  1  0
 35 85  1  0
 35 86  1  0
 35 87  1  0
 36 88  1  0
 36 89  1  0
 36 90  1  0
 37 38  1  0
 37 39  1  0
 37 98  1  6
 38 91  1  0
 38 92  1  0
 38 93  1  0
 39 40  1  0
 39 41  1  1
 40 94  1  0
 40 95  1  0
 40 96  1  0
M  CHG  3  22   1  37   1  41  -1
M  END
>  <i_m_ct_stereo_status>  (31) 
1

>  <s_m_source_file>  (31) 
/var/tmp/pbs.5076255.sched01/tmphbojuwnv/0fr5z8inm.sdf

>  <i_m_source_file_index>  (31) 
21

>  <i_lp_mmshare_version>  (31) 
48012

>  <i_f3d_flags>  (31) 
2

>  <s_epik_input>  (31) 
W0NIM10vQzE9W0NIXS9bQ0BASF0oW0NIXShbQ0gzXSlbQ0gzXSlbQ0BAXShbQ0gzXSkoW0NIMl1bQ0BIXTJbT0hdKVtDQEBdMyhbQ0gzXSlbQ0BIXTRbQ0BdKFtPSF0pKEM1KFtDSDNdKVtDSDNdKVtDQEBIXTJbQ0BIXTFbQ0gyXVtDQEhdNVtDQEBdKFtDSDNdKShbQ0BASF0zW0NAQEhdKFtDQF00NjcpTihbQ0gzXSlbQ0BdNyhbQ0gzXSlbT0hdKVtDSDJdW0NAQEhdOFtDQEhdKE82KVtDSDJdW0NAQEhdOFtOSDJd

>  <s_epik_cmdline>  (31) 
J2VwaWtfcHl0aG9uJywgJy1waHQnLCAnMi4wJywgJy1waCcsICc3LjAnLCAnLXRuJywgJzgnLCAnLW1hJywgJzIwMCcsICctaW1hZScsICc8aW5maWxlLm1hZT4nLCAnLW9tYWUnLCAnPG91dGZpbGUubWFlPic=

>  <r_epik_Ionization_Penalty>  (31) 
1.64423

>  <r_epik_Ionization_Penalty_Charging>  (31) 
1.64423

>  <r_epik_Ionization_Penalty_Neutral>  (31) 
9.19537e-07

>  <r_epik_State_Penalty>  (31) 
1.80105

>  <r_epik_Charging_Adjusted_Penalty>  (31) 
3.44527

>  <i_epik_Tot_Q>  (31) 
1

>  <i_epik_Tot_abs_Q>  (31) 
3

>  <s_lp_Force_Field>  (31) 
OPLS3e

>  <r_lp_Energy>  (31) 
352.097

>  <b_lp_Chiralities_Consistent>  (31) 
0

>  <s_lp_Variant>  (31) 
11:0-8

>  <s_i_glide_gridfile>  (31) 
pfpi4k_grid

>  <i_i_glide_lignum>  (31) 
21

>  <i_i_glide_rotatable_bonds>  (31) 
3

>  <r_i_docking_score>  (31) 
6.07708

>  <r_i_glide_ligand_efficiency>  (31) 
0.148221

>  <r_i_glide_ligand_efficiency_sa>  (31) 
0.5111

>  <r_i_glide_ligand_efficiency_ln>  (31) 
1.28927

>  <r_i_glide_gscore>  (31) 
6.07708

>  <r_i_glide_lipo>  (31) 
-0.138857

>  <r_i_glide_hbond>  (31) 
0

>  <r_i_glide_metal>  (31) 
-0

>  <r_i_glide_rewards>  (31) 
0

>  <r_i_glide_evdw>  (31) 
-16.7238

>  <r_i_glide_ecoul>  (31) 
-9.42133

>  <r_i_glide_erotb>  (31) 
0

>  <r_i_glide_esite>  (31) 
-0.0400149

>  <r_i_glide_emodel>  (31) 
5.72636

>  <r_i_glide_energy>  (31) 
-26.1451

>  <r_i_glide_einternal>  (31) 
2.14655

>  <r_i_glide_intrahb_reward>  (31) 
-0

>  <i_i_glide_confnum>  (31) 
1

>  <i_i_glide_posenum>  (31) 
27

>  <r_i_glide_eff_state_penalty>  (31) 
0

>  <ligand_id>  (31) 
11

>  <original_smiles>  (31) 
CC1=CC(C(C)C)C2(C)CC(O)C3C1CC1C4(C)CC5C(N)CC5OC56C(C4C2(C)C5C3(O)C1(C)C)N(C)C6(C)O

>  <smiles>  (31) 
[H]OC1([H])C([H])([H])C2(C([H])([H])[H])C([H])(C([H])(C([H])([H])[H])C([H])([H])[H])C([H])=C(C([H])([H])[H])C3([H])C([H])([H])C4([H])C5(C([H])([H])[H])C([H])([H])C6([H])C([H])(OC78C([H])(C(O[H])(C13[H])C4(C([H])([H])[H])C([H])([H])[H])C2(C([H])([H])[H])C5([H])C7([H])[N+]([H])(C([H])([H])[H])C8([O-])C([H])([H])[H])C([H])([H])C6([H])[N+]([H])([H])[H]

$$$$
11:7:2
     RDKit          3D

 98105  0  0  1  0  0  0  0  0999 V2000
    5.3889   -1.2744    4.9117 C   0  0  0  0  0  0  0  0  0  0  0  0
    5.1827   -2.6647    5.5577 C   0  0  0  0  0  0  0  0  0  0  0  0
    6.1128   -3.3161    6.2529 C   0  0  0  0  0  0  0  0  0  0  0  0
    5.9263   -4.5977    7.1114 C   0  0  1  0  0  0  0  0  0  0  0  0
    7.3457   -5.1933    7.3984 C   0  0  0  0  0  0  0  0  0  0  0  0
    8.1625   -5.4851    6.1193 C   0  0  0  0  0  0  0  0  0  0  0  0
    7.3301   -6.5085    8.1824 C   0  0  0  0  0  0  0  0  0  0  0  0
    4.7588   -4.5476    8.3113 C   0  0  1  0  0  0  0  0  0  0  0  0
    5.6314   -4.2314    9.6443 C   0  0  0  0  0  0  0  0  0  0  0  0
    3.9722   -3.1616    8.5668 C   0  0  0  0  0  0  0  0  0  0  0  0
    2.9214   -2.5387    7.6508 C   0  0  1  0  0  0  0  0  0  0  0  0
    3.1488   -1.1541    7.4074 O   0  0  0  0  0  0  0  0  0  0  0  0
    2.6455   -3.2749    6.3634 C   0  0  1  0  0  0  0  0  0  0  0  0
    3.8265   -3.3327    5.3087 C   0  0  2  0  0  0  0  0  0  0  0  0
    3.9613   -4.6693    4.4926 C   0  0  0  0  0  0  0  0  0  0  0  0
    2.9064   -5.8301    4.7631 C   0  0  1  0  0  0  0  0  0  0  0  0
    3.5084   -7.1191    5.5846 C   0  0  2  0  0  0  0  0  0  0  0  0
    4.9298   -7.4266    4.9855 C   0  0  0  0  0  0  0  0  0  0  0  0
    2.8524   -8.4683    5.0345 C   0  0  0  0  0  0  0  0  0  0  0  0
    1.3423   -8.7291    4.9445 C   0  0  1  0  0  0  0  0  0  0  0  0
    0.8096  -10.1979    5.0058 C   0  0  1  0  0  0  0  0  0  0  0  0
    1.8132  -11.2786    4.8924 N   0  0  0  0  0  0  0  0  0  0  0  0
    0.2700   -9.9105    6.4267 C   0  0  0  0  0  0  0  0  0  0  0  0
    0.3056   -8.4216    6.0576 C   0  0  1  0  0  0  0  0  0  0  0  0
    0.4178   -7.2989    6.9684 O   0  0  0  0  0  0  0  0  0  0  0  0
    1.4413   -6.9935    7.9066 C   0  0  1  0  0  0  0  0  0  0  0  0
    2.5302   -8.0161    7.8321 C   0  0  1  0  0  0  0  0  0  0  0  0
    3.7160   -7.1593    7.2359 C   0  0  2  0  0  0  0  0  0  0  0  0
    3.7235   -5.8454    8.1733 C   0  0  1  0  0  0  0  0  0  0  0  0
    4.1676   -6.4808    9.5655 C   0  0  0  0  0  0  0  0  0  0  0  0
    2.1519   -5.5495    7.8466 C   0  0  1  0  0  0  0  0  0  0  0  0
    1.7542   -4.5693    6.5654 C   0  0  1  0  0  0  0  0  0  0  0  0
    0.4866   -4.0626    6.9838 O   0  0  0  0  0  0  0  0  0  0  0  0
    1.5163   -5.1133    5.0799 C   0  0  0  0  0  0  0  0  0  0  0  0
    1.2479   -4.0197    3.9305 C   0  0  0  0  0  0  0  0  0  0  0  0
    0.0976   -5.7659    4.8144 C   0  0  0  0  0  0  0  0  0  0  0  0
    2.2462   -8.3509    9.2754 N   0  0  2  0  0  0  0  0  0  0  0  0
    2.2827   -9.7867    9.7104 C   0  0  0  0  0  0  0  0  0  0  0  0
    0.9769   -7.5859    9.2814 C   0  0  1  0  0  0  0  0  0  0  0  0
    0.7625   -6.6341   10.4796 C   0  0  0  0  0  0  0  0  0  0  0  0
   -0.0024   -8.3971    9.2746 O   0  0  0  0  0  0  0  0  0  0  0  0
    5.4487   -1.3931    3.8289 H   0  0  0  0  0  0  0  0  0  0  0  0
    6.2864   -0.7923    5.2878 H   0  0  0  0  0  0  0  0  0  0  0  0
    4.5670   -0.5786    5.1422 H   0  0  0  0  0  0  0  0  0  0  0  0
    5.6278   -3.0932    7.0919 H   0  0  0  0  0  0  0  0  0  0  0  0
    5.4583   -5.2679    6.4347 H   0  0  0  0  0  0  0  0  0  0  0  0
    7.9136   -4.4755    7.9718 H   0  0  0  0  0  0  0  0  0  0  0  0
    7.7525   -6.3229    5.5644 H   0  0  0  0  0  0  0  0  0  0  0  0
    9.1929   -5.7571    6.3810 H   0  0  0  0  0  0  0  0  0  0  0  0
    8.2115   -4.6556    5.4196 H   0  0  0  0  0  0  0  0  0  0  0  0
    6.4000   -7.0290    8.0162 H   0  0  0  0  0  0  0  0  0  0  0  0
    7.4844   -6.4113    9.2569 H   0  0  0  0  0  0  0  0  0  0  0  0
    8.1182   -7.2079    7.9041 H   0  0  0  0  0  0  0  0  0  0  0  0
    5.0522   -4.2072   10.5821 H   0  0  0  0  0  0  0  0  0  0  0  0
    6.1876   -3.2831    9.6067 H   0  0  0  0  0  0  0  0  0  0  0  0
    6.4503   -4.8609    9.8962 H   0  0  0  0  0  0  0  0  0  0  0  0
    3.4621   -3.2097    9.5222 H   0  0  0  0  0  0  0  0  0  0  0  0
    4.6679   -2.3216    8.7124 H   0  0  0  0  0  0  0  0  0  0  0  0
    1.9949   -2.4973    8.2232 H   0  0  0  0  0  0  0  0  0  0  0  0
    3.9362   -1.0439    6.8991 H   0  0  0  0  0  0  0  0  0  0  0  0
    1.9438   -2.5783    5.8887 H   0  0  0  0  0  0  0  0  0  0  0  0
    3.4839   -2.6289    4.5598 H   0  0  0  0  0  0  0  0  0  0  0  0
    3.8930   -4.4187    3.4312 H   0  0  0  0  0  0  0  0  0  0  0  0
    4.9951   -4.9954    4.4562 H   0  0  0  0  0  0  0  0  0  0  0  0
    2.7449   -6.2368    3.7581 H   0  0  0  0  0  0  0  0  0  0  0  0
    5.3046   -8.4116    5.2663 H   0  0  0  0  0  0  0  0  0  0  0  0
    5.7355   -6.7954    5.2952 H   0  0  0  0  0  0  0  0  0  0  0  0
    4.9547   -7.3750    3.8930 H   0  0  0  0  0  0  0  0  0  0  0  0
    3.1886   -8.6369    4.0070 H   0  0  0  0  0  0  0  0  0  0  0  0
    3.3188   -9.3033    5.5527 H   0  0  0  0  0  0  0  0  0  0  0  0
    0.9997   -8.3680    3.9766 H   0  0  0  0  0  0  0  0  0  0  0  0
   -0.0002  -10.3819    4.2982 H   0  0  0  0  0  0  0  0  0  0  0  0
    2.5694  -11.1535    5.5569 H   0  0  0  0  0  0  0  0  0  0  0  0
    2.1874  -11.3303    3.9521 H   0  0  0  0  0  0  0  0  0  0  0  0
   -0.7312  -10.2722    6.6248 H   0  0  0  0  0  0  0  0  0  0  0  0
    0.9236  -10.2443    7.2144 H   0  0  0  0  0  0  0  0  0  0  0  0
   -0.6629   -8.2374    5.5925 H   0  0  0  0  0  0  0  0  0  0  0  0
    2.4120   -8.9673    7.3702 H   0  0  0  0  0  0  0  0  0  0  0  0
    4.6226   -7.7154    7.3946 H   0  0  0  0  0  0  0  0  0  0  0  0
    4.2655   -7.5487    9.6583 H   0  0  0  0  0  0  0  0  0  0  0  0
    3.7533   -6.0152   10.4537 H   0  0  0  0  0  0  0  0  0  0  0  0
    5.2321   -6.4825    9.7047 H   0  0  0  0  0  0  0  0  0  0  0  0
    1.8481   -4.9734    8.7179 H   0  0  0  0  0  0  0  0  0  0  0  0
    0.5774   -3.7129    7.8536 H   0  0  0  0  0  0  0  0  0  0  0  0
    0.5308   -3.2552    4.2460 H   0  0  0  0  0  0  0  0  0  0  0  0
    0.8442   -4.4656    3.0142 H   0  0  0  0  0  0  0  0  0  0  0  0
    2.0524   -3.4725    3.4730 H   0  0  0  0  0  0  0  0  0  0  0  0
   -0.5562   -5.9163    5.6656 H   0  0  0  0  0  0  0  0  0  0  0  0
    0.0820   -6.5898    4.1186 H   0  0  0  0  0  0  0  0  0  0  0  0
   -0.6042   -5.1038    4.3311 H   0  0  0  0  0  0  0  0  0  0  0  0
    1.5688  -10.4393    9.2272 H   0  0  0  0  0  0  0  0  0  0  0  0
    2.1147   -9.8940   10.7798 H   0  0  0  0  0  0  0  0  0  0  0  0
    3.2678  -10.2107    9.5278 H   0  0  0  0  0  0  0  0  0  0  0  0
    1.6014   -5.9779   10.6565 H   0  0  0  0  0  0  0  0  0  0  0  0
    0.5551   -7.1619   11.4113 H   0  0  0  0  0  0  0  0  0  0  0  0
   -0.0953   -5.9862   10.2865 H   0  0  0  0  0  0  0  0  0  0  0  0
    1.3780  -12.1665    5.1177 H   0  0  0  0  0  0  0  0  0  0  0  0
    2.8857   -7.8721    9.8806 H   0  0  0  0  0  0  0  0  0  0  0  0
  1  2  1  0
  1 42  1  0
  1 43  1  0
  1 44  1  0
  2 14  1  0
  2  3  2  3
  3  4  1  0
  3 45  1  0
  4  5  1  0
  4  8  1  0
  4 46  1  6
  5  6  1  0
  5  7  1  0
  5 47  1  0
  6 48  1  0
  6 49  1  0
  6 50  1  0
  7 51  1  0
  7 52  1  0
  7 53  1  0
  8 29  1  0
  8  9  1  1
  8 10  1  0
  9 54  1  0
  9 55  1  0
  9 56  1  0
 10 11  1  0
 10 57  1  0
 10 58  1  0
 11 12  1  0
 11 13  1  0
 11 59  1  1
 12 60  1  0
 13 32  1  0
 13 14  1  0
 13 61  1  6
 14 15  1  0
 14 62  1  6
 15 16  1  0
 15 63  1  0
 15 64  1  0
 16 34  1  0
 16 17  1  0
 16 65  1  6
 17 28  1  0
 17 18  1  6
 17 19  1  0
 18 66  1  0
 18 67  1  0
 18 68  1  0
 19 20  1  0
 19 69  1  0
 19 70  1  0
 20 24  1  0
 20 21  1  0
 20 71  1  6
 21 22  1  0
 21 23  1  0
 21 72  1  6
 22 73  1  0
 22 74  1  0
 22 97  1  0
 23 24  1  0
 23 75  1  0
 23 76  1  0
 24 25  1  0
 24 77  1  6
 26 25  1  6
 26 31  1  0
 26 39  1  0
 26 27  1  0
 27 28  1  0
 27 37  1  0
 27 78  1  6
 28 29  1  0
 28 79  1  6
 29 30  1  1
 29 31  1  0
 30 80  1  0
 30 81  1  0
 30 82  1  0
 31 32  1  0
 31 83  1  1
 32 33  1  1
 32 34  1  0
 33 84  1  0
 34 35  1  0
 34 36  1  0
 35 85  1  0
 35 86  1  0
 35 87  1  0
 36 88  1  0
 36 89  1  0
 36 90  1  0
 37 38  1  0
 37 39  1  0
 37 98  1  1
 38 91  1  0
 38 92  1  0
 38 93  1  0
 39 40  1  0
 39 41  1  6
 40 94  1  0
 40 95  1  0
 40 96  1  0
M  CHG  3  22   1  37   1  41  -1
M  END
>  <i_m_ct_stereo_status>  (32) 
1

>  <s_m_source_file>  (32) 
/var/tmp/pbs.5076255.sched01/tmphbojuwnv/0fr5z8inm.sdf

>  <i_m_source_file_index>  (32) 
21

>  <i_lp_mmshare_version>  (32) 
48012

>  <i_f3d_flags>  (32) 
2

>  <s_epik_input>  (32) 
W0NIM10vQzE9W0NIXS9bQ0BASF0oW0NIXShbQ0gzXSlbQ0gzXSlbQ0BAXShbQ0gzXSkoW0NIMl1bQ0BIXTJbT0hdKVtDQEBdMyhbQ0gzXSlbQ0BIXTRbQ0BdKFtPSF0pKEM1KFtDSDNdKVtDSDNdKVtDQEBIXTJbQ0BIXTFbQ0gyXVtDQEhdNVtDQEBdKFtDSDNdKShbQ0BASF0zW0NAQEhdKFtDQF00NjcpTihbQ0gzXSlbQ0BdNyhbQ0gzXSlbT0hdKVtDSDJdW0NAQEhdOFtDQEhdKE82KVtDSDJdW0NAQEhdOFtOSDJd

>  <s_epik_cmdline>  (32) 
J2VwaWtfcHl0aG9uJywgJy1waHQnLCAnMi4wJywgJy1waCcsICc3LjAnLCAnLXRuJywgJzgnLCAnLW1hJywgJzIwMCcsICctaW1hZScsICc8aW5maWxlLm1hZT4nLCAnLW9tYWUnLCAnPG91dGZpbGUubWFlPic=

>  <r_epik_Ionization_Penalty>  (32) 
1.64423

>  <r_epik_Ionization_Penalty_Charging>  (32) 
1.64423

>  <r_epik_Ionization_Penalty_Neutral>  (32) 
9.19537e-07

>  <r_epik_State_Penalty>  (32) 
1.80105

>  <r_epik_Charging_Adjusted_Penalty>  (32) 
3.44527

>  <i_epik_Tot_Q>  (32) 
1

>  <i_epik_Tot_abs_Q>  (32) 
3

>  <s_lp_Force_Field>  (32) 
OPLS3e

>  <r_lp_Energy>  (32) 
352.097

>  <b_lp_Chiralities_Consistent>  (32) 
0

>  <s_lp_Variant>  (32) 
11:0-8

>  <s_i_glide_gridfile>  (32) 
pfpi4k_grid

>  <i_i_glide_lignum>  (32) 
21

>  <i_i_glide_rotatable_bonds>  (32) 
3

>  <r_i_docking_score>  (32) 
6.39308

>  <r_i_glide_ligand_efficiency>  (32) 
0.155929

>  <r_i_glide_ligand_efficiency_sa>  (32) 
0.537677

>  <r_i_glide_ligand_efficiency_ln>  (32) 
1.35631

>  <r_i_glide_gscore>  (32) 
6.39308

>  <r_i_glide_lipo>  (32) 
-0.123899

>  <r_i_glide_hbond>  (32) 
-0.0597143

>  <r_i_glide_metal>  (32) 
-0

>  <r_i_glide_rewards>  (32) 
-0.3

>  <r_i_glide_evdw>  (32) 
-12.6671

>  <r_i_glide_ecoul>  (32) 
-8.49718

>  <r_i_glide_erotb>  (32) 
0

>  <r_i_glide_esite>  (32) 
-0.0885851

>  <r_i_glide_emodel>  (32) 
11.2287

>  <r_i_glide_energy>  (32) 
-21.1643

>  <r_i_glide_einternal>  (32) 
0.555163

>  <r_i_glide_intrahb_reward>  (32) 
-0

>  <i_i_glide_confnum>  (32) 
2

>  <i_i_glide_posenum>  (32) 
3

>  <r_i_glide_eff_state_penalty>  (32) 
0

>  <ligand_id>  (32) 
11

>  <original_smiles>  (32) 
CC1=CC(C(C)C)C2(C)CC(O)C3C1CC1C4(C)CC5C(N)CC5OC56C(C4C2(C)C5C3(O)C1(C)C)N(C)C6(C)O

>  <smiles>  (32) 
[H]OC1([H])C([H])([H])C2(C([H])([H])[H])C([H])(C([H])(C([H])([H])[H])C([H])([H])[H])C([H])=C(C([H])([H])[H])C3([H])C([H])([H])C4([H])C5(C([H])([H])[H])C([H])([H])C6([H])C([H])(OC78C([H])(C(O[H])(C13[H])C4(C([H])([H])[H])C([H])([H])[H])C2(C([H])([H])[H])C5([H])C7([H])[N+]([H])(C([H])([H])[H])C8([O-])C([H])([H])[H])C([H])([H])C6([H])[N+]([H])([H])[H]

$$$$
12:0:0
     RDKit          3D

 74 80  0  0  1  0  0  0  0  0999 V2000
    2.5309   -1.4576    7.0389 C   0  0  0  0  0  0  0  0  0  0  0  0
    3.1275   -1.5675    5.6083 C   0  0  0  0  0  0  0  0  0  0  0  0
    4.6096   -1.9868    5.7682 C   0  0  0  0  0  0  0  0  0  0  0  0
    2.9746   -0.3251    4.6525 C   0  0  2  0  0  0  0  0  0  0  0  0
    3.4014    1.0482    5.2851 C   0  0  1  0  0  0  0  0  0  0  0  0
    4.7944    1.2933    5.1294 O   0  0  0  0  0  0  0  0  0  0  0  0
    2.4863    2.1276    4.6497 C   0  0  2  0  0  0  0  0  0  0  0  0
    1.4880    2.5571    5.6884 O   0  0  0  0  0  0  0  0  0  0  0  0
    0.1922    3.0879    5.2661 C   0  0  2  0  0  0  0  0  0  0  0  0
   -0.8938    1.9777    5.3924 C   0  0  1  0  0  0  0  0  0  0  0  0
   -0.8003    0.6483    4.6040 C   0  0  0  0  0  0  0  0  0  0  0  0
    0.4578   -0.1706    4.8676 C   0  0  1  0  0  0  0  0  0  0  0  0
    0.0371   -1.5145    5.0551 O   0  0  0  0  0  0  0  0  0  0  0  0
    1.6183   -0.0542    3.8535 C   0  0  2  0  0  0  0  0  0  0  0  0
    1.3747   -1.0003    2.6235 C   0  0  0  0  0  0  0  0  0  0  0  0
    1.9548    1.4126    3.3796 C   0  0  2  0  0  0  0  0  0  0  0  0
    2.9639    1.1812    2.3709 O   0  0  0  0  0  0  0  0  0  0  0  0
    1.1080    2.5274    2.6721 C   0  0  0  0  0  0  0  0  0  0  0  0
    1.6722    3.8671    3.2858 C   0  0  2  0  0  0  0  0  0  0  0  0
    3.0149    3.3969    3.9464 C   0  0  1  0  0  0  0  0  0  0  0  0
    3.8121    4.2095    4.7960 O   0  0  0  0  0  0  0  0  0  0  0  0
    0.7683    4.3156    4.4436 C   0  0  2  0  0  0  0  0  0  0  0  0
    1.5301    5.2661    5.1818 O   0  0  0  0  0  0  0  0  0  0  0  0
   -0.5581    5.0059    4.4007 C   0  0  1  0  0  0  0  0  0  0  0  0
   -1.3978    4.7242    3.3098 O   0  0  0  0  0  0  0  0  0  0  0  0
   -0.7715    4.2304    5.7309 C   0  0  2  0  0  0  0  0  0  0  0  0
   -0.7131    4.4884    7.1990 C   0  0  0  0  0  0  0  0  0  0  0  0
   -1.3092    3.1929    7.8522 C   0  0  2  0  0  0  0  0  0  0  0  0
   -2.8156    3.4155    8.1488 C   0  0  0  0  0  0  0  0  0  0  0  0
   -0.5302    2.8935    9.1644 C   0  0  1  0  0  0  0  0  0  0  0  0
   -1.1097    3.4753   10.3185 O   0  0  0  0  0  0  0  0  0  0  0  0
   -0.4606    1.3865    9.2742 C   0  0  0  0  0  0  0  0  0  0  0  0
   -0.2778    0.9561    7.8261 C   0  0  0  0  0  0  0  0  0  0  0  0
   -1.2098    1.8435    6.9678 C   0  0  2  0  0  0  0  0  0  0  0  0
    2.9503   -0.6197    7.5863 H   0  0  0  0  0  0  0  0  0  0  0  0
    2.7916   -2.3503    7.6160 H   0  0  0  0  0  0  0  0  0  0  0  0
    1.4453   -1.3581    7.0474 H   0  0  0  0  0  0  0  0  0  0  0  0
    2.6530   -2.4077    5.1001 H   0  0  0  0  0  0  0  0  0  0  0  0
    5.2205   -1.1688    6.1432 H   0  0  0  0  0  0  0  0  0  0  0  0
    5.0520   -2.3376    4.8337 H   0  0  0  0  0  0  0  0  0  0  0  0
    4.7038   -2.8024    6.4820 H   0  0  0  0  0  0  0  0  0  0  0  0
    3.6937   -0.5598    3.8660 H   0  0  0  0  0  0  0  0  0  0  0  0
    3.2011    1.0616    6.3540 H   0  0  0  0  0  0  0  0  0  0  0  0
    4.9961    1.4366    4.2205 H   0  0  0  0  0  0  0  0  0  0  0  0
   -1.8366    2.2823    4.9304 H   0  0  0  0  0  0  0  0  0  0  0  0
   -1.6691    0.0671    4.9336 H   0  0  0  0  0  0  0  0  0  0  0  0
   -0.9815    0.7784    3.5288 H   0  0  0  0  0  0  0  0  0  0  0  0
    0.8768    0.1445    5.8011 H   0  0  0  0  0  0  0  0  0  0  0  0
   -0.1504   -1.8885    4.2118 H   0  0  0  0  0  0  0  0  0  0  0  0
    0.6150   -0.5865    1.9564 H   0  0  0  0  0  0  0  0  0  0  0  0
    1.0509   -1.9995    2.8980 H   0  0  0  0  0  0  0  0  0  0  0  0
    2.2666   -1.1663    2.0155 H   0  0  0  0  0  0  0  0  0  0  0  0
    3.4410    1.9831    2.2037 H   0  0  0  0  0  0  0  0  0  0  0  0
    1.2361    2.5176    1.5888 H   0  0  0  0  0  0  0  0  0  0  0  0
    0.0319    2.4611    2.8203 H   0  0  0  0  0  0  0  0  0  0  0  0
    1.8125    4.6624    2.5448 H   0  0  0  0  0  0  0  0  0  0  0  0
    3.7313    3.2134    3.1585 H   0  0  0  0  0  0  0  0  0  0  0  0
    3.2366    4.5102    5.4909 H   0  0  0  0  0  0  0  0  0  0  0  0
    1.7624    5.9363    4.5637 H   0  0  0  0  0  0  0  0  0  0  0  0
   -0.5291    6.0902    4.5405 H   0  0  0  0  0  0  0  0  0  0  0  0
   -0.8349    4.5744    2.5362 H   0  0  0  0  0  0  0  0  0  0  0  0
   -1.8479    4.1180    5.5686 H   0  0  0  0  0  0  0  0  0  0  0  0
    0.3141    4.6698    7.5190 H   0  0  0  0  0  0  0  0  0  0  0  0
   -1.2735    5.3826    7.4693 H   0  0  0  0  0  0  0  0  0  0  0  0
   -3.2415    2.5915    8.7207 H   0  0  0  0  0  0  0  0  0  0  0  0
   -3.3718    3.4932    7.2203 H   0  0  0  0  0  0  0  0  0  0  0  0
   -3.0038    4.3216    8.7277 H   0  0  0  0  0  0  0  0  0  0  0  0
    0.5016    3.2423    9.0873 H   0  0  0  0  0  0  0  0  0  0  0  0
   -0.7472    3.0559   11.0831 H   0  0  0  0  0  0  0  0  0  0  0  0
    0.3487    1.0570    9.9220 H   0  0  0  0  0  0  0  0  0  0  0  0
   -1.3860    0.9940    9.6877 H   0  0  0  0  0  0  0  0  0  0  0  0
    0.7669    1.1534    7.6035 H   0  0  0  0  0  0  0  0  0  0  0  0
   -0.4729   -0.1120    7.6898 H   0  0  0  0  0  0  0  0  0  0  0  0
   -2.1810    1.3561    7.0291 H   0  0  0  0  0  0  0  0  0  0  0  0
  1  2  1  0
  1 35  1  0
  1 36  1  0
  1 37  1  0
  2  3  1  0
  2  4  1  0
  2 38  1  0
  3 39  1  0
  3 40  1  0
  3 41  1  0
  4 14  1  0
  4  5  1  0
  4 42  1  6
  5  6  1  0
  5  7  1  0
  5 43  1  1
  6 44  1  0
  7 16  1  0
  7 20  1  0
  7  8  1  1
  9  8  1  1
  9 22  1  0
  9 26  1  0
  9 10  1  0
 10 34  1  0
 10 11  1  0
 10 45  1  6
 11 12  1  0
 11 46  1  0
 11 47  1  0
 12 13  1  0
 12 14  1  0
 12 48  1  1
 13 49  1  0
 14 15  1  6
 14 16  1  0
 15 50  1  0
 15 51  1  0
 15 52  1  0
 16 17  1  6
 16 18  1  0
 17 53  1  0
 18 19  1  0
 18 54  1  0
 18 55  1  0
 19 20  1  0
 19 22  1  0
 19 56  1  6
 20 21  1  0
 20 57  1  6
 21 58  1  0
 22 23  1  1
 22 24  1  0
 23 59  1  0
 24 25  1  0
 24 26  1  0
 24 60  1  1
 25 61  1  0
 26 27  1  0
 26 62  1  6
 27 28  1  0
 27 63  1  0
 27 64  1  0
 28 34  1  0
 28 29  1  1
 28 30  1  0
 29 65  1  0
 29 66  1  0
 29 67  1  0
 30 31  1  0
 30 32  1  0
 30 68  1  6
 31 69  1  0
 32 33  1  0
 32 70  1  0
 32 71  1  0
 33 34  1  0
 33 72  1  0
 33 73  1  0
 34 74  1  6
M  END
>  <i_m_ct_stereo_status>  (33) 
1

>  <s_m_source_file>  (33) 
/var/tmp/pbs.5076255.sched01/tmphbojuwnv/0fr5z8inm.sdf

>  <i_m_source_file_index>  (33) 
23

>  <i_lp_mmshare_version>  (33) 
48012

>  <i_f3d_flags>  (33) 
0

>  <s_epik_input>  (33) 
W0NIM11bQ0hdKFtDSDNdKVtDQEhdKFtDQEhdMVtPSF0pW0NAXShbQ0gzXSkoW0NAQF0yKFtDQF0xMzQpW09IXSlbQ0BIXShbT0hdKVtDSDJdW0NAQEhdNVtDQEBdNihPMylbQ0BAXShbT0hdKShbQ0BIXShbQ0gyXTIpW0NASF00W09IXSlbQ0BASF0oW09IXSlbQ0BASF02W0NIMl1bQ0BAXTcoW0NIM10pW0NAQEhdNVtDSDJdW0NIMl1bQ0BASF03W09IXQ==

>  <s_epik_cmdline>  (33) 
J2VwaWtfcHl0aG9uJywgJy1waHQnLCAnMi4wJywgJy1waCcsICc3LjAnLCAnLXRuJywgJzgnLCAnLW1hJywgJzIwMCcsICctaW1hZScsICc8aW5maWxlLm1hZT4nLCAnLW9tYWUnLCAnPG91dGZpbGUubWFlPic=

>  <r_lp_tautomer_probability>  (33) 
1

>  <r_epik_Ionization_Penalty>  (33) 
2.71427e-06

>  <r_epik_Ionization_Penalty_Charging>  (33) 
0

>  <r_epik_Ionization_Penalty_Neutral>  (33) 
2.71427e-06

>  <r_epik_State_Penalty>  (33) 
-0

>  <r_epik_Charging_Adjusted_Penalty>  (33) 
0

>  <i_epik_Tot_Q>  (33) 
0

>  <i_epik_Tot_abs_Q>  (33) 
0

>  <s_lp_Force_Field>  (33) 
OPLS3e

>  <r_lp_Energy>  (33) 
241.718

>  <b_lp_Chiralities_Consistent>  (33) 
1

>  <s_lp_Variant>  (33) 
12:0-1

>  <s_i_glide_gridfile>  (33) 
pfpi4k_grid

>  <i_i_glide_lignum>  (33) 
23

>  <i_i_glide_rotatable_bonds>  (33) 
8

>  <r_i_docking_score>  (33) 
-3.59269

>  <r_i_glide_ligand_efficiency>  (33) 
-0.105667

>  <r_i_glide_ligand_efficiency_sa>  (33) 
-0.342321

>  <r_i_glide_ligand_efficiency_ln>  (33) 
-0.793725

>  <r_i_glide_gscore>  (33) 
-3.59269

>  <r_i_glide_lipo>  (33) 
-0.131627

>  <r_i_glide_hbond>  (33) 
-0.310584

>  <r_i_glide_metal>  (33) 
-0

>  <r_i_glide_rewards>  (33) 
-0.632334

>  <r_i_glide_evdw>  (33) 
-19.3486

>  <r_i_glide_ecoul>  (33) 
-10.3381

>  <r_i_glide_erotb>  (33) 
0

>  <r_i_glide_esite>  (33) 
0

>  <r_i_glide_emodel>  (33) 
-37.2832

>  <r_i_glide_energy>  (33) 
-29.6867

>  <r_i_glide_einternal>  (33) 
8.20034

>  <r_i_glide_intrahb_reward>  (33) 
-0.5

>  <i_i_glide_confnum>  (33) 
2

>  <i_i_glide_posenum>  (33) 
30

>  <r_i_glide_eff_state_penalty>  (33) 
0

>  <ligand_id>  (33) 
12

>  <original_smiles>  (33) 
CC(C)C1C(O)C23OC45C6CC(O)C1(C)C2(O)CC(C3O)C4(O)C(O)C5CC1(C)C(O)CCC61

>  <smiles>  (33) 
[H]OC1([H])C2([H])C([H])([H])C3(O[H])C14OC15C([H])(C([H])([H])C6(C([H])([H])[H])C([H])(O[H])C([H])([H])C([H])([H])C6([H])C1([H])C([H])([H])C([H])(O[H])C3(C([H])([H])[H])C([H])(C([H])(C([H])([H])[H])C([H])([H])[H])C4([H])O[H])C([H])(O[H])C25O[H]

$$$$
12:0:1
     RDKit          3D

 74 80  0  0  1  0  0  0  0  0999 V2000
    4.6069   -1.6240    6.3721 C   0  0  0  0  0  0  0  0  0  0  0  0
    3.1922   -1.5279    5.7627 C   0  0  0  0  0  0  0  0  0  0  0  0
    2.8990   -2.8916    5.1022 C   0  0  0  0  0  0  0  0  0  0  0  0
    3.0546   -0.3067    4.7971 C   0  0  2  0  0  0  0  0  0  0  0  0
    3.4341    1.0691    5.4626 C   0  0  1  0  0  0  0  0  0  0  0  0
    4.8179    1.3411    5.3414 O   0  0  0  0  0  0  0  0  0  0  0  0
    2.5335    2.1678    4.8233 C   0  0  2  0  0  0  0  0  0  0  0  0
    1.5165    2.6165    5.8325 O   0  0  0  0  0  0  0  0  0  0  0  0
    0.2237    3.1547    5.4072 C   0  0  2  0  0  0  0  0  0  0  0  0
   -0.8505    2.0291    5.5487 C   0  0  1  0  0  0  0  0  0  0  0  0
   -0.7181    0.6827    4.8126 C   0  0  0  0  0  0  0  0  0  0  0  0
    0.5385   -0.1207    5.0948 C   0  0  1  0  0  0  0  0  0  0  0  0
    0.0771   -1.4365    5.3287 O   0  0  0  0  0  0  0  0  0  0  0  0
    1.6795   -0.0232    4.0439 C   0  0  2  0  0  0  0  0  0  0  0  0
    1.4134   -0.9724    2.8282 C   0  0  0  0  0  0  0  0  0  0  0  0
    2.0034    1.4458    3.5696 C   0  0  2  0  0  0  0  0  0  0  0  0
    3.0218    1.1990    2.5743 O   0  0  0  0  0  0  0  0  0  0  0  0
    1.1712    2.5486    2.8255 C   0  0  0  0  0  0  0  0  0  0  0  0
    1.7248    3.8956    3.4168 C   0  0  2  0  0  0  0  0  0  0  0  0
    3.0641    3.4238    4.0959 C   0  0  1  0  0  0  0  0  0  0  0  0
    3.9004    4.2540    4.8844 O   0  0  0  0  0  0  0  0  0  0  0  0
    0.8009    4.3499    4.5457 C   0  0  2  0  0  0  0  0  0  0  0  0
    1.5550    5.3258    5.2573 O   0  0  0  0  0  0  0  0  0  0  0  0
   -0.5188    5.0453    4.4757 C   0  0  1  0  0  0  0  0  0  0  0  0
   -1.3530    4.7248    3.3736 O   0  0  0  0  0  0  0  0  0  0  0  0
   -0.7404    4.2943    5.8192 C   0  0  2  0  0  0  0  0  0  0  0  0
   -0.6989    4.5847    7.2862 C   0  0  0  0  0  0  0  0  0  0  0  0
   -1.3031    3.3025    7.9678 C   0  0  2  0  0  0  0  0  0  0  0  0
   -2.8095    3.5266    8.2501 C   0  0  0  0  0  0  0  0  0  0  0  0
   -0.5307    3.0345    9.2859 C   0  0  1  0  0  0  0  0  0  0  0  0
   -1.0555    3.6629   10.4428 O   0  0  0  0  0  0  0  0  0  0  0  0
   -0.4645    1.5229    9.4334 C   0  0  0  0  0  0  0  0  0  0  0  0
   -0.2591    1.0687    7.9937 C   0  0  0  0  0  0  0  0  0  0  0  0
   -1.1849    1.9412    7.1200 C   0  0  2  0  0  0  0  0  0  0  0  0
    5.3712   -1.7135    5.5989 H   0  0  0  0  0  0  0  0  0  0  0  0
    4.6987   -2.4987    7.0162 H   0  0  0  0  0  0  0  0  0  0  0  0
    4.8573   -0.7610    6.9874 H   0  0  0  0  0  0  0  0  0  0  0  0
    2.5117   -1.3908    6.6000 H   0  0  0  0  0  0  0  0  0  0  0  0
    3.5043   -3.0353    4.2078 H   0  0  0  0  0  0  0  0  0  0  0  0
    1.8645   -3.0414    4.8126 H   0  0  0  0  0  0  0  0  0  0  0  0
    3.1241   -3.7099    5.7870 H   0  0  0  0  0  0  0  0  0  0  0  0
    3.8035   -0.5089    4.0317 H   0  0  0  0  0  0  0  0  0  0  0  0
    3.2097    1.0380    6.5299 H   0  0  0  0  0  0  0  0  0  0  0  0
    5.0179    1.4793    4.4289 H   0  0  0  0  0  0  0  0  0  0  0  0
   -1.7794    2.3232    5.0518 H   0  0  0  0  0  0  0  0  0  0  0  0
   -1.5944    0.1110    5.1262 H   0  0  0  0  0  0  0  0  0  0  0  0
   -0.8662    0.7809    3.7401 H   0  0  0  0  0  0  0  0  0  0  0  0
    0.9630    0.1843    6.0355 H   0  0  0  0  0  0  0  0  0  0  0  0
    0.8269   -1.9786    5.5135 H   0  0  0  0  0  0  0  0  0  0  0  0
    0.6792   -0.5420    2.1462 H   0  0  0  0  0  0  0  0  0  0  0  0
    1.0406   -1.9540    3.1056 H   0  0  0  0  0  0  0  0  0  0  0  0
    2.3148   -1.1637    2.2445 H   0  0  0  0  0  0  0  0  0  0  0  0
    3.5089    1.9785    2.3880 H   0  0  0  0  0  0  0  0  0  0  0  0
    1.2995    2.5090    1.7404 H   0  0  0  0  0  0  0  0  0  0  0  0
    0.0973    2.4740    2.9576 H   0  0  0  0  0  0  0  0  0  0  0  0
    1.8703    4.6669    2.6543 H   0  0  0  0  0  0  0  0  0  0  0  0
    3.7696    3.2336    3.2971 H   0  0  0  0  0  0  0  0  0  0  0  0
    4.0884    5.0440    4.4070 H   0  0  0  0  0  0  0  0  0  0  0  0
    1.7679    6.0143    4.6480 H   0  0  0  0  0  0  0  0  0  0  0  0
   -0.4992    6.1294    4.6043 H   0  0  0  0  0  0  0  0  0  0  0  0
   -0.7782    4.5781    2.6228 H   0  0  0  0  0  0  0  0  0  0  0  0
   -1.8003    4.1701    5.6489 H   0  0  0  0  0  0  0  0  0  0  0  0
    0.3310    4.7689    7.6088 H   0  0  0  0  0  0  0  0  0  0  0  0
   -1.2591    5.4780    7.5386 H   0  0  0  0  0  0  0  0  0  0  0  0
   -3.2383    2.7089    8.8280 H   0  0  0  0  0  0  0  0  0  0  0  0
   -3.3609    3.5901    7.3174 H   0  0  0  0  0  0  0  0  0  0  0  0
   -2.9952    4.4426    8.8109 H   0  0  0  0  0  0  0  0  0  0  0  0
    0.5015    3.3729    9.1871 H   0  0  0  0  0  0  0  0  0  0  0  0
   -1.7457    3.1288   10.8131 H   0  0  0  0  0  0  0  0  0  0  0  0
    0.3501    1.2069   10.0936 H   0  0  0  0  0  0  0  0  0  0  0  0
   -1.3874    1.1307    9.8405 H   0  0  0  0  0  0  0  0  0  0  0  0
    0.7855    1.2696    7.7781 H   0  0  0  0  0  0  0  0  0  0  0  0
   -0.4400   -0.0017    7.8714 H   0  0  0  0  0  0  0  0  0  0  0  0
   -2.1500    1.4445    7.1649 H   0  0  0  0  0  0  0  0  0  0  0  0
  1  2  1  0
  1 35  1  0
  1 36  1  0
  1 37  1  0
  2  3  1  0
  2  4  1  0
  2 38  1  0
  3 39  1  0
  3 40  1  0
  3 41  1  0
  4 14  1  0
  4  5  1  0
  4 42  1  6
  5  6  1  0
  5  7  1  0
  5 43  1  1
  6 44  1  0
  7 16  1  0
  7 20  1  0
  7  8  1  1
  9  8  1  1
  9 22  1  0
  9 26  1  0
  9 10  1  0
 10 34  1  0
 10 11  1  0
 10 45  1  6
 11 12  1  0
 11 46  1  0
 11 47  1  0
 12 13  1  0
 12 14  1  0
 12 48  1  1
 13 49  1  0
 14 15  1  6
 14 16  1  0
 15 50  1  0
 15 51  1  0
 15 52  1  0
 16 17  1  6
 16 18  1  0
 17 53  1  0
 18 19  1  0
 18 54  1  0
 18 55  1  0
 19 20  1  0
 19 22  1  0
 19 56  1  6
 20 21  1  0
 20 57  1  6
 21 58  1  0
 22 23  1  1
 22 24  1  0
 23 59  1  0
 24 25  1  0
 24 26  1  0
 24 60  1  1
 25 61  1  0
 26 27  1  0
 26 62  1  6
 27 28  1  0
 27 63  1  0
 27 64  1  0
 28 34  1  0
 28 29  1  1
 28 30  1  0
 29 65  1  0
 29 66  1  0
 29 67  1  0
 30 31  1  0
 30 32  1  0
 30 68  1  6
 31 69  1  0
 32 33  1  0
 32 70  1  0
 32 71  1  0
 33 34  1  0
 33 72  1  0
 33 73  1  0
 34 74  1  6
M  END
>  <i_m_ct_stereo_status>  (34) 
1

>  <s_m_source_file>  (34) 
/var/tmp/pbs.5076255.sched01/tmphbojuwnv/0fr5z8inm.sdf

>  <i_m_source_file_index>  (34) 
23

>  <i_lp_mmshare_version>  (34) 
48012

>  <i_f3d_flags>  (34) 
0

>  <s_epik_input>  (34) 
W0NIM11bQ0hdKFtDSDNdKVtDQEhdKFtDQEhdMVtPSF0pW0NAXShbQ0gzXSkoW0NAQF0yKFtDQF0xMzQpW09IXSlbQ0BIXShbT0hdKVtDSDJdW0NAQEhdNVtDQEBdNihPMylbQ0BAXShbT0hdKShbQ0BIXShbQ0gyXTIpW0NASF00W09IXSlbQ0BASF0oW09IXSlbQ0BASF02W0NIMl1bQ0BAXTcoW0NIM10pW0NAQEhdNVtDSDJdW0NIMl1bQ0BASF03W09IXQ==

>  <s_epik_cmdline>  (34) 
J2VwaWtfcHl0aG9uJywgJy1waHQnLCAnMi4wJywgJy1waCcsICc3LjAnLCAnLXRuJywgJzgnLCAnLW1hJywgJzIwMCcsICctaW1hZScsICc8aW5maWxlLm1hZT4nLCAnLW9tYWUnLCAnPG91dGZpbGUubWFlPic=

>  <r_lp_tautomer_probability>  (34) 
1

>  <r_epik_Ionization_Penalty>  (34) 
2.71427e-06

>  <r_epik_Ionization_Penalty_Charging>  (34) 
0

>  <r_epik_Ionization_Penalty_Neutral>  (34) 
2.71427e-06

>  <r_epik_State_Penalty>  (34) 
-0

>  <r_epik_Charging_Adjusted_Penalty>  (34) 
0

>  <i_epik_Tot_Q>  (34) 
0

>  <i_epik_Tot_abs_Q>  (34) 
0

>  <s_lp_Force_Field>  (34) 
OPLS3e

>  <r_lp_Energy>  (34) 
241.718

>  <b_lp_Chiralities_Consistent>  (34) 
1

>  <s_lp_Variant>  (34) 
12:0-1

>  <s_i_glide_gridfile>  (34) 
pfpi4k_grid

>  <i_i_glide_lignum>  (34) 
23

>  <i_i_glide_rotatable_bonds>  (34) 
8

>  <r_i_docking_score>  (34) 
-2.83827

>  <r_i_glide_ligand_efficiency>  (34) 
-0.0834785

>  <r_i_glide_ligand_efficiency_sa>  (34) 
-0.270438

>  <r_i_glide_ligand_efficiency_ln>  (34) 
-0.627053

>  <r_i_glide_gscore>  (34) 
-2.83827

>  <r_i_glide_lipo>  (34) 
-0.116709

>  <r_i_glide_hbond>  (34) 
-0.300754

>  <r_i_glide_metal>  (34) 
-0

>  <r_i_glide_rewards>  (34) 
-0.132334

>  <r_i_glide_evdw>  (34) 
-19.0426

>  <r_i_glide_ecoul>  (34) 
-8.90893

>  <r_i_glide_erotb>  (34) 
0

>  <r_i_glide_esite>  (34) 
0

>  <r_i_glide_emodel>  (34) 
-31.5094

>  <r_i_glide_energy>  (34) 
-27.9515

>  <r_i_glide_einternal>  (34) 
3.54719

>  <r_i_glide_intrahb_reward>  (34) 
-0

>  <i_i_glide_confnum>  (34) 
1

>  <i_i_glide_posenum>  (34) 
34

>  <r_i_glide_eff_state_penalty>  (34) 
0

>  <ligand_id>  (34) 
12

>  <original_smiles>  (34) 
CC(C)C1C(O)C23OC45C6CC(O)C1(C)C2(O)CC(C3O)C4(O)C(O)C5CC1(C)C(O)CCC61

>  <smiles>  (34) 
[H]OC1([H])C2([H])C([H])([H])C3(O[H])C14OC15C([H])(C([H])([H])C6(C([H])([H])[H])C([H])(O[H])C([H])([H])C([H])([H])C6([H])C1([H])C([H])([H])C([H])(O[H])C3(C([H])([H])[H])C([H])(C([H])(C([H])([H])[H])C([H])([H])[H])C4([H])O[H])C([H])(O[H])C25O[H]

$$$$
12:0:2
     RDKit          3D

 74 80  0  0  1  0  0  0  0  0999 V2000
    4.2866   -1.9792    5.9973 C   0  0  0  0  0  0  0  0  0  0  0  0
    2.8495   -1.8061    5.4573 C   0  0  0  0  0  0  0  0  0  0  0  0
    2.4575   -3.1436    4.7979 C   0  0  0  0  0  0  0  0  0  0  0  0
    2.7281   -0.5632    4.5106 C   0  0  2  0  0  0  0  0  0  0  0  0
    3.1943    0.7838    5.1764 C   0  0  1  0  0  0  0  0  0  0  0  0
    4.5743    1.0266    4.9920 O   0  0  0  0  0  0  0  0  0  0  0  0
    2.3137    1.9226    4.5931 C   0  0  2  0  0  0  0  0  0  0  0  0
    1.3783    2.4088    5.6610 O   0  0  0  0  0  0  0  0  0  0  0  0
    0.0984    3.0188    5.3028 C   0  0  2  0  0  0  0  0  0  0  0  0
   -1.0185    1.9486    5.4849 C   0  0  1  0  0  0  0  0  0  0  0  0
   -0.9906    0.6067    4.7287 C   0  0  0  0  0  0  0  0  0  0  0  0
    0.2369   -0.2656    4.9355 C   0  0  1  0  0  0  0  0  0  0  0  0
   -0.2791   -1.5599    5.1725 O   0  0  0  0  0  0  0  0  0  0  0  0
    1.3305   -0.2136    3.8335 C   0  0  2  0  0  0  0  0  0  0  0  0
    0.9701   -1.1289    2.6199 C   0  0  0  0  0  0  0  0  0  0  0  0
    1.6868    1.2453    3.3595 C   0  0  2  0  0  0  0  0  0  0  0  0
    2.6038    0.9744    2.2818 O   0  0  0  0  0  0  0  0  0  0  0  0
    0.8751    2.4023    2.6798 C   0  0  0  0  0  0  0  0  0  0  0  0
    1.5330    3.7063    3.2579 C   0  0  2  0  0  0  0  0  0  0  0  0
    2.8679    3.1538    3.8589 C   0  0  1  0  0  0  0  0  0  0  0  0
    3.8068    3.9170    4.6130 O   0  0  0  0  0  0  0  0  0  0  0  0
    0.6998    4.1993    4.4344 C   0  0  2  0  0  0  0  0  0  0  0  0
    1.5426    5.1239    5.1164 O   0  0  0  0  0  0  0  0  0  0  0  0
   -0.5847    4.9605    4.4289 C   0  0  1  0  0  0  0  0  0  0  0  0
   -1.4624    4.6954    3.3514 O   0  0  0  0  0  0  0  0  0  0  0  0
   -0.7836    4.2050    5.7732 C   0  0  2  0  0  0  0  0  0  0  0  0
   -0.6540    4.4705    7.2383 C   0  0  0  0  0  0  0  0  0  0  0  0
   -1.2871    3.2122    7.9379 C   0  0  2  0  0  0  0  0  0  0  0  0
   -2.7657    3.5065    8.2985 C   0  0  0  0  0  0  0  0  0  0  0  0
   -0.4651    2.8868    9.2119 C   0  0  1  0  0  0  0  0  0  0  0  0
   -0.8992    3.5348   10.3985 O   0  0  0  0  0  0  0  0  0  0  0  0
   -0.4642    1.3742    9.3408 C   0  0  0  0  0  0  0  0  0  0  0  0
   -0.3513    0.9299    7.8891 C   0  0  0  0  0  0  0  0  0  0  0  0
   -1.2775    1.8536    7.0696 C   0  0  2  0  0  0  0  0  0  0  0  0
    5.0062   -2.0935    5.1872 H   0  0  0  0  0  0  0  0  0  0  0  0
    4.3667   -2.8681    6.6258 H   0  0  0  0  0  0  0  0  0  0  0  0
    4.6060   -1.1368    6.6109 H   0  0  0  0  0  0  0  0  0  0  0  0
    2.2200   -1.6453    6.3287 H   0  0  0  0  0  0  0  0  0  0  0  0
    3.0090   -3.3046    3.8725 H   0  0  0  0  0  0  0  0  0  0  0  0
    1.4026   -3.2377    4.5595 H   0  0  0  0  0  0  0  0  0  0  0  0
    2.6711   -3.9813    5.4616 H   0  0  0  0  0  0  0  0  0  0  0  0
    3.4337   -0.7786    3.7061 H   0  0  0  0  0  0  0  0  0  0  0  0
    3.0218    0.7528    6.2534 H   0  0  0  0  0  0  0  0  0  0  0  0
    4.7603    1.8896    5.3228 H   0  0  0  0  0  0  0  0  0  0  0  0
   -1.9533    2.2951    5.0373 H   0  0  0  0  0  0  0  0  0  0  0  0
   -1.8767    0.0751    5.0810 H   0  0  0  0  0  0  0  0  0  0  0  0
   -1.1885    0.7237    3.6674 H   0  0  0  0  0  0  0  0  0  0  0  0
    0.7203    0.0012    5.8596 H   0  0  0  0  0  0  0  0  0  0  0  0
    0.4540   -2.1417    5.2980 H   0  0  0  0  0  0  0  0  0  0  0  0
    0.2283   -0.6421    1.9902 H   0  0  0  0  0  0  0  0  0  0  0  0
    0.5601   -2.0916    2.9057 H   0  0  0  0  0  0  0  0  0  0  0  0
    1.8290   -1.3605    1.9883 H   0  0  0  0  0  0  0  0  0  0  0  0
    2.1184    0.6075    1.5612 H   0  0  0  0  0  0  0  0  0  0  0  0
    0.9548    2.3768    1.5905 H   0  0  0  0  0  0  0  0  0  0  0  0
   -0.1924    2.3761    2.8575 H   0  0  0  0  0  0  0  0  0  0  0  0
    1.6960    4.4775    2.4933 H   0  0  0  0  0  0  0  0  0  0  0  0
    3.4792    2.9301    3.0015 H   0  0  0  0  0  0  0  0  0  0  0  0
    4.0526    4.6595    4.1022 H   0  0  0  0  0  0  0  0  0  0  0  0
    1.8175    5.7630    4.4843 H   0  0  0  0  0  0  0  0  0  0  0  0
   -0.5032    6.0413    4.5716 H   0  0  0  0  0  0  0  0  0  0  0  0
   -0.9172    4.5607    2.5800 H   0  0  0  0  0  0  0  0  0  0  0  0
   -1.8554    4.1366    5.6505 H   0  0  0  0  0  0  0  0  0  0  0  0
    0.3982    4.5966    7.5093 H   0  0  0  0  0  0  0  0  0  0  0  0
   -1.1535    5.3897    7.5270 H   0  0  0  0  0  0  0  0  0  0  0  0
   -3.2064    2.7009    8.8859 H   0  0  0  0  0  0  0  0  0  0  0  0
   -3.3611    3.6147    7.3975 H   0  0  0  0  0  0  0  0  0  0  0  0
   -2.8758    4.4221    8.8789 H   0  0  0  0  0  0  0  0  0  0  0  0
    0.5774    3.1763    9.0646 H   0  0  0  0  0  0  0  0  0  0  0  0
   -1.6827    3.1210   10.7207 H   0  0  0  0  0  0  0  0  0  0  0  0
    0.3636    1.0146    9.9547 H   0  0  0  0  0  0  0  0  0  0  0  0
   -1.3880    1.0235    9.7914 H   0  0  0  0  0  0  0  0  0  0  0  0
    0.6891    1.0848    7.6206 H   0  0  0  0  0  0  0  0  0  0  0  0
   -0.5798   -0.1326    7.7628 H   0  0  0  0  0  0  0  0  0  0  0  0
   -2.2640    1.4046    7.1583 H   0  0  0  0  0  0  0  0  0  0  0  0
  1  2  1  0
  1 35  1  0
  1 36  1  0
  1 37  1  0
  2  3  1  0
  2  4  1  0
  2 38  1  0
  3 39  1  0
  3 40  1  0
  3 41  1  0
  4 14  1  0
  4  5  1  0
  4 42  1  6
  5  6  1  0
  5  7  1  0
  5 43  1  1
  6 44  1  0
  7 16  1  0
  7 20  1  0
  7  8  1  1
  9  8  1  1
  9 22  1  0
  9 26  1  0
  9 10  1  0
 10 34  1  0
 10 11  1  0
 10 45  1  6
 11 12  1  0
 11 46  1  0
 11 47  1  0
 12 13  1  0
 12 14  1  0
 12 48  1  1
 13 49  1  0
 14 15  1  6
 14 16  1  0
 15 50  1  0
 15 51  1  0
 15 52  1  0
 16 17  1  6
 16 18  1  0
 17 53  1  0
 18 19  1  0
 18 54  1  0
 18 55  1  0
 19 20  1  0
 19 22  1  0
 19 56  1  6
 20 21  1  0
 20 57  1  6
 21 58  1  0
 22 23  1  1
 22 24  1  0
 23 59  1  0
 24 25  1  0
 24 26  1  0
 24 60  1  1
 25 61  1  0
 26 27  1  0
 26 62  1  1
 27 28  1  0
 27 63  1  0
 27 64  1  0
 28 34  1  0
 28 29  1  1
 28 30  1  0
 29 65  1  0
 29 66  1  0
 29 67  1  0
 30 31  1  0
 30 32  1  0
 30 68  1  6
 31 69  1  0
 32 33  1  0
 32 70  1  0
 32 71  1  0
 33 34  1  0
 33 72  1  0
 33 73  1  0
 34 74  1  6
M  END
>  <i_m_ct_stereo_status>  (35) 
1

>  <s_m_source_file>  (35) 
/var/tmp/pbs.5076255.sched01/tmphbojuwnv/0fr5z8inm.sdf

>  <i_m_source_file_index>  (35) 
23

>  <i_lp_mmshare_version>  (35) 
48012

>  <i_f3d_flags>  (35) 
0

>  <s_epik_input>  (35) 
W0NIM11bQ0hdKFtDSDNdKVtDQEhdKFtDQEhdMVtPSF0pW0NAXShbQ0gzXSkoW0NAQF0yKFtDQF0xMzQpW09IXSlbQ0BIXShbT0hdKVtDSDJdW0NAQEhdNVtDQEBdNihPMylbQ0BAXShbT0hdKShbQ0BIXShbQ0gyXTIpW0NASF00W09IXSlbQ0BASF0oW09IXSlbQ0BASF02W0NIMl1bQ0BAXTcoW0NIM10pW0NAQEhdNVtDSDJdW0NIMl1bQ0BASF03W09IXQ==

>  <s_epik_cmdline>  (35) 
J2VwaWtfcHl0aG9uJywgJy1waHQnLCAnMi4wJywgJy1waCcsICc3LjAnLCAnLXRuJywgJzgnLCAnLW1hJywgJzIwMCcsICctaW1hZScsICc8aW5maWxlLm1hZT4nLCAnLW9tYWUnLCAnPG91dGZpbGUubWFlPic=

>  <r_lp_tautomer_probability>  (35) 
1

>  <r_epik_Ionization_Penalty>  (35) 
2.71427e-06

>  <r_epik_Ionization_Penalty_Charging>  (35) 
0

>  <r_epik_Ionization_Penalty_Neutral>  (35) 
2.71427e-06

>  <r_epik_State_Penalty>  (35) 
-0

>  <r_epik_Charging_Adjusted_Penalty>  (35) 
0

>  <i_epik_Tot_Q>  (35) 
0

>  <i_epik_Tot_abs_Q>  (35) 
0

>  <s_lp_Force_Field>  (35) 
OPLS3e

>  <r_lp_Energy>  (35) 
241.718

>  <b_lp_Chiralities_Consistent>  (35) 
1

>  <s_lp_Variant>  (35) 
12:0-1

>  <s_i_glide_gridfile>  (35) 
pfpi4k_grid

>  <i_i_glide_lignum>  (35) 
23

>  <i_i_glide_rotatable_bonds>  (35) 
8

>  <r_i_docking_score>  (35) 
-2.53478

>  <r_i_glide_ligand_efficiency>  (35) 
-0.0745522

>  <r_i_glide_ligand_efficiency_sa>  (35) 
-0.24152

>  <r_i_glide_ligand_efficiency_ln>  (35) 
-0.560003

>  <r_i_glide_gscore>  (35) 
-2.53478

>  <r_i_glide_lipo>  (35) 
-0.110504

>  <r_i_glide_hbond>  (35) 
-0.302626

>  <r_i_glide_metal>  (35) 
-0

>  <r_i_glide_rewards>  (35) 
-0.132334

>  <r_i_glide_evdw>  (35) 
-20.0052

>  <r_i_glide_ecoul>  (35) 
-6.59368

>  <r_i_glide_erotb>  (35) 
0

>  <r_i_glide_esite>  (35) 
0

>  <r_i_glide_emodel>  (35) 
-29.757

>  <r_i_glide_energy>  (35) 
-26.5989

>  <r_i_glide_einternal>  (35) 
3.3036

>  <r_i_glide_intrahb_reward>  (35) 
-0

>  <i_i_glide_confnum>  (35) 
2

>  <i_i_glide_posenum>  (35) 
6

>  <r_i_glide_eff_state_penalty>  (35) 
0

>  <ligand_id>  (35) 
12

>  <original_smiles>  (35) 
CC(C)C1C(O)C23OC45C6CC(O)C1(C)C2(O)CC(C3O)C4(O)C(O)C5CC1(C)C(O)CCC61

>  <smiles>  (35) 
[H]OC1([H])C2([H])C([H])([H])C3(O[H])C14OC15C([H])(C([H])([H])C6(C([H])([H])[H])C([H])(O[H])C([H])([H])C([H])([H])C6([H])C1([H])C([H])([H])C([H])(O[H])C3(C([H])([H])[H])C([H])(C([H])(C([H])([H])[H])C([H])([H])[H])C4([H])O[H])C([H])(O[H])C25O[H]

$$$$
13:0:0
     RDKit          3D

 18 19  0  0  1  0  0  0  0  0999 V2000
    0.4606    1.1907    1.9702 C   0  0  0  0  0  0  0  0  0  0  0  0
   -0.2892    1.0125    3.2061 N   0  0  0  0  0  0  0  0  0  0  0  0
   -1.1747    1.8351    3.8384 C   0  0  0  0  0  0  0  0  0  0  0  0
   -1.5356    3.1672    3.2733 C   0  0  0  0  0  0  0  0  0  0  0  0
   -2.1824    3.9905    3.9252 O   0  0  0  0  0  0  0  0  0  0  0  0
   -1.6856    1.3614    4.9837 N   0  0  0  0  0  0  0  0  0  0  0  0
   -1.0867    0.1264    5.1010 C   0  0  0  0  0  0  0  0  0  0  0  0
   -1.2625   -0.7703    6.0787 N   0  0  0  0  0  0  0  0  0  0  0  0
   -0.5175   -1.8974    5.9435 C   0  0  0  0  0  0  0  0  0  0  0  0
    0.3683   -2.1305    4.8627 C   0  0  0  0  0  0  0  0  0  0  0  0
    0.5529   -1.2394    3.8605 N   0  0  0  0  0  0  0  0  0  0  0  0
   -0.2006   -0.1103    4.0172 C   0  0  0  0  0  0  0  0  0  0  0  0
    0.2644    2.1399    1.4782 H   0  0  0  0  0  0  0  0  0  0  0  0
    0.2124    0.3863    1.2792 H   0  0  0  0  0  0  0  0  0  0  0  0
    1.5293    1.1346    2.1839 H   0  0  0  0  0  0  0  0  0  0  0  0
   -1.2196    3.3517    2.2506 H   0  0  0  0  0  0  0  0  0  0  0  0
   -0.6251   -2.6327    6.7245 H   0  0  0  0  0  0  0  0  0  0  0  0
    0.9298   -3.0525    4.8017 H   0  0  0  0  0  0  0  0  0  0  0  0
  1  2  1  0
  1 13  1  0
  1 14  1  0
  1 15  1  0
  2 12  1  0
  2  3  1  0
  3  4  1  0
  3  6  2  0
  4  5  2  0
  4 16  1  0
  6  7  1  0
  7 12  2  0
  7  8  1  0
  8  9  2  0
  9 10  1  0
  9 17  1  0
 10 11  2  0
 10 18  1  0
 11 12  1  0
M  END
>  <i_m_ct_stereo_status>  (36) 
1

>  <s_m_source_file>  (36) 
/var/tmp/pbs.5076255.sched01/tmphbojuwnv/0fr5z8inm.sdf

>  <i_m_source_file_index>  (36) 
24

>  <i_lp_mmshare_version>  (36) 
48012

>  <i_f3d_flags>  (36) 
0

>  <s_epik_input>  (36) 
Tz1bQ0hdYyhuMSluKFtDSDNdKWMoYzEyKW5bY0hdW2NIXW4y

>  <s_epik_cmdline>  (36) 
J2VwaWtfcHl0aG9uJywgJy1waHQnLCAnMi4wJywgJy1waCcsICc3LjAnLCAnLXRuJywgJzgnLCAnLW1hJywgJzIwMCcsICctaW1hZScsICc8aW5maWxlLm1hZT4nLCAnLW9tYWUnLCAnPG91dGZpbGUubWFlPic=

>  <r_lp_tautomer_probability>  (36) 
1

>  <r_epik_Ionization_Penalty>  (36) 
4.54483e-11

>  <r_epik_Ionization_Penalty_Charging>  (36) 
0

>  <r_epik_Ionization_Penalty_Neutral>  (36) 
4.54483e-11

>  <r_epik_State_Penalty>  (36) 
-0

>  <r_epik_Charging_Adjusted_Penalty>  (36) 
0

>  <i_epik_Tot_Q>  (36) 
0

>  <i_epik_Tot_abs_Q>  (36) 
0

>  <s_lp_Force_Field>  (36) 
OPLS3e

>  <r_lp_Energy>  (36) 
21.5925

>  <b_lp_Chiralities_Consistent>  (36) 
1

>  <s_lp_Variant>  (36) 
13:0-1

>  <s_i_glide_gridfile>  (36) 
pfpi4k_grid

>  <i_i_glide_lignum>  (36) 
24

>  <i_i_glide_rotatable_bonds>  (36) 
1

>  <r_i_docking_score>  (36) 
-3.94448

>  <r_i_glide_ligand_efficiency>  (36) 
-0.328707

>  <r_i_glide_ligand_efficiency_sa>  (36) 
-0.75255

>  <r_i_glide_ligand_efficiency_ln>  (36) 
-1.13188

>  <r_i_glide_gscore>  (36) 
-3.94448

>  <r_i_glide_lipo>  (36) 
-0.0105075

>  <r_i_glide_hbond>  (36) 
-0.0871415

>  <r_i_glide_metal>  (36) 
-0

>  <r_i_glide_rewards>  (36) 
-2.25

>  <r_i_glide_evdw>  (36) 
-14.7185

>  <r_i_glide_ecoul>  (36) 
-4.53886

>  <r_i_glide_erotb>  (36) 
0

>  <r_i_glide_esite>  (36) 
-0.180075

>  <r_i_glide_emodel>  (36) 
-25.205

>  <r_i_glide_energy>  (36) 
-19.2574

>  <r_i_glide_einternal>  (36) 
0.281367

>  <r_i_glide_intrahb_reward>  (36) 
-0

>  <i_i_glide_confnum>  (36) 
2

>  <i_i_glide_posenum>  (36) 
38

>  <r_i_glide_eff_state_penalty>  (36) 
0

>  <ligand_id>  (36) 
13

>  <original_smiles>  (36) 
Cn1c(C=O)nc2nccnc21

>  <smiles>  (36) 
[H]C(=O)c1nc2nc([H])c([H])nc2n1C([H])([H])[H]

$$$$
13:0:1
     RDKit          3D

 18 19  0  0  1  0  0  0  0  0999 V2000
    1.3092   -2.2550    3.5994 C   0  0  0  0  0  0  0  0  0  0  0  0
    0.2748   -1.5031    4.2994 N   0  0  0  0  0  0  0  0  0  0  0  0
   -0.4758   -1.8227    5.3913 C   0  0  0  0  0  0  0  0  0  0  0  0
   -0.3043   -3.1312    6.0912 C   0  0  0  0  0  0  0  0  0  0  0  0
   -1.0026   -3.4217    7.0629 O   0  0  0  0  0  0  0  0  0  0  0  0
   -1.3627   -0.8932    5.7767 N   0  0  0  0  0  0  0  0  0  0  0  0
   -1.1572    0.1253    4.8662 C   0  0  0  0  0  0  0  0  0  0  0  0
   -1.7838    1.3041    4.8099 N   0  0  0  0  0  0  0  0  0  0  0  0
   -1.3894    2.1027    3.7842 C   0  0  0  0  0  0  0  0  0  0  0  0
   -0.3862    1.7378    2.8504 C   0  0  0  0  0  0  0  0  0  0  0  0
    0.2686    0.5531    2.8992 N   0  0  0  0  0  0  0  0  0  0  0  0
   -0.1513   -0.2339    3.9319 C   0  0  0  0  0  0  0  0  0  0  0  0
    1.5035   -3.2324    4.0343 H   0  0  0  0  0  0  0  0  0  0  0  0
    2.2399   -1.6868    3.6114 H   0  0  0  0  0  0  0  0  0  0  0  0
    1.0134   -2.3977    2.5593 H   0  0  0  0  0  0  0  0  0  0  0  0
    0.4529   -3.8066    5.6974 H   0  0  0  0  0  0  0  0  0  0  0  0
   -1.8843    3.0580    3.7039 H   0  0  0  0  0  0  0  0  0  0  0  0
   -0.0998    2.4190    2.0629 H   0  0  0  0  0  0  0  0  0  0  0  0
  1  2  1  0
  1 13  1  0
  1 14  1  0
  1 15  1  0
  2 12  1  0
  2  3  1  0
  3  4  1  0
  3  6  2  0
  4  5  2  0
  4 16  1  0
  6  7  1  0
  7 12  2  0
  7  8  1  0
  8  9  2  0
  9 10  1  0
  9 17  1  0
 10 11  2  0
 10 18  1  0
 11 12  1  0
M  END
>  <i_m_ct_stereo_status>  (37) 
1

>  <s_m_source_file>  (37) 
/var/tmp/pbs.5076255.sched01/tmphbojuwnv/0fr5z8inm.sdf

>  <i_m_source_file_index>  (37) 
24

>  <i_lp_mmshare_version>  (37) 
48012

>  <i_f3d_flags>  (37) 
0

>  <s_epik_input>  (37) 
Tz1bQ0hdYyhuMSluKFtDSDNdKWMoYzEyKW5bY0hdW2NIXW4y

>  <s_epik_cmdline>  (37) 
J2VwaWtfcHl0aG9uJywgJy1waHQnLCAnMi4wJywgJy1waCcsICc3LjAnLCAnLXRuJywgJzgnLCAnLW1hJywgJzIwMCcsICctaW1hZScsICc8aW5maWxlLm1hZT4nLCAnLW9tYWUnLCAnPG91dGZpbGUubWFlPic=

>  <r_lp_tautomer_probability>  (37) 
1

>  <r_epik_Ionization_Penalty>  (37) 
4.54483e-11

>  <r_epik_Ionization_Penalty_Charging>  (37) 
0

>  <r_epik_Ionization_Penalty_Neutral>  (37) 
4.54483e-11

>  <r_epik_State_Penalty>  (37) 
-0

>  <r_epik_Charging_Adjusted_Penalty>  (37) 
0

>  <i_epik_Tot_Q>  (37) 
0

>  <i_epik_Tot_abs_Q>  (37) 
0

>  <s_lp_Force_Field>  (37) 
OPLS3e

>  <r_lp_Energy>  (37) 
21.5925

>  <b_lp_Chiralities_Consistent>  (37) 
1

>  <s_lp_Variant>  (37) 
13:0-1

>  <s_i_glide_gridfile>  (37) 
pfpi4k_grid

>  <i_i_glide_lignum>  (37) 
24

>  <i_i_glide_rotatable_bonds>  (37) 
1

>  <r_i_docking_score>  (37) 
-3.79068

>  <r_i_glide_ligand_efficiency>  (37) 
-0.31589

>  <r_i_glide_ligand_efficiency_sa>  (37) 
-0.723208

>  <r_i_glide_ligand_efficiency_ln>  (37) 
-1.08774

>  <r_i_glide_gscore>  (37) 
-3.79068

>  <r_i_glide_lipo>  (37) 
-0.0402466

>  <r_i_glide_hbond>  (37) 
-0.0113231

>  <r_i_glide_metal>  (37) 
-0

>  <r_i_glide_rewards>  (37) 
-2.25

>  <r_i_glide_evdw>  (37) 
-14.33

>  <r_i_glide_ecoul>  (37) 
-4.48893

>  <r_i_glide_erotb>  (37) 
0

>  <r_i_glide_esite>  (37) 
-0.0992748

>  <r_i_glide_emodel>  (37) 
-24.715

>  <r_i_glide_energy>  (37) 
-18.8189

>  <r_i_glide_einternal>  (37) 
0.00559363

>  <r_i_glide_intrahb_reward>  (37) 
-0

>  <i_i_glide_confnum>  (37) 
2

>  <i_i_glide_posenum>  (37) 
7

>  <r_i_glide_eff_state_penalty>  (37) 
0

>  <ligand_id>  (37) 
13

>  <original_smiles>  (37) 
Cn1c(C=O)nc2nccnc21

>  <smiles>  (37) 
[H]C(=O)c1nc2nc([H])c([H])nc2n1C([H])([H])[H]

$$$$
13:0:2
     RDKit          3D

 18 19  0  0  1  0  0  0  0  0999 V2000
   -0.0770    2.1337    2.8603 C   0  0  0  0  0  0  0  0  0  0  0  0
   -0.6224    1.3489    3.9690 N   0  0  0  0  0  0  0  0  0  0  0  0
   -1.5251    1.6457    4.9452 C   0  0  0  0  0  0  0  0  0  0  0  0
   -2.2238    2.9676    5.0997 C   0  0  0  0  0  0  0  0  0  0  0  0
   -2.0149    3.9573    4.3943 O   0  0  0  0  0  0  0  0  0  0  0  0
   -1.7829    0.6470    5.8153 N   0  0  0  0  0  0  0  0  0  0  0  0
   -0.9849   -0.3788    5.3525 C   0  0  0  0  0  0  0  0  0  0  0  0
   -0.8745   -1.6164    5.8695 N   0  0  0  0  0  0  0  0  0  0  0  0
    0.0059   -2.4217    5.2184 C   0  0  0  0  0  0  0  0  0  0  0  0
    0.7437   -2.0028    4.0763 C   0  0  0  0  0  0  0  0  0  0  0  0
    0.6366   -0.7668    3.5409 N   0  0  0  0  0  0  0  0  0  0  0  0
   -0.2474    0.0303    4.2136 C   0  0  0  0  0  0  0  0  0  0  0  0
   -0.4674    3.1422    2.8130 H   0  0  0  0  0  0  0  0  0  0  0  0
   -0.3109    1.6388    1.9200 H   0  0  0  0  0  0  0  0  0  0  0  0
    1.0021    2.1999    2.9678 H   0  0  0  0  0  0  0  0  0  0  0  0
   -2.9561    2.9990    5.9032 H   0  0  0  0  0  0  0  0  0  0  0  0
    0.1300   -3.4239    5.6022 H   0  0  0  0  0  0  0  0  0  0  0  0
    1.4273   -2.6837    3.5816 H   0  0  0  0  0  0  0  0  0  0  0  0
  1  2  1  0
  1 13  1  0
  1 14  1  0
  1 15  1  0
  2 12  1  0
  2  3  1  0
  3  4  1  0
  3  6  2  0
  4  5  2  0
  4 16  1  0
  6  7  1  0
  7 12  2  0
  7  8  1  0
  8  9  2  0
  9 10  1  0
  9 17  1  0
 10 11  2  0
 10 18  1  0
 11 12  1  0
M  END
>  <i_m_ct_stereo_status>  (38) 
1

>  <s_m_source_file>  (38) 
/var/tmp/pbs.5076255.sched01/tmphbojuwnv/0fr5z8inm.sdf

>  <i_m_source_file_index>  (38) 
24

>  <i_lp_mmshare_version>  (38) 
48012

>  <i_f3d_flags>  (38) 
0

>  <s_epik_input>  (38) 
Tz1bQ0hdYyhuMSluKFtDSDNdKWMoYzEyKW5bY0hdW2NIXW4y

>  <s_epik_cmdline>  (38) 
J2VwaWtfcHl0aG9uJywgJy1waHQnLCAnMi4wJywgJy1waCcsICc3LjAnLCAnLXRuJywgJzgnLCAnLW1hJywgJzIwMCcsICctaW1hZScsICc8aW5maWxlLm1hZT4nLCAnLW9tYWUnLCAnPG91dGZpbGUubWFlPic=

>  <r_lp_tautomer_probability>  (38) 
1

>  <r_epik_Ionization_Penalty>  (38) 
4.54483e-11

>  <r_epik_Ionization_Penalty_Charging>  (38) 
0

>  <r_epik_Ionization_Penalty_Neutral>  (38) 
4.54483e-11

>  <r_epik_State_Penalty>  (38) 
-0

>  <r_epik_Charging_Adjusted_Penalty>  (38) 
0

>  <i_epik_Tot_Q>  (38) 
0

>  <i_epik_Tot_abs_Q>  (38) 
0

>  <s_lp_Force_Field>  (38) 
OPLS3e

>  <r_lp_Energy>  (38) 
21.5925

>  <b_lp_Chiralities_Consistent>  (38) 
1

>  <s_lp_Variant>  (38) 
13:0-1

>  <s_i_glide_gridfile>  (38) 
pfpi4k_grid

>  <i_i_glide_lignum>  (38) 
24

>  <i_i_glide_rotatable_bonds>  (38) 
1

>  <r_i_docking_score>  (38) 
-3.66536

>  <r_i_glide_ligand_efficiency>  (38) 
-0.305446

>  <r_i_glide_ligand_efficiency_sa>  (38) 
-0.699297

>  <r_i_glide_ligand_efficiency_ln>  (38) 
-1.05178

>  <r_i_glide_gscore>  (38) 
-3.66536

>  <r_i_glide_lipo>  (38) 
-0.0178246

>  <r_i_glide_hbond>  (38) 
0

>  <r_i_glide_metal>  (38) 
-0

>  <r_i_glide_rewards>  (38) 
-2.25

>  <r_i_glide_evdw>  (38) 
-14.5571

>  <r_i_glide_ecoul>  (38) 
-3.77064

>  <r_i_glide_erotb>  (38) 
0

>  <r_i_glide_esite>  (38) 
-0.104078

>  <r_i_glide_emodel>  (38) 
-23.7561

>  <r_i_glide_energy>  (38) 
-18.3278

>  <r_i_glide_einternal>  (38) 
0.552424

>  <r_i_glide_intrahb_reward>  (38) 
-0

>  <i_i_glide_confnum>  (38) 
2

>  <i_i_glide_posenum>  (38) 
18

>  <r_i_glide_eff_state_penalty>  (38) 
0

>  <ligand_id>  (38) 
13

>  <original_smiles>  (38) 
Cn1c(C=O)nc2nccnc21

>  <smiles>  (38) 
[H]C(=O)c1nc2nc([H])c([H])nc2n1C([H])([H])[H]

$$$$
14:0:0
     RDKit          3D

 35 38  0  0  1  0  0  0  0  0999 V2000
    5.9926   -0.9082    0.8663 C   0  0  0  0  0  0  0  0  0  0  0  0
    5.4699   -2.0349    0.3636 C   0  0  0  0  0  0  0  0  0  0  0  0
    5.7800   -3.3953    0.9702 C   0  0  0  0  0  0  0  0  0  0  0  0
    4.4866   -4.1640    1.2783 C   0  0  0  0  0  0  0  0  0  0  0  0
    3.6157   -4.2448    0.0523 C   0  0  0  0  0  0  0  0  0  0  0  0
    3.6253   -3.2862   -0.9063 C   0  0  0  0  0  0  0  0  0  0  0  0
    2.9397   -3.4829   -2.2564 C   0  0  2  0  0  0  0  0  0  0  0  0
    3.9438   -4.1311   -3.2685 C   0  0  0  0  0  0  0  0  0  0  0  0
    4.7927   -3.0269   -3.6905 C   0  0  2  0  0  0  0  0  0  0  0  0
    5.9447   -2.7654   -2.7257 C   0  0  0  0  0  0  0  0  0  0  0  0
    5.0702   -1.6483   -2.1380 C   0  0  2  0  0  0  0  0  0  0  0  0
    4.4488   -1.9993   -0.7720 C   0  0  2  0  0  0  0  0  0  0  0  0
    4.0844   -1.7255   -3.3484 C   0  0  1  0  0  0  0  0  0  0  0  0
    4.0435   -0.5927   -4.3881 C   0  0  0  0  0  0  0  0  0  0  0  0
    2.6693   -2.1187   -2.9353 C   0  0  0  0  0  0  0  0  0  0  0  0
    5.7334    0.0565    0.4547 H   0  0  0  0  0  0  0  0  0  0  0  0
    6.6674   -0.9311    1.7093 H   0  0  0  0  0  0  0  0  0  0  0  0
    6.3805   -3.9650    0.2578 H   0  0  0  0  0  0  0  0  0  0  0  0
    6.3852   -3.2849    1.8712 H   0  0  0  0  0  0  0  0  0  0  0  0
    4.7313   -5.1737    1.6050 H   0  0  0  0  0  0  0  0  0  0  0  0
    3.9249   -3.6846    2.0811 H   0  0  0  0  0  0  0  0  0  0  0  0
    3.0275   -5.1393   -0.0889 H   0  0  0  0  0  0  0  0  0  0  0  0
    2.0056   -4.0381   -2.1370 H   0  0  0  0  0  0  0  0  0  0  0  0
    4.6448   -4.8844   -2.8986 H   0  0  0  0  0  0  0  0  0  0  0  0
    3.3892   -4.5232   -4.1224 H   0  0  0  0  0  0  0  0  0  0  0  0
    5.0113   -3.1854   -4.7291 H   0  0  0  0  0  0  0  0  0  0  0  0
    6.1470   -3.6177   -2.0634 H   0  0  0  0  0  0  0  0  0  0  0  0
    6.9216   -2.4845   -3.0816 H   0  0  0  0  0  0  0  0  0  0  0  0
    5.5842   -0.6947   -2.1436 H   0  0  0  0  0  0  0  0  0  0  0  0
    3.7397   -1.2130   -0.5117 H   0  0  0  0  0  0  0  0  0  0  0  0
    3.6127    0.3148   -3.9462 H   0  0  0  0  0  0  0  0  0  0  0  0
    3.4093   -0.8759   -5.2413 H   0  0  0  0  0  0  0  0  0  0  0  0
    5.0483   -0.3989   -4.7206 H   0  0  0  0  0  0  0  0  0  0  0  0
    2.0272   -2.2478   -3.8105 H   0  0  0  0  0  0  0  0  0  0  0  0
    2.2214   -1.3530   -2.3048 H   0  0  0  0  0  0  0  0  0  0  0  0
  1  2  2  0
  1 16  1  0
  1 17  1  0
  2 12  1  0
  2  3  1  0
  3  4  1  0
  3 18  1  0
  3 19  1  0
  4  5  1  0
  4 20  1  0
  4 21  1  0
  5  6  2  0
  5 22  1  0
  6 12  1  0
  6  7  1  0
  7 15  1  0
  7  8  1  0
  7 23  1  1
  8  9  1  0
  8 24  1  0
  8 25  1  0
  9 13  1  0
  9 10  1  0
  9 26  1  6
 10 11  1  0
 10 27  1  0
 10 28  1  0
 11 12  1  0
 11 13  1  0
 11 29  1  1
 12 30  1  1
 13 14  1  6
 13 15  1  0
 14 31  1  0
 14 32  1  0
 14 33  1  0
 15 34  1  0
 15 35  1  0
M  END
>  <i_m_ct_stereo_status>  (39) 
1

>  <s_m_source_file>  (39) 
/var/tmp/pbs.5076255.sched01/tmphbojuwnv/0fr5z8inm.sdf

>  <i_m_source_file_index>  (39) 
25

>  <i_lp_mmshare_version>  (39) 
48012

>  <i_f3d_flags>  (39) 
0

>  <s_epik_input>  (39) 
W0NIXT0xW0NIMl1bQ0gyXUMoPVtDSDJdKVtDQEBIXShbQ0BIXTJbQ0gyXTMpQzFbQ0BASF0oW0NIMl00KVtDSDJdW0NASF0zW0NAXTI0W0NIM10=

>  <s_epik_cmdline>  (39) 
J2VwaWtfcHl0aG9uJywgJy1waHQnLCAnMi4wJywgJy1waCcsICc3LjAnLCAnLXRuJywgJzgnLCAnLW1hJywgJzIwMCcsICctaW1hZScsICc8aW5maWxlLm1hZT4nLCAnLW9tYWUnLCAnPG91dGZpbGUubWFlPic=

>  <r_lp_tautomer_probability>  (39) 
1

>  <r_epik_Ionization_Penalty>  (39) 
0

>  <r_epik_Ionization_Penalty_Charging>  (39) 
0

>  <r_epik_Ionization_Penalty_Neutral>  (39) 
0

>  <r_epik_State_Penalty>  (39) 
-0

>  <r_epik_Charging_Adjusted_Penalty>  (39) 
0

>  <i_epik_Tot_Q>  (39) 
0

>  <i_epik_Tot_abs_Q>  (39) 
0

>  <s_lp_Force_Field>  (39) 
OPLS3e

>  <r_lp_Energy>  (39) 
36.896

>  <b_lp_Chiralities_Consistent>  (39) 
1

>  <s_lp_Variant>  (39) 
14:0-1

>  <s_i_glide_gridfile>  (39) 
pfpi4k_grid

>  <i_i_glide_lignum>  (39) 
25

>  <i_i_glide_rotatable_bonds>  (39) 
0

>  <r_i_docking_score>  (39) 
-3.42124

>  <r_i_glide_ligand_efficiency>  (39) 
-0.228083

>  <r_i_glide_ligand_efficiency_sa>  (39) 
-0.562501

>  <r_i_glide_ligand_efficiency_ln>  (39) 
-0.922653

>  <r_i_glide_gscore>  (39) 
-3.42124

>  <r_i_glide_lipo>  (39) 
-0.921554

>  <r_i_glide_hbond>  (39) 
0

>  <r_i_glide_metal>  (39) 
-0

>  <r_i_glide_rewards>  (39) 
-2.04328

>  <r_i_glide_evdw>  (39) 
-4.87728

>  <r_i_glide_ecoul>  (39) 
-1.41698

>  <r_i_glide_erotb>  (39) 
0

>  <r_i_glide_esite>  (39) 
0

>  <r_i_glide_emodel>  (39) 
-7.97915

>  <r_i_glide_energy>  (39) 
-6.29426

>  <r_i_glide_einternal>  (39) 
0

>  <r_i_glide_intrahb_reward>  (39) 
-0

>  <i_i_glide_confnum>  (39) 
2

>  <i_i_glide_posenum>  (39) 
19

>  <r_i_glide_eff_state_penalty>  (39) 
0

>  <ligand_id>  (39) 
14

>  <original_smiles>  (39) 
C=C1CCC=C2C3CC4CC(C12)C4(C)C3

>  <smiles>  (39) 
[H]C([H])=C1C([H])([H])C([H])([H])C([H])=C2C1([H])C1([H])C([H])([H])C3([H])C([H])([H])C2([H])C([H])([H])C13C([H])([H])[H]

$$$$
14:0:1
     RDKit          3D

 35 38  0  0  1  0  0  0  0  0999 V2000
    8.2826   -3.1840   -0.8052 C   0  0  0  0  0  0  0  0  0  0  0  0
    7.0373   -3.4376   -0.3669 C   0  0  0  0  0  0  0  0  0  0  0  0
    6.7685   -4.4947    0.6858 C   0  0  0  0  0  0  0  0  0  0  0  0
    5.9533   -3.9214    1.8533 C   0  0  0  0  0  0  0  0  0  0  0  0
    4.6989   -3.2491    1.3446 C   0  0  0  0  0  0  0  0  0  0  0  0
    4.6268   -2.6852    0.1246 C   0  0  0  0  0  0  0  0  0  0  0  0
    3.3045   -2.1791   -0.4615 C   0  0  2  0  0  0  0  0  0  0  0  0
    2.6265   -3.3392   -1.2241 C   0  0  0  0  0  0  0  0  0  0  0  0
    3.3695   -3.4028   -2.5510 C   0  0  2  0  0  0  0  0  0  0  0  0
    4.7034   -4.1429   -2.6254 C   0  0  0  0  0  0  0  0  0  0  0  0
    5.4132   -2.8376   -2.2763 C   0  0  2  0  0  0  0  0  0  0  0  0
    5.8413   -2.6006   -0.8187 C   0  0  2  0  0  0  0  0  0  0  0  0
    4.1268   -2.0803   -2.6989 C   0  0  1  0  0  0  0  0  0  0  0  0
    4.1011   -1.3933   -4.0525 C   0  0  0  0  0  0  0  0  0  0  0  0
    3.5743   -1.1755   -1.6070 C   0  0  0  0  0  0  0  0  0  0  0  0
    8.4873   -2.4167   -1.5365 H   0  0  0  0  0  0  0  0  0  0  0  0
    9.1222   -3.7546   -0.4434 H   0  0  0  0  0  0  0  0  0  0  0  0
    6.2086   -5.3042    0.2147 H   0  0  0  0  0  0  0  0  0  0  0  0
    7.7027   -4.9290    1.0479 H   0  0  0  0  0  0  0  0  0  0  0  0
    5.6785   -4.7203    2.5414 H   0  0  0  0  0  0  0  0  0  0  0  0
    6.5289   -3.1813    2.4076 H   0  0  0  0  0  0  0  0  0  0  0  0
    3.8294   -3.2902    1.9814 H   0  0  0  0  0  0  0  0  0  0  0  0
    2.6631   -1.7728    0.3237 H   0  0  0  0  0  0  0  0  0  0  0  0
    2.6400   -4.2858   -0.6816 H   0  0  0  0  0  0  0  0  0  0  0  0
    1.5831   -3.0852   -1.4143 H   0  0  0  0  0  0  0  0  0  0  0  0
    2.7310   -3.6343   -3.4084 H   0  0  0  0  0  0  0  0  0  0  0  0
    4.8160   -4.9302   -1.8763 H   0  0  0  0  0  0  0  0  0  0  0  0
    4.9248   -4.5018   -3.6303 H   0  0  0  0  0  0  0  0  0  0  0  0
    6.2227   -2.6771   -2.9872 H   0  0  0  0  0  0  0  0  0  0  0  0
    6.1854   -1.5691   -0.7455 H   0  0  0  0  0  0  0  0  0  0  0  0
    4.7307   -0.5101   -4.0694 H   0  0  0  0  0  0  0  0  0  0  0  0
    3.0968   -1.0779   -4.3380 H   0  0  0  0  0  0  0  0  0  0  0  0
    4.4642   -2.0758   -4.8058 H   0  0  0  0  0  0  0  0  0  0  0  0
    2.6410   -0.7095   -1.9351 H   0  0  0  0  0  0  0  0  0  0  0  0
    4.2582   -0.3747   -1.3188 H   0  0  0  0  0  0  0  0  0  0  0  0
  1  2  2  0
  1 16  1  0
  1 17  1  0
  2 12  1  0
  2  3  1  0
  3  4  1  0
  3 18  1  0
  3 19  1  0
  4  5  1  0
  4 20  1  0
  4 21  1  0
  5  6  2  0
  5 22  1  0
  6 12  1  0
  6  7  1  0
  7 15  1  0
  7  8  1  0
  7 23  1  1
  8  9  1  0
  8 24  1  0
  8 25  1  0
  9 13  1  0
  9 10  1  0
  9 26  1  6
 10 11  1  0
 10 27  1  0
 10 28  1  0
 11 12  1  0
 11 13  1  0
 11 29  1  6
 12 30  1  6
 13 14  1  6
 13 15  1  0
 14 31  1  0
 14 32  1  0
 14 33  1  0
 15 34  1  0
 15 35  1  0
M  END
>  <i_m_ct_stereo_status>  (40) 
1

>  <s_m_source_file>  (40) 
/var/tmp/pbs.5076255.sched01/tmphbojuwnv/0fr5z8inm.sdf

>  <i_m_source_file_index>  (40) 
25

>  <i_lp_mmshare_version>  (40) 
48012

>  <i_f3d_flags>  (40) 
0

>  <s_epik_input>  (40) 
W0NIXT0xW0NIMl1bQ0gyXUMoPVtDSDJdKVtDQEBIXShbQ0BIXTJbQ0gyXTMpQzFbQ0BASF0oW0NIMl00KVtDSDJdW0NASF0zW0NAXTI0W0NIM10=

>  <s_epik_cmdline>  (40) 
J2VwaWtfcHl0aG9uJywgJy1waHQnLCAnMi4wJywgJy1waCcsICc3LjAnLCAnLXRuJywgJzgnLCAnLW1hJywgJzIwMCcsICctaW1hZScsICc8aW5maWxlLm1hZT4nLCAnLW9tYWUnLCAnPG91dGZpbGUubWFlPic=

>  <r_lp_tautomer_probability>  (40) 
1

>  <r_epik_Ionization_Penalty>  (40) 
0

>  <r_epik_Ionization_Penalty_Charging>  (40) 
0

>  <r_epik_Ionization_Penalty_Neutral>  (40) 
0

>  <r_epik_State_Penalty>  (40) 
-0

>  <r_epik_Charging_Adjusted_Penalty>  (40) 
0

>  <i_epik_Tot_Q>  (40) 
0

>  <i_epik_Tot_abs_Q>  (40) 
0

>  <s_lp_Force_Field>  (40) 
OPLS3e

>  <r_lp_Energy>  (40) 
36.896

>  <b_lp_Chiralities_Consistent>  (40) 
1

>  <s_lp_Variant>  (40) 
14:0-1

>  <s_i_glide_gridfile>  (40) 
pfpi4k_grid

>  <i_i_glide_lignum>  (40) 
25

>  <i_i_glide_rotatable_bonds>  (40) 
0

>  <r_i_docking_score>  (40) 
-3.33357

>  <r_i_glide_ligand_efficiency>  (40) 
-0.222238

>  <r_i_glide_ligand_efficiency_sa>  (40) 
-0.548086

>  <r_i_glide_ligand_efficiency_ln>  (40) 
-0.899008

>  <r_i_glide_gscore>  (40) 
-3.33357

>  <r_i_glide_lipo>  (40) 
-0.587838

>  <r_i_glide_hbond>  (40) 
0

>  <r_i_glide_metal>  (40) 
-0

>  <r_i_glide_rewards>  (40) 
-2.04328

>  <r_i_glide_evdw>  (40) 
-16.7981

>  <r_i_glide_ecoul>  (40) 
0.916366

>  <r_i_glide_erotb>  (40) 
0

>  <r_i_glide_esite>  (40) 
0

>  <r_i_glide_emodel>  (40) 
-18.8044

>  <r_i_glide_energy>  (40) 
-15.8818

>  <r_i_glide_einternal>  (40) 
0

>  <r_i_glide_intrahb_reward>  (40) 
-0

>  <i_i_glide_confnum>  (40) 
2

>  <i_i_glide_posenum>  (40) 
12

>  <r_i_glide_eff_state_penalty>  (40) 
0

>  <ligand_id>  (40) 
14

>  <original_smiles>  (40) 
C=C1CCC=C2C3CC4CC(C12)C4(C)C3

>  <smiles>  (40) 
[H]C([H])=C1C([H])([H])C([H])([H])C([H])=C2C1([H])C1([H])C([H])([H])C3([H])C([H])([H])C2([H])C([H])([H])C13C([H])([H])[H]

$$$$
14:0:2
     RDKit          3D

 35 38  0  0  1  0  0  0  0  0999 V2000
    4.2152    0.4619   -3.2104 C   0  0  0  0  0  0  0  0  0  0  0  0
    3.8884   -0.7955   -2.9010 C   0  0  0  0  0  0  0  0  0  0  0  0
    2.6620   -1.3969   -3.5172 C   0  0  0  0  0  0  0  0  0  0  0  0
    3.0208   -2.6553   -4.2684 C   0  0  0  0  0  0  0  0  0  0  0  0
    3.8440   -3.5615   -3.4112 C   0  0  0  0  0  0  0  0  0  0  0  0
    4.5820   -3.1516   -2.3657 C   0  0  0  0  0  0  0  0  0  0  0  0
    5.1771   -4.1142   -1.3451 C   0  0  2  0  0  0  0  0  0  0  0  0
    4.1741   -4.3014   -0.1835 C   0  0  0  0  0  0  0  0  0  0  0  0
    4.3522   -3.0480    0.6582 C   0  0  2  0  0  0  0  0  0  0  0  0
    3.6188   -1.7720    0.2657 C   0  0  0  0  0  0  0  0  0  0  0  0
    4.8270   -1.4013   -0.5826 C   0  0  2  0  0  0  0  0  0  0  0  0
    4.8030   -1.6787   -2.0751 C   0  0  2  0  0  0  0  0  0  0  0  0
    5.6752   -2.4037    0.2280 C   0  0  1  0  0  0  0  0  0  0  0  0
    6.6015   -1.8523    1.2944 C   0  0  0  0  0  0  0  0  0  0  0  0
    6.3735   -3.4573   -0.6366 C   0  0  0  0  0  0  0  0  0  0  0  0
    5.0891    0.8870   -2.7324 H   0  0  0  0  0  0  0  0  0  0  0  0
    3.6259    1.0783   -3.8395 H   0  0  0  0  0  0  0  0  0  0  0  0
    1.9446   -1.6062   -2.7120 H   0  0  0  0  0  0  0  0  0  0  0  0
    2.2707   -0.6769   -4.2372 H   0  0  0  0  0  0  0  0  0  0  0  0
    2.1127   -3.1654   -4.5880 H   0  0  0  0  0  0  0  0  0  0  0  0
    3.6420   -2.3681   -5.1075 H   0  0  0  0  0  0  0  0  0  0  0  0
    3.7973   -4.6001   -3.6760 H   0  0  0  0  0  0  0  0  0  0  0  0
    5.4110   -5.0491   -1.8322 H   0  0  0  0  0  0  0  0  0  0  0  0
    3.1457   -4.4631   -0.5179 H   0  0  0  0  0  0  0  0  0  0  0  0
    4.4639   -5.1762    0.3949 H   0  0  0  0  0  0  0  0  0  0  0  0
    4.2944   -3.2093    1.7317 H   0  0  0  0  0  0  0  0  0  0  0  0
    2.7123   -1.9610   -0.3170 H   0  0  0  0  0  0  0  0  0  0  0  0
    3.4683   -1.0880    1.1015 H   0  0  0  0  0  0  0  0  0  0  0  0
    5.1213   -0.3776   -0.3527 H   0  0  0  0  0  0  0  0  0  0  0  0
    5.7953   -1.4785   -2.4669 H   0  0  0  0  0  0  0  0  0  0  0  0
    7.4640   -1.3394    0.8691 H   0  0  0  0  0  0  0  0  0  0  0  0
    6.9663   -2.6682    1.9146 H   0  0  0  0  0  0  0  0  0  0  0  0
    6.0908   -1.1465    1.9521 H   0  0  0  0  0  0  0  0  0  0  0  0
    6.8888   -4.1926   -0.0167 H   0  0  0  0  0  0  0  0  0  0  0  0
    7.0973   -3.0364   -1.3360 H   0  0  0  0  0  0  0  0  0  0  0  0
  1  2  2  0
  1 16  1  0
  1 17  1  0
  2 12  1  0
  2  3  1  0
  3  4  1  0
  3 18  1  0
  3 19  1  0
  4  5  1  0
  4 20  1  0
  4 21  1  0
  5  6  2  0
  5 22  1  0
  6 12  1  0
  6  7  1  0
  7 15  1  0
  7  8  1  0
  7 23  1  6
  8  9  1  0
  8 24  1  0
  8 25  1  0
  9 13  1  0
  9 10  1  0
  9 26  1  1
 10 11  1  0
 10 27  1  0
 10 28  1  0
 11 12  1  0
 11 13  1  0
 11 29  1  6
 12 30  1  6
 13 14  1  1
 13 15  1  0
 14 31  1  0
 14 32  1  0
 14 33  1  0
 15 34  1  0
 15 35  1  0
M  END
>  <i_m_ct_stereo_status>  (41) 
1

>  <s_m_source_file>  (41) 
/var/tmp/pbs.5076255.sched01/tmphbojuwnv/0fr5z8inm.sdf

>  <i_m_source_file_index>  (41) 
25

>  <i_lp_mmshare_version>  (41) 
48012

>  <i_f3d_flags>  (41) 
0

>  <s_epik_input>  (41) 
W0NIXT0xW0NIMl1bQ0gyXUMoPVtDSDJdKVtDQEBIXShbQ0BIXTJbQ0gyXTMpQzFbQ0BASF0oW0NIMl00KVtDSDJdW0NASF0zW0NAXTI0W0NIM10=

>  <s_epik_cmdline>  (41) 
J2VwaWtfcHl0aG9uJywgJy1waHQnLCAnMi4wJywgJy1waCcsICc3LjAnLCAnLXRuJywgJzgnLCAnLW1hJywgJzIwMCcsICctaW1hZScsICc8aW5maWxlLm1hZT4nLCAnLW9tYWUnLCAnPG91dGZpbGUubWFlPic=

>  <r_lp_tautomer_probability>  (41) 
1

>  <r_epik_Ionization_Penalty>  (41) 
0

>  <r_epik_Ionization_Penalty_Charging>  (41) 
0

>  <r_epik_Ionization_Penalty_Neutral>  (41) 
0

>  <r_epik_State_Penalty>  (41) 
-0

>  <r_epik_Charging_Adjusted_Penalty>  (41) 
0

>  <i_epik_Tot_Q>  (41) 
0

>  <i_epik_Tot_abs_Q>  (41) 
0

>  <s_lp_Force_Field>  (41) 
OPLS3e

>  <r_lp_Energy>  (41) 
36.896

>  <b_lp_Chiralities_Consistent>  (41) 
1

>  <s_lp_Variant>  (41) 
14:0-1

>  <s_i_glide_gridfile>  (41) 
pfpi4k_grid

>  <i_i_glide_lignum>  (41) 
25

>  <i_i_glide_rotatable_bonds>  (41) 
0

>  <r_i_docking_score>  (41) 
-2.79725

>  <r_i_glide_ligand_efficiency>  (41) 
-0.186483

>  <r_i_glide_ligand_efficiency_sa>  (41) 
-0.459907

>  <r_i_glide_ligand_efficiency_ln>  (41) 
-0.754372

>  <r_i_glide_gscore>  (41) 
-2.79725

>  <r_i_glide_lipo>  (41) 
-0.497988

>  <r_i_glide_hbond>  (41) 
0

>  <r_i_glide_metal>  (41) 
-0

>  <r_i_glide_rewards>  (41) 
-2.04328

>  <r_i_glide_evdw>  (41) 
-3.20467

>  <r_i_glide_ecoul>  (41) 
-0.638342

>  <r_i_glide_erotb>  (41) 
0

>  <r_i_glide_esite>  (41) 
0

>  <r_i_glide_emodel>  (41) 
-5.96135

>  <r_i_glide_energy>  (41) 
-3.84302

>  <r_i_glide_einternal>  (41) 
0

>  <r_i_glide_intrahb_reward>  (41) 
-0

>  <i_i_glide_confnum>  (41) 
2

>  <i_i_glide_posenum>  (41) 
34

>  <r_i_glide_eff_state_penalty>  (41) 
0

>  <ligand_id>  (41) 
14

>  <original_smiles>  (41) 
C=C1CCC=C2C3CC4CC(C12)C4(C)C3

>  <smiles>  (41) 
[H]C([H])=C1C([H])([H])C([H])([H])C([H])=C2C1([H])C1([H])C([H])([H])C3([H])C([H])([H])C2([H])C([H])([H])C13C([H])([H])[H]

$$$$
15:0:0
     RDKit          3D

 39 42  0  0  1  0  0  0  0  0999 V2000
   -1.0423    1.2865    2.2514 C   0  0  0  0  0  0  0  0  0  0  0  0
   -1.8999    2.3921    2.4923 O   0  0  0  0  0  0  0  0  0  0  0  0
   -1.5428    3.4350    3.2741 C   0  0  0  0  0  0  0  0  0  0  0  0
   -2.1751    4.4895    3.3129 O   0  0  0  0  0  0  0  0  0  0  0  0
   -0.3346    3.2394    4.1994 C   0  0  0  0  0  0  0  0  0  0  0  0
   -0.7092    3.3977    5.6939 C   0  0  2  0  0  0  0  0  0  0  0  0
    0.5732    3.2359    6.5627 C   0  0  0  0  0  0  0  0  0  0  0  0
    0.3638    2.0999    7.5967 C   0  0  1  0  0  0  0  0  0  0  0  0
   -0.8449    2.4773    8.4317 C   0  0  0  0  0  0  0  0  0  0  0  0
   -0.8583    2.6686    9.8245 C   0  0  0  0  0  0  0  0  0  0  0  0
   -2.0787    3.0050   10.4390 C   0  0  0  0  0  0  0  0  0  0  0  0
   -3.2626    3.1305    9.6734 C   0  0  0  0  0  0  0  0  0  0  0  0
   -3.2350    2.9388    8.2772 C   0  0  0  0  0  0  0  0  0  0  0  0
   -2.0078    2.6150    7.6717 C   0  0  0  0  0  0  0  0  0  0  0  0
   -1.7750    2.3602    6.1892 C   0  0  2  0  0  0  0  0  0  0  0  0
   -1.1757    0.9438    6.0751 C   0  0  0  0  0  0  0  0  0  0  0  0
   -1.7213   -0.0979    5.3130 C   0  0  0  0  0  0  0  0  0  0  0  0
   -0.9517   -1.2872    5.3359 C   0  0  0  0  0  0  0  0  0  0  0  0
    0.2455   -1.4167    6.0901 C   0  0  0  0  0  0  0  0  0  0  0  0
    0.7773   -0.3653    6.8786 C   0  0  0  0  0  0  0  0  0  0  0  0
    0.0137    0.8094    6.8325 C   0  0  0  0  0  0  0  0  0  0  0  0
   -1.4750    0.6199    1.5029 H   0  0  0  0  0  0  0  0  0  0  0  0
   -0.8885    0.7203    3.1691 H   0  0  0  0  0  0  0  0  0  0  0  0
   -0.0747    1.6326    1.8803 H   0  0  0  0  0  0  0  0  0  0  0  0
    0.1261    2.2538    4.1234 H   0  0  0  0  0  0  0  0  0  0  0  0
    0.4414    3.9666    3.9236 H   0  0  0  0  0  0  0  0  0  0  0  0
   -1.1224    4.3960    5.8691 H   0  0  0  0  0  0  0  0  0  0  0  0
    1.4436    3.0177    5.9393 H   0  0  0  0  0  0  0  0  0  0  0  0
    0.7915    4.1784    7.0687 H   0  0  0  0  0  0  0  0  0  0  0  0
    1.2524    1.9670    8.2057 H   0  0  0  0  0  0  0  0  0  0  0  0
    0.0459    2.5488   10.3976 H   0  0  0  0  0  0  0  0  0  0  0  0
   -2.1093    3.1393   11.5106 H   0  0  0  0  0  0  0  0  0  0  0  0
   -4.1989    3.3417   10.1625 H   0  0  0  0  0  0  0  0  0  0  0  0
   -4.1282    3.0025    7.6815 H   0  0  0  0  0  0  0  0  0  0  0  0
   -2.7223    2.4299    5.6591 H   0  0  0  0  0  0  0  0  0  0  0  0
   -2.6075    0.0099    4.7104 H   0  0  0  0  0  0  0  0  0  0  0  0
   -1.2569   -2.1159    4.7139 H   0  0  0  0  0  0  0  0  0  0  0  0
    0.7927   -2.3478    6.0339 H   0  0  0  0  0  0  0  0  0  0  0  0
    1.6953   -0.4562    7.4448 H   0  0  0  0  0  0  0  0  0  0  0  0
  1  2  1  0
  1 22  1  0
  1 23  1  0
  1 24  1  0
  2  3  1  0
  3  4  2  0
  3  5  1  0
  5  6  1  0
  5 25  1  0
  5 26  1  0
  6 15  1  0
  6  7  1  0
  6 27  1  6
  7  8  1  0
  7 28  1  0
  7 29  1  0
  8 21  1  0
  8  9  1  0
  8 30  1  1
  9 14  2  0
  9 10  1  0
 10 11  2  0
 10 31  1  0
 11 12  1  0
 11 32  1  0
 12 13  2  0
 12 33  1  0
 13 14  1  0
 13 34  1  0
 14 15  1  0
 15 16  1  0
 15 35  1  6
 16 21  2  0
 16 17  1  0
 17 18  2  0
 17 36  1  0
 18 19  1  0
 18 37  1  0
 19 20  2  0
 19 38  1  0
 20 21  1  0
 20 39  1  0
M  END
>  <i_m_ct_stereo_status>  (42) 
1

>  <s_m_source_file>  (42) 
/var/tmp/pbs.5076255.sched01/tmphbojuwnv/0fr5z8inm.sdf

>  <i_m_source_file_index>  (42) 
26

>  <i_lp_mmshare_version>  (42) 
48012

>  <i_f3d_flags>  (42) 
0

>  <s_epik_input>  (42) 
W0NIM11PQyg9TylbQ0gyXVtDQEhdKFtDSDJdMSlbQ0BIXShjKGMyW0NASF0xMylbY0hdW2NIXVtjSF1bY0hdMiljNGMzW2NIXVtjSF1bY0hdW2NIXTQ=

>  <s_epik_cmdline>  (42) 
J2VwaWtfcHl0aG9uJywgJy1waHQnLCAnMi4wJywgJy1waCcsICc3LjAnLCAnLXRuJywgJzgnLCAnLW1hJywgJzIwMCcsICctaW1hZScsICc8aW5maWxlLm1hZT4nLCAnLW9tYWUnLCAnPG91dGZpbGUubWFlPic=

>  <r_lp_tautomer_probability>  (42) 
1

>  <r_epik_Ionization_Penalty>  (42) 
0

>  <r_epik_Ionization_Penalty_Charging>  (42) 
0

>  <r_epik_Ionization_Penalty_Neutral>  (42) 
0

>  <r_epik_State_Penalty>  (42) 
-0

>  <r_epik_Charging_Adjusted_Penalty>  (42) 
0

>  <i_epik_Tot_Q>  (42) 
0

>  <i_epik_Tot_abs_Q>  (42) 
0

>  <s_epik_Chemistry_Notes>  (42) 
This compound has an ester and may undergo hydrolysis at high or low pH.

>  <s_lp_Force_Field>  (42) 
OPLS3e

>  <r_lp_Energy>  (42) 
47.8901

>  <b_lp_Chiralities_Consistent>  (42) 
1

>  <s_lp_Variant>  (42) 
15:0-1

>  <s_i_glide_gridfile>  (42) 
pfpi4k_grid

>  <i_i_glide_lignum>  (42) 
26

>  <i_i_glide_rotatable_bonds>  (42) 
3

>  <r_i_docking_score>  (42) 
-3.477

>  <r_i_glide_ligand_efficiency>  (42) 
-0.165571

>  <r_i_glide_ligand_efficiency_sa>  (42) 
-0.456799

>  <r_i_glide_ligand_efficiency_ln>  (42) 
-0.859681

>  <r_i_glide_gscore>  (42) 
-3.477

>  <r_i_glide_lipo>  (42) 
-0.10287

>  <r_i_glide_hbond>  (42) 
-0.16

>  <r_i_glide_metal>  (42) 
-0

>  <r_i_glide_rewards>  (42) 
-1.51128

>  <r_i_glide_evdw>  (42) 
-21.0123

>  <r_i_glide_ecoul>  (42) 
-5.3741

>  <r_i_glide_erotb>  (42) 
0.232645

>  <r_i_glide_esite>  (42) 
-0.0787602

>  <r_i_glide_emodel>  (42) 
-29.0626

>  <r_i_glide_energy>  (42) 
-26.3864

>  <r_i_glide_einternal>  (42) 
6.39322

>  <r_i_glide_intrahb_reward>  (42) 
-0

>  <i_i_glide_confnum>  (42) 
1

>  <i_i_glide_posenum>  (42) 
39

>  <r_i_glide_eff_state_penalty>  (42) 
0

>  <ligand_id>  (42) 
15

>  <original_smiles>  (42) 
COC(=O)CC1CC2c3ccccc3C1c1ccccc12

>  <smiles>  (42) 
[H]c1c([H])c([H])c2c(c1[H])C1([H])c3c([H])c([H])c([H])c([H])c3C2([H])C([H])(C([H])([H])C(=O)OC([H])([H])[H])C1([H])[H]

$$$$
15:0:1
     RDKit          3D

 39 42  0  0  1  0  0  0  0  0999 V2000
    2.8461    0.4723    1.6791 C   0  0  0  0  0  0  0  0  0  0  0  0
    2.1208   -0.6668    2.1173 O   0  0  0  0  0  0  0  0  0  0  0  0
    1.3929   -0.6509    3.2591 C   0  0  0  0  0  0  0  0  0  0  0  0
    0.7233   -1.6089    3.6219 O   0  0  0  0  0  0  0  0  0  0  0  0
    1.4936    0.6222    4.1317 C   0  0  0  0  0  0  0  0  0  0  0  0
    0.2904    0.8913    5.0475 C   0  0  2  0  0  0  0  0  0  0  0  0
   -0.9630    1.3488    4.2062 C   0  0  0  0  0  0  0  0  0  0  0  0
   -1.4004    2.7581    4.6615 C   0  0  1  0  0  0  0  0  0  0  0  0
   -1.6807    2.6653    6.1514 C   0  0  0  0  0  0  0  0  0  0  0  0
   -2.8964    2.9488    6.7817 C   0  0  0  0  0  0  0  0  0  0  0  0
   -2.9953    2.8232    8.1958 C   0  0  0  0  0  0  0  0  0  0  0  0
   -1.8849    2.4046    8.9470 C   0  0  0  0  0  0  0  0  0  0  0  0
   -0.6567    2.1197    8.2906 C   0  0  0  0  0  0  0  0  0  0  0  0
   -0.5757    2.2607    6.8973 C   0  0  0  0  0  0  0  0  0  0  0  0
    0.6573    2.0136    6.0470 C   0  0  2  0  0  0  0  0  0  0  0  0
    0.9167    3.3072    5.2698 C   0  0  0  0  0  0  0  0  0  0  0  0
    2.1398    4.0012    5.2703 C   0  0  0  0  0  0  0  0  0  0  0  0
    2.1332    5.1604    4.4528 C   0  0  0  0  0  0  0  0  0  0  0  0
    0.9992    5.5704    3.6993 C   0  0  0  0  0  0  0  0  0  0  0  0
   -0.2262    4.8591    3.7016 C   0  0  0  0  0  0  0  0  0  0  0  0
   -0.2137    3.7082    4.5030 C   0  0  0  0  0  0  0  0  0  0  0  0
    3.4150    0.2616    0.7632 H   0  0  0  0  0  0  0  0  0  0  0  0
    3.5543    0.7988    2.4474 H   0  0  0  0  0  0  0  0  0  0  0  0
    2.1575    1.2916    1.4566 H   0  0  0  0  0  0  0  0  0  0  0  0
    2.4158    0.5594    4.7085 H   0  0  0  0  0  0  0  0  0  0  0  0
    1.5461    1.5300    3.5373 H   0  0  0  0  0  0  0  0  0  0  0  0
    0.0291    0.0014    5.6283 H   0  0  0  0  0  0  0  0  0  0  0  0
   -0.7607    1.3703    3.1316 H   0  0  0  0  0  0  0  0  0  0  0  0
   -1.7759    0.6284    4.3298 H   0  0  0  0  0  0  0  0  0  0  0  0
   -2.2779    3.1041    4.1070 H   0  0  0  0  0  0  0  0  0  0  0  0
   -3.7366    3.2428    6.1960 H   0  0  0  0  0  0  0  0  0  0  0  0
   -3.9380    3.0281    8.6791 H   0  0  0  0  0  0  0  0  0  0  0  0
   -1.9559    2.2986   10.0215 H   0  0  0  0  0  0  0  0  0  0  0  0
    0.2031    1.8122    8.8532 H   0  0  0  0  0  0  0  0  0  0  0  0
    1.5123    1.7432    6.6758 H   0  0  0  0  0  0  0  0  0  0  0  0
    3.0044    3.6826    5.8323 H   0  0  0  0  0  0  0  0  0  0  0  0
    3.0405    5.7491    4.3789 H   0  0  0  0  0  0  0  0  0  0  0  0
    1.0777    6.4549    3.0759 H   0  0  0  0  0  0  0  0  0  0  0  0
   -1.0646    5.1487    3.0811 H   0  0  0  0  0  0  0  0  0  0  0  0
  1  2  1  0
  1 22  1  0
  1 23  1  0
  1 24  1  0
  2  3  1  0
  3  4  2  0
  3  5  1  0
  5  6  1  0
  5 25  1  0
  5 26  1  0
  6 15  1  0
  6  7  1  0
  6 27  1  1
  7  8  1  0
  7 28  1  0
  7 29  1  0
  8 21  1  0
  8  9  1  0
  8 30  1  6
  9 14  2  0
  9 10  1  0
 10 11  2  0
 10 31  1  0
 11 12  1  0
 11 32  1  0
 12 13  2  0
 12 33  1  0
 13 14  1  0
 13 34  1  0
 14 15  1  0
 15 16  1  0
 15 35  1  1
 16 21  2  0
 16 17  1  0
 17 18  2  0
 17 36  1  0
 18 19  1  0
 18 37  1  0
 19 20  2  0
 19 38  1  0
 20 21  1  0
 20 39  1  0
M  END
>  <i_m_ct_stereo_status>  (43) 
1

>  <s_m_source_file>  (43) 
/var/tmp/pbs.5076255.sched01/tmphbojuwnv/0fr5z8inm.sdf

>  <i_m_source_file_index>  (43) 
26

>  <i_lp_mmshare_version>  (43) 
48012

>  <i_f3d_flags>  (43) 
0

>  <s_epik_input>  (43) 
W0NIM11PQyg9TylbQ0gyXVtDQEhdKFtDSDJdMSlbQ0BIXShjKGMyW0NASF0xMylbY0hdW2NIXVtjSF1bY0hdMiljNGMzW2NIXVtjSF1bY0hdW2NIXTQ=

>  <s_epik_cmdline>  (43) 
J2VwaWtfcHl0aG9uJywgJy1waHQnLCAnMi4wJywgJy1waCcsICc3LjAnLCAnLXRuJywgJzgnLCAnLW1hJywgJzIwMCcsICctaW1hZScsICc8aW5maWxlLm1hZT4nLCAnLW9tYWUnLCAnPG91dGZpbGUubWFlPic=

>  <r_lp_tautomer_probability>  (43) 
1

>  <r_epik_Ionization_Penalty>  (43) 
0

>  <r_epik_Ionization_Penalty_Charging>  (43) 
0

>  <r_epik_Ionization_Penalty_Neutral>  (43) 
0

>  <r_epik_State_Penalty>  (43) 
-0

>  <r_epik_Charging_Adjusted_Penalty>  (43) 
0

>  <i_epik_Tot_Q>  (43) 
0

>  <i_epik_Tot_abs_Q>  (43) 
0

>  <s_epik_Chemistry_Notes>  (43) 
This compound has an ester and may undergo hydrolysis at high or low pH.

>  <s_lp_Force_Field>  (43) 
OPLS3e

>  <r_lp_Energy>  (43) 
47.8901

>  <b_lp_Chiralities_Consistent>  (43) 
1

>  <s_lp_Variant>  (43) 
15:0-1

>  <s_i_glide_gridfile>  (43) 
pfpi4k_grid

>  <i_i_glide_lignum>  (43) 
26

>  <i_i_glide_rotatable_bonds>  (43) 
3

>  <r_i_docking_score>  (43) 
-2.54837

>  <r_i_glide_ligand_efficiency>  (43) 
-0.121351

>  <r_i_glide_ligand_efficiency_sa>  (43) 
-0.334798

>  <r_i_glide_ligand_efficiency_ln>  (43) 
-0.630079

>  <r_i_glide_gscore>  (43) 
-2.54837

>  <r_i_glide_lipo>  (43) 
-0.394077

>  <r_i_glide_hbond>  (43) 
0

>  <r_i_glide_metal>  (43) 
-0

>  <r_i_glide_rewards>  (43) 
-1.51128

>  <r_i_glide_evdw>  (43) 
-19.3231

>  <r_i_glide_ecoul>  (43) 
0.681759

>  <r_i_glide_erotb>  (43) 
0.232645

>  <r_i_glide_esite>  (43) 
-0.01176

>  <r_i_glide_emodel>  (43) 
-19.8852

>  <r_i_glide_energy>  (43) 
-18.6414

>  <r_i_glide_einternal>  (43) 
6.00208

>  <r_i_glide_intrahb_reward>  (43) 
-0

>  <i_i_glide_confnum>  (43) 
1

>  <i_i_glide_posenum>  (43) 
28

>  <r_i_glide_eff_state_penalty>  (43) 
0

>  <ligand_id>  (43) 
15

>  <original_smiles>  (43) 
COC(=O)CC1CC2c3ccccc3C1c1ccccc12

>  <smiles>  (43) 
[H]c1c([H])c([H])c2c(c1[H])C1([H])c3c([H])c([H])c([H])c([H])c3C2([H])C([H])(C([H])([H])C(=O)OC([H])([H])[H])C1([H])[H]

$$$$
15:0:2
     RDKit          3D

 39 42  0  0  1  0  0  0  0  0999 V2000
    1.8080   -0.2698    2.0225 C   0  0  0  0  0  0  0  0  0  0  0  0
    1.2066   -1.3532    2.7151 O   0  0  0  0  0  0  0  0  0  0  0  0
    0.6389   -1.1790    3.9320 C   0  0  0  0  0  0  0  0  0  0  0  0
    0.0167   -2.0690    4.5092 O   0  0  0  0  0  0  0  0  0  0  0  0
    0.8558    0.1987    4.5940 C   0  0  0  0  0  0  0  0  0  0  0  0
   -0.1272    0.5603    5.7187 C   0  0  2  0  0  0  0  0  0  0  0  0
   -1.5538    0.8650    5.1397 C   0  0  0  0  0  0  0  0  0  0  0  0
   -1.9555    2.3103    5.5127 C   0  0  1  0  0  0  0  0  0  0  0  0
   -1.9020    2.4082    7.0304 C   0  0  0  0  0  0  0  0  0  0  0  0
   -2.9691    2.7339    7.8810 C   0  0  0  0  0  0  0  0  0  0  0  0
   -2.7494    2.7869    9.2780 C   0  0  0  0  0  0  0  0  0  0  0  0
   -1.4569    2.5025    9.8058 C   0  0  0  0  0  0  0  0  0  0  0  0
   -0.3969    2.1741    8.9346 C   0  0  0  0  0  0  0  0  0  0  0  0
   -0.6359    2.1336    7.5460 C   0  0  0  0  0  0  0  0  0  0  0  0
    0.3865    1.8086    6.4735 C   0  0  2  0  0  0  0  0  0  0  0  0
    0.4013    2.9945    5.4949 C   0  0  0  0  0  0  0  0  0  0  0  0
    1.5550    3.7160    5.1498 C   0  0  0  0  0  0  0  0  0  0  0  0
    1.3054    4.7557    4.2158 C   0  0  0  0  0  0  0  0  0  0  0  0
    0.0162    5.0300    3.6849 C   0  0  0  0  0  0  0  0  0  0  0  0
   -1.1375    4.2782    4.0317 C   0  0  0  0  0  0  0  0  0  0  0  0
   -0.8833    3.2575    4.9648 C   0  0  0  0  0  0  0  0  0  0  0  0
    2.2546   -0.6012    1.0728 H   0  0  0  0  0  0  0  0  0  0  0  0
    2.5962    0.1970    2.6189 H   0  0  0  0  0  0  0  0  0  0  0  0
    1.0508    0.4837    1.7818 H   0  0  0  0  0  0  0  0  0  0  0  0
    1.8850    0.2462    4.9518 H   0  0  0  0  0  0  0  0  0  0  0  0
    0.7336    0.9988    3.8661 H   0  0  0  0  0  0  0  0  0  0  0  0
   -0.1939   -0.2595    6.4423 H   0  0  0  0  0  0  0  0  0  0  0  0
   -1.6003    0.7501    4.0544 H   0  0  0  0  0  0  0  0  0  0  0  0
   -2.2773    0.1458    5.5340 H   0  0  0  0  0  0  0  0  0  0  0  0
   -2.9451    2.5678    5.1312 H   0  0  0  0  0  0  0  0  0  0  0  0
   -3.9336    2.9409    7.4775 H   0  0  0  0  0  0  0  0  0  0  0  0
   -3.5579    3.0277    9.9454 H   0  0  0  0  0  0  0  0  0  0  0  0
   -1.2960    2.5339   10.8755 H   0  0  0  0  0  0  0  0  0  0  0  0
    0.5826    1.9602    9.3149 H   0  0  0  0  0  0  0  0  0  0  0  0
    1.3763    1.6438    6.9170 H   0  0  0  0  0  0  0  0  0  0  0  0
    2.5409    3.4946    5.5383 H   0  0  0  0  0  0  0  0  0  0  0  0
    2.1374    5.3601    3.8752 H   0  0  0  0  0  0  0  0  0  0  0  0
   -0.0763    5.8290    2.9596 H   0  0  0  0  0  0  0  0  0  0  0  0
   -2.1165    4.4662    3.6118 H   0  0  0  0  0  0  0  0  0  0  0  0
  1  2  1  0
  1 22  1  0
  1 23  1  0
  1 24  1  0
  2  3  1  0
  3  4  2  0
  3  5  1  0
  5  6  1  0
  5 25  1  0
  5 26  1  0
  6 15  1  0
  6  7  1  0
  6 27  1  1
  7  8  1  0
  7 28  1  0
  7 29  1  0
  8 21  1  0
  8  9  1  0
  8 30  1  6
  9 14  2  0
  9 10  1  0
 10 11  2  0
 10 31  1  0
 11 12  1  0
 11 32  1  0
 12 13  2  0
 12 33  1  0
 13 14  1  0
 13 34  1  0
 14 15  1  0
 15 16  1  0
 15 35  1  1
 16 21  2  0
 16 17  1  0
 17 18  2  0
 17 36  1  0
 18 19  1  0
 18 37  1  0
 19 20  2  0
 19 38  1  0
 20 21  1  0
 20 39  1  0
M  END
>  <i_m_ct_stereo_status>  (44) 
1

>  <s_m_source_file>  (44) 
/var/tmp/pbs.5076255.sched01/tmphbojuwnv/0fr5z8inm.sdf

>  <i_m_source_file_index>  (44) 
26

>  <i_lp_mmshare_version>  (44) 
48012

>  <i_f3d_flags>  (44) 
0

>  <s_epik_input>  (44) 
W0NIM11PQyg9TylbQ0gyXVtDQEhdKFtDSDJdMSlbQ0BIXShjKGMyW0NASF0xMylbY0hdW2NIXVtjSF1bY0hdMiljNGMzW2NIXVtjSF1bY0hdW2NIXTQ=

>  <s_epik_cmdline>  (44) 
J2VwaWtfcHl0aG9uJywgJy1waHQnLCAnMi4wJywgJy1waCcsICc3LjAnLCAnLXRuJywgJzgnLCAnLW1hJywgJzIwMCcsICctaW1hZScsICc8aW5maWxlLm1hZT4nLCAnLW9tYWUnLCAnPG91dGZpbGUubWFlPic=

>  <r_lp_tautomer_probability>  (44) 
1

>  <r_epik_Ionization_Penalty>  (44) 
0

>  <r_epik_Ionization_Penalty_Charging>  (44) 
0

>  <r_epik_Ionization_Penalty_Neutral>  (44) 
0

>  <r_epik_State_Penalty>  (44) 
-0

>  <r_epik_Charging_Adjusted_Penalty>  (44) 
0

>  <i_epik_Tot_Q>  (44) 
0

>  <i_epik_Tot_abs_Q>  (44) 
0

>  <s_epik_Chemistry_Notes>  (44) 
This compound has an ester and may undergo hydrolysis at high or low pH.

>  <s_lp_Force_Field>  (44) 
OPLS3e

>  <r_lp_Energy>  (44) 
47.8901

>  <b_lp_Chiralities_Consistent>  (44) 
1

>  <s_lp_Variant>  (44) 
15:0-1

>  <s_i_glide_gridfile>  (44) 
pfpi4k_grid

>  <i_i_glide_lignum>  (44) 
26

>  <i_i_glide_rotatable_bonds>  (44) 
3

>  <r_i_docking_score>  (44) 
-2.43071

>  <r_i_glide_ligand_efficiency>  (44) 
-0.115748

>  <r_i_glide_ligand_efficiency_sa>  (44) 
-0.31934

>  <r_i_glide_ligand_efficiency_ln>  (44) 
-0.600987

>  <r_i_glide_gscore>  (44) 
-2.43071

>  <r_i_glide_lipo>  (44) 
-0.162919

>  <r_i_glide_hbond>  (44) 
0

>  <r_i_glide_metal>  (44) 
-0

>  <r_i_glide_rewards>  (44) 
-1.51128

>  <r_i_glide_evdw>  (44) 
-19.2415

>  <r_i_glide_ecoul>  (44) 
-0.131573

>  <r_i_glide_erotb>  (44) 
0.232645

>  <r_i_glide_esite>  (44) 
-0.00733928

>  <r_i_glide_emodel>  (44) 
-20.4052

>  <r_i_glide_energy>  (44) 
-19.373

>  <r_i_glide_einternal>  (44) 
6.10771

>  <r_i_glide_intrahb_reward>  (44) 
-0

>  <i_i_glide_confnum>  (44) 
4

>  <i_i_glide_posenum>  (44) 
11

>  <r_i_glide_eff_state_penalty>  (44) 
0

>  <ligand_id>  (44) 
15

>  <original_smiles>  (44) 
COC(=O)CC1CC2c3ccccc3C1c1ccccc12

>  <smiles>  (44) 
[H]c1c([H])c([H])c2c(c1[H])C1([H])c3c([H])c([H])c([H])c([H])c3C2([H])C([H])(C([H])([H])C(=O)OC([H])([H])[H])C1([H])[H]

$$$$
16:0:0
     RDKit          3D

 43 45  0  0  1  0  0  0  0  0999 V2000
    5.9405   -0.9621    1.4231 C   0  0  0  0  0  0  0  0  0  0  0  0
    4.9822   -1.4748    0.6587 C   0  0  0  0  0  0  0  0  0  0  0  0
    4.8033   -1.1576   -0.8274 C   0  0  1  0  0  0  0  0  0  0  0  0
    5.5641   -2.0066   -1.8342 C   0  0  1  0  0  0  0  0  0  0  0  0
    6.0299   -3.3767   -1.3033 C   0  0  0  0  0  0  0  0  0  0  0  0
    4.8250   -4.1709   -0.7279 C   0  0  1  0  0  0  0  0  0  0  0  0
    5.2835   -5.2934    0.2208 C   0  0  0  0  0  0  0  0  0  0  0  0
    3.6481   -3.2146   -0.2901 C   0  0  1  0  0  0  0  0  0  0  0  0
    2.4179   -3.9002   -0.3473 O   0  0  0  0  0  0  0  0  0  0  0  0
    3.8500   -2.4108    1.0147 C   0  0  1  0  0  0  0  0  0  0  0  0
    3.9499   -3.1869    2.3659 C   0  0  0  0  0  0  0  0  0  0  0  0
    5.0001   -3.6764    2.7729 O   0  0  0  0  0  0  0  0  0  0  0  0
    2.7930   -3.2684    3.0756 O   0  0  0  0  0  0  0  0  0  0  0  0
    1.7236   -2.3593    2.8244 C   0  0  0  0  0  0  0  0  0  0  0  0
    0.6313   -2.5476    3.8960 C   0  0  0  0  0  0  0  0  0  0  0  0
    3.6274   -1.9991   -1.2659 C   0  0  2  0  0  0  0  0  0  0  0  0
    4.2561   -2.0071   -2.6749 C   0  0  0  0  0  0  0  0  0  0  0  0
    4.0134   -0.7396   -3.5555 C   0  0  0  0  0  0  0  0  0  0  0  0
    3.9081   -3.2007   -3.5744 C   0  0  0  0  0  0  0  0  0  0  0  0
    6.0236   -1.1823    2.4902 H   0  0  0  0  0  0  0  0  0  0  0  0
    6.6384   -0.2757    0.9927 H   0  0  0  0  0  0  0  0  0  0  0  0
    4.7116   -0.0838   -1.0320 H   0  0  0  0  0  0  0  0  0  0  0  0
    6.3629   -1.4633   -2.3099 H   0  0  0  0  0  0  0  0  0  0  0  0
    6.5000   -3.8954   -2.1124 H   0  0  0  0  0  0  0  0  0  0  0  0
    6.7816   -3.2401   -0.5238 H   0  0  0  0  0  0  0  0  0  0  0  0
    4.4262   -4.7394   -1.5605 H   0  0  0  0  0  0  0  0  0  0  0  0
    5.9664   -4.9261    0.9882 H   0  0  0  0  0  0  0  0  0  0  0  0
    5.8181   -6.0557   -0.3403 H   0  0  0  0  0  0  0  0  0  0  0  0
    4.4395   -5.7950    0.7033 H   0  0  0  0  0  0  0  0  0  0  0  0
    2.3718   -4.3402   -1.1916 H   0  0  0  0  0  0  0  0  0  0  0  0
    3.0182   -1.7080    1.0782 H   0  0  0  0  0  0  0  0  0  0  0  0
    2.1009   -1.3424    2.8981 H   0  0  0  0  0  0  0  0  0  0  0  0
    1.3060   -2.5260    1.8372 H   0  0  0  0  0  0  0  0  0  0  0  0
   -0.1631   -1.8272    3.7206 H   0  0  0  0  0  0  0  0  0  0  0  0
    1.0290   -2.3760    4.8909 H   0  0  0  0  0  0  0  0  0  0  0  0
    0.2054   -3.5430    3.8571 H   0  0  0  0  0  0  0  0  0  0  0  0
    2.6896   -1.4236   -1.2419 H   0  0  0  0  0  0  0  0  0  0  0  0
    2.9693   -0.6830   -3.8774 H   0  0  0  0  0  0  0  0  0  0  0  0
    4.6269   -0.7711   -4.4548 H   0  0  0  0  0  0  0  0  0  0  0  0
    4.2315    0.1979   -3.0572 H   0  0  0  0  0  0  0  0  0  0  0  0
    3.4841   -2.9109   -4.5355 H   0  0  0  0  0  0  0  0  0  0  0  0
    3.1615   -3.8541   -3.1109 H   0  0  0  0  0  0  0  0  0  0  0  0
    4.7891   -3.8117   -3.7759 H   0  0  0  0  0  0  0  0  0  0  0  0
  1  2  2  0
  1 20  1  0
  1 21  1  0
  2 10  1  0
  2  3  1  0
  3 16  1  0
  3  4  1  0
  3 22  1  1
  4 17  1  0
  4  5  1  0
  4 23  1  6
  5  6  1  0
  5 24  1  0
  5 25  1  0
  6  7  1  0
  6  8  1  0
  6 26  1  6
  7 27  1  0
  7 28  1  0
  7 29  1  0
  8  9  1  1
  8 10  1  0
  8 16  1  0
  9 30  1  0
 10 11  1  0
 10 31  1  1
 11 12  2  0
 11 13  1  0
 13 14  1  0
 14 15  1  0
 14 32  1  0
 14 33  1  0
 15 34  1  0
 15 35  1  0
 15 36  1  0
 16 17  1  0
 16 37  1  6
 17 18  1  0
 17 19  1  0
 18 38  1  0
 18 39  1  0
 18 40  1  0
 19 41  1  0
 19 42  1  0
 19 43  1  0
M  END
>  <i_m_ct_stereo_status>  (45) 
1

>  <s_m_source_file>  (45) 
/var/tmp/pbs.5076255.sched01/tmphbojuwnv/0fr5z8inm.sdf

>  <i_m_source_file_index>  (45) 
27

>  <i_lp_mmshare_version>  (45) 
48012

>  <i_f3d_flags>  (45) 
2

>  <s_epik_input>  (45) 
W0NIM11bQ0gyXU9DKD1PKVtDQEhdMUMoPVtDSDJdKVtDQEBIXShbQ0BIXTJbQ0BdMTNbT0hdKVtDQEhdKEMyKFtDSDNdKVtDSDNdKVtDSDJdW0NASF0zW0NIM10=

>  <s_epik_cmdline>  (45) 
J2VwaWtfcHl0aG9uJywgJy1waHQnLCAnMi4wJywgJy1waCcsICc3LjAnLCAnLXRuJywgJzgnLCAnLW1hJywgJzIwMCcsICctaW1hZScsICc8aW5maWxlLm1hZT4nLCAnLW9tYWUnLCAnPG91dGZpbGUubWFlPic=

>  <r_lp_tautomer_probability>  (45) 
1

>  <r_epik_Ionization_Penalty>  (45) 
7.85356e-08

>  <r_epik_Ionization_Penalty_Charging>  (45) 
0

>  <r_epik_Ionization_Penalty_Neutral>  (45) 
7.85356e-08

>  <r_epik_State_Penalty>  (45) 
-0

>  <r_epik_Charging_Adjusted_Penalty>  (45) 
0

>  <i_epik_Tot_Q>  (45) 
0

>  <i_epik_Tot_abs_Q>  (45) 
0

>  <s_epik_Chemistry_Notes>  (45) 
This compound has an ester and may undergo hydrolysis at high or low pH.

>  <s_lp_Force_Field>  (45) 
OPLS3e

>  <r_lp_Energy>  (45) 
46.8865

>  <b_lp_Chiralities_Consistent>  (45) 
0

>  <s_lp_Variant>  (45) 
16:0-1

>  <s_i_glide_gridfile>  (45) 
pfpi4k_grid

>  <i_i_glide_lignum>  (45) 
27

>  <i_i_glide_rotatable_bonds>  (45) 
4

>  <r_i_docking_score>  (45) 
-3.58458

>  <r_i_glide_ligand_efficiency>  (45) 
-0.188662

>  <r_i_glide_ligand_efficiency_sa>  (45) 
-0.503427

>  <r_i_glide_ligand_efficiency_ln>  (45) 
-0.908769

>  <r_i_glide_gscore>  (45) 
-3.58458

>  <r_i_glide_lipo>  (45) 
-0.938359

>  <r_i_glide_hbond>  (45) 
-0.0789806

>  <r_i_glide_metal>  (45) 
-0

>  <r_i_glide_rewards>  (45) 
-1.60934

>  <r_i_glide_evdw>  (45) 
-17.9517

>  <r_i_glide_ecoul>  (45) 
-3.79352

>  <r_i_glide_erotb>  (45) 
0.508709

>  <r_i_glide_esite>  (45) 
0

>  <r_i_glide_emodel>  (45) 
-21.9748

>  <r_i_glide_energy>  (45) 
-21.7452

>  <r_i_glide_einternal>  (45) 
8.50562

>  <r_i_glide_intrahb_reward>  (45) 
-0

>  <i_i_glide_confnum>  (45) 
4

>  <i_i_glide_posenum>  (45) 
25

>  <r_i_glide_eff_state_penalty>  (45) 
0

>  <ligand_id>  (45) 
16

>  <original_smiles>  (45) 
C=C1C2C3CC(C)C(O)(C1C(=O)OCC)C2C3(C)C

>  <smiles>  (45) 
[H]OC12C([H])(C(=O)OC([H])([H])C([H])([H])[H])C(=C([H])[H])C3([H])C([H])(C([H])([H])C1([H])C([H])([H])[H])C(C([H])([H])[H])(C([H])([H])[H])C32[H]

$$$$
16:0:1
     RDKit          3D

 43 45  0  0  1  0  0  0  0  0999 V2000
    5.0052   -0.6905    1.3256 C   0  0  0  0  0  0  0  0  0  0  0  0
    4.2994   -1.4006    0.4297 C   0  0  0  0  0  0  0  0  0  0  0  0
    4.3990   -1.1969   -1.0745 C   0  0  1  0  0  0  0  0  0  0  0  0
    5.4720   -2.0094   -1.8252 C   0  0  1  0  0  0  0  0  0  0  0  0
    5.9760   -3.2570   -1.1003 C   0  0  0  0  0  0  0  0  0  0  0  0
    4.7845   -4.1763   -0.7253 C   0  0  1  0  0  0  0  0  0  0  0  0
    5.1682   -5.1474    0.4023 C   0  0  0  0  0  0  0  0  0  0  0  0
    3.4304   -3.3658   -0.6162 C   0  0  1  0  0  0  0  0  0  0  0  0
    2.3319   -4.2309   -0.8325 O   0  0  0  0  0  0  0  0  0  0  0  0
    3.2660   -2.5009    0.6610 C   0  0  1  0  0  0  0  0  0  0  0  0
    3.2508   -3.2593    2.0115 C   0  0  0  0  0  0  0  0  0  0  0  0
    4.0644   -3.0665    2.9111 O   0  0  0  0  0  0  0  0  0  0  0  0
    2.2287   -4.1431    2.0700 O   0  0  0  0  0  0  0  0  0  0  0  0
    2.0670   -5.0130    3.1784 C   0  0  0  0  0  0  0  0  0  0  0  0
    2.9033   -6.2852    3.0008 C   0  0  0  0  0  0  0  0  0  0  0  0
    3.4515   -2.2330   -1.6727 C   0  0  2  0  0  0  0  0  0  0  0  0
    4.3787   -2.2184   -2.9090 C   0  0  0  0  0  0  0  0  0  0  0  0
    4.1736   -1.0631   -3.9231 C   0  0  0  0  0  0  0  0  0  0  0  0
    4.3968   -3.4910   -3.7529 C   0  0  0  0  0  0  0  0  0  0  0  0
    4.9231   -0.8380    2.4006 H   0  0  0  0  0  0  0  0  0  0  0  0
    5.7103    0.0503    0.9821 H   0  0  0  0  0  0  0  0  0  0  0  0
    4.2589   -0.1712   -1.3969 H   0  0  0  0  0  0  0  0  0  0  0  0
    6.2648   -1.3763   -2.1937 H   0  0  0  0  0  0  0  0  0  0  0  0
    6.6718   -3.8035   -1.7322 H   0  0  0  0  0  0  0  0  0  0  0  0
    6.5384   -2.9808   -0.2030 H   0  0  0  0  0  0  0  0  0  0  0  0
    4.6552   -4.8535   -1.5675 H   0  0  0  0  0  0  0  0  0  0  0  0
    5.5334   -4.6227    1.2869 H   0  0  0  0  0  0  0  0  0  0  0  0
    5.9750   -5.8039    0.0714 H   0  0  0  0  0  0  0  0  0  0  0  0
    4.3219   -5.7780    0.6717 H   0  0  0  0  0  0  0  0  0  0  0  0
    2.5406   -4.7868   -1.5781 H   0  0  0  0  0  0  0  0  0  0  0  0
    2.2992   -2.0016    0.5932 H   0  0  0  0  0  0  0  0  0  0  0  0
    2.3175   -4.5014    4.1052 H   0  0  0  0  0  0  0  0  0  0  0  0
    1.0115   -5.2802    3.2362 H   0  0  0  0  0  0  0  0  0  0  0  0
    2.7741   -6.9588    3.8461 H   0  0  0  0  0  0  0  0  0  0  0  0
    3.9643   -6.0506    2.9338 H   0  0  0  0  0  0  0  0  0  0  0  0
    2.6182   -6.8279    2.0985 H   0  0  0  0  0  0  0  0  0  0  0  0
    2.4853   -1.8059   -1.9226 H   0  0  0  0  0  0  0  0  0  0  0  0
    3.2216   -1.1581   -4.4513 H   0  0  0  0  0  0  0  0  0  0  0  0
    4.9628   -1.0502   -4.6764 H   0  0  0  0  0  0  0  0  0  0  0  0
    4.1663   -0.0703   -3.4766 H   0  0  0  0  0  0  0  0  0  0  0  0
    4.1182   -3.3236   -4.7834 H   0  0  0  0  0  0  0  0  0  0  0  0
    3.6571   -4.2096   -3.4059 H   0  0  0  0  0  0  0  0  0  0  0  0
    5.3750   -3.9790   -3.7465 H   0  0  0  0  0  0  0  0  0  0  0  0
  1  2  2  0
  1 20  1  0
  1 21  1  0
  2 10  1  0
  2  3  1  0
  3 16  1  0
  3  4  1  0
  3 22  1  1
  4 17  1  0
  4  5  1  0
  4 23  1  6
  5  6  1  0
  5 24  1  0
  5 25  1  0
  6  7  1  0
  6  8  1  0
  6 26  1  6
  7 27  1  0
  7 28  1  0
  7 29  1  0
  8  9  1  6
  8 10  1  0
  8 16  1  0
  9 30  1  0
 10 11  1  0
 10 31  1  6
 11 12  2  0
 11 13  1  0
 13 14  1  0
 14 15  1  0
 14 32  1  0
 14 33  1  0
 15 34  1  0
 15 35  1  0
 15 36  1  0
 16 17  1  0
 16 37  1  6
 17 18  1  0
 17 19  1  0
 18 38  1  0
 18 39  1  0
 18 40  1  0
 19 41  1  0
 19 42  1  0
 19 43  1  0
M  END
>  <i_m_ct_stereo_status>  (46) 
1

>  <s_m_source_file>  (46) 
/var/tmp/pbs.5076255.sched01/tmphbojuwnv/0fr5z8inm.sdf

>  <i_m_source_file_index>  (46) 
27

>  <i_lp_mmshare_version>  (46) 
48012

>  <i_f3d_flags>  (46) 
2

>  <s_epik_input>  (46) 
W0NIM11bQ0gyXU9DKD1PKVtDQEhdMUMoPVtDSDJdKVtDQEBIXShbQ0BIXTJbQ0BdMTNbT0hdKVtDQEhdKEMyKFtDSDNdKVtDSDNdKVtDSDJdW0NASF0zW0NIM10=

>  <s_epik_cmdline>  (46) 
J2VwaWtfcHl0aG9uJywgJy1waHQnLCAnMi4wJywgJy1waCcsICc3LjAnLCAnLXRuJywgJzgnLCAnLW1hJywgJzIwMCcsICctaW1hZScsICc8aW5maWxlLm1hZT4nLCAnLW9tYWUnLCAnPG91dGZpbGUubWFlPic=

>  <r_lp_tautomer_probability>  (46) 
1

>  <r_epik_Ionization_Penalty>  (46) 
7.85356e-08

>  <r_epik_Ionization_Penalty_Charging>  (46) 
0

>  <r_epik_Ionization_Penalty_Neutral>  (46) 
7.85356e-08

>  <r_epik_State_Penalty>  (46) 
-0

>  <r_epik_Charging_Adjusted_Penalty>  (46) 
0

>  <i_epik_Tot_Q>  (46) 
0

>  <i_epik_Tot_abs_Q>  (46) 
0

>  <s_epik_Chemistry_Notes>  (46) 
This compound has an ester and may undergo hydrolysis at high or low pH.

>  <s_lp_Force_Field>  (46) 
OPLS3e

>  <r_lp_Energy>  (46) 
46.8865

>  <b_lp_Chiralities_Consistent>  (46) 
0

>  <s_lp_Variant>  (46) 
16:0-1

>  <s_i_glide_gridfile>  (46) 
pfpi4k_grid

>  <i_i_glide_lignum>  (46) 
27

>  <i_i_glide_rotatable_bonds>  (46) 
4

>  <r_i_docking_score>  (46) 
-3.44066

>  <r_i_glide_ligand_efficiency>  (46) 
-0.181087

>  <r_i_glide_ligand_efficiency_sa>  (46) 
-0.483214

>  <r_i_glide_ligand_efficiency_ln>  (46) 
-0.872281

>  <r_i_glide_gscore>  (46) 
-3.44066

>  <r_i_glide_lipo>  (46) 
-0.777996

>  <r_i_glide_hbond>  (46) 
0

>  <r_i_glide_metal>  (46) 
-0

>  <r_i_glide_rewards>  (46) 
-1.60664

>  <r_i_glide_evdw>  (46) 
-17.9024

>  <r_i_glide_ecoul>  (46) 
-4.4631

>  <r_i_glide_erotb>  (46) 
0.508709

>  <r_i_glide_esite>  (46) 
-0.000151991

>  <r_i_glide_emodel>  (46) 
-26.5692

>  <r_i_glide_energy>  (46) 
-22.3655

>  <r_i_glide_einternal>  (46) 
0.261223

>  <r_i_glide_intrahb_reward>  (46) 
-0

>  <i_i_glide_confnum>  (46) 
3

>  <i_i_glide_posenum>  (46) 
9

>  <r_i_glide_eff_state_penalty>  (46) 
0

>  <ligand_id>  (46) 
16

>  <original_smiles>  (46) 
C=C1C2C3CC(C)C(O)(C1C(=O)OCC)C2C3(C)C

>  <smiles>  (46) 
[H]OC12C([H])(C(=O)OC([H])([H])C([H])([H])[H])C(=C([H])[H])C3([H])C([H])(C([H])([H])C1([H])C([H])([H])[H])C(C([H])([H])[H])(C([H])([H])[H])C32[H]

$$$$
16:0:2
     RDKit          3D

 43 45  0  0  1  0  0  0  0  0999 V2000
    6.6488   -1.0950    0.7147 C   0  0  0  0  0  0  0  0  0  0  0  0
    5.4963   -1.4271    0.1469 C   0  0  0  0  0  0  0  0  0  0  0  0
    5.2187   -1.2725   -1.3534 C   0  0  1  0  0  0  0  0  0  0  0  0
    5.5288   -2.4934   -2.2584 C   0  0  1  0  0  0  0  0  0  0  0  0
    5.6662   -3.8173   -1.5121 C   0  0  0  0  0  0  0  0  0  0  0  0
    4.3854   -4.1210   -0.7016 C   0  0  1  0  0  0  0  0  0  0  0  0
    4.6391   -5.1336    0.4276 C   0  0  0  0  0  0  0  0  0  0  0  0
    3.5958   -2.7927   -0.3897 C   0  0  1  0  0  0  0  0  0  0  0  0
    2.2173   -3.1253   -0.3462 O   0  0  0  0  0  0  0  0  0  0  0  0
    4.1914   -1.9372    0.7677 C   0  0  1  0  0  0  0  0  0  0  0  0
    4.2484   -2.5467    2.1772 C   0  0  0  0  0  0  0  0  0  0  0  0
    5.2972   -2.9495    2.6835 O   0  0  0  0  0  0  0  0  0  0  0  0
    3.0442   -2.5269    2.8477 O   0  0  0  0  0  0  0  0  0  0  0  0
    1.8520   -1.9390    2.3303 C   0  0  0  0  0  0  0  0  0  0  0  0
    1.7945   -0.4341    2.5487 C   0  0  0  0  0  0  0  0  0  0  0  0
    3.7839   -1.7728   -1.5282 C   0  0  2  0  0  0  0  0  0  0  0  0
    4.1658   -2.1772   -2.9695 C   0  0  0  0  0  0  0  0  0  0  0  0
    4.1266   -1.0631   -4.0272 C   0  0  0  0  0  0  0  0  0  0  0  0
    3.3589   -3.3460   -3.5727 C   0  0  0  0  0  0  0  0  0  0  0  0
    6.8324   -1.1672    1.7859 H   0  0  0  0  0  0  0  0  0  0  0  0
    7.4849   -0.7050    0.1233 H   0  0  0  0  0  0  0  0  0  0  0  0
    5.4160   -0.2831   -1.7726 H   0  0  0  0  0  0  0  0  0  0  0  0
    6.3765   -2.2901   -2.8992 H   0  0  0  0  0  0  0  0  0  0  0  0
    5.7923   -4.6097   -2.2326 H   0  0  0  0  0  0  0  0  0  0  0  0
    6.5457   -3.7954   -0.8577 H   0  0  0  0  0  0  0  0  0  0  0  0
    3.7568   -4.6786   -1.3717 H   0  0  0  0  0  0  0  0  0  0  0  0
    5.4670   -4.8453    1.0813 H   0  0  0  0  0  0  0  0  0  0  0  0
    4.9145   -6.0919   -0.0148 H   0  0  0  0  0  0  0  0  0  0  0  0
    3.7395   -5.2921    1.0333 H   0  0  0  0  0  0  0  0  0  0  0  0
    1.7348   -2.2987   -0.4552 H   0  0  0  0  0  0  0  0  0  0  0  0
    3.6113   -1.0049    0.8116 H   0  0  0  0  0  0  0  0  0  0  0  0
    1.7557   -2.0677    1.2673 H   0  0  0  0  0  0  0  0  0  0  0  0
    0.9909   -2.4555    2.7581 H   0  0  0  0  0  0  0  0  0  0  0  0
    0.9321   -0.0552    1.9922 H   0  0  0  0  0  0  0  0  0  0  0  0
    2.6671    0.0698    2.0997 H   0  0  0  0  0  0  0  0  0  0  0  0
    1.7094   -0.1436    3.5949 H   0  0  0  0  0  0  0  0  0  0  0  0
    3.0668   -0.9571   -1.4921 H   0  0  0  0  0  0  0  0  0  0  0  0
    3.1063   -0.7491   -4.2531 H   0  0  0  0  0  0  0  0  0  0  0  0
    4.6067   -1.3944   -4.9404 H   0  0  0  0  0  0  0  0  0  0  0  0
    4.6035   -0.1540   -3.6918 H   0  0  0  0  0  0  0  0  0  0  0  0
    2.8830   -3.0902   -4.5220 H   0  0  0  0  0  0  0  0  0  0  0  0
    2.5403   -3.6559   -2.9195 H   0  0  0  0  0  0  0  0  0  0  0  0
    3.9989   -4.2136   -3.7310 H   0  0  0  0  0  0  0  0  0  0  0  0
  1  2  2  0
  1 20  1  0
  1 21  1  0
  2 10  1  0
  2  3  1  0
  3 16  1  0
  3  4  1  0
  3 22  1  6
  4 17  1  0
  4  5  1  0
  4 23  1  6
  5  6  1  0
  5 24  1  0
  5 25  1  0
  6  7  1  0
  6  8  1  0
  6 26  1  6
  7 27  1  0
  7 28  1  0
  7 29  1  0
  8  9  1  1
  8 10  1  0
  8 16  1  0
  9 30  1  0
 10 11  1  0
 10 31  1  1
 11 12  2  0
 11 13  1  0
 13 14  1  0
 14 15  1  0
 14 32  1  0
 14 33  1  0
 15 34  1  0
 15 35  1  0
 15 36  1  0
 16 17  1  0
 16 37  1  6
 17 18  1  0
 17 19  1  0
 18 38  1  0
 18 39  1  0
 18 40  1  0
 19 41  1  0
 19 42  1  0
 19 43  1  0
M  END
>  <i_m_ct_stereo_status>  (47) 
1

>  <s_m_source_file>  (47) 
/var/tmp/pbs.5076255.sched01/tmphbojuwnv/0fr5z8inm.sdf

>  <i_m_source_file_index>  (47) 
27

>  <i_lp_mmshare_version>  (47) 
48012

>  <i_f3d_flags>  (47) 
2

>  <s_epik_input>  (47) 
W0NIM11bQ0gyXU9DKD1PKVtDQEhdMUMoPVtDSDJdKVtDQEBIXShbQ0BIXTJbQ0BdMTNbT0hdKVtDQEhdKEMyKFtDSDNdKVtDSDNdKVtDSDJdW0NASF0zW0NIM10=

>  <s_epik_cmdline>  (47) 
J2VwaWtfcHl0aG9uJywgJy1waHQnLCAnMi4wJywgJy1waCcsICc3LjAnLCAnLXRuJywgJzgnLCAnLW1hJywgJzIwMCcsICctaW1hZScsICc8aW5maWxlLm1hZT4nLCAnLW9tYWUnLCAnPG91dGZpbGUubWFlPic=

>  <r_lp_tautomer_probability>  (47) 
1

>  <r_epik_Ionization_Penalty>  (47) 
7.85356e-08

>  <r_epik_Ionization_Penalty_Charging>  (47) 
0

>  <r_epik_Ionization_Penalty_Neutral>  (47) 
7.85356e-08

>  <r_epik_State_Penalty>  (47) 
-0

>  <r_epik_Charging_Adjusted_Penalty>  (47) 
0

>  <i_epik_Tot_Q>  (47) 
0

>  <i_epik_Tot_abs_Q>  (47) 
0

>  <s_epik_Chemistry_Notes>  (47) 
This compound has an ester and may undergo hydrolysis at high or low pH.

>  <s_lp_Force_Field>  (47) 
OPLS3e

>  <r_lp_Energy>  (47) 
46.8865

>  <b_lp_Chiralities_Consistent>  (47) 
0

>  <s_lp_Variant>  (47) 
16:0-1

>  <s_i_glide_gridfile>  (47) 
pfpi4k_grid

>  <i_i_glide_lignum>  (47) 
27

>  <i_i_glide_rotatable_bonds>  (47) 
4

>  <r_i_docking_score>  (47) 
-3.37253

>  <r_i_glide_ligand_efficiency>  (47) 
-0.177502

>  <r_i_glide_ligand_efficiency_sa>  (47) 
-0.473646

>  <r_i_glide_ligand_efficiency_ln>  (47) 
-0.85501

>  <r_i_glide_gscore>  (47) 
-3.37253

>  <r_i_glide_lipo>  (47) 
-0.605739

>  <r_i_glide_hbond>  (47) 
0

>  <r_i_glide_metal>  (47) 
-0

>  <r_i_glide_rewards>  (47) 
-1.61802

>  <r_i_glide_evdw>  (47) 
-15.7951

>  <r_i_glide_ecoul>  (47) 
-4.76743

>  <r_i_glide_erotb>  (47) 
0.356097

>  <r_i_glide_esite>  (47) 
0

>  <r_i_glide_emodel>  (47) 
-19.8079

>  <r_i_glide_energy>  (47) 
-20.5625

>  <r_i_glide_einternal>  (47) 
5.87233

>  <r_i_glide_intrahb_reward>  (47) 
-0

>  <i_i_glide_confnum>  (47) 
4

>  <i_i_glide_posenum>  (47) 
21

>  <r_i_glide_eff_state_penalty>  (47) 
0

>  <ligand_id>  (47) 
16

>  <original_smiles>  (47) 
C=C1C2C3CC(C)C(O)(C1C(=O)OCC)C2C3(C)C

>  <smiles>  (47) 
[H]OC12C([H])(C(=O)OC([H])([H])C([H])([H])[H])C(=C([H])[H])C3([H])C([H])(C([H])([H])C1([H])C([H])([H])[H])C(C([H])([H])[H])(C([H])([H])[H])C32[H]

$$$$
17:0:0
     RDKit          3D

 90 96  0  0  1  0  0  0  0  0999 V2000
    3.8679   -5.5348    8.4170 C   0  0  0  0  0  0  0  0  0  0  0  0
    4.1473   -6.7022    7.4389 C   0  0  2  0  0  0  0  0  0  0  0  0
    5.5934   -6.6093    6.9089 C   0  0  0  0  0  0  0  0  0  0  0  0
    5.7343   -5.5373    5.8097 C   0  0  1  0  0  0  0  0  0  0  0  0
    7.0531   -5.6215    5.2815 O   0  0  0  0  0  0  0  0  0  0  0  0
    4.6212   -5.5358    4.7277 C   0  0  2  0  0  0  0  0  0  0  0  0
    4.8782   -6.2530    3.5239 O   0  0  0  0  0  0  0  0  0  0  0  0
    4.8463   -4.7974    3.4511 C   0  0  1  0  0  0  0  0  0  0  0  0
    3.7893   -4.1979    2.6179 C   0  0  1  0  0  0  0  0  0  0  0  0
    3.2689   -2.9562    3.4237 C   0  0  1  0  0  0  0  0  0  0  0  0
    3.0931   -1.6584    2.5968 C   0  0  0  0  0  0  0  0  0  0  0  0
    3.0287   -0.5582    3.1578 O   0  0  0  0  0  0  0  0  0  0  0  0
    3.0973   -1.7360    1.0664 C   0  0  1  0  0  0  0  0  0  0  0  0
    3.2127   -0.4405    0.5446 O   0  0  0  0  0  0  0  0  0  0  0  0
    4.2614   -2.6368    0.6142 C   0  0  2  0  0  0  0  0  0  0  0  0
    4.5884   -2.7139   -0.8920 C   0  0  1  0  0  0  0  0  0  0  0  0
    5.4360   -1.6542   -1.3147 O   0  0  0  0  0  0  0  0  0  0  0  0
    5.2273   -4.1042   -1.0929 C   0  0  0  0  0  0  0  0  0  0  0  0
    5.2497   -4.8305    0.2971 C   0  0  1  0  0  0  0  0  0  0  0  0
    4.9474   -6.2022    0.1046 O   0  0  0  0  0  0  0  0  0  0  0  0
    6.7516   -4.8551    0.8415 C   0  0  0  0  0  0  0  0  0  0  0  0
    7.1561   -5.9047    1.9226 C   0  0  0  0  0  0  0  0  0  0  0  0
    7.3287   -3.4709    1.2054 C   0  0  0  0  0  0  0  0  0  0  0  0
    4.0441   -4.0972    1.0551 C   0  0  1  0  0  0  0  0  0  0  0  0
    2.6965   -4.6229    0.4319 C   0  0  0  0  0  0  0  0  0  0  0  0
    2.1330   -3.3121    4.4867 C   0  0  2  0  0  0  0  0  0  0  0  0
    0.8712   -3.8988    3.8037 C   0  0  0  0  0  0  0  0  0  0  0  0
    1.6698   -2.0211    5.2311 C   0  0  0  0  0  0  0  0  0  0  0  0
    0.8061   -2.2840    6.3307 O   0  0  0  0  0  0  0  0  0  0  0  0
    1.3798   -3.1647    7.2379 C   0  0  1  0  0  0  0  0  0  0  0  0
    0.3809   -3.4163    8.3550 C   0  0  0  0  0  0  0  0  0  0  0  0
    0.7058   -3.0171    9.6822 C   0  0  0  0  0  0  0  0  0  0  0  0
   -0.2136   -3.2445   10.7203 C   0  0  0  0  0  0  0  0  0  0  0  0
   -1.4374   -3.8703   10.4656 C   0  0  0  0  0  0  0  0  0  0  0  0
   -1.7578   -4.2978    9.1499 C   0  0  0  0  0  0  0  0  0  0  0  0
   -0.8465   -4.0415    8.1039 C   0  0  0  0  0  0  0  0  0  0  0  0
    1.6393   -4.3768    6.6155 O   0  0  0  0  0  0  0  0  0  0  0  0
    2.6550   -4.2637    5.6352 C   0  0  1  0  0  0  0  0  0  0  0  0
    3.1917   -5.6905    5.2543 C   0  0  2  0  0  0  0  0  0  0  0  0
    3.1326   -6.9024    6.2655 C   0  0  0  0  0  0  0  0  0  0  0  0
    3.5118   -8.2155    5.4953 C   0  0  0  0  0  0  0  0  0  0  0  0
    1.6961   -7.1691    6.7864 C   0  0  0  0  0  0  0  0  0  0  0  0
    4.0629   -4.5576    7.9863 H   0  0  0  0  0  0  0  0  0  0  0  0
    4.5194   -5.6105    9.2837 H   0  0  0  0  0  0  0  0  0  0  0  0
    2.8509   -5.5294    8.7989 H   0  0  0  0  0  0  0  0  0  0  0  0
    4.0949   -7.6046    8.0441 H   0  0  0  0  0  0  0  0  0  0  0  0
    6.2761   -6.3845    7.7313 H   0  0  0  0  0  0  0  0  0  0  0  0
    5.9281   -7.5779    6.5349 H   0  0  0  0  0  0  0  0  0  0  0  0
    5.7122   -4.5547    6.2807 H   0  0  0  0  0  0  0  0  0  0  0  0
    7.1844   -6.4643    4.8682 H   0  0  0  0  0  0  0  0  0  0  0  0
    5.7861   -4.2565    3.4985 H   0  0  0  0  0  0  0  0  0  0  0  0
    3.0276   -4.9558    2.6889 H   0  0  0  0  0  0  0  0  0  0  0  0
    4.1179   -2.6431    4.0365 H   0  0  0  0  0  0  0  0  0  0  0  0
    2.1376   -2.1151    0.7358 H   0  0  0  0  0  0  0  0  0  0  0  0
    2.5021   -0.3420   -0.0907 H   0  0  0  0  0  0  0  0  0  0  0  0
    5.1391   -2.2342    1.1060 H   0  0  0  0  0  0  0  0  0  0  0  0
    3.6723   -2.6443   -1.4760 H   0  0  0  0  0  0  0  0  0  0  0  0
    4.9672   -0.8388   -1.1851 H   0  0  0  0  0  0  0  0  0  0  0  0
    4.6305   -4.6552   -1.8173 H   0  0  0  0  0  0  0  0  0  0  0  0
    6.2079   -4.0268   -1.5507 H   0  0  0  0  0  0  0  0  0  0  0  0
    4.9338   -6.6297    0.9512 H   0  0  0  0  0  0  0  0  0  0  0  0
    7.3767   -5.1723   -0.0087 H   0  0  0  0  0  0  0  0  0  0  0  0
    6.7440   -5.7353    2.8366 H   0  0  0  0  0  0  0  0  0  0  0  0
    8.1960   -5.7604    2.2613 H   0  0  0  0  0  0  0  0  0  0  0  0
    6.9255   -6.9485    1.6515 H   0  0  0  0  0  0  0  0  0  0  0  0
    6.8337   -3.0482    2.0804 H   0  0  0  0  0  0  0  0  0  0  0  0
    7.2445   -2.7567    0.3826 H   0  0  0  0  0  0  0  0  0  0  0  0
    8.3891   -3.5608    1.4416 H   0  0  0  0  0  0  0  0  0  0  0  0
    2.6067   -4.4788   -0.6441 H   0  0  0  0  0  0  0  0  0  0  0  0
    1.8254   -4.1519    0.8797 H   0  0  0  0  0  0  0  0  0  0  0  0
    2.5520   -5.6903    0.6019 H   0  0  0  0  0  0  0  0  0  0  0  0
    0.0617   -4.0321    4.5209 H   0  0  0  0  0  0  0  0  0  0  0  0
    1.0211   -4.8716    3.3427 H   0  0  0  0  0  0  0  0  0  0  0  0
    0.5037   -3.2268    3.0314 H   0  0  0  0  0  0  0  0  0  0  0  0
    2.5239   -1.4383    5.5821 H   0  0  0  0  0  0  0  0  0  0  0  0
    1.1000   -1.3774    4.5638 H   0  0  0  0  0  0  0  0  0  0  0  0
    2.3049   -2.7409    7.6410 H   0  0  0  0  0  0  0  0  0  0  0  0
    1.6471   -2.5425    9.8949 H   0  0  0  0  0  0  0  0  0  0  0  0
    0.0377   -2.9397   11.7325 H   0  0  0  0  0  0  0  0  0  0  0  0
   -2.1401   -4.0403   11.2684 H   0  0  0  0  0  0  0  0  0  0  0  0
   -2.7159   -4.7402    8.9479 H   0  0  0  0  0  0  0  0  0  0  0  0
   -1.1003   -4.3433    7.0923 H   0  0  0  0  0  0  0  0  0  0  0  0
    3.5047   -3.7601    6.0891 H   0  0  0  0  0  0  0  0  0  0  0  0
    2.5882   -6.0454    4.4275 H   0  0  0  0  0  0  0  0  0  0  0  0
    2.8042   -8.4444    4.6997 H   0  0  0  0  0  0  0  0  0  0  0  0
    3.5344   -9.0781    6.1598 H   0  0  0  0  0  0  0  0  0  0  0  0
    4.4892   -8.1934    5.0157 H   0  0  0  0  0  0  0  0  0  0  0  0
    0.9618   -7.0842    5.9854 H   0  0  0  0  0  0  0  0  0  0  0  0
    1.3819   -6.4928    7.5745 H   0  0  0  0  0  0  0  0  0  0  0  0
    1.6009   -8.1663    7.2090 H   0  0  0  0  0  0  0  0  0  0  0  0
  1  2  1  0
  1 43  1  0
  1 44  1  0
  1 45  1  0
  2 40  1  0
  2  3  1  0
  2 46  1  1
  3  4  1  0
  3 47  1  0
  3 48  1  0
  4  5  1  0
  4  6  1  0
  4 49  1  1
  5 50  1  0
  6  8  1  0
  6 39  1  0
  6  7  1  6
  7  8  1  0
  8  9  1  0
  8 51  1  1
  9 24  1  0
  9 10  1  0
  9 52  1  6
 10 11  1  0
 10 26  1  0
 10 53  1  1
 11 12  2  0
 11 13  1  0
 13 14  1  0
 13 15  1  0
 13 54  1  6
 14 55  1  0
 15 24  1  0
 15 16  1  0
 15 56  1  1
 16 17  1  0
 16 18  1  0
 16 57  1  6
 17 58  1  0
 18 19  1  0
 18 59  1  0
 18 60  1  0
 19 20  1  6
 19 21  1  0
 19 24  1  0
 20 61  1  0
 21 22  1  0
 21 23  1  0
 21 62  1  0
 22 63  1  0
 22 64  1  0
 22 65  1  0
 23 66  1  0
 23 67  1  0
 23 68  1  0
 24 25  1  6
 25 69  1  0
 25 70  1  0
 25 71  1  0
 26 38  1  0
 26 27  1  6
 26 28  1  0
 27 72  1  0
 27 73  1  0
 27 74  1  0
 28 29  1  0
 28 75  1  0
 28 76  1  0
 29 30  1  0
 30 31  1  0
 30 37  1  0
 30 77  1  1
 31 36  1  0
 31 32  2  0
 32 33  1  0
 32 78  1  0
 33 34  2  0
 33 79  1  0
 34 35  1  0
 34 80  1  0
 35 36  2  0
 35 81  1  0
 36 82  1  0
 37 38  1  0
 38 39  1  0
 38 83  1  1
 39 40  1  0
 39 84  1  6
 40 41  1  0
 40 42  1  0
 41 85  1  0
 41 86  1  0
 41 87  1  0
 42 88  1  0
 42 89  1  0
 42 90  1  0
M  END
>  <i_m_ct_stereo_status>  (48) 
1

>  <s_m_source_file>  (48) 
/var/tmp/pbs.5076255.sched01/tmphbojuwnv/0fr5z8inm.sdf

>  <i_m_source_file_index>  (48) 
28

>  <i_lp_mmshare_version>  (48) 
48012

>  <i_f3d_flags>  (48) 
0

>  <s_epik_input>  (48) 
W2NIXTFbY0hdW2NIXVtjSF1bY0hdYzFbQ0BIXShPW0NIMl0yKU9bQ0BASF0oW0NAQEhdM0MoW0NIM10pKFtDSDNdKVtDQEhdKFtDSDNdKVtDSDJdW0NASF00W09IXSlbQ0BdMihbQ0gzXSlbQ0BASF0oW0NAQEhdNVtDQEBIXShbQ0BdMzQ2KU82KUMoPU8pW0NAQEhdKFtPSF0pW0NASF03W0NAQF01KFtDSDNdKVtDQF0oW09IXSkoW0NIXShbQ0gzXSlbQ0gzXSlbQ0gyXVtDQEBIXTdbT0hd

>  <s_epik_cmdline>  (48) 
J2VwaWtfcHl0aG9uJywgJy1waHQnLCAnMi4wJywgJy1waCcsICc3LjAnLCAnLXRuJywgJzgnLCAnLW1hJywgJzIwMCcsICctaW1hZScsICc8aW5maWxlLm1hZT4nLCAnLW9tYWUnLCAnPG91dGZpbGUubWFlPic=

>  <r_lp_tautomer_probability>  (48) 
1

>  <r_epik_Ionization_Penalty>  (48) 
8.36186e-07

>  <r_epik_Ionization_Penalty_Charging>  (48) 
0

>  <r_epik_Ionization_Penalty_Neutral>  (48) 
8.36186e-07

>  <r_epik_State_Penalty>  (48) 
-0

>  <r_epik_Charging_Adjusted_Penalty>  (48) 
0

>  <i_epik_Tot_Q>  (48) 
0

>  <i_epik_Tot_abs_Q>  (48) 
0

>  <s_epik_Chemistry_Notes>  (48) 
This compound contains an acetal/aminal-like group ( X-CH(R)-Y where X, Y are N, S, or O) that may be acid/base labile, releasing an aldehyde.

>  <s_lp_Force_Field>  (48) 
OPLS3e

>  <r_lp_Energy>  (48) 
101.465

>  <b_lp_Chiralities_Consistent>  (48) 
1

>  <s_lp_Variant>  (48) 
17:0-1

>  <s_i_glide_gridfile>  (48) 
pfpi4k_grid

>  <i_i_glide_lignum>  (48) 
28

>  <i_i_glide_rotatable_bonds>  (48) 
6

>  <r_i_docking_score>  (48) 
-2.60272

>  <r_i_glide_ligand_efficiency>  (48) 
-0.0619695

>  <r_i_glide_ligand_efficiency_sa>  (48) 
-0.215408

>  <r_i_glide_ligand_efficiency_ln>  (48) 
-0.549367

>  <r_i_glide_gscore>  (48) 
-2.60272

>  <r_i_glide_lipo>  (48) 
-0.324005

>  <r_i_glide_hbond>  (48) 
0

>  <r_i_glide_metal>  (48) 
-0

>  <r_i_glide_rewards>  (48) 
-0.5

>  <r_i_glide_evdw>  (48) 
-21.5163

>  <r_i_glide_ecoul>  (48) 
-6.63538

>  <r_i_glide_erotb>  (48) 
0.0611896

>  <r_i_glide_esite>  (48) 
-0.00355717

>  <r_i_glide_emodel>  (48) 
-31.0568

>  <r_i_glide_energy>  (48) 
-28.1517

>  <r_i_glide_einternal>  (48) 
5.37425

>  <r_i_glide_intrahb_reward>  (48) 
-0.5

>  <i_i_glide_confnum>  (48) 
5

>  <i_i_glide_posenum>  (48) 
5

>  <r_i_glide_eff_state_penalty>  (48) 
0

>  <ligand_id>  (48) 
17

>  <original_smiles>  (48) 
CC1CC(O)C23OC2C2C(C(=O)C(O)C4C(O)CC(O)(C(C)C)C42C)C2(C)COC(c4ccccc4)OC2C3C1(C)C

>  <smiles>  (48) 
[H]OC1([H])C(=O)C2([H])C([H])(C3([H])OC34C([H])(O[H])C([H])([H])C([H])(C([H])([H])[H])C(C([H])([H])[H])(C([H])([H])[H])C4([H])C3([H])OC([H])(c4c([H])c([H])c([H])c([H])c4[H])OC([H])([H])C32C([H])([H])[H])C2(C([H])([H])[H])C1([H])C([H])(O[H])C([H])([H])C2(O[H])C([H])(C([H])([H])[H])C([H])([H])[H]

$$$$
17:0:1
     RDKit          3D

 90 96  0  0  1  0  0  0  0  0999 V2000
    0.2599   -6.2727    7.3491 C   0  0  0  0  0  0  0  0  0  0  0  0
    1.2595   -5.6709    8.3569 C   0  0  2  0  0  0  0  0  0  0  0  0
    0.5942   -4.5077    9.1224 C   0  0  0  0  0  0  0  0  0  0  0  0
    0.5131   -3.2275    8.2630 C   0  0  1  0  0  0  0  0  0  0  0  0
    0.0096   -2.1910    9.0908 O   0  0  0  0  0  0  0  0  0  0  0  0
    1.8302   -2.8387    7.5360 C   0  0  2  0  0  0  0  0  0  0  0  0
    2.7089   -1.9363    8.1497 O   0  0  0  0  0  0  0  0  0  0  0  0
    1.9883   -1.4281    7.0323 C   0  0  1  0  0  0  0  0  0  0  0  0
    2.7640   -1.1070    5.8034 C   0  0  1  0  0  0  0  0  0  0  0  0
    1.9713   -1.6606    4.5464 C   0  0  1  0  0  0  0  0  0  0  0  0
    1.8372   -0.6767    3.3478 C   0  0  0  0  0  0  0  0  0  0  0  0
    0.9793   -0.8573    2.4974 O   0  0  0  0  0  0  0  0  0  0  0  0
    2.7137    0.5800    3.2963 C   0  0  1  0  0  0  0  0  0  0  0  0
    2.2038    1.4884    2.3243 O   0  0  0  0  0  0  0  0  0  0  0  0
    2.7081    1.2340    4.6752 C   0  0  2  0  0  0  0  0  0  0  0  0
    3.3627    2.6178    4.8261 C   0  0  1  0  0  0  0  0  0  0  0  0
    2.4850    3.6652    4.4941 O   0  0  0  0  0  0  0  0  0  0  0  0
    3.8191    2.6859    6.2969 C   0  0  0  0  0  0  0  0  0  0  0  0
    3.4382    1.3425    6.9920 C   0  0  1  0  0  0  0  0  0  0  0  0
    4.5058    0.9862    7.8478 O   0  0  0  0  0  0  0  0  0  0  0  0
    2.2151    1.6095    7.9861 C   0  0  0  0  0  0  0  0  0  0  0  0
    2.0254    0.6186    9.2049 C   0  0  0  0  0  0  0  0  0  0  0  0
    0.8440    1.8299    7.2820 C   0  0  0  0  0  0  0  0  0  0  0  0
    3.3988    0.3505    5.7300 C   0  0  1  0  0  0  0  0  0  0  0  0
    4.8840    0.0816    5.2682 C   0  0  0  0  0  0  0  0  0  0  0  0
    2.2988   -3.1790    4.2205 C   0  0  2  0  0  0  0  0  0  0  0  0
    3.7885   -3.3815    3.8456 C   0  0  0  0  0  0  0  0  0  0  0  0
    1.4708   -3.6457    2.9814 C   0  0  0  0  0  0  0  0  0  0  0  0
    1.5436   -5.0440    2.7394 O   0  0  0  0  0  0  0  0  0  0  0  0
    1.1700   -5.7845    3.8506 C   0  0  1  0  0  0  0  0  0  0  0  0
    1.3247   -7.2746    3.5213 C   0  0  0  0  0  0  0  0  0  0  0  0
    0.4028   -8.1912    4.0399 C   0  0  0  0  0  0  0  0  0  0  0  0
    0.5297   -9.5639    3.7415 C   0  0  0  0  0  0  0  0  0  0  0  0
    1.5830  -10.0050    2.9298 C   0  0  0  0  0  0  0  0  0  0  0  0
    2.5104   -9.0917    2.4155 C   0  0  0  0  0  0  0  0  0  0  0  0
    2.3889   -7.7189    2.7154 C   0  0  0  0  0  0  0  0  0  0  0  0
    2.0043   -5.5010    4.9161 O   0  0  0  0  0  0  0  0  0  0  0  0
    1.8471   -4.1728    5.3755 C   0  0  1  0  0  0  0  0  0  0  0  0
    2.5020   -4.0041    6.7804 C   0  0  2  0  0  0  0  0  0  0  0  0
    2.6532   -5.2249    7.7883 C   0  0  0  0  0  0  0  0  0  0  0  0
    3.5538   -4.7820    8.9855 C   0  0  0  0  0  0  0  0  0  0  0  0
    3.4204   -6.4140    7.1620 C   0  0  0  0  0  0  0  0  0  0  0  0
   -0.1555   -5.5455    6.6622 H   0  0  0  0  0  0  0  0  0  0  0  0
   -0.5844   -6.7026    7.8817 H   0  0  0  0  0  0  0  0  0  0  0  0
    0.6964   -7.0757    6.7595 H   0  0  0  0  0  0  0  0  0  0  0  0
    1.4566   -6.4512    9.0829 H   0  0  0  0  0  0  0  0  0  0  0  0
   -0.4125   -4.7977    9.4297 H   0  0  0  0  0  0  0  0  0  0  0  0
    1.1208   -4.3139   10.0607 H   0  0  0  0  0  0  0  0  0  0  0  0
   -0.2646   -3.3665    7.5277 H   0  0  0  0  0  0  0  0  0  0  0  0
    0.6217   -2.0235    9.8032 H   0  0  0  0  0  0  0  0  0  0  0  0
    1.0664   -0.8834    7.1817 H   0  0  0  0  0  0  0  0  0  0  0  0
    3.6382   -1.7403    5.8960 H   0  0  0  0  0  0  0  0  0  0  0  0
    0.9330   -1.6836    4.8734 H   0  0  0  0  0  0  0  0  0  0  0  0
    3.7091    0.2956    2.9699 H   0  0  0  0  0  0  0  0  0  0  0  0
    2.1544    1.0282    1.4910 H   0  0  0  0  0  0  0  0  0  0  0  0
    1.6584    1.3525    4.9378 H   0  0  0  0  0  0  0  0  0  0  0  0
    4.2223    2.6958    4.1537 H   0  0  0  0  0  0  0  0  0  0  0  0
    2.2728    3.5906    3.5692 H   0  0  0  0  0  0  0  0  0  0  0  0
    4.8992    2.8516    6.3103 H   0  0  0  0  0  0  0  0  0  0  0  0
    3.4152    3.5682    6.8091 H   0  0  0  0  0  0  0  0  0  0  0  0
    4.2820    0.1665    8.2705 H   0  0  0  0  0  0  0  0  0  0  0  0
    2.4364    2.5552    8.4342 H   0  0  0  0  0  0  0  0  0  0  0  0
    1.7726   -0.3651    8.9920 H   0  0  0  0  0  0  0  0  0  0  0  0
    1.1649    0.9837    9.8234 H   0  0  0  0  0  0  0  0  0  0  0  0
    2.9277    0.6539    9.8745 H   0  0  0  0  0  0  0  0  0  0  0  0
    0.4840    0.9202    6.7688 H   0  0  0  0  0  0  0  0  0  0  0  0
    0.8920    2.6511    6.5589 H   0  0  0  0  0  0  0  0  0  0  0  0
    0.0909    2.0985    8.0211 H   0  0  0  0  0  0  0  0  0  0  0  0
    5.4413    0.9746    5.0213 H   0  0  0  0  0  0  0  0  0  0  0  0
    4.9280   -0.5716    4.3976 H   0  0  0  0  0  0  0  0  0  0  0  0
    5.4564   -0.4377    6.0352 H   0  0  0  0  0  0  0  0  0  0  0  0
    3.9724   -4.3997    3.5176 H   0  0  0  0  0  0  0  0  0  0  0  0
    4.4752   -3.2047    4.6714 H   0  0  0  0  0  0  0  0  0  0  0  0
    4.0845   -2.7205    3.0294 H   0  0  0  0  0  0  0  0  0  0  0  0
    0.4237   -3.3624    3.1045 H   0  0  0  0  0  0  0  0  0  0  0  0
    1.8390   -3.1736    2.0661 H   0  0  0  0  0  0  0  0  0  0  0  0
    0.1358   -5.5629    4.1200 H   0  0  0  0  0  0  0  0  0  0  0  0
   -0.4158   -7.8655    4.6694 H   0  0  0  0  0  0  0  0  0  0  0  0
   -0.1842  -10.2696    4.1433 H   0  0  0  0  0  0  0  0  0  0  0  0
    1.6822  -11.0690    2.7038 H   0  0  0  0  0  0  0  0  0  0  0  0
    3.3233   -9.4378    1.7899 H   0  0  0  0  0  0  0  0  0  0  0  0
    3.1094   -7.0174    2.3172 H   0  0  0  0  0  0  0  0  0  0  0  0
    0.7794   -3.9935    5.5224 H   0  0  0  0  0  0  0  0  0  0  0  0
    3.5252   -3.7200    6.6276 H   0  0  0  0  0  0  0  0  0  0  0  0
    4.5642   -4.5186    8.6608 H   0  0  0  0  0  0  0  0  0  0  0  0
    3.6571   -5.5755    9.7278 H   0  0  0  0  0  0  0  0  0  0  0  0
    3.1923   -3.9237    9.5309 H   0  0  0  0  0  0  0  0  0  0  0  0
    4.2826   -6.0616    6.5902 H   0  0  0  0  0  0  0  0  0  0  0  0
    2.8242   -7.0209    6.4962 H   0  0  0  0  0  0  0  0  0  0  0  0
    3.7967   -7.0941    7.9305 H   0  0  0  0  0  0  0  0  0  0  0  0
  1  2  1  0
  1 43  1  0
  1 44  1  0
  1 45  1  0
  2 40  1  0
  2  3  1  0
  2 46  1  1
  3  4  1  0
  3 47  1  0
  3 48  1  0
  4  5  1  0
  4  6  1  0
  4 49  1  6
  5 50  1  0
  6  8  1  0
  6 39  1  0
  6  7  1  1
  7  8  1  0
  8  9  1  0
  8 51  1  1
  9 24  1  0
  9 10  1  0
  9 52  1  1
 10 11  1  0
 10 26  1  0
 10 53  1  1
 11 12  2  0
 11 13  1  0
 13 14  1  0
 13 15  1  0
 13 54  1  6
 14 55  1  0
 15 24  1  0
 15 16  1  0
 15 56  1  1
 16 17  1  0
 16 18  1  0
 16 57  1  6
 17 58  1  0
 18 19  1  0
 18 59  1  0
 18 60  1  0
 19 20  1  1
 19 21  1  0
 19 24  1  0
 20 61  1  0
 21 22  1  0
 21 23  1  0
 21 62  1  0
 22 63  1  0
 22 64  1  0
 22 65  1  0
 23 66  1  0
 23 67  1  0
 23 68  1  0
 24 25  1  6
 25 69  1  0
 25 70  1  0
 25 71  1  0
 26 38  1  0
 26 27  1  6
 26 28  1  0
 27 72  1  0
 27 73  1  0
 27 74  1  0
 28 29  1  0
 28 75  1  0
 28 76  1  0
 29 30  1  0
 30 31  1  0
 30 37  1  0
 30 77  1  1
 31 36  1  0
 31 32  2  0
 32 33  1  0
 32 78  1  0
 33 34  2  0
 33 79  1  0
 34 35  1  0
 34 80  1  0
 35 36  2  0
 35 81  1  0
 36 82  1  0
 37 38  1  0
 38 39  1  0
 38 83  1  1
 39 40  1  0
 39 84  1  6
 40 41  1  0
 40 42  1  0
 41 85  1  0
 41 86  1  0
 41 87  1  0
 42 88  1  0
 42 89  1  0
 42 90  1  0
M  END
>  <i_m_ct_stereo_status>  (49) 
1

>  <s_m_source_file>  (49) 
/var/tmp/pbs.5076255.sched01/tmphbojuwnv/0fr5z8inm.sdf

>  <i_m_source_file_index>  (49) 
28

>  <i_lp_mmshare_version>  (49) 
48012

>  <i_f3d_flags>  (49) 
0

>  <s_epik_input>  (49) 
W2NIXTFbY0hdW2NIXVtjSF1bY0hdYzFbQ0BIXShPW0NIMl0yKU9bQ0BASF0oW0NAQEhdM0MoW0NIM10pKFtDSDNdKVtDQEhdKFtDSDNdKVtDSDJdW0NASF00W09IXSlbQ0BdMihbQ0gzXSlbQ0BASF0oW0NAQEhdNVtDQEBIXShbQ0BdMzQ2KU82KUMoPU8pW0NAQEhdKFtPSF0pW0NASF03W0NAQF01KFtDSDNdKVtDQF0oW09IXSkoW0NIXShbQ0gzXSlbQ0gzXSlbQ0gyXVtDQEBIXTdbT0hd

>  <s_epik_cmdline>  (49) 
J2VwaWtfcHl0aG9uJywgJy1waHQnLCAnMi4wJywgJy1waCcsICc3LjAnLCAnLXRuJywgJzgnLCAnLW1hJywgJzIwMCcsICctaW1hZScsICc8aW5maWxlLm1hZT4nLCAnLW9tYWUnLCAnPG91dGZpbGUubWFlPic=

>  <r_lp_tautomer_probability>  (49) 
1

>  <r_epik_Ionization_Penalty>  (49) 
8.36186e-07

>  <r_epik_Ionization_Penalty_Charging>  (49) 
0

>  <r_epik_Ionization_Penalty_Neutral>  (49) 
8.36186e-07

>  <r_epik_State_Penalty>  (49) 
-0

>  <r_epik_Charging_Adjusted_Penalty>  (49) 
0

>  <i_epik_Tot_Q>  (49) 
0

>  <i_epik_Tot_abs_Q>  (49) 
0

>  <s_epik_Chemistry_Notes>  (49) 
This compound contains an acetal/aminal-like group ( X-CH(R)-Y where X, Y are N, S, or O) that may be acid/base labile, releasing an aldehyde.

>  <s_lp_Force_Field>  (49) 
OPLS3e

>  <r_lp_Energy>  (49) 
101.465

>  <b_lp_Chiralities_Consistent>  (49) 
1

>  <s_lp_Variant>  (49) 
17:0-1

>  <s_i_glide_gridfile>  (49) 
pfpi4k_grid

>  <i_i_glide_lignum>  (49) 
28

>  <i_i_glide_rotatable_bonds>  (49) 
6

>  <r_i_docking_score>  (49) 
-2.07392

>  <r_i_glide_ligand_efficiency>  (49) 
-0.049379

>  <r_i_glide_ligand_efficiency_sa>  (49) 
-0.171643

>  <r_i_glide_ligand_efficiency_ln>  (49) 
-0.437751

>  <r_i_glide_gscore>  (49) 
-2.07392

>  <r_i_glide_lipo>  (49) 
-0.125962

>  <r_i_glide_hbond>  (49) 
0

>  <r_i_glide_metal>  (49) 
-0

>  <r_i_glide_rewards>  (49) 
-0.5

>  <r_i_glide_evdw>  (49) 
-21.2271

>  <r_i_glide_ecoul>  (49) 
-2.8591

>  <r_i_glide_erotb>  (49) 
0.0611896

>  <r_i_glide_esite>  (49) 
-0.018928

>  <r_i_glide_emodel>  (49) 
-28.542

>  <r_i_glide_energy>  (49) 
-24.0862

>  <r_i_glide_einternal>  (49) 
4.32763

>  <r_i_glide_intrahb_reward>  (49) 
-0.5

>  <i_i_glide_confnum>  (49) 
1

>  <i_i_glide_posenum>  (49) 
2

>  <r_i_glide_eff_state_penalty>  (49) 
0

>  <ligand_id>  (49) 
17

>  <original_smiles>  (49) 
CC1CC(O)C23OC2C2C(C(=O)C(O)C4C(O)CC(O)(C(C)C)C42C)C2(C)COC(c4ccccc4)OC2C3C1(C)C

>  <smiles>  (49) 
[H]OC1([H])C(=O)C2([H])C([H])(C3([H])OC34C([H])(O[H])C([H])([H])C([H])(C([H])([H])[H])C(C([H])([H])[H])(C([H])([H])[H])C4([H])C3([H])OC([H])(c4c([H])c([H])c([H])c([H])c4[H])OC([H])([H])C32C([H])([H])[H])C2(C([H])([H])[H])C1([H])C([H])(O[H])C([H])([H])C2(O[H])C([H])(C([H])([H])[H])C([H])([H])[H]

$$$$
17:0:2
     RDKit          3D

 90 96  0  0  1  0  0  0  0  0999 V2000
   -1.1951   -5.0763    7.3032 C   0  0  0  0  0  0  0  0  0  0  0  0
   -0.4308   -5.0605    8.6354 C   0  0  2  0  0  0  0  0  0  0  0  0
   -0.6724   -3.7285    9.3504 C   0  0  0  0  0  0  0  0  0  0  0  0
    0.1472   -2.5847    8.7290 C   0  0  1  0  0  0  0  0  0  0  0  0
   -0.0776   -1.4535    9.5470 O   0  0  0  0  0  0  0  0  0  0  0  0
    1.6396   -2.8999    8.5251 C   0  0  2  0  0  0  0  0  0  0  0  0
    2.5504   -2.5275    9.5715 O   0  0  0  0  0  0  0  0  0  0  0  0
    2.5986   -1.7654    8.3485 C   0  0  1  0  0  0  0  0  0  0  0  0
    3.8271   -1.9087    7.4885 C   0  0  1  0  0  0  0  0  0  0  0  0
    3.3639   -1.9988    5.9799 C   0  0  1  0  0  0  0  0  0  0  0  0
    4.1317   -1.0909    4.9753 C   0  0  0  0  0  0  0  0  0  0  0  0
    3.6446   -0.8096    3.8819 O   0  0  0  0  0  0  0  0  0  0  0  0
    5.4642   -0.4670    5.3950 C   0  0  1  0  0  0  0  0  0  0  0  0
    5.8642    0.5430    4.4901 O   0  0  0  0  0  0  0  0  0  0  0  0
    5.3076    0.0996    6.8068 C   0  0  2  0  0  0  0  0  0  0  0  0
    6.4649    0.9408    7.3704 C   0  0  1  0  0  0  0  0  0  0  0  0
    6.3442    2.2953    6.9928 O   0  0  0  0  0  0  0  0  0  0  0  0
    6.3699    0.7863    8.9014 C   0  0  0  0  0  0  0  0  0  0  0  0
    5.1844   -0.1732    9.2071 C   0  0  1  0  0  0  0  0  0  0  0  0
    5.5556   -1.0535   10.2512 O   0  0  0  0  0  0  0  0  0  0  0  0
    3.9618    0.6320    9.8171 C   0  0  0  0  0  0  0  0  0  0  0  0
    3.2727    1.6510    8.8857 C   0  0  0  0  0  0  0  0  0  0  0  0
    4.2887    1.3681   11.1448 C   0  0  0  0  0  0  0  0  0  0  0  0
    5.0800   -1.0081    7.8517 C   0  0  1  0  0  0  0  0  0  0  0  0
    6.2979   -2.0067    7.7900 C   0  0  0  0  0  0  0  0  0  0  0  0
    3.0042   -3.4688    5.4819 C   0  0  2  0  0  0  0  0  0  0  0  0
    4.2421   -4.4046    5.5281 C   0  0  0  0  0  0  0  0  0  0  0  0
    2.5352   -3.4446    3.9918 C   0  0  0  0  0  0  0  0  0  0  0  0
    2.0168   -4.6909    3.5522 O   0  0  0  0  0  0  0  0  0  0  0  0
    0.9709   -5.1420    4.3346 C   0  0  1  0  0  0  0  0  0  0  0  0
    0.4919   -6.4907    3.7983 C   0  0  0  0  0  0  0  0  0  0  0  0
    1.2802   -7.2480    2.9006 C   0  0  0  0  0  0  0  0  0  0  0  0
    0.8177   -8.4837    2.4064 C   0  0  0  0  0  0  0  0  0  0  0  0
   -0.4250   -8.9921    2.8250 C   0  0  0  0  0  0  0  0  0  0  0  0
   -1.2143   -8.2514    3.7224 C   0  0  0  0  0  0  0  0  0  0  0  0
   -0.7694   -7.0023    4.1849 C   0  0  0  0  0  0  0  0  0  0  0  0
    1.4018   -5.3031    5.6422 O   0  0  0  0  0  0  0  0  0  0  0  0
    1.7747   -4.0757    6.2722 C   0  0  1  0  0  0  0  0  0  0  0  0
    1.9031   -4.2544    7.8366 C   0  0  2  0  0  0  0  0  0  0  0  0
    1.0941   -5.3963    8.5708 C   0  0  0  0  0  0  0  0  0  0  0  0
    1.6252   -5.5077   10.0324 C   0  0  0  0  0  0  0  0  0  0  0  0
    1.3544   -6.8190    8.0009 C   0  0  0  0  0  0  0  0  0  0  0  0
   -0.9458   -4.2513    6.6392 H   0  0  0  0  0  0  0  0  0  0  0  0
   -2.2731   -5.0346    7.4610 H   0  0  0  0  0  0  0  0  0  0  0  0
   -0.9851   -6.0011    6.7887 H   0  0  0  0  0  0  0  0  0  0  0  0
   -0.9015   -5.8351    9.2344 H   0  0  0  0  0  0  0  0  0  0  0  0
   -1.7327   -3.4830    9.2980 H   0  0  0  0  0  0  0  0  0  0  0  0
   -0.4668   -3.8280   10.4191 H   0  0  0  0  0  0  0  0  0  0  0  0
   -0.2526   -2.3380    7.7410 H   0  0  0  0  0  0  0  0  0  0  0  0
    0.6286   -0.8336    9.4181 H   0  0  0  0  0  0  0  0  0  0  0  0
    2.1319   -0.7890    8.3393 H   0  0  0  0  0  0  0  0  0  0  0  0
    4.1764   -2.9035    7.7457 H   0  0  0  0  0  0  0  0  0  0  0  0
    2.3948   -1.5025    5.9619 H   0  0  0  0  0  0  0  0  0  0  0  0
    6.2131   -1.2550    5.3549 H   0  0  0  0  0  0  0  0  0  0  0  0
    5.9821    0.1375    3.6462 H   0  0  0  0  0  0  0  0  0  0  0  0
    4.4330    0.7426    6.7727 H   0  0  0  0  0  0  0  0  0  0  0  0
    7.4258    0.5638    7.0132 H   0  0  0  0  0  0  0  0  0  0  0  0
    6.3848    2.3206    6.0469 H   0  0  0  0  0  0  0  0  0  0  0  0
    7.3029    0.3566    9.2641 H   0  0  0  0  0  0  0  0  0  0  0  0
    6.2942    1.7545    9.3901 H   0  0  0  0  0  0  0  0  0  0  0  0
    4.8274   -1.6401   10.4093 H   0  0  0  0  0  0  0  0  0  0  0  0
    3.2028   -0.0832   10.1280 H   0  0  0  0  0  0  0  0  0  0  0  0
    3.9784    2.3880    8.5070 H   0  0  0  0  0  0  0  0  0  0  0  0
    2.4924    2.1963    9.4181 H   0  0  0  0  0  0  0  0  0  0  0  0
    2.7823    1.1916    8.0337 H   0  0  0  0  0  0  0  0  0  0  0  0
    4.9636    2.2125   11.0102 H   0  0  0  0  0  0  0  0  0  0  0  0
    4.7251    0.7097   11.8955 H   0  0  0  0  0  0  0  0  0  0  0  0
    3.3802    1.7790   11.5880 H   0  0  0  0  0  0  0  0  0  0  0  0
    7.2705   -1.5266    7.8797 H   0  0  0  0  0  0  0  0  0  0  0  0
    6.3167   -2.5933    6.8728 H   0  0  0  0  0  0  0  0  0  0  0  0
    6.2509   -2.7494    8.5854 H   0  0  0  0  0  0  0  0  0  0  0  0
    4.0105   -5.3758    5.0877 H   0  0  0  0  0  0  0  0  0  0  0  0
    4.6010   -4.6073    6.5340 H   0  0  0  0  0  0  0  0  0  0  0  0
    5.0772   -3.9917    4.9588 H   0  0  0  0  0  0  0  0  0  0  0  0
    1.7794   -2.6740    3.8268 H   0  0  0  0  0  0  0  0  0  0  0  0
    3.3680   -3.2272    3.3195 H   0  0  0  0  0  0  0  0  0  0  0  0
    0.1571   -4.4178    4.3097 H   0  0  0  0  0  0  0  0  0  0  0  0
    2.2376   -6.8845    2.5576 H   0  0  0  0  0  0  0  0  0  0  0  0
    1.4085   -9.0423    1.6937 H   0  0  0  0  0  0  0  0  0  0  0  0
   -0.7829   -9.9403    2.4484 H   0  0  0  0  0  0  0  0  0  0  0  0
   -2.1613   -8.6440    4.0532 H   0  0  0  0  0  0  0  0  0  0  0  0
   -1.4152   -6.4358    4.8379 H   0  0  0  0  0  0  0  0  0  0  0  0
    0.9514   -3.3800    6.1154 H   0  0  0  0  0  0  0  0  0  0  0  0
    2.9380   -4.5359    8.0354 H   0  0  0  0  0  0  0  0  0  0  0  0
    2.6723   -5.8133   10.0537 H   0  0  0  0  0  0  0  0  0  0  0  0
    1.0591   -6.2446   10.6043 H   0  0  0  0  0  0  0  0  0  0  0  0
    1.5657   -4.5748   10.5914 H   0  0  0  0  0  0  0  0  0  0  0  0
    2.4128   -6.9663    7.7858 H   0  0  0  0  0  0  0  0  0  0  0  0
    0.8153   -7.0509    7.0878 H   0  0  0  0  0  0  0  0  0  0  0  0
    1.0604   -7.5901    8.7125 H   0  0  0  0  0  0  0  0  0  0  0  0
  1  2  1  0
  1 43  1  0
  1 44  1  0
  1 45  1  0
  2 40  1  0
  2  3  1  0
  2 46  1  1
  3  4  1  0
  3 47  1  0
  3 48  1  0
  4  5  1  0
  4  6  1  0
  4 49  1  6
  5 50  1  0
  6  8  1  0
  6 39  1  0
  6  7  1  1
  7  8  1  0
  8  9  1  0
  8 51  1  1
  9 24  1  0
  9 10  1  0
  9 52  1  1
 10 11  1  0
 10 26  1  0
 10 53  1  1
 11 12  2  0
 11 13  1  0
 13 14  1  0
 13 15  1  0
 13 54  1  1
 14 55  1  0
 15 24  1  0
 15 16  1  0
 15 56  1  6
 16 17  1  0
 16 18  1  0
 16 57  1  6
 17 58  1  0
 18 19  1  0
 18 59  1  0
 18 60  1  0
 19 20  1  1
 19 21  1  0
 19 24  1  0
 20 61  1  0
 21 22  1  0
 21 23  1  0
 21 62  1  0
 22 63  1  0
 22 64  1  0
 22 65  1  0
 23 66  1  0
 23 67  1  0
 23 68  1  0
 24 25  1  1
 25 69  1  0
 25 70  1  0
 25 71  1  0
 26 38  1  0
 26 27  1  6
 26 28  1  0
 27 72  1  0
 27 73  1  0
 27 74  1  0
 28 29  1  0
 28 75  1  0
 28 76  1  0
 29 30  1  0
 30 31  1  0
 30 37  1  0
 30 77  1  1
 31 36  1  0
 31 32  2  0
 32 33  1  0
 32 78  1  0
 33 34  2  0
 33 79  1  0
 34 35  1  0
 34 80  1  0
 35 36  2  0
 35 81  1  0
 36 82  1  0
 37 38  1  0
 38 39  1  0
 38 83  1  1
 39 40  1  0
 39 84  1  6
 40 41  1  0
 40 42  1  0
 41 85  1  0
 41 86  1  0
 41 87  1  0
 42 88  1  0
 42 89  1  0
 42 90  1  0
M  END
>  <i_m_ct_stereo_status>  (50) 
1

>  <s_m_source_file>  (50) 
/var/tmp/pbs.5076255.sched01/tmphbojuwnv/0fr5z8inm.sdf

>  <i_m_source_file_index>  (50) 
28

>  <i_lp_mmshare_version>  (50) 
48012

>  <i_f3d_flags>  (50) 
0

>  <s_epik_input>  (50) 
W2NIXTFbY0hdW2NIXVtjSF1bY0hdYzFbQ0BIXShPW0NIMl0yKU9bQ0BASF0oW0NAQEhdM0MoW0NIM10pKFtDSDNdKVtDQEhdKFtDSDNdKVtDSDJdW0NASF00W09IXSlbQ0BdMihbQ0gzXSlbQ0BASF0oW0NAQEhdNVtDQEBIXShbQ0BdMzQ2KU82KUMoPU8pW0NAQEhdKFtPSF0pW0NASF03W0NAQF01KFtDSDNdKVtDQF0oW09IXSkoW0NIXShbQ0gzXSlbQ0gzXSlbQ0gyXVtDQEBIXTdbT0hd

>  <s_epik_cmdline>  (50) 
J2VwaWtfcHl0aG9uJywgJy1waHQnLCAnMi4wJywgJy1waCcsICc3LjAnLCAnLXRuJywgJzgnLCAnLW1hJywgJzIwMCcsICctaW1hZScsICc8aW5maWxlLm1hZT4nLCAnLW9tYWUnLCAnPG91dGZpbGUubWFlPic=

>  <r_lp_tautomer_probability>  (50) 
1

>  <r_epik_Ionization_Penalty>  (50) 
8.36186e-07

>  <r_epik_Ionization_Penalty_Charging>  (50) 
0

>  <r_epik_Ionization_Penalty_Neutral>  (50) 
8.36186e-07

>  <r_epik_State_Penalty>  (50) 
-0

>  <r_epik_Charging_Adjusted_Penalty>  (50) 
0

>  <i_epik_Tot_Q>  (50) 
0

>  <i_epik_Tot_abs_Q>  (50) 
0

>  <s_epik_Chemistry_Notes>  (50) 
This compound contains an acetal/aminal-like group ( X-CH(R)-Y where X, Y are N, S, or O) that may be acid/base labile, releasing an aldehyde.

>  <s_lp_Force_Field>  (50) 
OPLS3e

>  <r_lp_Energy>  (50) 
101.465

>  <b_lp_Chiralities_Consistent>  (50) 
1

>  <s_lp_Variant>  (50) 
17:0-1

>  <s_i_glide_gridfile>  (50) 
pfpi4k_grid

>  <i_i_glide_lignum>  (50) 
28

>  <i_i_glide_rotatable_bonds>  (50) 
6

>  <r_i_docking_score>  (50) 
-1.92633

>  <r_i_glide_ligand_efficiency>  (50) 
-0.0458649

>  <r_i_glide_ligand_efficiency_sa>  (50) 
-0.159428

>  <r_i_glide_ligand_efficiency_ln>  (50) 
-0.406598

>  <r_i_glide_gscore>  (50) 
-1.92633

>  <r_i_glide_lipo>  (50) 
-0.130855

>  <r_i_glide_hbond>  (50) 
0

>  <r_i_glide_metal>  (50) 
-0

>  <r_i_glide_rewards>  (50) 
-0.501046

>  <r_i_glide_evdw>  (50) 
-21.3042

>  <r_i_glide_ecoul>  (50) 
-1.89102

>  <r_i_glide_erotb>  (50) 
0.0611896

>  <r_i_glide_esite>  (50) 
-0.00674956

>  <r_i_glide_emodel>  (50) 
-29.5279

>  <r_i_glide_energy>  (50) 
-23.1953

>  <r_i_glide_einternal>  (50) 
3.06723

>  <r_i_glide_intrahb_reward>  (50) 
-0.5

>  <i_i_glide_confnum>  (50) 
6

>  <i_i_glide_posenum>  (50) 
32

>  <r_i_glide_eff_state_penalty>  (50) 
0

>  <ligand_id>  (50) 
17

>  <original_smiles>  (50) 
CC1CC(O)C23OC2C2C(C(=O)C(O)C4C(O)CC(O)(C(C)C)C42C)C2(C)COC(c4ccccc4)OC2C3C1(C)C

>  <smiles>  (50) 
[H]OC1([H])C(=O)C2([H])C([H])(C3([H])OC34C([H])(O[H])C([H])([H])C([H])(C([H])([H])[H])C(C([H])([H])[H])(C([H])([H])[H])C4([H])C3([H])OC([H])(c4c([H])c([H])c([H])c([H])c4[H])OC([H])([H])C32C([H])([H])[H])C2(C([H])([H])[H])C1([H])C([H])(O[H])C([H])([H])C2(O[H])C([H])(C([H])([H])[H])C([H])([H])[H]

$$$$
20:0:0
     RDKit          3D

 52 57  0  0  1  0  0  0  0  0999 V2000
    8.4995   -5.8945    1.3676 C   0  0  0  0  0  0  0  0  0  0  0  0
    7.5270   -5.3609    0.4760 O   0  0  0  0  0  0  0  0  0  0  0  0
    6.7117   -4.3139    1.0003 C   0  0  2  0  0  0  0  0  0  0  0  0
    5.6446   -4.9084    1.9673 C   0  0  2  0  0  0  0  0  0  0  0  0
    4.6026   -6.0053    1.4066 C   0  0  0  0  0  0  0  0  0  0  0  0
    3.8738   -5.6403    0.1289 N   0  0  1  0  0  0  0  0  0  0  0  0
    2.3305   -5.0734    0.1321 C   0  0  1  0  0  0  0  0  0  0  0  0
    1.7082   -5.5348    1.2371 O   0  0  0  0  0  0  0  0  0  0  0  0
    2.4481   -3.2758   -0.0795 C   0  0  2  0  0  0  0  0  0  0  0  0
    3.2748   -2.8725   -1.3005 C   0  0  2  0  0  0  0  0  0  0  0  0
    2.6273   -3.1533   -2.6938 C   0  0  0  0  0  0  0  0  0  0  0  0
    4.0623   -3.8714   -0.5570 C   0  0  2  0  0  0  0  0  0  0  0  0
    4.9571   -4.8227   -0.6628 C   0  0  1  0  0  0  0  0  0  0  0  0
    5.9463   -3.5316   -0.1203 C   0  0  1  0  0  0  0  0  0  0  0  0
    5.0398   -1.9514    0.1533 C   0  0  1  0  0  0  0  0  0  0  0  0
    5.7599   -0.8706    0.7136 O   0  0  0  0  0  0  0  0  0  0  0  0
    4.1880   -1.5500   -1.1161 C   0  0  1  0  0  0  0  0  0  0  0  0
    4.9903   -1.2720   -2.2500 O   0  0  0  0  0  0  0  0  0  0  0  0
    3.5212   -2.2736    0.7691 C   0  0  1  0  0  0  0  0  0  0  0  0
    2.8866   -1.3073    1.7746 C   0  0  0  0  0  0  0  0  0  0  0  0
    2.2305   -0.2184    1.1708 O   0  0  0  0  0  0  0  0  0  0  0  0
    3.9295   -3.4394    1.2211 C   0  0  2  0  0  0  0  0  0  0  0  0
    4.9525   -3.6273    2.3869 C   0  0  1  0  0  0  0  0  0  0  0  0
    4.3766   -3.8284    3.6817 O   0  0  0  0  0  0  0  0  0  0  0  0
    4.0777   -2.6672    4.4554 C   0  0  0  0  0  0  0  0  0  0  0  0
    9.0043   -6.7332    0.8935 H   0  0  0  0  0  0  0  0  0  0  0  0
    8.0687   -6.2737    2.2908 H   0  0  0  0  0  0  0  0  0  0  0  0
    9.2604   -5.1608    1.6256 H   0  0  0  0  0  0  0  0  0  0  0  0
    7.3933   -3.6295    1.5119 H   0  0  0  0  0  0  0  0  0  0  0  0
    6.1548   -5.3322    2.8324 H   0  0  0  0  0  0  0  0  0  0  0  0
    5.1533   -6.9083    1.1689 H   0  0  0  0  0  0  0  0  0  0  0  0
    3.8931   -6.2929    2.1761 H   0  0  0  0  0  0  0  0  0  0  0  0
    1.8842   -5.3796   -0.8253 H   0  0  0  0  0  0  0  0  0  0  0  0
    1.4766   -2.8082   -0.1393 H   0  0  0  0  0  0  0  0  0  0  0  0
    3.3492   -3.0102   -3.5046 H   0  0  0  0  0  0  0  0  0  0  0  0
    1.7860   -2.4830   -2.8756 H   0  0  0  0  0  0  0  0  0  0  0  0
    2.2322   -4.1642   -2.7866 H   0  0  0  0  0  0  0  0  0  0  0  0
    4.5307   -3.5916   -1.5605 H   0  0  0  0  0  0  0  0  0  0  0  0
    5.1812   -5.2882   -1.6299 H   0  0  0  0  0  0  0  0  0  0  0  0
    6.7017   -3.3052   -0.8721 H   0  0  0  0  0  0  0  0  0  0  0  0
    6.0331   -1.1119    1.5853 H   0  0  0  0  0  0  0  0  0  0  0  0
    3.5464   -0.6778   -0.9529 H   0  0  0  0  0  0  0  0  0  0  0  0
    4.3987   -0.9679   -2.9238 H   0  0  0  0  0  0  0  0  0  0  0  0
    2.1259   -1.8291    2.3532 H   0  0  0  0  0  0  0  0  0  0  0  0
    3.6468   -0.8728    2.4086 H   0  0  0  0  0  0  0  0  0  0  0  0
    1.5948   -0.5356    0.5725 H   0  0  0  0  0  0  0  0  0  0  0  0
    3.1330   -3.8068    1.8753 H   0  0  0  0  0  0  0  0  0  0  0  0
    5.6682   -2.8131    2.4980 H   0  0  0  0  0  0  0  0  0  0  0  0
    3.6576   -2.9322    5.4207 H   0  0  0  0  0  0  0  0  0  0  0  0
    3.2711   -2.0841    4.0583 H   0  0  0  0  0  0  0  0  0  0  0  0
    4.9308   -2.0054    4.5936 H   0  0  0  0  0  0  0  0  0  0  0  0
    3.7550   -6.5088   -0.3656 H   0  0  0  0  0  0  0  0  0  0  0  0
  1  2  1  0
  1 26  1  0
  1 27  1  0
  1 28  1  0
  2  3  1  0
  3 14  1  0
  3  4  1  0
  3 29  1  1
  4 23  1  0
  4  5  1  0
  4 30  1  1
  5  6  1  0
  5 31  1  0
  5 32  1  0
  6 13  1  0
  6  7  1  0
  6 52  1  6
  7  8  1  0
  7  9  1  0
  7 33  1  6
  9 19  1  0
  9 10  1  0
  9 34  1  6
 10 17  1  0
 10 11  1  6
 10 12  1  0
 11 35  1  0
 11 36  1  0
 11 37  1  0
 12 22  1  0
 12 13  1  0
 12 38  1  1
 13 14  1  0
 13 39  1  6
 14 15  1  0
 14 40  1  6
 15 16  1  1
 15 17  1  0
 15 19  1  0
 16 41  1  0
 17 18  1  0
 17 42  1  1
 18 43  1  0
 19 20  1  1
 19 22  1  0
 20 21  1  0
 20 44  1  0
 20 45  1  0
 21 46  1  0
 22 23  1  0
 22 47  1  1
 23 24  1  0
 23 48  1  1
 24 25  1  0
 25 49  1  0
 25 50  1  0
 25 51  1  0
M  CHG  2   6   1   8  -1
M  END
>  <i_m_ct_stereo_status>  (51) 
1

>  <s_m_source_file>  (51) 
/var/tmp/pbs.5076255.sched01/tmphbojuwnv/0fr5z8inm.sdf

>  <i_m_source_file_index>  (51) 
31

>  <i_lp_mmshare_version>  (51) 
48012

>  <i_f3d_flags>  (51) 
0

>  <s_epik_input>  (51) 
W0NIM11PW0NAQEhdMVtDQEBIXShbQ0BASF0oW0NAQEhdMltDQEhdMzQpT1tDSDNdKVtDSDJdTihbQ0BIXTVbT0hdKVtDQEBIXTRbQ0BIXTFbQ0BAXShbT0hdKShbQ0BIXTZbT0hdKVtDQEBdMihbQ0gyXVtPSF0pW0NASF01W0NAXTM2W0NIM10=

>  <s_epik_cmdline>  (51) 
J2VwaWtfcHl0aG9uJywgJy1waHQnLCAnMi4wJywgJy1waCcsICc3LjAnLCAnLXRuJywgJzgnLCAnLW1hJywgJzIwMCcsICctaW1hZScsICc8aW5maWxlLm1hZT4nLCAnLW9tYWUnLCAnPG91dGZpbGUubWFlPic=

>  <r_epik_Ionization_Penalty>  (51) 
0.0859081

>  <r_epik_Ionization_Penalty_Charging>  (51) 
0.0859076

>  <r_epik_Ionization_Penalty_Neutral>  (51) 
5.36606e-07

>  <r_epik_State_Penalty>  (51) 
0.166676

>  <r_epik_Charging_Adjusted_Penalty>  (51) 
0.252584

>  <i_epik_Tot_Q>  (51) 
0

>  <i_epik_Tot_abs_Q>  (51) 
2

>  <s_epik_Chemistry_Notes>  (51) 
This compound contains an acetal/aminal-like group ( X-CH(R)-Y where X, Y are N, S, or O) that may be acid/base labile, releasing an aldehyde.

>  <s_lp_Force_Field>  (51) 
OPLS3e

>  <r_lp_Energy>  (51) 
675.506

>  <b_lp_Chiralities_Consistent>  (51) 
1

>  <s_lp_Variant>  (51) 
20:0-1

>  <s_i_glide_gridfile>  (51) 
pfpi4k_grid

>  <i_i_glide_lignum>  (51) 
31

>  <i_i_glide_rotatable_bonds>  (51) 
6

>  <r_i_docking_score>  (51) 
-3.62362

>  <r_i_glide_ligand_efficiency>  (51) 
-0.144945

>  <r_i_glide_ligand_efficiency_sa>  (51) 
-0.423821

>  <r_i_glide_ligand_efficiency_ln>  (51) 
-0.858906

>  <r_i_glide_gscore>  (51) 
-3.62362

>  <r_i_glide_lipo>  (51) 
-0.373476

>  <r_i_glide_hbond>  (51) 
-0.291326

>  <r_i_glide_metal>  (51) 
-0

>  <r_i_glide_rewards>  (51) 
-0.999477

>  <r_i_glide_evdw>  (51) 
-13.7939

>  <r_i_glide_ecoul>  (51) 
-9.01185

>  <r_i_glide_erotb>  (51) 
0.152896

>  <r_i_glide_esite>  (51) 
-0.0707619

>  <r_i_glide_emodel>  (51) 
-29.6158

>  <r_i_glide_energy>  (51) 
-22.8058

>  <r_i_glide_einternal>  (51) 
1.45486

>  <r_i_glide_intrahb_reward>  (51) 
-0

>  <i_i_glide_confnum>  (51) 
3

>  <i_i_glide_posenum>  (51) 
21

>  <r_i_glide_eff_state_penalty>  (51) 
0

>  <ligand_id>  (51) 
20

>  <original_smiles>  (51) 
COC1C2CN3C(O)C4C5(C)C6C3C1C(O)(C5O)C4(CO)C6C2OC

>  <smiles>  (51) 
[H]OC([H])([H])C12C3([H])C([H])(OC([H])([H])[H])C4([H])C([H])(OC([H])([H])[H])C5([H])C1(O[H])C([H])(O[H])C1(C([H])([H])[H])C2([H])C([H])([O-])[N+]([H])(C4([H])[H])C5([H])C31[H]

$$$$
20:0:1
     RDKit          3D

 52 57  0  0  1  0  0  0  0  0999 V2000
    8.4867   -5.7594    0.8116 C   0  0  0  0  0  0  0  0  0  0  0  0
    7.1355   -6.1110    1.0882 O   0  0  0  0  0  0  0  0  0  0  0  0
    6.3295   -5.0788    1.6686 C   0  0  2  0  0  0  0  0  0  0  0  0
    5.0935   -5.7930    2.3073 C   0  0  2  0  0  0  0  0  0  0  0  0
    4.1256   -6.6795    1.3380 C   0  0  0  0  0  0  0  0  0  0  0  0
    3.6197   -5.9802    0.0984 N   0  0  1  0  0  0  0  0  0  0  0  0
    2.0957   -5.2837   -0.0181 C   0  0  1  0  0  0  0  0  0  0  0  0
    1.2510   -5.8589    0.8655 O   0  0  0  0  0  0  0  0  0  0  0  0
    2.3754   -3.4918    0.1577 C   0  0  2  0  0  0  0  0  0  0  0  0
    3.4377   -2.9583   -0.8022 C   0  0  2  0  0  0  0  0  0  0  0  0
    3.0348   -2.9042   -2.3148 C   0  0  0  0  0  0  0  0  0  0  0  0
    4.0406   -4.1354   -0.1629 C   0  0  2  0  0  0  0  0  0  0  0  0
    4.8835   -5.1283   -0.3148 C   0  0  1  0  0  0  0  0  0  0  0  0
    5.8167   -4.0157    0.6249 C   0  0  1  0  0  0  0  0  0  0  0  0
    4.9526   -2.4698    1.0751 C   0  0  1  0  0  0  0  0  0  0  0  0
    5.6509   -1.6093    1.9836 O   0  0  0  0  0  0  0  0  0  0  0  0
    4.3745   -1.7620   -0.2164 C   0  0  1  0  0  0  0  0  0  0  0  0
    5.3782   -1.3561   -1.1372 O   0  0  0  0  0  0  0  0  0  0  0  0
    3.3325   -2.7853    1.3710 C   0  0  1  0  0  0  0  0  0  0  0  0
    2.5787   -2.0104    2.4852 C   0  0  0  0  0  0  0  0  0  0  0  0
    2.1442   -0.7575    2.0026 O   0  0  0  0  0  0  0  0  0  0  0  0
    3.6031   -4.0526    1.6158 C   0  0  2  0  0  0  0  0  0  0  0  0
    4.3707   -4.5835    2.8614 C   0  0  1  0  0  0  0  0  0  0  0  0
    3.5641   -4.8578    4.0260 O   0  0  0  0  0  0  0  0  0  0  0  0
    2.8283   -6.0728    4.0359 C   0  0  0  0  0  0  0  0  0  0  0  0
    9.0079   -6.6445    0.4475 H   0  0  0  0  0  0  0  0  0  0  0  0
    9.0166   -5.4045    1.6977 H   0  0  0  0  0  0  0  0  0  0  0  0
    8.5532   -4.9985    0.0352 H   0  0  0  0  0  0  0  0  0  0  0  0
    6.9352   -4.6050    2.4475 H   0  0  0  0  0  0  0  0  0  0  0  0
    5.4766   -6.4070    3.1278 H   0  0  0  0  0  0  0  0  0  0  0  0
    4.7195   -7.5499    1.0047 H   0  0  0  0  0  0  0  0  0  0  0  0
    3.2727   -7.0987    1.8649 H   0  0  0  0  0  0  0  0  0  0  0  0
    1.8082   -5.3631   -1.1273 H   0  0  0  0  0  0  0  0  0  0  0  0
    1.4718   -2.9141    0.0050 H   0  0  0  0  0  0  0  0  0  0  0  0
    3.8964   -2.6896   -2.9556 H   0  0  0  0  0  0  0  0  0  0  0  0
    2.2667   -2.1473   -2.5068 H   0  0  0  0  0  0  0  0  0  0  0  0
    2.6250   -3.8538   -2.6648 H   0  0  0  0  0  0  0  0  0  0  0  0
    4.6812   -3.7117   -1.0307 H   0  0  0  0  0  0  0  0  0  0  0  0
    5.2705   -5.4180   -1.3123 H   0  0  0  0  0  0  0  0  0  0  0  0
    6.7065   -3.7132    0.0582 H   0  0  0  0  0  0  0  0  0  0  0  0
    5.0190   -0.9572    2.2361 H   0  0  0  0  0  0  0  0  0  0  0  0
    3.7584   -0.8835   -0.0037 H   0  0  0  0  0  0  0  0  0  0  0  0
    4.9462   -0.7895   -1.7614 H   0  0  0  0  0  0  0  0  0  0  0  0
    1.7113   -2.5758    2.8224 H   0  0  0  0  0  0  0  0  0  0  0  0
    3.2185   -1.8643    3.3512 H   0  0  0  0  0  0  0  0  0  0  0  0
    1.6302   -0.8792    1.2087 H   0  0  0  0  0  0  0  0  0  0  0  0
    2.6772   -4.4201    2.0624 H   0  0  0  0  0  0  0  0  0  0  0  0
    5.0673   -3.8332    3.2382 H   0  0  0  0  0  0  0  0  0  0  0  0
    2.2509   -6.1715    4.9445 H   0  0  0  0  0  0  0  0  0  0  0  0
    3.4879   -6.9370    3.9769 H   0  0  0  0  0  0  0  0  0  0  0  0
    2.1352   -6.1280    3.2022 H   0  0  0  0  0  0  0  0  0  0  0  0
    3.5605   -6.7236   -0.5843 H   0  0  0  0  0  0  0  0  0  0  0  0
  1  2  1  0
  1 26  1  0
  1 27  1  0
  1 28  1  0
  2  3  1  0
  3 14  1  0
  3  4  1  0
  3 29  1  1
  4 23  1  0
  4  5  1  0
  4 30  1  1
  5  6  1  0
  5 31  1  0
  5 32  1  0
  6 13  1  0
  6  7  1  0
  6 52  1  6
  7  8  1  0
  7  9  1  0
  7 33  1  6
  9 19  1  0
  9 10  1  0
  9 34  1  6
 10 17  1  0
 10 11  1  6
 10 12  1  0
 11 35  1  0
 11 36  1  0
 11 37  1  0
 12 22  1  0
 12 13  1  0
 12 38  1  6
 13 14  1  0
 13 39  1  6
 14 15  1  0
 14 40  1  6
 15 16  1  1
 15 17  1  0
 15 19  1  0
 16 41  1  0
 17 18  1  0
 17 42  1  1
 18 43  1  0
 19 20  1  1
 19 22  1  0
 20 21  1  0
 20 44  1  0
 20 45  1  0
 21 46  1  0
 22 23  1  0
 22 47  1  6
 23 24  1  0
 23 48  1  1
 24 25  1  0
 25 49  1  0
 25 50  1  0
 25 51  1  0
M  CHG  2   6   1   8  -1
M  END
>  <i_m_ct_stereo_status>  (52) 
1

>  <s_m_source_file>  (52) 
/var/tmp/pbs.5076255.sched01/tmphbojuwnv/0fr5z8inm.sdf

>  <i_m_source_file_index>  (52) 
31

>  <i_lp_mmshare_version>  (52) 
48012

>  <i_f3d_flags>  (52) 
0

>  <s_epik_input>  (52) 
W0NIM11PW0NAQEhdMVtDQEBIXShbQ0BASF0oW0NAQEhdMltDQEhdMzQpT1tDSDNdKVtDSDJdTihbQ0BIXTVbT0hdKVtDQEBIXTRbQ0BIXTFbQ0BAXShbT0hdKShbQ0BIXTZbT0hdKVtDQEBdMihbQ0gyXVtPSF0pW0NASF01W0NAXTM2W0NIM10=

>  <s_epik_cmdline>  (52) 
J2VwaWtfcHl0aG9uJywgJy1waHQnLCAnMi4wJywgJy1waCcsICc3LjAnLCAnLXRuJywgJzgnLCAnLW1hJywgJzIwMCcsICctaW1hZScsICc8aW5maWxlLm1hZT4nLCAnLW9tYWUnLCAnPG91dGZpbGUubWFlPic=

>  <r_epik_Ionization_Penalty>  (52) 
0.0859081

>  <r_epik_Ionization_Penalty_Charging>  (52) 
0.0859076

>  <r_epik_Ionization_Penalty_Neutral>  (52) 
5.36606e-07

>  <r_epik_State_Penalty>  (52) 
0.166676

>  <r_epik_Charging_Adjusted_Penalty>  (52) 
0.252584

>  <i_epik_Tot_Q>  (52) 
0

>  <i_epik_Tot_abs_Q>  (52) 
2

>  <s_epik_Chemistry_Notes>  (52) 
This compound contains an acetal/aminal-like group ( X-CH(R)-Y where X, Y are N, S, or O) that may be acid/base labile, releasing an aldehyde.

>  <s_lp_Force_Field>  (52) 
OPLS3e

>  <r_lp_Energy>  (52) 
675.506

>  <b_lp_Chiralities_Consistent>  (52) 
1

>  <s_lp_Variant>  (52) 
20:0-1

>  <s_i_glide_gridfile>  (52) 
pfpi4k_grid

>  <i_i_glide_lignum>  (52) 
31

>  <i_i_glide_rotatable_bonds>  (52) 
6

>  <r_i_docking_score>  (52) 
-3.59854

>  <r_i_glide_ligand_efficiency>  (52) 
-0.143942

>  <r_i_glide_ligand_efficiency_sa>  (52) 
-0.420888

>  <r_i_glide_ligand_efficiency_ln>  (52) 
-0.852962

>  <r_i_glide_gscore>  (52) 
-3.59854

>  <r_i_glide_lipo>  (52) 
-0.263734

>  <r_i_glide_hbond>  (52) 
-0.298338

>  <r_i_glide_metal>  (52) 
-0

>  <r_i_glide_rewards>  (52) 
-0.999477

>  <r_i_glide_evdw>  (52) 
-14.4094

>  <r_i_glide_ecoul>  (52) 
-9.19519

>  <r_i_glide_erotb>  (52) 
0.152896

>  <r_i_glide_esite>  (52) 
-0.0901415

>  <r_i_glide_emodel>  (52) 
-26.8164

>  <r_i_glide_energy>  (52) 
-23.6046

>  <r_i_glide_einternal>  (52) 
9.04332

>  <r_i_glide_intrahb_reward>  (52) 
-0

>  <i_i_glide_confnum>  (52) 
4

>  <i_i_glide_posenum>  (52) 
28

>  <r_i_glide_eff_state_penalty>  (52) 
0

>  <ligand_id>  (52) 
20

>  <original_smiles>  (52) 
COC1C2CN3C(O)C4C5(C)C6C3C1C(O)(C5O)C4(CO)C6C2OC

>  <smiles>  (52) 
[H]OC([H])([H])C12C3([H])C([H])(OC([H])([H])[H])C4([H])C([H])(OC([H])([H])[H])C5([H])C1(O[H])C([H])(O[H])C1(C([H])([H])[H])C2([H])C([H])([O-])[N+]([H])(C4([H])[H])C5([H])C31[H]

$$$$
20:0:2
     RDKit          3D

 52 57  0  0  1  0  0  0  0  0999 V2000
    8.7653   -5.2326    0.0884 C   0  0  0  0  0  0  0  0  0  0  0  0
    7.4291   -5.5398    0.4737 O   0  0  0  0  0  0  0  0  0  0  0  0
    6.6669   -4.4416    0.9833 C   0  0  2  0  0  0  0  0  0  0  0  0
    5.6042   -5.0475    1.9475 C   0  0  2  0  0  0  0  0  0  0  0  0
    4.5145   -6.0973    1.3839 C   0  0  0  0  0  0  0  0  0  0  0  0
    3.8013   -5.6981    0.1140 N   0  0  1  0  0  0  0  0  0  0  0  0
    2.2629   -5.0973    0.1298 C   0  0  1  0  0  0  0  0  0  0  0  0
    1.6390   -5.6161    1.1904 O   0  0  0  0  0  0  0  0  0  0  0  0
    2.4338   -3.2857   -0.0426 C   0  0  2  0  0  0  0  0  0  0  0  0
    3.2648   -2.8957   -1.2712 C   0  0  2  0  0  0  0  0  0  0  0  0
    2.6159   -3.1457   -2.6754 C   0  0  0  0  0  0  0  0  0  0  0  0
    4.0229   -3.9256   -0.5474 C   0  0  2  0  0  0  0  0  0  0  0  0
    4.9003   -4.8942   -0.6682 C   0  0  1  0  0  0  0  0  0  0  0  0
    5.9194   -3.6232   -0.1217 C   0  0  1  0  0  0  0  0  0  0  0  0
    5.0504   -2.0392    0.1775 C   0  0  1  0  0  0  0  0  0  0  0  0
    5.8370   -0.9902    0.7488 O   0  0  0  0  0  0  0  0  0  0  0  0
    4.2041   -1.5928   -1.0830 C   0  0  1  0  0  0  0  0  0  0  0  0
    5.0186   -1.3191   -2.2102 O   0  0  0  0  0  0  0  0  0  0  0  0
    3.5426   -2.3312    0.8354 C   0  0  1  0  0  0  0  0  0  0  0  0
    2.9203   -1.3786    1.8898 C   0  0  0  0  0  0  0  0  0  0  0  0
    3.8487   -0.9179    2.8490 O   0  0  0  0  0  0  0  0  0  0  0  0
    3.9141   -3.5241    1.2389 C   0  0  2  0  0  0  0  0  0  0  0  0
    4.9454   -3.7628    2.3954 C   0  0  1  0  0  0  0  0  0  0  0  0
    4.3145   -3.9221    3.6689 O   0  0  0  0  0  0  0  0  0  0  0  0
    5.1791   -3.8665    4.7992 C   0  0  0  0  0  0  0  0  0  0  0  0
    9.2696   -6.1471   -0.2288 H   0  0  0  0  0  0  0  0  0  0  0  0
    9.3497   -4.8131    0.9123 H   0  0  0  0  0  0  0  0  0  0  0  0
    8.7998   -4.5345   -0.7476 H   0  0  0  0  0  0  0  0  0  0  0  0
    7.3569   -3.7999    1.5418 H   0  0  0  0  0  0  0  0  0  0  0  0
    6.1340   -5.5158    2.7772 H   0  0  0  0  0  0  0  0  0  0  0  0
    5.0308   -7.0207    1.1421 H   0  0  0  0  0  0  0  0  0  0  0  0
    3.7977   -6.3606    2.1572 H   0  0  0  0  0  0  0  0  0  0  0  0
    1.8163   -5.3682   -0.8332 H   0  0  0  0  0  0  0  0  0  0  0  0
    1.4782   -2.7832   -0.1119 H   0  0  0  0  0  0  0  0  0  0  0  0
    3.3400   -3.0151   -3.4886 H   0  0  0  0  0  0  0  0  0  0  0  0
    1.7942   -2.4520   -2.8584 H   0  0  0  0  0  0  0  0  0  0  0  0
    2.2001   -4.1474   -2.7834 H   0  0  0  0  0  0  0  0  0  0  0  0
    4.4954   -3.6497   -1.5432 H   0  0  0  0  0  0  0  0  0  0  0  0
    5.1031   -5.3632   -1.6424 H   0  0  0  0  0  0  0  0  0  0  0  0
    6.6793   -3.4066   -0.8744 H   0  0  0  0  0  0  0  0  0  0  0  0
    5.3110   -0.2064    0.7460 H   0  0  0  0  0  0  0  0  0  0  0  0
    3.5779   -0.7096   -0.9059 H   0  0  0  0  0  0  0  0  0  0  0  0
    4.4438   -1.0283   -2.9016 H   0  0  0  0  0  0  0  0  0  0  0  0
    2.4799   -0.5089    1.4074 H   0  0  0  0  0  0  0  0  0  0  0  0
    2.1122   -1.8794    2.4250 H   0  0  0  0  0  0  0  0  0  0  0  0
    4.5728   -0.5166    2.3955 H   0  0  0  0  0  0  0  0  0  0  0  0
    3.1027   -3.8733    1.8862 H   0  0  0  0  0  0  0  0  0  0  0  0
    5.6529   -2.9376    2.5105 H   0  0  0  0  0  0  0  0  0  0  0  0
    4.5904   -3.9917    5.7067 H   0  0  0  0  0  0  0  0  0  0  0  0
    5.7009   -2.9130    4.8871 H   0  0  0  0  0  0  0  0  0  0  0  0
    5.9212   -4.6621    4.7966 H   0  0  0  0  0  0  0  0  0  0  0  0
    3.6489   -6.5572   -0.3898 H   0  0  0  0  0  0  0  0  0  0  0  0
  1  2  1  0
  1 26  1  0
  1 27  1  0
  1 28  1  0
  2  3  1  0
  3 14  1  0
  3  4  1  0
  3 29  1  1
  4 23  1  0
  4  5  1  0
  4 30  1  1
  5  6  1  0
  5 31  1  0
  5 32  1  0
  6 13  1  0
  6  7  1  0
  6 52  1  6
  7  8  1  0
  7  9  1  0
  7 33  1  6
  9 19  1  0
  9 10  1  0
  9 34  1  6
 10 17  1  0
 10 11  1  6
 10 12  1  0
 11 35  1  0
 11 36  1  0
 11 37  1  0
 12 22  1  0
 12 13  1  0
 12 38  1  1
 13 14  1  0
 13 39  1  6
 14 15  1  0
 14 40  1  6
 15 16  1  1
 15 17  1  0
 15 19  1  0
 16 41  1  0
 17 18  1  0
 17 42  1  1
 18 43  1  0
 19 20  1  1
 19 22  1  0
 20 21  1  0
 20 44  1  0
 20 45  1  0
 21 46  1  0
 22 23  1  0
 22 47  1  1
 23 24  1  0
 23 48  1  1
 24 25  1  0
 25 49  1  0
 25 50  1  0
 25 51  1  0
M  CHG  2   6   1   8  -1
M  END
>  <i_m_ct_stereo_status>  (53) 
1

>  <s_m_source_file>  (53) 
/var/tmp/pbs.5076255.sched01/tmphbojuwnv/0fr5z8inm.sdf

>  <i_m_source_file_index>  (53) 
31

>  <i_lp_mmshare_version>  (53) 
48012

>  <i_f3d_flags>  (53) 
0

>  <s_epik_input>  (53) 
W0NIM11PW0NAQEhdMVtDQEBIXShbQ0BASF0oW0NAQEhdMltDQEhdMzQpT1tDSDNdKVtDSDJdTihbQ0BIXTVbT0hdKVtDQEBIXTRbQ0BIXTFbQ0BAXShbT0hdKShbQ0BIXTZbT0hdKVtDQEBdMihbQ0gyXVtPSF0pW0NASF01W0NAXTM2W0NIM10=

>  <s_epik_cmdline>  (53) 
J2VwaWtfcHl0aG9uJywgJy1waHQnLCAnMi4wJywgJy1waCcsICc3LjAnLCAnLXRuJywgJzgnLCAnLW1hJywgJzIwMCcsICctaW1hZScsICc8aW5maWxlLm1hZT4nLCAnLW9tYWUnLCAnPG91dGZpbGUubWFlPic=

>  <r_epik_Ionization_Penalty>  (53) 
0.0859081

>  <r_epik_Ionization_Penalty_Charging>  (53) 
0.0859076

>  <r_epik_Ionization_Penalty_Neutral>  (53) 
5.36606e-07

>  <r_epik_State_Penalty>  (53) 
0.166676

>  <r_epik_Charging_Adjusted_Penalty>  (53) 
0.252584

>  <i_epik_Tot_Q>  (53) 
0

>  <i_epik_Tot_abs_Q>  (53) 
2

>  <s_epik_Chemistry_Notes>  (53) 
This compound contains an acetal/aminal-like group ( X-CH(R)-Y where X, Y are N, S, or O) that may be acid/base labile, releasing an aldehyde.

>  <s_lp_Force_Field>  (53) 
OPLS3e

>  <r_lp_Energy>  (53) 
675.506

>  <b_lp_Chiralities_Consistent>  (53) 
1

>  <s_lp_Variant>  (53) 
20:0-1

>  <s_i_glide_gridfile>  (53) 
pfpi4k_grid

>  <i_i_glide_lignum>  (53) 
31

>  <i_i_glide_rotatable_bonds>  (53) 
6

>  <r_i_docking_score>  (53) 
-3.09581

>  <r_i_glide_ligand_efficiency>  (53) 
-0.123833

>  <r_i_glide_ligand_efficiency_sa>  (53) 
-0.362089

>  <r_i_glide_ligand_efficiency_ln>  (53) 
-0.733801

>  <r_i_glide_gscore>  (53) 
-3.09581

>  <r_i_glide_lipo>  (53) 
-0.383757

>  <r_i_glide_hbond>  (53) 
-0.148923

>  <r_i_glide_metal>  (53) 
-0

>  <r_i_glide_rewards>  (53) 
-0.999477

>  <r_i_glide_evdw>  (53) 
-17.2018

>  <r_i_glide_ecoul>  (53) 
-5.20534

>  <r_i_glide_erotb>  (53) 
0.152896

>  <r_i_glide_esite>  (53) 
-0.0756629

>  <r_i_glide_emodel>  (53) 
-27.5238

>  <r_i_glide_energy>  (53) 
-22.4071

>  <r_i_glide_einternal>  (53) 
3.26332

>  <r_i_glide_intrahb_reward>  (53) 
-0

>  <i_i_glide_confnum>  (53) 
6

>  <i_i_glide_posenum>  (53) 
4

>  <r_i_glide_eff_state_penalty>  (53) 
0

>  <ligand_id>  (53) 
20

>  <original_smiles>  (53) 
COC1C2CN3C(O)C4C5(C)C6C3C1C(O)(C5O)C4(CO)C6C2OC

>  <smiles>  (53) 
[H]OC([H])([H])C12C3([H])C([H])(OC([H])([H])[H])C4([H])C([H])(OC([H])([H])[H])C5([H])C1(O[H])C([H])(O[H])C1(C([H])([H])[H])C2([H])C([H])([O-])[N+]([H])(C4([H])[H])C5([H])C31[H]

$$$$
20:1:0
     RDKit          3D

 52 57  0  0  1  0  0  0  0  0999 V2000
    6.8784   -5.9206    3.3218 C   0  0  0  0  0  0  0  0  0  0  0  0
    5.6014   -5.8281    2.6911 O   0  0  0  0  0  0  0  0  0  0  0  0
    5.0184   -4.5255    2.7046 C   0  0  2  0  0  0  0  0  0  0  0  0
    3.4984   -4.6469    2.3780 C   0  0  2  0  0  0  0  0  0  0  0  0
    3.0267   -5.2199    0.9463 C   0  0  0  0  0  0  0  0  0  0  0  0
    3.6281   -4.5968   -0.2918 N   0  0  0  0  0  0  0  0  0  0  0  0
    2.9319   -3.4224   -1.2258 C   0  0  1  0  0  0  0  0  0  0  0  0
    1.5499   -3.4842   -1.1167 O   0  0  0  0  0  0  0  0  0  0  0  0
    3.7402   -1.8597   -0.7063 C   0  0  2  0  0  0  0  0  0  0  0  0
    5.2377   -1.9905   -0.7902 C   0  0  2  0  0  0  0  0  0  0  0  0
    5.7757   -2.0080   -2.2380 C   0  0  0  0  0  0  0  0  0  0  0  0
    4.7692   -3.1956   -0.0530 C   0  0  2  0  0  0  0  0  0  0  0  0
    5.0726   -4.4321    0.2651 C   0  0  1  0  0  0  0  0  0  0  0  0
    5.6460   -3.6154    1.6334 C   0  0  1  0  0  0  0  0  0  0  0  0
    5.4456   -1.8357    1.6200 C   0  0  1  0  0  0  0  0  0  0  0  0
    5.8226   -1.2016    2.8070 O   0  0  0  0  0  0  0  0  0  0  0  0
    6.0929   -1.2269    0.3293 C   0  0  1  0  0  0  0  0  0  0  0  0
    7.4771   -1.5120    0.2156 O   0  0  0  0  0  0  0  0  0  0  0  0
    4.0042   -1.4263    0.9125 C   0  0  1  0  0  0  0  0  0  0  0  0
    3.2403   -0.1638    1.3952 C   0  0  0  0  0  0  0  0  0  0  0  0
    3.1542   -0.0870    2.8057 O   0  0  0  0  0  0  0  0  0  0  0  0
    3.4769   -2.6134    1.1094 C   0  0  2  0  0  0  0  0  0  0  0  0
    3.1017   -3.1971    2.4993 C   0  0  1  0  0  0  0  0  0  0  0  0
    1.7013   -3.0924    2.7469 O   0  0  0  0  0  0  0  0  0  0  0  0
    1.3181   -3.2081    4.1091 C   0  0  0  0  0  0  0  0  0  0  0  0
    7.2831   -6.9255    3.2027 H   0  0  0  0  0  0  0  0  0  0  0  0
    6.8076   -5.7040    4.3888 H   0  0  0  0  0  0  0  0  0  0  0  0
    7.6292   -5.2568    2.8954 H   0  0  0  0  0  0  0  0  0  0  0  0
    5.1560   -4.0966    3.7047 H   0  0  0  0  0  0  0  0  0  0  0  0
    3.0461   -5.2471    3.1669 H   0  0  0  0  0  0  0  0  0  0  0  0
    3.3247   -6.2687    0.9335 H   0  0  0  0  0  0  0  0  0  0  0  0
    1.9406   -5.2152    0.8800 H   0  0  0  0  0  0  0  0  0  0  0  0
    3.1892   -3.6352   -2.2635 H   0  0  0  0  0  0  0  0  0  0  0  0
    1.2495   -2.5577   -1.1273 H   0  0  0  0  0  0  0  0  0  0  0  0
    3.3755   -1.0152   -1.2911 H   0  0  0  0  0  0  0  0  0  0  0  0
    6.8139   -2.3477   -2.3007 H   0  0  0  0  0  0  0  0  0  0  0  0
    5.7133   -0.9867   -2.6027 H   0  0  0  0  0  0  0  0  0  0  0  0
    5.1808   -2.6222   -2.9132 H   0  0  0  0  0  0  0  0  0  0  0  0
    5.8426   -3.2272   -0.3283 H   0  0  0  0  0  0  0  0  0  0  0  0
    5.7968   -5.0038   -0.3193 H   0  0  0  0  0  0  0  0  0  0  0  0
    6.7192   -3.7220    1.6516 H   0  0  0  0  0  0  0  0  0  0  0  0
    5.5754   -0.2888    2.7405 H   0  0  0  0  0  0  0  0  0  0  0  0
    5.9718   -0.1435    0.2692 H   0  0  0  0  0  0  0  0  0  0  0  0
    7.6313   -2.4224    0.4431 H   0  0  0  0  0  0  0  0  0  0  0  0
    3.7508    0.7296    1.0314 H   0  0  0  0  0  0  0  0  0  0  0  0
    2.2345   -0.1437    0.9720 H   0  0  0  0  0  0  0  0  0  0  0  0
    2.6790    0.7006    3.0435 H   0  0  0  0  0  0  0  0  0  0  0  0
    2.4236   -2.4764    0.8284 H   0  0  0  0  0  0  0  0  0  0  0  0
    3.6039   -2.6651    3.3092 H   0  0  0  0  0  0  0  0  0  0  0  0
    0.2310   -3.1958    4.1834 H   0  0  0  0  0  0  0  0  0  0  0  0
    1.7002   -2.3674    4.6862 H   0  0  0  0  0  0  0  0  0  0  0  0
    1.6583   -4.1309    4.5790 H   0  0  0  0  0  0  0  0  0  0  0  0
  1  2  1  0
  1 26  1  0
  1 27  1  0
  1 28  1  0
  2  3  1  0
  3 14  1  0
  3  4  1  0
  3 29  1  1
  4 23  1  0
  4  5  1  0
  4 30  1  1
  5  6  1  0
  5 31  1  0
  5 32  1  0
  6 13  1  0
  6  7  1  0
  7  8  1  0
  7  9  1  0
  7 33  1  6
  8 34  1  0
  9 19  1  0
  9 10  1  0
  9 35  1  6
 10 17  1  0
 10 11  1  6
 10 12  1  0
 11 36  1  0
 11 37  1  0
 11 38  1  0
 12 22  1  0
 12 13  1  0
 12 39  1  6
 13 14  1  0
 13 40  1  6
 14 15  1  0
 14 41  1  6
 15 16  1  1
 15 17  1  0
 15 19  1  0
 16 42  1  0
 17 18  1  0
 17 43  1  1
 18 44  1  0
 19 20  1  1
 19 22  1  0
 20 21  1  0
 20 45  1  0
 20 46  1  0
 21 47  1  0
 22 23  1  0
 22 48  1  6
 23 24  1  0
 23 49  1  1
 24 25  1  0
 25 50  1  0
 25 51  1  0
 25 52  1  0
M  END
>  <i_m_ct_stereo_status>  (54) 
1

>  <s_m_source_file>  (54) 
/var/tmp/pbs.5076255.sched01/tmphbojuwnv/0fr5z8inm.sdf

>  <i_m_source_file_index>  (54) 
32

>  <i_lp_mmshare_version>  (54) 
48012

>  <i_f3d_flags>  (54) 
0

>  <s_epik_input>  (54) 
W0NIM11PW0NAQEhdMVtDQEBIXShbQ0BASF0oW0NAQEhdMltDQEhdMzQpT1tDSDNdKVtDSDJdTihbQ0BIXTVbT0hdKVtDQEBIXTRbQ0BIXTFbQ0BAXShbT0hdKShbQ0BIXTZbT0hdKVtDQEBdMihbQ0gyXVtPSF0pW0NASF01W0NAXTM2W0NIM10=

>  <s_epik_cmdline>  (54) 
J2VwaWtfcHl0aG9uJywgJy1waHQnLCAnMi4wJywgJy1waCcsICc3LjAnLCAnLXRuJywgJzgnLCAnLW1hJywgJzIwMCcsICctaW1hZScsICc8aW5maWxlLm1hZT4nLCAnLW9tYWUnLCAnPG91dGZpbGUubWFlPic=

>  <r_epik_Ionization_Penalty>  (54) 
0.331717

>  <r_epik_Ionization_Penalty_Charging>  (54) 
0

>  <r_epik_Ionization_Penalty_Neutral>  (54) 
0.331717

>  <r_epik_State_Penalty>  (54) 
1.15967

>  <r_epik_Charging_Adjusted_Penalty>  (54) 
1.15967

>  <i_epik_Tot_Q>  (54) 
0

>  <i_epik_Tot_abs_Q>  (54) 
0

>  <s_epik_Chemistry_Notes>  (54) 
This compound contains an acetal/aminal-like group ( X-CH(R)-Y where X, Y are N, S, or O) that may be acid/base labile, releasing an aldehyde.

>  <s_lp_Force_Field>  (54) 
OPLS3e

>  <r_lp_Energy>  (54) 
595.565

>  <b_lp_Chiralities_Consistent>  (54) 
1

>  <s_lp_Variant>  (54) 
20:0-2

>  <s_i_glide_gridfile>  (54) 
pfpi4k_grid

>  <i_i_glide_lignum>  (54) 
32

>  <i_i_glide_rotatable_bonds>  (54) 
7

>  <r_i_docking_score>  (54) 
-2.73588

>  <r_i_glide_ligand_efficiency>  (54) 
-0.109435

>  <r_i_glide_ligand_efficiency_sa>  (54) 
-0.31999

>  <r_i_glide_ligand_efficiency_ln>  (54) 
-0.648485

>  <r_i_glide_gscore>  (54) 
-2.73588

>  <r_i_glide_lipo>  (54) 
-0.372035

>  <r_i_glide_hbond>  (54) 
-0.223486

>  <r_i_glide_metal>  (54) 
-0

>  <r_i_glide_rewards>  (54) 
-1.10726

>  <r_i_glide_evdw>  (54) 
-13.9808

>  <r_i_glide_ecoul>  (54) 
-2.94057

>  <r_i_glide_erotb>  (54) 
0.107027

>  <r_i_glide_esite>  (54) 
0

>  <r_i_glide_emodel>  (54) 
-18.0751

>  <r_i_glide_energy>  (54) 
-16.9214

>  <r_i_glide_einternal>  (54) 
4.47845

>  <r_i_glide_intrahb_reward>  (54) 
-0

>  <i_i_glide_confnum>  (54) 
5

>  <i_i_glide_posenum>  (54) 
14

>  <r_i_glide_eff_state_penalty>  (54) 
0

>  <ligand_id>  (54) 
20

>  <original_smiles>  (54) 
COC1C2CN3C(O)C4C5(C)C6C3C1C(O)(C5O)C4(CO)C6C2OC

>  <smiles>  (54) 
[H]OC([H])([H])C12C3([H])C([H])(OC([H])([H])[H])C4([H])C([H])([H])N5C([H])(O[H])C1([H])C1(C([H])([H])[H])C([H])(O[H])C2(O[H])C([H])(C4([H])OC([H])([H])[H])C5([H])C31[H]

$$$$
20:1:1
     RDKit          3D

 52 57  0  0  1  0  0  0  0  0999 V2000
    6.5800   -6.1467    3.3835 C   0  0  0  0  0  0  0  0  0  0  0  0
    5.3256   -5.9414    2.7409 O   0  0  0  0  0  0  0  0  0  0  0  0
    4.9785   -4.5614    2.5583 C   0  0  2  0  0  0  0  0  0  0  0  0
    3.4330   -4.4362    2.3582 C   0  0  2  0  0  0  0  0  0  0  0  0
    2.7431   -5.1341    1.0786 C   0  0  0  0  0  0  0  0  0  0  0  0
    3.3261   -4.8541   -0.2850 N   0  0  0  0  0  0  0  0  0  0  0  0
    2.7673   -3.7255   -1.3649 C   0  0  1  0  0  0  0  0  0  0  0  0
    1.4240   -3.4556   -1.1393 O   0  0  0  0  0  0  0  0  0  0  0  0
    3.8722   -2.2884   -1.1902 C   0  0  2  0  0  0  0  0  0  0  0  0
    5.2928   -2.7478   -1.3554 C   0  0  2  0  0  0  0  0  0  0  0  0
    5.6502   -3.1631   -2.8160 C   0  0  0  0  0  0  0  0  0  0  0  0
    4.7276   -3.6905   -0.3579 C   0  0  2  0  0  0  0  0  0  0  0  0
    4.8198   -4.8952    0.1464 C   0  0  1  0  0  0  0  0  0  0  0  0
    5.6680   -3.9746    1.3038 C   0  0  1  0  0  0  0  0  0  0  0  0
    5.7778   -2.2068    0.9689 C   0  0  1  0  0  0  0  0  0  0  0  0
    6.3493   -1.3863    1.9603 O   0  0  0  0  0  0  0  0  0  0  0  0
    6.3714   -1.9679   -0.4529 C   0  0  1  0  0  0  0  0  0  0  0  0
    7.6773   -2.4932   -0.6144 O   0  0  0  0  0  0  0  0  0  0  0  0
    4.3711   -1.6553    0.3006 C   0  0  1  0  0  0  0  0  0  0  0  0
    3.8689   -0.2286    0.6311 C   0  0  0  0  0  0  0  0  0  0  0  0
    3.8797    0.1171    1.9977 O   0  0  0  0  0  0  0  0  0  0  0  0
    3.6762   -2.6811    0.7499 C   0  0  2  0  0  0  0  0  0  0  0  0
    3.3240   -2.9346    2.2419 C   0  0  1  0  0  0  0  0  0  0  0  0
    1.9938   -2.5072    2.5589 O   0  0  0  0  0  0  0  0  0  0  0  0
    1.7425   -2.3464    3.9455 C   0  0  0  0  0  0  0  0  0  0  0  0
    6.8035   -7.2105    3.4021 H   0  0  0  0  0  0  0  0  0  0  0  0
    6.5446   -5.7876    4.4101 H   0  0  0  0  0  0  0  0  0  0  0  0
    7.4125   -5.6499    2.8871 H   0  0  0  0  0  0  0  0  0  0  0  0
    5.2998   -3.9924    3.4432 H   0  0  0  0  0  0  0  0  0  0  0  0
    2.9818   -4.8160    3.2835 H   0  0  0  0  0  0  0  0  0  0  0  0
    2.8510   -6.2038    1.2387 H   0  0  0  0  0  0  0  0  0  0  0  0
    1.6798   -4.9380    1.1163 H   0  0  0  0  0  0  0  0  0  0  0  0
    2.8521   -4.0899   -2.3875 H   0  0  0  0  0  0  0  0  0  0  0  0
    1.3398   -2.4902   -1.1388 H   0  0  0  0  0  0  0  0  0  0  0  0
    3.6122   -1.4841   -1.8875 H   0  0  0  0  0  0  0  0  0  0  0  0
    6.6208   -3.6608   -2.8910 H   0  0  0  0  0  0  0  0  0  0  0  0
    5.7354   -2.2872   -3.4486 H   0  0  0  0  0  0  0  0  0  0  0  0
    4.8756   -3.7630   -3.2997 H   0  0  0  0  0  0  0  0  0  0  0  0
    5.7426   -3.9749   -0.7068 H   0  0  0  0  0  0  0  0  0  0  0  0
    5.3556   -5.6791   -0.4032 H   0  0  0  0  0  0  0  0  0  0  0  0
    6.6961   -4.3157    1.2740 H   0  0  0  0  0  0  0  0  0  0  0  0
    5.7627   -1.4674    2.6912 H   0  0  0  0  0  0  0  0  0  0  0  0
    6.3901   -0.9065   -0.6887 H   0  0  0  0  0  0  0  0  0  0  0  0
    7.6874   -3.3895   -0.3075 H   0  0  0  0  0  0  0  0  0  0  0  0
    4.4922    0.4839    0.0993 H   0  0  0  0  0  0  0  0  0  0  0  0
    2.8394   -0.1388    0.2977 H   0  0  0  0  0  0  0  0  0  0  0  0
    3.2512   -0.4431    2.4257 H   0  0  0  0  0  0  0  0  0  0  0  0
    2.6448   -2.3703    0.5450 H   0  0  0  0  0  0  0  0  0  0  0  0
    3.9990   -2.3910    2.9150 H   0  0  0  0  0  0  0  0  0  0  0  0
    0.6908   -2.1178    4.0909 H   0  0  0  0  0  0  0  0  0  0  0  0
    2.3264   -1.5197    4.3416 H   0  0  0  0  0  0  0  0  0  0  0  0
    1.9633   -3.2348    4.5332 H   0  0  0  0  0  0  0  0  0  0  0  0
  1  2  1  0
  1 26  1  0
  1 27  1  0
  1 28  1  0
  2  3  1  0
  3 14  1  0
  3  4  1  0
  3 29  1  1
  4 23  1  0
  4  5  1  0
  4 30  1  1
  5  6  1  0
  5 31  1  0
  5 32  1  0
  6 13  1  0
  6  7  1  0
  7  8  1  0
  7  9  1  0
  7 33  1  6
  8 34  1  0
  9 19  1  0
  9 10  1  0
  9 35  1  6
 10 17  1  0
 10 11  1  6
 10 12  1  0
 11 36  1  0
 11 37  1  0
 11 38  1  0
 12 22  1  0
 12 13  1  0
 12 39  1  6
 13 14  1  0
 13 40  1  6
 14 15  1  0
 14 41  1  1
 15 16  1  1
 15 17  1  0
 15 19  1  0
 16 42  1  0
 17 18  1  0
 17 43  1  6
 18 44  1  0
 19 20  1  1
 19 22  1  0
 20 21  1  0
 20 45  1  0
 20 46  1  0
 21 47  1  0
 22 23  1  0
 22 48  1  6
 23 24  1  0
 23 49  1  1
 24 25  1  0
 25 50  1  0
 25 51  1  0
 25 52  1  0
M  END
>  <i_m_ct_stereo_status>  (55) 
1

>  <s_m_source_file>  (55) 
/var/tmp/pbs.5076255.sched01/tmphbojuwnv/0fr5z8inm.sdf

>  <i_m_source_file_index>  (55) 
32

>  <i_lp_mmshare_version>  (55) 
48012

>  <i_f3d_flags>  (55) 
0

>  <s_epik_input>  (55) 
W0NIM11PW0NAQEhdMVtDQEBIXShbQ0BASF0oW0NAQEhdMltDQEhdMzQpT1tDSDNdKVtDSDJdTihbQ0BIXTVbT0hdKVtDQEBIXTRbQ0BIXTFbQ0BAXShbT0hdKShbQ0BIXTZbT0hdKVtDQEBdMihbQ0gyXVtPSF0pW0NASF01W0NAXTM2W0NIM10=

>  <s_epik_cmdline>  (55) 
J2VwaWtfcHl0aG9uJywgJy1waHQnLCAnMi4wJywgJy1waCcsICc3LjAnLCAnLXRuJywgJzgnLCAnLW1hJywgJzIwMCcsICctaW1hZScsICc8aW5maWxlLm1hZT4nLCAnLW9tYWUnLCAnPG91dGZpbGUubWFlPic=

>  <r_epik_Ionization_Penalty>  (55) 
0.331717

>  <r_epik_Ionization_Penalty_Charging>  (55) 
0

>  <r_epik_Ionization_Penalty_Neutral>  (55) 
0.331717

>  <r_epik_State_Penalty>  (55) 
1.15967

>  <r_epik_Charging_Adjusted_Penalty>  (55) 
1.15967

>  <i_epik_Tot_Q>  (55) 
0

>  <i_epik_Tot_abs_Q>  (55) 
0

>  <s_epik_Chemistry_Notes>  (55) 
This compound contains an acetal/aminal-like group ( X-CH(R)-Y where X, Y are N, S, or O) that may be acid/base labile, releasing an aldehyde.

>  <s_lp_Force_Field>  (55) 
OPLS3e

>  <r_lp_Energy>  (55) 
595.565

>  <b_lp_Chiralities_Consistent>  (55) 
1

>  <s_lp_Variant>  (55) 
20:0-2

>  <s_i_glide_gridfile>  (55) 
pfpi4k_grid

>  <i_i_glide_lignum>  (55) 
32

>  <i_i_glide_rotatable_bonds>  (55) 
7

>  <r_i_docking_score>  (55) 
-2.73443

>  <r_i_glide_ligand_efficiency>  (55) 
-0.109377

>  <r_i_glide_ligand_efficiency_sa>  (55) 
-0.319821

>  <r_i_glide_ligand_efficiency_ln>  (55) 
-0.648142

>  <r_i_glide_gscore>  (55) 
-2.73443

>  <r_i_glide_lipo>  (55) 
-0.493027

>  <r_i_glide_hbond>  (55) 
-0.226384

>  <r_i_glide_metal>  (55) 
-0

>  <r_i_glide_rewards>  (55) 
-1.01991

>  <r_i_glide_evdw>  (55) 
-9.83211

>  <r_i_glide_ecoul>  (55) 
-4.0702

>  <r_i_glide_erotb>  (55) 
0.107027

>  <r_i_glide_esite>  (55) 
0

>  <r_i_glide_emodel>  (55) 
-15.3015

>  <r_i_glide_energy>  (55) 
-13.9023

>  <r_i_glide_einternal>  (55) 
3.90449

>  <r_i_glide_intrahb_reward>  (55) 
-0

>  <i_i_glide_confnum>  (55) 
6

>  <i_i_glide_posenum>  (55) 
18

>  <r_i_glide_eff_state_penalty>  (55) 
0

>  <ligand_id>  (55) 
20

>  <original_smiles>  (55) 
COC1C2CN3C(O)C4C5(C)C6C3C1C(O)(C5O)C4(CO)C6C2OC

>  <smiles>  (55) 
[H]OC([H])([H])C12C3([H])C([H])(OC([H])([H])[H])C4([H])C([H])([H])N5C([H])(O[H])C1([H])C1(C([H])([H])[H])C([H])(O[H])C2(O[H])C([H])(C4([H])OC([H])([H])[H])C5([H])C31[H]

$$$$
20:1:2
     RDKit          3D

 52 57  0  0  1  0  0  0  0  0999 V2000
    4.4552   -7.0447    4.4872 C   0  0  0  0  0  0  0  0  0  0  0  0
    3.7280   -5.8203    4.5336 O   0  0  0  0  0  0  0  0  0  0  0  0
    4.4259   -4.6938    3.9928 C   0  0  2  0  0  0  0  0  0  0  0  0
    3.8116   -3.3754    4.5426 C   0  0  2  0  0  0  0  0  0  0  0  0
    2.2576   -3.0407    4.2075 C   0  0  0  0  0  0  0  0  0  0  0  0
    1.8165   -3.0790    2.7741 N   0  0  0  0  0  0  0  0  0  0  0  0
    1.7241   -1.7358    1.8292 C   0  0  1  0  0  0  0  0  0  0  0  0
    1.5185   -0.5956    2.6146 O   0  0  0  0  0  0  0  0  0  0  0  0
    3.2219   -1.7846    0.7513 C   0  0  2  0  0  0  0  0  0  0  0  0
    3.3966   -3.1381    0.0696 C   0  0  2  0  0  0  0  0  0  0  0  0
    2.4125   -3.3869   -1.0971 C   0  0  0  0  0  0  0  0  0  0  0  0
    3.1058   -3.4166    1.4931 C   0  0  2  0  0  0  0  0  0  0  0  0
    2.6521   -4.3373    2.3397 C   0  0  1  0  0  0  0  0  0  0  0  0
    4.3244   -4.6524    2.4514 C   0  0  1  0  0  0  0  0  0  0  0  0
    5.3578   -3.6170    1.4048 C   0  0  1  0  0  0  0  0  0  0  0  0
    6.7486   -3.7739    1.5659 O   0  0  0  0  0  0  0  0  0  0  0  0
    4.8917   -3.7140   -0.0719 C   0  0  1  0  0  0  0  0  0  0  0  0
    4.8996   -5.0605   -0.5088 O   0  0  0  0  0  0  0  0  0  0  0  0
    4.7808   -2.0657    1.3420 C   0  0  1  0  0  0  0  0  0  0  0  0
    5.7815   -0.9000    1.2079 C   0  0  0  0  0  0  0  0  0  0  0  0
    6.1559   -0.7602   -0.1350 O   0  0  0  0  0  0  0  0  0  0  0  0
    4.0962   -2.2147    2.4657 C   0  0  2  0  0  0  0  0  0  0  0  0
    4.7027   -2.3421    3.9008 C   0  0  1  0  0  0  0  0  0  0  0  0
    4.5981   -1.1728    4.7354 O   0  0  0  0  0  0  0  0  0  0  0  0
    5.3393   -0.0297    4.3657 C   0  0  0  0  0  0  0  0  0  0  0  0
    3.8222   -7.8689    4.8269 H   0  0  0  0  0  0  0  0  0  0  0  0
    5.3252   -6.9995    5.1443 H   0  0  0  0  0  0  0  0  0  0  0  0
    4.8045   -7.3016    3.4856 H   0  0  0  0  0  0  0  0  0  0  0  0
    5.4718   -4.7615    4.2973 H   0  0  0  0  0  0  0  0  0  0  0  0
    3.9412   -3.3786    5.6219 H   0  0  0  0  0  0  0  0  0  0  0  0
    1.6579   -3.7958    4.7178 H   0  0  0  0  0  0  0  0  0  0  0  0
    1.9807   -2.0878    4.6686 H   0  0  0  0  0  0  0  0  0  0  0  0
    0.8448   -1.8272    1.1883 H   0  0  0  0  0  0  0  0  0  0  0  0
    1.3060    0.0990    2.0013 H   0  0  0  0  0  0  0  0  0  0  0  0
    3.2406   -0.9867    0.0033 H   0  0  0  0  0  0  0  0  0  0  0  0
    2.3349   -4.4332   -1.3521 H   0  0  0  0  0  0  0  0  0  0  0  0
    2.7368   -2.8390   -1.9836 H   0  0  0  0  0  0  0  0  0  0  0  0
    1.3940   -3.0556   -0.8612 H   0  0  0  0  0  0  0  0  0  0  0  0
    3.0827   -4.3393    0.8571 H   0  0  0  0  0  0  0  0  0  0  0  0
    1.9877   -5.1497    1.9970 H   0  0  0  0  0  0  0  0  0  0  0  0
    4.4725   -5.6662    2.0733 H   0  0  0  0  0  0  0  0  0  0  0  0
    6.9378   -3.5449    2.4610 H   0  0  0  0  0  0  0  0  0  0  0  0
    5.4988   -3.1042   -0.7443 H   0  0  0  0  0  0  0  0  0  0  0  0
    4.3692   -5.1202   -1.2977 H   0  0  0  0  0  0  0  0  0  0  0  0
    5.2993    0.0476    1.4682 H   0  0  0  0  0  0  0  0  0  0  0  0
    6.6446   -1.0390    1.8478 H   0  0  0  0  0  0  0  0  0  0  0  0
    5.4790   -0.2317   -0.5424 H   0  0  0  0  0  0  0  0  0  0  0  0
    3.7638   -1.2030    2.7155 H   0  0  0  0  0  0  0  0  0  0  0  0
    5.7472   -2.6377    3.8893 H   0  0  0  0  0  0  0  0  0  0  0  0
    5.2617    0.7186    5.1557 H   0  0  0  0  0  0  0  0  0  0  0  0
    4.9666    0.4177    3.4418 H   0  0  0  0  0  0  0  0  0  0  0  0
    6.3940   -0.2489    4.2416 H   0  0  0  0  0  0  0  0  0  0  0  0
  1  2  1  0
  1 26  1  0
  1 27  1  0
  1 28  1  0
  2  3  1  0
  3 14  1  0
  3  4  1  0
  3 29  1  6
  4 23  1  0
  4  5  1  0
  4 30  1  1
  5  6  1  0
  5 31  1  0
  5 32  1  0
  6 13  1  0
  6  7  1  0
  7  8  1  0
  7  9  1  0
  7 33  1  6
  8 34  1  0
  9 19  1  0
  9 10  1  0
  9 35  1  6
 10 17  1  0
 10 11  1  6
 10 12  1  0
 11 36  1  0
 11 37  1  0
 11 38  1  0
 12 22  1  0
 12 13  1  0
 12 39  1  6
 13 14  1  0
 13 40  1  6
 14 15  1  0
 14 41  1  6
 15 16  1  6
 15 17  1  0
 15 19  1  0
 16 42  1  0
 17 18  1  0
 17 43  1  6
 18 44  1  0
 19 20  1  1
 19 22  1  0
 20 21  1  0
 20 45  1  0
 20 46  1  0
 21 47  1  0
 22 23  1  0
 22 48  1  1
 23 24  1  0
 23 49  1  6
 24 25  1  0
 25 50  1  0
 25 51  1  0
 25 52  1  0
M  END
>  <i_m_ct_stereo_status>  (56) 
1

>  <s_m_source_file>  (56) 
/var/tmp/pbs.5076255.sched01/tmphbojuwnv/0fr5z8inm.sdf

>  <i_m_source_file_index>  (56) 
32

>  <i_lp_mmshare_version>  (56) 
48012

>  <i_f3d_flags>  (56) 
0

>  <s_epik_input>  (56) 
W0NIM11PW0NAQEhdMVtDQEBIXShbQ0BASF0oW0NAQEhdMltDQEhdMzQpT1tDSDNdKVtDSDJdTihbQ0BIXTVbT0hdKVtDQEBIXTRbQ0BIXTFbQ0BAXShbT0hdKShbQ0BIXTZbT0hdKVtDQEBdMihbQ0gyXVtPSF0pW0NASF01W0NAXTM2W0NIM10=

>  <s_epik_cmdline>  (56) 
J2VwaWtfcHl0aG9uJywgJy1waHQnLCAnMi4wJywgJy1waCcsICc3LjAnLCAnLXRuJywgJzgnLCAnLW1hJywgJzIwMCcsICctaW1hZScsICc8aW5maWxlLm1hZT4nLCAnLW9tYWUnLCAnPG91dGZpbGUubWFlPic=

>  <r_epik_Ionization_Penalty>  (56) 
0.331717

>  <r_epik_Ionization_Penalty_Charging>  (56) 
0

>  <r_epik_Ionization_Penalty_Neutral>  (56) 
0.331717

>  <r_epik_State_Penalty>  (56) 
1.15967

>  <r_epik_Charging_Adjusted_Penalty>  (56) 
1.15967

>  <i_epik_Tot_Q>  (56) 
0

>  <i_epik_Tot_abs_Q>  (56) 
0

>  <s_epik_Chemistry_Notes>  (56) 
This compound contains an acetal/aminal-like group ( X-CH(R)-Y where X, Y are N, S, or O) that may be acid/base labile, releasing an aldehyde.

>  <s_lp_Force_Field>  (56) 
OPLS3e

>  <r_lp_Energy>  (56) 
595.565

>  <b_lp_Chiralities_Consistent>  (56) 
1

>  <s_lp_Variant>  (56) 
20:0-2

>  <s_i_glide_gridfile>  (56) 
pfpi4k_grid

>  <i_i_glide_lignum>  (56) 
32

>  <i_i_glide_rotatable_bonds>  (56) 
7

>  <r_i_docking_score>  (56) 
-2.55509

>  <r_i_glide_ligand_efficiency>  (56) 
-0.102204

>  <r_i_glide_ligand_efficiency_sa>  (56) 
-0.298845

>  <r_i_glide_ligand_efficiency_ln>  (56) 
-0.605633

>  <r_i_glide_gscore>  (56) 
-2.55509

>  <r_i_glide_lipo>  (56) 
-0.36363

>  <r_i_glide_hbond>  (56) 
-0.0919041

>  <r_i_glide_metal>  (56) 
-0

>  <r_i_glide_rewards>  (56) 
-0.999477

>  <r_i_glide_evdw>  (56) 
-12.1558

>  <r_i_glide_ecoul>  (56) 
-3.90925

>  <r_i_glide_erotb>  (56) 
0.152896

>  <r_i_glide_esite>  (56) 
-0.0588019

>  <r_i_glide_emodel>  (56) 
-17.3517

>  <r_i_glide_energy>  (56) 
-16.065

>  <r_i_glide_einternal>  (56) 
2.9579

>  <r_i_glide_intrahb_reward>  (56) 
-0

>  <i_i_glide_confnum>  (56) 
4

>  <i_i_glide_posenum>  (56) 
6

>  <r_i_glide_eff_state_penalty>  (56) 
0

>  <ligand_id>  (56) 
20

>  <original_smiles>  (56) 
COC1C2CN3C(O)C4C5(C)C6C3C1C(O)(C5O)C4(CO)C6C2OC

>  <smiles>  (56) 
[H]OC([H])([H])C12C3([H])C([H])(OC([H])([H])[H])C4([H])C([H])([H])N5C([H])(O[H])C1([H])C1(C([H])([H])[H])C([H])(O[H])C2(O[H])C([H])(C4([H])OC([H])([H])[H])C5([H])C31[H]

$$$$
20:2:0
     RDKit          3D

 53 58  0  0  1  0  0  0  0  0999 V2000
    7.3587   -5.9568    2.7250 C   0  0  0  0  0  0  0  0  0  0  0  0
    6.0929   -5.9725    2.0571 O   0  0  0  0  0  0  0  0  0  0  0  0
    5.2788   -4.8277    2.3013 C   0  0  2  0  0  0  0  0  0  0  0  0
    3.7991   -5.1740    1.9623 C   0  0  2  0  0  0  0  0  0  0  0  0
    3.3751   -5.5837    0.4686 C   0  0  0  0  0  0  0  0  0  0  0  0
    3.8703   -4.6717   -0.6328 N   0  0  1  0  0  0  0  0  0  0  0  0
    2.9267   -3.5124   -1.3338 C   0  0  1  0  0  0  0  0  0  0  0  0
    1.6063   -4.0077   -1.2122 O   0  0  0  0  0  0  0  0  0  0  0  0
    3.4317   -1.9053   -0.5905 C   0  0  2  0  0  0  0  0  0  0  0  0
    4.9268   -1.6809   -0.6914 C   0  0  2  0  0  0  0  0  0  0  0  0
    5.4134   -1.3449   -2.1163 C   0  0  0  0  0  0  0  0  0  0  0  0
    4.7410   -3.0516   -0.1947 C   0  0  2  0  0  0  0  0  0  0  0  0
    5.2660   -4.2543   -0.1028 C   0  0  1  0  0  0  0  0  0  0  0  0
    5.6913   -3.6382    1.4142 C   0  0  1  0  0  0  0  0  0  0  0  0
    5.1454   -1.9515    1.7315 C   0  0  1  0  0  0  0  0  0  0  0  0
    5.3907   -1.4801    3.0272 O   0  0  0  0  0  0  0  0  0  0  0  0
    5.6423   -1.0054    0.5770 C   0  0  1  0  0  0  0  0  0  0  0  0
    7.0523   -1.0633    0.5061 O   0  0  0  0  0  0  0  0  0  0  0  0
    3.6513   -1.6967    1.0737 C   0  0  1  0  0  0  0  0  0  0  0  0
    2.6488   -0.7718    1.8005 C   0  0  0  0  0  0  0  0  0  0  0  0
    3.0230    0.5814    1.6622 O   0  0  0  0  0  0  0  0  0  0  0  0
    3.3887   -2.9829    1.0484 C   0  0  2  0  0  0  0  0  0  0  0  0
    3.1490   -3.8627    2.3158 C   0  0  1  0  0  0  0  0  0  0  0  0
    1.7606   -4.1042    2.5443 O   0  0  0  0  0  0  0  0  0  0  0  0
    1.4086   -4.4881    3.8708 C   0  0  0  0  0  0  0  0  0  0  0  0
    7.9511   -6.8233    2.4279 H   0  0  0  0  0  0  0  0  0  0  0  0
    7.2441   -5.9894    3.8116 H   0  0  0  0  0  0  0  0  0  0  0  0
    7.9659   -5.0840    2.4796 H   0  0  0  0  0  0  0  0  0  0  0  0
    5.3652   -4.5677    3.3635 H   0  0  0  0  0  0  0  0  0  0  0  0
    3.4844   -5.9654    2.6501 H   0  0  0  0  0  0  0  0  0  0  0  0
    3.8375   -6.5480    0.2914 H   0  0  0  0  0  0  0  0  0  0  0  0
    2.3061   -5.7842    0.3976 H   0  0  0  0  0  0  0  0  0  0  0  0
    3.1339   -3.4688   -2.4020 H   0  0  0  0  0  0  0  0  0  0  0  0
    1.1920   -3.9587   -2.0659 H   0  0  0  0  0  0  0  0  0  0  0  0
    2.9365   -1.0500   -1.0490 H   0  0  0  0  0  0  0  0  0  0  0  0
    6.4844   -1.5066   -2.2001 H   0  0  0  0  0  0  0  0  0  0  0  0
    5.2015   -0.2974   -2.3402 H   0  0  0  0  0  0  0  0  0  0  0  0
    4.9312   -1.9495   -2.8854 H   0  0  0  0  0  0  0  0  0  0  0  0
    5.8083   -2.8530   -0.4348 H   0  0  0  0  0  0  0  0  0  0  0  0
    6.0767   -4.6156   -0.7312 H   0  0  0  0  0  0  0  0  0  0  0  0
    6.7736   -3.5566    1.4617 H   0  0  0  0  0  0  0  0  0  0  0  0
    5.0547   -0.6018    3.1244 H   0  0  0  0  0  0  0  0  0  0  0  0
    5.3428    0.0390    0.6792 H   0  0  0  0  0  0  0  0  0  0  0  0
    7.3989   -0.4460    1.1219 H   0  0  0  0  0  0  0  0  0  0  0  0
    1.6529   -0.8717    1.3651 H   0  0  0  0  0  0  0  0  0  0  0  0
    2.5788   -1.0253    2.8573 H   0  0  0  0  0  0  0  0  0  0  0  0
    3.8199    0.7578    2.1372 H   0  0  0  0  0  0  0  0  0  0  0  0
    2.3139   -3.0136    0.8035 H   0  0  0  0  0  0  0  0  0  0  0  0
    3.5396   -3.3904    3.2207 H   0  0  0  0  0  0  0  0  0  0  0  0
    0.3380   -4.6908    3.9249 H   0  0  0  0  0  0  0  0  0  0  0  0
    1.6235   -3.6870    4.5774 H   0  0  0  0  0  0  0  0  0  0  0  0
    1.9204   -5.3905    4.2046 H   0  0  0  0  0  0  0  0  0  0  0  0
    3.9840   -5.3113   -1.4024 H   0  0  0  0  0  0  0  0  0  0  0  0
  1  2  1  0
  1 26  1  0
  1 27  1  0
  1 28  1  0
  2  3  1  0
  3 14  1  0
  3  4  1  0
  3 29  1  1
  4 23  1  0
  4  5  1  0
  4 30  1  1
  5  6  1  0
  5 31  1  0
  5 32  1  0
  6 13  1  0
  6  7  1  0
  6 53  1  6
  7  8  1  0
  7  9  1  0
  7 33  1  6
  8 34  1  0
  9 19  1  0
  9 10  1  0
  9 35  1  6
 10 17  1  0
 10 11  1  6
 10 12  1  0
 11 36  1  0
 11 37  1  0
 11 38  1  0
 12 22  1  0
 12 13  1  0
 12 39  1  6
 13 14  1  0
 13 40  1  6
 14 15  1  0
 14 41  1  6
 15 16  1  1
 15 17  1  0
 15 19  1  0
 16 42  1  0
 17 18  1  0
 17 43  1  1
 18 44  1  0
 19 20  1  1
 19 22  1  0
 20 21  1  0
 20 45  1  0
 20 46  1  0
 21 47  1  0
 22 23  1  0
 22 48  1  6
 23 24  1  0
 23 49  1  1
 24 25  1  0
 25 50  1  0
 25 51  1  0
 25 52  1  0
M  CHG  1   6   1
M  END
>  <i_m_ct_stereo_status>  (57) 
1

>  <s_m_source_file>  (57) 
/var/tmp/pbs.5076255.sched01/tmphbojuwnv/0fr5z8inm.sdf

>  <i_m_source_file_index>  (57) 
33

>  <i_lp_mmshare_version>  (57) 
48012

>  <i_f3d_flags>  (57) 
0

>  <s_epik_input>  (57) 
W0NIM11PW0NAQEhdMVtDQEBIXShbQ0BASF0oW0NAQEhdMltDQEhdMzQpT1tDSDNdKVtDSDJdTihbQ0BIXTVbT0hdKVtDQEBIXTRbQ0BIXTFbQ0BAXShbT0hdKShbQ0BIXTZbT0hdKVtDQEBdMihbQ0gyXVtPSF0pW0NASF01W0NAXTM2W0NIM10=

>  <s_epik_cmdline>  (57) 
J2VwaWtfcHl0aG9uJywgJy1waHQnLCAnMi4wJywgJy1waCcsICc3LjAnLCAnLXRuJywgJzgnLCAnLW1hJywgJzIwMCcsICctaW1hZScsICc8aW5maWxlLm1hZT4nLCAnLW9tYWUnLCAnPG91dGZpbGUubWFlPic=

>  <r_epik_Ionization_Penalty>  (57) 
1.68838

>  <r_epik_Ionization_Penalty_Charging>  (57) 
0.501809

>  <r_epik_Ionization_Penalty_Neutral>  (57) 
1.18657

>  <r_epik_State_Penalty>  (57) 
1.34118

>  <r_epik_Charging_Adjusted_Penalty>  (57) 
1.84298

>  <i_epik_Tot_Q>  (57) 
1

>  <i_epik_Tot_abs_Q>  (57) 
1

>  <s_epik_Chemistry_Notes>  (57) 
This compound contains an acetal/aminal-like group ( X-CH(R)-Y where X, Y are N, S, or O) that may be acid/base labile, releasing an aldehyde.

>  <s_lp_Force_Field>  (57) 
OPLS3e

>  <r_lp_Energy>  (57) 
573.72

>  <b_lp_Chiralities_Consistent>  (57) 
1

>  <s_lp_Variant>  (57) 
20:0-3

>  <s_i_glide_gridfile>  (57) 
pfpi4k_grid

>  <i_i_glide_lignum>  (57) 
33

>  <i_i_glide_rotatable_bonds>  (57) 
7

>  <r_i_docking_score>  (57) 
-3.89234

>  <r_i_glide_ligand_efficiency>  (57) 
-0.155694

>  <r_i_glide_ligand_efficiency_sa>  (57) 
-0.455251

>  <r_i_glide_ligand_efficiency_ln>  (57) 
-0.922601

>  <r_i_glide_gscore>  (57) 
-3.89234

>  <r_i_glide_lipo>  (57) 
-0.366299

>  <r_i_glide_hbond>  (57) 
-0.0965697

>  <r_i_glide_metal>  (57) 
-0

>  <r_i_glide_rewards>  (57) 
-1.08902

>  <r_i_glide_evdw>  (57) 
-16.342

>  <r_i_glide_ecoul>  (57) 
-10.8634

>  <r_i_glide_erotb>  (57) 
0.152123

>  <r_i_glide_esite>  (57) 
-0.0459568

>  <r_i_glide_emodel>  (57) 
-33.8249

>  <r_i_glide_energy>  (57) 
-27.2054

>  <r_i_glide_einternal>  (57) 
2.25656

>  <r_i_glide_intrahb_reward>  (57) 
-0

>  <i_i_glide_confnum>  (57) 
6

>  <i_i_glide_posenum>  (57) 
1

>  <r_i_glide_eff_state_penalty>  (57) 
0

>  <ligand_id>  (57) 
20

>  <original_smiles>  (57) 
COC1C2CN3C(O)C4C5(C)C6C3C1C(O)(C5O)C4(CO)C6C2OC

>  <smiles>  (57) 
[H]OC([H])([H])C12C3([H])C([H])(OC([H])([H])[H])C4([H])C([H])(OC([H])([H])[H])C5([H])C1(O[H])C([H])(O[H])C1(C([H])([H])[H])C2([H])C([H])(O[H])[N+]([H])(C4([H])[H])C5([H])C31[H]

$$$$
20:2:1
     RDKit          3D

 53 58  0  0  1  0  0  0  0  0999 V2000
    8.6257   -5.6418    1.3691 C   0  0  0  0  0  0  0  0  0  0  0  0
    7.6642   -5.0811    0.4811 O   0  0  0  0  0  0  0  0  0  0  0  0
    6.7384   -4.1745    1.0725 C   0  0  2  0  0  0  0  0  0  0  0  0
    5.7277   -4.9191    1.9885 C   0  0  2  0  0  0  0  0  0  0  0  0
    4.7765   -6.0604    1.3786 C   0  0  0  0  0  0  0  0  0  0  0  0
    4.0181   -5.6941    0.1227 N   0  0  1  0  0  0  0  0  0  0  0  0
    2.4409   -5.1812    0.1387 C   0  0  1  0  0  0  0  0  0  0  0  0
    1.7944   -5.7640    1.2720 O   0  0  0  0  0  0  0  0  0  0  0  0
    2.4758   -3.3485   -0.0359 C   0  0  2  0  0  0  0  0  0  0  0  0
    3.2715   -2.8762   -1.2398 C   0  0  2  0  0  0  0  0  0  0  0  0
    2.5733   -3.1227   -2.6008 C   0  0  0  0  0  0  0  0  0  0  0  0
    4.0849   -3.8780   -0.5279 C   0  0  2  0  0  0  0  0  0  0  0  0
    5.0413   -4.7811   -0.6228 C   0  0  1  0  0  0  0  0  0  0  0  0
    5.9417   -3.4639   -0.0366 C   0  0  1  0  0  0  0  0  0  0  0  0
    4.9841   -1.9601    0.2599 C   0  0  1  0  0  0  0  0  0  0  0  0
    5.6755   -0.8951    0.8611 O   0  0  0  0  0  0  0  0  0  0  0  0
    4.1652   -1.5550   -1.0337 C   0  0  1  0  0  0  0  0  0  0  0  0
    5.0161   -1.3306   -2.1430 O   0  0  0  0  0  0  0  0  0  0  0  0
    3.4936   -2.3508    0.8666 C   0  0  1  0  0  0  0  0  0  0  0  0
    2.8228   -1.4293    1.9119 C   0  0  0  0  0  0  0  0  0  0  0  0
    2.2383   -0.3101    1.2859 O   0  0  0  0  0  0  0  0  0  0  0  0
    3.9040   -3.5316    1.2682 C   0  0  2  0  0  0  0  0  0  0  0  0
    4.9013   -3.7511    2.4492 C   0  0  1  0  0  0  0  0  0  0  0  0
    4.2341   -4.1302    3.6598 O   0  0  0  0  0  0  0  0  0  0  0  0
    5.0004   -3.9569    4.8495 C   0  0  0  0  0  0  0  0  0  0  0  0
    9.3267   -6.2435    0.7938 H   0  0  0  0  0  0  0  0  0  0  0  0
    8.1595   -6.3022    2.0954 H   0  0  0  0  0  0  0  0  0  0  0  0
    9.1950   -4.8786    1.9004 H   0  0  0  0  0  0  0  0  0  0  0  0
    7.3145   -3.4266    1.6221 H   0  0  0  0  0  0  0  0  0  0  0  0
    6.2924   -5.3457    2.8203 H   0  0  0  0  0  0  0  0  0  0  0  0
    5.4413   -6.8705    1.0921 H   0  0  0  0  0  0  0  0  0  0  0  0
    4.1311   -6.4818    2.1505 H   0  0  0  0  0  0  0  0  0  0  0  0
    1.9092   -5.5745   -0.7175 H   0  0  0  0  0  0  0  0  0  0  0  0
    2.4056   -6.2575    1.8006 H   0  0  0  0  0  0  0  0  0  0  0  0
    1.4747   -2.9458   -0.0855 H   0  0  0  0  0  0  0  0  0  0  0  0
    3.2735   -3.0771   -3.4365 H   0  0  0  0  0  0  0  0  0  0  0  0
    1.8114   -2.3623   -2.7719 H   0  0  0  0  0  0  0  0  0  0  0  0
    2.0578   -4.0814   -2.6401 H   0  0  0  0  0  0  0  0  0  0  0  0
    4.5532   -3.5791   -1.4932 H   0  0  0  0  0  0  0  0  0  0  0  0
    5.3377   -5.2003   -1.5811 H   0  0  0  0  0  0  0  0  0  0  0  0
    6.6685   -3.1742   -0.7968 H   0  0  0  0  0  0  0  0  0  0  0  0
    5.0962   -0.1457    0.8742 H   0  0  0  0  0  0  0  0  0  0  0  0
    3.5377   -0.6701   -0.9038 H   0  0  0  0  0  0  0  0  0  0  0  0
    4.4725   -1.0488   -2.8638 H   0  0  0  0  0  0  0  0  0  0  0  0
    2.0423   -1.9498    2.4678 H   0  0  0  0  0  0  0  0  0  0  0  0
    3.5533   -1.0700    2.6354 H   0  0  0  0  0  0  0  0  0  0  0  0
    1.6300   -0.5964    0.6004 H   0  0  0  0  0  0  0  0  0  0  0  0
    3.0748   -3.8846    1.9040 H   0  0  0  0  0  0  0  0  0  0  0  0
    5.4827   -2.8498    2.6733 H   0  0  0  0  0  0  0  0  0  0  0  0
    4.4350   -4.3268    5.7035 H   0  0  0  0  0  0  0  0  0  0  0  0
    5.2112   -2.9028    5.0229 H   0  0  0  0  0  0  0  0  0  0  0  0
    5.9486   -4.4942    4.8424 H   0  0  0  0  0  0  0  0  0  0  0  0
    3.9773   -6.5337   -0.4210 H   0  0  0  0  0  0  0  0  0  0  0  0
  1  2  1  0
  1 26  1  0
  1 27  1  0
  1 28  1  0
  2  3  1  0
  3 14  1  0
  3  4  1  0
  3 29  1  1
  4 23  1  0
  4  5  1  0
  4 30  1  1
  5  6  1  0
  5 31  1  0
  5 32  1  0
  6 13  1  0
  6  7  1  0
  6 53  1  6
  7  8  1  0
  7  9  1  0
  7 33  1  6
  8 34  1  0
  9 19  1  0
  9 10  1  0
  9 35  1  6
 10 17  1  0
 10 11  1  6
 10 12  1  0
 11 36  1  0
 11 37  1  0
 11 38  1  0
 12 22  1  0
 12 13  1  0
 12 39  1  1
 13 14  1  0
 13 40  1  6
 14 15  1  0
 14 41  1  6
 15 16  1  1
 15 17  1  0
 15 19  1  0
 16 42  1  0
 17 18  1  0
 17 43  1  1
 18 44  1  0
 19 20  1  1
 19 22  1  0
 20 21  1  0
 20 45  1  0
 20 46  1  0
 21 47  1  0
 22 23  1  0
 22 48  1  1
 23 24  1  0
 23 49  1  1
 24 25  1  0
 25 50  1  0
 25 51  1  0
 25 52  1  0
M  CHG  1   6   1
M  END
>  <i_m_ct_stereo_status>  (58) 
1

>  <s_m_source_file>  (58) 
/var/tmp/pbs.5076255.sched01/tmphbojuwnv/0fr5z8inm.sdf

>  <i_m_source_file_index>  (58) 
33

>  <i_lp_mmshare_version>  (58) 
48012

>  <i_f3d_flags>  (58) 
0

>  <s_epik_input>  (58) 
W0NIM11PW0NAQEhdMVtDQEBIXShbQ0BASF0oW0NAQEhdMltDQEhdMzQpT1tDSDNdKVtDSDJdTihbQ0BIXTVbT0hdKVtDQEBIXTRbQ0BIXTFbQ0BAXShbT0hdKShbQ0BIXTZbT0hdKVtDQEBdMihbQ0gyXVtPSF0pW0NASF01W0NAXTM2W0NIM10=

>  <s_epik_cmdline>  (58) 
J2VwaWtfcHl0aG9uJywgJy1waHQnLCAnMi4wJywgJy1waCcsICc3LjAnLCAnLXRuJywgJzgnLCAnLW1hJywgJzIwMCcsICctaW1hZScsICc8aW5maWxlLm1hZT4nLCAnLW9tYWUnLCAnPG91dGZpbGUubWFlPic=

>  <r_epik_Ionization_Penalty>  (58) 
1.68838

>  <r_epik_Ionization_Penalty_Charging>  (58) 
0.501809

>  <r_epik_Ionization_Penalty_Neutral>  (58) 
1.18657

>  <r_epik_State_Penalty>  (58) 
1.34118

>  <r_epik_Charging_Adjusted_Penalty>  (58) 
1.84298

>  <i_epik_Tot_Q>  (58) 
1

>  <i_epik_Tot_abs_Q>  (58) 
1

>  <s_epik_Chemistry_Notes>  (58) 
This compound contains an acetal/aminal-like group ( X-CH(R)-Y where X, Y are N, S, or O) that may be acid/base labile, releasing an aldehyde.

>  <s_lp_Force_Field>  (58) 
OPLS3e

>  <r_lp_Energy>  (58) 
573.72

>  <b_lp_Chiralities_Consistent>  (58) 
1

>  <s_lp_Variant>  (58) 
20:0-3

>  <s_i_glide_gridfile>  (58) 
pfpi4k_grid

>  <i_i_glide_lignum>  (58) 
33

>  <i_i_glide_rotatable_bonds>  (58) 
7

>  <r_i_docking_score>  (58) 
-3.86092

>  <r_i_glide_ligand_efficiency>  (58) 
-0.154437

>  <r_i_glide_ligand_efficiency_sa>  (58) 
-0.451575

>  <r_i_glide_ligand_efficiency_ln>  (58) 
-0.915153

>  <r_i_glide_gscore>  (58) 
-3.86092

>  <r_i_glide_lipo>  (58) 
-0.380484

>  <r_i_glide_hbond>  (58) 
-0.219096

>  <r_i_glide_metal>  (58) 
-0

>  <r_i_glide_rewards>  (58) 
-0.992604

>  <r_i_glide_evdw>  (58) 
-18.4679

>  <r_i_glide_ecoul>  (58) 
-9.56844

>  <r_i_glide_erotb>  (58) 
0.152123

>  <r_i_glide_esite>  (58) 
-0.0621928

>  <r_i_glide_emodel>  (58) 
-34.9244

>  <r_i_glide_energy>  (58) 
-28.0363

>  <r_i_glide_einternal>  (58) 
1.91123

>  <r_i_glide_intrahb_reward>  (58) 
-0

>  <i_i_glide_confnum>  (58) 
4

>  <i_i_glide_posenum>  (58) 
32

>  <r_i_glide_eff_state_penalty>  (58) 
0

>  <ligand_id>  (58) 
20

>  <original_smiles>  (58) 
COC1C2CN3C(O)C4C5(C)C6C3C1C(O)(C5O)C4(CO)C6C2OC

>  <smiles>  (58) 
[H]OC([H])([H])C12C3([H])C([H])(OC([H])([H])[H])C4([H])C([H])(OC([H])([H])[H])C5([H])C1(O[H])C([H])(O[H])C1(C([H])([H])[H])C2([H])C([H])(O[H])[N+]([H])(C4([H])[H])C5([H])C31[H]

$$$$
20:2:2
     RDKit          3D

 53 58  0  0  1  0  0  0  0  0999 V2000
    7.3620   -5.9908    3.0658 C   0  0  0  0  0  0  0  0  0  0  0  0
    6.1240   -6.0204    2.3533 O   0  0  0  0  0  0  0  0  0  0  0  0
    5.3114   -4.8656    2.5321 C   0  0  2  0  0  0  0  0  0  0  0  0
    3.8363   -5.2148    2.1877 C   0  0  2  0  0  0  0  0  0  0  0  0
    3.4244   -5.7005    0.7219 C   0  0  0  0  0  0  0  0  0  0  0  0
    3.9502   -4.8510   -0.4155 N   0  0  1  0  0  0  0  0  0  0  0  0
    3.0308   -3.7129   -1.1930 C   0  0  1  0  0  0  0  0  0  0  0  0
    1.7197   -4.2041   -1.0870 O   0  0  0  0  0  0  0  0  0  0  0  0
    3.5341   -2.0713   -0.5292 C   0  0  2  0  0  0  0  0  0  0  0  0
    5.0366   -1.8563   -0.6159 C   0  0  2  0  0  0  0  0  0  0  0  0
    5.5589   -1.5991   -2.0449 C   0  0  0  0  0  0  0  0  0  0  0  0
    4.8339   -3.2057   -0.0608 C   0  0  2  0  0  0  0  0  0  0  0  0
    5.3447   -4.4039    0.1099 C   0  0  1  0  0  0  0  0  0  0  0  0
    5.7518   -3.7207    1.5979 C   0  0  1  0  0  0  0  0  0  0  0  0
    5.2217   -2.0069    1.8264 C   0  0  1  0  0  0  0  0  0  0  0  0
    5.3808   -1.4867    3.1013 O   0  0  0  0  0  0  0  0  0  0  0  0
    5.7466   -1.1228    0.6235 C   0  0  1  0  0  0  0  0  0  0  0  0
    7.1558   -1.1624    0.4799 O   0  0  0  0  0  0  0  0  0  0  0  0
    3.7362   -1.7808    1.1258 C   0  0  1  0  0  0  0  0  0  0  0  0
    2.7272   -0.8097    1.7912 C   0  0  0  0  0  0  0  0  0  0  0  0
    3.2189    0.5110    1.7311 O   0  0  0  0  0  0  0  0  0  0  0  0
    3.4589   -3.0579    1.1640 C   0  0  2  0  0  0  0  0  0  0  0  0
    3.1907   -3.8793    2.4624 C   0  0  1  0  0  0  0  0  0  0  0  0
    1.7963   -4.0872    2.6758 O   0  0  0  0  0  0  0  0  0  0  0  0
    1.4265   -4.4285    4.0072 C   0  0  0  0  0  0  0  0  0  0  0  0
    7.9587   -6.8721    2.8232 H   0  0  0  0  0  0  0  0  0  0  0  0
    7.2032   -5.9854    4.1465 H   0  0  0  0  0  0  0  0  0  0  0  0
    7.9841   -5.1306    2.8167 H   0  0  0  0  0  0  0  0  0  0  0  0
    5.3785   -4.5473    3.5761 H   0  0  0  0  0  0  0  0  0  0  0  0
    3.5139   -5.9736    2.9002 H   0  0  0  0  0  0  0  0  0  0  0  0
    3.8833   -6.6697    0.5887 H   0  0  0  0  0  0  0  0  0  0  0  0
    2.3559   -5.8873    0.6341 H   0  0  0  0  0  0  0  0  0  0  0  0
    3.2729   -3.7147   -2.2535 H   0  0  0  0  0  0  0  0  0  0  0  0
    1.3106   -4.0984   -1.9395 H   0  0  0  0  0  0  0  0  0  0  0  0
    3.0232   -1.2410   -1.0198 H   0  0  0  0  0  0  0  0  0  0  0  0
    6.6285   -1.7857   -2.1105 H   0  0  0  0  0  0  0  0  0  0  0  0
    5.3710   -0.5602   -2.3148 H   0  0  0  0  0  0  0  0  0  0  0  0
    5.0779   -2.2283   -2.7935 H   0  0  0  0  0  0  0  0  0  0  0  0
    5.9106   -3.0224   -0.2849 H   0  0  0  0  0  0  0  0  0  0  0  0
    6.1602   -4.7991   -0.5066 H   0  0  0  0  0  0  0  0  0  0  0  0
    6.8321   -3.6536    1.6446 H   0  0  0  0  0  0  0  0  0  0  0  0
    5.1055   -0.5741    3.0832 H   0  0  0  0  0  0  0  0  0  0  0  0
    5.4492   -0.0772    0.6812 H   0  0  0  0  0  0  0  0  0  0  0  0
    7.4838   -2.0158    0.7358 H   0  0  0  0  0  0  0  0  0  0  0  0
    1.7647   -0.8468    1.2819 H   0  0  0  0  0  0  0  0  0  0  0  0
    2.5608   -1.0751    2.8327 H   0  0  0  0  0  0  0  0  0  0  0  0
    2.5372    1.1033    2.0200 H   0  0  0  0  0  0  0  0  0  0  0  0
    2.3881   -3.0872    0.9010 H   0  0  0  0  0  0  0  0  0  0  0  0
    3.5717   -3.3702    3.3485 H   0  0  0  0  0  0  0  0  0  0  0  0
    0.3529   -4.6143    4.0543 H   0  0  0  0  0  0  0  0  0  0  0  0
    1.6449   -3.6105    4.6934 H   0  0  0  0  0  0  0  0  0  0  0  0
    1.9189   -5.3286    4.3773 H   0  0  0  0  0  0  0  0  0  0  0  0
    4.0832   -5.5101   -1.1668 H   0  0  0  0  0  0  0  0  0  0  0  0
  1  2  1  0
  1 26  1  0
  1 27  1  0
  1 28  1  0
  2  3  1  0
  3 14  1  0
  3  4  1  0
  3 29  1  1
  4 23  1  0
  4  5  1  0
  4 30  1  1
  5  6  1  0
  5 31  1  0
  5 32  1  0
  6 13  1  0
  6  7  1  0
  6 53  1  6
  7  8  1  0
  7  9  1  0
  7 33  1  6
  8 34  1  0
  9 19  1  0
  9 10  1  0
  9 35  1  6
 10 17  1  0
 10 11  1  6
 10 12  1  0
 11 36  1  0
 11 37  1  0
 11 38  1  0
 12 22  1  0
 12 13  1  0
 12 39  1  6
 13 14  1  0
 13 40  1  6
 14 15  1  0
 14 41  1  6
 15 16  1  1
 15 17  1  0
 15 19  1  0
 16 42  1  0
 17 18  1  0
 17 43  1  1
 18 44  1  0
 19 20  1  1
 19 22  1  0
 20 21  1  0
 20 45  1  0
 20 46  1  0
 21 47  1  0
 22 23  1  0
 22 48  1  6
 23 24  1  0
 23 49  1  1
 24 25  1  0
 25 50  1  0
 25 51  1  0
 25 52  1  0
M  CHG  1   6   1
M  END
>  <i_m_ct_stereo_status>  (59) 
1

>  <s_m_source_file>  (59) 
/var/tmp/pbs.5076255.sched01/tmphbojuwnv/0fr5z8inm.sdf

>  <i_m_source_file_index>  (59) 
33

>  <i_lp_mmshare_version>  (59) 
48012

>  <i_f3d_flags>  (59) 
0

>  <s_epik_input>  (59) 
W0NIM11PW0NAQEhdMVtDQEBIXShbQ0BASF0oW0NAQEhdMltDQEhdMzQpT1tDSDNdKVtDSDJdTihbQ0BIXTVbT0hdKVtDQEBIXTRbQ0BIXTFbQ0BAXShbT0hdKShbQ0BIXTZbT0hdKVtDQEBdMihbQ0gyXVtPSF0pW0NASF01W0NAXTM2W0NIM10=

>  <s_epik_cmdline>  (59) 
J2VwaWtfcHl0aG9uJywgJy1waHQnLCAnMi4wJywgJy1waCcsICc3LjAnLCAnLXRuJywgJzgnLCAnLW1hJywgJzIwMCcsICctaW1hZScsICc8aW5maWxlLm1hZT4nLCAnLW9tYWUnLCAnPG91dGZpbGUubWFlPic=

>  <r_epik_Ionization_Penalty>  (59) 
1.68838

>  <r_epik_Ionization_Penalty_Charging>  (59) 
0.501809

>  <r_epik_Ionization_Penalty_Neutral>  (59) 
1.18657

>  <r_epik_State_Penalty>  (59) 
1.34118

>  <r_epik_Charging_Adjusted_Penalty>  (59) 
1.84298

>  <i_epik_Tot_Q>  (59) 
1

>  <i_epik_Tot_abs_Q>  (59) 
1

>  <s_epik_Chemistry_Notes>  (59) 
This compound contains an acetal/aminal-like group ( X-CH(R)-Y where X, Y are N, S, or O) that may be acid/base labile, releasing an aldehyde.

>  <s_lp_Force_Field>  (59) 
OPLS3e

>  <r_lp_Energy>  (59) 
573.72

>  <b_lp_Chiralities_Consistent>  (59) 
1

>  <s_lp_Variant>  (59) 
20:0-3

>  <s_i_glide_gridfile>  (59) 
pfpi4k_grid

>  <i_i_glide_lignum>  (59) 
33

>  <i_i_glide_rotatable_bonds>  (59) 
7

>  <r_i_docking_score>  (59) 
-3.09518

>  <r_i_glide_ligand_efficiency>  (59) 
-0.123807

>  <r_i_glide_ligand_efficiency_sa>  (59) 
-0.362015

>  <r_i_glide_ligand_efficiency_ln>  (59) 
-0.733651

>  <r_i_glide_gscore>  (59) 
-3.09518

>  <r_i_glide_lipo>  (59) 
-0.362991

>  <r_i_glide_hbond>  (59) 
-0.000738233

>  <r_i_glide_metal>  (59) 
-0

>  <r_i_glide_rewards>  (59) 
-1.022

>  <r_i_glide_evdw>  (59) 
-16.3575

>  <r_i_glide_ecoul>  (59) 
-6.69851

>  <r_i_glide_erotb>  (59) 
0.152123

>  <r_i_glide_esite>  (59) 
-0.038921

>  <r_i_glide_emodel>  (59) 
-27.814

>  <r_i_glide_energy>  (59) 
-23.056

>  <r_i_glide_einternal>  (59) 
2.45309

>  <r_i_glide_intrahb_reward>  (59) 
-0

>  <i_i_glide_confnum>  (59) 
3

>  <i_i_glide_posenum>  (59) 
4

>  <r_i_glide_eff_state_penalty>  (59) 
0

>  <ligand_id>  (59) 
20

>  <original_smiles>  (59) 
COC1C2CN3C(O)C4C5(C)C6C3C1C(O)(C5O)C4(CO)C6C2OC

>  <smiles>  (59) 
[H]OC([H])([H])C12C3([H])C([H])(OC([H])([H])[H])C4([H])C([H])(OC([H])([H])[H])C5([H])C1(O[H])C([H])(O[H])C1(C([H])([H])[H])C2([H])C([H])(O[H])[N+]([H])(C4([H])[H])C5([H])C31[H]

$$$$
21:0:0
     RDKit          3D

 55 60  0  0  1  0  0  0  0  0999 V2000
    0.3875    4.9200    4.0017 C   0  0  0  0  0  0  0  0  0  0  0  0
   -0.3356    3.7125    4.6134 C   0  0  0  0  0  0  0  0  0  0  0  0
    0.4529    2.5027    4.4640 N   0  0  0  0  0  0  0  0  0  0  0  0
    1.5519    2.3151    5.2380 N   0  0  0  0  0  0  0  0  0  0  0  0
    2.0618    1.1655    4.8036 C   0  0  0  0  0  0  0  0  0  0  0  0
    1.3115    0.5484    3.7756 C   0  0  0  0  0  0  0  0  0  0  0  0
    0.3073    1.4424    3.5969 C   0  0  0  0  0  0  0  0  0  0  0  0
   -0.9773    1.3347    2.4690 Cl  0  0  0  0  0  0  0  0  0  0  0  0
    1.6617   -0.7503    3.1064 C   0  0  0  0  0  0  0  0  0  0  0  0
    2.7793   -1.5156    3.8890 C   0  0  1  0  0  0  0  0  0  0  0  0
    2.0810   -2.2151    5.0900 C   0  0  0  0  0  0  0  0  0  0  0  0
    3.4778   -2.6193    3.0208 C   0  0  1  0  0  0  0  0  0  0  0  0
    2.5329   -3.5114    2.1939 C   0  0  0  0  0  0  0  0  0  0  0  0
    2.7178   -3.1298    0.7107 C   0  0  2  0  0  0  0  0  0  0  0  0
    3.0105   -4.3216   -0.1746 C   0  0  2  0  0  0  0  0  0  0  0  0
    4.2139   -5.2168    0.0227 C   0  0  0  0  0  0  0  0  0  0  0  0
    4.2701   -4.0560   -0.9396 C   0  0  2  0  0  0  0  0  0  0  0  0
    4.8518   -2.7321   -0.5207 C   0  0  0  0  0  0  0  0  0  0  0  0
    3.9269   -2.1727    0.5925 C   0  0  1  0  0  0  0  0  0  0  0  0
    3.4798   -0.8918    0.2073 O   0  0  0  0  0  0  0  0  0  0  0  0
    4.5522   -2.1538    2.0036 C   0  0  1  0  0  0  0  0  0  0  0  0
    5.3911   -0.9173    2.3948 C   0  0  0  0  0  0  0  0  0  0  0  0
    4.6341    0.1169    3.2383 C   0  0  0  0  0  0  0  0  0  0  0  0
    3.8761   -0.5161    4.4275 C   0  0  2  0  0  0  0  0  0  0  0  0
    4.8377   -1.2068    5.2105 O   0  0  0  0  0  0  0  0  0  0  0  0
    3.3212    0.5950    5.3629 C   0  0  0  0  0  0  0  0  0  0  0  0
   -0.1943    5.8349    4.1025 H   0  0  0  0  0  0  0  0  0  0  0  0
    0.5775    4.7576    2.9398 H   0  0  0  0  0  0  0  0  0  0  0  0
    1.3500    5.0788    4.4855 H   0  0  0  0  0  0  0  0  0  0  0  0
   -0.5224    3.8754    5.6763 H   0  0  0  0  0  0  0  0  0  0  0  0
   -1.3075    3.5735    4.1379 H   0  0  0  0  0  0  0  0  0  0  0  0
    0.7765   -1.3663    2.9627 H   0  0  0  0  0  0  0  0  0  0  0  0
    1.9996   -0.5268    2.1031 H   0  0  0  0  0  0  0  0  0  0  0  0
    2.7906   -2.7439    5.7328 H   0  0  0  0  0  0  0  0  0  0  0  0
    1.3361   -2.9426    4.7621 H   0  0  0  0  0  0  0  0  0  0  0  0
    1.5542   -1.4988    5.7229 H   0  0  0  0  0  0  0  0  0  0  0  0
    3.9929   -3.2775    3.7268 H   0  0  0  0  0  0  0  0  0  0  0  0
    2.8109   -4.5536    2.3500 H   0  0  0  0  0  0  0  0  0  0  0  0
    1.4921   -3.4342    2.4999 H   0  0  0  0  0  0  0  0  0  0  0  0
    1.8124   -2.6561    0.3331 H   0  0  0  0  0  0  0  0  0  0  0  0
    2.1638   -4.7471   -0.7098 H   0  0  0  0  0  0  0  0  0  0  0  0
    4.7667   -5.1324    0.9563 H   0  0  0  0  0  0  0  0  0  0  0  0
    4.1564   -6.2184   -0.3995 H   0  0  0  0  0  0  0  0  0  0  0  0
    4.2581   -4.2616   -2.0081 H   0  0  0  0  0  0  0  0  0  0  0  0
    5.8793   -2.8918   -0.1904 H   0  0  0  0  0  0  0  0  0  0  0  0
    4.8977   -2.0813   -1.3923 H   0  0  0  0  0  0  0  0  0  0  0  0
    2.6961   -0.9993   -0.3237 H   0  0  0  0  0  0  0  0  0  0  0  0
    5.2728   -2.9740    1.9867 H   0  0  0  0  0  0  0  0  0  0  0  0
    6.2487   -1.2531    2.9686 H   0  0  0  0  0  0  0  0  0  0  0  0
    5.8076   -0.4426    1.5069 H   0  0  0  0  0  0  0  0  0  0  0  0
    5.3384    0.8642    3.6062 H   0  0  0  0  0  0  0  0  0  0  0  0
    3.9413    0.6521    2.5900 H   0  0  0  0  0  0  0  0  0  0  0  0
    5.2133   -1.8884    4.6730 H   0  0  0  0  0  0  0  0  0  0  0  0
    4.0628    1.3745    5.5411 H   0  0  0  0  0  0  0  0  0  0  0  0
    3.0924    0.1624    6.3386 H   0  0  0  0  0  0  0  0  0  0  0  0
  1  2  1  0
  1 27  1  0
  1 28  1  0
  1 29  1  0
  2  3  1  0
  2 30  1  0
  2 31  1  0
  3  7  1  0
  3  4  1  0
  4  5  2  0
  5 26  1  0
  5  6  1  0
  6  7  2  0
  6  9  1  0
  7  8  1  0
  9 10  1  0
  9 32  1  0
  9 33  1  0
 10 24  1  0
 10 11  1  1
 10 12  1  0
 11 34  1  0
 11 35  1  0
 11 36  1  0
 12 21  1  0
 12 13  1  0
 12 37  1  1
 13 14  1  0
 13 38  1  0
 13 39  1  0
 14 19  1  0
 14 15  1  0
 14 40  1  6
 15 17  1  0
 15 16  1  0
 15 41  1  6
 16 17  1  0
 16 42  1  0
 16 43  1  0
 17 18  1  0
 17 44  1  6
 18 19  1  0
 18 45  1  0
 18 46  1  0
 19 20  1  6
 19 21  1  0
 20 47  1  0
 21 22  1  0
 21 48  1  6
 22 23  1  0
 22 49  1  0
 22 50  1  0
 23 24  1  0
 23 51  1  0
 23 52  1  0
 24 25  1  1
 24 26  1  0
 25 53  1  0
 26 54  1  0
 26 55  1  0
M  END
>  <i_m_ct_stereo_status>  (60) 
1

>  <s_m_source_file>  (60) 
/var/tmp/pbs.5076255.sched01/tmphbojuwnv/0fr5z8inm.sdf

>  <i_m_source_file_index>  (60) 
34

>  <i_lp_mmshare_version>  (60) 
48012

>  <i_f3d_flags>  (60) 
0

>  <s_epik_input>  (60) 
W0NIM11bQ0gyXW4objEpYyhDbCljKFtDSDJdMiljMVtDSDJdW0NAXTMoW09IXSlbQ0gyXVtDSDJdW0NAQEhdKFtDQEhdNFtDQF0yM1tDSDNdKVtDQF01KFtPSF0pW0NASF0oW0NIMl00KVtDQEhdNltDQEhdKFtDSDJdNilbQ0gyXTU=

>  <s_epik_cmdline>  (60) 
J2VwaWtfcHl0aG9uJywgJy1waHQnLCAnMi4wJywgJy1waCcsICc3LjAnLCAnLXRuJywgJzgnLCAnLW1hJywgJzIwMCcsICctaW1hZScsICc8aW5maWxlLm1hZT4nLCAnLW9tYWUnLCAnPG91dGZpbGUubWFlPic=

>  <r_lp_tautomer_probability>  (60) 
1

>  <r_epik_Ionization_Penalty>  (60) 
0.0425688

>  <r_epik_Ionization_Penalty_Charging>  (60) 
0

>  <r_epik_Ionization_Penalty_Neutral>  (60) 
0.0425688

>  <r_epik_State_Penalty>  (60) 
0.035961

>  <r_epik_Charging_Adjusted_Penalty>  (60) 
0.035961

>  <i_epik_Tot_Q>  (60) 
0

>  <i_epik_Tot_abs_Q>  (60) 
0

>  <s_lp_Force_Field>  (60) 
OPLS3e

>  <r_lp_Energy>  (60) 
41.0014

>  <b_lp_Chiralities_Consistent>  (60) 
1

>  <s_lp_Variant>  (60) 
21:0-1

>  <s_i_glide_gridfile>  (60) 
pfpi4k_grid

>  <i_i_glide_lignum>  (60) 
34

>  <i_i_glide_rotatable_bonds>  (60) 
3

>  <r_i_docking_score>  (60) 
-2.59449

>  <r_i_glide_ligand_efficiency>  (60) 
-0.0997882

>  <r_i_glide_ligand_efficiency_sa>  (60) 
-0.295622

>  <r_i_glide_ligand_efficiency_ln>  (60) 
-0.609308

>  <r_i_glide_gscore>  (60) 
-2.59449

>  <r_i_glide_lipo>  (60) 
-0.174203

>  <r_i_glide_hbond>  (60) 
-0.16

>  <r_i_glide_metal>  (60) 
-0

>  <r_i_glide_rewards>  (60) 
-0.839183

>  <r_i_glide_evdw>  (60) 
-19.5568

>  <r_i_glide_ecoul>  (60) 
-2.8387

>  <r_i_glide_erotb>  (60) 
0

>  <r_i_glide_esite>  (60) 
-0.0174612

>  <r_i_glide_emodel>  (60) 
-25.3949

>  <r_i_glide_energy>  (60) 
-22.3955

>  <r_i_glide_einternal>  (60) 
0.848159

>  <r_i_glide_intrahb_reward>  (60) 
-0

>  <i_i_glide_confnum>  (60) 
2

>  <i_i_glide_posenum>  (60) 
2

>  <r_i_glide_eff_state_penalty>  (60) 
0

>  <ligand_id>  (60) 
21

>  <original_smiles>  (60) 
CCn1nc2c(c1Cl)CC1(C)C3CC4C5CC5CC4(O)C3CCC1(O)C2

>  <smiles>  (60) 
[H]OC12C([H])([H])C3([H])C([H])([H])C3([H])C1([H])C([H])([H])C1([H])C2([H])C([H])([H])C([H])([H])C2(O[H])C([H])([H])c3nn(C([H])([H])C([H])([H])[H])c(Cl)c3C([H])([H])C12C([H])([H])[H]

$$$$
21:0:1
     RDKit          3D

 55 60  0  0  1  0  0  0  0  0999 V2000
    3.3274   -6.2176    6.0928 C   0  0  0  0  0  0  0  0  0  0  0  0
    3.8767   -5.8342    4.7133 C   0  0  0  0  0  0  0  0  0  0  0  0
    3.6401   -4.4315    4.4309 N   0  0  0  0  0  0  0  0  0  0  0  0
    4.5495   -3.4950    4.7966 N   0  0  0  0  0  0  0  0  0  0  0  0
    3.9869   -2.3417    4.4438 C   0  0  0  0  0  0  0  0  0  0  0  0
    2.7118   -2.4764    3.8431 C   0  0  0  0  0  0  0  0  0  0  0  0
    2.5467   -3.8263    3.8573 C   0  0  0  0  0  0  0  0  0  0  0  0
    1.1995   -4.7330    3.3022 Cl  0  0  0  0  0  0  0  0  0  0  0  0
    1.8542   -1.3293    3.3777 C   0  0  0  0  0  0  0  0  0  0  0  0
    2.6600    0.0130    3.3320 C   0  0  1  0  0  0  0  0  0  0  0  0
    3.4897   -0.0231    2.0165 C   0  0  0  0  0  0  0  0  0  0  0  0
    1.7296    1.2756    3.2922 C   0  0  1  0  0  0  0  0  0  0  0  0
    0.5377    1.1938    2.3205 C   0  0  0  0  0  0  0  0  0  0  0  0
   -0.7437    1.0766    3.1718 C   0  0  2  0  0  0  0  0  0  0  0  0
   -1.7878    2.1036    2.8030 C   0  0  2  0  0  0  0  0  0  0  0  0
   -1.5533    3.5915    2.9082 C   0  0  0  0  0  0  0  0  0  0  0  0
   -2.1987    2.8383    4.0411 C   0  0  2  0  0  0  0  0  0  0  0  0
   -1.3738    2.3670    5.2113 C   0  0  0  0  0  0  0  0  0  0  0  0
   -0.3848    1.3089    4.6578 C   0  0  1  0  0  0  0  0  0  0  0  0
   -0.5737    0.1185    5.3967 O   0  0  0  0  0  0  0  0  0  0  0  0
    1.0982    1.7455    4.6322 C   0  0  1  0  0  0  0  0  0  0  0  0
    1.9370    1.5188    5.9116 C   0  0  0  0  0  0  0  0  0  0  0  0
    2.8042    0.2510    5.8758 C   0  0  0  0  0  0  0  0  0  0  0  0
    3.6306    0.1332    4.5716 C   0  0  2  0  0  0  0  0  0  0  0  0
    4.4094    1.3197    4.4875 O   0  0  0  0  0  0  0  0  0  0  0  0
    4.6563   -1.0306    4.6856 C   0  0  0  0  0  0  0  0  0  0  0  0
    3.5094   -7.2695    6.3096 H   0  0  0  0  0  0  0  0  0  0  0  0
    2.2521   -6.0433    6.1488 H   0  0  0  0  0  0  0  0  0  0  0  0
    3.8018   -5.6238    6.8725 H   0  0  0  0  0  0  0  0  0  0  0  0
    4.9492   -6.0286    4.6598 H   0  0  0  0  0  0  0  0  0  0  0  0
    3.4070   -6.4384    3.9350 H   0  0  0  0  0  0  0  0  0  0  0  0
    1.3891   -1.5508    2.4174 H   0  0  0  0  0  0  0  0  0  0  0  0
    1.0246   -1.2336    4.0655 H   0  0  0  0  0  0  0  0  0  0  0  0
    4.1243    0.8562    1.8958 H   0  0  0  0  0  0  0  0  0  0  0  0
    2.8497   -0.0733    1.1326 H   0  0  0  0  0  0  0  0  0  0  0  0
    4.1431   -0.8967    1.9727 H   0  0  0  0  0  0  0  0  0  0  0  0
    2.3608    2.1027    2.9507 H   0  0  0  0  0  0  0  0  0  0  0  0
    0.5067    2.1084    1.7275 H   0  0  0  0  0  0  0  0  0  0  0  0
    0.6182    0.3872    1.5944 H   0  0  0  0  0  0  0  0  0  0  0  0
   -1.1896    0.0931    3.0382 H   0  0  0  0  0  0  0  0  0  0  0  0
   -2.5478    1.7893    2.0895 H   0  0  0  0  0  0  0  0  0  0  0  0
   -0.5267    3.9349    3.0296 H   0  0  0  0  0  0  0  0  0  0  0  0
   -2.1906    4.2296    2.3047 H   0  0  0  0  0  0  0  0  0  0  0  0
   -3.2641    2.9820    4.2096 H   0  0  0  0  0  0  0  0  0  0  0  0
   -0.8685    3.2229    5.6616 H   0  0  0  0  0  0  0  0  0  0  0  0
   -2.0384    1.9555    5.9690 H   0  0  0  0  0  0  0  0  0  0  0  0
    0.0209   -0.5240    5.0423 H   0  0  0  0  0  0  0  0  0  0  0  0
    1.0554    2.8316    4.5310 H   0  0  0  0  0  0  0  0  0  0  0  0
    2.5959    2.3758    6.0535 H   0  0  0  0  0  0  0  0  0  0  0  0
    1.2923    1.5053    6.7884 H   0  0  0  0  0  0  0  0  0  0  0  0
    3.4614    0.2519    6.7466 H   0  0  0  0  0  0  0  0  0  0  0  0
    2.1632   -0.6207    6.0005 H   0  0  0  0  0  0  0  0  0  0  0  0
    4.5417    1.5404    3.5784 H   0  0  0  0  0  0  0  0  0  0  0  0
    5.1639   -1.0215    5.6505 H   0  0  0  0  0  0  0  0  0  0  0  0
    5.4360   -0.9055    3.9320 H   0  0  0  0  0  0  0  0  0  0  0  0
  1  2  1  0
  1 27  1  0
  1 28  1  0
  1 29  1  0
  2  3  1  0
  2 30  1  0
  2 31  1  0
  3  7  1  0
  3  4  1  0
  4  5  2  0
  5 26  1  0
  5  6  1  0
  6  7  2  0
  6  9  1  0
  7  8  1  0
  9 10  1  0
  9 32  1  0
  9 33  1  0
 10 24  1  0
 10 11  1  6
 10 12  1  0
 11 34  1  0
 11 35  1  0
 11 36  1  0
 12 21  1  0
 12 13  1  0
 12 37  1  6
 13 14  1  0
 13 38  1  0
 13 39  1  0
 14 19  1  0
 14 15  1  0
 14 40  1  1
 15 17  1  0
 15 16  1  0
 15 41  1  6
 16 17  1  0
 16 42  1  0
 16 43  1  0
 17 18  1  0
 17 44  1  1
 18 19  1  0
 18 45  1  0
 18 46  1  0
 19 20  1  1
 19 21  1  0
 20 47  1  0
 21 22  1  0
 21 48  1  6
 22 23  1  0
 22 49  1  0
 22 50  1  0
 23 24  1  0
 23 51  1  0
 23 52  1  0
 24 25  1  6
 24 26  1  0
 25 53  1  0
 26 54  1  0
 26 55  1  0
M  END
>  <i_m_ct_stereo_status>  (61) 
1

>  <s_m_source_file>  (61) 
/var/tmp/pbs.5076255.sched01/tmphbojuwnv/0fr5z8inm.sdf

>  <i_m_source_file_index>  (61) 
34

>  <i_lp_mmshare_version>  (61) 
48012

>  <i_f3d_flags>  (61) 
0

>  <s_epik_input>  (61) 
W0NIM11bQ0gyXW4objEpYyhDbCljKFtDSDJdMiljMVtDSDJdW0NAXTMoW09IXSlbQ0gyXVtDSDJdW0NAQEhdKFtDQEhdNFtDQF0yM1tDSDNdKVtDQF01KFtPSF0pW0NASF0oW0NIMl00KVtDQEhdNltDQEhdKFtDSDJdNilbQ0gyXTU=

>  <s_epik_cmdline>  (61) 
J2VwaWtfcHl0aG9uJywgJy1waHQnLCAnMi4wJywgJy1waCcsICc3LjAnLCAnLXRuJywgJzgnLCAnLW1hJywgJzIwMCcsICctaW1hZScsICc8aW5maWxlLm1hZT4nLCAnLW9tYWUnLCAnPG91dGZpbGUubWFlPic=

>  <r_lp_tautomer_probability>  (61) 
1

>  <r_epik_Ionization_Penalty>  (61) 
0.0425688

>  <r_epik_Ionization_Penalty_Charging>  (61) 
0

>  <r_epik_Ionization_Penalty_Neutral>  (61) 
0.0425688

>  <r_epik_State_Penalty>  (61) 
0.035961

>  <r_epik_Charging_Adjusted_Penalty>  (61) 
0.035961

>  <i_epik_Tot_Q>  (61) 
0

>  <i_epik_Tot_abs_Q>  (61) 
0

>  <s_lp_Force_Field>  (61) 
OPLS3e

>  <r_lp_Energy>  (61) 
41.0014

>  <b_lp_Chiralities_Consistent>  (61) 
1

>  <s_lp_Variant>  (61) 
21:0-1

>  <s_i_glide_gridfile>  (61) 
pfpi4k_grid

>  <i_i_glide_lignum>  (61) 
34

>  <i_i_glide_rotatable_bonds>  (61) 
3

>  <r_i_docking_score>  (61) 
-2.44266

>  <r_i_glide_ligand_efficiency>  (61) 
-0.0939485

>  <r_i_glide_ligand_efficiency_sa>  (61) 
-0.278322

>  <r_i_glide_ligand_efficiency_ln>  (61) 
-0.573651

>  <r_i_glide_gscore>  (61) 
-2.44266

>  <r_i_glide_lipo>  (61) 
-0.0499218

>  <r_i_glide_hbond>  (61) 
-0.251626

>  <r_i_glide_metal>  (61) 
-0

>  <r_i_glide_rewards>  (61) 
-0.839183

>  <r_i_glide_evdw>  (61) 
-15.7365

>  <r_i_glide_ecoul>  (61) 
-3.43405

>  <r_i_glide_erotb>  (61) 
0

>  <r_i_glide_esite>  (61) 
0

>  <r_i_glide_emodel>  (61) 
-22.0097

>  <r_i_glide_energy>  (61) 
-19.1705

>  <r_i_glide_einternal>  (61) 
0.761731

>  <r_i_glide_intrahb_reward>  (61) 
-0

>  <i_i_glide_confnum>  (61) 
2

>  <i_i_glide_posenum>  (61) 
17

>  <r_i_glide_eff_state_penalty>  (61) 
0

>  <ligand_id>  (61) 
21

>  <original_smiles>  (61) 
CCn1nc2c(c1Cl)CC1(C)C3CC4C5CC5CC4(O)C3CCC1(O)C2

>  <smiles>  (61) 
[H]OC12C([H])([H])C3([H])C([H])([H])C3([H])C1([H])C([H])([H])C1([H])C2([H])C([H])([H])C([H])([H])C2(O[H])C([H])([H])c3nn(C([H])([H])C([H])([H])[H])c(Cl)c3C([H])([H])C12C([H])([H])[H]

$$$$
21:0:2
     RDKit          3D

 55 60  0  0  1  0  0  0  0  0999 V2000
    3.0008   -5.8322    6.4297 C   0  0  0  0  0  0  0  0  0  0  0  0
    3.7643   -5.4355    5.1596 C   0  0  0  0  0  0  0  0  0  0  0  0
    3.4947   -4.0557    4.7952 N   0  0  0  0  0  0  0  0  0  0  0  0
    4.3921   -3.0820    5.0917 N   0  0  0  0  0  0  0  0  0  0  0  0
    3.8025   -1.9634    4.6766 C   0  0  0  0  0  0  0  0  0  0  0  0
    2.5233   -2.1572    4.1024 C   0  0  0  0  0  0  0  0  0  0  0  0
    2.3850   -3.5057    4.1939 C   0  0  0  0  0  0  0  0  0  0  0  0
    1.0395   -4.4544    3.6967 Cl  0  0  0  0  0  0  0  0  0  0  0  0
    1.6345   -1.0596    3.5795 C   0  0  0  0  0  0  0  0  0  0  0  0
    2.4133    0.2879    3.4385 C   0  0  1  0  0  0  0  0  0  0  0  0
    3.2197    0.1815    2.1152 C   0  0  0  0  0  0  0  0  0  0  0  0
    1.4610    1.5261    3.3296 C   0  0  1  0  0  0  0  0  0  0  0  0
    0.2629    1.3524    2.3798 C   0  0  0  0  0  0  0  0  0  0  0  0
   -1.0074    1.2714    3.2477 C   0  0  2  0  0  0  0  0  0  0  0  0
   -2.0664    2.2709    2.8318 C   0  0  2  0  0  0  0  0  0  0  0  0
   -1.8610    3.7654    2.8593 C   0  0  0  0  0  0  0  0  0  0  0  0
   -2.4862    3.0616    4.0314 C   0  0  2  0  0  0  0  0  0  0  0  0
   -1.6401    2.6728    5.2155 C   0  0  0  0  0  0  0  0  0  0  0  0
   -0.6390    1.5977    4.7114 C   0  0  1  0  0  0  0  0  0  0  0  0
   -0.7911    0.4577    5.5317 O   0  0  0  0  0  0  0  0  0  0  0  0
    0.8334    2.0661    4.6434 C   0  0  1  0  0  0  0  0  0  0  0  0
    1.6915    1.9396    5.9253 C   0  0  0  0  0  0  0  0  0  0  0  0
    2.5845    0.6906    5.9585 C   0  0  0  0  0  0  0  0  0  0  0  0
    3.3992    0.5070    4.6536 C   0  0  2  0  0  0  0  0  0  0  0  0
    4.1511    1.7020    4.4837 O   0  0  0  0  0  0  0  0  0  0  0  0
    4.4490   -0.6272    4.8309 C   0  0  0  0  0  0  0  0  0  0  0  0
    3.2090   -6.8649    6.7072 H   0  0  0  0  0  0  0  0  0  0  0  0
    1.9239   -5.7362    6.2877 H   0  0  0  0  0  0  0  0  0  0  0  0
    3.2839   -5.1931    7.2643 H   0  0  0  0  0  0  0  0  0  0  0  0
    4.8381   -5.5650    5.3097 H   0  0  0  0  0  0  0  0  0  0  0  0
    3.4798   -6.0761    4.3246 H   0  0  0  0  0  0  0  0  0  0  0  0
    1.1686   -1.3502    2.6389 H   0  0  0  0  0  0  0  0  0  0  0  0
    0.8056   -0.9337    4.2654 H   0  0  0  0  0  0  0  0  0  0  0  0
    3.8042    1.0798    1.9284 H   0  0  0  0  0  0  0  0  0  0  0  0
    2.5702    0.0570    1.2451 H   0  0  0  0  0  0  0  0  0  0  0  0
    3.9035   -0.6714    2.1212 H   0  0  0  0  0  0  0  0  0  0  0  0
    2.0696    2.3435    2.9287 H   0  0  0  0  0  0  0  0  0  0  0  0
    0.2065    2.2196    1.7278 H   0  0  0  0  0  0  0  0  0  0  0  0
    0.3549    0.5053    1.7047 H   0  0  0  0  0  0  0  0  0  0  0  0
   -1.4342    0.2710    3.1856 H   0  0  0  0  0  0  0  0  0  0  0  0
   -2.7875    1.9435    2.0894 H   0  0  0  0  0  0  0  0  0  0  0  0
   -0.8385    4.1316    2.9296 H   0  0  0  0  0  0  0  0  0  0  0  0
   -2.5225    4.3401    2.2163 H   0  0  0  0  0  0  0  0  0  0  0  0
   -3.5545    3.1855    4.1974 H   0  0  0  0  0  0  0  0  0  0  0  0
   -1.1523    3.5668    5.6085 H   0  0  0  0  0  0  0  0  0  0  0  0
   -2.2956    2.3005    6.0009 H   0  0  0  0  0  0  0  0  0  0  0  0
   -0.4226    0.6805    6.3744 H   0  0  0  0  0  0  0  0  0  0  0  0
    0.7667    3.1435    4.4753 H   0  0  0  0  0  0  0  0  0  0  0  0
    2.3355    2.8165    6.0027 H   0  0  0  0  0  0  0  0  0  0  0  0
    1.0615    1.9705    6.8120 H   0  0  0  0  0  0  0  0  0  0  0  0
    3.2506    0.7595    6.8200 H   0  0  0  0  0  0  0  0  0  0  0  0
    1.9619   -0.1837    6.1446 H   0  0  0  0  0  0  0  0  0  0  0  0
    4.2858    1.8558    3.5588 H   0  0  0  0  0  0  0  0  0  0  0  0
    4.9622   -0.5506    5.7904 H   0  0  0  0  0  0  0  0  0  0  0  0
    5.2199   -0.5330    4.0635 H   0  0  0  0  0  0  0  0  0  0  0  0
  1  2  1  0
  1 27  1  0
  1 28  1  0
  1 29  1  0
  2  3  1  0
  2 30  1  0
  2 31  1  0
  3  7  1  0
  3  4  1  0
  4  5  2  0
  5 26  1  0
  5  6  1  0
  6  7  2  0
  6  9  1  0
  7  8  1  0
  9 10  1  0
  9 32  1  0
  9 33  1  0
 10 24  1  0
 10 11  1  6
 10 12  1  0
 11 34  1  0
 11 35  1  0
 11 36  1  0
 12 21  1  0
 12 13  1  0
 12 37  1  6
 13 14  1  0
 13 38  1  0
 13 39  1  0
 14 19  1  0
 14 15  1  0
 14 40  1  1
 15 17  1  0
 15 16  1  0
 15 41  1  6
 16 17  1  0
 16 42  1  0
 16 43  1  0
 17 18  1  0
 17 44  1  1
 18 19  1  0
 18 45  1  0
 18 46  1  0
 19 20  1  1
 19 21  1  0
 20 47  1  0
 21 22  1  0
 21 48  1  6
 22 23  1  0
 22 49  1  0
 22 50  1  0
 23 24  1  0
 23 51  1  0
 23 52  1  0
 24 25  1  6
 24 26  1  0
 25 53  1  0
 26 54  1  0
 26 55  1  0
M  END
>  <i_m_ct_stereo_status>  (62) 
1

>  <s_m_source_file>  (62) 
/var/tmp/pbs.5076255.sched01/tmphbojuwnv/0fr5z8inm.sdf

>  <i_m_source_file_index>  (62) 
34

>  <i_lp_mmshare_version>  (62) 
48012

>  <i_f3d_flags>  (62) 
0

>  <s_epik_input>  (62) 
W0NIM11bQ0gyXW4objEpYyhDbCljKFtDSDJdMiljMVtDSDJdW0NAXTMoW09IXSlbQ0gyXVtDSDJdW0NAQEhdKFtDQEhdNFtDQF0yM1tDSDNdKVtDQF01KFtPSF0pW0NASF0oW0NIMl00KVtDQEhdNltDQEhdKFtDSDJdNilbQ0gyXTU=

>  <s_epik_cmdline>  (62) 
J2VwaWtfcHl0aG9uJywgJy1waHQnLCAnMi4wJywgJy1waCcsICc3LjAnLCAnLXRuJywgJzgnLCAnLW1hJywgJzIwMCcsICctaW1hZScsICc8aW5maWxlLm1hZT4nLCAnLW9tYWUnLCAnPG91dGZpbGUubWFlPic=

>  <r_lp_tautomer_probability>  (62) 
1

>  <r_epik_Ionization_Penalty>  (62) 
0.0425688

>  <r_epik_Ionization_Penalty_Charging>  (62) 
0

>  <r_epik_Ionization_Penalty_Neutral>  (62) 
0.0425688

>  <r_epik_State_Penalty>  (62) 
0.035961

>  <r_epik_Charging_Adjusted_Penalty>  (62) 
0.035961

>  <i_epik_Tot_Q>  (62) 
0

>  <i_epik_Tot_abs_Q>  (62) 
0

>  <s_lp_Force_Field>  (62) 
OPLS3e

>  <r_lp_Energy>  (62) 
41.0014

>  <b_lp_Chiralities_Consistent>  (62) 
1

>  <s_lp_Variant>  (62) 
21:0-1

>  <s_i_glide_gridfile>  (62) 
pfpi4k_grid

>  <i_i_glide_lignum>  (62) 
34

>  <i_i_glide_rotatable_bonds>  (62) 
3

>  <r_i_docking_score>  (62) 
-2.34909

>  <r_i_glide_ligand_efficiency>  (62) 
-0.0903498

>  <r_i_glide_ligand_efficiency_sa>  (62) 
-0.267661

>  <r_i_glide_ligand_efficiency_ln>  (62) 
-0.551677

>  <r_i_glide_gscore>  (62) 
-2.34909

>  <r_i_glide_lipo>  (62) 
-0.0821768

>  <r_i_glide_hbond>  (62) 
-0.265212

>  <r_i_glide_metal>  (62) 
-0

>  <r_i_glide_rewards>  (62) 
-0.839183

>  <r_i_glide_evdw>  (62) 
-15.5177

>  <r_i_glide_ecoul>  (62) 
-2.57759

>  <r_i_glide_erotb>  (62) 
0

>  <r_i_glide_esite>  (62) 
0

>  <r_i_glide_emodel>  (62) 
-20.6441

>  <r_i_glide_energy>  (62) 
-18.0953

>  <r_i_glide_einternal>  (62) 
0.933625

>  <r_i_glide_intrahb_reward>  (62) 
-0

>  <i_i_glide_confnum>  (62) 
2

>  <i_i_glide_posenum>  (62) 
1

>  <r_i_glide_eff_state_penalty>  (62) 
0

>  <ligand_id>  (62) 
21

>  <original_smiles>  (62) 
CCn1nc2c(c1Cl)CC1(C)C3CC4C5CC5CC4(O)C3CCC1(O)C2

>  <smiles>  (62) 
[H]OC12C([H])([H])C3([H])C([H])([H])C3([H])C1([H])C([H])([H])C1([H])C2([H])C([H])([H])C([H])([H])C2(O[H])C([H])([H])c3nn(C([H])([H])C([H])([H])[H])c(Cl)c3C([H])([H])C12C([H])([H])[H]

$$$$
22:0:0
     RDKit          3D

 48 51  0  0  1  0  0  0  0  0999 V2000
    3.8428   -6.4903    3.4830 C   0  0  0  0  0  0  0  0  0  0  0  0
    3.6342   -5.0113    3.0833 C   0  0  2  0  0  0  0  0  0  0  0  0
    3.1480   -4.9811    1.6093 C   0  0  0  0  0  0  0  0  0  0  0  0
    4.2254   -5.3410    0.5598 C   0  0  0  0  0  0  0  0  0  0  0  0
    4.5076   -4.3668   -0.6034 C   0  0  1  0  0  0  0  0  0  0  0  0
    3.5208   -3.3083   -1.1562 C   0  0  2  0  0  0  0  0  0  0  0  0
    3.7170   -3.0278   -2.6547 C   0  0  1  0  0  0  0  0  0  0  0  0
    2.9540   -1.7858   -3.1205 C   0  0  0  0  0  0  0  0  0  0  0  0
    5.2360   -2.9669   -3.0099 C   0  0  0  0  0  0  0  0  0  0  0  0
    6.2047   -2.8200   -1.7913 C   0  0  0  0  0  0  0  0  0  0  0  0
    5.4746   -3.1705   -0.4888 C   0  0  2  0  0  0  0  0  0  0  0  0
    6.2764   -3.3004    0.6817 O   0  0  0  0  0  0  0  0  0  0  0  0
    6.2056   -2.0157    1.4689 O   0  0  0  0  0  0  0  0  0  0  0  0
    4.8817   -1.8356    1.9820 C   0  0  2  0  0  0  0  0  0  0  0  0
    4.7639   -0.3152    2.1442 C   0  0  0  0  0  0  0  0  0  0  0  0
    4.6079   -2.5533    3.3305 C   0  0  0  0  0  0  0  0  0  0  0  0
    4.8616   -4.0909    3.4397 C   0  0  1  0  0  0  0  0  0  0  0  0
    5.3729   -4.3851    4.8697 C   0  0  0  0  0  0  0  0  0  0  0  0
    3.8524   -2.2515    1.1091 O   0  0  0  0  0  0  0  0  0  0  0  0
    4.2423   -2.2933   -0.2466 C   0  0  2  0  0  0  0  0  0  0  0  0
    4.7522   -6.9058    3.0435 H   0  0  0  0  0  0  0  0  0  0  0  0
    3.0094   -7.1128    3.1525 H   0  0  0  0  0  0  0  0  0  0  0  0
    3.8997   -6.6167    4.5635 H   0  0  0  0  0  0  0  0  0  0  0  0
    2.7879   -4.6626    3.6795 H   0  0  0  0  0  0  0  0  0  0  0  0
    2.3422   -5.7102    1.5001 H   0  0  0  0  0  0  0  0  0  0  0  0
    2.6090   -4.0663    1.3940 H   0  0  0  0  0  0  0  0  0  0  0  0
    5.1646   -5.6102    1.0432 H   0  0  0  0  0  0  0  0  0  0  0  0
    3.9050   -6.2766    0.1075 H   0  0  0  0  0  0  0  0  0  0  0  0
    4.8681   -4.9857   -1.4309 H   0  0  0  0  0  0  0  0  0  0  0  0
    2.4847   -3.4848   -0.8620 H   0  0  0  0  0  0  0  0  0  0  0  0
    3.2887   -3.8552   -3.2155 H   0  0  0  0  0  0  0  0  0  0  0  0
    3.3158   -0.8632   -2.6691 H   0  0  0  0  0  0  0  0  0  0  0  0
    1.9082   -1.8903   -2.8387 H   0  0  0  0  0  0  0  0  0  0  0  0
    2.9833   -1.6679   -4.2014 H   0  0  0  0  0  0  0  0  0  0  0  0
    5.4895   -3.8943   -3.5230 H   0  0  0  0  0  0  0  0  0  0  0  0
    5.4071   -2.1803   -3.7329 H   0  0  0  0  0  0  0  0  0  0  0  0
    7.0908   -3.4391   -1.9392 H   0  0  0  0  0  0  0  0  0  0  0  0
    6.5656   -1.7964   -1.7423 H   0  0  0  0  0  0  0  0  0  0  0  0
    4.9678    0.1883    1.1966 H   0  0  0  0  0  0  0  0  0  0  0  0
    5.4920    0.0535    2.8714 H   0  0  0  0  0  0  0  0  0  0  0  0
    3.7713   -0.0113    2.4799 H   0  0  0  0  0  0  0  0  0  0  0  0
    5.2052   -2.0386    4.0858 H   0  0  0  0  0  0  0  0  0  0  0  0
    3.5766   -2.3545    3.6220 H   0  0  0  0  0  0  0  0  0  0  0  0
    5.6965   -4.3344    2.7908 H   0  0  0  0  0  0  0  0  0  0  0  0
    4.5890   -4.2519    5.6151 H   0  0  0  0  0  0  0  0  0  0  0  0
    6.2027   -3.7341    5.1433 H   0  0  0  0  0  0  0  0  0  0  0  0
    5.7562   -5.4011    4.9600 H   0  0  0  0  0  0  0  0  0  0  0  0
    4.3346   -1.2895   -0.6629 H   0  0  0  0  0  0  0  0  0  0  0  0
  1  2  1  0
  1 21  1  0
  1 22  1  0
  1 23  1  0
  2 17  1  0
  2  3  1  0
  2 24  1  1
  3  4  1  0
  3 25  1  0
  3 26  1  0
  4  5  1  0
  4 27  1  0
  4 28  1  0
  5 11  1  0
  5  6  1  0
  5 29  1  6
  6 20  1  0
  6  7  1  0
  6 30  1  1
  7  8  1  0
  7  9  1  0
  7 31  1  6
  8 32  1  0
  8 33  1  0
  8 34  1  0
  9 10  1  0
  9 35  1  0
  9 36  1  0
 11 10  1  6
 10 37  1  0
 10 38  1  0
 11 20  1  0
 11 12  1  0
 12 13  1  0
 13 14  1  0
 14 15  1  1
 14 16  1  0
 14 19  1  0
 15 39  1  0
 15 40  1  0
 15 41  1  0
 16 17  1  0
 16 42  1  0
 16 43  1  0
 17 18  1  0
 17 44  1  6
 18 45  1  0
 18 46  1  0
 18 47  1  0
 19 20  1  0
 20 48  1  6
M  END
>  <i_m_ct_stereo_status>  (63) 
1

>  <s_m_source_file>  (63) 
/var/tmp/pbs.5076255.sched01/tmphbojuwnv/0fr5z8inm.sdf

>  <i_m_source_file_index>  (63) 
36

>  <i_lp_mmshare_version>  (63) 
48012

>  <i_f3d_flags>  (63) 
0

>  <s_epik_input>  (63) 
W0NIMl0xW0NIMl1bQ0BASF0oW0NIM10pW0NASF0oW0NIM10pW0NIMl1bQ0BdKE9PMikoW0NIM10pT1tDQEBIXTNbQ0BIXShbQ0BIXTFbQ0BdMjM0KVtDQEBIXShbQ0gzXSlbQ0gyXVtDSDJdNA==

>  <s_epik_cmdline>  (63) 
J2VwaWtfcHl0aG9uJywgJy1waHQnLCAnMi4wJywgJy1waCcsICc3LjAnLCAnLXRuJywgJzgnLCAnLW1hJywgJzIwMCcsICctaW1hZScsICc8aW5maWxlLm1hZT4nLCAnLW9tYWUnLCAnPG91dGZpbGUubWFlPic=

>  <r_lp_tautomer_probability>  (63) 
1

>  <r_epik_Ionization_Penalty>  (63) 
2.7101e-14

>  <r_epik_Ionization_Penalty_Charging>  (63) 
0

>  <r_epik_Ionization_Penalty_Neutral>  (63) 
2.7101e-14

>  <r_epik_State_Penalty>  (63) 
-0

>  <r_epik_Charging_Adjusted_Penalty>  (63) 
0

>  <i_epik_Tot_Q>  (63) 
0

>  <i_epik_Tot_abs_Q>  (63) 
0

>  <s_lp_Force_Field>  (63) 
OPLS3e

>  <r_lp_Energy>  (63) 
70.2418

>  <b_lp_Chiralities_Consistent>  (63) 
1

>  <s_lp_Variant>  (63) 
22:0-1

>  <s_i_glide_gridfile>  (63) 
pfpi4k_grid

>  <i_i_glide_lignum>  (63) 
36

>  <i_i_glide_rotatable_bonds>  (63) 
0

>  <r_i_docking_score>  (63) 
-3.14483

>  <r_i_glide_ligand_efficiency>  (63) 
-0.157242

>  <r_i_glide_ligand_efficiency_sa>  (63) 
-0.426819

>  <r_i_glide_ligand_efficiency_ln>  (63) 
-0.787048

>  <r_i_glide_gscore>  (63) 
-3.14483

>  <r_i_glide_lipo>  (63) 
-0.497005

>  <r_i_glide_hbond>  (63) 
0

>  <r_i_glide_metal>  (63) 
-0

>  <r_i_glide_rewards>  (63) 
-1.57631

>  <r_i_glide_evdw>  (63) 
-23.0714

>  <r_i_glide_ecoul>  (63) 
0.547018

>  <r_i_glide_erotb>  (63) 
0

>  <r_i_glide_esite>  (63) 
0

>  <r_i_glide_emodel>  (63) 
-26.6747

>  <r_i_glide_energy>  (63) 
-22.5244

>  <r_i_glide_einternal>  (63) 
0

>  <r_i_glide_intrahb_reward>  (63) 
-0

>  <i_i_glide_confnum>  (63) 
2

>  <i_i_glide_posenum>  (63) 
16

>  <r_i_glide_eff_state_penalty>  (63) 
0

>  <ligand_id>  (63) 
22

>  <original_smiles>  (63) 
CC1CCC2C3C(C)CCC24OOC(C)(CC1C)OC34

>  <smiles>  (63) 
[H]C([H])([H])C12OOC34C([H])([H])C([H])([H])C([H])(C([H])([H])[H])C([H])(C3([H])O1)C4([H])C([H])([H])C([H])([H])C([H])(C([H])([H])[H])C([H])(C([H])([H])[H])C2([H])[H]

$$$$
22:0:1
     RDKit          3D

 48 51  0  0  1  0  0  0  0  0999 V2000
    4.5026   -6.1913    3.4584 C   0  0  0  0  0  0  0  0  0  0  0  0
    3.7963   -4.9036    2.9773 C   0  0  2  0  0  0  0  0  0  0  0  0
    3.4621   -5.0787    1.4729 C   0  0  0  0  0  0  0  0  0  0  0  0
    4.6831   -5.0271    0.5254 C   0  0  0  0  0  0  0  0  0  0  0  0
    4.6834   -4.0320   -0.6583 C   0  0  1  0  0  0  0  0  0  0  0  0
    3.4326   -3.4221   -1.3309 C   0  0  2  0  0  0  0  0  0  0  0  0
    3.6429   -3.1074   -2.8223 C   0  0  1  0  0  0  0  0  0  0  0  0
    2.5176   -2.2581   -3.3970 C   0  0  0  0  0  0  0  0  0  0  0  0
    5.0433   -2.4813   -3.0596 C   0  0  0  0  0  0  0  0  0  0  0  0
    5.7808   -1.9762   -1.7789 C   0  0  0  0  0  0  0  0  0  0  0  0
    5.1278   -2.5644   -0.5202 C   0  0  2  0  0  0  0  0  0  0  0  0
    5.8165   -2.3725    0.7101 O   0  0  0  0  0  0  0  0  0  0  0  0
    5.2143   -1.1910    1.4228 O   0  0  0  0  0  0  0  0  0  0  0  0
    3.8738   -1.5037    1.8312 C   0  0  2  0  0  0  0  0  0  0  0  0
    3.1874   -0.1328    1.9116 C   0  0  0  0  0  0  0  0  0  0  0  0
    3.7656   -2.2540    3.1835 C   0  0  0  0  0  0  0  0  0  0  0  0
    4.5585   -3.5848    3.3823 C   0  0  1  0  0  0  0  0  0  0  0  0
    5.0160   -3.6476    4.8591 C   0  0  0  0  0  0  0  0  0  0  0  0
    3.1579   -2.3008    0.9093 O   0  0  0  0  0  0  0  0  0  0  0  0
    3.6469   -2.2062   -0.4105 C   0  0  2  0  0  0  0  0  0  0  0  0
    5.5339   -6.2453    3.1074 H   0  0  0  0  0  0  0  0  0  0  0  0
    3.9889   -7.0833    3.0963 H   0  0  0  0  0  0  0  0  0  0  0  0
    4.5091   -6.2728    4.5452 H   0  0  0  0  0  0  0  0  0  0  0  0
    2.8336   -4.8875    3.4925 H   0  0  0  0  0  0  0  0  0  0  0  0
    2.9955   -6.0558    1.3363 H   0  0  0  0  0  0  0  0  0  0  0  0
    2.6470   -4.4343    1.1737 H   0  0  0  0  0  0  0  0  0  0  0  0
    5.6092   -4.9189    1.0903 H   0  0  0  0  0  0  0  0  0  0  0  0
    4.7733   -6.0224    0.0948 H   0  0  0  0  0  0  0  0  0  0  0  0
    5.3092   -4.4800   -1.4269 H   0  0  0  0  0  0  0  0  0  0  0  0
    2.5163   -3.9683   -1.1103 H   0  0  0  0  0  0  0  0  0  0  0  0
    3.6208   -4.0369   -3.3834 H   0  0  0  0  0  0  0  0  0  0  0  0
    2.4872   -1.2638   -2.9509 H   0  0  0  0  0  0  0  0  0  0  0  0
    1.5539   -2.7304   -3.2146 H   0  0  0  0  0  0  0  0  0  0  0  0
    2.6223   -2.1381   -4.4723 H   0  0  0  0  0  0  0  0  0  0  0  0
    5.6681   -3.2585   -3.5051 H   0  0  0  0  0  0  0  0  0  0  0  0
    4.9974   -1.6919   -3.8093 H   0  0  0  0  0  0  0  0  0  0  0  0
    6.8377   -2.2386   -1.8333 H   0  0  0  0  0  0  0  0  0  0  0  0
    5.7313   -0.8890   -1.7442 H   0  0  0  0  0  0  0  0  0  0  0  0
    3.2728    0.4043    0.9653 H   0  0  0  0  0  0  0  0  0  0  0  0
    3.6557    0.4912    2.6750 H   0  0  0  0  0  0  0  0  0  0  0  0
    2.1266   -0.2189    2.1524 H   0  0  0  0  0  0  0  0  0  0  0  0
    4.0592   -1.5446    3.9587 H   0  0  0  0  0  0  0  0  0  0  0  0
    2.7110   -2.4501    3.3867 H   0  0  0  0  0  0  0  0  0  0  0  0
    5.4774   -3.5102    2.8121 H   0  0  0  0  0  0  0  0  0  0  0  0
    4.1748   -3.8032    5.5366 H   0  0  0  0  0  0  0  0  0  0  0  0
    5.5196   -2.7292    5.1589 H   0  0  0  0  0  0  0  0  0  0  0  0
    5.7363   -4.4457    5.0255 H   0  0  0  0  0  0  0  0  0  0  0  0
    3.3993   -1.2493   -0.8630 H   0  0  0  0  0  0  0  0  0  0  0  0
  1  2  1  0
  1 21  1  0
  1 22  1  0
  1 23  1  0
  2 17  1  0
  2  3  1  0
  2 24  1  1
  3  4  1  0
  3 25  1  0
  3 26  1  0
  4  5  1  0
  4 27  1  0
  4 28  1  0
  5 11  1  0
  5  6  1  0
  5 29  1  6
  6 20  1  0
  6  7  1  0
  6 30  1  6
  7  8  1  0
  7  9  1  0
  7 31  1  6
  8 32  1  0
  8 33  1  0
  8 34  1  0
  9 10  1  0
  9 35  1  0
  9 36  1  0
 11 10  1  6
 10 37  1  0
 10 38  1  0
 11 20  1  0
 11 12  1  0
 12 13  1  0
 13 14  1  0
 14 15  1  1
 14 16  1  0
 14 19  1  0
 15 39  1  0
 15 40  1  0
 15 41  1  0
 16 17  1  0
 16 42  1  0
 16 43  1  0
 17 18  1  0
 17 44  1  6
 18 45  1  0
 18 46  1  0
 18 47  1  0
 19 20  1  0
 20 48  1  6
M  END
>  <i_m_ct_stereo_status>  (64) 
1

>  <s_m_source_file>  (64) 
/var/tmp/pbs.5076255.sched01/tmphbojuwnv/0fr5z8inm.sdf

>  <i_m_source_file_index>  (64) 
36

>  <i_lp_mmshare_version>  (64) 
48012

>  <i_f3d_flags>  (64) 
0

>  <s_epik_input>  (64) 
W0NIMl0xW0NIMl1bQ0BASF0oW0NIM10pW0NASF0oW0NIM10pW0NIMl1bQ0BdKE9PMikoW0NIM10pT1tDQEBIXTNbQ0BIXShbQ0BIXTFbQ0BdMjM0KVtDQEBIXShbQ0gzXSlbQ0gyXVtDSDJdNA==

>  <s_epik_cmdline>  (64) 
J2VwaWtfcHl0aG9uJywgJy1waHQnLCAnMi4wJywgJy1waCcsICc3LjAnLCAnLXRuJywgJzgnLCAnLW1hJywgJzIwMCcsICctaW1hZScsICc8aW5maWxlLm1hZT4nLCAnLW9tYWUnLCAnPG91dGZpbGUubWFlPic=

>  <r_lp_tautomer_probability>  (64) 
1

>  <r_epik_Ionization_Penalty>  (64) 
2.7101e-14

>  <r_epik_Ionization_Penalty_Charging>  (64) 
0

>  <r_epik_Ionization_Penalty_Neutral>  (64) 
2.7101e-14

>  <r_epik_State_Penalty>  (64) 
-0

>  <r_epik_Charging_Adjusted_Penalty>  (64) 
0

>  <i_epik_Tot_Q>  (64) 
0

>  <i_epik_Tot_abs_Q>  (64) 
0

>  <s_lp_Force_Field>  (64) 
OPLS3e

>  <r_lp_Energy>  (64) 
70.2418

>  <b_lp_Chiralities_Consistent>  (64) 
1

>  <s_lp_Variant>  (64) 
22:0-1

>  <s_i_glide_gridfile>  (64) 
pfpi4k_grid

>  <i_i_glide_lignum>  (64) 
36

>  <i_i_glide_rotatable_bonds>  (64) 
0

>  <r_i_docking_score>  (64) 
-2.99744

>  <r_i_glide_ligand_efficiency>  (64) 
-0.149872

>  <r_i_glide_ligand_efficiency_sa>  (64) 
-0.406815

>  <r_i_glide_ligand_efficiency_ln>  (64) 
-0.750161

>  <r_i_glide_gscore>  (64) 
-2.99744

>  <r_i_glide_lipo>  (64) 
-0.425187

>  <r_i_glide_hbond>  (64) 
0

>  <r_i_glide_metal>  (64) 
-0

>  <r_i_glide_rewards>  (64) 
-1.49726

>  <r_i_glide_evdw>  (64) 
-22.7596

>  <r_i_glide_ecoul>  (64) 
0.465423

>  <r_i_glide_erotb>  (64) 
0

>  <r_i_glide_esite>  (64) 
-0.00683161

>  <r_i_glide_emodel>  (64) 
-26.2531

>  <r_i_glide_energy>  (64) 
-22.2942

>  <r_i_glide_einternal>  (64) 
0

>  <r_i_glide_intrahb_reward>  (64) 
-0

>  <i_i_glide_confnum>  (64) 
1

>  <i_i_glide_posenum>  (64) 
35

>  <r_i_glide_eff_state_penalty>  (64) 
0

>  <ligand_id>  (64) 
22

>  <original_smiles>  (64) 
CC1CCC2C3C(C)CCC24OOC(C)(CC1C)OC34

>  <smiles>  (64) 
[H]C([H])([H])C12OOC34C([H])([H])C([H])([H])C([H])(C([H])([H])[H])C([H])(C3([H])O1)C4([H])C([H])([H])C([H])([H])C([H])(C([H])([H])[H])C([H])(C([H])([H])[H])C2([H])[H]

$$$$
22:0:2
     RDKit          3D

 48 51  0  0  1  0  0  0  0  0999 V2000
    6.9373   -6.5888    3.1275 C   0  0  0  0  0  0  0  0  0  0  0  0
    5.5443   -5.9913    2.8223 C   0  0  2  0  0  0  0  0  0  0  0  0
    5.4367   -5.7862    1.2889 C   0  0  0  0  0  0  0  0  0  0  0  0
    6.3002   -4.6335    0.7224 C   0  0  0  0  0  0  0  0  0  0  0  0
    5.6352   -3.5376   -0.1377 C   0  0  1  0  0  0  0  0  0  0  0  0
    4.3119   -3.6847   -0.9295 C   0  0  2  0  0  0  0  0  0  0  0  0
    4.2618   -2.8129   -2.1932 C   0  0  1  0  0  0  0  0  0  0  0  0
    2.8581   -2.7627   -2.8144 C   0  0  0  0  0  0  0  0  0  0  0  0
    4.8457   -1.3907   -1.8953 C   0  0  0  0  0  0  0  0  0  0  0  0
    5.0157   -1.0333   -0.3825 C   0  0  0  0  0  0  0  0  0  0  0  0
    4.9379   -2.3024    0.4709 C   0  0  2  0  0  0  0  0  0  0  0  0
    5.2952   -2.1757    1.8440 O   0  0  0  0  0  0  0  0  0  0  0  0
    4.0406   -2.0128    2.6604 O   0  0  0  0  0  0  0  0  0  0  0  0
    3.2741   -3.2220    2.6218 C   0  0  2  0  0  0  0  0  0  0  0  0
    1.8353   -2.7478    2.8788 C   0  0  0  0  0  0  0  0  0  0  0  0
    3.6957   -4.2833    3.6712 C   0  0  0  0  0  0  0  0  0  0  0  0
    5.1863   -4.7496    3.7237 C   0  0  1  0  0  0  0  0  0  0  0  0
    5.5467   -5.0212    5.2038 C   0  0  0  0  0  0  0  0  0  0  0  0
    3.2892   -3.8847    1.3701 O   0  0  0  0  0  0  0  0  0  0  0  0
    3.6120   -3.0424    0.2876 C   0  0  2  0  0  0  0  0  0  0  0  0
    7.7291   -5.8417    3.0486 H   0  0  0  0  0  0  0  0  0  0  0  0
    7.1829   -7.3958    2.4360 H   0  0  0  0  0  0  0  0  0  0  0  0
    6.9835   -7.0270    4.1247 H   0  0  0  0  0  0  0  0  0  0  0  0
    4.8279   -6.7799    3.0640 H   0  0  0  0  0  0  0  0  0  0  0  0
    5.7693   -6.7027    0.7985 H   0  0  0  0  0  0  0  0  0  0  0  0
    4.4044   -5.7602    0.9671 H   0  0  0  0  0  0  0  0  0  0  0  0
    6.8914   -4.1686    1.5126 H   0  0  0  0  0  0  0  0  0  0  0  0
    7.0585   -5.1061    0.1002 H   0  0  0  0  0  0  0  0  0  0  0  0
    6.4121   -3.1656   -0.8082 H   0  0  0  0  0  0  0  0  0  0  0  0
    4.0244   -4.7239   -1.0867 H   0  0  0  0  0  0  0  0  0  0  0  0
    4.8989   -3.2752   -2.9455 H   0  0  0  0  0  0  0  0  0  0  0  0
    2.1519   -2.2549   -2.1614 H   0  0  0  0  0  0  0  0  0  0  0  0
    2.4704   -3.7635   -2.9923 H   0  0  0  0  0  0  0  0  0  0  0  0
    2.8543   -2.2388   -3.7693 H   0  0  0  0  0  0  0  0  0  0  0  0
    5.8454   -1.3705   -2.3219 H   0  0  0  0  0  0  0  0  0  0  0  0
    4.2927   -0.6095   -2.4178 H   0  0  0  0  0  0  0  0  0  0  0  0
    5.9593   -0.5078   -0.2269 H   0  0  0  0  0  0  0  0  0  0  0  0
    4.2378   -0.3307   -0.0892 H   0  0  0  0  0  0  0  0  0  0  0  0
    1.5349   -1.9971    2.1442 H   0  0  0  0  0  0  0  0  0  0  0  0
    1.7481   -2.2868    3.8642 H   0  0  0  0  0  0  0  0  0  0  0  0
    1.1222   -3.5708    2.8363 H   0  0  0  0  0  0  0  0  0  0  0  0
    3.4142   -3.8853    4.6472 H   0  0  0  0  0  0  0  0  0  0  0  0
    3.0627   -5.1633    3.5494 H   0  0  0  0  0  0  0  0  0  0  0  0
    5.8090   -3.9087    3.4395 H   0  0  0  0  0  0  0  0  0  0  0  0
    5.0382   -5.9052    5.5891 H   0  0  0  0  0  0  0  0  0  0  0  0
    5.2787   -4.1798    5.8419 H   0  0  0  0  0  0  0  0  0  0  0  0
    6.6176   -5.1626    5.3391 H   0  0  0  0  0  0  0  0  0  0  0  0
    2.7841   -2.3772    0.0384 H   0  0  0  0  0  0  0  0  0  0  0  0
  1  2  1  0
  1 21  1  0
  1 22  1  0
  1 23  1  0
  2 17  1  0
  2  3  1  0
  2 24  1  1
  3  4  1  0
  3 25  1  0
  3 26  1  0
  4  5  1  0
  4 27  1  0
  4 28  1  0
  5 11  1  0
  5  6  1  0
  5 29  1  6
  6 20  1  0
  6  7  1  0
  6 30  1  6
  7  8  1  0
  7  9  1  0
  7 31  1  6
  8 32  1  0
  8 33  1  0
  8 34  1  0
  9 10  1  0
  9 35  1  0
  9 36  1  0
 11 10  1  6
 10 37  1  0
 10 38  1  0
 11 20  1  0
 11 12  1  0
 12 13  1  0
 13 14  1  0
 14 15  1  1
 14 16  1  0
 14 19  1  0
 15 39  1  0
 15 40  1  0
 15 41  1  0
 16 17  1  0
 16 42  1  0
 16 43  1  0
 17 18  1  0
 17 44  1  6
 18 45  1  0
 18 46  1  0
 18 47  1  0
 19 20  1  0
 20 48  1  6
M  END
>  <i_m_ct_stereo_status>  (65) 
1

>  <s_m_source_file>  (65) 
/var/tmp/pbs.5076255.sched01/tmphbojuwnv/0fr5z8inm.sdf

>  <i_m_source_file_index>  (65) 
36

>  <i_lp_mmshare_version>  (65) 
48012

>  <i_f3d_flags>  (65) 
0

>  <s_epik_input>  (65) 
W0NIMl0xW0NIMl1bQ0BASF0oW0NIM10pW0NASF0oW0NIM10pW0NIMl1bQ0BdKE9PMikoW0NIM10pT1tDQEBIXTNbQ0BIXShbQ0BIXTFbQ0BdMjM0KVtDQEBIXShbQ0gzXSlbQ0gyXVtDSDJdNA==

>  <s_epik_cmdline>  (65) 
J2VwaWtfcHl0aG9uJywgJy1waHQnLCAnMi4wJywgJy1waCcsICc3LjAnLCAnLXRuJywgJzgnLCAnLW1hJywgJzIwMCcsICctaW1hZScsICc8aW5maWxlLm1hZT4nLCAnLW9tYWUnLCAnPG91dGZpbGUubWFlPic=

>  <r_lp_tautomer_probability>  (65) 
1

>  <r_epik_Ionization_Penalty>  (65) 
2.7101e-14

>  <r_epik_Ionization_Penalty_Charging>  (65) 
0

>  <r_epik_Ionization_Penalty_Neutral>  (65) 
2.7101e-14

>  <r_epik_State_Penalty>  (65) 
-0

>  <r_epik_Charging_Adjusted_Penalty>  (65) 
0

>  <i_epik_Tot_Q>  (65) 
0

>  <i_epik_Tot_abs_Q>  (65) 
0

>  <s_lp_Force_Field>  (65) 
OPLS3e

>  <r_lp_Energy>  (65) 
70.2418

>  <b_lp_Chiralities_Consistent>  (65) 
1

>  <s_lp_Variant>  (65) 
22:0-1

>  <s_i_glide_gridfile>  (65) 
pfpi4k_grid

>  <i_i_glide_lignum>  (65) 
36

>  <i_i_glide_rotatable_bonds>  (65) 
0

>  <r_i_docking_score>  (65) 
-2.97864

>  <r_i_glide_ligand_efficiency>  (65) 
-0.148932

>  <r_i_glide_ligand_efficiency_sa>  (65) 
-0.404264

>  <r_i_glide_ligand_efficiency_ln>  (65) 
-0.745455

>  <r_i_glide_gscore>  (65) 
-2.97864

>  <r_i_glide_lipo>  (65) 
-0.277048

>  <r_i_glide_hbond>  (65) 
0

>  <r_i_glide_metal>  (65) 
-0

>  <r_i_glide_rewards>  (65) 
-1.49766

>  <r_i_glide_evdw>  (65) 
-21.5907

>  <r_i_glide_ecoul>  (65) 
-0.829328

>  <r_i_glide_erotb>  (65) 
0

>  <r_i_glide_esite>  (65) 
0

>  <r_i_glide_emodel>  (65) 
-26.3649

>  <r_i_glide_energy>  (65) 
-22.4201

>  <r_i_glide_einternal>  (65) 
0

>  <r_i_glide_intrahb_reward>  (65) 
-0

>  <i_i_glide_confnum>  (65) 
2

>  <i_i_glide_posenum>  (65) 
32

>  <r_i_glide_eff_state_penalty>  (65) 
0

>  <ligand_id>  (65) 
22

>  <original_smiles>  (65) 
CC1CCC2C3C(C)CCC24OOC(C)(CC1C)OC34

>  <smiles>  (65) 
[H]C([H])([H])C12OOC34C([H])([H])C([H])([H])C([H])(C([H])([H])[H])C([H])(C3([H])O1)C4([H])C([H])([H])C([H])([H])C([H])(C([H])([H])[H])C([H])(C([H])([H])[H])C2([H])[H]

$$$$
24:0:0
     RDKit          3D

 44 48  0  0  1  0  0  0  0  0999 V2000
    3.1293   -1.3031   -3.0241 C   0  0  0  0  0  0  0  0  0  0  0  0
    3.0175   -1.9254   -1.6793 N   0  0  1  0  0  0  0  0  0  0  0  0
    2.7859   -3.3989   -1.7483 C   0  0  0  0  0  0  0  0  0  0  0  0
    2.7323   -4.0833   -0.3521 C   0  0  0  0  0  0  0  0  0  0  0  0
    3.9774   -3.7317    0.4977 C   0  0  1  0  0  0  0  0  0  0  0  0
    3.9061   -2.2207    0.6174 C   0  0  0  0  0  0  0  0  0  0  0  0
    3.4206   -1.6481    1.7332 C   0  0  0  0  0  0  0  0  0  0  0  0
    2.9318   -2.4442    2.9387 C   0  0  0  0  0  0  0  0  0  0  0  0
    3.4636   -3.8622    3.0425 C   0  0  0  0  0  0  0  0  0  0  0  0
    3.6176   -4.6341    4.2142 C   0  0  0  0  0  0  0  0  0  0  0  0
    4.3576   -5.8410    4.1634 C   0  0  0  0  0  0  0  0  0  0  0  0
    5.0098   -6.2389    2.9684 C   0  0  0  0  0  0  0  0  0  0  0  0
    5.8046   -7.3504    2.9542 O   0  0  0  0  0  0  0  0  0  0  0  0
    4.8634   -5.4701    1.7956 C   0  0  0  0  0  0  0  0  0  0  0  0
    4.0277   -4.3748    1.8647 C   0  0  0  0  0  0  0  0  0  0  0  0
    5.5170   -5.5958    0.6081 O   0  0  0  0  0  0  0  0  0  0  0  0
    5.2223   -4.4233   -0.1681 C   0  0  2  0  0  0  0  0  0  0  0  0
    6.4841   -3.5585   -0.3187 C   0  0  0  0  0  0  0  0  0  0  0  0
    6.3941   -2.5023   -1.4353 C   0  0  1  0  0  0  0  0  0  0  0  0
    6.0527   -3.0544   -2.6897 O   0  0  0  0  0  0  0  0  0  0  0  0
    5.5077   -1.2725   -1.1517 C   0  0  0  0  0  0  0  0  0  0  0  0
    4.0400   -1.4546   -0.6793 C   0  0  1  0  0  0  0  0  0  0  0  0
    4.0084   -1.6675   -3.5702 H   0  0  0  0  0  0  0  0  0  0  0  0
    3.2038   -0.2170   -2.9520 H   0  0  0  0  0  0  0  0  0  0  0  0
    2.2515   -1.5386   -3.6345 H   0  0  0  0  0  0  0  0  0  0  0  0
    1.8514   -3.5815   -2.2738 H   0  0  0  0  0  0  0  0  0  0  0  0
    3.5521   -3.8542   -2.3731 H   0  0  0  0  0  0  0  0  0  0  0  0
    1.8286   -3.7526    0.1649 H   0  0  0  0  0  0  0  0  0  0  0  0
    2.6426   -5.1660   -0.4677 H   0  0  0  0  0  0  0  0  0  0  0  0
    3.2390   -0.5799    1.7719 H   0  0  0  0  0  0  0  0  0  0  0  0
    3.2609   -1.9129    3.8283 H   0  0  0  0  0  0  0  0  0  0  0  0
    1.8459   -2.4527    2.9569 H   0  0  0  0  0  0  0  0  0  0  0  0
    3.2209   -4.2880    5.1585 H   0  0  0  0  0  0  0  0  0  0  0  0
    4.4826   -6.4239    5.0604 H   0  0  0  0  0  0  0  0  0  0  0  0
    5.8399   -7.7971    3.7843 H   0  0  0  0  0  0  0  0  0  0  0  0
    4.9850   -4.8404   -1.1454 H   0  0  0  0  0  0  0  0  0  0  0  0
    6.7684   -3.1031    0.6305 H   0  0  0  0  0  0  0  0  0  0  0  0
    7.3096   -4.2218   -0.5722 H   0  0  0  0  0  0  0  0  0  0  0  0
    7.4097   -2.1374   -1.5740 H   0  0  0  0  0  0  0  0  0  0  0  0
    5.2597   -3.5537   -2.6048 H   0  0  0  0  0  0  0  0  0  0  0  0
    6.0052   -0.7056   -0.3574 H   0  0  0  0  0  0  0  0  0  0  0  0
    5.5390   -0.6013   -2.0110 H   0  0  0  0  0  0  0  0  0  0  0  0
    3.7299   -0.4428   -0.4532 H   0  0  0  0  0  0  0  0  0  0  0  0
    2.1206   -1.5591   -1.3180 H   0  0  0  0  0  0  0  0  0  0  0  0
  1  2  1  0
  1 23  1  0
  1 24  1  0
  1 25  1  0
  2 22  1  0
  2  3  1  0
  2 44  1  1
  3  4  1  0
  3 26  1  0
  3 27  1  0
  5  4  1  6
  4 28  1  0
  4 29  1  0
  5 15  1  0
  5 17  1  0
  5  6  1  0
  6 22  1  0
  6  7  2  0
  7  8  1  0
  7 30  1  0
  8  9  1  0
  8 31  1  0
  8 32  1  0
  9 15  2  0
  9 10  1  0
 10 11  2  0
 10 33  1  0
 11 12  1  0
 11 34  1  0
 12 13  1  0
 12 14  2  0
 13 35  1  0
 14 15  1  0
 14 16  1  0
 16 17  1  0
 17 18  1  0
 17 36  1  6
 18 19  1  0
 18 37  1  0
 18 38  1  0
 19 20  1  0
 19 21  1  0
 19 39  1  6
 20 40  1  0
 21 22  1  0
 21 41  1  0
 21 42  1  0
 22 43  1  1
M  CHG  1   2   1
M  END
>  <i_m_ct_stereo_status>  (66) 
1

>  <s_m_source_file>  (66) 
/var/tmp/pbs.5076255.sched01/tmphbojuwnv/0fr5z8inm.sdf

>  <i_m_source_file_index>  (66) 
38

>  <i_lp_mmshare_version>  (66) 
48012

>  <i_f3d_flags>  (66) 
0

>  <s_epik_input>  (66) 
W0NIMl0xW0NIMl1OKFtDSDNdKVtDSF0oQz0yW0NAXTEzNClbQ0gyXVtDQEhdKFtPSF0pW0NIMl1bQ0BIXTRPYzVjM2MoW0NIMl1bQ0hdMilbY0hdW2NIXWM1W09IXQ==

>  <s_epik_cmdline>  (66) 
J2VwaWtfcHl0aG9uJywgJy1waHQnLCAnMi4wJywgJy1waCcsICc3LjAnLCAnLXRuJywgJzgnLCAnLW1hJywgJzIwMCcsICctaW1hZScsICc8aW5maWxlLm1hZT4nLCAnLW9tYWUnLCAnPG91dGZpbGUubWFlPic=

>  <r_lp_tautomer_probability>  (66) 
1

>  <r_epik_Ionization_Penalty>  (66) 
0.140929

>  <r_epik_Ionization_Penalty_Charging>  (66) 
0.111567

>  <r_epik_Ionization_Penalty_Neutral>  (66) 
0.0293626

>  <r_epik_State_Penalty>  (66) 
0.149428

>  <r_epik_Charging_Adjusted_Penalty>  (66) 
0.260994

>  <i_epik_Tot_Q>  (66) 
1

>  <i_epik_Tot_abs_Q>  (66) 
1

>  <s_lp_Force_Field>  (66) 
OPLS3e

>  <r_lp_Energy>  (66) 
55.3078

>  <b_lp_Chiralities_Consistent>  (66) 
1

>  <s_lp_Variant>  (66) 
24:0-1

>  <s_i_glide_gridfile>  (66) 
pfpi4k_grid

>  <i_i_glide_lignum>  (66) 
38

>  <i_i_glide_rotatable_bonds>  (66) 
2

>  <r_i_docking_score>  (66) 
-3.9696

>  <r_i_glide_ligand_efficiency>  (66) 
-0.180436

>  <r_i_glide_ligand_efficiency_sa>  (66) 
-0.50559

>  <r_i_glide_ligand_efficiency_ln>  (66) 
-0.970315

>  <r_i_glide_gscore>  (66) 
-3.9696

>  <r_i_glide_lipo>  (66) 
-0.324457

>  <r_i_glide_hbond>  (66) 
-0.2

>  <r_i_glide_metal>  (66) 
-0

>  <r_i_glide_rewards>  (66) 
-1.3611

>  <r_i_glide_evdw>  (66) 
-19.0452

>  <r_i_glide_ecoul>  (66) 
-6.94548

>  <r_i_glide_erotb>  (66) 
0

>  <r_i_glide_esite>  (66) 
-0.0899636

>  <r_i_glide_emodel>  (66) 
-33.5404

>  <r_i_glide_energy>  (66) 
-25.9907

>  <r_i_glide_einternal>  (66) 
0.0319968

>  <r_i_glide_intrahb_reward>  (66) 
-0

>  <i_i_glide_confnum>  (66) 
2

>  <i_i_glide_posenum>  (66) 
18

>  <r_i_glide_eff_state_penalty>  (66) 
0

>  <ligand_id>  (66) 
24

>  <original_smiles>  (66) 
CN1CCC23C4=CCc5ccc(O)c(c52)OC3CC(O)CC41

>  <smiles>  (66) 
[H]Oc1c([H])c([H])c2c3c1OC1([H])C([H])([H])C([H])(O[H])C([H])([H])C4([H])C(=C([H])C2([H])[H])C31C([H])([H])C([H])([H])[N+]4([H])C([H])([H])[H]

$$$$
24:0:1
     RDKit          3D

 44 48  0  0  1  0  0  0  0  0999 V2000
    3.9682   -0.5718   -2.7025 C   0  0  0  0  0  0  0  0  0  0  0  0
    3.4169   -1.4226   -1.6097 N   0  0  1  0  0  0  0  0  0  0  0  0
    2.9509   -2.7506   -2.1001 C   0  0  0  0  0  0  0  0  0  0  0  0
    2.4089   -3.6588   -0.9637 C   0  0  0  0  0  0  0  0  0  0  0  0
    3.4442   -3.8010    0.1772 C   0  0  1  0  0  0  0  0  0  0  0  0
    3.6269   -2.3763    0.6644 C   0  0  0  0  0  0  0  0  0  0  0  0
    2.9923   -1.9465    1.7742 C   0  0  0  0  0  0  0  0  0  0  0  0
    2.0838   -2.8322    2.6122 C   0  0  0  0  0  0  0  0  0  0  0  0
    2.2928   -4.3298    2.4513 C   0  0  0  0  0  0  0  0  0  0  0  0
    1.9991   -5.3422    3.3898 C   0  0  0  0  0  0  0  0  0  0  0  0
    2.4903   -6.6549    3.1718 C   0  0  0  0  0  0  0  0  0  0  0  0
    3.3320   -6.9424    2.0684 C   0  0  0  0  0  0  0  0  0  0  0  0
    3.8739   -8.1852    1.9168 O   0  0  0  0  0  0  0  0  0  0  0  0
    3.6347   -5.9302    1.1335 C   0  0  0  0  0  0  0  0  0  0  0  0
    3.0300   -4.7053    1.3151 C   0  0  0  0  0  0  0  0  0  0  0  0
    4.5338   -5.9591    0.1068 O   0  0  0  0  0  0  0  0  0  0  0  0
    4.6677   -4.6144   -0.3826 C   0  0  2  0  0  0  0  0  0  0  0  0
    6.0646   -4.0651   -0.0525 C   0  0  0  0  0  0  0  0  0  0  0  0
    6.4625   -2.8100   -0.8543 C   0  0  1  0  0  0  0  0  0  0  0  0
    6.3643   -2.9942   -2.2522 O   0  0  0  0  0  0  0  0  0  0  0  0
    5.7705   -1.4959   -0.4427 C   0  0  0  0  0  0  0  0  0  0  0  0
    4.2253   -1.4160   -0.3376 C   0  0  1  0  0  0  0  0  0  0  0  0
    4.8679   -1.0149   -3.1329 H   0  0  0  0  0  0  0  0  0  0  0  0
    4.2228    0.4208   -2.3412 H   0  0  0  0  0  0  0  0  0  0  0  0
    3.2382   -0.4481   -3.5028 H   0  0  0  0  0  0  0  0  0  0  0  0
    2.1554   -2.5770   -2.8217 H   0  0  0  0  0  0  0  0  0  0  0  0
    3.7513   -3.2325   -2.6555 H   0  0  0  0  0  0  0  0  0  0  0  0
    1.4859   -3.2174   -0.5882 H   0  0  0  0  0  0  0  0  0  0  0  0
    2.1244   -4.6323   -1.3571 H   0  0  0  0  0  0  0  0  0  0  0  0
    3.0089   -0.8975    2.0450 H   0  0  0  0  0  0  0  0  0  0  0  0
    2.2751   -2.5939    3.6564 H   0  0  0  0  0  0  0  0  0  0  0  0
    1.0413   -2.5788    2.4294 H   0  0  0  0  0  0  0  0  0  0  0  0
    1.4532   -5.1137    4.2937 H   0  0  0  0  0  0  0  0  0  0  0  0
    2.2765   -7.4247    3.8986 H   0  0  0  0  0  0  0  0  0  0  0  0
    3.5605   -8.8198    2.5441 H   0  0  0  0  0  0  0  0  0  0  0  0
    4.6190   -4.7449   -1.4632 H   0  0  0  0  0  0  0  0  0  0  0  0
    6.1753   -3.8970    1.0187 H   0  0  0  0  0  0  0  0  0  0  0  0
    6.7848   -4.8454   -0.2942 H   0  0  0  0  0  0  0  0  0  0  0  0
    7.5261   -2.6576   -0.6723 H   0  0  0  0  0  0  0  0  0  0  0  0
    7.0908   -3.5314   -2.5423 H   0  0  0  0  0  0  0  0  0  0  0  0
    6.1523   -1.2428    0.5456 H   0  0  0  0  0  0  0  0  0  0  0  0
    6.1312   -0.6884   -1.0747 H   0  0  0  0  0  0  0  0  0  0  0  0
    4.0501   -0.4180    0.0558 H   0  0  0  0  0  0  0  0  0  0  0  0
    2.5262   -0.9927   -1.3412 H   0  0  0  0  0  0  0  0  0  0  0  0
  1  2  1  0
  1 23  1  0
  1 24  1  0
  1 25  1  0
  2 22  1  0
  2  3  1  0
  2 44  1  1
  3  4  1  0
  3 26  1  0
  3 27  1  0
  5  4  1  6
  4 28  1  0
  4 29  1  0
  5 15  1  0
  5 17  1  0
  5  6  1  0
  6 22  1  0
  6  7  2  0
  7  8  1  0
  7 30  1  0
  8  9  1  0
  8 31  1  0
  8 32  1  0
  9 15  2  0
  9 10  1  0
 10 11  2  0
 10 33  1  0
 11 12  1  0
 11 34  1  0
 12 13  1  0
 12 14  2  0
 13 35  1  0
 14 15  1  0
 14 16  1  0
 16 17  1  0
 17 18  1  0
 17 36  1  6
 18 19  1  0
 18 37  1  0
 18 38  1  0
 19 20  1  0
 19 21  1  0
 19 39  1  6
 20 40  1  0
 21 22  1  0
 21 41  1  0
 21 42  1  0
 22 43  1  1
M  CHG  1   2   1
M  END
>  <i_m_ct_stereo_status>  (67) 
1

>  <s_m_source_file>  (67) 
/var/tmp/pbs.5076255.sched01/tmphbojuwnv/0fr5z8inm.sdf

>  <i_m_source_file_index>  (67) 
38

>  <i_lp_mmshare_version>  (67) 
48012

>  <i_f3d_flags>  (67) 
0

>  <s_epik_input>  (67) 
W0NIMl0xW0NIMl1OKFtDSDNdKVtDSF0oQz0yW0NAXTEzNClbQ0gyXVtDQEhdKFtPSF0pW0NIMl1bQ0BIXTRPYzVjM2MoW0NIMl1bQ0hdMilbY0hdW2NIXWM1W09IXQ==

>  <s_epik_cmdline>  (67) 
J2VwaWtfcHl0aG9uJywgJy1waHQnLCAnMi4wJywgJy1waCcsICc3LjAnLCAnLXRuJywgJzgnLCAnLW1hJywgJzIwMCcsICctaW1hZScsICc8aW5maWxlLm1hZT4nLCAnLW9tYWUnLCAnPG91dGZpbGUubWFlPic=

>  <r_lp_tautomer_probability>  (67) 
1

>  <r_epik_Ionization_Penalty>  (67) 
0.140929

>  <r_epik_Ionization_Penalty_Charging>  (67) 
0.111567

>  <r_epik_Ionization_Penalty_Neutral>  (67) 
0.0293626

>  <r_epik_State_Penalty>  (67) 
0.149428

>  <r_epik_Charging_Adjusted_Penalty>  (67) 
0.260994

>  <i_epik_Tot_Q>  (67) 
1

>  <i_epik_Tot_abs_Q>  (67) 
1

>  <s_lp_Force_Field>  (67) 
OPLS3e

>  <r_lp_Energy>  (67) 
55.3078

>  <b_lp_Chiralities_Consistent>  (67) 
1

>  <s_lp_Variant>  (67) 
24:0-1

>  <s_i_glide_gridfile>  (67) 
pfpi4k_grid

>  <i_i_glide_lignum>  (67) 
38

>  <i_i_glide_rotatable_bonds>  (67) 
2

>  <r_i_docking_score>  (67) 
-3.8745

>  <r_i_glide_ligand_efficiency>  (67) 
-0.176113

>  <r_i_glide_ligand_efficiency_sa>  (67) 
-0.493477

>  <r_i_glide_ligand_efficiency_ln>  (67) 
-0.947068

>  <r_i_glide_gscore>  (67) 
-3.8745

>  <r_i_glide_lipo>  (67) 
-0.230711

>  <r_i_glide_hbond>  (67) 
-0.2

>  <r_i_glide_metal>  (67) 
-0

>  <r_i_glide_rewards>  (67) 
-1.3611

>  <r_i_glide_evdw>  (67) 
-20.5071

>  <r_i_glide_ecoul>  (67) 
-6.38221

>  <r_i_glide_erotb>  (67) 
0

>  <r_i_glide_esite>  (67) 
-0.1

>  <r_i_glide_emodel>  (67) 
-33.8364

>  <r_i_glide_energy>  (67) 
-26.8893

>  <r_i_glide_einternal>  (67) 
0.701855

>  <r_i_glide_intrahb_reward>  (67) 
-0

>  <i_i_glide_confnum>  (67) 
2

>  <i_i_glide_posenum>  (67) 
34

>  <r_i_glide_eff_state_penalty>  (67) 
0

>  <ligand_id>  (67) 
24

>  <original_smiles>  (67) 
CN1CCC23C4=CCc5ccc(O)c(c52)OC3CC(O)CC41

>  <smiles>  (67) 
[H]Oc1c([H])c([H])c2c3c1OC1([H])C([H])([H])C([H])(O[H])C([H])([H])C4([H])C(=C([H])C2([H])[H])C31C([H])([H])C([H])([H])[N+]4([H])C([H])([H])[H]

$$$$
24:0:2
     RDKit          3D

 44 48  0  0  1  0  0  0  0  0999 V2000
    3.5814   -0.8860   -3.0474 C   0  0  0  0  0  0  0  0  0  0  0  0
    3.1596   -1.6359   -1.8355 N   0  0  1  0  0  0  0  0  0  0  0  0
    2.7815   -3.0510   -2.1279 C   0  0  0  0  0  0  0  0  0  0  0  0
    2.3722   -3.8493   -0.8610 C   0  0  0  0  0  0  0  0  0  0  0  0
    3.4550   -3.7572    0.2402 C   0  0  1  0  0  0  0  0  0  0  0  0
    3.5299   -2.2697    0.5352 C   0  0  0  0  0  0  0  0  0  0  0  0
    2.9004   -1.7564    1.6118 C   0  0  0  0  0  0  0  0  0  0  0  0
    2.1059   -2.5982    2.5957 C   0  0  0  0  0  0  0  0  0  0  0  0
    2.4425   -4.0807    2.6181 C   0  0  0  0  0  0  0  0  0  0  0  0
    2.2836   -4.9834    3.6863 C   0  0  0  0  0  0  0  0  0  0  0  0
    2.8845   -6.2647    3.6165 C   0  0  0  0  0  0  0  0  0  0  0  0
    3.7076   -6.6192    2.5194 C   0  0  0  0  0  0  0  0  0  0  0  0
    4.3596   -7.8169    2.5083 O   0  0  0  0  0  0  0  0  0  0  0  0
    3.8778   -5.7211    1.4467 C   0  0  0  0  0  0  0  0  0  0  0  0
    3.1681   -4.5342    1.5027 C   0  0  0  0  0  0  0  0  0  0  0  0
    4.7345   -5.8056    0.3916 O   0  0  0  0  0  0  0  0  0  0  0  0
    4.7265   -4.5304   -0.2676 C   0  0  2  0  0  0  0  0  0  0  0  0
    6.0798   -3.8259   -0.0812 C   0  0  0  0  0  0  0  0  0  0  0  0
    6.3259   -2.6536   -1.0494 C   0  0  1  0  0  0  0  0  0  0  0  0
    6.1880   -3.0388   -2.3984 O   0  0  0  0  0  0  0  0  0  0  0  0
    5.5396   -1.3558   -0.7780 C   0  0  0  0  0  0  0  0  0  0  0  0
    4.0024   -1.4002   -0.6114 C   0  0  1  0  0  0  0  0  0  0  0  0
    4.4970   -1.2980   -3.4720 H   0  0  0  0  0  0  0  0  0  0  0  0
    3.7589    0.1640   -2.8198 H   0  0  0  0  0  0  0  0  0  0  0  0
    2.8094   -0.9342   -3.8170 H   0  0  0  0  0  0  0  0  0  0  0  0
    1.9427   -3.0441   -2.8240 H   0  0  0  0  0  0  0  0  0  0  0  0
    3.5913   -3.5407   -2.6614 H   0  0  0  0  0  0  0  0  0  0  0  0
    1.4280   -3.4457   -0.5027 H   0  0  0  0  0  0  0  0  0  0  0  0
    2.1665   -4.8848   -1.1168 H   0  0  0  0  0  0  0  0  0  0  0  0
    2.8274   -0.6847    1.7459 H   0  0  0  0  0  0  0  0  0  0  0  0
    2.3126   -2.2114    3.5930 H   0  0  0  0  0  0  0  0  0  0  0  0
    1.0367   -2.4651    2.4316 H   0  0  0  0  0  0  0  0  0  0  0  0
    1.7528   -4.6858    4.5788 H   0  0  0  0  0  0  0  0  0  0  0  0
    2.7695   -6.9469    4.4459 H   0  0  0  0  0  0  0  0  0  0  0  0
    4.1493   -8.3711    3.2439 H   0  0  0  0  0  0  0  0  0  0  0  0
    4.6404   -4.8076   -1.3172 H   0  0  0  0  0  0  0  0  0  0  0  0
    6.2198   -3.5124    0.9544 H   0  0  0  0  0  0  0  0  0  0  0  0
    6.8611   -4.5639   -0.2676 H   0  0  0  0  0  0  0  0  0  0  0  0
    7.3805   -2.3929   -0.9484 H   0  0  0  0  0  0  0  0  0  0  0  0
    5.3393   -3.4336   -2.5247 H   0  0  0  0  0  0  0  0  0  0  0  0
    5.9327   -0.9404    0.1488 H   0  0  0  0  0  0  0  0  0  0  0  0
    5.8032   -0.6165   -1.5349 H   0  0  0  0  0  0  0  0  0  0  0  0
    3.7564   -0.3801   -0.3215 H   0  0  0  0  0  0  0  0  0  0  0  0
    2.2627   -1.2251   -1.5574 H   0  0  0  0  0  0  0  0  0  0  0  0
  1  2  1  0
  1 23  1  0
  1 24  1  0
  1 25  1  0
  2 22  1  0
  2  3  1  0
  2 44  1  1
  3  4  1  0
  3 26  1  0
  3 27  1  0
  5  4  1  6
  4 28  1  0
  4 29  1  0
  5 15  1  0
  5 17  1  0
  5  6  1  0
  6 22  1  0
  6  7  2  0
  7  8  1  0
  7 30  1  0
  8  9  1  0
  8 31  1  0
  8 32  1  0
  9 15  2  0
  9 10  1  0
 10 11  2  0
 10 33  1  0
 11 12  1  0
 11 34  1  0
 12 13  1  0
 12 14  2  0
 13 35  1  0
 14 15  1  0
 14 16  1  0
 16 17  1  0
 17 18  1  0
 17 36  1  6
 18 19  1  0
 18 37  1  0
 18 38  1  0
 19 20  1  0
 19 21  1  0
 19 39  1  6
 20 40  1  0
 21 22  1  0
 21 41  1  0
 21 42  1  0
 22 43  1  1
M  CHG  1   2   1
M  END
>  <i_m_ct_stereo_status>  (68) 
1

>  <s_m_source_file>  (68) 
/var/tmp/pbs.5076255.sched01/tmphbojuwnv/0fr5z8inm.sdf

>  <i_m_source_file_index>  (68) 
38

>  <i_lp_mmshare_version>  (68) 
48012

>  <i_f3d_flags>  (68) 
0

>  <s_epik_input>  (68) 
W0NIMl0xW0NIMl1OKFtDSDNdKVtDSF0oQz0yW0NAXTEzNClbQ0gyXVtDQEhdKFtPSF0pW0NIMl1bQ0BIXTRPYzVjM2MoW0NIMl1bQ0hdMilbY0hdW2NIXWM1W09IXQ==

>  <s_epik_cmdline>  (68) 
J2VwaWtfcHl0aG9uJywgJy1waHQnLCAnMi4wJywgJy1waCcsICc3LjAnLCAnLXRuJywgJzgnLCAnLW1hJywgJzIwMCcsICctaW1hZScsICc8aW5maWxlLm1hZT4nLCAnLW9tYWUnLCAnPG91dGZpbGUubWFlPic=

>  <r_lp_tautomer_probability>  (68) 
1

>  <r_epik_Ionization_Penalty>  (68) 
0.140929

>  <r_epik_Ionization_Penalty_Charging>  (68) 
0.111567

>  <r_epik_Ionization_Penalty_Neutral>  (68) 
0.0293626

>  <r_epik_State_Penalty>  (68) 
0.149428

>  <r_epik_Charging_Adjusted_Penalty>  (68) 
0.260994

>  <i_epik_Tot_Q>  (68) 
1

>  <i_epik_Tot_abs_Q>  (68) 
1

>  <s_lp_Force_Field>  (68) 
OPLS3e

>  <r_lp_Energy>  (68) 
55.3078

>  <b_lp_Chiralities_Consistent>  (68) 
1

>  <s_lp_Variant>  (68) 
24:0-1

>  <s_i_glide_gridfile>  (68) 
pfpi4k_grid

>  <i_i_glide_lignum>  (68) 
38

>  <i_i_glide_rotatable_bonds>  (68) 
2

>  <r_i_docking_score>  (68) 
-3.74573

>  <r_i_glide_ligand_efficiency>  (68) 
-0.170261

>  <r_i_glide_ligand_efficiency_sa>  (68) 
-0.477077

>  <r_i_glide_ligand_efficiency_ln>  (68) 
-0.915594

>  <r_i_glide_gscore>  (68) 
-3.74573

>  <r_i_glide_lipo>  (68) 
-0.155771

>  <r_i_glide_hbond>  (68) 
-0.2

>  <r_i_glide_metal>  (68) 
-0

>  <r_i_glide_rewards>  (68) 
-1.3611

>  <r_i_glide_evdw>  (68) 
-19.8891

>  <r_i_glide_ecoul>  (68) 
-6.23118

>  <r_i_glide_erotb>  (68) 
0

>  <r_i_glide_esite>  (68) 
-0.0997331

>  <r_i_glide_emodel>  (68) 
-33.2335

>  <r_i_glide_energy>  (68) 
-26.1203

>  <r_i_glide_einternal>  (68) 
0.0592888

>  <r_i_glide_intrahb_reward>  (68) 
-0

>  <i_i_glide_confnum>  (68) 
1

>  <i_i_glide_posenum>  (68) 
5

>  <r_i_glide_eff_state_penalty>  (68) 
0

>  <ligand_id>  (68) 
24

>  <original_smiles>  (68) 
CN1CCC23C4=CCc5ccc(O)c(c52)OC3CC(O)CC41

>  <smiles>  (68) 
[H]Oc1c([H])c([H])c2c3c1OC1([H])C([H])([H])C([H])(O[H])C([H])([H])C4([H])C(=C([H])C2([H])[H])C31C([H])([H])C([H])([H])[N+]4([H])C([H])([H])[H]

$$$$
24:1:0
     RDKit          3D

 44 48  0  0  1  0  0  0  0  0999 V2000
    3.3795   -1.3237   -2.8656 C   0  0  0  0  0  0  0  0  0  0  0  0
    3.0855   -1.9467   -1.5517 N   0  0  1  0  0  0  0  0  0  0  0  0
    2.6893   -3.4069   -1.6518 C   0  0  0  0  0  0  0  0  0  0  0  0
    2.8205   -4.2722   -0.3096 C   0  0  0  0  0  0  0  0  0  0  0  0
    3.8375   -3.7774    0.7915 C   0  0  1  0  0  0  0  0  0  0  0  0
    3.6469   -2.3220    0.7443 C   0  0  0  0  0  0  0  0  0  0  0  0
    2.8717   -1.6552    1.6151 C   0  0  0  0  0  0  0  0  0  0  0  0
    2.1543   -2.3760    2.7513 C   0  0  0  0  0  0  0  0  0  0  0  0
    2.7374   -3.7352    3.1363 C   0  0  0  0  0  0  0  0  0  0  0  0
    2.6900   -4.3739    4.3940 C   0  0  0  0  0  0  0  0  0  0  0  0
    3.5384   -5.4833    4.6428 C   0  0  0  0  0  0  0  0  0  0  0  0
    4.4966   -5.8973    3.6835 C   0  0  0  0  0  0  0  0  0  0  0  0
    5.3852   -6.8867    3.9853 O   0  0  0  0  0  0  0  0  0  0  0  0
    4.5618   -5.2571    2.4295 C   0  0  0  0  0  0  0  0  0  0  0  0
    3.6087   -4.2877    2.1846 C   0  0  0  0  0  0  0  0  0  0  0  0
    5.5186   -5.3449    1.4570 O   0  0  0  0  0  0  0  0  0  0  0  0
    5.3488   -4.1984    0.5985 C   0  0  2  0  0  0  0  0  0  0  0  0
    6.3675   -3.0466    0.9913 C   0  0  0  0  0  0  0  0  0  0  0  0
    6.5951   -1.8054    0.0270 C   0  0  1  0  0  0  0  0  0  0  0  0
    7.2818   -2.2549   -1.1267 O   0  0  0  0  0  0  0  0  0  0  0  0
    5.3664   -0.9282   -0.4423 C   0  0  0  0  0  0  0  0  0  0  0  0
    4.1819   -1.8672   -0.5668 C   0  0  2  0  0  0  0  0  0  0  0  0
    4.2425   -1.7908   -3.3471 H   0  0  0  0  0  0  0  0  0  0  0  0
    3.5835   -0.2553   -2.7585 H   0  0  0  0  0  0  0  0  0  0  0  0
    2.5283   -1.4293   -3.5413 H   0  0  0  0  0  0  0  0  0  0  0  0
    1.6806   -3.4769   -2.0589 H   0  0  0  0  0  0  0  0  0  0  0  0
    3.3312   -3.8544   -2.4046 H   0  0  0  0  0  0  0  0  0  0  0  0
    1.8301   -4.2642    0.1446 H   0  0  0  0  0  0  0  0  0  0  0  0
    3.0052   -5.3208   -0.5412 H   0  0  0  0  0  0  0  0  0  0  0  0
    2.6379   -0.6101    1.4564 H   0  0  0  0  0  0  0  0  0  0  0  0
    2.2233   -1.7347    3.6277 H   0  0  0  0  0  0  0  0  0  0  0  0
    1.0956   -2.4803    2.5209 H   0  0  0  0  0  0  0  0  0  0  0  0
    2.0593   -3.9893    5.1817 H   0  0  0  0  0  0  0  0  0  0  0  0
    3.5102   -5.9697    5.6060 H   0  0  0  0  0  0  0  0  0  0  0  0
    5.9656   -7.0872    3.2666 H   0  0  0  0  0  0  0  0  0  0  0  0
    5.5527   -4.5387   -0.4194 H   0  0  0  0  0  0  0  0  0  0  0  0
    6.1123   -2.6709    1.9838 H   0  0  0  0  0  0  0  0  0  0  0  0
    7.3409   -3.5142    1.1330 H   0  0  0  0  0  0  0  0  0  0  0  0
    7.2931   -1.1305    0.5247 H   0  0  0  0  0  0  0  0  0  0  0  0
    6.8514   -3.0249   -1.4716 H   0  0  0  0  0  0  0  0  0  0  0  0
    5.1434   -0.1563    0.2956 H   0  0  0  0  0  0  0  0  0  0  0  0
    5.5896   -0.4119   -1.3768 H   0  0  0  0  0  0  0  0  0  0  0  0
    4.7482   -2.6364   -1.0826 H   0  0  0  0  0  0  0  0  0  0  0  0
    2.2783   -1.4574   -1.1577 H   0  0  0  0  0  0  0  0  0  0  0  0
  1  2  1  0
  1 23  1  0
  1 24  1  0
  1 25  1  0
  2 22  1  0
  2  3  1  0
  2 44  1  1
  3  4  1  0
  3 26  1  0
  3 27  1  0
  5  4  1  6
  4 28  1  0
  4 29  1  0
  5 15  1  0
  5 17  1  0
  5  6  1  0
  6 22  1  0
  6  7  2  0
  7  8  1  0
  7 30  1  0
  8  9  1  0
  8 31  1  0
  8 32  1  0
  9 15  2  0
  9 10  1  0
 10 11  2  0
 10 33  1  0
 11 12  1  0
 11 34  1  0
 12 13  1  0
 12 14  2  0
 13 35  1  0
 14 15  1  0
 14 16  1  0
 16 17  1  0
 17 18  1  0
 17 36  1  6
 18 19  1  0
 18 37  1  0
 18 38  1  0
 19 20  1  0
 19 21  1  0
 19 39  1  1
 20 40  1  0
 21 22  1  0
 21 41  1  0
 21 42  1  0
 22 43  1  6
M  CHG  1   2   1
M  END
>  <i_m_ct_stereo_status>  (69) 
1

>  <s_m_source_file>  (69) 
/var/tmp/pbs.5076255.sched01/tmphbojuwnv/0fr5z8inm.sdf

>  <i_m_source_file_index>  (69) 
39

>  <i_lp_mmshare_version>  (69) 
48012

>  <i_f3d_flags>  (69) 
0

>  <s_epik_input>  (69) 
W0NIMl0xW0NIMl1OKFtDSDNdKVtDSF0oQz0yW0NAXTEzNClbQ0gyXVtDQEhdKFtPSF0pW0NIMl1bQ0BIXTRPYzVjM2MoW0NIMl1bQ0hdMilbY0hdW2NIXWM1W09IXQ==

>  <s_epik_cmdline>  (69) 
J2VwaWtfcHl0aG9uJywgJy1waHQnLCAnMi4wJywgJy1waCcsICc3LjAnLCAnLXRuJywgJzgnLCAnLW1hJywgJzIwMCcsICctaW1hZScsICc8aW5maWxlLm1hZT4nLCAnLW9tYWUnLCAnPG91dGZpbGUubWFlPic=

>  <r_lp_tautomer_probability>  (69) 
1

>  <r_epik_Ionization_Penalty>  (69) 
0.140929

>  <r_epik_Ionization_Penalty_Charging>  (69) 
0.111567

>  <r_epik_Ionization_Penalty_Neutral>  (69) 
0.0293626

>  <r_epik_State_Penalty>  (69) 
0.149428

>  <r_epik_Charging_Adjusted_Penalty>  (69) 
0.260994

>  <i_epik_Tot_Q>  (69) 
1

>  <i_epik_Tot_abs_Q>  (69) 
1

>  <s_lp_Force_Field>  (69) 
OPLS3e

>  <r_lp_Energy>  (69) 
101.363

>  <b_lp_Chiralities_Consistent>  (69) 
1

>  <s_lp_Variant>  (69) 
24:0-2

>  <s_i_glide_gridfile>  (69) 
pfpi4k_grid

>  <i_i_glide_lignum>  (69) 
39

>  <i_i_glide_rotatable_bonds>  (69) 
2

>  <r_i_docking_score>  (69) 
-4.43282

>  <r_i_glide_ligand_efficiency>  (69) 
-0.201492

>  <r_i_glide_ligand_efficiency_sa>  (69) 
-0.564589

>  <r_i_glide_ligand_efficiency_ln>  (69) 
-1.08354

>  <r_i_glide_gscore>  (69) 
-4.43282

>  <r_i_glide_lipo>  (69) 
-0.283957

>  <r_i_glide_hbond>  (69) 
-0.36

>  <r_i_glide_metal>  (69) 
-0

>  <r_i_glide_rewards>  (69) 
-1.3611

>  <r_i_glide_evdw>  (69) 
-16.8355

>  <r_i_glide_ecoul>  (69) 
-9.94467

>  <r_i_glide_erotb>  (69) 
0

>  <r_i_glide_esite>  (69) 
-0.0942922

>  <r_i_glide_emodel>  (69) 
-35.4402

>  <r_i_glide_energy>  (69) 
-26.7802

>  <r_i_glide_einternal>  (69) 
0.188678

>  <r_i_glide_intrahb_reward>  (69) 
-0

>  <i_i_glide_confnum>  (69) 
1

>  <i_i_glide_posenum>  (69) 
13

>  <r_i_glide_eff_state_penalty>  (69) 
0

>  <ligand_id>  (69) 
24

>  <original_smiles>  (69) 
CN1CCC23C4=CCc5ccc(O)c(c52)OC3CC(O)CC41

>  <smiles>  (69) 
[H]Oc1c([H])c([H])c2c3c1OC1([H])C([H])([H])C([H])(O[H])C([H])([H])C4([H])C(=C([H])C2([H])[H])C31C([H])([H])C([H])([H])[N+]4([H])C([H])([H])[H]

$$$$
24:1:1
     RDKit          3D

 44 48  0  0  1  0  0  0  0  0999 V2000
    3.9906   -0.5670   -2.8354 C   0  0  0  0  0  0  0  0  0  0  0  0
    3.4357   -1.2692   -1.6482 N   0  0  1  0  0  0  0  0  0  0  0  0
    2.8084   -2.6084   -1.9843 C   0  0  0  0  0  0  0  0  0  0  0  0
    2.6193   -3.6204   -0.7623 C   0  0  0  0  0  0  0  0  0  0  0  0
    3.5568   -3.4504    0.4977 C   0  0  1  0  0  0  0  0  0  0  0  0
    3.6327   -1.9901    0.6251 C   0  0  0  0  0  0  0  0  0  0  0  0
    2.8938   -1.2838    1.4961 C   0  0  0  0  0  0  0  0  0  0  0  0
    1.9244   -1.9736    2.4468 C   0  0  0  0  0  0  0  0  0  0  0  0
    2.2096   -3.4519    2.7116 C   0  0  0  0  0  0  0  0  0  0  0  0
    1.8855   -4.2076    3.8551 C   0  0  0  0  0  0  0  0  0  0  0  0
    2.4809   -5.4810    4.0399 C   0  0  0  0  0  0  0  0  0  0  0  0
    3.4629   -5.9604    3.1368 C   0  0  0  0  0  0  0  0  0  0  0  0
    4.1205   -7.1264    3.3958 O   0  0  0  0  0  0  0  0  0  0  0  0
    3.7956   -5.2136    1.9895 C   0  0  0  0  0  0  0  0  0  0  0  0
    3.0709   -4.0557    1.7807 C   0  0  0  0  0  0  0  0  0  0  0  0
    4.8330   -5.3748    1.1155 O   0  0  0  0  0  0  0  0  0  0  0  0
    4.9811   -4.1276    0.4038 C   0  0  2  0  0  0  0  0  0  0  0  0
    6.1320   -3.2399    1.0439 C   0  0  0  0  0  0  0  0  0  0  0  0
    6.6875   -1.9593    0.2806 C   0  0  1  0  0  0  0  0  0  0  0  0
    7.4102   -2.3739   -0.8674 O   0  0  0  0  0  0  0  0  0  0  0  0
    5.6942   -0.8231   -0.1752 C   0  0  0  0  0  0  0  0  0  0  0  0
    4.3969   -1.5060   -0.5513 C   0  0  2  0  0  0  0  0  0  0  0  0
    4.8088   -1.1352   -3.2867 H   0  0  0  0  0  0  0  0  0  0  0  0
    4.3689    0.4219   -2.5749 H   0  0  0  0  0  0  0  0  0  0  0  0
    3.2170   -0.4252   -3.5922 H   0  0  0  0  0  0  0  0  0  0  0  0
    1.8572   -2.4341   -2.4856 H   0  0  0  0  0  0  0  0  0  0  0  0
    3.4392   -3.1027   -2.7221 H   0  0  0  0  0  0  0  0  0  0  0  0
    1.6017   -3.4573   -0.4230 H   0  0  0  0  0  0  0  0  0  0  0  0
    2.6346   -4.6542   -1.1055 H   0  0  0  0  0  0  0  0  0  0  0  0
    2.8694   -0.2029    1.4538 H   0  0  0  0  0  0  0  0  0  0  0  0
    1.9948   -1.4570    3.4003 H   0  0  0  0  0  0  0  0  0  0  0  0
    0.9049   -1.8445    2.0890 H   0  0  0  0  0  0  0  0  0  0  0  0
    1.2366   -3.8006    4.6199 H   0  0  0  0  0  0  0  0  0  0  0  0
    2.2510   -6.0574    4.9220 H   0  0  0  0  0  0  0  0  0  0  0  0
    4.7602   -7.3410    2.7337 H   0  0  0  0  0  0  0  0  0  0  0  0
    5.2432   -4.3815   -0.6258 H   0  0  0  0  0  0  0  0  0  0  0  0
    5.8253   -2.9359    2.0477 H   0  0  0  0  0  0  0  0  0  0  0  0
    6.9815   -3.8977    1.2193 H   0  0  0  0  0  0  0  0  0  0  0  0
    7.4306   -1.4927    0.9259 H   0  0  0  0  0  0  0  0  0  0  0  0
    6.8963   -3.0027   -1.3543 H   0  0  0  0  0  0  0  0  0  0  0  0
    5.5282   -0.1078    0.6293 H   0  0  0  0  0  0  0  0  0  0  0  0
    6.1046   -0.2625   -1.0080 H   0  0  0  0  0  0  0  0  0  0  0  0
    4.8785   -2.3044   -1.1052 H   0  0  0  0  0  0  0  0  0  0  0  0
    2.6831   -0.6974   -1.2704 H   0  0  0  0  0  0  0  0  0  0  0  0
  1  2  1  0
  1 23  1  0
  1 24  1  0
  1 25  1  0
  2 22  1  0
  2  3  1  0
  2 44  1  1
  3  4  1  0
  3 26  1  0
  3 27  1  0
  5  4  1  6
  4 28  1  0
  4 29  1  0
  5 15  1  0
  5 17  1  0
  5  6  1  0
  6 22  1  0
  6  7  2  0
  7  8  1  0
  7 30  1  0
  8  9  1  0
  8 31  1  0
  8 32  1  0
  9 15  2  0
  9 10  1  0
 10 11  2  0
 10 33  1  0
 11 12  1  0
 11 34  1  0
 12 13  1  0
 12 14  2  0
 13 35  1  0
 14 15  1  0
 14 16  1  0
 16 17  1  0
 17 18  1  0
 17 36  1  6
 18 19  1  0
 18 37  1  0
 18 38  1  0
 19 20  1  0
 19 21  1  0
 19 39  1  1
 20 40  1  0
 21 22  1  0
 21 41  1  0
 21 42  1  0
 22 43  1  6
M  CHG  1   2   1
M  END
>  <i_m_ct_stereo_status>  (70) 
1

>  <s_m_source_file>  (70) 
/var/tmp/pbs.5076255.sched01/tmphbojuwnv/0fr5z8inm.sdf

>  <i_m_source_file_index>  (70) 
39

>  <i_lp_mmshare_version>  (70) 
48012

>  <i_f3d_flags>  (70) 
0

>  <s_epik_input>  (70) 
W0NIMl0xW0NIMl1OKFtDSDNdKVtDSF0oQz0yW0NAXTEzNClbQ0gyXVtDQEhdKFtPSF0pW0NIMl1bQ0BIXTRPYzVjM2MoW0NIMl1bQ0hdMilbY0hdW2NIXWM1W09IXQ==

>  <s_epik_cmdline>  (70) 
J2VwaWtfcHl0aG9uJywgJy1waHQnLCAnMi4wJywgJy1waCcsICc3LjAnLCAnLXRuJywgJzgnLCAnLW1hJywgJzIwMCcsICctaW1hZScsICc8aW5maWxlLm1hZT4nLCAnLW9tYWUnLCAnPG91dGZpbGUubWFlPic=

>  <r_lp_tautomer_probability>  (70) 
1

>  <r_epik_Ionization_Penalty>  (70) 
0.140929

>  <r_epik_Ionization_Penalty_Charging>  (70) 
0.111567

>  <r_epik_Ionization_Penalty_Neutral>  (70) 
0.0293626

>  <r_epik_State_Penalty>  (70) 
0.149428

>  <r_epik_Charging_Adjusted_Penalty>  (70) 
0.260994

>  <i_epik_Tot_Q>  (70) 
1

>  <i_epik_Tot_abs_Q>  (70) 
1

>  <s_lp_Force_Field>  (70) 
OPLS3e

>  <r_lp_Energy>  (70) 
101.363

>  <b_lp_Chiralities_Consistent>  (70) 
1

>  <s_lp_Variant>  (70) 
24:0-2

>  <s_i_glide_gridfile>  (70) 
pfpi4k_grid

>  <i_i_glide_lignum>  (70) 
39

>  <i_i_glide_rotatable_bonds>  (70) 
2

>  <r_i_docking_score>  (70) 
-3.91307

>  <r_i_glide_ligand_efficiency>  (70) 
-0.177867

>  <r_i_glide_ligand_efficiency_sa>  (70) 
-0.49839

>  <r_i_glide_ligand_efficiency_ln>  (70) 
-0.956497

>  <r_i_glide_gscore>  (70) 
-3.91307

>  <r_i_glide_lipo>  (70) 
-0.29306

>  <r_i_glide_hbond>  (70) 
-0.303909

>  <r_i_glide_metal>  (70) 
-0

>  <r_i_glide_rewards>  (70) 
-1.3611

>  <r_i_glide_evdw>  (70) 
-17.7633

>  <r_i_glide_ecoul>  (70) 
-6.47653

>  <r_i_glide_erotb>  (70) 
0

>  <r_i_glide_esite>  (70) 
-0.0953551

>  <r_i_glide_emodel>  (70) 
-31.9021

>  <r_i_glide_energy>  (70) 
-24.2399

>  <r_i_glide_einternal>  (70) 
0.100313

>  <r_i_glide_intrahb_reward>  (70) 
-0

>  <i_i_glide_confnum>  (70) 
1

>  <i_i_glide_posenum>  (70) 
20

>  <r_i_glide_eff_state_penalty>  (70) 
0

>  <ligand_id>  (70) 
24

>  <original_smiles>  (70) 
CN1CCC23C4=CCc5ccc(O)c(c52)OC3CC(O)CC41

>  <smiles>  (70) 
[H]Oc1c([H])c([H])c2c3c1OC1([H])C([H])([H])C([H])(O[H])C([H])([H])C4([H])C(=C([H])C2([H])[H])C31C([H])([H])C([H])([H])[N+]4([H])C([H])([H])[H]

$$$$
24:1:2
     RDKit          3D

 44 48  0  0  1  0  0  0  0  0999 V2000
    3.8110   -0.4762   -2.8215 C   0  0  0  0  0  0  0  0  0  0  0  0
    3.3392   -1.4207   -1.7633 N   0  0  1  0  0  0  0  0  0  0  0  0
    2.5147   -2.5913   -2.2898 C   0  0  0  0  0  0  0  0  0  0  0  0
    2.2512   -3.7479   -1.2395 C   0  0  0  0  0  0  0  0  0  0  0  0
    3.3955   -4.0108   -0.1657 C   0  0  1  0  0  0  0  0  0  0  0  0
    3.7181   -2.6431    0.2700 C   0  0  0  0  0  0  0  0  0  0  0  0
    3.2040   -2.0896    1.3775 C   0  0  0  0  0  0  0  0  0  0  0  0
    2.2688   -2.8853    2.2749 C   0  0  0  0  0  0  0  0  0  0  0  0
    2.3482   -4.4118    2.1758 C   0  0  0  0  0  0  0  0  0  0  0  0
    2.0836   -5.3905    3.1622 C   0  0  0  0  0  0  0  0  0  0  0  0
    2.5170   -6.7192    2.9466 C   0  0  0  0  0  0  0  0  0  0  0  0
    3.3013   -7.0636    1.8039 C   0  0  0  0  0  0  0  0  0  0  0  0
    3.7919   -8.3189    1.6451 O   0  0  0  0  0  0  0  0  0  0  0  0
    3.5908   -6.0903    0.8328 C   0  0  0  0  0  0  0  0  0  0  0  0
    3.0121   -4.8577    1.0130 C   0  0  0  0  0  0  0  0  0  0  0  0
    4.4636   -6.1377   -0.2296 O   0  0  0  0  0  0  0  0  0  0  0  0
    4.6781   -4.7780   -0.6661 C   0  0  2  0  0  0  0  0  0  0  0  0
    6.0090   -4.1897   -0.0304 C   0  0  0  0  0  0  0  0  0  0  0  0
    6.6510   -2.8244   -0.5630 C   0  0  1  0  0  0  0  0  0  0  0  0
    7.1437   -2.9579   -1.8886 O   0  0  0  0  0  0  0  0  0  0  0  0
    5.7833   -1.5174   -0.5814 C   0  0  0  0  0  0  0  0  0  0  0  0
    4.3831   -1.9764   -0.8760 C   0  0  2  0  0  0  0  0  0  0  0  0
    4.4699   -0.9655   -3.5522 H   0  0  0  0  0  0  0  0  0  0  0  0
    4.3346    0.3752   -2.3872 H   0  0  0  0  0  0  0  0  0  0  0  0
    2.9335   -0.0732   -3.3330 H   0  0  0  0  0  0  0  0  0  0  0  0
    1.5276   -2.2871   -2.6063 H   0  0  0  0  0  0  0  0  0  0  0  0
    2.9782   -2.9802   -3.1928 H   0  0  0  0  0  0  0  0  0  0  0  0
    1.4272   -3.3887   -0.6393 H   0  0  0  0  0  0  0  0  0  0  0  0
    1.7844   -4.6165   -1.7316 H   0  0  0  0  0  0  0  0  0  0  0  0
    3.3202   -1.0331    1.5937 H   0  0  0  0  0  0  0  0  0  0  0  0
    2.5867   -2.6281    3.2755 H   0  0  0  0  0  0  0  0  0  0  0  0
    1.2573   -2.5234    2.1126 H   0  0  0  0  0  0  0  0  0  0  0  0
    1.6162   -5.1328    4.1088 H   0  0  0  0  0  0  0  0  0  0  0  0
    2.3346   -7.4769    3.6889 H   0  0  0  0  0  0  0  0  0  0  0  0
    3.5384   -8.9262    2.3220 H   0  0  0  0  0  0  0  0  0  0  0  0
    4.7485   -4.7438   -1.7628 H   0  0  0  0  0  0  0  0  0  0  0  0
    5.8877   -4.1163    1.0555 H   0  0  0  0  0  0  0  0  0  0  0  0
    6.7547   -4.9583   -0.1534 H   0  0  0  0  0  0  0  0  0  0  0  0
    7.5166   -2.6127    0.0606 H   0  0  0  0  0  0  0  0  0  0  0  0
    7.8791   -3.5538   -1.8811 H   0  0  0  0  0  0  0  0  0  0  0  0
    5.8303   -1.0114    0.3824 H   0  0  0  0  0  0  0  0  0  0  0  0
    6.1397   -0.8414   -1.3599 H   0  0  0  0  0  0  0  0  0  0  0  0
    4.6796   -2.6582   -1.6474 H   0  0  0  0  0  0  0  0  0  0  0  0
    2.6845   -0.9093   -1.1666 H   0  0  0  0  0  0  0  0  0  0  0  0
  1  2  1  0
  1 23  1  0
  1 24  1  0
  1 25  1  0
  2 22  1  0
  2  3  1  0
  2 44  1  1
  3  4  1  0
  3 26  1  0
  3 27  1  0
  5  4  1  6
  4 28  1  0
  4 29  1  0
  5 15  1  0
  5 17  1  0
  5  6  1  0
  6 22  1  0
  6  7  2  0
  7  8  1  0
  7 30  1  0
  8  9  1  0
  8 31  1  0
  8 32  1  0
  9 15  2  0
  9 10  1  0
 10 11  2  0
 10 33  1  0
 11 12  1  0
 11 34  1  0
 12 13  1  0
 12 14  2  0
 13 35  1  0
 14 15  1  0
 14 16  1  0
 16 17  1  0
 17 18  1  0
 17 36  1  6
 18 19  1  0
 18 37  1  0
 18 38  1  0
 19 20  1  0
 19 21  1  0
 19 39  1  1
 20 40  1  0
 21 22  1  0
 21 41  1  0
 21 42  1  0
 22 43  1  6
M  CHG  1   2   1
M  END
>  <i_m_ct_stereo_status>  (71) 
1

>  <s_m_source_file>  (71) 
/var/tmp/pbs.5076255.sched01/tmphbojuwnv/0fr5z8inm.sdf

>  <i_m_source_file_index>  (71) 
39

>  <i_lp_mmshare_version>  (71) 
48012

>  <i_f3d_flags>  (71) 
0

>  <s_epik_input>  (71) 
W0NIMl0xW0NIMl1OKFtDSDNdKVtDSF0oQz0yW0NAXTEzNClbQ0gyXVtDQEhdKFtPSF0pW0NIMl1bQ0BIXTRPYzVjM2MoW0NIMl1bQ0hdMilbY0hdW2NIXWM1W09IXQ==

>  <s_epik_cmdline>  (71) 
J2VwaWtfcHl0aG9uJywgJy1waHQnLCAnMi4wJywgJy1waCcsICc3LjAnLCAnLXRuJywgJzgnLCAnLW1hJywgJzIwMCcsICctaW1hZScsICc8aW5maWxlLm1hZT4nLCAnLW9tYWUnLCAnPG91dGZpbGUubWFlPic=

>  <r_lp_tautomer_probability>  (71) 
1

>  <r_epik_Ionization_Penalty>  (71) 
0.140929

>  <r_epik_Ionization_Penalty_Charging>  (71) 
0.111567

>  <r_epik_Ionization_Penalty_Neutral>  (71) 
0.0293626

>  <r_epik_State_Penalty>  (71) 
0.149428

>  <r_epik_Charging_Adjusted_Penalty>  (71) 
0.260994

>  <i_epik_Tot_Q>  (71) 
1

>  <i_epik_Tot_abs_Q>  (71) 
1

>  <s_lp_Force_Field>  (71) 
OPLS3e

>  <r_lp_Energy>  (71) 
101.363

>  <b_lp_Chiralities_Consistent>  (71) 
1

>  <s_lp_Variant>  (71) 
24:0-2

>  <s_i_glide_gridfile>  (71) 
pfpi4k_grid

>  <i_i_glide_lignum>  (71) 
39

>  <i_i_glide_rotatable_bonds>  (71) 
2

>  <r_i_docking_score>  (71) 
-3.68923

>  <r_i_glide_ligand_efficiency>  (71) 
-0.167692

>  <r_i_glide_ligand_efficiency_sa>  (71) 
-0.46988

>  <r_i_glide_ligand_efficiency_ln>  (71) 
-0.901782

>  <r_i_glide_gscore>  (71) 
-3.68923

>  <r_i_glide_lipo>  (71) 
-0.246206

>  <r_i_glide_hbond>  (71) 
-0.144715

>  <r_i_glide_metal>  (71) 
-0

>  <r_i_glide_rewards>  (71) 
-1.3611

>  <r_i_glide_evdw>  (71) 
-19.5585

>  <r_i_glide_ecoul>  (71) 
-5.72857

>  <r_i_glide_erotb>  (71) 
0

>  <r_i_glide_esite>  (71) 
-0.1

>  <r_i_glide_emodel>  (71) 
-31.8539

>  <r_i_glide_energy>  (71) 
-25.287

>  <r_i_glide_einternal>  (71) 
0.569328

>  <r_i_glide_intrahb_reward>  (71) 
-0

>  <i_i_glide_confnum>  (71) 
2

>  <i_i_glide_posenum>  (71) 
27

>  <r_i_glide_eff_state_penalty>  (71) 
0

>  <ligand_id>  (71) 
24

>  <original_smiles>  (71) 
CN1CCC23C4=CCc5ccc(O)c(c52)OC3CC(O)CC41

>  <smiles>  (71) 
[H]Oc1c([H])c([H])c2c3c1OC1([H])C([H])([H])C([H])(O[H])C([H])([H])C4([H])C(=C([H])C2([H])[H])C31C([H])([H])C([H])([H])[N+]4([H])C([H])([H])[H]

$$$$
24:2:0
     RDKit          3D

 43 47  0  0  1  0  0  0  0  0999 V2000
    4.7869   -2.2875    3.5533 C   0  0  0  0  0  0  0  0  0  0  0  0
    5.8047   -1.9810    2.5483 N   0  0  0  0  0  0  0  0  0  0  0  0
    5.4385   -0.7563    1.8226 C   0  0  0  0  0  0  0  0  0  0  0  0
    4.3658   -0.9689    0.7167 C   0  0  0  0  0  0  0  0  0  0  0  0
    4.7428   -2.1495   -0.2090 C   0  0  1  0  0  0  0  0  0  0  0  0
    4.9418   -3.3243    0.7135 C   0  0  0  0  0  0  0  0  0  0  0  0
    4.0360   -4.3126    0.8032 C   0  0  0  0  0  0  0  0  0  0  0  0
    2.7421   -4.3123    0.0086 C   0  0  0  0  0  0  0  0  0  0  0  0
    2.7031   -3.3787   -1.1978 C   0  0  0  0  0  0  0  0  0  0  0  0
    1.8654   -3.4498   -2.3230 C   0  0  0  0  0  0  0  0  0  0  0  0
    2.1306   -2.6586   -3.4649 C   0  0  0  0  0  0  0  0  0  0  0  0
    3.2609   -1.8131   -3.5254 C   0  0  0  0  0  0  0  0  0  0  0  0
    3.5193   -1.1068   -4.6674 O   0  0  0  0  0  0  0  0  0  0  0  0
    4.1157   -1.7305   -2.4025 C   0  0  0  0  0  0  0  0  0  0  0  0
    3.7407   -2.4420   -1.2823 C   0  0  0  0  0  0  0  0  0  0  0  0
    5.3340   -1.1310   -2.2752 O   0  0  0  0  0  0  0  0  0  0  0  0
    5.9405   -1.7255   -1.1090 C   0  0  2  0  0  0  0  0  0  0  0  0
    6.9006   -2.8675   -1.5409 C   0  0  0  0  0  0  0  0  0  0  0  0
    7.5923   -3.6579   -0.3983 C   0  0  1  0  0  0  0  0  0  0  0  0
    8.9670   -3.8471   -0.7182 O   0  0  0  0  0  0  0  0  0  0  0  0
    7.4697   -3.0251    0.9989 C   0  0  0  0  0  0  0  0  0  0  0  0
    6.0834   -3.1439    1.6870 C   0  0  1  0  0  0  0  0  0  0  0  0
    4.6572   -1.4498    4.2422 H   0  0  0  0  0  0  0  0  0  0  0  0
    5.0837   -3.1475    4.1556 H   0  0  0  0  0  0  0  0  0  0  0  0
    3.8144   -2.5061    3.1091 H   0  0  0  0  0  0  0  0  0  0  0  0
    5.1074   -0.0003    2.5315 H   0  0  0  0  0  0  0  0  0  0  0  0
    6.3457   -0.3497    1.3842 H   0  0  0  0  0  0  0  0  0  0  0  0
    3.4004   -1.1611    1.1865 H   0  0  0  0  0  0  0  0  0  0  0  0
    4.2479   -0.0447    0.1461 H   0  0  0  0  0  0  0  0  0  0  0  0
    4.1418   -5.0863    1.5539 H   0  0  0  0  0  0  0  0  0  0  0  0
    2.6079   -5.3299   -0.3443 H   0  0  0  0  0  0  0  0  0  0  0  0
    1.9146   -4.0889    0.6774 H   0  0  0  0  0  0  0  0  0  0  0  0
    1.0417   -4.1485   -2.3193 H   0  0  0  0  0  0  0  0  0  0  0  0
    1.4691   -2.7415   -4.3144 H   0  0  0  0  0  0  0  0  0  0  0  0
    2.7898   -1.1617   -5.2753 H   0  0  0  0  0  0  0  0  0  0  0  0
    6.5347   -0.9617   -0.6133 H   0  0  0  0  0  0  0  0  0  0  0  0
    6.3669   -3.5722   -2.1781 H   0  0  0  0  0  0  0  0  0  0  0  0
    7.6541   -2.4260   -2.1974 H   0  0  0  0  0  0  0  0  0  0  0  0
    7.1491   -4.6496   -0.3041 H   0  0  0  0  0  0  0  0  0  0  0  0
    9.3146   -3.0774   -1.1593 H   0  0  0  0  0  0  0  0  0  0  0  0
    8.1678   -3.5569    1.6426 H   0  0  0  0  0  0  0  0  0  0  0  0
    7.8190   -1.9916    0.9495 H   0  0  0  0  0  0  0  0  0  0  0  0
    6.1143   -4.0357    2.3150 H   0  0  0  0  0  0  0  0  0  0  0  0
  1  2  1  0
  1 23  1  0
  1 24  1  0
  1 25  1  0
  2 22  1  0
  2  3  1  0
  3  4  1  0
  3 26  1  0
  3 27  1  0
  5  4  1  1
  4 28  1  0
  4 29  1  0
  5 15  1  0
  5 17  1  0
  5  6  1  0
  6 22  1  0
  6  7  2  0
  7  8  1  0
  7 30  1  0
  8  9  1  0
  8 31  1  0
  8 32  1  0
  9 15  2  0
  9 10  1  0
 10 11  2  0
 10 33  1  0
 11 12  1  0
 11 34  1  0
 12 13  1  0
 12 14  2  0
 13 35  1  0
 14 15  1  0
 14 16  1  0
 16 17  1  0
 17 18  1  0
 17 36  1  1
 18 19  1  0
 18 37  1  0
 18 38  1  0
 19 20  1  0
 19 21  1  0
 19 39  1  1
 20 40  1  0
 21 22  1  0
 21 41  1  0
 21 42  1  0
 22 43  1  1
M  END
>  <i_m_ct_stereo_status>  (72) 
1

>  <s_m_source_file>  (72) 
/var/tmp/pbs.5076255.sched01/tmphbojuwnv/0fr5z8inm.sdf

>  <i_m_source_file_index>  (72) 
40

>  <i_lp_mmshare_version>  (72) 
48012

>  <i_f3d_flags>  (72) 
0

>  <s_epik_input>  (72) 
W0NIMl0xW0NIMl1OKFtDSDNdKVtDSF0oQz0yW0NAXTEzNClbQ0gyXVtDQEhdKFtPSF0pW0NIMl1bQ0BIXTRPYzVjM2MoW0NIMl1bQ0hdMilbY0hdW2NIXWM1W09IXQ==

>  <s_epik_cmdline>  (72) 
J2VwaWtfcHl0aG9uJywgJy1waHQnLCAnMi4wJywgJy1waCcsICc3LjAnLCAnLXRuJywgJzgnLCAnLW1hJywgJzIwMCcsICctaW1hZScsICc8aW5maWxlLm1hZT4nLCAnLW9tYWUnLCAnPG91dGZpbGUubWFlPic=

>  <r_lp_tautomer_probability>  (72) 
1

>  <r_epik_Ionization_Penalty>  (72) 
1.04975

>  <r_epik_Ionization_Penalty_Charging>  (72) 
0

>  <r_epik_Ionization_Penalty_Neutral>  (72) 
1.04975

>  <r_epik_State_Penalty>  (72) 
0.961546

>  <r_epik_Charging_Adjusted_Penalty>  (72) 
0.961546

>  <i_epik_Tot_Q>  (72) 
0

>  <i_epik_Tot_abs_Q>  (72) 
0

>  <s_lp_Force_Field>  (72) 
OPLS3e

>  <r_lp_Energy>  (72) 
47.9045

>  <b_lp_Chiralities_Consistent>  (72) 
1

>  <s_lp_Variant>  (72) 
24:0-3

>  <s_i_glide_gridfile>  (72) 
pfpi4k_grid

>  <i_i_glide_lignum>  (72) 
40

>  <i_i_glide_rotatable_bonds>  (72) 
2

>  <r_i_docking_score>  (72) 
-4.77761

>  <r_i_glide_ligand_efficiency>  (72) 
-0.217164

>  <r_i_glide_ligand_efficiency_sa>  (72) 
-0.608503

>  <r_i_glide_ligand_efficiency_ln>  (72) 
-1.16782

>  <r_i_glide_gscore>  (72) 
-4.77761

>  <r_i_glide_lipo>  (72) 
-1.18131

>  <r_i_glide_hbond>  (72) 
-0.194273

>  <r_i_glide_metal>  (72) 
-0

>  <r_i_glide_rewards>  (72) 
-1.36797

>  <r_i_glide_evdw>  (72) 
-20.2087

>  <r_i_glide_ecoul>  (72) 
-6.82416

>  <r_i_glide_erotb>  (72) 
0

>  <r_i_glide_esite>  (72) 
0

>  <r_i_glide_emodel>  (72) 
-35.3333

>  <r_i_glide_energy>  (72) 
-27.0329

>  <r_i_glide_einternal>  (72) 
0.710854

>  <r_i_glide_intrahb_reward>  (72) 
-0

>  <i_i_glide_confnum>  (72) 
1

>  <i_i_glide_posenum>  (72) 
3

>  <r_i_glide_eff_state_penalty>  (72) 
0

>  <ligand_id>  (72) 
24

>  <original_smiles>  (72) 
CN1CCC23C4=CCc5ccc(O)c(c52)OC3CC(O)CC41

>  <smiles>  (72) 
[H]Oc1c([H])c([H])c2c3c1OC1([H])C([H])([H])C([H])(O[H])C([H])([H])C4([H])C(=C([H])C2([H])[H])C31C([H])([H])C([H])([H])N4C([H])([H])[H]

$$$$
24:2:1
     RDKit          3D

 43 47  0  0  1  0  0  0  0  0999 V2000
    5.2975   -0.6816   -0.6166 C   0  0  0  0  0  0  0  0  0  0  0  0
    5.9622   -1.9568   -0.8739 N   0  0  0  0  0  0  0  0  0  0  0  0
    5.0194   -2.8618   -1.5600 C   0  0  0  0  0  0  0  0  0  0  0  0
    3.9543   -3.5203   -0.6307 C   0  0  0  0  0  0  0  0  0  0  0  0
    4.6064   -4.1738    0.6124 C   0  0  1  0  0  0  0  0  0  0  0  0
    5.4060   -3.0609    1.2420 C   0  0  0  0  0  0  0  0  0  0  0  0
    4.9893   -2.4623    2.3745 C   0  0  0  0  0  0  0  0  0  0  0  0
    3.6967   -2.8354    3.0852 C   0  0  0  0  0  0  0  0  0  0  0  0
    3.0818   -4.1813    2.7148 C   0  0  0  0  0  0  0  0  0  0  0  0
    2.1723   -4.9572    3.4640 C   0  0  0  0  0  0  0  0  0  0  0  0
    1.8937   -6.2907    3.0715 C   0  0  0  0  0  0  0  0  0  0  0  0
    2.5814   -6.8856    1.9859 C   0  0  0  0  0  0  0  0  0  0  0  0
    2.3772   -8.2001    1.6825 O   0  0  0  0  0  0  0  0  0  0  0  0
    3.5108   -6.1263    1.2392 C   0  0  0  0  0  0  0  0  0  0  0  0
    3.6359   -4.7929    1.5804 C   0  0  0  0  0  0  0  0  0  0  0  0
    4.4056   -6.5283    0.2896 O   0  0  0  0  0  0  0  0  0  0  0  0
    5.3716   -5.4615    0.1680 C   0  0  2  0  0  0  0  0  0  0  0  0
    6.6303   -5.8122    1.0021 C   0  0  0  0  0  0  0  0  0  0  0  0
    7.7505   -4.7396    1.0653 C   0  0  1  0  0  0  0  0  0  0  0  0
    8.9981   -5.3829    0.8605 O   0  0  0  0  0  0  0  0  0  0  0  0
    7.6301   -3.5628    0.0619 C   0  0  0  0  0  0  0  0  0  0  0  0
    6.5227   -2.5206    0.3700 C   0  0  1  0  0  0  0  0  0  0  0  0
    4.9451   -0.2524   -1.5567 H   0  0  0  0  0  0  0  0  0  0  0  0
    5.9897    0.0251   -0.1557 H   0  0  0  0  0  0  0  0  0  0  0  0
    4.4341   -0.7772    0.0432 H   0  0  0  0  0  0  0  0  0  0  0  0
    4.5183   -2.3284   -2.3673 H   0  0  0  0  0  0  0  0  0  0  0  0
    5.5978   -3.6359   -2.0605 H   0  0  0  0  0  0  0  0  0  0  0  0
    3.2295   -2.7689   -0.3154 H   0  0  0  0  0  0  0  0  0  0  0  0
    3.3825   -4.2555   -1.1997 H   0  0  0  0  0  0  0  0  0  0  0  0
    5.5113   -1.5950    2.7481 H   0  0  0  0  0  0  0  0  0  0  0  0
    3.9227   -2.8674    4.1485 H   0  0  0  0  0  0  0  0  0  0  0  0
    2.9577   -2.0510    2.9342 H   0  0  0  0  0  0  0  0  0  0  0  0
    1.7286   -4.5528    4.3632 H   0  0  0  0  0  0  0  0  0  0  0  0
    1.2041   -6.8779    3.6557 H   0  0  0  0  0  0  0  0  0  0  0  0
    1.7741   -8.6470    2.2568 H   0  0  0  0  0  0  0  0  0  0  0  0
    5.6619   -5.4025   -0.8754 H   0  0  0  0  0  0  0  0  0  0  0  0
    6.3326   -6.0605    2.0221 H   0  0  0  0  0  0  0  0  0  0  0  0
    7.0363   -6.7427    0.6016 H   0  0  0  0  0  0  0  0  0  0  0  0
    7.7709   -4.3257    2.0737 H   0  0  0  0  0  0  0  0  0  0  0  0
    9.0628   -6.1351    1.4363 H   0  0  0  0  0  0  0  0  0  0  0  0
    8.5782   -3.0231    0.0522 H   0  0  0  0  0  0  0  0  0  0  0  0
    7.5386   -3.9467   -0.9549 H   0  0  0  0  0  0  0  0  0  0  0  0
    7.0018   -1.7117    0.9227 H   0  0  0  0  0  0  0  0  0  0  0  0
  1  2  1  0
  1 23  1  0
  1 24  1  0
  1 25  1  0
  2 22  1  0
  2  3  1  0
  3  4  1  0
  3 26  1  0
  3 27  1  0
  5  4  1  6
  4 28  1  0
  4 29  1  0
  5 15  1  0
  5 17  1  0
  5  6  1  0
  6 22  1  0
  6  7  2  0
  7  8  1  0
  7 30  1  0
  8  9  1  0
  8 31  1  0
  8 32  1  0
  9 15  2  0
  9 10  1  0
 10 11  2  0
 10 33  1  0
 11 12  1  0
 11 34  1  0
 12 13  1  0
 12 14  2  0
 13 35  1  0
 14 15  1  0
 14 16  1  0
 16 17  1  0
 17 18  1  0
 17 36  1  6
 18 19  1  0
 18 37  1  0
 18 38  1  0
 19 20  1  0
 19 21  1  0
 19 39  1  1
 20 40  1  0
 21 22  1  0
 21 41  1  0
 21 42  1  0
 22 43  1  1
M  END
>  <i_m_ct_stereo_status>  (73) 
1

>  <s_m_source_file>  (73) 
/var/tmp/pbs.5076255.sched01/tmphbojuwnv/0fr5z8inm.sdf

>  <i_m_source_file_index>  (73) 
40

>  <i_lp_mmshare_version>  (73) 
48012

>  <i_f3d_flags>  (73) 
0

>  <s_epik_input>  (73) 
W0NIMl0xW0NIMl1OKFtDSDNdKVtDSF0oQz0yW0NAXTEzNClbQ0gyXVtDQEhdKFtPSF0pW0NIMl1bQ0BIXTRPYzVjM2MoW0NIMl1bQ0hdMilbY0hdW2NIXWM1W09IXQ==

>  <s_epik_cmdline>  (73) 
J2VwaWtfcHl0aG9uJywgJy1waHQnLCAnMi4wJywgJy1waCcsICc3LjAnLCAnLXRuJywgJzgnLCAnLW1hJywgJzIwMCcsICctaW1hZScsICc8aW5maWxlLm1hZT4nLCAnLW9tYWUnLCAnPG91dGZpbGUubWFlPic=

>  <r_lp_tautomer_probability>  (73) 
1

>  <r_epik_Ionization_Penalty>  (73) 
1.04975

>  <r_epik_Ionization_Penalty_Charging>  (73) 
0

>  <r_epik_Ionization_Penalty_Neutral>  (73) 
1.04975

>  <r_epik_State_Penalty>  (73) 
0.961546

>  <r_epik_Charging_Adjusted_Penalty>  (73) 
0.961546

>  <i_epik_Tot_Q>  (73) 
0

>  <i_epik_Tot_abs_Q>  (73) 
0

>  <s_lp_Force_Field>  (73) 
OPLS3e

>  <r_lp_Energy>  (73) 
47.9045

>  <b_lp_Chiralities_Consistent>  (73) 
1

>  <s_lp_Variant>  (73) 
24:0-3

>  <s_i_glide_gridfile>  (73) 
pfpi4k_grid

>  <i_i_glide_lignum>  (73) 
40

>  <i_i_glide_rotatable_bonds>  (73) 
2

>  <r_i_docking_score>  (73) 
-3.80143

>  <r_i_glide_ligand_efficiency>  (73) 
-0.172792

>  <r_i_glide_ligand_efficiency_sa>  (73) 
-0.484171

>  <r_i_glide_ligand_efficiency_ln>  (73) 
-0.929209

>  <r_i_glide_gscore>  (73) 
-3.80143

>  <r_i_glide_lipo>  (73) 
-0.782766

>  <r_i_glide_hbond>  (73) 
-0.0245371

>  <r_i_glide_metal>  (73) 
-0

>  <r_i_glide_rewards>  (73) 
-1.36797

>  <r_i_glide_evdw>  (73) 
-19.1363

>  <r_i_glide_ecoul>  (73) 
-4.46228

>  <r_i_glide_erotb>  (73) 
0

>  <r_i_glide_esite>  (73) 
0

>  <r_i_glide_emodel>  (73) 
-30.396

>  <r_i_glide_energy>  (73) 
-23.5986

>  <r_i_glide_einternal>  (73) 
0.418375

>  <r_i_glide_intrahb_reward>  (73) 
-0

>  <i_i_glide_confnum>  (73) 
2

>  <i_i_glide_posenum>  (73) 
2

>  <r_i_glide_eff_state_penalty>  (73) 
0

>  <ligand_id>  (73) 
24

>  <original_smiles>  (73) 
CN1CCC23C4=CCc5ccc(O)c(c52)OC3CC(O)CC41

>  <smiles>  (73) 
[H]Oc1c([H])c([H])c2c3c1OC1([H])C([H])([H])C([H])(O[H])C([H])([H])C4([H])C(=C([H])C2([H])[H])C31C([H])([H])C([H])([H])N4C([H])([H])[H]

$$$$
24:2:2
     RDKit          3D

 43 47  0  0  1  0  0  0  0  0999 V2000
    3.8048   -0.7668   -3.3460 C   0  0  0  0  0  0  0  0  0  0  0  0
    4.6132   -1.9639   -3.0974 N   0  0  0  0  0  0  0  0  0  0  0  0
    3.7352   -3.1463   -3.0282 C   0  0  0  0  0  0  0  0  0  0  0  0
    2.9736   -3.3086   -1.6771 C   0  0  0  0  0  0  0  0  0  0  0  0
    3.9297   -3.2113   -0.4655 C   0  0  1  0  0  0  0  0  0  0  0  0
    4.6180   -1.8883   -0.6441 C   0  0  0  0  0  0  0  0  0  0  0  0
    4.3106   -0.8277    0.1252 C   0  0  0  0  0  0  0  0  0  0  0  0
    3.2365   -0.8611    1.2018 C   0  0  0  0  0  0  0  0  0  0  0  0
    2.8057   -2.2417    1.6740 C   0  0  0  0  0  0  0  0  0  0  0  0
    2.1761   -2.5837    2.8909 C   0  0  0  0  0  0  0  0  0  0  0  0
    2.0590   -3.9472    3.2575 C   0  0  0  0  0  0  0  0  0  0  0  0
    2.6415   -4.9668    2.4628 C   0  0  0  0  0  0  0  0  0  0  0  0
    2.6011   -6.2647    2.8794 O   0  0  0  0  0  0  0  0  0  0  0  0
    3.2940   -4.6350    1.2551 C   0  0  0  0  0  0  0  0  0  0  0  0
    3.2522   -3.3110    0.8772 C   0  0  0  0  0  0  0  0  0  0  0  0
    4.0672   -5.4133    0.4393 O   0  0  0  0  0  0  0  0  0  0  0  0
    4.8149   -4.5025   -0.3998 C   0  0  2  0  0  0  0  0  0  0  0  0
    6.2360   -4.2982    0.1902 C   0  0  0  0  0  0  0  0  0  0  0  0
    7.1528   -3.2621   -0.5237 C   0  0  1  0  0  0  0  0  0  0  0  0
    8.4491   -3.8224   -0.6754 O   0  0  0  0  0  0  0  0  0  0  0  0
    6.6618   -2.7805   -1.9121 C   0  0  0  0  0  0  0  0  0  0  0  0
    5.4581   -1.7944   -1.8991 C   0  0  1  0  0  0  0  0  0  0  0  0
    3.2344   -0.8648   -4.2716 H   0  0  0  0  0  0  0  0  0  0  0  0
    4.4359    0.1170   -3.4544 H   0  0  0  0  0  0  0  0  0  0  0  0
    3.0950   -0.5686   -2.5416 H   0  0  0  0  0  0  0  0  0  0  0  0
    3.0237   -3.1208   -3.8529 H   0  0  0  0  0  0  0  0  0  0  0  0
    4.3463   -4.0275   -3.2128 H   0  0  0  0  0  0  0  0  0  0  0  0
    2.2155   -2.5296   -1.6078 H   0  0  0  0  0  0  0  0  0  0  0  0
    2.4241   -4.2533   -1.6598 H   0  0  0  0  0  0  0  0  0  0  0  0
    4.7350    0.1401   -0.0921 H   0  0  0  0  0  0  0  0  0  0  0  0
    3.6367   -0.3311    2.0661 H   0  0  0  0  0  0  0  0  0  0  0  0
    2.3618   -0.3017    0.8681 H   0  0  0  0  0  0  0  0  0  0  0  0
    1.8260   -1.8079    3.5546 H   0  0  0  0  0  0  0  0  0  0  0  0
    1.5812   -4.2083    4.1869 H   0  0  0  0  0  0  0  0  0  0  0  0
    3.0884   -6.8437    2.3115 H   0  0  0  0  0  0  0  0  0  0  0  0
    4.9240   -4.9738   -1.3763 H   0  0  0  0  0  0  0  0  0  0  0  0
    6.1552   -4.0169    1.2416 H   0  0  0  0  0  0  0  0  0  0  0  0
    6.7180   -5.2776    0.2045 H   0  0  0  0  0  0  0  0  0  0  0  0
    7.2730   -2.3931    0.1271 H   0  0  0  0  0  0  0  0  0  0  0  0
    8.9766   -3.2553   -1.2218 H   0  0  0  0  0  0  0  0  0  0  0  0
    7.4900   -2.2635   -2.3933 H   0  0  0  0  0  0  0  0  0  0  0  0
    6.4687   -3.6449   -2.5493 H   0  0  0  0  0  0  0  0  0  0  0  0
    5.8577   -0.7824   -1.9257 H   0  0  0  0  0  0  0  0  0  0  0  0
  1  2  1  0
  1 23  1  0
  1 24  1  0
  1 25  1  0
  2 22  1  0
  2  3  1  0
  3  4  1  0
  3 26  1  0
  3 27  1  0
  5  4  1  6
  4 28  1  0
  4 29  1  0
  5 15  1  0
  5 17  1  0
  5  6  1  0
  6 22  1  0
  6  7  2  0
  7  8  1  0
  7 30  1  0
  8  9  1  0
  8 31  1  0
  8 32  1  0
  9 15  2  0
  9 10  1  0
 10 11  2  0
 10 33  1  0
 11 12  1  0
 11 34  1  0
 12 13  1  0
 12 14  2  0
 13 35  1  0
 14 15  1  0
 14 16  1  0
 16 17  1  0
 17 18  1  0
 17 36  1  6
 18 19  1  0
 18 37  1  0
 18 38  1  0
 19 20  1  0
 19 21  1  0
 19 39  1  1
 20 40  1  0
 21 22  1  0
 21 41  1  0
 21 42  1  0
 22 43  1  6
M  END
>  <i_m_ct_stereo_status>  (74) 
1

>  <s_m_source_file>  (74) 
/var/tmp/pbs.5076255.sched01/tmphbojuwnv/0fr5z8inm.sdf

>  <i_m_source_file_index>  (74) 
40

>  <i_lp_mmshare_version>  (74) 
48012

>  <i_f3d_flags>  (74) 
0

>  <s_epik_input>  (74) 
W0NIMl0xW0NIMl1OKFtDSDNdKVtDSF0oQz0yW0NAXTEzNClbQ0gyXVtDQEhdKFtPSF0pW0NIMl1bQ0BIXTRPYzVjM2MoW0NIMl1bQ0hdMilbY0hdW2NIXWM1W09IXQ==

>  <s_epik_cmdline>  (74) 
J2VwaWtfcHl0aG9uJywgJy1waHQnLCAnMi4wJywgJy1waCcsICc3LjAnLCAnLXRuJywgJzgnLCAnLW1hJywgJzIwMCcsICctaW1hZScsICc8aW5maWxlLm1hZT4nLCAnLW9tYWUnLCAnPG91dGZpbGUubWFlPic=

>  <r_lp_tautomer_probability>  (74) 
1

>  <r_epik_Ionization_Penalty>  (74) 
1.04975

>  <r_epik_Ionization_Penalty_Charging>  (74) 
0

>  <r_epik_Ionization_Penalty_Neutral>  (74) 
1.04975

>  <r_epik_State_Penalty>  (74) 
0.961546

>  <r_epik_Charging_Adjusted_Penalty>  (74) 
0.961546

>  <i_epik_Tot_Q>  (74) 
0

>  <i_epik_Tot_abs_Q>  (74) 
0

>  <s_lp_Force_Field>  (74) 
OPLS3e

>  <r_lp_Energy>  (74) 
47.9045

>  <b_lp_Chiralities_Consistent>  (74) 
1

>  <s_lp_Variant>  (74) 
24:0-3

>  <s_i_glide_gridfile>  (74) 
pfpi4k_grid

>  <i_i_glide_lignum>  (74) 
40

>  <i_i_glide_rotatable_bonds>  (74) 
2

>  <r_i_docking_score>  (74) 
-3.75241

>  <r_i_glide_ligand_efficiency>  (74) 
-0.170564

>  <r_i_glide_ligand_efficiency_sa>  (74) 
-0.477927

>  <r_i_glide_ligand_efficiency_ln>  (74) 
-0.917225

>  <r_i_glide_gscore>  (74) 
-3.75241

>  <r_i_glide_lipo>  (74) 
-0.593216

>  <r_i_glide_hbond>  (74) 
-0.020316

>  <r_i_glide_metal>  (74) 
-0

>  <r_i_glide_rewards>  (74) 
-1.36797

>  <r_i_glide_evdw>  (74) 
-24.878

>  <r_i_glide_ecoul>  (74) 
-3.51335

>  <r_i_glide_erotb>  (74) 
0

>  <r_i_glide_esite>  (74) 
0

>  <r_i_glide_emodel>  (74) 
-35.0485

>  <r_i_glide_energy>  (74) 
-28.3914

>  <r_i_glide_einternal>  (74) 
0.517695

>  <r_i_glide_intrahb_reward>  (74) 
-0

>  <i_i_glide_confnum>  (74) 
2

>  <i_i_glide_posenum>  (74) 
38

>  <r_i_glide_eff_state_penalty>  (74) 
0

>  <ligand_id>  (74) 
24

>  <original_smiles>  (74) 
CN1CCC23C4=CCc5ccc(O)c(c52)OC3CC(O)CC41

>  <smiles>  (74) 
[H]Oc1c([H])c([H])c2c3c1OC1([H])C([H])([H])C([H])(O[H])C([H])([H])C4([H])C(=C([H])C2([H])[H])C31C([H])([H])C([H])([H])N4C([H])([H])[H]

$$$$
24:3:0
     RDKit          3D

 43 47  0  0  1  0  0  0  0  0999 V2000
    2.0140   -5.5371    4.2609 C   0  0  0  0  0  0  0  0  0  0  0  0
    2.6146   -4.8132    3.1417 N   0  0  0  0  0  0  0  0  0  0  0  0
    3.5641   -3.7738    3.6542 C   0  0  0  0  0  0  0  0  0  0  0  0
    4.6437   -3.2017    2.6367 C   0  0  0  0  0  0  0  0  0  0  0  0
    5.1343   -4.2079    1.5366 C   0  0  1  0  0  0  0  0  0  0  0  0
    3.8779   -4.8407    1.1158 C   0  0  0  0  0  0  0  0  0  0  0  0
    3.2121   -4.4736    0.0112 C   0  0  0  0  0  0  0  0  0  0  0  0
    3.7519   -3.3894   -0.9259 C   0  0  0  0  0  0  0  0  0  0  0  0
    5.2484   -3.1000   -0.8053 C   0  0  0  0  0  0  0  0  0  0  0  0
    6.1249   -2.5922   -1.7894 C   0  0  0  0  0  0  0  0  0  0  0  0
    7.5200   -2.6540   -1.5663 C   0  0  0  0  0  0  0  0  0  0  0  0
    8.0638   -3.3095   -0.4382 C   0  0  0  0  0  0  0  0  0  0  0  0
    9.4088   -3.4557   -0.3273 O   0  0  0  0  0  0  0  0  0  0  0  0
    7.1985   -3.8434    0.5430 C   0  0  0  0  0  0  0  0  0  0  0  0
    5.8499   -3.6123    0.3598 C   0  0  0  0  0  0  0  0  0  0  0  0
    7.4794   -4.6731    1.5931 O   0  0  0  0  0  0  0  0  0  0  0  0
    6.2219   -5.2425    2.0198 C   0  0  2  0  0  0  0  0  0  0  0  0
    6.0284   -6.6829    1.3975 C   0  0  0  0  0  0  0  0  0  0  0  0
    4.9028   -7.6439    1.9539 C   0  0  1  0  0  0  0  0  0  0  0  0
    5.2558   -8.0110    3.2749 O   0  0  0  0  0  0  0  0  0  0  0  0
    3.4037   -7.1588    1.9463 C   0  0  0  0  0  0  0  0  0  0  0  0
    3.4051   -5.6665    2.2609 C   0  0  2  0  0  0  0  0  0  0  0  0
    1.4774   -4.8505    4.9188 H   0  0  0  0  0  0  0  0  0  0  0  0
    2.7586   -6.0600    4.8638 H   0  0  0  0  0  0  0  0  0  0  0  0
    1.2952   -6.2704    3.9004 H   0  0  0  0  0  0  0  0  0  0  0  0
    2.9949   -2.9511    4.0788 H   0  0  0  0  0  0  0  0  0  0  0  0
    4.1112   -4.2011    4.4965 H   0  0  0  0  0  0  0  0  0  0  0  0
    4.1759   -2.3615    2.1266 H   0  0  0  0  0  0  0  0  0  0  0  0
    5.4937   -2.7847    3.1785 H   0  0  0  0  0  0  0  0  0  0  0  0
    2.2330   -4.8602   -0.2118 H   0  0  0  0  0  0  0  0  0  0  0  0
    3.5755   -3.7397   -1.9416 H   0  0  0  0  0  0  0  0  0  0  0  0
    3.1827   -2.4687   -0.7996 H   0  0  0  0  0  0  0  0  0  0  0  0
    5.7284   -2.2129   -2.7198 H   0  0  0  0  0  0  0  0  0  0  0  0
    8.1964   -2.2764   -2.3163 H   0  0  0  0  0  0  0  0  0  0  0  0
    9.9123   -3.0385   -1.0329 H   0  0  0  0  0  0  0  0  0  0  0  0
    6.2546   -5.3197    3.1091 H   0  0  0  0  0  0  0  0  0  0  0  0
    5.9054   -6.5862    0.3191 H   0  0  0  0  0  0  0  0  0  0  0  0
    6.9742   -7.2068    1.5158 H   0  0  0  0  0  0  0  0  0  0  0  0
    4.9547   -8.5659    1.3742 H   0  0  0  0  0  0  0  0  0  0  0  0
    4.6873   -8.7141    3.5527 H   0  0  0  0  0  0  0  0  0  0  0  0
    2.9680   -7.3326    0.9611 H   0  0  0  0  0  0  0  0  0  0  0  0
    2.8041   -7.7361    2.6557 H   0  0  0  0  0  0  0  0  0  0  0  0
    4.1898   -5.7710    3.0032 H   0  0  0  0  0  0  0  0  0  0  0  0
  1  2  1  0
  1 23  1  0
  1 24  1  0
  1 25  1  0
  2 22  1  0
  2  3  1  0
  3  4  1  0
  3 26  1  0
  3 27  1  0
  5  4  1  1
  4 28  1  0
  4 29  1  0
  5 15  1  0
  5 17  1  0
  5  6  1  0
  6 22  1  0
  6  7  2  0
  7  8  1  0
  7 30  1  0
  8  9  1  0
  8 31  1  0
  8 32  1  0
  9 15  2  0
  9 10  1  0
 10 11  2  0
 10 33  1  0
 11 12  1  0
 11 34  1  0
 12 13  1  0
 12 14  2  0
 13 35  1  0
 14 15  1  0
 14 16  1  0
 16 17  1  0
 17 18  1  0
 17 36  1  1
 18 19  1  0
 18 37  1  0
 18 38  1  0
 19 20  1  0
 19 21  1  0
 19 39  1  6
 20 40  1  0
 21 22  1  0
 21 41  1  0
 21 42  1  0
 22 43  1  1
M  END
>  <i_m_ct_stereo_status>  (75) 
1

>  <s_m_source_file>  (75) 
/var/tmp/pbs.5076255.sched01/tmphbojuwnv/0fr5z8inm.sdf

>  <i_m_source_file_index>  (75) 
41

>  <i_lp_mmshare_version>  (75) 
48012

>  <i_f3d_flags>  (75) 
0

>  <s_epik_input>  (75) 
W0NIMl0xW0NIMl1OKFtDSDNdKVtDSF0oQz0yW0NAXTEzNClbQ0gyXVtDQEhdKFtPSF0pW0NIMl1bQ0BIXTRPYzVjM2MoW0NIMl1bQ0hdMilbY0hdW2NIXWM1W09IXQ==

>  <s_epik_cmdline>  (75) 
J2VwaWtfcHl0aG9uJywgJy1waHQnLCAnMi4wJywgJy1waCcsICc3LjAnLCAnLXRuJywgJzgnLCAnLW1hJywgJzIwMCcsICctaW1hZScsICc8aW5maWxlLm1hZT4nLCAnLW9tYWUnLCAnPG91dGZpbGUubWFlPic=

>  <r_lp_tautomer_probability>  (75) 
1

>  <r_epik_Ionization_Penalty>  (75) 
1.04975

>  <r_epik_Ionization_Penalty_Charging>  (75) 
0

>  <r_epik_Ionization_Penalty_Neutral>  (75) 
1.04975

>  <r_epik_State_Penalty>  (75) 
0.961546

>  <r_epik_Charging_Adjusted_Penalty>  (75) 
0.961546

>  <i_epik_Tot_Q>  (75) 
0

>  <i_epik_Tot_abs_Q>  (75) 
0

>  <s_lp_Force_Field>  (75) 
OPLS3e

>  <r_lp_Energy>  (75) 
81.1812

>  <b_lp_Chiralities_Consistent>  (75) 
1

>  <s_lp_Variant>  (75) 
24:0-4

>  <s_i_glide_gridfile>  (75) 
pfpi4k_grid

>  <i_i_glide_lignum>  (75) 
41

>  <i_i_glide_rotatable_bonds>  (75) 
2

>  <r_i_docking_score>  (75) 
-3.84821

>  <r_i_glide_ligand_efficiency>  (75) 
-0.174919

>  <r_i_glide_ligand_efficiency_sa>  (75) 
-0.490129

>  <r_i_glide_ligand_efficiency_ln>  (75) 
-0.940642

>  <r_i_glide_gscore>  (75) 
-3.84821

>  <r_i_glide_lipo>  (75) 
-0.785977

>  <r_i_glide_hbond>  (75) 
0

>  <r_i_glide_metal>  (75) 
-0

>  <r_i_glide_rewards>  (75) 
-1.36797

>  <r_i_glide_evdw>  (75) 
-16.8108

>  <r_i_glide_ecoul>  (75) 
-5.69146

>  <r_i_glide_erotb>  (75) 
0

>  <r_i_glide_esite>  (75) 
0

>  <r_i_glide_emodel>  (75) 
-28.8921

>  <r_i_glide_energy>  (75) 
-22.5023

>  <r_i_glide_einternal>  (75) 
0.349903

>  <r_i_glide_intrahb_reward>  (75) 
-0

>  <i_i_glide_confnum>  (75) 
2

>  <i_i_glide_posenum>  (75) 
3

>  <r_i_glide_eff_state_penalty>  (75) 
0

>  <ligand_id>  (75) 
24

>  <original_smiles>  (75) 
CN1CCC23C4=CCc5ccc(O)c(c52)OC3CC(O)CC41

>  <smiles>  (75) 
[H]Oc1c([H])c([H])c2c3c1OC1([H])C([H])([H])C([H])(O[H])C([H])([H])C4([H])C(=C([H])C2([H])[H])C31C([H])([H])C([H])([H])N4C([H])([H])[H]

$$$$
24:3:1
     RDKit          3D

 43 47  0  0  1  0  0  0  0  0999 V2000
    5.3617   -2.9610    3.6094 C   0  0  0  0  0  0  0  0  0  0  0  0
    4.5353   -2.8962    2.4210 N   0  0  0  0  0  0  0  0  0  0  0  0
    4.1619   -1.4488    2.2517 C   0  0  0  0  0  0  0  0  0  0  0  0
    3.6329   -1.0210    0.8203 C   0  0  0  0  0  0  0  0  0  0  0  0
    4.3045   -1.7924   -0.3845 C   0  0  1  0  0  0  0  0  0  0  0  0
    4.3598   -3.1837    0.1039 C   0  0  0  0  0  0  0  0  0  0  0  0
    3.4445   -4.1105   -0.2343 C   0  0  0  0  0  0  0  0  0  0  0  0
    2.3111   -3.7482   -1.2030 C   0  0  0  0  0  0  0  0  0  0  0  0
    2.7106   -2.6699   -2.1948 C   0  0  0  0  0  0  0  0  0  0  0  0
    2.2168   -2.4269   -3.4793 C   0  0  0  0  0  0  0  0  0  0  0  0
    2.6711   -1.3014   -4.1923 C   0  0  0  0  0  0  0  0  0  0  0  0
    3.7629   -0.5495   -3.7460 C   0  0  0  0  0  0  0  0  0  0  0  0
    4.2088    0.4682   -4.5282 O   0  0  0  0  0  0  0  0  0  0  0  0
    4.3012   -0.8234   -2.4969 C   0  0  0  0  0  0  0  0  0  0  0  0
    3.6477   -1.7532   -1.7298 C   0  0  0  0  0  0  0  0  0  0  0  0
    5.4290   -0.3406   -1.9208 O   0  0  0  0  0  0  0  0  0  0  0  0
    5.7085   -1.2344   -0.8139 C   0  0  2  0  0  0  0  0  0  0  0  0
    6.6930   -2.3997   -1.2744 C   0  0  0  0  0  0  0  0  0  0  0  0
    7.4509   -3.2466   -0.1745 C   0  0  1  0  0  0  0  0  0  0  0  0
    8.3631   -2.3838    0.4696 O   0  0  0  0  0  0  0  0  0  0  0  0
    6.5638   -4.0459    0.8724 C   0  0  0  0  0  0  0  0  0  0  0  0
    5.3355   -3.1865    1.2230 C   0  0  2  0  0  0  0  0  0  0  0  0
    4.8613   -2.6436    4.5337 H   0  0  0  0  0  0  0  0  0  0  0  0
    6.1469   -2.2258    3.4064 H   0  0  0  0  0  0  0  0  0  0  0  0
    5.7915   -3.9588    3.7612 H   0  0  0  0  0  0  0  0  0  0  0  0
    3.4333   -1.1932    3.0139 H   0  0  0  0  0  0  0  0  0  0  0  0
    5.0254   -0.8071    2.4767 H   0  0  0  0  0  0  0  0  0  0  0  0
    2.5694   -1.2531    0.8305 H   0  0  0  0  0  0  0  0  0  0  0  0
    3.7094    0.0644    0.6901 H   0  0  0  0  0  0  0  0  0  0  0  0
    3.4249   -5.0807    0.2478 H   0  0  0  0  0  0  0  0  0  0  0  0
    1.9690   -4.6126   -1.7561 H   0  0  0  0  0  0  0  0  0  0  0  0
    1.4279   -3.4583   -0.6336 H   0  0  0  0  0  0  0  0  0  0  0  0
    1.4063   -2.9962   -3.8529 H   0  0  0  0  0  0  0  0  0  0  0  0
    2.2195   -0.9995   -5.1267 H   0  0  0  0  0  0  0  0  0  0  0  0
    3.6323    0.6366   -5.2787 H   0  0  0  0  0  0  0  0  0  0  0  0
    6.1596   -0.6385   -0.0090 H   0  0  0  0  0  0  0  0  0  0  0  0
    6.1770   -3.0556   -2.0017 H   0  0  0  0  0  0  0  0  0  0  0  0
    7.4652   -1.9261   -1.8711 H   0  0  0  0  0  0  0  0  0  0  0  0
    8.0476   -3.9823   -0.7217 H   0  0  0  0  0  0  0  0  0  0  0  0
    9.0677   -2.2240   -0.1418 H   0  0  0  0  0  0  0  0  0  0  0  0
    6.2317   -5.0003    0.4381 H   0  0  0  0  0  0  0  0  0  0  0  0
    7.1575   -4.2955    1.7474 H   0  0  0  0  0  0  0  0  0  0  0  0
    5.9340   -2.2748    1.2508 H   0  0  0  0  0  0  0  0  0  0  0  0
  1  2  1  0
  1 23  1  0
  1 24  1  0
  1 25  1  0
  2 22  1  0
  2  3  1  0
  3  4  1  0
  3 26  1  0
  3 27  1  0
  5  4  1  1
  4 28  1  0
  4 29  1  0
  5 15  1  0
  5 17  1  0
  5  6  1  0
  6 22  1  0
  6  7  2  0
  7  8  1  0
  7 30  1  0
  8  9  1  0
  8 31  1  0
  8 32  1  0
  9 15  2  0
  9 10  1  0
 10 11  2  0
 10 33  1  0
 11 12  1  0
 11 34  1  0
 12 13  1  0
 12 14  2  0
 13 35  1  0
 14 15  1  0
 14 16  1  0
 16 17  1  0
 17 18  1  0
 17 36  1  1
 18 19  1  0
 18 37  1  0
 18 38  1  0
 19 20  1  0
 19 21  1  0
 19 39  1  6
 20 40  1  0
 21 22  1  0
 21 41  1  0
 21 42  1  0
 22 43  1  6
M  END
>  <i_m_ct_stereo_status>  (76) 
1

>  <s_m_source_file>  (76) 
/var/tmp/pbs.5076255.sched01/tmphbojuwnv/0fr5z8inm.sdf

>  <i_m_source_file_index>  (76) 
41

>  <i_lp_mmshare_version>  (76) 
48012

>  <i_f3d_flags>  (76) 
0

>  <s_epik_input>  (76) 
W0NIMl0xW0NIMl1OKFtDSDNdKVtDSF0oQz0yW0NAXTEzNClbQ0gyXVtDQEhdKFtPSF0pW0NIMl1bQ0BIXTRPYzVjM2MoW0NIMl1bQ0hdMilbY0hdW2NIXWM1W09IXQ==

>  <s_epik_cmdline>  (76) 
J2VwaWtfcHl0aG9uJywgJy1waHQnLCAnMi4wJywgJy1waCcsICc3LjAnLCAnLXRuJywgJzgnLCAnLW1hJywgJzIwMCcsICctaW1hZScsICc8aW5maWxlLm1hZT4nLCAnLW9tYWUnLCAnPG91dGZpbGUubWFlPic=

>  <r_lp_tautomer_probability>  (76) 
1

>  <r_epik_Ionization_Penalty>  (76) 
1.04975

>  <r_epik_Ionization_Penalty_Charging>  (76) 
0

>  <r_epik_Ionization_Penalty_Neutral>  (76) 
1.04975

>  <r_epik_State_Penalty>  (76) 
0.961546

>  <r_epik_Charging_Adjusted_Penalty>  (76) 
0.961546

>  <i_epik_Tot_Q>  (76) 
0

>  <i_epik_Tot_abs_Q>  (76) 
0

>  <s_lp_Force_Field>  (76) 
OPLS3e

>  <r_lp_Energy>  (76) 
81.1812

>  <b_lp_Chiralities_Consistent>  (76) 
1

>  <s_lp_Variant>  (76) 
24:0-4

>  <s_i_glide_gridfile>  (76) 
pfpi4k_grid

>  <i_i_glide_lignum>  (76) 
41

>  <i_i_glide_rotatable_bonds>  (76) 
2

>  <r_i_docking_score>  (76) 
-2.91389

>  <r_i_glide_ligand_efficiency>  (76) 
-0.13245

>  <r_i_glide_ligand_efficiency_sa>  (76) 
-0.371129

>  <r_i_glide_ligand_efficiency_ln>  (76) 
-0.712262

>  <r_i_glide_gscore>  (76) 
-2.91389

>  <r_i_glide_lipo>  (76) 
-0.866446

>  <r_i_glide_hbond>  (76) 
-0.00503784

>  <r_i_glide_metal>  (76) 
-0

>  <r_i_glide_rewards>  (76) 
-1.36797

>  <r_i_glide_evdw>  (76) 
-10.2273

>  <r_i_glide_ecoul>  (76) 
-1.08716

>  <r_i_glide_erotb>  (76) 
0

>  <r_i_glide_esite>  (76) 
0

>  <r_i_glide_emodel>  (76) 
-14.935

>  <r_i_glide_energy>  (76) 
-11.3144

>  <r_i_glide_einternal>  (76) 
0.650425

>  <r_i_glide_intrahb_reward>  (76) 
-0

>  <i_i_glide_confnum>  (76) 
2

>  <i_i_glide_posenum>  (76) 
15

>  <r_i_glide_eff_state_penalty>  (76) 
0

>  <ligand_id>  (76) 
24

>  <original_smiles>  (76) 
CN1CCC23C4=CCc5ccc(O)c(c52)OC3CC(O)CC41

>  <smiles>  (76) 
[H]Oc1c([H])c([H])c2c3c1OC1([H])C([H])([H])C([H])(O[H])C([H])([H])C4([H])C(=C([H])C2([H])[H])C31C([H])([H])C([H])([H])N4C([H])([H])[H]

$$$$
24:3:2
     RDKit          3D

 43 47  0  0  1  0  0  0  0  0999 V2000
    5.2563   -3.1438    3.7116 C   0  0  0  0  0  0  0  0  0  0  0  0
    4.4430   -2.9971    2.5123 N   0  0  0  0  0  0  0  0  0  0  0  0
    4.0714   -1.5577    2.3275 C   0  0  0  0  0  0  0  0  0  0  0  0
    3.5757   -1.1237    0.8751 C   0  0  0  0  0  0  0  0  0  0  0  0
    4.2073   -1.9337   -0.3261 C   0  0  1  0  0  0  0  0  0  0  0  0
    4.1712   -3.3084    0.1890 C   0  0  0  0  0  0  0  0  0  0  0  0
    3.2353   -4.2044   -0.1872 C   0  0  0  0  0  0  0  0  0  0  0  0
    2.1592   -3.8128   -1.1965 C   0  0  0  0  0  0  0  0  0  0  0  0
    2.6133   -2.7558   -2.1960 C   0  0  0  0  0  0  0  0  0  0  0  0
    2.1842   -2.5125   -3.5021 C   0  0  0  0  0  0  0  0  0  0  0  0
    2.7064   -1.3930   -4.1998 C   0  0  0  0  0  0  0  0  0  0  0  0
    3.7436   -0.6203   -3.6900 C   0  0  0  0  0  0  0  0  0  0  0  0
    4.1903    0.3996   -4.4682 O   0  0  0  0  0  0  0  0  0  0  0  0
    4.2476   -0.9370   -2.4136 C   0  0  0  0  0  0  0  0  0  0  0  0
    3.5830   -1.8775   -1.6879 C   0  0  0  0  0  0  0  0  0  0  0  0
    5.4197   -0.5501   -1.8437 O   0  0  0  0  0  0  0  0  0  0  0  0
    5.6425   -1.4460   -0.7366 C   0  0  2  0  0  0  0  0  0  0  0  0
    6.5799   -2.6550   -1.1614 C   0  0  0  0  0  0  0  0  0  0  0  0
    7.2293   -3.5667   -0.0556 C   0  0  1  0  0  0  0  0  0  0  0  0
    8.1814   -2.7572    0.5780 O   0  0  0  0  0  0  0  0  0  0  0  0
    6.3104   -4.3123    0.9896 C   0  0  0  0  0  0  0  0  0  0  0  0
    5.1409   -3.3861    1.3001 C   0  0  2  0  0  0  0  0  0  0  0  0
    4.7194   -2.7952    4.5992 H   0  0  0  0  0  0  0  0  0  0  0  0
    6.1830   -2.5580    3.6229 H   0  0  0  0  0  0  0  0  0  0  0  0
    5.5300   -4.1891    3.8809 H   0  0  0  0  0  0  0  0  0  0  0  0
    3.3147   -1.2882    3.0606 H   0  0  0  0  0  0  0  0  0  0  0  0
    4.9446   -0.9512    2.5744 H   0  0  0  0  0  0  0  0  0  0  0  0
    2.4999   -1.2922    0.8629 H   0  0  0  0  0  0  0  0  0  0  0  0
    3.7064   -0.0450    0.7389 H   0  0  0  0  0  0  0  0  0  0  0  0
    3.1365   -5.1677    0.2814 H   0  0  0  0  0  0  0  0  0  0  0  0
    1.7750   -4.6658   -1.7839 H   0  0  0  0  0  0  0  0  0  0  0  0
    1.2619   -3.4570   -0.7161 H   0  0  0  0  0  0  0  0  0  0  0  0
    1.2892   -3.0123   -3.8658 H   0  0  0  0  0  0  0  0  0  0  0  0
    2.2386   -1.0357   -5.1014 H   0  0  0  0  0  0  0  0  0  0  0  0
    4.9043    0.8702   -4.0646 H   0  0  0  0  0  0  0  0  0  0  0  0
    6.1190   -0.8644    0.0674 H   0  0  0  0  0  0  0  0  0  0  0  0
    6.0685   -3.2864   -1.8914 H   0  0  0  0  0  0  0  0  0  0  0  0
    7.4183   -2.2419   -1.7117 H   0  0  0  0  0  0  0  0  0  0  0  0
    7.8514   -4.2984   -0.5637 H   0  0  0  0  0  0  0  0  0  0  0  0
    7.7315   -2.1877    1.1882 H   0  0  0  0  0  0  0  0  0  0  0  0
    5.9443   -5.2393    0.5444 H   0  0  0  0  0  0  0  0  0  0  0  0
    6.8737   -4.6003    1.8799 H   0  0  0  0  0  0  0  0  0  0  0  0
    5.7714   -2.5068    1.3293 H   0  0  0  0  0  0  0  0  0  0  0  0
  1  2  1  0
  1 23  1  0
  1 24  1  0
  1 25  1  0
  2 22  1  0
  2  3  1  0
  3  4  1  0
  3 26  1  0
  3 27  1  0
  5  4  1  1
  4 28  1  0
  4 29  1  0
  5 15  1  0
  5 17  1  0
  5  6  1  0
  6 22  1  0
  6  7  2  0
  7  8  1  0
  7 30  1  0
  8  9  1  0
  8 31  1  0
  8 32  1  0
  9 15  2  0
  9 10  1  0
 10 11  2  0
 10 33  1  0
 11 12  1  0
 11 34  1  0
 12 13  1  0
 12 14  2  0
 13 35  1  0
 14 15  1  0
 14 16  1  0
 16 17  1  0
 17 18  1  0
 17 36  1  1
 18 19  1  0
 18 37  1  0
 18 38  1  0
 19 20  1  0
 19 21  1  0
 19 39  1  6
 20 40  1  0
 21 22  1  0
 21 41  1  0
 21 42  1  0
 22 43  1  6
M  END
>  <i_m_ct_stereo_status>  (77) 
1

>  <s_m_source_file>  (77) 
/var/tmp/pbs.5076255.sched01/tmphbojuwnv/0fr5z8inm.sdf

>  <i_m_source_file_index>  (77) 
41

>  <i_lp_mmshare_version>  (77) 
48012

>  <i_f3d_flags>  (77) 
0

>  <s_epik_input>  (77) 
W0NIMl0xW0NIMl1OKFtDSDNdKVtDSF0oQz0yW0NAXTEzNClbQ0gyXVtDQEhdKFtPSF0pW0NIMl1bQ0BIXTRPYzVjM2MoW0NIMl1bQ0hdMilbY0hdW2NIXWM1W09IXQ==

>  <s_epik_cmdline>  (77) 
J2VwaWtfcHl0aG9uJywgJy1waHQnLCAnMi4wJywgJy1waCcsICc3LjAnLCAnLXRuJywgJzgnLCAnLW1hJywgJzIwMCcsICctaW1hZScsICc8aW5maWxlLm1hZT4nLCAnLW9tYWUnLCAnPG91dGZpbGUubWFlPic=

>  <r_lp_tautomer_probability>  (77) 
1

>  <r_epik_Ionization_Penalty>  (77) 
1.04975

>  <r_epik_Ionization_Penalty_Charging>  (77) 
0

>  <r_epik_Ionization_Penalty_Neutral>  (77) 
1.04975

>  <r_epik_State_Penalty>  (77) 
0.961546

>  <r_epik_Charging_Adjusted_Penalty>  (77) 
0.961546

>  <i_epik_Tot_Q>  (77) 
0

>  <i_epik_Tot_abs_Q>  (77) 
0

>  <s_lp_Force_Field>  (77) 
OPLS3e

>  <r_lp_Energy>  (77) 
81.1812

>  <b_lp_Chiralities_Consistent>  (77) 
1

>  <s_lp_Variant>  (77) 
24:0-4

>  <s_i_glide_gridfile>  (77) 
pfpi4k_grid

>  <i_i_glide_lignum>  (77) 
41

>  <i_i_glide_rotatable_bonds>  (77) 
2

>  <r_i_docking_score>  (77) 
-2.81173

>  <r_i_glide_ligand_efficiency>  (77) 
-0.127806

>  <r_i_glide_ligand_efficiency_sa>  (77) 
-0.358117

>  <r_i_glide_ligand_efficiency_ln>  (77) 
-0.68729

>  <r_i_glide_gscore>  (77) 
-2.81173

>  <r_i_glide_lipo>  (77) 
-0.843298

>  <r_i_glide_hbond>  (77) 
-0.00436634

>  <r_i_glide_metal>  (77) 
-0

>  <r_i_glide_rewards>  (77) 
-1.36797

>  <r_i_glide_evdw>  (77) 
-11.8226

>  <r_i_glide_ecoul>  (77) 
-0.0331131

>  <r_i_glide_erotb>  (77) 
0

>  <r_i_glide_esite>  (77) 
0

>  <r_i_glide_emodel>  (77) 
-15.1092

>  <r_i_glide_energy>  (77) 
-11.8557

>  <r_i_glide_einternal>  (77) 
0.455763

>  <r_i_glide_intrahb_reward>  (77) 
-0

>  <i_i_glide_confnum>  (77) 
1

>  <i_i_glide_posenum>  (77) 
23

>  <r_i_glide_eff_state_penalty>  (77) 
0

>  <ligand_id>  (77) 
24

>  <original_smiles>  (77) 
CN1CCC23C4=CCc5ccc(O)c(c52)OC3CC(O)CC41

>  <smiles>  (77) 
[H]Oc1c([H])c([H])c2c3c1OC1([H])C([H])([H])C([H])(O[H])C([H])([H])C4([H])C(=C([H])C2([H])[H])C31C([H])([H])C([H])([H])N4C([H])([H])[H]

$$$$
24:4:0
     RDKit          3D

 43 47  0  0  1  0  0  0  0  0999 V2000
    3.2099   -1.2594   -2.8899 C   0  0  0  0  0  0  0  0  0  0  0  0
    3.0143   -1.9290   -1.5793 N   0  0  1  0  0  0  0  0  0  0  0  0
    2.8888   -3.4122   -1.7063 C   0  0  0  0  0  0  0  0  0  0  0  0
    2.7615   -4.1459   -0.3394 C   0  0  0  0  0  0  0  0  0  0  0  0
    3.8943   -3.7455    0.6264 C   0  0  1  0  0  0  0  0  0  0  0  0
    3.7190   -2.2461    0.7776 C   0  0  0  0  0  0  0  0  0  0  0  0
    3.1027   -1.7360    1.8649 C   0  0  0  0  0  0  0  0  0  0  0  0
    2.5644   -2.5974    2.9983 C   0  0  0  0  0  0  0  0  0  0  0  0
    3.1595   -3.9864    3.1123 C   0  0  0  0  0  0  0  0  0  0  0  0
    3.2571   -4.7870    4.2667 C   0  0  0  0  0  0  0  0  0  0  0  0
    4.0673   -5.9487    4.2431 C   0  0  0  0  0  0  0  0  0  0  0  0
    4.8406   -6.2743    3.1033 C   0  0  0  0  0  0  0  0  0  0  0  0
    5.6941   -7.3404    3.1370 O   0  0  0  0  0  0  0  0  0  0  0  0
    4.7563   -5.4748    1.9411 C   0  0  0  0  0  0  0  0  0  0  0  0
    3.8590   -4.4266    1.9747 C   0  0  0  0  0  0  0  0  0  0  0  0
    5.5197   -5.5251    0.8134 O   0  0  0  0  0  0  0  0  0  0  0  0
    5.2320   -4.3419    0.0569 C   0  0  2  0  0  0  0  0  0  0  0  0
    6.4455   -3.4043    0.0482 C   0  0  0  0  0  0  0  0  0  0  0  0
    6.3887   -2.3115   -1.0349 C   0  0  1  0  0  0  0  0  0  0  0  0
    6.2103   -2.8443   -2.3240 O   0  0  0  0  0  0  0  0  0  0  0  0
    5.4068   -1.1447   -0.8071 C   0  0  0  0  0  0  0  0  0  0  0  0
    3.9173   -1.4339   -0.4821 C   0  0  1  0  0  0  0  0  0  0  0  0
    4.1489   -1.5532   -3.3632 H   0  0  0  0  0  0  0  0  0  0  0  0
    3.2137   -0.1748   -2.7789 H   0  0  0  0  0  0  0  0  0  0  0  0
    2.4048   -1.5204   -3.5785 H   0  0  0  0  0  0  0  0  0  0  0  0
    2.0126   -3.6318   -2.3157 H   0  0  0  0  0  0  0  0  0  0  0  0
    3.7282   -3.8027   -2.2821 H   0  0  0  0  0  0  0  0  0  0  0  0
    1.8157   -3.8824    0.1119 H   0  0  0  0  0  0  0  0  0  0  0  0
    2.7481   -5.2266   -0.4903 H   0  0  0  0  0  0  0  0  0  0  0  0
    2.8543   -0.6801    1.9143 H   0  0  0  0  0  0  0  0  0  0  0  0
    2.7866   -2.0799    3.9307 H   0  0  0  0  0  0  0  0  0  0  0  0
    1.4793   -2.6668    2.9291 H   0  0  0  0  0  0  0  0  0  0  0  0
    2.7638   -4.4914    5.1809 H   0  0  0  0  0  0  0  0  0  0  0  0
    4.1519   -6.5589    5.1296 H   0  0  0  0  0  0  0  0  0  0  0  0
    5.1072   -4.7356   -0.9505 H   0  0  0  0  0  0  0  0  0  0  0  0
    6.6110   -2.9688    1.0347 H   0  0  0  0  0  0  0  0  0  0  0  0
    7.3275   -4.0129   -0.1533 H   0  0  0  0  0  0  0  0  0  0  0  0
    7.3863   -1.8742   -1.0561 H   0  0  0  0  0  0  0  0  0  0  0  0
    5.4275   -3.3702   -2.3394 H   0  0  0  0  0  0  0  0  0  0  0  0
    5.7997   -0.5754    0.0379 H   0  0  0  0  0  0  0  0  0  0  0  0
    5.4750   -0.4501   -1.6456 H   0  0  0  0  0  0  0  0  0  0  0  0
    3.5170   -0.4491   -0.2588 H   0  0  0  0  0  0  0  0  0  0  0  0
    2.0805   -1.6111   -1.2723 H   0  0  0  0  0  0  0  0  0  0  0  0
  1  2  1  0
  1 23  1  0
  1 24  1  0
  1 25  1  0
  2 22  1  0
  2  3  1  0
  2 43  1  1
  3  4  1  0
  3 26  1  0
  3 27  1  0
  5  4  1  6
  4 28  1  0
  4 29  1  0
  5 15  1  0
  5 17  1  0
  5  6  1  0
  6 22  1  0
  6  7  2  0
  7  8  1  0
  7 30  1  0
  8  9  1  0
  8 31  1  0
  8 32  1  0
  9 15  2  0
  9 10  1  0
 10 11  2  0
 10 33  1  0
 11 12  1  0
 11 34  1  0
 12 13  1  0
 12 14  2  0
 14 15  1  0
 14 16  1  0
 16 17  1  0
 17 18  1  0
 17 35  1  6
 18 19  1  0
 18 36  1  0
 18 37  1  0
 19 20  1  0
 19 21  1  0
 19 38  1  6
 20 39  1  0
 21 22  1  0
 21 40  1  0
 21 41  1  0
 22 42  1  1
M  CHG  2   2   1  13  -1
M  END
>  <i_m_ct_stereo_status>  (78) 
1

>  <s_m_source_file>  (78) 
/var/tmp/pbs.5076255.sched01/tmphbojuwnv/0fr5z8inm.sdf

>  <i_m_source_file_index>  (78) 
42

>  <i_lp_mmshare_version>  (78) 
48012

>  <i_f3d_flags>  (78) 
0

>  <s_epik_input>  (78) 
W0NIMl0xW0NIMl1OKFtDSDNdKVtDSF0oQz0yW0NAXTEzNClbQ0gyXVtDQEhdKFtPSF0pW0NIMl1bQ0BIXTRPYzVjM2MoW0NIMl1bQ0hdMilbY0hdW2NIXWM1W09IXQ==

>  <s_epik_cmdline>  (78) 
J2VwaWtfcHl0aG9uJywgJy1waHQnLCAnMi4wJywgJy1waCcsICc3LjAnLCAnLXRuJywgJzgnLCAnLW1hJywgJzIwMCcsICctaW1hZScsICc8aW5maWxlLm1hZT4nLCAnLW9tYWUnLCAnPG91dGZpbGUubWFlPic=

>  <r_epik_Ionization_Penalty>  (78) 
1.86326

>  <r_epik_Ionization_Penalty_Charging>  (78) 
1.86326

>  <r_epik_Ionization_Penalty_Neutral>  (78) 
1.0971e-07

>  <r_epik_State_Penalty>  (78) 
2.21636

>  <r_epik_Charging_Adjusted_Penalty>  (78) 
4.07962

>  <i_epik_Tot_Q>  (78) 
0

>  <i_epik_Tot_abs_Q>  (78) 
2

>  <s_lp_Force_Field>  (78) 
OPLS3e

>  <r_lp_Energy>  (78) 
54.0331

>  <b_lp_Chiralities_Consistent>  (78) 
1

>  <s_lp_Variant>  (78) 
24:0-5

>  <s_i_glide_gridfile>  (78) 
pfpi4k_grid

>  <i_i_glide_lignum>  (78) 
42

>  <i_i_glide_rotatable_bonds>  (78) 
1

>  <r_i_docking_score>  (78) 
-3.83828

>  <r_i_glide_ligand_efficiency>  (78) 
-0.174467

>  <r_i_glide_ligand_efficiency_sa>  (78) 
-0.488864

>  <r_i_glide_ligand_efficiency_ln>  (78) 
-0.938214

>  <r_i_glide_gscore>  (78) 
-3.83828

>  <r_i_glide_lipo>  (78) 
-0.308372

>  <r_i_glide_hbond>  (78) 
-0.2

>  <r_i_glide_metal>  (78) 
-0

>  <r_i_glide_rewards>  (78) 
-1.36797

>  <r_i_glide_evdw>  (78) 
-17.9718

>  <r_i_glide_ecoul>  (78) 
-6.4722

>  <r_i_glide_erotb>  (78) 
0

>  <r_i_glide_esite>  (78) 
-0.0925136

>  <r_i_glide_emodel>  (78) 
-31.0061

>  <r_i_glide_energy>  (78) 
-24.444

>  <r_i_glide_einternal>  (78) 
0.017453

>  <r_i_glide_intrahb_reward>  (78) 
-0

>  <i_i_glide_confnum>  (78) 
1

>  <i_i_glide_posenum>  (78) 
1

>  <r_i_glide_eff_state_penalty>  (78) 
0

>  <ligand_id>  (78) 
24

>  <original_smiles>  (78) 
CN1CCC23C4=CCc5ccc(O)c(c52)OC3CC(O)CC41

>  <smiles>  (78) 
[H]OC1([H])C([H])([H])C2([H])Oc3c([O-])c([H])c([H])c4c3C23C(=C([H])C4([H])[H])C([H])(C1([H])[H])[N+]([H])(C([H])([H])[H])C([H])([H])C3([H])[H]

$$$$
24:4:1
     RDKit          3D

 43 47  0  0  1  0  0  0  0  0999 V2000
    3.5611   -0.8925   -3.1518 C   0  0  0  0  0  0  0  0  0  0  0  0
    3.1486   -1.6067   -1.9205 N   0  0  1  0  0  0  0  0  0  0  0  0
    2.7717   -3.0253   -2.1750 C   0  0  0  0  0  0  0  0  0  0  0  0
    2.3677   -3.7917   -0.8854 C   0  0  0  0  0  0  0  0  0  0  0  0
    3.4616   -3.6748    0.1996 C   0  0  1  0  0  0  0  0  0  0  0  0
    3.5457   -2.1830    0.4588 C   0  0  0  0  0  0  0  0  0  0  0  0
    2.9310   -1.6382    1.5294 C   0  0  0  0  0  0  0  0  0  0  0  0
    2.1449   -2.4551    2.5455 C   0  0  0  0  0  0  0  0  0  0  0  0
    2.4738   -3.9343    2.5939 C   0  0  0  0  0  0  0  0  0  0  0  0
    2.3208   -4.8111    3.6876 C   0  0  0  0  0  0  0  0  0  0  0  0
    2.9119   -6.0947    3.6373 C   0  0  0  0  0  0  0  0  0  0  0  0
    3.7181   -6.4827    2.5403 C   0  0  0  0  0  0  0  0  0  0  0  0
    4.3664   -7.6846    2.5601 O   0  0  0  0  0  0  0  0  0  0  0  0
    3.8835   -5.6095    1.4415 C   0  0  0  0  0  0  0  0  0  0  0  0
    3.1823   -4.4233    1.4821 C   0  0  0  0  0  0  0  0  0  0  0  0
    4.7302   -5.7248    0.3816 O   0  0  0  0  0  0  0  0  0  0  0  0
    4.7240   -4.4654   -0.3049 C   0  0  2  0  0  0  0  0  0  0  0  0
    6.0828   -3.7668   -0.1430 C   0  0  0  0  0  0  0  0  0  0  0  0
    6.3302   -2.6228   -1.1442 C   0  0  1  0  0  0  0  0  0  0  0  0
    6.1849   -3.0441   -2.4825 O   0  0  0  0  0  0  0  0  0  0  0  0
    5.5482   -1.3162   -0.9019 C   0  0  0  0  0  0  0  0  0  0  0  0
    4.0110   -1.3474   -0.7162 C   0  0  1  0  0  0  0  0  0  0  0  0
    4.4713   -1.3237   -3.5756 H   0  0  0  0  0  0  0  0  0  0  0  0
    3.7467    0.1659   -2.9582 H   0  0  0  0  0  0  0  0  0  0  0  0
    2.7819   -0.9563   -3.9159 H   0  0  0  0  0  0  0  0  0  0  0  0
    1.9274   -3.0380   -2.8669 H   0  0  0  0  0  0  0  0  0  0  0  0
    3.5811   -3.5262   -2.7033 H   0  0  0  0  0  0  0  0  0  0  0  0
    1.4282   -3.3784   -0.5284 H   0  0  0  0  0  0  0  0  0  0  0  0
    2.1593   -4.8334   -1.1177 H   0  0  0  0  0  0  0  0  0  0  0  0
    2.8651   -0.5611    1.6382 H   0  0  0  0  0  0  0  0  0  0  0  0
    2.3654   -2.0469    3.5320 H   0  0  0  0  0  0  0  0  0  0  0  0
    1.0750   -2.3194    2.3907 H   0  0  0  0  0  0  0  0  0  0  0  0
    1.8054   -4.4854    4.5783 H   0  0  0  0  0  0  0  0  0  0  0  0
    2.8080   -6.7636    4.4783 H   0  0  0  0  0  0  0  0  0  0  0  0
    4.6310   -4.7678   -1.3461 H   0  0  0  0  0  0  0  0  0  0  0  0
    6.2248   -3.4261    0.8839 H   0  0  0  0  0  0  0  0  0  0  0  0
    6.8592   -4.5146   -0.3080 H   0  0  0  0  0  0  0  0  0  0  0  0
    7.3833   -2.3564   -1.0490 H   0  0  0  0  0  0  0  0  0  0  0  0
    6.9038   -3.6218   -2.6986 H   0  0  0  0  0  0  0  0  0  0  0  0
    5.9481   -0.8772    0.0137 H   0  0  0  0  0  0  0  0  0  0  0  0
    5.8060   -0.5939   -1.6761 H   0  0  0  0  0  0  0  0  0  0  0  0
    3.7825   -0.3173   -0.4467 H   0  0  0  0  0  0  0  0  0  0  0  0
    2.2568   -1.1889   -1.6417 H   0  0  0  0  0  0  0  0  0  0  0  0
  1  2  1  0
  1 23  1  0
  1 24  1  0
  1 25  1  0
  2 22  1  0
  2  3  1  0
  2 43  1  1
  3  4  1  0
  3 26  1  0
  3 27  1  0
  5  4  1  6
  4 28  1  0
  4 29  1  0
  5 15  1  0
  5 17  1  0
  5  6  1  0
  6 22  1  0
  6  7  2  0
  7  8  1  0
  7 30  1  0
  8  9  1  0
  8 31  1  0
  8 32  1  0
  9 15  2  0
  9 10  1  0
 10 11  2  0
 10 33  1  0
 11 12  1  0
 11 34  1  0
 12 13  1  0
 12 14  2  0
 14 15  1  0
 14 16  1  0
 16 17  1  0
 17 18  1  0
 17 35  1  6
 18 19  1  0
 18 36  1  0
 18 37  1  0
 19 20  1  0
 19 21  1  0
 19 38  1  6
 20 39  1  0
 21 22  1  0
 21 40  1  0
 21 41  1  0
 22 42  1  1
M  CHG  2   2   1  13  -1
M  END
>  <i_m_ct_stereo_status>  (79) 
1

>  <s_m_source_file>  (79) 
/var/tmp/pbs.5076255.sched01/tmphbojuwnv/0fr5z8inm.sdf

>  <i_m_source_file_index>  (79) 
42

>  <i_lp_mmshare_version>  (79) 
48012

>  <i_f3d_flags>  (79) 
0

>  <s_epik_input>  (79) 
W0NIMl0xW0NIMl1OKFtDSDNdKVtDSF0oQz0yW0NAXTEzNClbQ0gyXVtDQEhdKFtPSF0pW0NIMl1bQ0BIXTRPYzVjM2MoW0NIMl1bQ0hdMilbY0hdW2NIXWM1W09IXQ==

>  <s_epik_cmdline>  (79) 
J2VwaWtfcHl0aG9uJywgJy1waHQnLCAnMi4wJywgJy1waCcsICc3LjAnLCAnLXRuJywgJzgnLCAnLW1hJywgJzIwMCcsICctaW1hZScsICc8aW5maWxlLm1hZT4nLCAnLW9tYWUnLCAnPG91dGZpbGUubWFlPic=

>  <r_epik_Ionization_Penalty>  (79) 
1.86326

>  <r_epik_Ionization_Penalty_Charging>  (79) 
1.86326

>  <r_epik_Ionization_Penalty_Neutral>  (79) 
1.0971e-07

>  <r_epik_State_Penalty>  (79) 
2.21636

>  <r_epik_Charging_Adjusted_Penalty>  (79) 
4.07962

>  <i_epik_Tot_Q>  (79) 
0

>  <i_epik_Tot_abs_Q>  (79) 
2

>  <s_lp_Force_Field>  (79) 
OPLS3e

>  <r_lp_Energy>  (79) 
54.0331

>  <b_lp_Chiralities_Consistent>  (79) 
1

>  <s_lp_Variant>  (79) 
24:0-5

>  <s_i_glide_gridfile>  (79) 
pfpi4k_grid

>  <i_i_glide_lignum>  (79) 
42

>  <i_i_glide_rotatable_bonds>  (79) 
1

>  <r_i_docking_score>  (79) 
-3.56689

>  <r_i_glide_ligand_efficiency>  (79) 
-0.162131

>  <r_i_glide_ligand_efficiency_sa>  (79) 
-0.454298

>  <r_i_glide_ligand_efficiency_ln>  (79) 
-0.871878

>  <r_i_glide_gscore>  (79) 
-3.56689

>  <r_i_glide_lipo>  (79) 
-0.187316

>  <r_i_glide_hbond>  (79) 
-0.2

>  <r_i_glide_metal>  (79) 
-0

>  <r_i_glide_rewards>  (79) 
-1.36797

>  <r_i_glide_evdw>  (79) 
-19.783

>  <r_i_glide_ecoul>  (79) 
-4.83067

>  <r_i_glide_erotb>  (79) 
0

>  <r_i_glide_esite>  (79) 
-0.0978512

>  <r_i_glide_emodel>  (79) 
-30.4488

>  <r_i_glide_energy>  (79) 
-24.6137

>  <r_i_glide_einternal>  (79) 
0.483028

>  <r_i_glide_intrahb_reward>  (79) 
-0

>  <i_i_glide_confnum>  (79) 
1

>  <i_i_glide_posenum>  (79) 
15

>  <r_i_glide_eff_state_penalty>  (79) 
0

>  <ligand_id>  (79) 
24

>  <original_smiles>  (79) 
CN1CCC23C4=CCc5ccc(O)c(c52)OC3CC(O)CC41

>  <smiles>  (79) 
[H]OC1([H])C([H])([H])C2([H])Oc3c([O-])c([H])c([H])c4c3C23C(=C([H])C4([H])[H])C([H])(C1([H])[H])[N+]([H])(C([H])([H])[H])C([H])([H])C3([H])[H]

$$$$
24:4:2
     RDKit          3D

 43 47  0  0  1  0  0  0  0  0999 V2000
    4.3447   -3.1303    3.6297 C   0  0  0  0  0  0  0  0  0  0  0  0
    3.7322   -2.9211    2.3073 N   0  0  1  0  0  0  0  0  0  0  0  0
    3.4927   -1.4893    2.0019 C   0  0  0  0  0  0  0  0  0  0  0  0
    2.8774   -1.2834    0.6124 C   0  0  0  0  0  0  0  0  0  0  0  0
    3.7116   -1.9681   -0.4960 C   0  0  1  0  0  0  0  0  0  0  0  0
    3.6401   -3.4192   -0.0905 C   0  0  0  0  0  0  0  0  0  0  0  0
    2.7739   -4.2564   -0.6752 C   0  0  0  0  0  0  0  0  0  0  0  0
    1.8582   -3.7977   -1.8077 C   0  0  0  0  0  0  0  0  0  0  0  0
    2.4343   -2.6533   -2.6108 C   0  0  0  0  0  0  0  0  0  0  0  0
    2.1197   -2.2795   -3.9063 C   0  0  0  0  0  0  0  0  0  0  0  0
    2.6660   -1.0410   -4.4057 C   0  0  0  0  0  0  0  0  0  0  0  0
    3.6700   -0.3581   -3.7695 C   0  0  0  0  0  0  0  0  0  0  0  0
    4.1982    0.7358   -4.4502 O   0  0  0  0  0  0  0  0  0  0  0  0
    4.0394   -0.7905   -2.5087 C   0  0  0  0  0  0  0  0  0  0  0  0
    3.3136   -1.8165   -1.9338 C   0  0  0  0  0  0  0  0  0  0  0  0
    5.0494   -0.3731   -1.7395 O   0  0  0  0  0  0  0  0  0  0  0  0
    5.0660   -1.2180   -0.6014 C   0  0  2  0  0  0  0  0  0  0  0  0
    6.2958   -2.1263   -0.7066 C   0  0  0  0  0  0  0  0  0  0  0  0
    6.6608   -2.7163    0.6366 C   0  0  1  0  0  0  0  0  0  0  0  0
    6.6056   -1.6478    1.5664 O   0  0  0  0  0  0  0  0  0  0  0  0
    5.8406   -3.9078    1.1132 C   0  0  0  0  0  0  0  0  0  0  0  0
    4.3099   -3.7497    1.2100 C   0  0  1  0  0  0  0  0  0  0  0  0
    5.3427   -2.6816    3.6772 H   0  0  0  0  0  0  0  0  0  0  0  0
    4.4351   -4.1943    3.8694 H   0  0  0  0  0  0  0  0  0  0  0  0
    3.7396   -2.6658    4.4123 H   0  0  0  0  0  0  0  0  0  0  0  0
    2.7911   -1.0991    2.7344 H   0  0  0  0  0  0  0  0  0  0  0  0
    4.3911   -0.9061    2.1336 H   0  0  0  0  0  0  0  0  0  0  0  0
    1.9093   -1.7863    0.7272 H   0  0  0  0  0  0  0  0  0  0  0  0
    2.7341   -0.2172    0.4339 H   0  0  0  0  0  0  0  0  0  0  0  0
    2.6438   -5.2725   -0.3225 H   0  0  0  0  0  0  0  0  0  0  0  0
    1.7813   -4.5530   -2.5593 H   0  0  0  0  0  0  0  0  0  0  0  0
    0.8215   -3.6692   -1.4775 H   0  0  0  0  0  0  0  0  0  0  0  0
    1.3778   -2.8263   -4.4725 H   0  0  0  0  0  0  0  0  0  0  0  0
    2.3713   -0.5706   -5.3096 H   0  0  0  0  0  0  0  0  0  0  0  0
    5.1642   -0.4652    0.1800 H   0  0  0  0  0  0  0  0  0  0  0  0
    6.2027   -2.8537   -1.5071 H   0  0  0  0  0  0  0  0  0  0  0  0
    7.1423   -1.4992   -0.9538 H   0  0  0  0  0  0  0  0  0  0  0  0
    7.6913   -3.0710    0.5487 H   0  0  0  0  0  0  0  0  0  0  0  0
    7.3629   -1.1196    1.4106 H   0  0  0  0  0  0  0  0  0  0  0  0
    6.0204   -4.7210    0.4144 H   0  0  0  0  0  0  0  0  0  0  0  0
    6.2383   -4.2742    2.0613 H   0  0  0  0  0  0  0  0  0  0  0  0
    3.9723   -4.7509    1.4337 H   0  0  0  0  0  0  0  0  0  0  0  0
    2.7914   -3.2966    2.4018 H   0  0  0  0  0  0  0  0  0  0  0  0
  1  2  1  0
  1 23  1  0
  1 24  1  0
  1 25  1  0
  2 22  1  0
  2  3  1  0
  2 43  1  1
  3  4  1  0
  3 26  1  0
  3 27  1  0
  5  4  1  1
  4 28  1  0
  4 29  1  0
  5 15  1  0
  5 17  1  0
  5  6  1  0
  6 22  1  0
  6  7  2  0
  7  8  1  0
  7 30  1  0
  8  9  1  0
  8 31  1  0
  8 32  1  0
  9 15  2  0
  9 10  1  0
 10 11  2  0
 10 33  1  0
 11 12  1  0
 11 34  1  0
 12 13  1  0
 12 14  2  0
 14 15  1  0
 14 16  1  0
 16 17  1  0
 17 18  1  0
 17 35  1  1
 18 19  1  0
 18 36  1  0
 18 37  1  0
 19 20  1  0
 19 21  1  0
 19 38  1  6
 20 39  1  0
 21 22  1  0
 21 40  1  0
 21 41  1  0
 22 42  1  1
M  CHG  2   2   1  13  -1
M  END
>  <i_m_ct_stereo_status>  (80) 
1

>  <s_m_source_file>  (80) 
/var/tmp/pbs.5076255.sched01/tmphbojuwnv/0fr5z8inm.sdf

>  <i_m_source_file_index>  (80) 
42

>  <i_lp_mmshare_version>  (80) 
48012

>  <i_f3d_flags>  (80) 
0

>  <s_epik_input>  (80) 
W0NIMl0xW0NIMl1OKFtDSDNdKVtDSF0oQz0yW0NAXTEzNClbQ0gyXVtDQEhdKFtPSF0pW0NIMl1bQ0BIXTRPYzVjM2MoW0NIMl1bQ0hdMilbY0hdW2NIXWM1W09IXQ==

>  <s_epik_cmdline>  (80) 
J2VwaWtfcHl0aG9uJywgJy1waHQnLCAnMi4wJywgJy1waCcsICc3LjAnLCAnLXRuJywgJzgnLCAnLW1hJywgJzIwMCcsICctaW1hZScsICc8aW5maWxlLm1hZT4nLCAnLW9tYWUnLCAnPG91dGZpbGUubWFlPic=

>  <r_epik_Ionization_Penalty>  (80) 
1.86326

>  <r_epik_Ionization_Penalty_Charging>  (80) 
1.86326

>  <r_epik_Ionization_Penalty_Neutral>  (80) 
1.0971e-07

>  <r_epik_State_Penalty>  (80) 
2.21636

>  <r_epik_Charging_Adjusted_Penalty>  (80) 
4.07962

>  <i_epik_Tot_Q>  (80) 
0

>  <i_epik_Tot_abs_Q>  (80) 
2

>  <s_lp_Force_Field>  (80) 
OPLS3e

>  <r_lp_Energy>  (80) 
54.0331

>  <b_lp_Chiralities_Consistent>  (80) 
1

>  <s_lp_Variant>  (80) 
24:0-5

>  <s_i_glide_gridfile>  (80) 
pfpi4k_grid

>  <i_i_glide_lignum>  (80) 
42

>  <i_i_glide_rotatable_bonds>  (80) 
1

>  <r_i_docking_score>  (80) 
-2.51515

>  <r_i_glide_ligand_efficiency>  (80) 
-0.114325

>  <r_i_glide_ligand_efficiency_sa>  (80) 
-0.320343

>  <r_i_glide_ligand_efficiency_ln>  (80) 
-0.614794

>  <r_i_glide_gscore>  (80) 
-2.51515

>  <r_i_glide_lipo>  (80) 
-0.734948

>  <r_i_glide_hbond>  (80) 
0

>  <r_i_glide_metal>  (80) 
-0

>  <r_i_glide_rewards>  (80) 
-1.36797

>  <r_i_glide_evdw>  (80) 
-0.807466

>  <r_i_glide_ecoul>  (80) 
-2.47903

>  <r_i_glide_erotb>  (80) 
0

>  <r_i_glide_esite>  (80) 
0

>  <r_i_glide_emodel>  (80) 
-3.85543

>  <r_i_glide_energy>  (80) 
-3.28649

>  <r_i_glide_einternal>  (80) 
0.345454

>  <r_i_glide_intrahb_reward>  (80) 
-0

>  <i_i_glide_confnum>  (80) 
1

>  <i_i_glide_posenum>  (80) 
20

>  <r_i_glide_eff_state_penalty>  (80) 
0

>  <ligand_id>  (80) 
24

>  <original_smiles>  (80) 
CN1CCC23C4=CCc5ccc(O)c(c52)OC3CC(O)CC41

>  <smiles>  (80) 
[H]OC1([H])C([H])([H])C2([H])Oc3c([O-])c([H])c([H])c4c3C23C(=C([H])C4([H])[H])C([H])(C1([H])[H])[N+]([H])(C([H])([H])[H])C([H])([H])C3([H])[H]

$$$$
24:5:0
     RDKit          3D

 43 47  0  0  1  0  0  0  0  0999 V2000
    3.3806   -1.4016   -2.7792 C   0  0  0  0  0  0  0  0  0  0  0  0
    3.0225   -1.9663   -1.4513 N   0  0  1  0  0  0  0  0  0  0  0  0
    2.7484   -3.4564   -1.5031 C   0  0  0  0  0  0  0  0  0  0  0  0
    2.8506   -4.2547   -0.1161 C   0  0  0  0  0  0  0  0  0  0  0  0
    3.7482   -3.6310    1.0280 C   0  0  1  0  0  0  0  0  0  0  0  0
    3.4668   -2.1976    0.8886 C   0  0  0  0  0  0  0  0  0  0  0  0
    2.5930   -1.5388    1.6718 C   0  0  0  0  0  0  0  0  0  0  0  0
    1.8435   -2.2525    2.7930 C   0  0  0  0  0  0  0  0  0  0  0  0
    2.4799   -3.5458    3.2864 C   0  0  0  0  0  0  0  0  0  0  0  0
    2.3835   -4.1206    4.5680 C   0  0  0  0  0  0  0  0  0  0  0  0
    3.2836   -5.1527    4.9355 C   0  0  0  0  0  0  0  0  0  0  0  0
    4.3344   -5.5467    4.0751 C   0  0  0  0  0  0  0  0  0  0  0  0
    5.2623   -6.4524    4.5023 O   0  0  0  0  0  0  0  0  0  0  0  0
    4.4510   -4.9691    2.7918 C   0  0  0  0  0  0  0  0  0  0  0  0
    3.4527   -4.0865    2.4290 C   0  0  0  0  0  0  0  0  0  0  0  0
    5.4766   -5.0363    1.8901 O   0  0  0  0  0  0  0  0  0  0  0  0
    5.2923   -3.9522    0.9600 C   0  0  2  0  0  0  0  0  0  0  0  0
    6.2011   -2.7124    1.3550 C   0  0  0  0  0  0  0  0  0  0  0  0
    6.4118   -1.5039    0.3457 C   0  0  1  0  0  0  0  0  0  0  0  0
    7.2070   -1.9653   -0.7244 O   0  0  0  0  0  0  0  0  0  0  0  0
    5.1636   -0.7426   -0.2612 C   0  0  0  0  0  0  0  0  0  0  0  0
    4.0519   -1.7676   -0.4083 C   0  0  2  0  0  0  0  0  0  0  0  0
    4.3098   -1.8336   -3.1663 H   0  0  0  0  0  0  0  0  0  0  0  0
    3.5093   -0.3199   -2.7203 H   0  0  0  0  0  0  0  0  0  0  0  0
    2.5932   -1.6058   -3.5067 H   0  0  0  0  0  0  0  0  0  0  0  0
    1.7838   -3.6335   -1.9783 H   0  0  0  0  0  0  0  0  0  0  0  0
    3.4889   -3.8801   -2.1804 H   0  0  0  0  0  0  0  0  0  0  0  0
    1.8355   -4.2949    0.2724 H   0  0  0  0  0  0  0  0  0  0  0  0
    3.1233   -5.2988   -0.2957 H   0  0  0  0  0  0  0  0  0  0  0  0
    2.3034   -0.5213    1.4334 H   0  0  0  0  0  0  0  0  0  0  0  0
    1.8067   -1.5622    3.6330 H   0  0  0  0  0  0  0  0  0  0  0  0
    0.8137   -2.4345    2.4899 H   0  0  0  0  0  0  0  0  0  0  0  0
    1.6753   -3.7374    5.2877 H   0  0  0  0  0  0  0  0  0  0  0  0
    3.2172   -5.5882    5.9199 H   0  0  0  0  0  0  0  0  0  0  0  0
    5.5937   -4.3272   -0.0204 H   0  0  0  0  0  0  0  0  0  0  0  0
    5.8560   -2.3096    2.3103 H   0  0  0  0  0  0  0  0  0  0  0  0
    7.1885   -3.1091    1.5821 H   0  0  0  0  0  0  0  0  0  0  0  0
    7.0251   -0.7608    0.8526 H   0  0  0  0  0  0  0  0  0  0  0  0
    6.8463   -2.7702   -1.0646 H   0  0  0  0  0  0  0  0  0  0  0  0
    4.8402    0.0491    0.4187 H   0  0  0  0  0  0  0  0  0  0  0  0
    5.4224   -0.2614   -1.2016 H   0  0  0  0  0  0  0  0  0  0  0  0
    4.7062   -2.5200   -0.8440 H   0  0  0  0  0  0  0  0  0  0  0  0
    2.1382   -1.5124   -1.1426 H   0  0  0  0  0  0  0  0  0  0  0  0
  1  2  1  0
  1 23  1  0
  1 24  1  0
  1 25  1  0
  2 22  1  0
  2  3  1  0
  2 43  1  1
  3  4  1  0
  3 26  1  0
  3 27  1  0
  5  4  1  6
  4 28  1  0
  4 29  1  0
  5 15  1  0
  5 17  1  0
  5  6  1  0
  6 22  1  0
  6  7  2  0
  7  8  1  0
  7 30  1  0
  8  9  1  0
  8 31  1  0
  8 32  1  0
  9 15  2  0
  9 10  1  0
 10 11  2  0
 10 33  1  0
 11 12  1  0
 11 34  1  0
 12 13  1  0
 12 14  2  0
 14 15  1  0
 14 16  1  0
 16 17  1  0
 17 18  1  0
 17 35  1  6
 18 19  1  0
 18 36  1  0
 18 37  1  0
 19 20  1  0
 19 21  1  0
 19 38  1  1
 20 39  1  0
 21 22  1  0
 21 40  1  0
 21 41  1  0
 22 42  1  6
M  CHG  2   2   1  13  -1
M  END
>  <i_m_ct_stereo_status>  (81) 
1

>  <s_m_source_file>  (81) 
/var/tmp/pbs.5076255.sched01/tmphbojuwnv/0fr5z8inm.sdf

>  <i_m_source_file_index>  (81) 
43

>  <i_lp_mmshare_version>  (81) 
48012

>  <i_f3d_flags>  (81) 
0

>  <s_epik_input>  (81) 
W0NIMl0xW0NIMl1OKFtDSDNdKVtDSF0oQz0yW0NAXTEzNClbQ0gyXVtDQEhdKFtPSF0pW0NIMl1bQ0BIXTRPYzVjM2MoW0NIMl1bQ0hdMilbY0hdW2NIXWM1W09IXQ==

>  <s_epik_cmdline>  (81) 
J2VwaWtfcHl0aG9uJywgJy1waHQnLCAnMi4wJywgJy1waCcsICc3LjAnLCAnLXRuJywgJzgnLCAnLW1hJywgJzIwMCcsICctaW1hZScsICc8aW5maWxlLm1hZT4nLCAnLW9tYWUnLCAnPG91dGZpbGUubWFlPic=

>  <r_epik_Ionization_Penalty>  (81) 
1.86326

>  <r_epik_Ionization_Penalty_Charging>  (81) 
1.86326

>  <r_epik_Ionization_Penalty_Neutral>  (81) 
1.0971e-07

>  <r_epik_State_Penalty>  (81) 
2.21636

>  <r_epik_Charging_Adjusted_Penalty>  (81) 
4.07962

>  <i_epik_Tot_Q>  (81) 
0

>  <i_epik_Tot_abs_Q>  (81) 
2

>  <s_lp_Force_Field>  (81) 
OPLS3e

>  <r_lp_Energy>  (81) 
99.505

>  <b_lp_Chiralities_Consistent>  (81) 
1

>  <s_lp_Variant>  (81) 
24:0-6

>  <s_i_glide_gridfile>  (81) 
pfpi4k_grid

>  <i_i_glide_lignum>  (81) 
43

>  <i_i_glide_rotatable_bonds>  (81) 
1

>  <r_i_docking_score>  (81) 
-4.45688

>  <r_i_glide_ligand_efficiency>  (81) 
-0.202585

>  <r_i_glide_ligand_efficiency_sa>  (81) 
-0.567652

>  <r_i_glide_ligand_efficiency_ln>  (81) 
-1.08942

>  <r_i_glide_gscore>  (81) 
-4.45688

>  <r_i_glide_lipo>  (81) 
-0.283617

>  <r_i_glide_hbond>  (81) 
-0.36

>  <r_i_glide_metal>  (81) 
-0

>  <r_i_glide_rewards>  (81) 
-1.36797

>  <r_i_glide_evdw>  (81) 
-14.9772

>  <r_i_glide_ecoul>  (81) 
-10.6882

>  <r_i_glide_erotb>  (81) 
0

>  <r_i_glide_esite>  (81) 
-0.0931958

>  <r_i_glide_emodel>  (81) 
-36.1044

>  <r_i_glide_energy>  (81) 
-25.6654

>  <r_i_glide_einternal>  (81) 
0.144567

>  <r_i_glide_intrahb_reward>  (81) 
-0

>  <i_i_glide_confnum>  (81) 
2

>  <i_i_glide_posenum>  (81) 
2

>  <r_i_glide_eff_state_penalty>  (81) 
0

>  <ligand_id>  (81) 
24

>  <original_smiles>  (81) 
CN1CCC23C4=CCc5ccc(O)c(c52)OC3CC(O)CC41

>  <smiles>  (81) 
[H]OC1([H])C([H])([H])C2([H])Oc3c([O-])c([H])c([H])c4c3C23C(=C([H])C4([H])[H])C([H])(C1([H])[H])[N+]([H])(C([H])([H])[H])C([H])([H])C3([H])[H]

$$$$
24:5:1
     RDKit          3D

 43 47  0  0  1  0  0  0  0  0999 V2000
    3.4903   -1.3378   -2.9919 C   0  0  0  0  0  0  0  0  0  0  0  0
    3.1672   -1.8986   -1.6548 N   0  0  1  0  0  0  0  0  0  0  0  0
    2.7450   -3.3556   -1.6978 C   0  0  0  0  0  0  0  0  0  0  0  0
    2.8351   -4.1620   -0.3173 C   0  0  0  0  0  0  0  0  0  0  0  0
    3.8375   -3.6324    0.7806 C   0  0  1  0  0  0  0  0  0  0  0  0
    3.6775   -2.1787    0.6607 C   0  0  0  0  0  0  0  0  0  0  0  0
    2.8988   -1.4553    1.4839 C   0  0  0  0  0  0  0  0  0  0  0  0
    2.1426   -2.1141    2.6395 C   0  0  0  0  0  0  0  0  0  0  0  0
    2.6879   -3.4628    3.0958 C   0  0  0  0  0  0  0  0  0  0  0  0
    2.5998   -4.0414    4.3781 C   0  0  0  0  0  0  0  0  0  0  0  0
    3.4225   -5.1517    4.6938 C   0  0  0  0  0  0  0  0  0  0  0  0
    4.3959   -5.6302    3.7808 C   0  0  0  0  0  0  0  0  0  0  0  0
    5.2584   -6.6164    4.1574 O   0  0  0  0  0  0  0  0  0  0  0  0
    4.5007   -5.0473    2.4985 C   0  0  0  0  0  0  0  0  0  0  0  0
    3.5698   -4.0751    2.1902 C   0  0  0  0  0  0  0  0  0  0  0  0
    5.4718   -5.1941    1.5453 O   0  0  0  0  0  0  0  0  0  0  0  0
    5.3414   -4.0879    0.6336 C   0  0  2  0  0  0  0  0  0  0  0  0
    6.3761   -2.9400    0.9990 C   0  0  0  0  0  0  0  0  0  0  0  0
    6.6529   -1.7447   -0.0098 C   0  0  1  0  0  0  0  0  0  0  0  0
    7.3553   -2.2621   -1.1275 O   0  0  0  0  0  0  0  0  0  0  0  0
    5.4471   -0.8716   -0.5487 C   0  0  0  0  0  0  0  0  0  0  0  0
    4.2518   -1.7975   -0.6568 C   0  0  2  0  0  0  0  0  0  0  0  0
    4.3531   -1.8433   -3.4357 H   0  0  0  0  0  0  0  0  0  0  0  0
    3.7149   -0.2715   -2.9269 H   0  0  0  0  0  0  0  0  0  0  0  0
    2.6447   -1.4555   -3.6729 H   0  0  0  0  0  0  0  0  0  0  0  0
    1.7434   -3.4247   -2.1231 H   0  0  0  0  0  0  0  0  0  0  0  0
    3.3918   -3.8570   -2.4161 H   0  0  0  0  0  0  0  0  0  0  0  0
    1.8355   -4.1144    0.1141 H   0  0  0  0  0  0  0  0  0  0  0  0
    3.0046   -5.2226   -0.5023 H   0  0  0  0  0  0  0  0  0  0  0  0
    2.6887   -0.4126    1.2740 H   0  0  0  0  0  0  0  0  0  0  0  0
    2.2073   -1.4339    3.4859 H   0  0  0  0  0  0  0  0  0  0  0  0
    1.0858   -2.2070    2.3921 H   0  0  0  0  0  0  0  0  0  0  0  0
    1.9608   -3.6044    5.1353 H   0  0  0  0  0  0  0  0  0  0  0  0
    3.3635   -5.5923    5.6766 H   0  0  0  0  0  0  0  0  0  0  0  0
    5.5633   -4.4773   -0.3626 H   0  0  0  0  0  0  0  0  0  0  0  0
    6.1064   -2.5175    1.9679 H   0  0  0  0  0  0  0  0  0  0  0  0
    7.3337   -3.4218    1.1849 H   0  0  0  0  0  0  0  0  0  0  0  0
    7.3472   -1.0619    0.4817 H   0  0  0  0  0  0  0  0  0  0  0  0
    8.0913   -2.7771   -0.8160 H   0  0  0  0  0  0  0  0  0  0  0  0
    5.2174   -0.0650    0.1476 H   0  0  0  0  0  0  0  0  0  0  0  0
    5.6955   -0.4052   -1.5015 H   0  0  0  0  0  0  0  0  0  0  0  0
    4.8148   -2.5975   -1.1294 H   0  0  0  0  0  0  0  0  0  0  0  0
    2.3622   -1.3844   -1.2956 H   0  0  0  0  0  0  0  0  0  0  0  0
  1  2  1  0
  1 23  1  0
  1 24  1  0
  1 25  1  0
  2 22  1  0
  2  3  1  0
  2 43  1  1
  3  4  1  0
  3 26  1  0
  3 27  1  0
  5  4  1  6
  4 28  1  0
  4 29  1  0
  5 15  1  0
  5 17  1  0
  5  6  1  0
  6 22  1  0
  6  7  2  0
  7  8  1  0
  7 30  1  0
  8  9  1  0
  8 31  1  0
  8 32  1  0
  9 15  2  0
  9 10  1  0
 10 11  2  0
 10 33  1  0
 11 12  1  0
 11 34  1  0
 12 13  1  0
 12 14  2  0
 14 15  1  0
 14 16  1  0
 16 17  1  0
 17 18  1  0
 17 35  1  6
 18 19  1  0
 18 36  1  0
 18 37  1  0
 19 20  1  0
 19 21  1  0
 19 38  1  1
 20 39  1  0
 21 22  1  0
 21 40  1  0
 21 41  1  0
 22 42  1  6
M  CHG  2   2   1  13  -1
M  END
>  <i_m_ct_stereo_status>  (82) 
1

>  <s_m_source_file>  (82) 
/var/tmp/pbs.5076255.sched01/tmphbojuwnv/0fr5z8inm.sdf

>  <i_m_source_file_index>  (82) 
43

>  <i_lp_mmshare_version>  (82) 
48012

>  <i_f3d_flags>  (82) 
0

>  <s_epik_input>  (82) 
W0NIMl0xW0NIMl1OKFtDSDNdKVtDSF0oQz0yW0NAXTEzNClbQ0gyXVtDQEhdKFtPSF0pW0NIMl1bQ0BIXTRPYzVjM2MoW0NIMl1bQ0hdMilbY0hdW2NIXWM1W09IXQ==

>  <s_epik_cmdline>  (82) 
J2VwaWtfcHl0aG9uJywgJy1waHQnLCAnMi4wJywgJy1waCcsICc3LjAnLCAnLXRuJywgJzgnLCAnLW1hJywgJzIwMCcsICctaW1hZScsICc8aW5maWxlLm1hZT4nLCAnLW9tYWUnLCAnPG91dGZpbGUubWFlPic=

>  <r_epik_Ionization_Penalty>  (82) 
1.86326

>  <r_epik_Ionization_Penalty_Charging>  (82) 
1.86326

>  <r_epik_Ionization_Penalty_Neutral>  (82) 
1.0971e-07

>  <r_epik_State_Penalty>  (82) 
2.21636

>  <r_epik_Charging_Adjusted_Penalty>  (82) 
4.07962

>  <i_epik_Tot_Q>  (82) 
0

>  <i_epik_Tot_abs_Q>  (82) 
2

>  <s_lp_Force_Field>  (82) 
OPLS3e

>  <r_lp_Energy>  (82) 
99.505

>  <b_lp_Chiralities_Consistent>  (82) 
1

>  <s_lp_Variant>  (82) 
24:0-6

>  <s_i_glide_gridfile>  (82) 
pfpi4k_grid

>  <i_i_glide_lignum>  (82) 
43

>  <i_i_glide_rotatable_bonds>  (82) 
1

>  <r_i_docking_score>  (82) 
-4.1569

>  <r_i_glide_ligand_efficiency>  (82) 
-0.18895

>  <r_i_glide_ligand_efficiency_sa>  (82) 
-0.529445

>  <r_i_glide_ligand_efficiency_ln>  (82) 
-1.0161

>  <r_i_glide_gscore>  (82) 
-4.1569

>  <r_i_glide_lipo>  (82) 
-0.287509

>  <r_i_glide_hbond>  (82) 
-0.36

>  <r_i_glide_metal>  (82) 
-0

>  <r_i_glide_rewards>  (82) 
-1.36797

>  <r_i_glide_evdw>  (82) 
-17.0953

>  <r_i_glide_ecoul>  (82) 
-7.96374

>  <r_i_glide_erotb>  (82) 
0

>  <r_i_glide_esite>  (82) 
-0.0920929

>  <r_i_glide_emodel>  (82) 
-34.7572

>  <r_i_glide_energy>  (82) 
-25.0591

>  <r_i_glide_einternal>  (82) 
0.370178

>  <r_i_glide_intrahb_reward>  (82) 
-0

>  <i_i_glide_confnum>  (82) 
1

>  <i_i_glide_posenum>  (82) 
8

>  <r_i_glide_eff_state_penalty>  (82) 
0

>  <ligand_id>  (82) 
24

>  <original_smiles>  (82) 
CN1CCC23C4=CCc5ccc(O)c(c52)OC3CC(O)CC41

>  <smiles>  (82) 
[H]OC1([H])C([H])([H])C2([H])Oc3c([O-])c([H])c([H])c4c3C23C(=C([H])C4([H])[H])C([H])(C1([H])[H])[N+]([H])(C([H])([H])[H])C([H])([H])C3([H])[H]

$$$$
24:5:2
     RDKit          3D

 43 47  0  0  1  0  0  0  0  0999 V2000
    4.7447   -2.3246    1.5462 C   0  0  0  0  0  0  0  0  0  0  0  0
    3.5657   -1.4759    1.8418 N   0  0  1  0  0  0  0  0  0  0  0  0
    2.2607   -2.2476    1.8578 C   0  0  0  0  0  0  0  0  0  0  0  0
    1.0365   -1.5585    2.6170 C   0  0  0  0  0  0  0  0  0  0  0  0
    1.3642   -0.4853    3.7195 C   0  0  1  0  0  0  0  0  0  0  0  0
    2.5005    0.2227    3.1250 C   0  0  0  0  0  0  0  0  0  0  0  0
    2.3773    1.3938    2.4780 C   0  0  0  0  0  0  0  0  0  0  0  0
    1.0254    2.0891    2.3514 C   0  0  0  0  0  0  0  0  0  0  0  0
   -0.0271    1.6768    3.3664 C   0  0  0  0  0  0  0  0  0  0  0  0
   -1.0975    2.4549    3.8518 C   0  0  0  0  0  0  0  0  0  0  0  0
   -1.7823    2.0129    5.0071 C   0  0  0  0  0  0  0  0  0  0  0  0
   -1.3652    0.8613    5.7265 C   0  0  0  0  0  0  0  0  0  0  0  0
   -2.0116    0.5478    6.8765 O   0  0  0  0  0  0  0  0  0  0  0  0
   -0.2641    0.0961    5.2583 C   0  0  0  0  0  0  0  0  0  0  0  0
    0.2665    0.4794    4.0486 C   0  0  0  0  0  0  0  0  0  0  0  0
    0.4423   -0.9041    5.8751 O   0  0  0  0  0  0  0  0  0  0  0  0
    1.6856   -1.0409    5.1602 C   0  0  2  0  0  0  0  0  0  0  0  0
    2.8561   -0.2444    5.8804 C   0  0  0  0  0  0  0  0  0  0  0  0
    4.3707   -0.4712    5.4608 C   0  0  1  0  0  0  0  0  0  0  0  0
    4.7690   -1.7598    5.8823 O   0  0  0  0  0  0  0  0  0  0  0  0
    4.8142   -0.2884    3.9588 C   0  0  0  0  0  0  0  0  0  0  0  0
    3.6393   -0.7283    3.1090 C   0  0  2  0  0  0  0  0  0  0  0  0
    4.9056   -3.0787    2.3206 H   0  0  0  0  0  0  0  0  0  0  0  0
    5.6541   -1.7263    1.4673 H   0  0  0  0  0  0  0  0  0  0  0  0
    4.6205   -2.8502    0.5975 H   0  0  0  0  0  0  0  0  0  0  0  0
    1.9895   -2.5106    0.8348 H   0  0  0  0  0  0  0  0  0  0  0  0
    2.4471   -3.2016    2.3496 H   0  0  0  0  0  0  0  0  0  0  0  0
    0.4931   -1.0345    1.8343 H   0  0  0  0  0  0  0  0  0  0  0  0
    0.3555   -2.3207    3.0011 H   0  0  0  0  0  0  0  0  0  0  0  0
    3.2106    1.8144    1.9368 H   0  0  0  0  0  0  0  0  0  0  0  0
    1.2046    3.1524    2.4897 H   0  0  0  0  0  0  0  0  0  0  0  0
    0.6258    1.9675    1.3462 H   0  0  0  0  0  0  0  0  0  0  0  0
   -1.3608    3.4012    3.3933 H   0  0  0  0  0  0  0  0  0  0  0  0
   -2.6015    2.5851    5.4121 H   0  0  0  0  0  0  0  0  0  0  0  0
    1.9223   -2.1070    5.1507 H   0  0  0  0  0  0  0  0  0  0  0  0
    2.6372    0.8245    5.8357 H   0  0  0  0  0  0  0  0  0  0  0  0
    2.7896   -0.4743    6.9412 H   0  0  0  0  0  0  0  0  0  0  0  0
    4.9768    0.2093    6.0543 H   0  0  0  0  0  0  0  0  0  0  0  0
    4.2468   -2.4137    5.4449 H   0  0  0  0  0  0  0  0  0  0  0  0
    5.0404    0.7571    3.7499 H   0  0  0  0  0  0  0  0  0  0  0  0
    5.7233   -0.8512    3.7531 H   0  0  0  0  0  0  0  0  0  0  0  0
    3.4456   -1.6232    3.6932 H   0  0  0  0  0  0  0  0  0  0  0  0
    3.4973   -0.7978    1.0981 H   0  0  0  0  0  0  0  0  0  0  0  0
  1  2  1  0
  1 23  1  0
  1 24  1  0
  1 25  1  0
  2 22  1  0
  2  3  1  0
  2 43  1  6
  3  4  1  0
  3 26  1  0
  3 27  1  0
  5  4  1  6
  4 28  1  0
  4 29  1  0
  5 15  1  0
  5 17  1  0
  5  6  1  0
  6 22  1  0
  6  7  2  0
  7  8  1  0
  7 30  1  0
  8  9  1  0
  8 31  1  0
  8 32  1  0
  9 15  2  0
  9 10  1  0
 10 11  2  0
 10 33  1  0
 11 12  1  0
 11 34  1  0
 12 13  1  0
 12 14  2  0
 14 15  1  0
 14 16  1  0
 16 17  1  0
 17 18  1  0
 17 35  1  6
 18 19  1  0
 18 36  1  0
 18 37  1  0
 19 20  1  0
 19 21  1  0
 19 38  1  1
 20 39  1  0
 21 22  1  0
 21 40  1  0
 21 41  1  0
 22 42  1  1
M  CHG  2   2   1  13  -1
M  END
>  <i_m_ct_stereo_status>  (83) 
1

>  <s_m_source_file>  (83) 
/var/tmp/pbs.5076255.sched01/tmphbojuwnv/0fr5z8inm.sdf

>  <i_m_source_file_index>  (83) 
43

>  <i_lp_mmshare_version>  (83) 
48012

>  <i_f3d_flags>  (83) 
0

>  <s_epik_input>  (83) 
W0NIMl0xW0NIMl1OKFtDSDNdKVtDSF0oQz0yW0NAXTEzNClbQ0gyXVtDQEhdKFtPSF0pW0NIMl1bQ0BIXTRPYzVjM2MoW0NIMl1bQ0hdMilbY0hdW2NIXWM1W09IXQ==

>  <s_epik_cmdline>  (83) 
J2VwaWtfcHl0aG9uJywgJy1waHQnLCAnMi4wJywgJy1waCcsICc3LjAnLCAnLXRuJywgJzgnLCAnLW1hJywgJzIwMCcsICctaW1hZScsICc8aW5maWxlLm1hZT4nLCAnLW9tYWUnLCAnPG91dGZpbGUubWFlPic=

>  <r_epik_Ionization_Penalty>  (83) 
1.86326

>  <r_epik_Ionization_Penalty_Charging>  (83) 
1.86326

>  <r_epik_Ionization_Penalty_Neutral>  (83) 
1.0971e-07

>  <r_epik_State_Penalty>  (83) 
2.21636

>  <r_epik_Charging_Adjusted_Penalty>  (83) 
4.07962

>  <i_epik_Tot_Q>  (83) 
0

>  <i_epik_Tot_abs_Q>  (83) 
2

>  <s_lp_Force_Field>  (83) 
OPLS3e

>  <r_lp_Energy>  (83) 
99.505

>  <b_lp_Chiralities_Consistent>  (83) 
1

>  <s_lp_Variant>  (83) 
24:0-6

>  <s_i_glide_gridfile>  (83) 
pfpi4k_grid

>  <i_i_glide_lignum>  (83) 
43

>  <i_i_glide_rotatable_bonds>  (83) 
1

>  <r_i_docking_score>  (83) 
-3.5556

>  <r_i_glide_ligand_efficiency>  (83) 
-0.161618

>  <r_i_glide_ligand_efficiency_sa>  (83) 
-0.45286

>  <r_i_glide_ligand_efficiency_ln>  (83) 
-0.869118

>  <r_i_glide_gscore>  (83) 
-3.5556

>  <r_i_glide_lipo>  (83) 
-0.158878

>  <r_i_glide_hbond>  (83) 
-0.2

>  <r_i_glide_metal>  (83) 
-0

>  <r_i_glide_rewards>  (83) 
-1.36797

>  <r_i_glide_evdw>  (83) 
-15.1933

>  <r_i_glide_ecoul>  (83) 
-7.04721

>  <r_i_glide_erotb>  (83) 
0

>  <r_i_glide_esite>  (83) 
-0.0120039

>  <r_i_glide_emodel>  (83) 
-30.6447

>  <r_i_glide_energy>  (83) 
-22.2405

>  <r_i_glide_einternal>  (83) 
0.000609772

>  <r_i_glide_intrahb_reward>  (83) 
-0

>  <i_i_glide_confnum>  (83) 
1

>  <i_i_glide_posenum>  (83) 
4

>  <r_i_glide_eff_state_penalty>  (83) 
0

>  <ligand_id>  (83) 
24

>  <original_smiles>  (83) 
CN1CCC23C4=CCc5ccc(O)c(c52)OC3CC(O)CC41

>  <smiles>  (83) 
[H]OC1([H])C([H])([H])C2([H])Oc3c([O-])c([H])c([H])c4c3C23C(=C([H])C4([H])[H])C([H])(C1([H])[H])[N+]([H])(C([H])([H])[H])C([H])([H])C3([H])[H]

$$$$
25:0:0
     RDKit          3D

 56 60  0  0  1  0  0  0  0  0999 V2000
   -0.2011    0.6990    8.9363 C   0  0  0  0  0  0  0  0  0  0  0  0
   -0.1059    0.9036    7.5359 O   0  0  0  0  0  0  0  0  0  0  0  0
    1.0598    1.6322    7.1690 C   0  0  2  0  0  0  0  0  0  0  0  0
    0.8319    2.4656    5.8606 C   0  0  1  0  0  0  0  0  0  0  0  0
   -0.2031    3.6250    5.9303 C   0  0  2  0  0  0  0  0  0  0  0  0
   -1.5168    3.3019    6.6781 C   0  0  0  0  0  0  0  0  0  0  0  0
   -2.3598    2.3358    5.8865 C   0  0  0  0  0  0  0  0  0  0  0  0
   -2.6530    2.9261    4.5118 C   0  0  0  0  0  0  0  0  0  0  0  0
   -3.7949    2.9585    4.0836 O   0  0  0  0  0  0  0  0  0  0  0  0
   -1.5458    3.4530    3.6123 C   0  0  0  0  0  0  0  0  0  0  0  0
   -1.0985    2.2048    2.8131 C   0  0  0  0  0  0  0  0  0  0  0  0
   -2.2488    4.4613    2.6630 C   0  0  0  0  0  0  0  0  0  0  0  0
   -0.4964    4.1899    4.5007 C   0  0  2  0  0  0  0  0  0  0  0  0
    0.7903    4.5573    3.7738 C   0  0  0  0  0  0  0  0  0  0  0  0
    1.8672    3.4572    3.7906 C   0  0  1  0  0  0  0  0  0  0  0  0
    3.0126    4.0368    3.1861 O   0  0  0  0  0  0  0  0  0  0  0  0
    2.1799    2.9690    5.2156 C   0  0  1  0  0  0  0  0  0  0  0  0
    2.7864    4.1401    6.0442 C   0  0  0  0  0  0  0  0  0  0  0  0
    3.2306    1.8290    5.2411 C   0  0  0  0  0  0  0  0  0  0  0  0
    3.4359    1.3427    6.4654 C   0  0  0  0  0  0  0  0  0  0  0  0
    2.1664    0.6735    6.8365 C   0  0  1  0  0  0  0  0  0  0  0  0
    2.2603   -0.6943    7.1734 O   0  0  0  0  0  0  0  0  0  0  0  0
    1.7343   -0.4193    5.8682 C   0  0  2  0  0  0  0  0  0  0  0  0
    2.5471   -0.4055    4.6173 C   0  0  0  0  0  0  0  0  0  0  0  0
    3.2031    0.7097    4.2725 C   0  0  0  0  0  0  0  0  0  0  0  0
    4.0743    0.7282    3.0666 C   0  0  0  0  0  0  0  0  0  0  0  0
   -1.1166    0.1564    9.1571 H   0  0  0  0  0  0  0  0  0  0  0  0
   -0.2510    1.6456    9.4752 H   0  0  0  0  0  0  0  0  0  0  0  0
    0.6330    0.1063    9.3076 H   0  0  0  0  0  0  0  0  0  0  0  0
    1.3867    2.2866    7.9870 H   0  0  0  0  0  0  0  0  0  0  0  0
    0.4103    1.7462    5.1730 H   0  0  0  0  0  0  0  0  0  0  0  0
    0.2404    4.4449    6.5197 H   0  0  0  0  0  0  0  0  0  0  0  0
   -1.3445    2.9494    7.6918 H   0  0  0  0  0  0  0  0  0  0  0  0
   -2.0915    4.2205    6.7924 H   0  0  0  0  0  0  0  0  0  0  0  0
   -1.8911    1.3709    5.7387 H   0  0  0  0  0  0  0  0  0  0  0  0
   -3.2840    2.1877    6.4321 H   0  0  0  0  0  0  0  0  0  0  0  0
   -0.3545    2.4552    2.0603 H   0  0  0  0  0  0  0  0  0  0  0  0
   -1.9600    1.7799    2.2764 H   0  0  0  0  0  0  0  0  0  0  0  0
   -0.7439    1.4013    3.4590 H   0  0  0  0  0  0  0  0  0  0  0  0
   -1.5557    4.9458    2.0019 H   0  0  0  0  0  0  0  0  0  0  0  0
   -2.7706    5.2599    3.1724 H   0  0  0  0  0  0  0  0  0  0  0  0
   -3.0335    3.9618    2.0827 H   0  0  0  0  0  0  0  0  0  0  0  0
   -0.9843    5.1415    4.6858 H   0  0  0  0  0  0  0  0  0  0  0  0
    0.5720    4.8311    2.7599 H   0  0  0  0  0  0  0  0  0  0  0  0
    1.1767    5.4881    4.2024 H   0  0  0  0  0  0  0  0  0  0  0  0
    1.5540    2.6091    3.1687 H   0  0  0  0  0  0  0  0  0  0  0  0
    2.7776    4.1885    2.2771 H   0  0  0  0  0  0  0  0  0  0  0  0
    2.2182    5.0646    5.9833 H   0  0  0  0  0  0  0  0  0  0  0  0
    3.7849    4.3730    5.6820 H   0  0  0  0  0  0  0  0  0  0  0  0
    2.8780    3.8981    7.1054 H   0  0  0  0  0  0  0  0  0  0  0  0
    4.1754    0.5595    6.5823 H   0  0  0  0  0  0  0  0  0  0  0  0
    0.6918   -0.6459    5.6967 H   0  0  0  0  0  0  0  0  0  0  0  0
    2.5500   -1.2906    3.9881 H   0  0  0  0  0  0  0  0  0  0  0  0
    5.0071    1.1348    3.4721 H   0  0  0  0  0  0  0  0  0  0  0  0
    3.5981    1.3484    2.3116 H   0  0  0  0  0  0  0  0  0  0  0  0
    4.2756   -0.2563    2.6507 H   0  0  0  0  0  0  0  0  0  0  0  0
  1  2  1  0
  1 27  1  0
  1 28  1  0
  1 29  1  0
  2  3  1  0
  3 21  1  0
  3  4  1  0
  3 30  1  1
  4 17  1  0
  4  5  1  0
  4 31  1  6
  5 13  1  0
  5  6  1  0
  5 32  1  1
  6  7  1  0
  6 33  1  0
  6 34  1  0
  7  8  1  0
  7 35  1  0
  7 36  1  0
  8  9  2  0
  8 10  1  0
 10 11  1  0
 10 12  1  0
 10 13  1  0
 11 37  1  0
 11 38  1  0
 11 39  1  0
 12 40  1  0
 12 41  1  0
 12 42  1  0
 13 14  1  0
 13 43  1  1
 14 15  1  0
 14 44  1  0
 14 45  1  0
 15 16  1  0
 15 17  1  0
 15 46  1  6
 16 47  1  0
 17 18  1  1
 17 19  1  0
 18 48  1  0
 18 49  1  0
 18 50  1  0
 19 25  1  0
 19 20  2  0
 20 21  1  0
 20 51  1  0
 21 23  1  0
 21 22  1  1
 22 23  1  0
 23 24  1  0
 23 52  1  6
 24 25  2  0
 24 53  1  0
 25 26  1  0
 26 54  1  0
 26 55  1  0
 26 56  1  0
M  END
>  <i_m_ct_stereo_status>  (84) 
1

>  <s_m_source_file>  (84) 
/var/tmp/pbs.5076255.sched01/tmpqllwm4fg/43asec3i7m.sdf

>  <i_m_source_file_index>  (84) 
1

>  <i_lp_mmshare_version>  (84) 
48012

>  <i_f3d_flags>  (84) 
1

>  <s_epik_input>  (84) 
W0NAQF0xMjNbQ0BIXShPMylbQ0hdPUMoW0NIM10pQyg9W0NIXTIpW0NAXTQoW0NIM10pW0NAQEhdKFtDQEhdMU9bQ0gzXSlbQ0BIXTVbQ0BASF0oW0NIMl1bQ0BIXTRbT0hdKUMoW0NIM10pKFtDSDNdKUMoPU8pW0NIMl1bQ0gyXTU=

>  <s_epik_cmdline>  (84) 
J2VwaWtfcHl0aG9uJywgJy1waHQnLCAnMi4wJywgJy1waCcsICc3LjAnLCAnLXRuJywgJzgnLCAnLW1hJywgJzIwMCcsICctaW1hZScsICc8aW5maWxlLm1hZT4nLCAnLW9tYWUnLCAnPG91dGZpbGUubWFlPic=

>  <r_lp_tautomer_probability>  (84) 
1

>  <r_epik_Ionization_Penalty>  (84) 
7.86879e-08

>  <r_epik_Ionization_Penalty_Charging>  (84) 
0

>  <r_epik_Ionization_Penalty_Neutral>  (84) 
7.86879e-08

>  <r_epik_State_Penalty>  (84) 
-0

>  <r_epik_Charging_Adjusted_Penalty>  (84) 
0

>  <i_epik_Tot_Q>  (84) 
0

>  <i_epik_Tot_abs_Q>  (84) 
0

>  <s_lp_Force_Field>  (84) 
OPLS3e

>  <r_lp_Energy>  (84) 
107.465

>  <b_lp_Chiralities_Consistent>  (84) 
1

>  <s_lp_Variant>  (84) 
25:0-1

>  <s_i_glide_gridfile>  (84) 
pfpi4k_grid

>  <i_i_glide_lignum>  (84) 
1

>  <i_i_glide_rotatable_bonds>  (84) 
2

>  <r_i_docking_score>  (84) 
-1.3938

>  <r_i_glide_ligand_efficiency>  (84) 
-0.0536077

>  <r_i_glide_ligand_efficiency_sa>  (84) 
-0.158812

>  <r_i_glide_ligand_efficiency_ln>  (84) 
-0.327329

>  <r_i_glide_gscore>  (84) 
-1.3938

>  <r_i_glide_lipo>  (84) 
-0.0835133

>  <r_i_glide_hbond>  (84) 
0

>  <r_i_glide_metal>  (84) 
-0

>  <r_i_glide_rewards>  (84) 
-0.964969

>  <r_i_glide_evdw>  (84) 
-5.58062

>  <r_i_glide_ecoul>  (84) 
-0.237567

>  <r_i_glide_erotb>  (84) 
0

>  <r_i_glide_esite>  (84) 
-0.0306507

>  <r_i_glide_emodel>  (84) 
-6.19111

>  <r_i_glide_energy>  (84) 
-5.81819

>  <r_i_glide_einternal>  (84) 
0.659568

>  <r_i_glide_intrahb_reward>  (84) 
-0

>  <i_i_glide_confnum>  (84) 
1

>  <i_i_glide_posenum>  (84) 
20

>  <r_i_glide_eff_state_penalty>  (84) 
0

>  <ligand_id>  (84) 
25

>  <original_smiles>  (84) 
COC1C2C3CCC(=O)C(C)(C)C3CC(O)C2(C)C2=CC13OC3C=C2C

>  <smiles>  (84) 
[H]OC1([H])C([H])([H])C2([H])C([H])(C([H])([H])C([H])([H])C(=O)C2(C([H])([H])[H])C([H])([H])[H])C2([H])C([H])(OC([H])([H])[H])C34OC3([H])C([H])=C(C([H])([H])[H])C(=C4[H])C12C([H])([H])[H]

$$$$
27:0:0
     RDKit          3D

 32 34  0  0  1  0  0  0  0  0999 V2000
    5.6602   -0.5070    0.2926 C   0  0  0  0  0  0  0  0  0  0  0  0
    4.8766   -1.8045    0.4604 C   0  0  2  0  0  0  0  0  0  0  0  0
    3.5763   -1.7974   -0.3773 C   0  0  0  0  0  0  0  0  0  0  0  0
    2.7785   -3.0627   -0.0664 C   0  0  0  0  0  0  0  0  0  0  0  0
    3.2412   -3.9152    0.8691 C   0  0  0  0  0  0  0  0  0  0  0  0
    2.5834   -5.1978    1.1947 C   0  0  0  0  0  0  0  0  0  0  0  0
    2.7720   -5.9285    2.3980 C   0  0  0  0  0  0  0  0  0  0  0  0
    1.8976   -6.9770    2.2860 C   0  0  0  0  0  0  0  0  0  0  0  0
    1.6210   -7.9862    3.1247 O   0  0  0  0  0  0  0  0  0  0  0  0
    1.1532   -6.9449    1.1382 O   0  0  0  0  0  0  0  0  0  0  0  0
    1.6250   -5.8481    0.4818 C   0  0  0  0  0  0  0  0  0  0  0  0
    1.0201   -5.5414   -0.7058 O   0  0  0  0  0  0  0  0  0  0  0  0
    4.5504   -3.4631    1.5273 C   0  0  2  0  0  0  0  0  0  0  0  0
    4.4590   -2.0424    1.8275 O   0  0  0  0  0  0  0  0  0  0  0  0
    5.6631   -3.1285    0.5083 C   0  0  0  0  0  0  0  0  0  0  0  0
    5.7964   -3.9396   -0.7854 C   0  0  0  0  0  0  0  0  0  0  0  0
    7.0590   -3.0291    1.1213 C   0  0  0  0  0  0  0  0  0  0  0  0
    6.0167   -0.4571   -0.7315 H   0  0  0  0  0  0  0  0  0  0  0  0
    6.5429   -0.4414    0.9352 H   0  0  0  0  0  0  0  0  0  0  0  0
    5.0484    0.3725    0.4944 H   0  0  0  0  0  0  0  0  0  0  0  0
    2.9924   -0.8980   -0.1589 H   0  0  0  0  0  0  0  0  0  0  0  0
    3.8278   -1.8104   -1.4380 H   0  0  0  0  0  0  0  0  0  0  0  0
    1.8707   -3.2070   -0.6463 H   0  0  0  0  0  0  0  0  0  0  0  0
    3.4101   -5.7232    3.2382 H   0  0  0  0  0  0  0  0  0  0  0  0
    1.7200   -5.3326   -1.3153 H   0  0  0  0  0  0  0  0  0  0  0  0
    4.8817   -4.0642    2.3752 H   0  0  0  0  0  0  0  0  0  0  0  0
    6.1675   -4.9465   -0.5878 H   0  0  0  0  0  0  0  0  0  0  0  0
    6.4624   -3.4412   -1.4913 H   0  0  0  0  0  0  0  0  0  0  0  0
    4.8487   -4.0648   -1.3084 H   0  0  0  0  0  0  0  0  0  0  0  0
    7.5030   -3.9907    1.3882 H   0  0  0  0  0  0  0  0  0  0  0  0
    7.0061   -2.4413    2.0331 H   0  0  0  0  0  0  0  0  0  0  0  0
    7.7489   -2.5066    0.4606 H   0  0  0  0  0  0  0  0  0  0  0  0
  2  1  1  1
  1 18  1  0
  1 19  1  0
  1 20  1  0
  2 14  1  0
  2 15  1  0
  2  3  1  0
  3  4  1  0
  3 21  1  0
  3 22  1  0
  4  5  2  0
  4 23  1  0
  5  6  1  0
  5 13  1  0
  6 11  2  0
  6  7  1  0
  7  8  2  0
  7 24  1  0
  8  9  1  0
  8 10  1  0
 10 11  1  0
 11 12  1  0
 12 25  1  0
 13 14  1  0
 13 15  1  0
 13 26  1  1
 15 16  1  0
 15 17  1  0
 16 27  1  0
 16 28  1  0
 16 29  1  0
 17 30  1  0
 17 31  1  0
 17 32  1  0
M  CHG  1   9  -1
M  END
>  <i_m_ct_stereo_status>  (85) 
1

>  <s_m_source_file>  (85) 
/var/tmp/pbs.5076255.sched01/tmpqllwm4fg/43asec3i7m.sdf

>  <i_m_source_file_index>  (85) 
3

>  <i_lp_mmshare_version>  (85) 
48012

>  <i_f3d_flags>  (85) 
0

>  <s_epik_input>  (85) 
W0NIM11bQ0BdMTJbQ0gyXVtDSF09QyhbQ0BIXShPMSlDMihbQ0gzXSlbQ0gzXSljM1tjSF1jKFtPSF0pb2MzW09IXQ==

>  <s_epik_cmdline>  (85) 
J2VwaWtfcHl0aG9uJywgJy1waHQnLCAnMi4wJywgJy1waCcsICc3LjAnLCAnLXRuJywgJzgnLCAnLW1hJywgJzIwMCcsICctaW1hZScsICc8aW5maWxlLm1hZT4nLCAnLW9tYWUnLCAnPG91dGZpbGUubWFlPic=

>  <r_epik_Ionization_Penalty>  (85) 
0.31472

>  <r_epik_Ionization_Penalty_Charging>  (85) 
0.302749

>  <r_epik_Ionization_Penalty_Neutral>  (85) 
0.0119714

>  <r_epik_State_Penalty>  (85) 
0.492932

>  <r_epik_Charging_Adjusted_Penalty>  (85) 
0.795681

>  <i_epik_Tot_Q>  (85) 
-1

>  <i_epik_Tot_abs_Q>  (85) 
1

>  <s_lp_Force_Field>  (85) 
OPLS3e

>  <r_lp_Energy>  (85) 
22.9359

>  <b_lp_Chiralities_Consistent>  (85) 
1

>  <s_lp_Variant>  (85) 
27:0-1

>  <s_i_glide_gridfile>  (85) 
pfpi4k_grid

>  <i_i_glide_lignum>  (85) 
3

>  <i_i_glide_rotatable_bonds>  (85) 
2

>  <r_i_docking_score>  (85) 
-3.36745

>  <r_i_glide_ligand_efficiency>  (85) 
-0.198085

>  <r_i_glide_ligand_efficiency_sa>  (85) 
-0.509334

>  <r_i_glide_ligand_efficiency_ln>  (85) 
-0.878494

>  <r_i_glide_gscore>  (85) 
-3.36745

>  <r_i_glide_lipo>  (85) 
-0.311238

>  <r_i_glide_hbond>  (85) 
0

>  <r_i_glide_metal>  (85) 
-0

>  <r_i_glide_rewards>  (85) 
-1.80507

>  <r_i_glide_evdw>  (85) 
-10.0347

>  <r_i_glide_ecoul>  (85) 
-7.06693

>  <r_i_glide_erotb>  (85) 
0.310634

>  <r_i_glide_esite>  (85) 
0

>  <r_i_glide_emodel>  (85) 
-19.5872

>  <r_i_glide_energy>  (85) 
-17.1017

>  <r_i_glide_einternal>  (85) 
1.21935

>  <r_i_glide_intrahb_reward>  (85) 
-0

>  <i_i_glide_confnum>  (85) 
3

>  <i_i_glide_posenum>  (85) 
32

>  <r_i_glide_eff_state_penalty>  (85) 
0

>  <ligand_id>  (85) 
27

>  <original_smiles>  (85) 
CC12CC=C(c3cc(O)oc3O)C(O1)C2(C)C

>  <smiles>  (85) 
[H]Oc1oc([O-])c([H])c1C1=C([H])C([H])([H])C2(C([H])([H])[H])OC1([H])C2(C([H])([H])[H])C([H])([H])[H]

$$$$
27:0:1
     RDKit          3D

 32 34  0  0  1  0  0  0  0  0999 V2000
    4.5504   -0.9775   -2.5040 C   0  0  0  0  0  0  0  0  0  0  0  0
    4.1051   -2.0203   -1.4792 C   0  0  2  0  0  0  0  0  0  0  0  0
    2.8814   -2.8215   -1.9665 C   0  0  0  0  0  0  0  0  0  0  0  0
    2.3970   -3.7436   -0.8497 C   0  0  0  0  0  0  0  0  0  0  0  0
    3.0063   -3.6960    0.3398 C   0  0  0  0  0  0  0  0  0  0  0  0
    2.6504   -4.6022    1.4631 C   0  0  0  0  0  0  0  0  0  0  0  0
    3.1055   -4.4599    2.7979 C   0  0  0  0  0  0  0  0  0  0  0  0
    2.4790   -5.4757    3.4809 C   0  0  0  0  0  0  0  0  0  0  0  0
    2.5104   -5.8090    4.7824 O   0  0  0  0  0  0  0  0  0  0  0  0
    1.6747   -6.2346    2.6879 O   0  0  0  0  0  0  0  0  0  0  0  0
    1.8146   -5.6792    1.4669 C   0  0  0  0  0  0  0  0  0  0  0  0
    1.0477   -6.2615    0.5266 O   0  0  0  0  0  0  0  0  0  0  0  0
    4.1390   -2.6566    0.4255 C   0  0  2  0  0  0  0  0  0  0  0  0
    3.6939   -1.4264   -0.2221 O   0  0  0  0  0  0  0  0  0  0  0  0
    5.1970   -2.7948   -0.6998 C   0  0  0  0  0  0  0  0  0  0  0  0
    5.5930   -4.1858   -1.2182 C   0  0  0  0  0  0  0  0  0  0  0  0
    6.5020   -2.0343   -0.4398 C   0  0  0  0  0  0  0  0  0  0  0  0
    4.9549   -1.5057   -3.3707 H   0  0  0  0  0  0  0  0  0  0  0  0
    5.3388   -0.3084   -2.1489 H   0  0  0  0  0  0  0  0  0  0  0  0
    3.7231   -0.3470   -2.8359 H   0  0  0  0  0  0  0  0  0  0  0  0
    2.0713   -2.1663   -2.3007 H   0  0  0  0  0  0  0  0  0  0  0  0
    3.1840   -3.4530   -2.8035 H   0  0  0  0  0  0  0  0  0  0  0  0
    1.5983   -4.4256   -1.1202 H   0  0  0  0  0  0  0  0  0  0  0  0
    3.7604   -3.7399    3.2360 H   0  0  0  0  0  0  0  0  0  0  0  0
    0.8777   -7.1433    0.8262 H   0  0  0  0  0  0  0  0  0  0  0  0
    4.5690   -2.4785    1.4089 H   0  0  0  0  0  0  0  0  0  0  0  0
    6.2055   -4.7410   -0.4979 H   0  0  0  0  0  0  0  0  0  0  0  0
    6.1297   -4.0864   -2.1651 H   0  0  0  0  0  0  0  0  0  0  0  0
    4.7364   -4.8149   -1.4370 H   0  0  0  0  0  0  0  0  0  0  0  0
    7.1640   -2.4927    0.3038 H   0  0  0  0  0  0  0  0  0  0  0  0
    6.2945   -1.0259   -0.0832 H   0  0  0  0  0  0  0  0  0  0  0  0
    7.0706   -1.9276   -1.3606 H   0  0  0  0  0  0  0  0  0  0  0  0
  2  1  1  6
  1 18  1  0
  1 19  1  0
  1 20  1  0
  2 14  1  0
  2 15  1  0
  2  3  1  0
  3  4  1  0
  3 21  1  0
  3 22  1  0
  4  5  2  0
  4 23  1  0
  5  6  1  0
  5 13  1  0
  6 11  2  0
  6  7  1  0
  7  8  2  0
  7 24  1  0
  8  9  1  0
  8 10  1  0
 10 11  1  0
 11 12  1  0
 12 25  1  0
 13 14  1  0
 13 15  1  0
 13 26  1  1
 15 16  1  0
 15 17  1  0
 16 27  1  0
 16 28  1  0
 16 29  1  0
 17 30  1  0
 17 31  1  0
 17 32  1  0
M  CHG  1   9  -1
M  END
>  <i_m_ct_stereo_status>  (86) 
1

>  <s_m_source_file>  (86) 
/var/tmp/pbs.5076255.sched01/tmpqllwm4fg/43asec3i7m.sdf

>  <i_m_source_file_index>  (86) 
3

>  <i_lp_mmshare_version>  (86) 
48012

>  <i_f3d_flags>  (86) 
0

>  <s_epik_input>  (86) 
W0NIM11bQ0BdMTJbQ0gyXVtDSF09QyhbQ0BIXShPMSlDMihbQ0gzXSlbQ0gzXSljM1tjSF1jKFtPSF0pb2MzW09IXQ==

>  <s_epik_cmdline>  (86) 
J2VwaWtfcHl0aG9uJywgJy1waHQnLCAnMi4wJywgJy1waCcsICc3LjAnLCAnLXRuJywgJzgnLCAnLW1hJywgJzIwMCcsICctaW1hZScsICc8aW5maWxlLm1hZT4nLCAnLW9tYWUnLCAnPG91dGZpbGUubWFlPic=

>  <r_epik_Ionization_Penalty>  (86) 
0.31472

>  <r_epik_Ionization_Penalty_Charging>  (86) 
0.302749

>  <r_epik_Ionization_Penalty_Neutral>  (86) 
0.0119714

>  <r_epik_State_Penalty>  (86) 
0.492932

>  <r_epik_Charging_Adjusted_Penalty>  (86) 
0.795681

>  <i_epik_Tot_Q>  (86) 
-1

>  <i_epik_Tot_abs_Q>  (86) 
1

>  <s_lp_Force_Field>  (86) 
OPLS3e

>  <r_lp_Energy>  (86) 
22.9359

>  <b_lp_Chiralities_Consistent>  (86) 
1

>  <s_lp_Variant>  (86) 
27:0-1

>  <s_i_glide_gridfile>  (86) 
pfpi4k_grid

>  <i_i_glide_lignum>  (86) 
3

>  <i_i_glide_rotatable_bonds>  (86) 
2

>  <r_i_docking_score>  (86) 
-2.34833

>  <r_i_glide_ligand_efficiency>  (86) 
-0.138137

>  <r_i_glide_ligand_efficiency_sa>  (86) 
-0.355189

>  <r_i_glide_ligand_efficiency_ln>  (86) 
-0.612626

>  <r_i_glide_gscore>  (86) 
-2.34833

>  <r_i_glide_lipo>  (86) 
-0.000373525

>  <r_i_glide_hbond>  (86) 
0

>  <r_i_glide_metal>  (86) 
-0

>  <r_i_glide_rewards>  (86) 
-1.80507

>  <r_i_glide_evdw>  (86) 
-15.6376

>  <r_i_glide_ecoul>  (86) 
-0.477571

>  <r_i_glide_erotb>  (86) 
0.310634

>  <r_i_glide_esite>  (86) 
0

>  <r_i_glide_emodel>  (86) 
-18.2429

>  <r_i_glide_energy>  (86) 
-16.1151

>  <r_i_glide_einternal>  (86) 
0.387927

>  <r_i_glide_intrahb_reward>  (86) 
-0

>  <i_i_glide_confnum>  (86) 
3

>  <i_i_glide_posenum>  (86) 
34

>  <r_i_glide_eff_state_penalty>  (86) 
0

>  <ligand_id>  (86) 
27

>  <original_smiles>  (86) 
CC12CC=C(c3cc(O)oc3O)C(O1)C2(C)C

>  <smiles>  (86) 
[H]Oc1oc([O-])c([H])c1C1=C([H])C([H])([H])C2(C([H])([H])[H])OC1([H])C2(C([H])([H])[H])C([H])([H])[H]

$$$$
27:1:0
     RDKit          3D

 33 35  0  0  1  0  0  0  0  0999 V2000
   -7.7156  -12.6347   -9.5737 C   0  0  0  0  0  0  0  0  0  0  0  0
   -7.3539  -11.4510   -8.6701 C   0  0  2  0  0  0  0  0  0  0  0  0
   -7.8097  -10.0969   -9.2774 C   0  0  0  0  0  0  0  0  0  0  0  0
   -7.3160   -8.9548   -8.3844 C   0  0  0  0  0  0  0  0  0  0  0  0
   -6.5505   -9.2568   -7.3106 C   0  0  0  0  0  0  0  0  0  0  0  0
   -6.0863   -8.2228   -6.3582 C   0  0  0  0  0  0  0  0  0  0  0  0
   -6.6112   -6.9035   -6.2065 C   0  0  0  0  0  0  0  0  0  0  0  0
   -5.8235   -6.3313   -5.2416 C   0  0  0  0  0  0  0  0  0  0  0  0
   -5.8203   -5.0799   -4.7211 O   0  0  0  0  0  0  0  0  0  0  0  0
   -4.8644   -7.1727   -4.7752 O   0  0  0  0  0  0  0  0  0  0  0  0
   -5.0446   -8.3150   -5.4816 C   0  0  0  0  0  0  0  0  0  0  0  0
   -4.1744   -9.3178   -5.1765 O   0  0  0  0  0  0  0  0  0  0  0  0
   -6.2732  -10.7604   -7.1280 C   0  0  2  0  0  0  0  0  0  0  0  0
   -5.9247  -11.3432   -8.4190 O   0  0  0  0  0  0  0  0  0  0  0  0
   -7.5572  -11.6274   -7.1484 C   0  0  0  0  0  0  0  0  0  0  0  0
   -8.8696  -11.1013   -6.5423 C   0  0  0  0  0  0  0  0  0  0  0  0
   -7.3452  -13.0481   -6.6143 C   0  0  0  0  0  0  0  0  0  0  0  0
   -8.7991  -12.7507   -9.6059 H   0  0  0  0  0  0  0  0  0  0  0  0
   -7.3108  -13.5853   -9.2076 H   0  0  0  0  0  0  0  0  0  0  0  0
   -7.3491  -12.5025  -10.5932 H   0  0  0  0  0  0  0  0  0  0  0  0
   -7.4203   -9.9686  -10.2888 H   0  0  0  0  0  0  0  0  0  0  0  0
   -8.8983  -10.0587   -9.3043 H   0  0  0  0  0  0  0  0  0  0  0  0
   -7.6110   -7.9416   -8.6347 H   0  0  0  0  0  0  0  0  0  0  0  0
   -7.4273   -6.4493   -6.7366 H   0  0  0  0  0  0  0  0  0  0  0  0
   -6.5699   -4.6285   -5.0709 H   0  0  0  0  0  0  0  0  0  0  0  0
   -3.6031   -9.0326   -4.4716 H   0  0  0  0  0  0  0  0  0  0  0  0
   -5.5801  -11.0303   -6.3225 H   0  0  0  0  0  0  0  0  0  0  0  0
   -8.8363  -11.0612   -5.4562 H   0  0  0  0  0  0  0  0  0  0  0  0
   -9.7172  -11.7277   -6.8285 H   0  0  0  0  0  0  0  0  0  0  0  0
   -9.1131  -10.0914   -6.8710 H   0  0  0  0  0  0  0  0  0  0  0  0
   -7.2462  -13.0977   -5.5315 H   0  0  0  0  0  0  0  0  0  0  0  0
   -6.4359  -13.4881   -7.0234 H   0  0  0  0  0  0  0  0  0  0  0  0
   -8.1593  -13.7097   -6.8999 H   0  0  0  0  0  0  0  0  0  0  0  0
  2  1  1  6
  1 18  1  0
  1 19  1  0
  1 20  1  0
  2 14  1  0
  2 15  1  0
  2  3  1  0
  3  4  1  0
  3 21  1  0
  3 22  1  0
  4  5  2  0
  4 23  1  0
  5  6  1  0
  5 13  1  0
  6 11  2  0
  6  7  1  0
  7  8  2  0
  7 24  1  0
  8  9  1  0
  8 10  1  0
  9 25  1  0
 10 11  1  0
 11 12  1  0
 12 26  1  0
 13 14  1  0
 13 15  1  0
 13 27  1  1
 15 16  1  0
 15 17  1  0
 16 28  1  0
 16 29  1  0
 16 30  1  0
 17 31  1  0
 17 32  1  0
 17 33  1  0
M  END
>  <i_m_ct_stereo_status>  (87) 
1

>  <s_m_source_file>  (87) 
/var/tmp/pbs.5076255.sched01/tmpqllwm4fg/43asec3i7m.sdf

>  <i_m_source_file_index>  (87) 
4

>  <i_lp_mmshare_version>  (87) 
48012

>  <i_f3d_flags>  (87) 
0

>  <s_epik_input>  (87) 
W0NIM11bQ0BdMTJbQ0gyXVtDSF09QyhbQ0BIXShPMSlDMihbQ0gzXSlbQ0gzXSljM1tjSF1jKFtPSF0pb2MzW09IXQ==

>  <s_epik_cmdline>  (87) 
J2VwaWtfcHl0aG9uJywgJy1waHQnLCAnMi4wJywgJy1waCcsICc3LjAnLCAnLXRuJywgJzgnLCAnLW1hJywgJzIwMCcsICctaW1hZScsICc8aW5maWxlLm1hZT4nLCAnLW9tYWUnLCAnPG91dGZpbGUubWFlPic=

>  <r_epik_Ionization_Penalty>  (87) 
0.946558

>  <r_epik_Ionization_Penalty_Charging>  (87) 
0

>  <r_epik_Ionization_Penalty_Neutral>  (87) 
0.946558

>  <r_epik_State_Penalty>  (87) 
0.749035

>  <r_epik_Charging_Adjusted_Penalty>  (87) 
0.749035

>  <i_epik_Tot_Q>  (87) 
0

>  <i_epik_Tot_abs_Q>  (87) 
0

>  <s_lp_Force_Field>  (87) 
OPLS3e

>  <r_lp_Energy>  (87) 
17.0623

>  <b_lp_Chiralities_Consistent>  (87) 
1

>  <s_lp_Variant>  (87) 
27:0-2

>  <s_i_glide_gridfile>  (87) 
pfpi4k_grid

>  <i_i_glide_lignum>  (87) 
4

>  <i_i_glide_rotatable_bonds>  (87) 
3

>  <r_i_docking_score>  (87) 
-5.79229

>  <r_i_glide_ligand_efficiency>  (87) 
-0.340723

>  <r_i_glide_ligand_efficiency_sa>  (87) 
-0.876094

>  <r_i_glide_ligand_efficiency_ln>  (87) 
-1.51108

>  <r_i_glide_gscore>  (87) 
-5.79229

>  <r_i_glide_lipo>  (87) 
-2.03509

>  <r_i_glide_hbond>  (87) 
-0.128347

>  <r_i_glide_metal>  (87) 
-0

>  <r_i_glide_rewards>  (87) 
-2.27501

>  <r_i_glide_evdw>  (87) 
-24.007

>  <r_i_glide_ecoul>  (87) 
-3.07919

>  <r_i_glide_erotb>  (87) 
0.308382

>  <r_i_glide_esite>  (87) 
0

>  <r_i_glide_emodel>  (87) 
-36.595

>  <r_i_glide_energy>  (87) 
-27.0862

>  <r_i_glide_einternal>  (87) 
0.462373

>  <r_i_glide_intrahb_reward>  (87) 
-0

>  <i_i_glide_confnum>  (87) 
2

>  <i_i_glide_posenum>  (87) 
34

>  <r_i_glide_eff_state_penalty>  (87) 
0

>  <ligand_id>  (87) 
27

>  <original_smiles>  (87) 
CC12CC=C(c3cc(O)oc3O)C(O1)C2(C)C

>  <smiles>  (87) 
[H]Oc1oc(O[H])c(C2=C([H])C([H])([H])C3(C([H])([H])[H])OC2([H])C3(C([H])([H])[H])C([H])([H])[H])c1[H]

$$$$
27:1:1
     RDKit          3D

 33 35  0  0  1  0  0  0  0  0999 V2000
   -9.0543  -11.0774  -10.2619 C   0  0  0  0  0  0  0  0  0  0  0  0
   -9.0272   -9.7771   -9.4485 C   0  0  2  0  0  0  0  0  0  0  0  0
   -9.1632   -8.5248  -10.3521 C   0  0  0  0  0  0  0  0  0  0  0  0
   -9.0139   -7.2509   -9.5032 C   0  0  0  0  0  0  0  0  0  0  0  0
   -8.6975   -7.4078   -8.2062 C   0  0  0  0  0  0  0  0  0  0  0  0
   -8.5613   -6.2554   -7.2884 C   0  0  0  0  0  0  0  0  0  0  0  0
   -7.5485   -6.1120   -6.2972 C   0  0  0  0  0  0  0  0  0  0  0  0
   -7.8251   -4.9001   -5.7125 C   0  0  0  0  0  0  0  0  0  0  0  0
   -7.1819   -4.2489   -4.7189 O   0  0  0  0  0  0  0  0  0  0  0  0
   -8.9028   -4.2758   -6.2573 O   0  0  0  0  0  0  0  0  0  0  0  0
   -9.3362   -5.1274   -7.2206 C   0  0  0  0  0  0  0  0  0  0  0  0
  -10.4564   -4.7532   -7.8886 O   0  0  0  0  0  0  0  0  0  0  0  0
   -8.5491   -8.8591   -7.7279 C   0  0  2  0  0  0  0  0  0  0  0  0
   -7.7847   -9.6009   -8.7213 O   0  0  0  0  0  0  0  0  0  0  0  0
   -9.7820   -9.7565   -8.0825 C   0  0  0  0  0  0  0  0  0  0  0  0
  -11.2209   -9.1782   -8.0846 C   0  0  0  0  0  0  0  0  0  0  0  0
   -9.8362  -11.0840   -7.3262 C   0  0  0  0  0  0  0  0  0  0  0  0
  -10.0509  -11.2171  -10.6875 H   0  0  0  0  0  0  0  0  0  0  0  0
   -8.8430  -11.9696   -9.6679 H   0  0  0  0  0  0  0  0  0  0  0  0
   -8.3331  -11.0560  -11.0817 H   0  0  0  0  0  0  0  0  0  0  0  0
   -8.3905   -8.5465  -11.1258 H   0  0  0  0  0  0  0  0  0  0  0  0
  -10.1631   -8.5087  -10.7994 H   0  0  0  0  0  0  0  0  0  0  0  0
   -9.1490   -6.2864   -9.9847 H   0  0  0  0  0  0  0  0  0  0  0  0
   -6.7527   -6.7807   -6.0522 H   0  0  0  0  0  0  0  0  0  0  0  0
   -6.4580   -4.7757   -4.4610 H   0  0  0  0  0  0  0  0  0  0  0  0
  -11.0208   -5.5000   -7.9745 H   0  0  0  0  0  0  0  0  0  0  0  0
   -8.1540   -8.9879   -6.7199 H   0  0  0  0  0  0  0  0  0  0  0  0
  -11.6148   -9.0069   -7.0802 H   0  0  0  0  0  0  0  0  0  0  0  0
  -11.9090   -9.8630   -8.5813 H   0  0  0  0  0  0  0  0  0  0  0  0
  -11.2925   -8.2297   -8.6047 H   0  0  0  0  0  0  0  0  0  0  0  0
  -10.1536  -11.0094   -6.2903 H   0  0  0  0  0  0  0  0  0  0  0  0
   -8.8598  -11.5725   -7.3090 H   0  0  0  0  0  0  0  0  0  0  0  0
  -10.5149  -11.7867   -7.7994 H   0  0  0  0  0  0  0  0  0  0  0  0
  2  1  1  6
  1 18  1  0
  1 19  1  0
  1 20  1  0
  2 14  1  0
  2 15  1  0
  2  3  1  0
  3  4  1  0
  3 21  1  0
  3 22  1  0
  4  5  2  0
  4 23  1  0
  5  6  1  0
  5 13  1  0
  6 11  2  0
  6  7  1  0
  7  8  2  0
  7 24  1  0
  8  9  1  0
  8 10  1  0
  9 25  1  0
 10 11  1  0
 11 12  1  0
 12 26  1  0
 13 14  1  0
 13 15  1  0
 13 27  1  1
 15 16  1  0
 15 17  1  0
 16 28  1  0
 16 29  1  0
 16 30  1  0
 17 31  1  0
 17 32  1  0
 17 33  1  0
M  END
>  <i_m_ct_stereo_status>  (88) 
1

>  <s_m_source_file>  (88) 
/var/tmp/pbs.5076255.sched01/tmpqllwm4fg/43asec3i7m.sdf

>  <i_m_source_file_index>  (88) 
4

>  <i_lp_mmshare_version>  (88) 
48012

>  <i_f3d_flags>  (88) 
0

>  <s_epik_input>  (88) 
W0NIM11bQ0BdMTJbQ0gyXVtDSF09QyhbQ0BIXShPMSlDMihbQ0gzXSlbQ0gzXSljM1tjSF1jKFtPSF0pb2MzW09IXQ==

>  <s_epik_cmdline>  (88) 
J2VwaWtfcHl0aG9uJywgJy1waHQnLCAnMi4wJywgJy1waCcsICc3LjAnLCAnLXRuJywgJzgnLCAnLW1hJywgJzIwMCcsICctaW1hZScsICc8aW5maWxlLm1hZT4nLCAnLW9tYWUnLCAnPG91dGZpbGUubWFlPic=

>  <r_epik_Ionization_Penalty>  (88) 
0.946558

>  <r_epik_Ionization_Penalty_Charging>  (88) 
0

>  <r_epik_Ionization_Penalty_Neutral>  (88) 
0.946558

>  <r_epik_State_Penalty>  (88) 
0.749035

>  <r_epik_Charging_Adjusted_Penalty>  (88) 
0.749035

>  <i_epik_Tot_Q>  (88) 
0

>  <i_epik_Tot_abs_Q>  (88) 
0

>  <s_lp_Force_Field>  (88) 
OPLS3e

>  <r_lp_Energy>  (88) 
17.0623

>  <b_lp_Chiralities_Consistent>  (88) 
1

>  <s_lp_Variant>  (88) 
27:0-2

>  <s_i_glide_gridfile>  (88) 
pfpi4k_grid

>  <i_i_glide_lignum>  (88) 
4

>  <i_i_glide_rotatable_bonds>  (88) 
3

>  <r_i_docking_score>  (88) 
-4.42141

>  <r_i_glide_ligand_efficiency>  (88) 
-0.260083

>  <r_i_glide_ligand_efficiency_sa>  (88) 
-0.668747

>  <r_i_glide_ligand_efficiency_ln>  (88) 
-1.15345

>  <r_i_glide_gscore>  (88) 
-4.42141

>  <r_i_glide_lipo>  (88) 
-1.39546

>  <r_i_glide_hbond>  (88) 
0

>  <r_i_glide_metal>  (88) 
-0

>  <r_i_glide_rewards>  (88) 
-2.01487

>  <r_i_glide_evdw>  (88) 
-20.6822

>  <r_i_glide_ecoul>  (88) 
-1.90236

>  <r_i_glide_erotb>  (88) 
0.308382

>  <r_i_glide_esite>  (88) 
0

>  <r_i_glide_emodel>  (88) 
-28.3079

>  <r_i_glide_energy>  (88) 
-22.5845

>  <r_i_glide_einternal>  (88) 
2.566

>  <r_i_glide_intrahb_reward>  (88) 
-0

>  <i_i_glide_confnum>  (88) 
2

>  <i_i_glide_posenum>  (88) 
1

>  <r_i_glide_eff_state_penalty>  (88) 
0

>  <ligand_id>  (88) 
27

>  <original_smiles>  (88) 
CC12CC=C(c3cc(O)oc3O)C(O1)C2(C)C

>  <smiles>  (88) 
[H]Oc1oc(O[H])c(C2=C([H])C([H])([H])C3(C([H])([H])[H])OC2([H])C3(C([H])([H])[H])C([H])([H])[H])c1[H]

$$$$
27:1:2
     RDKit          3D

 33 35  0  0  1  0  0  0  0  0999 V2000
    4.7888   -0.8738    0.5889 C   0  0  0  0  0  0  0  0  0  0  0  0
    4.5589   -2.3908    0.6483 C   0  0  2  0  0  0  0  0  0  0  0  0
    3.1060   -2.7181    1.1092 C   0  0  0  0  0  0  0  0  0  0  0  0
    2.9674   -4.2387    1.2588 C   0  0  0  0  0  0  0  0  0  0  0  0
    4.0557   -5.0161    1.0550 C   0  0  0  0  0  0  0  0  0  0  0  0
    3.9984   -6.4903    1.1495 C   0  0  0  0  0  0  0  0  0  0  0  0
    5.1234   -7.3708    1.1189 C   0  0  0  0  0  0  0  0  0  0  0  0
    4.6085   -8.6301    1.2272 C   0  0  0  0  0  0  0  0  0  0  0  0
    5.2228   -9.8582    1.2654 O   0  0  0  0  0  0  0  0  0  0  0  0
    3.2492   -8.6302    1.3288 O   0  0  0  0  0  0  0  0  0  0  0  0
    2.9137   -7.3089    1.2998 C   0  0  0  0  0  0  0  0  0  0  0  0
    1.5751   -7.0667    1.3687 O   0  0  0  0  0  0  0  0  0  0  0  0
    5.3416   -4.2335    0.6989 C   0  0  2  0  0  0  0  0  0  0  0  0
    5.4582   -3.0713    1.5659 O   0  0  0  0  0  0  0  0  0  0  0  0
    5.1451   -3.2575   -0.4913 C   0  0  0  0  0  0  0  0  0  0  0  0
    4.2246   -3.6269   -1.6651 C   0  0  0  0  0  0  0  0  0  0  0  0
    6.4557   -2.7469   -1.0971 C   0  0  0  0  0  0  0  0  0  0  0  0
    4.1862   -0.4380   -0.2070 H   0  0  0  0  0  0  0  0  0  0  0  0
    5.8354   -0.6131    0.3762 H   0  0  0  0  0  0  0  0  0  0  0  0
    4.5195   -0.3871    1.5285 H   0  0  0  0  0  0  0  0  0  0  0  0
    2.8945   -2.2243    2.0675 H   0  0  0  0  0  0  0  0  0  0  0  0
    2.3952   -2.3912    0.3476 H   0  0  0  0  0  0  0  0  0  0  0  0
    1.9838   -4.6129    1.5492 H   0  0  0  0  0  0  0  0  0  0  0  0
    6.1656   -7.1409    1.0140 H   0  0  0  0  0  0  0  0  0  0  0  0
    4.6064  -10.5388    0.9910 H   0  0  0  0  0  0  0  0  0  0  0  0
    1.1194   -7.8950    1.4562 H   0  0  0  0  0  0  0  0  0  0  0  0
    6.2552   -4.8458    0.6568 H   0  0  0  0  0  0  0  0  0  0  0  0
    4.6515   -4.3994   -2.3090 H   0  0  0  0  0  0  0  0  0  0  0  0
    4.0175   -2.7586   -2.2906 H   0  0  0  0  0  0  0  0  0  0  0  0
    3.2508   -3.9982   -1.3349 H   0  0  0  0  0  0  0  0  0  0  0  0
    6.9711   -3.4712   -1.7171 H   0  0  0  0  0  0  0  0  0  0  0  0
    7.1573   -2.4493   -0.3220 H   0  0  0  0  0  0  0  0  0  0  0  0
    6.2852   -1.8765   -1.7169 H   0  0  0  0  0  0  0  0  0  0  0  0
  2  1  1  6
  1 18  1  0
  1 19  1  0
  1 20  1  0
  2 14  1  0
  2 15  1  0
  2  3  1  0
  3  4  1  0
  3 21  1  0
  3 22  1  0
  4  5  2  0
  4 23  1  0
  5  6  1  0
  5 13  1  0
  6 11  2  0
  6  7  1  0
  7  8  2  0
  7 24  1  0
  8  9  1  0
  8 10  1  0
  9 25  1  0
 10 11  1  0
 11 12  1  0
 12 26  1  0
 13 14  1  0
 13 15  1  0
 13 27  1  6
 15 16  1  0
 15 17  1  0
 16 28  1  0
 16 29  1  0
 16 30  1  0
 17 31  1  0
 17 32  1  0
 17 33  1  0
M  END
>  <i_m_ct_stereo_status>  (89) 
1

>  <s_m_source_file>  (89) 
/var/tmp/pbs.5076255.sched01/tmpqllwm4fg/43asec3i7m.sdf

>  <i_m_source_file_index>  (89) 
4

>  <i_lp_mmshare_version>  (89) 
48012

>  <i_f3d_flags>  (89) 
0

>  <s_epik_input>  (89) 
W0NIM11bQ0BdMTJbQ0gyXVtDSF09QyhbQ0BIXShPMSlDMihbQ0gzXSlbQ0gzXSljM1tjSF1jKFtPSF0pb2MzW09IXQ==

>  <s_epik_cmdline>  (89) 
J2VwaWtfcHl0aG9uJywgJy1waHQnLCAnMi4wJywgJy1waCcsICc3LjAnLCAnLXRuJywgJzgnLCAnLW1hJywgJzIwMCcsICctaW1hZScsICc8aW5maWxlLm1hZT4nLCAnLW9tYWUnLCAnPG91dGZpbGUubWFlPic=

>  <r_epik_Ionization_Penalty>  (89) 
0.946558

>  <r_epik_Ionization_Penalty_Charging>  (89) 
0

>  <r_epik_Ionization_Penalty_Neutral>  (89) 
0.946558

>  <r_epik_State_Penalty>  (89) 
0.749035

>  <r_epik_Charging_Adjusted_Penalty>  (89) 
0.749035

>  <i_epik_Tot_Q>  (89) 
0

>  <i_epik_Tot_abs_Q>  (89) 
0

>  <s_lp_Force_Field>  (89) 
OPLS3e

>  <r_lp_Energy>  (89) 
17.0623

>  <b_lp_Chiralities_Consistent>  (89) 
1

>  <s_lp_Variant>  (89) 
27:0-2

>  <s_i_glide_gridfile>  (89) 
pfpi4k_grid

>  <i_i_glide_lignum>  (89) 
4

>  <i_i_glide_rotatable_bonds>  (89) 
3

>  <r_i_docking_score>  (89) 
-3.54304

>  <r_i_glide_ligand_efficiency>  (89) 
-0.208414

>  <r_i_glide_ligand_efficiency_sa>  (89) 
-0.535892

>  <r_i_glide_ligand_efficiency_ln>  (89) 
-0.924301

>  <r_i_glide_gscore>  (89) 
-3.54304

>  <r_i_glide_lipo>  (89) 
-0.410615

>  <r_i_glide_hbond>  (89) 
0

>  <r_i_glide_metal>  (89) 
-0

>  <r_i_glide_rewards>  (89) 
-1.7982

>  <r_i_glide_evdw>  (89) 
-16.4981

>  <r_i_glide_ecoul>  (89) 
-5.45135

>  <r_i_glide_erotb>  (89) 
0.308382

>  <r_i_glide_esite>  (89) 
0

>  <r_i_glide_emodel>  (89) 
-27.3813

>  <r_i_glide_energy>  (89) 
-21.9495

>  <r_i_glide_einternal>  (89) 
0.550339

>  <r_i_glide_intrahb_reward>  (89) 
-0

>  <i_i_glide_confnum>  (89) 
3

>  <i_i_glide_posenum>  (89) 
11

>  <r_i_glide_eff_state_penalty>  (89) 
0

>  <ligand_id>  (89) 
27

>  <original_smiles>  (89) 
CC12CC=C(c3cc(O)oc3O)C(O1)C2(C)C

>  <smiles>  (89) 
[H]Oc1oc(O[H])c(C2=C([H])C([H])([H])C3(C([H])([H])[H])OC2([H])C3(C([H])([H])[H])C([H])([H])[H])c1[H]

$$$$
27:2:0
     RDKit          3D

 32 34  0  0  1  0  0  0  0  0999 V2000
  -10.5724   -9.3893  -10.9632 C   0  0  0  0  0  0  0  0  0  0  0  0
  -10.0622   -8.4473   -9.8674 C   0  0  2  0  0  0  0  0  0  0  0  0
  -11.1650   -7.4861   -9.3672 C   0  0  0  0  0  0  0  0  0  0  0  0
  -10.5780   -6.4776   -8.3789 C   0  0  0  0  0  0  0  0  0  0  0  0
   -9.2473   -6.5405   -8.1201 C   0  0  0  0  0  0  0  0  0  0  0  0
   -8.5693   -5.6318   -7.1605 C   0  0  0  0  0  0  0  0  0  0  0  0
   -7.3943   -5.9553   -6.4321 C   0  0  0  0  0  0  0  0  0  0  0  0
   -7.1668   -4.8437   -5.6707 C   0  0  0  0  0  0  0  0  0  0  0  0
   -6.1852   -4.5407   -4.8146 O   0  0  0  0  0  0  0  0  0  0  0  0
   -8.1035   -3.8644   -5.8306 O   0  0  0  0  0  0  0  0  0  0  0  0
   -8.9592   -4.3882   -6.7598 C   0  0  0  0  0  0  0  0  0  0  0  0
   -9.9999   -3.5887   -7.0970 O   0  0  0  0  0  0  0  0  0  0  0  0
   -8.4984   -7.5946   -8.9352 C   0  0  2  0  0  0  0  0  0  0  0  0
   -8.9946   -7.5634  -10.3085 O   0  0  0  0  0  0  0  0  0  0  0  0
   -9.0734   -9.0360   -8.8321 C   0  0  0  0  0  0  0  0  0  0  0  0
   -9.6968   -9.5087   -7.5204 C   0  0  0  0  0  0  0  0  0  0  0  0
   -8.1659  -10.1558   -9.3059 C   0  0  0  0  0  0  0  0  0  0  0  0
  -11.2876  -10.0851  -10.5246 H   0  0  0  0  0  0  0  0  0  0  0  0
   -9.7929  -10.0057  -11.4223 H   0  0  0  0  0  0  0  0  0  0  0  0
  -11.0722   -8.8523  -11.7707 H   0  0  0  0  0  0  0  0  0  0  0  0
  -11.6400   -6.9572  -10.1977 H   0  0  0  0  0  0  0  0  0  0  0  0
  -11.9244   -8.0631   -8.8485 H   0  0  0  0  0  0  0  0  0  0  0  0
  -11.2508   -5.7990   -7.8870 H   0  0  0  0  0  0  0  0  0  0  0  0
   -6.7904   -6.8403   -6.4370 H   0  0  0  0  0  0  0  0  0  0  0  0
   -6.3787   -3.6683   -4.5048 H   0  0  0  0  0  0  0  0  0  0  0  0
   -7.4134   -7.5623   -8.8821 H   0  0  0  0  0  0  0  0  0  0  0  0
   -8.9515   -9.6601   -6.7192 H   0  0  0  0  0  0  0  0  0  0  0  0
  -10.2816  -10.4338   -7.6294 H   0  0  0  0  0  0  0  0  0  0  0  0
  -10.4099   -8.7805   -7.1848 H   0  0  0  0  0  0  0  0  0  0  0  0
   -7.3424  -10.3823   -8.6254 H   0  0  0  0  0  0  0  0  0  0  0  0
   -7.7300   -9.9003  -10.2638 H   0  0  0  0  0  0  0  0  0  0  0  0
   -8.7253  -11.0783   -9.4603 H   0  0  0  0  0  0  0  0  0  0  0  0
  2  1  1  6
  1 18  1  0
  1 19  1  0
  1 20  1  0
  2 14  1  0
  2 15  1  0
  2  3  1  0
  3  4  1  0
  3 21  1  0
  3 22  1  0
  4  5  2  0
  4 23  1  0
  5  6  1  0
  5 13  1  0
  6 11  2  0
  6  7  1  0
  7  8  2  0
  7 24  1  0
  8  9  1  0
  8 10  1  0
  9 25  1  0
 10 11  1  0
 11 12  1  0
 13 14  1  0
 13 15  1  0
 13 26  1  6
 15 16  1  0
 15 17  1  0
 16 27  1  0
 16 28  1  0
 16 29  1  0
 17 30  1  0
 17 31  1  0
 17 32  1  0
M  CHG  1  12  -1
M  END
>  <i_m_ct_stereo_status>  (90) 
1

>  <s_m_source_file>  (90) 
/var/tmp/pbs.5076255.sched01/tmpqllwm4fg/43asec3i7m.sdf

>  <i_m_source_file_index>  (90) 
5

>  <i_lp_mmshare_version>  (90) 
48012

>  <i_f3d_flags>  (90) 
0

>  <s_epik_input>  (90) 
W0NIM11bQ0BdMTJbQ0gyXVtDSF09QyhbQ0BIXShPMSlDMihbQ0gzXSlbQ0gzXSljM1tjSF1jKFtPSF0pb2MzW09IXQ==

>  <s_epik_cmdline>  (90) 
J2VwaWtfcHl0aG9uJywgJy1waHQnLCAnMi4wJywgJy1waCcsICc3LjAnLCAnLXRuJywgJzgnLCAnLW1hJywgJzIwMCcsICctaW1hZScsICc8aW5maWxlLm1hZT4nLCAnLW9tYWUnLCAnPG91dGZpbGUubWFlPic=

>  <r_epik_Ionization_Penalty>  (90) 
0.435911

>  <r_epik_Ionization_Penalty_Charging>  (90) 
0.417634

>  <r_epik_Ionization_Penalty_Neutral>  (90) 
0.0182762

>  <r_epik_State_Penalty>  (90) 
0.763791

>  <r_epik_Charging_Adjusted_Penalty>  (90) 
1.18143

>  <i_epik_Tot_Q>  (90) 
-1

>  <i_epik_Tot_abs_Q>  (90) 
1

>  <s_lp_Force_Field>  (90) 
OPLS3e

>  <r_lp_Energy>  (90) 
21.4654

>  <b_lp_Chiralities_Consistent>  (90) 
1

>  <s_lp_Variant>  (90) 
27:0-3

>  <s_i_glide_gridfile>  (90) 
pfpi4k_grid

>  <i_i_glide_lignum>  (90) 
5

>  <i_i_glide_rotatable_bonds>  (90) 
2

>  <r_i_docking_score>  (90) 
-4.33018

>  <r_i_glide_ligand_efficiency>  (90) 
-0.254716

>  <r_i_glide_ligand_efficiency_sa>  (90) 
-0.654947

>  <r_i_glide_ligand_efficiency_ln>  (90) 
-1.12965

>  <r_i_glide_gscore>  (90) 
-4.33018

>  <r_i_glide_lipo>  (90) 
-1.40619

>  <r_i_glide_hbond>  (90) 
-0.00691762

>  <r_i_glide_metal>  (90) 
-0

>  <r_i_glide_rewards>  (90) 
-2.08841

>  <r_i_glide_evdw>  (90) 
-19.8796

>  <r_i_glide_ecoul>  (90) 
-0.968753

>  <r_i_glide_erotb>  (90) 
0.310634

>  <r_i_glide_esite>  (90) 
0

>  <r_i_glide_emodel>  (90) 
-29.8276

>  <r_i_glide_energy>  (90) 
-20.8483

>  <r_i_glide_einternal>  (90) 
0.35612

>  <r_i_glide_intrahb_reward>  (90) 
-0

>  <i_i_glide_confnum>  (90) 
4

>  <i_i_glide_posenum>  (90) 
4

>  <r_i_glide_eff_state_penalty>  (90) 
0

>  <ligand_id>  (90) 
27

>  <original_smiles>  (90) 
CC12CC=C(c3cc(O)oc3O)C(O1)C2(C)C

>  <smiles>  (90) 
[H]Oc1oc([O-])c(C2=C([H])C([H])([H])C3(C([H])([H])[H])OC2([H])C3(C([H])([H])[H])C([H])([H])[H])c1[H]

$$$$
27:2:1
     RDKit          3D

 32 34  0  0  1  0  0  0  0  0999 V2000
  -11.8294   -9.0011  -10.5857 C   0  0  0  0  0  0  0  0  0  0  0  0
  -10.8925   -8.3196   -9.5794 C   0  0  2  0  0  0  0  0  0  0  0  0
  -10.5220   -6.8750  -10.0184 C   0  0  0  0  0  0  0  0  0  0  0  0
   -9.4968   -6.2836   -9.0430 C   0  0  0  0  0  0  0  0  0  0  0  0
   -9.0204   -7.0880   -8.0622 C   0  0  0  0  0  0  0  0  0  0  0  0
   -8.0910   -6.5705   -7.0325 C   0  0  0  0  0  0  0  0  0  0  0  0
   -8.0548   -5.2667   -6.4641 C   0  0  0  0  0  0  0  0  0  0  0  0
   -6.9996   -5.3194   -5.5830 C   0  0  0  0  0  0  0  0  0  0  0  0
   -6.4872   -4.3676   -4.7722 O   0  0  0  0  0  0  0  0  0  0  0  0
   -6.3846   -6.5238   -5.5450 O   0  0  0  0  0  0  0  0  0  0  0  0
   -7.0686   -7.2691   -6.4544 C   0  0  0  0  0  0  0  0  0  0  0  0
   -6.6253   -8.5295   -6.5969 O   0  0  0  0  0  0  0  0  0  0  0  0
   -9.6236   -8.5040   -8.0462 C   0  0  2  0  0  0  0  0  0  0  0  0
   -9.6362   -9.0150   -9.4030 O   0  0  0  0  0  0  0  0  0  0  0  0
  -11.1850   -8.5413   -8.0774 C   0  0  0  0  0  0  0  0  0  0  0  0
  -12.0410   -7.4622   -7.3768 C   0  0  0  0  0  0  0  0  0  0  0  0
  -11.8017   -9.8870   -7.7126 C   0  0  0  0  0  0  0  0  0  0  0  0
  -12.7996   -8.5039  -10.5839 H   0  0  0  0  0  0  0  0  0  0  0  0
  -12.0233  -10.0537  -10.3501 H   0  0  0  0  0  0  0  0  0  0  0  0
  -11.4237   -8.9734  -11.5973 H   0  0  0  0  0  0  0  0  0  0  0  0
  -10.1087   -6.8935  -11.0296 H   0  0  0  0  0  0  0  0  0  0  0  0
  -11.4149   -6.2503   -9.9871 H   0  0  0  0  0  0  0  0  0  0  0  0
   -9.1862   -5.2574   -9.1552 H   0  0  0  0  0  0  0  0  0  0  0  0
   -8.6964   -4.4449   -6.6553 H   0  0  0  0  0  0  0  0  0  0  0  0
   -7.0613   -3.6110   -4.7847 H   0  0  0  0  0  0  0  0  0  0  0  0
   -9.1670   -9.2001   -7.3284 H   0  0  0  0  0  0  0  0  0  0  0  0
  -12.0909   -7.6087   -6.3065 H   0  0  0  0  0  0  0  0  0  0  0  0
  -13.0820   -7.4854   -7.7109 H   0  0  0  0  0  0  0  0  0  0  0  0
  -11.6716   -6.4504   -7.5452 H   0  0  0  0  0  0  0  0  0  0  0  0
  -11.7806  -10.1035   -6.6478 H   0  0  0  0  0  0  0  0  0  0  0  0
  -11.2771  -10.7050   -8.1967 H   0  0  0  0  0  0  0  0  0  0  0  0
  -12.8417   -9.9497   -8.0094 H   0  0  0  0  0  0  0  0  0  0  0  0
  2  1  1  6
  1 18  1  0
  1 19  1  0
  1 20  1  0
  2 14  1  0
  2 15  1  0
  2  3  1  0
  3  4  1  0
  3 21  1  0
  3 22  1  0
  4  5  2  0
  4 23  1  0
  5  6  1  0
  5 13  1  0
  6 11  2  0
  6  7  1  0
  7  8  2  0
  7 24  1  0
  8  9  1  0
  8 10  1  0
  9 25  1  0
 10 11  1  0
 11 12  1  0
 13 14  1  0
 13 15  1  0
 13 26  1  1
 15 16  1  0
 15 17  1  0
 16 27  1  0
 16 28  1  0
 16 29  1  0
 17 30  1  0
 17 31  1  0
 17 32  1  0
M  CHG  1  12  -1
M  END
>  <i_m_ct_stereo_status>  (91) 
1

>  <s_m_source_file>  (91) 
/var/tmp/pbs.5076255.sched01/tmpqllwm4fg/43asec3i7m.sdf

>  <i_m_source_file_index>  (91) 
5

>  <i_lp_mmshare_version>  (91) 
48012

>  <i_f3d_flags>  (91) 
0

>  <s_epik_input>  (91) 
W0NIM11bQ0BdMTJbQ0gyXVtDSF09QyhbQ0BIXShPMSlDMihbQ0gzXSlbQ0gzXSljM1tjSF1jKFtPSF0pb2MzW09IXQ==

>  <s_epik_cmdline>  (91) 
J2VwaWtfcHl0aG9uJywgJy1waHQnLCAnMi4wJywgJy1waCcsICc3LjAnLCAnLXRuJywgJzgnLCAnLW1hJywgJzIwMCcsICctaW1hZScsICc8aW5maWxlLm1hZT4nLCAnLW9tYWUnLCAnPG91dGZpbGUubWFlPic=

>  <r_epik_Ionization_Penalty>  (91) 
0.435911

>  <r_epik_Ionization_Penalty_Charging>  (91) 
0.417634

>  <r_epik_Ionization_Penalty_Neutral>  (91) 
0.0182762

>  <r_epik_State_Penalty>  (91) 
0.763791

>  <r_epik_Charging_Adjusted_Penalty>  (91) 
1.18143

>  <i_epik_Tot_Q>  (91) 
-1

>  <i_epik_Tot_abs_Q>  (91) 
1

>  <s_lp_Force_Field>  (91) 
OPLS3e

>  <r_lp_Energy>  (91) 
21.4654

>  <b_lp_Chiralities_Consistent>  (91) 
1

>  <s_lp_Variant>  (91) 
27:0-3

>  <s_i_glide_gridfile>  (91) 
pfpi4k_grid

>  <i_i_glide_lignum>  (91) 
5

>  <i_i_glide_rotatable_bonds>  (91) 
2

>  <r_i_docking_score>  (91) 
-3.94191

>  <r_i_glide_ligand_efficiency>  (91) 
-0.231877

>  <r_i_glide_ligand_efficiency_sa>  (91) 
-0.596221

>  <r_i_glide_ligand_efficiency_ln>  (91) 
-1.02836

>  <r_i_glide_gscore>  (91) 
-3.94191

>  <r_i_glide_lipo>  (91) 
-1.17118

>  <r_i_glide_hbond>  (91) 
0

>  <r_i_glide_metal>  (91) 
-0

>  <r_i_glide_rewards>  (91) 
-2.04674

>  <r_i_glide_evdw>  (91) 
-19.0081

>  <r_i_glide_ecoul>  (91) 
-0.561446

>  <r_i_glide_erotb>  (91) 
0.310634

>  <r_i_glide_esite>  (91) 
0

>  <r_i_glide_emodel>  (91) 
-27.6991

>  <r_i_glide_energy>  (91) 
-19.5695

>  <r_i_glide_einternal>  (91) 
0.99081

>  <r_i_glide_intrahb_reward>  (91) 
-0

>  <i_i_glide_confnum>  (91) 
2

>  <i_i_glide_posenum>  (91) 
11

>  <r_i_glide_eff_state_penalty>  (91) 
0

>  <ligand_id>  (91) 
27

>  <original_smiles>  (91) 
CC12CC=C(c3cc(O)oc3O)C(O1)C2(C)C

>  <smiles>  (91) 
[H]Oc1oc([O-])c(C2=C([H])C([H])([H])C3(C([H])([H])[H])OC2([H])C3(C([H])([H])[H])C([H])([H])[H])c1[H]

$$$$
27:2:2
     RDKit          3D

 32 34  0  0  1  0  0  0  0  0999 V2000
    0.5263   -3.0600    6.6408 C   0  0  0  0  0  0  0  0  0  0  0  0
    0.1497   -1.6364    6.1979 C   0  0  2  0  0  0  0  0  0  0  0  0
    0.2654   -0.6139    7.3539 C   0  0  0  0  0  0  0  0  0  0  0  0
   -0.2461    0.7462    6.8815 C   0  0  0  0  0  0  0  0  0  0  0  0
   -0.7031    0.8615    5.6155 C   0  0  0  0  0  0  0  0  0  0  0  0
   -1.2100    2.1249    5.0402 C   0  0  0  0  0  0  0  0  0  0  0  0
   -1.0153    2.5784    3.7066 C   0  0  0  0  0  0  0  0  0  0  0  0
   -1.6369    3.7896    3.6910 C   0  0  0  0  0  0  0  0  0  0  0  0
   -1.7902    4.7241    2.7075 O   0  0  0  0  0  0  0  0  0  0  0  0
   -2.1773    4.1398    4.8842 O   0  0  0  0  0  0  0  0  0  0  0  0
   -1.9108    3.0986    5.6941 C   0  0  0  0  0  0  0  0  0  0  0  0
   -2.3703    3.2015    6.9489 O   0  0  0  0  0  0  0  0  0  0  0  0
   -0.7354   -0.4555    4.8400 C   0  0  2  0  0  0  0  0  0  0  0  0
   -1.2217   -1.5131    5.7202 O   0  0  0  0  0  0  0  0  0  0  0  0
    0.6341   -1.1745    4.8020 C   0  0  0  0  0  0  0  0  0  0  0  0
    1.9329   -0.3562    4.7317 C   0  0  0  0  0  0  0  0  0  0  0  0
    0.7460   -2.2806    3.7412 C   0  0  0  0  0  0  0  0  0  0  0  0
    1.5904   -3.0872    6.8680 H   0  0  0  0  0  0  0  0  0  0  0  0
    0.3653   -3.8212    5.8682 H   0  0  0  0  0  0  0  0  0  0  0  0
   -0.0219   -3.3876    7.5240 H   0  0  0  0  0  0  0  0  0  0  0  0
   -0.2780   -0.9475    8.2358 H   0  0  0  0  0  0  0  0  0  0  0  0
    1.3106   -0.5155    7.6214 H   0  0  0  0  0  0  0  0  0  0  0  0
   -0.1775    1.5909    7.5546 H   0  0  0  0  0  0  0  0  0  0  0  0
   -0.4865    2.0907    2.8989 H   0  0  0  0  0  0  0  0  0  0  0  0
   -1.1394    4.5468    2.0162 H   0  0  0  0  0  0  0  0  0  0  0  0
   -1.2478   -0.4137    3.8751 H   0  0  0  0  0  0  0  0  0  0  0  0
    2.0754    0.1185    3.7571 H   0  0  0  0  0  0  0  0  0  0  0  0
    2.8022   -0.9793    4.9537 H   0  0  0  0  0  0  0  0  0  0  0  0
    1.9588    0.4472    5.4642 H   0  0  0  0  0  0  0  0  0  0  0  0
    0.8520   -1.9089    2.7175 H   0  0  0  0  0  0  0  0  0  0  0  0
   -0.1350   -2.9193    3.7527 H   0  0  0  0  0  0  0  0  0  0  0  0
    1.5952   -2.9351    3.9409 H   0  0  0  0  0  0  0  0  0  0  0  0
  2  1  1  1
  1 18  1  0
  1 19  1  0
  1 20  1  0
  2 14  1  0
  2 15  1  0
  2  3  1  0
  3  4  1  0
  3 21  1  0
  3 22  1  0
  4  5  2  0
  4 23  1  0
  5  6  1  0
  5 13  1  0
  6 11  2  0
  6  7  1  0
  7  8  2  0
  7 24  1  0
  8  9  1  0
  8 10  1  0
  9 25  1  0
 10 11  1  0
 11 12  1  0
 13 14  1  0
 13 15  1  0
 13 26  1  6
 15 16  1  0
 15 17  1  0
 16 27  1  0
 16 28  1  0
 16 29  1  0
 17 30  1  0
 17 31  1  0
 17 32  1  0
M  CHG  1  12  -1
M  END
>  <i_m_ct_stereo_status>  (92) 
1

>  <s_m_source_file>  (92) 
/var/tmp/pbs.5076255.sched01/tmpqllwm4fg/43asec3i7m.sdf

>  <i_m_source_file_index>  (92) 
5

>  <i_lp_mmshare_version>  (92) 
48012

>  <i_f3d_flags>  (92) 
0

>  <s_epik_input>  (92) 
W0NIM11bQ0BdMTJbQ0gyXVtDSF09QyhbQ0BIXShPMSlDMihbQ0gzXSlbQ0gzXSljM1tjSF1jKFtPSF0pb2MzW09IXQ==

>  <s_epik_cmdline>  (92) 
J2VwaWtfcHl0aG9uJywgJy1waHQnLCAnMi4wJywgJy1waCcsICc3LjAnLCAnLXRuJywgJzgnLCAnLW1hJywgJzIwMCcsICctaW1hZScsICc8aW5maWxlLm1hZT4nLCAnLW9tYWUnLCAnPG91dGZpbGUubWFlPic=

>  <r_epik_Ionization_Penalty>  (92) 
0.435911

>  <r_epik_Ionization_Penalty_Charging>  (92) 
0.417634

>  <r_epik_Ionization_Penalty_Neutral>  (92) 
0.0182762

>  <r_epik_State_Penalty>  (92) 
0.763791

>  <r_epik_Charging_Adjusted_Penalty>  (92) 
1.18143

>  <i_epik_Tot_Q>  (92) 
-1

>  <i_epik_Tot_abs_Q>  (92) 
1

>  <s_lp_Force_Field>  (92) 
OPLS3e

>  <r_lp_Energy>  (92) 
21.4654

>  <b_lp_Chiralities_Consistent>  (92) 
1

>  <s_lp_Variant>  (92) 
27:0-3

>  <s_i_glide_gridfile>  (92) 
pfpi4k_grid

>  <i_i_glide_lignum>  (92) 
5

>  <i_i_glide_rotatable_bonds>  (92) 
2

>  <r_i_docking_score>  (92) 
-3.66423

>  <r_i_glide_ligand_efficiency>  (92) 
-0.215543

>  <r_i_glide_ligand_efficiency_sa>  (92) 
-0.554222

>  <r_i_glide_ligand_efficiency_ln>  (92) 
-0.955917

>  <r_i_glide_gscore>  (92) 
-3.66423

>  <r_i_glide_lipo>  (92) 
-0.0586628

>  <r_i_glide_hbond>  (92) 
-0.0054712

>  <r_i_glide_metal>  (92) 
-0

>  <r_i_glide_rewards>  (92) 
-1.80507

>  <r_i_glide_evdw>  (92) 
-11.9817

>  <r_i_glide_ecoul>  (92) 
-10.0438

>  <r_i_glide_erotb>  (92) 
0.310634

>  <r_i_glide_esite>  (92) 
0

>  <r_i_glide_emodel>  (92) 
-29.4286

>  <r_i_glide_energy>  (92) 
-22.0255

>  <r_i_glide_einternal>  (92) 
1.2774

>  <r_i_glide_intrahb_reward>  (92) 
-0

>  <i_i_glide_confnum>  (92) 
4

>  <i_i_glide_posenum>  (92) 
14

>  <r_i_glide_eff_state_penalty>  (92) 
0

>  <ligand_id>  (92) 
27

>  <original_smiles>  (92) 
CC12CC=C(c3cc(O)oc3O)C(O1)C2(C)C

>  <smiles>  (92) 
[H]Oc1oc([O-])c(C2=C([H])C([H])([H])C3(C([H])([H])[H])OC2([H])C3(C([H])([H])[H])C([H])([H])[H])c1[H]

$$$$
28:0:0
     RDKit          3D

 38 40  0  0  1  0  0  0  0  0999 V2000
    3.4812   -2.2556   -2.1339 C   0  0  0  0  0  0  0  0  0  0  0  0
    4.5707   -2.0744   -0.6734 S   0  0  0  0  0  0  0  0  0  0  0  0
    5.5685   -1.0457   -0.9472 O   0  0  0  0  0  0  0  0  0  0  0  0
    3.7068   -1.9677    0.5291 O   0  0  0  0  0  0  0  0  0  0  0  0
    5.4033   -3.5833   -0.6023 N   0  0  0  0  0  0  0  0  0  0  0  0
    6.5602   -3.7455    0.2881 C   0  0  0  0  0  0  0  0  0  0  0  0
    6.3567   -5.0599    1.0662 C   0  0  0  0  0  0  0  0  0  0  0  0
    4.9023   -5.4657    0.8123 C   0  0  1  0  0  0  0  0  0  0  0  0
    4.6414   -6.9792    0.7726 C   0  0  0  0  0  0  0  0  0  0  0  0
    3.5337   -7.2038    1.7849 C   0  0  0  0  0  0  0  0  0  0  0  0
    2.8417   -5.9302    1.8605 N   0  0  0  0  0  0  0  0  0  0  0  0
    1.9627   -5.8193    3.0219 C   0  0  0  0  0  0  0  0  0  0  0  0
    0.8774   -6.8519    3.0006 C   0  0  0  0  0  0  0  0  0  0  0  0
   -0.3068   -6.6908    2.3953 N   0  0  0  0  0  0  0  0  0  0  0  0
   -1.1195   -7.8289    2.4990 C   0  0  0  0  0  0  0  0  0  0  0  0
   -0.5218   -8.8693    3.1706 C   0  0  0  0  0  0  0  0  0  0  0  0
    1.0688   -8.4564    3.7257 S   0  0  0  0  0  0  0  0  0  0  0  0
    3.9379   -4.9854    1.9042 C   0  0  0  0  0  0  0  0  0  0  0  0
    4.6250   -4.8141   -0.5443 C   0  0  0  0  0  0  0  0  0  0  0  0
    2.8843   -1.3496   -2.2344 H   0  0  0  0  0  0  0  0  0  0  0  0
    2.7901   -3.0852   -2.0004 H   0  0  0  0  0  0  0  0  0  0  0  0
    4.1011   -2.4273   -3.0118 H   0  0  0  0  0  0  0  0  0  0  0  0
    7.4702   -3.8188   -0.3046 H   0  0  0  0  0  0  0  0  0  0  0  0
    6.6461   -2.8953    0.9606 H   0  0  0  0  0  0  0  0  0  0  0  0
    7.0447   -5.8272    0.6916 H   0  0  0  0  0  0  0  0  0  0  0  0
    6.5828   -4.9464    2.1285 H   0  0  0  0  0  0  0  0  0  0  0  0
    4.2713   -7.3060   -0.2035 H   0  0  0  0  0  0  0  0  0  0  0  0
    5.5148   -7.5903    1.0122 H   0  0  0  0  0  0  0  0  0  0  0  0
    2.8509   -7.9633    1.4295 H   0  0  0  0  0  0  0  0  0  0  0  0
    3.9470   -7.4701    2.7591 H   0  0  0  0  0  0  0  0  0  0  0  0
    2.5270   -5.9068    3.9505 H   0  0  0  0  0  0  0  0  0  0  0  0
    1.4967   -4.8397    3.0199 H   0  0  0  0  0  0  0  0  0  0  0  0
   -2.1184   -7.8261    2.0856 H   0  0  0  0  0  0  0  0  0  0  0  0
   -0.9312   -9.8421    3.3897 H   0  0  0  0  0  0  0  0  0  0  0  0
    4.3937   -4.9942    2.8945 H   0  0  0  0  0  0  0  0  0  0  0  0
    3.5405   -4.0049    1.7124 H   0  0  0  0  0  0  0  0  0  0  0  0
    3.5615   -4.6619   -0.7194 H   0  0  0  0  0  0  0  0  0  0  0  0
    5.0103   -5.4428   -1.3481 H   0  0  0  0  0  0  0  0  0  0  0  0
  1  2  1  0
  1 20  1  0
  1 21  1  0
  1 22  1  0
  2  3  2  0
  2  4  2  0
  2  5  1  0
  5 19  1  0
  5  6  1  0
  6  7  1  0
  6 23  1  0
  6 24  1  0
  8  7  1  1
  7 25  1  0
  7 26  1  0
  8 18  1  0
  8  9  1  0
  8 19  1  0
  9 10  1  0
  9 27  1  0
  9 28  1  0
 10 11  1  0
 10 29  1  0
 10 30  1  0
 11 12  1  0
 11 18  1  0
 12 13  1  0
 12 31  1  0
 12 32  1  0
 13 17  1  0
 13 14  2  0
 14 15  1  0
 15 16  2  0
 15 33  1  0
 16 17  1  0
 16 34  1  0
 18 35  1  0
 18 36  1  0
 19 37  1  0
 19 38  1  0
M  END
>  <i_m_ct_stereo_status>  (93) 
1

>  <s_m_source_file>  (93) 
/var/tmp/pbs.5076255.sched01/tmpqllwm4fg/43asec3i7m.sdf

>  <i_m_source_file_index>  (93) 
6

>  <i_lp_mmshare_version>  (93) 
48012

>  <i_f3d_flags>  (93) 
0

>  <s_epik_input>  (93) 
W0NIM11TKD1PKSg9TylOKFtDSDJdMSlbQ0gyXVtDSDJdW0NAXTEyW0NIMl1bQ0gyXU4oW0NIMl0yKVtDSDJdYzNuW2NIXVtjSF1zMw==

>  <s_epik_cmdline>  (93) 
J2VwaWtfcHl0aG9uJywgJy1waHQnLCAnMi4wJywgJy1waCcsICc3LjAnLCAnLXRuJywgJzgnLCAnLW1hJywgJzIwMCcsICctaW1hZScsICc8aW5maWxlLm1hZT4nLCAnLW9tYWUnLCAnPG91dGZpbGUubWFlPic=

>  <r_epik_Ionization_Penalty>  (93) 
0.333729

>  <r_epik_Ionization_Penalty_Charging>  (93) 
0

>  <r_epik_Ionization_Penalty_Neutral>  (93) 
0.333729

>  <r_epik_State_Penalty>  (93) 
0.328934

>  <r_epik_Charging_Adjusted_Penalty>  (93) 
0.328934

>  <i_epik_Tot_Q>  (93) 
0

>  <i_epik_Tot_abs_Q>  (93) 
0

>  <s_lp_Force_Field>  (93) 
OPLS3e

>  <r_lp_Energy>  (93) 
-5.64761

>  <b_lp_Chiralities_Consistent>  (93) 
1

>  <s_lp_Variant>  (93) 
28:0-1

>  <s_i_glide_gridfile>  (93) 
pfpi4k_grid

>  <i_i_glide_lignum>  (93) 
6

>  <i_i_glide_rotatable_bonds>  (93) 
3

>  <r_i_docking_score>  (93) 
-3.70398

>  <r_i_glide_ligand_efficiency>  (93) 
-0.194946

>  <r_i_glide_ligand_efficiency_sa>  (93) 
-0.520195

>  <r_i_glide_ligand_efficiency_ln>  (93) 
-0.939038

>  <r_i_glide_gscore>  (93) 
-3.70398

>  <r_i_glide_lipo>  (93) 
-0.437652

>  <r_i_glide_hbond>  (93) 
-0.16

>  <r_i_glide_metal>  (93) 
-0

>  <r_i_glide_rewards>  (93) 
-1.43588

>  <r_i_glide_evdw>  (93) 
-25.7049

>  <r_i_glide_ecoul>  (93) 
-4.50151

>  <r_i_glide_erotb>  (93) 
0.404948

>  <r_i_glide_esite>  (93) 
-0.114917

>  <r_i_glide_emodel>  (93) 
-36.1187

>  <r_i_glide_energy>  (93) 
-30.2064

>  <r_i_glide_einternal>  (93) 
2.90253

>  <r_i_glide_intrahb_reward>  (93) 
-0

>  <i_i_glide_confnum>  (93) 
4

>  <i_i_glide_posenum>  (93) 
8

>  <r_i_glide_eff_state_penalty>  (93) 
0

>  <ligand_id>  (93) 
28

>  <original_smiles>  (93) 
CS(=O)(=O)N1CCC2(CCN(Cc3nccs3)C2)C1

>  <smiles>  (93) 
[H]c1nc(C([H])([H])N2C([H])([H])C([H])([H])C3(C2([H])[H])C([H])([H])N(S(=O)(=O)C([H])([H])[H])C([H])([H])C3([H])[H])sc1[H]

$$$$
28:0:1
     RDKit          3D

 38 40  0  0  1  0  0  0  0  0999 V2000
    3.4062   -1.4869    0.2717 C   0  0  0  0  0  0  0  0  0  0  0  0
    4.3873   -1.8857   -1.2497 S   0  0  0  0  0  0  0  0  0  0  0  0
    3.4190   -2.3721   -2.2815 O   0  0  0  0  0  0  0  0  0  0  0  0
    5.2846   -0.7815   -1.5409 O   0  0  0  0  0  0  0  0  0  0  0  0
    5.4042   -3.2522   -0.8575 N   0  0  0  0  0  0  0  0  0  0  0  0
    6.4991   -3.1160    0.1161 C   0  0  0  0  0  0  0  0  0  0  0  0
    6.3943   -4.3197    1.0693 C   0  0  0  0  0  0  0  0  0  0  0  0
    5.0542   -4.9813    0.7418 C   0  0  1  0  0  0  0  0  0  0  0  0
    4.9871   -6.5079    0.8837 C   0  0  0  0  0  0  0  0  0  0  0  0
    3.8046   -6.7552    1.7990 C   0  0  0  0  0  0  0  0  0  0  0  0
    2.9658   -5.5739    1.6248 N   0  0  0  0  0  0  0  0  0  0  0  0
    1.9180   -5.4585    2.6547 C   0  0  0  0  0  0  0  0  0  0  0  0
    0.9850   -6.6305    2.6782 C   0  0  0  0  0  0  0  0  0  0  0  0
   -0.1799   -6.6469    2.0278 N   0  0  0  0  0  0  0  0  0  0  0  0
   -0.8641   -7.8574    2.1778 C   0  0  0  0  0  0  0  0  0  0  0  0
   -0.1821   -8.7665    2.9382 C   0  0  0  0  0  0  0  0  0  0  0  0
    1.3308   -8.1264    3.5207 S   0  0  0  0  0  0  0  0  0  0  0  0
    3.9363   -4.5177    1.6767 C   0  0  0  0  0  0  0  0  0  0  0  0
    4.8250   -4.5742   -0.7147 C   0  0  0  0  0  0  0  0  0  0  0  0
    2.8520   -0.5652    0.1276 H   0  0  0  0  0  0  0  0  0  0  0  0
    4.0768   -1.4011    1.1280 H   0  0  0  0  0  0  0  0  0  0  0  0
    2.6063   -2.2085    0.3921 H   0  0  0  0  0  0  0  0  0  0  0  0
    7.4573   -3.1404   -0.4026 H   0  0  0  0  0  0  0  0  0  0  0  0
    6.4221   -2.1648    0.6401 H   0  0  0  0  0  0  0  0  0  0  0  0
    7.2098   -5.0200    0.8975 H   0  0  0  0  0  0  0  0  0  0  0  0
    6.4516   -4.0112    2.1116 H   0  0  0  0  0  0  0  0  0  0  0  0
    4.7838   -6.9813   -0.0826 H   0  0  0  0  0  0  0  0  0  0  0  0
    5.9008   -6.9320    1.2939 H   0  0  0  0  0  0  0  0  0  0  0  0
    3.2625   -7.6580    1.5220 H   0  0  0  0  0  0  0  0  0  0  0  0
    4.1248   -6.8036    2.8406 H   0  0  0  0  0  0  0  0  0  0  0  0
    2.3812   -5.3226    3.6434 H   0  0  0  0  0  0  0  0  0  0  0  0
    1.3370   -4.5418    2.4563 H   0  0  0  0  0  0  0  0  0  0  0  0
   -1.8233   -7.9806    1.7097 H   0  0  0  0  0  0  0  0  0  0  0  0
   -0.4807   -9.7784    3.1989 H   0  0  0  0  0  0  0  0  0  0  0  0
    4.2935   -4.2723    2.6960 H   0  0  0  0  0  0  0  0  0  0  0  0
    3.4922   -3.6296    1.3132 H   0  0  0  0  0  0  0  0  0  0  0  0
    3.7840   -4.6178   -1.0298 H   0  0  0  0  0  0  0  0  0  0  0  0
    5.3772   -5.2362   -1.3718 H   0  0  0  0  0  0  0  0  0  0  0  0
  1  2  1  0
  1 20  1  0
  1 21  1  0
  1 22  1  0
  2  3  2  0
  2  4  2  0
  2  5  1  0
  5 19  1  0
  5  6  1  0
  6  7  1  0
  6 23  1  0
  6 24  1  0
  8  7  1  1
  7 25  1  0
  7 26  1  0
  8 18  1  0
  8  9  1  0
  8 19  1  0
  9 10  1  0
  9 27  1  0
  9 28  1  0
 10 11  1  0
 10 29  1  0
 10 30  1  0
 11 12  1  0
 11 18  1  0
 12 13  1  0
 12 31  1  0
 12 32  1  0
 13 17  1  0
 13 14  2  0
 14 15  1  0
 15 16  2  0
 15 33  1  0
 16 17  1  0
 16 34  1  0
 18 35  1  0
 18 36  1  0
 19 37  1  0
 19 38  1  0
M  END
>  <i_m_ct_stereo_status>  (94) 
1

>  <s_m_source_file>  (94) 
/var/tmp/pbs.5076255.sched01/tmpqllwm4fg/43asec3i7m.sdf

>  <i_m_source_file_index>  (94) 
6

>  <i_lp_mmshare_version>  (94) 
48012

>  <i_f3d_flags>  (94) 
0

>  <s_epik_input>  (94) 
W0NIM11TKD1PKSg9TylOKFtDSDJdMSlbQ0gyXVtDSDJdW0NAXTEyW0NIMl1bQ0gyXU4oW0NIMl0yKVtDSDJdYzNuW2NIXVtjSF1zMw==

>  <s_epik_cmdline>  (94) 
J2VwaWtfcHl0aG9uJywgJy1waHQnLCAnMi4wJywgJy1waCcsICc3LjAnLCAnLXRuJywgJzgnLCAnLW1hJywgJzIwMCcsICctaW1hZScsICc8aW5maWxlLm1hZT4nLCAnLW9tYWUnLCAnPG91dGZpbGUubWFlPic=

>  <r_epik_Ionization_Penalty>  (94) 
0.333729

>  <r_epik_Ionization_Penalty_Charging>  (94) 
0

>  <r_epik_Ionization_Penalty_Neutral>  (94) 
0.333729

>  <r_epik_State_Penalty>  (94) 
0.328934

>  <r_epik_Charging_Adjusted_Penalty>  (94) 
0.328934

>  <i_epik_Tot_Q>  (94) 
0

>  <i_epik_Tot_abs_Q>  (94) 
0

>  <s_lp_Force_Field>  (94) 
OPLS3e

>  <r_lp_Energy>  (94) 
-5.64761

>  <b_lp_Chiralities_Consistent>  (94) 
1

>  <s_lp_Variant>  (94) 
28:0-1

>  <s_i_glide_gridfile>  (94) 
pfpi4k_grid

>  <i_i_glide_lignum>  (94) 
6

>  <i_i_glide_rotatable_bonds>  (94) 
3

>  <r_i_docking_score>  (94) 
-3.64909

>  <r_i_glide_ligand_efficiency>  (94) 
-0.192057

>  <r_i_glide_ligand_efficiency_sa>  (94) 
-0.512486

>  <r_i_glide_ligand_efficiency_ln>  (94) 
-0.925123

>  <r_i_glide_gscore>  (94) 
-3.64909

>  <r_i_glide_lipo>  (94) 
-0.412365

>  <r_i_glide_hbond>  (94) 
-0.179829

>  <r_i_glide_metal>  (94) 
-0

>  <r_i_glide_rewards>  (94) 
-1.43734

>  <r_i_glide_evdw>  (94) 
-24.8095

>  <r_i_glide_ecoul>  (94) 
-4.44896

>  <r_i_glide_erotb>  (94) 
0.404948

>  <r_i_glide_esite>  (94) 
-0.116682

>  <r_i_glide_emodel>  (94) 
-35.4314

>  <r_i_glide_energy>  (94) 
-29.2585

>  <r_i_glide_einternal>  (94) 
0.325285

>  <r_i_glide_intrahb_reward>  (94) 
-0

>  <i_i_glide_confnum>  (94) 
4

>  <i_i_glide_posenum>  (94) 
11

>  <r_i_glide_eff_state_penalty>  (94) 
0

>  <ligand_id>  (94) 
28

>  <original_smiles>  (94) 
CS(=O)(=O)N1CCC2(CCN(Cc3nccs3)C2)C1

>  <smiles>  (94) 
[H]c1nc(C([H])([H])N2C([H])([H])C([H])([H])C3(C2([H])[H])C([H])([H])N(S(=O)(=O)C([H])([H])[H])C([H])([H])C3([H])[H])sc1[H]

$$$$
28:0:2
     RDKit          3D

 38 40  0  0  1  0  0  0  0  0999 V2000
    3.7444   -1.6203   -1.9656 C   0  0  0  0  0  0  0  0  0  0  0  0
    4.7382   -1.7164   -0.4450 S   0  0  0  0  0  0  0  0  0  0  0  0
    5.8080   -0.6975   -0.5487 O   0  0  0  0  0  0  0  0  0  0  0  0
    3.8419   -1.6972    0.7045 O   0  0  0  0  0  0  0  0  0  0  0  0
    5.4890   -3.2637   -0.5581 N   0  0  0  0  0  0  0  0  0  0  0  0
    6.6917   -3.5753    0.2234 C   0  0  0  0  0  0  0  0  0  0  0  0
    6.4506   -4.9320    0.9101 C   0  0  0  0  0  0  0  0  0  0  0  0
    4.9526   -5.2164    0.7407 C   0  0  1  0  0  0  0  0  0  0  0  0
    4.5966   -6.7046    0.6172 C   0  0  0  0  0  0  0  0  0  0  0  0
    3.5493   -6.9281    1.6984 C   0  0  0  0  0  0  0  0  0  0  0  0
    2.9594   -5.6170    1.9133 N   0  0  0  0  0  0  0  0  0  0  0  0
    2.1443   -5.5267    3.1147 C   0  0  0  0  0  0  0  0  0  0  0  0
    0.8780   -6.3460    3.0113 C   0  0  0  0  0  0  0  0  0  0  0  0
    0.4082   -6.8933    1.8742 N   0  0  0  0  0  0  0  0  0  0  0  0
   -0.6917   -7.7360    2.0863 C   0  0  0  0  0  0  0  0  0  0  0  0
   -1.1792   -7.6639    3.3525 C   0  0  0  0  0  0  0  0  0  0  0  0
   -0.1890   -6.6884    4.3951 S   0  0  0  0  0  0  0  0  0  0  0  0
    4.1168   -4.7623    1.9512 C   0  0  0  0  0  0  0  0  0  0  0  0
    4.6276   -4.4428   -0.5540 C   0  0  0  0  0  0  0  0  0  0  0  0
    3.2178   -0.6635   -1.9682 H   0  0  0  0  0  0  0  0  0  0  0  0
    2.9923   -2.4093   -1.9520 H   0  0  0  0  0  0  0  0  0  0  0  0
    4.3958   -1.7186   -2.8344 H   0  0  0  0  0  0  0  0  0  0  0  0
    7.5525   -3.6657   -0.4364 H   0  0  0  0  0  0  0  0  0  0  0  0
    6.8833   -2.7949    0.9539 H   0  0  0  0  0  0  0  0  0  0  0  0
    7.0531   -5.7157    0.4326 H   0  0  0  0  0  0  0  0  0  0  0  0
    6.7508   -4.9209    1.9601 H   0  0  0  0  0  0  0  0  0  0  0  0
    4.1351   -6.9314   -0.3452 H   0  0  0  0  0  0  0  0  0  0  0  0
    5.4366   -7.3898    0.7473 H   0  0  0  0  0  0  0  0  0  0  0  0
    2.8210   -7.6352    1.3231 H   0  0  0  0  0  0  0  0  0  0  0  0
    4.0080   -7.2990    2.6211 H   0  0  0  0  0  0  0  0  0  0  0  0
    2.7132   -5.8438    3.9794 H   0  0  0  0  0  0  0  0  0  0  0  0
    1.8459   -4.5025    3.2984 H   0  0  0  0  0  0  0  0  0  0  0  0
   -1.0699   -8.3221    1.2522 H   0  0  0  0  0  0  0  0  0  0  0  0
   -2.0435   -8.1598    3.7565 H   0  0  0  0  0  0  0  0  0  0  0  0
    4.6361   -4.8973    2.8939 H   0  0  0  0  0  0  0  0  0  0  0  0
    3.7821   -3.7483    1.8595 H   0  0  0  0  0  0  0  0  0  0  0  0
    3.5695   -4.1894   -0.6398 H   0  0  0  0  0  0  0  0  0  0  0  0
    4.9147   -5.0274   -1.4313 H   0  0  0  0  0  0  0  0  0  0  0  0
  1  2  1  0
  1 20  1  0
  1 21  1  0
  1 22  1  0
  2  3  2  0
  2  4  2  0
  2  5  1  0
  5 19  1  0
  5  6  1  0
  6  7  1  0
  6 23  1  0
  6 24  1  0
  8  7  1  1
  7 25  1  0
  7 26  1  0
  8 18  1  0
  8  9  1  0
  8 19  1  0
  9 10  1  0
  9 27  1  0
  9 28  1  0
 10 11  1  0
 10 29  1  0
 10 30  1  0
 11 12  1  0
 11 18  1  0
 12 13  1  0
 12 31  1  0
 12 32  1  0
 13 17  1  0
 13 14  2  0
 14 15  1  0
 15 16  2  0
 15 33  1  0
 16 17  1  0
 16 34  1  0
 18 35  1  0
 18 36  1  0
 19 37  1  0
 19 38  1  0
M  END
>  <i_m_ct_stereo_status>  (95) 
1

>  <s_m_source_file>  (95) 
/var/tmp/pbs.5076255.sched01/tmpqllwm4fg/43asec3i7m.sdf

>  <i_m_source_file_index>  (95) 
6

>  <i_lp_mmshare_version>  (95) 
48012

>  <i_f3d_flags>  (95) 
0

>  <s_epik_input>  (95) 
W0NIM11TKD1PKSg9TylOKFtDSDJdMSlbQ0gyXVtDSDJdW0NAXTEyW0NIMl1bQ0gyXU4oW0NIMl0yKVtDSDJdYzNuW2NIXVtjSF1zMw==

>  <s_epik_cmdline>  (95) 
J2VwaWtfcHl0aG9uJywgJy1waHQnLCAnMi4wJywgJy1waCcsICc3LjAnLCAnLXRuJywgJzgnLCAnLW1hJywgJzIwMCcsICctaW1hZScsICc8aW5maWxlLm1hZT4nLCAnLW9tYWUnLCAnPG91dGZpbGUubWFlPic=

>  <r_epik_Ionization_Penalty>  (95) 
0.333729

>  <r_epik_Ionization_Penalty_Charging>  (95) 
0

>  <r_epik_Ionization_Penalty_Neutral>  (95) 
0.333729

>  <r_epik_State_Penalty>  (95) 
0.328934

>  <r_epik_Charging_Adjusted_Penalty>  (95) 
0.328934

>  <i_epik_Tot_Q>  (95) 
0

>  <i_epik_Tot_abs_Q>  (95) 
0

>  <s_lp_Force_Field>  (95) 
OPLS3e

>  <r_lp_Energy>  (95) 
-5.64761

>  <b_lp_Chiralities_Consistent>  (95) 
1

>  <s_lp_Variant>  (95) 
28:0-1

>  <s_i_glide_gridfile>  (95) 
pfpi4k_grid

>  <i_i_glide_lignum>  (95) 
6

>  <i_i_glide_rotatable_bonds>  (95) 
3

>  <r_i_docking_score>  (95) 
-3.37267

>  <r_i_glide_ligand_efficiency>  (95) 
-0.177509

>  <r_i_glide_ligand_efficiency_sa>  (95) 
-0.473666

>  <r_i_glide_ligand_efficiency_ln>  (95) 
-0.855045

>  <r_i_glide_gscore>  (95) 
-3.37267

>  <r_i_glide_lipo>  (95) 
-0.467157

>  <r_i_glide_hbond>  (95) 
0

>  <r_i_glide_metal>  (95) 
-0

>  <r_i_glide_rewards>  (95) 
-1.42772

>  <r_i_glide_evdw>  (95) 
-26.7188

>  <r_i_glide_ecoul>  (95) 
-2.87572

>  <r_i_glide_erotb>  (95) 
0.404948

>  <r_i_glide_esite>  (95) 
-0.115447

>  <r_i_glide_emodel>  (95) 
-33.2645

>  <r_i_glide_energy>  (95) 
-29.5945

>  <r_i_glide_einternal>  (95) 
5.45458

>  <r_i_glide_intrahb_reward>  (95) 
-0

>  <i_i_glide_confnum>  (95) 
4

>  <i_i_glide_posenum>  (95) 
1

>  <r_i_glide_eff_state_penalty>  (95) 
0

>  <ligand_id>  (95) 
28

>  <original_smiles>  (95) 
CS(=O)(=O)N1CCC2(CCN(Cc3nccs3)C2)C1

>  <smiles>  (95) 
[H]c1nc(C([H])([H])N2C([H])([H])C([H])([H])C3(C2([H])[H])C([H])([H])N(S(=O)(=O)C([H])([H])[H])C([H])([H])C3([H])[H])sc1[H]

$$$$
28:1:0
     RDKit          3D

 39 41  0  0  1  0  0  0  0  0999 V2000
    0.4880   -9.3304    3.0848 C   0  0  0  0  0  0  0  0  0  0  0  0
    0.6337   -7.5045    3.0690 S   0  0  0  0  0  0  0  0  0  0  0  0
   -0.5646   -6.9313    2.4432 O   0  0  0  0  0  0  0  0  0  0  0  0
    1.0565   -7.0333    4.4069 O   0  0  0  0  0  0  0  0  0  0  0  0
    1.9531   -7.2298    1.9984 N   0  0  0  0  0  0  0  0  0  0  0  0
    3.3028   -7.6222    2.4047 C   0  0  0  0  0  0  0  0  0  0  0  0
    4.0489   -6.3136    2.6103 C   0  0  0  0  0  0  0  0  0  0  0  0
    3.4558   -5.3652    1.5620 C   0  0  1  0  0  0  0  0  0  0  0  0
    3.5254   -3.8625    1.9458 C   0  0  0  0  0  0  0  0  0  0  0  0
    4.2503   -3.1726    0.7814 C   0  0  0  0  0  0  0  0  0  0  0  0
    4.0956   -4.0877   -0.3665 N   0  0  1  0  0  0  0  0  0  0  0  0
    5.0233   -3.8856   -1.5064 C   0  0  0  0  0  0  0  0  0  0  0  0
    4.4596   -2.7571   -2.3020 C   0  0  0  0  0  0  0  0  0  0  0  0
    4.7824   -1.4793   -2.0992 N   0  0  0  0  0  0  0  0  0  0  0  0
    4.1965   -0.6284   -3.0394 C   0  0  0  0  0  0  0  0  0  0  0  0
    3.4220   -1.2902   -3.9630 C   0  0  0  0  0  0  0  0  0  0  0  0
    3.3676   -2.9981   -3.6636 S   0  0  0  0  0  0  0  0  0  0  0  0
    4.2171   -5.4322    0.2179 C   0  0  0  0  0  0  0  0  0  0  0  0
    2.0164   -5.9017    1.3807 C   0  0  0  0  0  0  0  0  0  0  0  0
   -0.3254   -9.6295    3.7453 H   0  0  0  0  0  0  0  0  0  0  0  0
    1.4181   -9.7733    3.4349 H   0  0  0  0  0  0  0  0  0  0  0  0
    0.2802   -9.6778    2.0738 H   0  0  0  0  0  0  0  0  0  0  0  0
    3.3165   -8.2412    3.3006 H   0  0  0  0  0  0  0  0  0  0  0  0
    3.7619   -8.1672    1.5864 H   0  0  0  0  0  0  0  0  0  0  0  0
    3.8594   -5.9539    3.6197 H   0  0  0  0  0  0  0  0  0  0  0  0
    5.1225   -6.4448    2.4984 H   0  0  0  0  0  0  0  0  0  0  0  0
    2.5334   -3.4236    2.0648 H   0  0  0  0  0  0  0  0  0  0  0  0
    4.0480   -3.6849    2.8901 H   0  0  0  0  0  0  0  0  0  0  0  0
    3.8937   -2.1537    0.6061 H   0  0  0  0  0  0  0  0  0  0  0  0
    5.3035   -3.1166    1.0421 H   0  0  0  0  0  0  0  0  0  0  0  0
    6.0401   -3.6533   -1.1908 H   0  0  0  0  0  0  0  0  0  0  0  0
    5.0658   -4.7688   -2.1511 H   0  0  0  0  0  0  0  0  0  0  0  0
    4.3820    0.4384   -2.9993 H   0  0  0  0  0  0  0  0  0  0  0  0
    2.8699   -0.8616   -4.7861 H   0  0  0  0  0  0  0  0  0  0  0  0
    5.2794   -5.6281    0.3753 H   0  0  0  0  0  0  0  0  0  0  0  0
    3.8622   -6.2267   -0.4436 H   0  0  0  0  0  0  0  0  0  0  0  0
    1.7371   -6.0051    0.3317 H   0  0  0  0  0  0  0  0  0  0  0  0
    1.2798   -5.2438    1.8416 H   0  0  0  0  0  0  0  0  0  0  0  0
    3.1425   -3.9982   -0.6866 H   0  0  0  0  0  0  0  0  0  0  0  0
  1  2  1  0
  1 20  1  0
  1 21  1  0
  1 22  1  0
  2  3  2  0
  2  4  2  0
  2  5  1  0
  5 19  1  0
  5  6  1  0
  6  7  1  0
  6 23  1  0
  6 24  1  0
  8  7  1  1
  7 25  1  0
  7 26  1  0
  8 18  1  0
  8  9  1  0
  8 19  1  0
  9 10  1  0
  9 27  1  0
  9 28  1  0
 10 11  1  0
 10 29  1  0
 10 30  1  0
 11 12  1  0
 11 18  1  0
 11 39  1  6
 12 13  1  0
 12 31  1  0
 12 32  1  0
 13 17  1  0
 13 14  2  0
 14 15  1  0
 15 16  2  0
 15 33  1  0
 16 17  1  0
 16 34  1  0
 18 35  1  0
 18 36  1  0
 19 37  1  0
 19 38  1  0
M  CHG  1  11   1
M  END
>  <i_m_ct_stereo_status>  (96) 
1

>  <s_m_source_file>  (96) 
/var/tmp/pbs.5076255.sched01/tmpqllwm4fg/43asec3i7m.sdf

>  <i_m_source_file_index>  (96) 
7

>  <i_lp_mmshare_version>  (96) 
48012

>  <i_f3d_flags>  (96) 
0

>  <s_epik_input>  (96) 
W0NIM11TKD1PKSg9TylOKFtDSDJdMSlbQ0gyXVtDSDJdW0NAXTEyW0NIMl1bQ0gyXU4oW0NIMl0yKVtDSDJdYzNuW2NIXVtjSF1zMw==

>  <s_epik_cmdline>  (96) 
J2VwaWtfcHl0aG9uJywgJy1waHQnLCAnMi4wJywgJy1waCcsICc3LjAnLCAnLXRuJywgJzgnLCAnLW1hJywgJzIwMCcsICctaW1hZScsICc8aW5maWxlLm1hZT4nLCAnLW9tYWUnLCAnPG91dGZpbGUubWFlPic=

>  <r_epik_Ionization_Penalty>  (96) 
0.49919

>  <r_epik_Ionization_Penalty_Charging>  (96) 
0.49919

>  <r_epik_Ionization_Penalty_Neutral>  (96) 
1.06608e-07

>  <r_epik_State_Penalty>  (96) 
0.505537

>  <r_epik_Charging_Adjusted_Penalty>  (96) 
1.00473

>  <i_epik_Tot_Q>  (96) 
1

>  <i_epik_Tot_abs_Q>  (96) 
1

>  <s_lp_Force_Field>  (96) 
OPLS3e

>  <r_lp_Energy>  (96) 
-3.91936

>  <b_lp_Chiralities_Consistent>  (96) 
1

>  <s_lp_Variant>  (96) 
28:0-2

>  <s_i_glide_gridfile>  (96) 
pfpi4k_grid

>  <i_i_glide_lignum>  (96) 
7

>  <i_i_glide_rotatable_bonds>  (96) 
3

>  <r_i_docking_score>  (96) 
-4.26393

>  <r_i_glide_ligand_efficiency>  (96) 
-0.224418

>  <r_i_glide_ligand_efficiency_sa>  (96) 
-0.598836

>  <r_i_glide_ligand_efficiency_ln>  (96) 
-1.081

>  <r_i_glide_gscore>  (96) 
-4.26393

>  <r_i_glide_lipo>  (96) 
-0.546446

>  <r_i_glide_hbond>  (96) 
0

>  <r_i_glide_metal>  (96) 
-0

>  <r_i_glide_rewards>  (96) 
-1.34701

>  <r_i_glide_evdw>  (96) 
-29.579

>  <r_i_glide_ecoul>  (96) 
-7.46536

>  <r_i_glide_erotb>  (96) 
0.402588

>  <r_i_glide_esite>  (96) 
-0.174309

>  <r_i_glide_emodel>  (96) 
-46.1854

>  <r_i_glide_energy>  (96) 
-37.0444

>  <r_i_glide_einternal>  (96) 
2.90633

>  <r_i_glide_intrahb_reward>  (96) 
-0

>  <i_i_glide_confnum>  (96) 
3

>  <i_i_glide_posenum>  (96) 
24

>  <r_i_glide_eff_state_penalty>  (96) 
0

>  <ligand_id>  (96) 
28

>  <original_smiles>  (96) 
CS(=O)(=O)N1CCC2(CCN(Cc3nccs3)C2)C1

>  <smiles>  (96) 
[H]c1nc(C([H])([H])[N+]2([H])C([H])([H])C([H])([H])C3(C([H])([H])N(S(=O)(=O)C([H])([H])[H])C([H])([H])C3([H])[H])C2([H])[H])sc1[H]

$$$$
28:1:1
     RDKit          3D

 39 41  0  0  1  0  0  0  0  0999 V2000
   -1.5427    2.0294    3.1548 C   0  0  0  0  0  0  0  0  0  0  0  0
   -0.7350    1.1290    4.5483 S   0  0  0  0  0  0  0  0  0  0  0  0
    0.2931    2.0077    5.1305 O   0  0  0  0  0  0  0  0  0  0  0  0
   -1.7683    0.5262    5.4177 O   0  0  0  0  0  0  0  0  0  0  0  0
    0.1025   -0.1692    3.7861 N   0  0  0  0  0  0  0  0  0  0  0  0
    0.9000   -1.0740    4.6285 C   0  0  0  0  0  0  0  0  0  0  0  0
    2.3427   -0.7891    4.2516 C   0  0  0  0  0  0  0  0  0  0  0  0
    2.2830   -0.4468    2.7537 C   0  0  1  0  0  0  0  0  0  0  0  0
    3.4147    0.4882    2.2749 C   0  0  0  0  0  0  0  0  0  0  0  0
    4.0723   -0.2469    1.1063 C   0  0  0  0  0  0  0  0  0  0  0  0
    3.0724   -1.2294    0.6297 N   0  0  1  0  0  0  0  0  0  0  0  0
    3.5855   -2.3411   -0.2130 C   0  0  0  0  0  0  0  0  0  0  0  0
    3.5859   -1.8548   -1.6270 C   0  0  0  0  0  0  0  0  0  0  0  0
    4.2785   -0.8122   -2.0815 N   0  0  0  0  0  0  0  0  0  0  0  0
    4.1017   -0.6081   -3.4555 C   0  0  0  0  0  0  0  0  0  0  0  0
    3.2949   -1.5589   -4.0284 C   0  0  0  0  0  0  0  0  0  0  0  0
    2.6612   -2.6853   -2.8785 S   0  0  0  0  0  0  0  0  0  0  0  0
    2.4244   -1.7010    1.8619 C   0  0  0  0  0  0  0  0  0  0  0  0
    0.8785    0.1662    2.5811 C   0  0  0  0  0  0  0  0  0  0  0  0
   -2.1507    2.8355    3.5656 H   0  0  0  0  0  0  0  0  0  0  0  0
   -2.1716    1.3354    2.5929 H   0  0  0  0  0  0  0  0  0  0  0  0
   -0.7993    2.4783    2.4857 H   0  0  0  0  0  0  0  0  0  0  0  0
    0.7132   -0.9220    5.6991 H   0  0  0  0  0  0  0  0  0  0  0  0
    0.6543   -2.1056    4.3622 H   0  0  0  0  0  0  0  0  0  0  0  0
    2.6982    0.0564    4.8459 H   0  0  0  0  0  0  0  0  0  0  0  0
    2.9774   -1.6516    4.4634 H   0  0  0  0  0  0  0  0  0  0  0  0
    3.0378    1.4493    1.9314 H   0  0  0  0  0  0  0  0  0  0  0  0
    4.1430    0.7197    3.0559 H   0  0  0  0  0  0  0  0  0  0  0  0
    4.4453    0.4475    0.3531 H   0  0  0  0  0  0  0  0  0  0  0  0
    4.9312   -0.7832    1.5047 H   0  0  0  0  0  0  0  0  0  0  0  0
    4.5807   -2.6671    0.0477 H   0  0  0  0  0  0  0  0  0  0  0  0
    2.9448   -3.2168   -0.1540 H   0  0  0  0  0  0  0  0  0  0  0  0
    4.6062    0.1926   -3.9554 H   0  0  0  0  0  0  0  0  0  0  0  0
    3.0078   -1.6267   -5.0555 H   0  0  0  0  0  0  0  0  0  0  0  0
    3.0952   -2.4330    2.3154 H   0  0  0  0  0  0  0  0  0  0  0  0
    1.4790   -2.2136    1.6607 H   0  0  0  0  0  0  0  0  0  0  0  0
    0.3461   -0.2438    1.7166 H   0  0  0  0  0  0  0  0  0  0  0  0
    0.9375    1.2463    2.4442 H   0  0  0  0  0  0  0  0  0  0  0  0
    2.3473   -0.7378    0.1109 H   0  0  0  0  0  0  0  0  0  0  0  0
  1  2  1  0
  1 20  1  0
  1 21  1  0
  1 22  1  0
  2  3  2  0
  2  4  2  0
  2  5  1  0
  5 19  1  0
  5  6  1  0
  6  7  1  0
  6 23  1  0
  6 24  1  0
  8  7  1  1
  7 25  1  0
  7 26  1  0
  8 18  1  0
  8  9  1  0
  8 19  1  0
  9 10  1  0
  9 27  1  0
  9 28  1  0
 10 11  1  0
 10 29  1  0
 10 30  1  0
 11 12  1  0
 11 18  1  0
 11 39  1  6
 12 13  1  0
 12 31  1  0
 12 32  1  0
 13 17  1  0
 13 14  2  0
 14 15  1  0
 15 16  2  0
 15 33  1  0
 16 17  1  0
 16 34  1  0
 18 35  1  0
 18 36  1  0
 19 37  1  0
 19 38  1  0
M  CHG  1  11   1
M  END
>  <i_m_ct_stereo_status>  (97) 
1

>  <s_m_source_file>  (97) 
/var/tmp/pbs.5076255.sched01/tmpqllwm4fg/43asec3i7m.sdf

>  <i_m_source_file_index>  (97) 
7

>  <i_lp_mmshare_version>  (97) 
48012

>  <i_f3d_flags>  (97) 
0

>  <s_epik_input>  (97) 
W0NIM11TKD1PKSg9TylOKFtDSDJdMSlbQ0gyXVtDSDJdW0NAXTEyW0NIMl1bQ0gyXU4oW0NIMl0yKVtDSDJdYzNuW2NIXVtjSF1zMw==

>  <s_epik_cmdline>  (97) 
J2VwaWtfcHl0aG9uJywgJy1waHQnLCAnMi4wJywgJy1waCcsICc3LjAnLCAnLXRuJywgJzgnLCAnLW1hJywgJzIwMCcsICctaW1hZScsICc8aW5maWxlLm1hZT4nLCAnLW9tYWUnLCAnPG91dGZpbGUubWFlPic=

>  <r_epik_Ionization_Penalty>  (97) 
0.49919

>  <r_epik_Ionization_Penalty_Charging>  (97) 
0.49919

>  <r_epik_Ionization_Penalty_Neutral>  (97) 
1.06608e-07

>  <r_epik_State_Penalty>  (97) 
0.505537

>  <r_epik_Charging_Adjusted_Penalty>  (97) 
1.00473

>  <i_epik_Tot_Q>  (97) 
1

>  <i_epik_Tot_abs_Q>  (97) 
1

>  <s_lp_Force_Field>  (97) 
OPLS3e

>  <r_lp_Energy>  (97) 
-3.91936

>  <b_lp_Chiralities_Consistent>  (97) 
1

>  <s_lp_Variant>  (97) 
28:0-2

>  <s_i_glide_gridfile>  (97) 
pfpi4k_grid

>  <i_i_glide_lignum>  (97) 
7

>  <i_i_glide_rotatable_bonds>  (97) 
3

>  <r_i_docking_score>  (97) 
-4.16933

>  <r_i_glide_ligand_efficiency>  (97) 
-0.219439

>  <r_i_glide_ligand_efficiency_sa>  (97) 
-0.58555

>  <r_i_glide_ligand_efficiency_ln>  (97) 
-1.05702

>  <r_i_glide_gscore>  (97) 
-4.16933

>  <r_i_glide_lipo>  (97) 
-0.434205

>  <r_i_glide_hbond>  (97) 
-0.173862

>  <r_i_glide_metal>  (97) 
-0

>  <r_i_glide_rewards>  (97) 
-1.34701

>  <r_i_glide_evdw>  (97) 
-25.9575

>  <r_i_glide_ecoul>  (97) 
-7.68969

>  <r_i_glide_erotb>  (97) 
0.402588

>  <r_i_glide_esite>  (97) 
-0.165516

>  <r_i_glide_emodel>  (97) 
-40.9511

>  <r_i_glide_energy>  (97) 
-33.6471

>  <r_i_glide_einternal>  (97) 
5.47071

>  <r_i_glide_intrahb_reward>  (97) 
-0

>  <i_i_glide_confnum>  (97) 
3

>  <i_i_glide_posenum>  (97) 
20

>  <r_i_glide_eff_state_penalty>  (97) 
0

>  <ligand_id>  (97) 
28

>  <original_smiles>  (97) 
CS(=O)(=O)N1CCC2(CCN(Cc3nccs3)C2)C1

>  <smiles>  (97) 
[H]c1nc(C([H])([H])[N+]2([H])C([H])([H])C([H])([H])C3(C([H])([H])N(S(=O)(=O)C([H])([H])[H])C([H])([H])C3([H])[H])C2([H])[H])sc1[H]

$$$$
28:1:2
     RDKit          3D

 39 41  0  0  1  0  0  0  0  0999 V2000
    0.5627    1.4963    5.6877 C   0  0  0  0  0  0  0  0  0  0  0  0
   -0.6654    0.3677    4.9199 S   0  0  0  0  0  0  0  0  0  0  0  0
   -1.3870   -0.3364    5.9939 O   0  0  0  0  0  0  0  0  0  0  0  0
   -1.4032    1.1302    3.9029 O   0  0  0  0  0  0  0  0  0  0  0  0
    0.3021   -0.7895    4.0822 N   0  0  0  0  0  0  0  0  0  0  0  0
    1.2197   -1.6534    4.8244 C   0  0  0  0  0  0  0  0  0  0  0  0
    2.5968   -1.2008    4.3790 C   0  0  0  0  0  0  0  0  0  0  0  0
    2.4081   -0.8130    2.9018 C   0  0  1  0  0  0  0  0  0  0  0  0
    3.3949    0.2607    2.3954 C   0  0  0  0  0  0  0  0  0  0  0  0
    4.0714   -0.3608    1.1732 C   0  0  0  0  0  0  0  0  0  0  0  0
    3.1544   -1.4214    0.7091 N   0  0  1  0  0  0  0  0  0  0  0  0
    3.7500   -2.4499   -0.1841 C   0  0  0  0  0  0  0  0  0  0  0  0
    3.6878   -1.9107   -1.5752 C   0  0  0  0  0  0  0  0  0  0  0  0
    4.3606   -0.8403   -2.0004 N   0  0  0  0  0  0  0  0  0  0  0  0
    4.1308   -0.5868   -3.3538 C   0  0  0  0  0  0  0  0  0  0  0  0
    3.3238   -1.5098   -3.9575 C   0  0  0  0  0  0  0  0  0  0  0  0
    2.7489   -2.7015   -2.8385 S   0  0  0  0  0  0  0  0  0  0  0  0
    2.6370   -2.0080    1.9539 C   0  0  0  0  0  0  0  0  0  0  0  0
    0.9333   -0.3612    2.8282 C   0  0  0  0  0  0  0  0  0  0  0  0
    0.0158    2.2746    6.2221 H   0  0  0  0  0  0  0  0  0  0  0  0
    1.1753    1.9579    4.9111 H   0  0  0  0  0  0  0  0  0  0  0  0
    1.1848    0.9406    6.3894 H   0  0  0  0  0  0  0  0  0  0  0  0
    1.0738   -1.5838    5.9060 H   0  0  0  0  0  0  0  0  0  0  0  0
    1.0496   -2.6874    4.5137 H   0  0  0  0  0  0  0  0  0  0  0  0
    2.8934   -0.3319    4.9719 H   0  0  0  0  0  0  0  0  0  0  0  0
    3.3518   -1.9790    4.5269 H   0  0  0  0  0  0  0  0  0  0  0  0
    2.8790    1.1760    2.0969 H   0  0  0  0  0  0  0  0  0  0  0  0
    4.1283    0.5575    3.1501 H   0  0  0  0  0  0  0  0  0  0  0  0
    4.3287    0.3882    0.4257 H   0  0  0  0  0  0  0  0  0  0  0  0
    4.9999   -0.8186    1.5149 H   0  0  0  0  0  0  0  0  0  0  0  0
    4.7792   -2.6859    0.0777 H   0  0  0  0  0  0  0  0  0  0  0  0
    3.1815   -3.3774   -0.1427 H   0  0  0  0  0  0  0  0  0  0  0  0
    4.5874    0.2650   -3.8267 H   0  0  0  0  0  0  0  0  0  0  0  0
    3.0150   -1.5398   -4.9852 H   0  0  0  0  0  0  0  0  0  0  0  0
    3.4065   -2.6735    2.3553 H   0  0  0  0  0  0  0  0  0  0  0  0
    1.7509   -2.6286    1.7899 H   0  0  0  0  0  0  0  0  0  0  0  0
    0.4103   -0.8390    1.9944 H   0  0  0  0  0  0  0  0  0  0  0  0
    0.8149    0.7142    2.6774 H   0  0  0  0  0  0  0  0  0  0  0  0
    2.3670   -0.9977    0.2325 H   0  0  0  0  0  0  0  0  0  0  0  0
  1  2  1  0
  1 20  1  0
  1 21  1  0
  1 22  1  0
  2  3  2  0
  2  4  2  0
  2  5  1  0
  5 19  1  0
  5  6  1  0
  6  7  1  0
  6 23  1  0
  6 24  1  0
  8  7  1  1
  7 25  1  0
  7 26  1  0
  8 18  1  0
  8  9  1  0
  8 19  1  0
  9 10  1  0
  9 27  1  0
  9 28  1  0
 10 11  1  0
 10 29  1  0
 10 30  1  0
 11 12  1  0
 11 18  1  0
 11 39  1  6
 12 13  1  0
 12 31  1  0
 12 32  1  0
 13 17  1  0
 13 14  2  0
 14 15  1  0
 15 16  2  0
 15 33  1  0
 16 17  1  0
 16 34  1  0
 18 35  1  0
 18 36  1  0
 19 37  1  0
 19 38  1  0
M  CHG  1  11   1
M  END
>  <i_m_ct_stereo_status>  (98) 
1

>  <s_m_source_file>  (98) 
/var/tmp/pbs.5076255.sched01/tmpqllwm4fg/43asec3i7m.sdf

>  <i_m_source_file_index>  (98) 
7

>  <i_lp_mmshare_version>  (98) 
48012

>  <i_f3d_flags>  (98) 
0

>  <s_epik_input>  (98) 
W0NIM11TKD1PKSg9TylOKFtDSDJdMSlbQ0gyXVtDSDJdW0NAXTEyW0NIMl1bQ0gyXU4oW0NIMl0yKVtDSDJdYzNuW2NIXVtjSF1zMw==

>  <s_epik_cmdline>  (98) 
J2VwaWtfcHl0aG9uJywgJy1waHQnLCAnMi4wJywgJy1waCcsICc3LjAnLCAnLXRuJywgJzgnLCAnLW1hJywgJzIwMCcsICctaW1hZScsICc8aW5maWxlLm1hZT4nLCAnLW9tYWUnLCAnPG91dGZpbGUubWFlPic=

>  <r_epik_Ionization_Penalty>  (98) 
0.49919

>  <r_epik_Ionization_Penalty_Charging>  (98) 
0.49919

>  <r_epik_Ionization_Penalty_Neutral>  (98) 
1.06608e-07

>  <r_epik_State_Penalty>  (98) 
0.505537

>  <r_epik_Charging_Adjusted_Penalty>  (98) 
1.00473

>  <i_epik_Tot_Q>  (98) 
1

>  <i_epik_Tot_abs_Q>  (98) 
1

>  <s_lp_Force_Field>  (98) 
OPLS3e

>  <r_lp_Energy>  (98) 
-3.91936

>  <b_lp_Chiralities_Consistent>  (98) 
1

>  <s_lp_Variant>  (98) 
28:0-2

>  <s_i_glide_gridfile>  (98) 
pfpi4k_grid

>  <i_i_glide_lignum>  (98) 
7

>  <i_i_glide_rotatable_bonds>  (98) 
3

>  <r_i_docking_score>  (98) 
-3.99345

>  <r_i_glide_ligand_efficiency>  (98) 
-0.210182

>  <r_i_glide_ligand_efficiency_sa>  (98) 
-0.560849

>  <r_i_glide_ligand_efficiency_ln>  (98) 
-1.01243

>  <r_i_glide_gscore>  (98) 
-3.99345

>  <r_i_glide_lipo>  (98) 
-0.447442

>  <r_i_glide_hbond>  (98) 
-0.2

>  <r_i_glide_metal>  (98) 
-0

>  <r_i_glide_rewards>  (98) 
-1.34701

>  <r_i_glide_evdw>  (98) 
-25.7683

>  <r_i_glide_ecoul>  (98) 
-5.94359

>  <r_i_glide_erotb>  (98) 
0.402588

>  <r_i_glide_esite>  (98) 
-0.221631

>  <r_i_glide_emodel>  (98) 
-41.0228

>  <r_i_glide_energy>  (98) 
-31.7118

>  <r_i_glide_einternal>  (98) 
1.22618

>  <r_i_glide_intrahb_reward>  (98) 
-0

>  <i_i_glide_confnum>  (98) 
3

>  <i_i_glide_posenum>  (98) 
2

>  <r_i_glide_eff_state_penalty>  (98) 
0

>  <ligand_id>  (98) 
28

>  <original_smiles>  (98) 
CS(=O)(=O)N1CCC2(CCN(Cc3nccs3)C2)C1

>  <smiles>  (98) 
[H]c1nc(C([H])([H])[N+]2([H])C([H])([H])C([H])([H])C3(C([H])([H])N(S(=O)(=O)C([H])([H])[H])C([H])([H])C3([H])[H])C2([H])[H])sc1[H]

$$$$
29:0:0
     RDKit          3D

 53 58  0  0  1  0  0  0  0  0999 V2000
    2.3968   -2.7032   -3.5989 C   0  0  0  0  0  0  0  0  0  0  0  0
    3.1812   -2.2954   -2.3413 C   0  0  2  0  0  0  0  0  0  0  0  0
    4.5096   -1.6796   -2.7883 C   0  0  0  0  0  0  0  0  0  0  0  0
    5.2417   -1.1170   -1.5873 C   0  0  0  0  0  0  0  0  0  0  0  0
    5.5432   -2.2315   -0.5998 C   0  0  0  0  0  0  0  0  0  0  0  0
    4.3325   -3.0484   -0.1499 C   0  0  2  0  0  0  0  0  0  0  0  0
    3.7044   -2.6732    1.0870 O   0  0  0  0  0  0  0  0  0  0  0  0
    4.5487   -3.8391    1.1170 C   0  0  2  0  0  0  0  0  0  0  0  0
    5.8032   -3.6785    1.9793 C   0  0  0  0  0  0  0  0  0  0  0  0
    5.7298   -4.7029    3.1085 C   0  0  0  0  0  0  0  0  0  0  0  0
    4.3200   -5.2622    2.9983 C   0  0  2  0  0  0  0  0  0  0  0  0
    4.2592   -6.5443    3.6125 O   0  0  0  0  0  0  0  0  0  0  0  0
    3.0105   -7.2419    3.5873 C   0  0  1  0  0  0  0  0  0  0  0  0
    3.1560   -8.4279    4.5305 C   0  0  0  0  0  0  0  0  0  0  0  0
    1.7536   -6.3743    3.6895 C   0  0  0  0  0  0  0  0  0  0  0  0
    1.7633   -6.4500    2.1722 C   0  0  2  0  0  0  0  0  0  0  0  0
    2.6069   -7.6364    2.2513 O   0  0  0  0  0  0  0  0  0  0  0  0
    2.4023   -5.2944    1.3551 C   0  0  2  0  0  0  0  0  0  0  0  0
    1.9157   -5.3183   -0.0977 C   0  0  0  0  0  0  0  0  0  0  0  0
    2.0120   -3.9796   -0.8574 C   0  0  0  0  0  0  0  0  0  0  0  0
    3.3987   -3.4588   -1.3144 C   0  0  1  0  0  0  0  0  0  0  0  0
    3.9506   -5.1933    1.5005 C   0  0  1  0  0  0  0  0  0  0  0  0
    4.7166   -6.2463    0.6465 C   0  0  0  0  0  0  0  0  0  0  0  0
    2.7785   -3.6234   -4.0396 H   0  0  0  0  0  0  0  0  0  0  0  0
    2.4528   -1.9141   -4.3467 H   0  0  0  0  0  0  0  0  0  0  0  0
    1.3373   -2.8375   -3.3926 H   0  0  0  0  0  0  0  0  0  0  0  0
    2.6135   -1.4983   -1.8579 H   0  0  0  0  0  0  0  0  0  0  0  0
    5.1218   -2.4306   -3.2841 H   0  0  0  0  0  0  0  0  0  0  0  0
    4.3391   -0.8813   -3.5147 H   0  0  0  0  0  0  0  0  0  0  0  0
    6.1852   -0.6809   -1.9102 H   0  0  0  0  0  0  0  0  0  0  0  0
    4.6508   -0.3265   -1.1192 H   0  0  0  0  0  0  0  0  0  0  0  0
    6.2698   -2.9199   -1.0337 H   0  0  0  0  0  0  0  0  0  0  0  0
    6.0108   -1.7630    0.2656 H   0  0  0  0  0  0  0  0  0  0  0  0
    6.6907   -3.8642    1.3720 H   0  0  0  0  0  0  0  0  0  0  0  0
    5.8487   -2.6645    2.3790 H   0  0  0  0  0  0  0  0  0  0  0  0
    6.4779   -5.4862    2.9539 H   0  0  0  0  0  0  0  0  0  0  0  0
    5.9032   -4.2660    4.0948 H   0  0  0  0  0  0  0  0  0  0  0  0
    3.6975   -4.5554    3.5484 H   0  0  0  0  0  0  0  0  0  0  0  0
    4.0196   -9.0401    4.2632 H   0  0  0  0  0  0  0  0  0  0  0  0
    2.2702   -9.0661    4.5295 H   0  0  0  0  0  0  0  0  0  0  0  0
    3.3056   -8.0755    5.5556 H   0  0  0  0  0  0  0  0  0  0  0  0
    0.9092   -6.9128    4.1144 H   0  0  0  0  0  0  0  0  0  0  0  0
    1.8487   -5.3797    4.1172 H   0  0  0  0  0  0  0  0  0  0  0  0
    0.7607   -6.7131    1.8322 H   0  0  0  0  0  0  0  0  0  0  0  0
    1.9837   -4.3806    1.7764 H   0  0  0  0  0  0  0  0  0  0  0  0
    2.3864   -6.1264   -0.6412 H   0  0  0  0  0  0  0  0  0  0  0  0
    0.8622   -5.6016   -0.1105 H   0  0  0  0  0  0  0  0  0  0  0  0
    1.4103   -4.1635   -1.7432 H   0  0  0  0  0  0  0  0  0  0  0  0
    1.5058   -3.1786   -0.3213 H   0  0  0  0  0  0  0  0  0  0  0  0
    3.9093   -4.2518   -1.8412 H   0  0  0  0  0  0  0  0  0  0  0  0
    4.3929   -7.2693    0.8076 H   0  0  0  0  0  0  0  0  0  0  0  0
    5.7887   -6.2272    0.8299 H   0  0  0  0  0  0  0  0  0  0  0  0
    4.5991   -6.0470   -0.4188 H   0  0  0  0  0  0  0  0  0  0  0  0
  1  2  1  0
  1 24  1  0
  1 25  1  0
  1 26  1  0
  2 21  1  0
  2  3  1  0
  2 27  1  1
  3  4  1  0
  3 28  1  0
  3 29  1  0
  4  5  1  0
  4 30  1  0
  4 31  1  0
  5  6  1  0
  5 32  1  0
  5 33  1  0
  6  8  1  0
  6 21  1  0
  6  7  1  1
  8  7  1  1
  8 22  1  0
  8  9  1  0
  9 10  1  0
  9 34  1  0
  9 35  1  0
 10 11  1  0
 10 36  1  0
 10 37  1  0
 11 22  1  0
 11 12  1  0
 11 38  1  1
 12 13  1  0
 13 17  1  0
 13 14  1  1
 13 15  1  0
 14 39  1  0
 14 40  1  0
 14 41  1  0
 15 16  1  0
 15 42  1  0
 15 43  1  0
 16 17  1  0
 16 18  1  0
 16 44  1  6
 18 19  1  0
 18 22  1  0
 18 45  1  1
 19 20  1  0
 19 46  1  0
 19 47  1  0
 20 21  1  0
 20 48  1  0
 20 49  1  0
 21 50  1  6
 22 23  1  6
 23 51  1  0
 23 52  1  0
 23 53  1  0
M  END
>  <i_m_ct_stereo_status>  (99) 
1

>  <s_m_source_file>  (99) 
/var/tmp/pbs.5076255.sched01/tmpqllwm4fg/43asec3i7m.sdf

>  <i_m_source_file_index>  (99) 
8

>  <i_lp_mmshare_version>  (99) 
48012

>  <i_f3d_flags>  (99) 
0

>  <s_epik_input>  (99) 
W0NIMl0xW0NIMl1bQ0gyXVtDQEBIXShbQ0gzXSlbQ0BASF0yW0NIMl1bQ0gyXVtDQEhdM1tDQEBIXShPNClbQ0gyXVtDQF00KFtDSDNdKU9bQ0BASF0oW0NIMl1bQ0gyXTUpW0NAQF0zKFtDQEBdNShbQ0BAXTEyNilPNilbQ0gzXQ==

>  <s_epik_cmdline>  (99) 
J2VwaWtfcHl0aG9uJywgJy1waHQnLCAnMi4wJywgJy1waCcsICc3LjAnLCAnLXRuJywgJzgnLCAnLW1hJywgJzIwMCcsICctaW1hZScsICc8aW5maWxlLm1hZT4nLCAnLW9tYWUnLCAnPG91dGZpbGUubWFlPic=

>  <r_lp_tautomer_probability>  (99) 
1

>  <r_epik_Ionization_Penalty>  (99) 
2.57599e-11

>  <r_epik_Ionization_Penalty_Charging>  (99) 
0

>  <r_epik_Ionization_Penalty_Neutral>  (99) 
2.57599e-11

>  <r_epik_State_Penalty>  (99) 
-0

>  <r_epik_Charging_Adjusted_Penalty>  (99) 
0

>  <i_epik_Tot_Q>  (99) 
0

>  <i_epik_Tot_abs_Q>  (99) 
0

>  <s_lp_Force_Field>  (99) 
OPLS3e

>  <r_lp_Energy>  (99) 
52.1837

>  <b_lp_Chiralities_Consistent>  (99) 
1

>  <s_lp_Variant>  (99) 
29:0-1

>  <s_i_glide_gridfile>  (99) 
pfpi4k_grid

>  <i_i_glide_lignum>  (99) 
8

>  <i_i_glide_rotatable_bonds>  (99) 
0

>  <r_i_docking_score>  (99) 
-2.4631

>  <r_i_glide_ligand_efficiency>  (99) 
-0.107091

>  <r_i_glide_ligand_efficiency_sa>  (99) 
-0.304554

>  <r_i_glide_ligand_efficiency_ln>  (99) 
-0.595601

>  <r_i_glide_gscore>  (99) 
-2.4631

>  <r_i_glide_lipo>  (99) 
-0.557199

>  <r_i_glide_hbond>  (99) 
0

>  <r_i_glide_metal>  (99) 
-0

>  <r_i_glide_rewards>  (99) 
-1.23784

>  <r_i_glide_evdw>  (99) 
-15.6423

>  <r_i_glide_ecoul>  (99) 
0.762124

>  <r_i_glide_erotb>  (99) 
0

>  <r_i_glide_esite>  (99) 
-0.000269239

>  <r_i_glide_emodel>  (99) 
-16.1795

>  <r_i_glide_energy>  (99) 
-14.8802

>  <r_i_glide_einternal>  (99) 
0

>  <r_i_glide_intrahb_reward>  (99) 
-0

>  <i_i_glide_confnum>  (99) 
2

>  <i_i_glide_posenum>  (99) 
2

>  <r_i_glide_eff_state_penalty>  (99) 
0

>  <ligand_id>  (99) 
29

>  <original_smiles>  (99) 
CC1CCCC23OC24CCC2OC5(C)CC(O5)C(CCC13)C24C

>  <smiles>  (99) 
[H]C([H])([H])C12OC([H])(C1([H])[H])C1([H])C([H])([H])C([H])([H])C3([H])C([H])(C([H])([H])[H])C([H])([H])C([H])([H])C([H])([H])C34OC43C([H])([H])C([H])([H])C([H])(O2)C13C([H])([H])[H]

$$$$
30:0:0
     RDKit          3D

 21 24  0  0  1  0  0  0  0  0999 V2000
    2.6271   -4.9559    0.3038 C   0  0  0  0  0  0  0  0  0  0  0  0
    2.0095   -6.1355    1.0021 C   0  0  0  0  0  0  0  0  0  0  0  0
    0.6428   -6.2587    1.1401 N   0  0  0  0  0  0  0  0  0  0  0  0
    0.5002   -7.3720    1.7971 C   0  0  0  0  0  0  0  0  0  0  0  0
   -0.7440   -8.4367    2.5267 S   0  0  0  0  0  0  0  0  0  0  0  0
    0.5754   -9.5218    3.0091 C   0  0  0  0  0  0  0  0  0  0  0  0
    1.8327   -9.0590    2.6692 C   0  0  0  0  0  0  0  0  0  0  0  0
    1.7590   -7.8821    2.0158 N   0  0  0  0  0  0  0  0  0  0  0  0
    2.7533   -7.1129    1.5385 N   0  0  0  0  0  0  0  0  0  0  0  0
    2.7762  -10.1078    3.2300 C   0  0  1  0  0  0  0  0  0  0  0  0
    2.7979   -9.9295    4.6137 O   0  0  0  0  0  0  0  0  0  0  0  0
    1.5627  -10.4984    5.0706 C   0  0  0  0  0  0  0  0  0  0  0  0
    0.8715  -10.8023    3.7339 C   0  0  2  0  0  0  0  0  0  0  0  0
    2.0286  -11.2645    3.0603 O   0  0  0  0  0  0  0  0  0  0  0  0
    1.8405   -4.2829   -0.0270 H   0  0  0  0  0  0  0  0  0  0  0  0
    3.1789   -5.2496   -0.5881 H   0  0  0  0  0  0  0  0  0  0  0  0
    3.2842   -4.3907    0.9666 H   0  0  0  0  0  0  0  0  0  0  0  0
    3.7646  -10.1835    2.7822 H   0  0  0  0  0  0  0  0  0  0  0  0
    1.7312  -11.4137    5.6381 H   0  0  0  0  0  0  0  0  0  0  0  0
    0.9981   -9.8116    5.7001 H   0  0  0  0  0  0  0  0  0  0  0  0
    0.0314  -11.4845    3.7833 H   0  0  0  0  0  0  0  0  0  0  0  0
  1  2  1  0
  1 15  1  0
  1 16  1  0
  1 17  1  0
  2  9  2  0
  2  3  1  0
  3  4  2  0
  4  8  1  0
  4  5  1  0
  5  6  1  0
  6 13  1  0
  6  7  2  0
  7  8  1  0
  7 10  1  0
  8  9  1  0
 10 14  1  0
 10 11  1  0
 10 18  1  6
 11 12  1  0
 12 13  1  0
 12 19  1  0
 12 20  1  0
 13 14  1  0
 13 21  1  1
M  END
>  <i_m_ct_stereo_status>  (100) 
1

>  <s_m_source_file>  (100) 
/var/tmp/pbs.5076255.sched01/tmpqllwm4fg/43asec3i7m.sdf

>  <i_m_source_file_index>  (100) 
9

>  <i_lp_mmshare_version>  (100) 
48012

>  <i_f3d_flags>  (100) 
0

>  <s_epik_input>  (100) 
W0NIM11jKG4xKW5uKGMxMiljM2MoczIpW0NAQEhdNFtDSDJdT1tDQEhdM080

>  <s_epik_cmdline>  (100) 
J2VwaWtfcHl0aG9uJywgJy1waHQnLCAnMi4wJywgJy1waCcsICc3LjAnLCAnLXRuJywgJzgnLCAnLW1hJywgJzIwMCcsICctaW1hZScsICc8aW5maWxlLm1hZT4nLCAnLW9tYWUnLCAnPG91dGZpbGUubWFlPic=

>  <r_epik_Ionization_Penalty>  (100) 
0.000755876

>  <r_epik_Ionization_Penalty_Charging>  (100) 
0

>  <r_epik_Ionization_Penalty_Neutral>  (100) 
0.000755876

>  <r_epik_State_Penalty>  (100) 
0.00048353

>  <r_epik_Charging_Adjusted_Penalty>  (100) 
0.00048353

>  <i_epik_Tot_Q>  (100) 
0

>  <i_epik_Tot_abs_Q>  (100) 
0

>  <s_epik_Chemistry_Notes>  (100) 
This compound contains an acetal/aminal-like group ( X-CH(R)-Y where X, Y are N, S, or O) that may be acid/base labile, releasing an aldehyde.

>  <s_lp_Force_Field>  (100) 
OPLS3e

>  <r_lp_Energy>  (100) 
8.91819

>  <b_lp_Chiralities_Consistent>  (100) 
1

>  <s_lp_Variant>  (100) 
30:0-1

>  <s_i_glide_gridfile>  (100) 
pfpi4k_grid

>  <i_i_glide_lignum>  (100) 
9

>  <i_i_glide_rotatable_bonds>  (100) 
0

>  <r_i_docking_score>  (100) 
-4.01345

>  <r_i_glide_ligand_efficiency>  (100) 
-0.286675

>  <r_i_glide_ligand_efficiency_sa>  (100) 
-0.690928

>  <r_i_glide_ligand_efficiency_ln>  (100) 
-1.10288

>  <r_i_glide_gscore>  (100) 
-4.01345

>  <r_i_glide_lipo>  (100) 
-0.0779709

>  <r_i_glide_hbond>  (100) 
-0.16

>  <r_i_glide_metal>  (100) 
-0

>  <r_i_glide_rewards>  (100) 
-1.98255

>  <r_i_glide_evdw>  (100) 
-17.5413

>  <r_i_glide_ecoul>  (100) 
-5.17492

>  <r_i_glide_erotb>  (100) 
0

>  <r_i_glide_esite>  (100) 
-0.13963

>  <r_i_glide_emodel>  (100) 
-28.9532

>  <r_i_glide_energy>  (100) 
-22.7162

>  <r_i_glide_einternal>  (100) 
0

>  <r_i_glide_intrahb_reward>  (100) 
-0

>  <i_i_glide_confnum>  (100) 
1

>  <i_i_glide_posenum>  (100) 
24

>  <r_i_glide_eff_state_penalty>  (100) 
0

>  <ligand_id>  (100) 
30

>  <original_smiles>  (100) 
Cc1nc2sc3c(n2n1)C1OCC3O1

>  <smiles>  (100) 
[H]C([H])([H])c1nc2sc3c(n2n1)C1([H])OC([H])([H])C3([H])O1

$$$$
30:0:1
     RDKit          3D

 21 24  0  0  1  0  0  0  0  0999 V2000
    2.3310   -5.1573    0.3327 C   0  0  0  0  0  0  0  0  0  0  0  0
    1.7858   -6.2461    1.2043 C   0  0  0  0  0  0  0  0  0  0  0  0
    0.4658   -6.6384    1.1245 N   0  0  0  0  0  0  0  0  0  0  0  0
    0.3783   -7.5881    2.0147 C   0  0  0  0  0  0  0  0  0  0  0  0
   -0.7840   -8.7322    2.7511 S   0  0  0  0  0  0  0  0  0  0  0  0
    0.5595   -9.3264    3.7438 C   0  0  0  0  0  0  0  0  0  0  0  0
    1.7561   -8.6533    3.5370 C   0  0  0  0  0  0  0  0  0  0  0  0
    1.6235   -7.7232    2.5803 N   0  0  0  0  0  0  0  0  0  0  0  0
    2.5450   -6.8757    2.1034 N   0  0  0  0  0  0  0  0  0  0  0  0
    2.7070   -9.2819    4.5412 C   0  0  1  0  0  0  0  0  0  0  0  0
    2.3365   -8.7910    5.8007 O   0  0  0  0  0  0  0  0  0  0  0  0
    1.1637   -9.5377    6.1427 C   0  0  0  0  0  0  0  0  0  0  0  0
    0.9035  -10.3048    4.8363 C   0  0  2  0  0  0  0  0  0  0  0  0
    2.2605  -10.5986    4.5569 O   0  0  0  0  0  0  0  0  0  0  0  0
    1.5518   -4.7988   -0.3419 H   0  0  0  0  0  0  0  0  0  0  0  0
    3.1495   -5.5126   -0.3026 H   0  0  0  0  0  0  0  0  0  0  0  0
    2.6705   -4.3010    0.9184 H   0  0  0  0  0  0  0  0  0  0  0  0
    3.7716   -9.1870    4.3354 H   0  0  0  0  0  0  0  0  0  0  0  0
    1.3602  -10.2211    6.9672 H   0  0  0  0  0  0  0  0  0  0  0  0
    0.3373   -8.8864    6.4299 H   0  0  0  0  0  0  0  0  0  0  0  0
    0.2273  -11.1594    4.9094 H   0  0  0  0  0  0  0  0  0  0  0  0
  1  2  1  0
  1 15  1  0
  1 16  1  0
  1 17  1  0
  2  9  2  0
  2  3  1  0
  3  4  2  0
  4  8  1  0
  4  5  1  0
  5  6  1  0
  6 13  1  0
  6  7  2  0
  7  8  1  0
  7 10  1  0
  8  9  1  0
 10 14  1  0
 10 11  1  0
 10 18  1  6
 11 12  1  0
 12 13  1  0
 12 19  1  0
 12 20  1  0
 13 14  1  0
 13 21  1  1
M  END
>  <i_m_ct_stereo_status>  (101) 
1

>  <s_m_source_file>  (101) 
/var/tmp/pbs.5076255.sched01/tmpqllwm4fg/43asec3i7m.sdf

>  <i_m_source_file_index>  (101) 
9

>  <i_lp_mmshare_version>  (101) 
48012

>  <i_f3d_flags>  (101) 
0

>  <s_epik_input>  (101) 
W0NIM11jKG4xKW5uKGMxMiljM2MoczIpW0NAQEhdNFtDSDJdT1tDQEhdM080

>  <s_epik_cmdline>  (101) 
J2VwaWtfcHl0aG9uJywgJy1waHQnLCAnMi4wJywgJy1waCcsICc3LjAnLCAnLXRuJywgJzgnLCAnLW1hJywgJzIwMCcsICctaW1hZScsICc8aW5maWxlLm1hZT4nLCAnLW9tYWUnLCAnPG91dGZpbGUubWFlPic=

>  <r_epik_Ionization_Penalty>  (101) 
0.000755876

>  <r_epik_Ionization_Penalty_Charging>  (101) 
0

>  <r_epik_Ionization_Penalty_Neutral>  (101) 
0.000755876

>  <r_epik_State_Penalty>  (101) 
0.00048353

>  <r_epik_Charging_Adjusted_Penalty>  (101) 
0.00048353

>  <i_epik_Tot_Q>  (101) 
0

>  <i_epik_Tot_abs_Q>  (101) 
0

>  <s_epik_Chemistry_Notes>  (101) 
This compound contains an acetal/aminal-like group ( X-CH(R)-Y where X, Y are N, S, or O) that may be acid/base labile, releasing an aldehyde.

>  <s_lp_Force_Field>  (101) 
OPLS3e

>  <r_lp_Energy>  (101) 
8.91819

>  <b_lp_Chiralities_Consistent>  (101) 
1

>  <s_lp_Variant>  (101) 
30:0-1

>  <s_i_glide_gridfile>  (101) 
pfpi4k_grid

>  <i_i_glide_lignum>  (101) 
9

>  <i_i_glide_rotatable_bonds>  (101) 
0

>  <r_i_docking_score>  (101) 
-3.68074

>  <r_i_glide_ligand_efficiency>  (101) 
-0.26291

>  <r_i_glide_ligand_efficiency_sa>  (101) 
-0.633651

>  <r_i_glide_ligand_efficiency_ln>  (101) 
-1.01145

>  <r_i_glide_gscore>  (101) 
-3.68074

>  <r_i_glide_lipo>  (101) 
0

>  <r_i_glide_hbond>  (101) 
-0.13432

>  <r_i_glide_metal>  (101) 
-0

>  <r_i_glide_rewards>  (101) 
-1.98255

>  <r_i_glide_evdw>  (101) 
-17.7504

>  <r_i_glide_ecoul>  (101) 
-3.58911

>  <r_i_glide_erotb>  (101) 
0

>  <r_i_glide_esite>  (101) 
-0.137984

>  <r_i_glide_emodel>  (101) 
-27.0582

>  <r_i_glide_energy>  (101) 
-21.3395

>  <r_i_glide_einternal>  (101) 
0

>  <r_i_glide_intrahb_reward>  (101) 
-0

>  <i_i_glide_confnum>  (101) 
2

>  <i_i_glide_posenum>  (101) 
36

>  <r_i_glide_eff_state_penalty>  (101) 
0

>  <ligand_id>  (101) 
30

>  <original_smiles>  (101) 
Cc1nc2sc3c(n2n1)C1OCC3O1

>  <smiles>  (101) 
[H]C([H])([H])c1nc2sc3c(n2n1)C1([H])OC([H])([H])C3([H])O1

$$$$
30:0:2
     RDKit          3D

 21 24  0  0  1  0  0  0  0  0999 V2000
    3.9172   -4.9082    0.2098 C   0  0  0  0  0  0  0  0  0  0  0  0
    3.2228   -6.0311    0.9190 C   0  0  0  0  0  0  0  0  0  0  0  0
    3.8172   -7.2701    1.0480 N   0  0  0  0  0  0  0  0  0  0  0  0
    2.9286   -7.9764    1.6810 C   0  0  0  0  0  0  0  0  0  0  0  0
    2.6217   -9.6213    2.3048 S   0  0  0  0  0  0  0  0  0  0  0  0
    1.0841   -9.0106    2.9377 C   0  0  0  0  0  0  0  0  0  0  0  0
    0.8449   -7.6774    2.6329 C   0  0  0  0  0  0  0  0  0  0  0  0
    1.8664   -7.1488    1.9373 N   0  0  0  0  0  0  0  0  0  0  0  0
    2.0013   -5.9008    1.4535 N   0  0  0  0  0  0  0  0  0  0  0  0
   -0.5190   -7.4130    3.2479 C   0  0  1  0  0  0  0  0  0  0  0  0
   -1.4654   -8.0243    2.4241 O   0  0  0  0  0  0  0  0  0  0  0  0
   -1.3579   -9.4191    2.7388 C   0  0  0  0  0  0  0  0  0  0  0  0
   -0.1528   -9.4190    3.6923 C   0  0  2  0  0  0  0  0  0  0  0  0
   -0.4872   -8.2233    4.3751 O   0  0  0  0  0  0  0  0  0  0  0  0
    4.8672   -5.2620   -0.1885 H   0  0  0  0  0  0  0  0  0  0  0  0
    4.1406   -4.0834    0.8870 H   0  0  0  0  0  0  0  0  0  0  0  0
    3.3329   -4.5435   -0.6356 H   0  0  0  0  0  0  0  0  0  0  0  0
   -0.7465   -6.3765    3.4899 H   0  0  0  0  0  0  0  0  0  0  0  0
   -2.2582   -9.7694    3.2428 H   0  0  0  0  0  0  0  0  0  0  0  0
   -1.2021  -10.0349    1.8528 H   0  0  0  0  0  0  0  0  0  0  0  0
   -0.0252  -10.3072    4.3126 H   0  0  0  0  0  0  0  0  0  0  0  0
  1  2  1  0
  1 15  1  0
  1 16  1  0
  1 17  1  0
  2  9  2  0
  2  3  1  0
  3  4  2  0
  4  8  1  0
  4  5  1  0
  5  6  1  0
  6 13  1  0
  6  7  2  0
  7  8  1  0
  7 10  1  0
  8  9  1  0
 10 14  1  0
 10 11  1  0
 10 18  1  1
 11 12  1  0
 12 13  1  0
 12 19  1  0
 12 20  1  0
 13 14  1  0
 13 21  1  1
M  END
>  <i_m_ct_stereo_status>  (102) 
1

>  <s_m_source_file>  (102) 
/var/tmp/pbs.5076255.sched01/tmpqllwm4fg/43asec3i7m.sdf

>  <i_m_source_file_index>  (102) 
9

>  <i_lp_mmshare_version>  (102) 
48012

>  <i_f3d_flags>  (102) 
0

>  <s_epik_input>  (102) 
W0NIM11jKG4xKW5uKGMxMiljM2MoczIpW0NAQEhdNFtDSDJdT1tDQEhdM080

>  <s_epik_cmdline>  (102) 
J2VwaWtfcHl0aG9uJywgJy1waHQnLCAnMi4wJywgJy1waCcsICc3LjAnLCAnLXRuJywgJzgnLCAnLW1hJywgJzIwMCcsICctaW1hZScsICc8aW5maWxlLm1hZT4nLCAnLW9tYWUnLCAnPG91dGZpbGUubWFlPic=

>  <r_epik_Ionization_Penalty>  (102) 
0.000755876

>  <r_epik_Ionization_Penalty_Charging>  (102) 
0

>  <r_epik_Ionization_Penalty_Neutral>  (102) 
0.000755876

>  <r_epik_State_Penalty>  (102) 
0.00048353

>  <r_epik_Charging_Adjusted_Penalty>  (102) 
0.00048353

>  <i_epik_Tot_Q>  (102) 
0

>  <i_epik_Tot_abs_Q>  (102) 
0

>  <s_epik_Chemistry_Notes>  (102) 
This compound contains an acetal/aminal-like group ( X-CH(R)-Y where X, Y are N, S, or O) that may be acid/base labile, releasing an aldehyde.

>  <s_lp_Force_Field>  (102) 
OPLS3e

>  <r_lp_Energy>  (102) 
8.91819

>  <b_lp_Chiralities_Consistent>  (102) 
1

>  <s_lp_Variant>  (102) 
30:0-1

>  <s_i_glide_gridfile>  (102) 
pfpi4k_grid

>  <i_i_glide_lignum>  (102) 
9

>  <i_i_glide_rotatable_bonds>  (102) 
0

>  <r_i_docking_score>  (102) 
-3.35566

>  <r_i_glide_ligand_efficiency>  (102) 
-0.23969

>  <r_i_glide_ligand_efficiency_sa>  (102) 
-0.577686

>  <r_i_glide_ligand_efficiency_ln>  (102) 
-0.922122

>  <r_i_glide_gscore>  (102) 
-3.35566

>  <r_i_glide_lipo>  (102) 
-0.0613474

>  <r_i_glide_hbond>  (102) 
0

>  <r_i_glide_metal>  (102) 
-0

>  <r_i_glide_rewards>  (102) 
-1.98255

>  <r_i_glide_evdw>  (102) 
-19.2753

>  <r_i_glide_ecoul>  (102) 
-1.71011

>  <r_i_glide_erotb>  (102) 
0

>  <r_i_glide_esite>  (102) 
-0.0914791

>  <r_i_glide_emodel>  (102) 
-26.185

>  <r_i_glide_energy>  (102) 
-20.9854

>  <r_i_glide_einternal>  (102) 
0

>  <r_i_glide_intrahb_reward>  (102) 
-0

>  <i_i_glide_confnum>  (102) 
1

>  <i_i_glide_posenum>  (102) 
10

>  <r_i_glide_eff_state_penalty>  (102) 
0

>  <ligand_id>  (102) 
30

>  <original_smiles>  (102) 
Cc1nc2sc3c(n2n1)C1OCC3O1

>  <smiles>  (102) 
[H]C([H])([H])c1nc2sc3c(n2n1)C1([H])OC([H])([H])C3([H])O1

$$$$
31:0:0
     RDKit          3D

 61 65  0  0  1  0  0  0  0  0999 V2000
    1.0909    0.0556    2.0869 C   0  0  0  0  0  0  0  0  0  0  0  0
    1.2943   -1.0661    3.0871 C   0  0  0  0  0  0  0  0  0  0  0  0
    2.4577   -1.8485    2.9875 C   0  0  0  0  0  0  0  0  0  0  0  0
    2.6623   -2.9084    3.9087 C   0  0  0  0  0  0  0  0  0  0  0  0
    3.8650   -3.8325    3.7116 C   0  0  0  0  0  0  0  0  0  0  0  0
    3.7078   -4.9508    2.6236 C   0  0  2  0  0  0  0  0  0  0  0  0
    3.6890   -4.3739    1.2221 C   0  0  0  0  0  0  0  0  0  0  0  0
    2.6130   -3.8449    0.6434 N   0  0  0  0  0  0  0  0  0  0  0  0
    3.0736   -3.4281   -0.5871 N   0  0  0  0  0  0  0  0  0  0  0  0
    4.3297   -3.7326   -0.7595 N   0  0  0  0  0  0  0  0  0  0  0  0
    4.7312   -4.3227    0.3960 N   0  0  0  0  0  0  0  0  0  0  0  0
    6.0908   -4.8438    0.4882 C   0  0  0  0  0  0  0  0  0  0  0  0
    7.1604   -3.7845    0.1895 C   0  0  0  0  0  0  0  0  0  0  0  0
    8.3565   -4.3332    0.3848 F   0  0  0  0  0  0  0  0  0  0  0  0
    7.1009   -3.3346   -1.0663 F   0  0  0  0  0  0  0  0  0  0  0  0
    2.5796   -5.8614    2.8513 N   0  0  0  0  0  0  0  0  0  0  0  0
    2.5015   -6.2802    4.2517 C   0  0  0  0  0  0  0  0  0  0  0  0
    1.2037   -7.0533    4.4234 C   0  0  0  0  0  0  0  0  0  0  0  0
    1.2110   -8.3577    3.6489 C   0  0  0  0  0  0  0  0  0  0  0  0
    1.4663   -7.9653    2.1828 C   0  0  0  0  0  0  0  0  0  0  0  0
    2.7192   -7.0764    2.0253 C   0  0  0  0  0  0  0  0  0  0  0  0
    2.1049   -9.4801    4.2107 C   0  0  0  0  0  0  0  0  0  0  0  0
    0.9933  -10.4661    3.8584 C   0  0  1  0  0  0  0  0  0  0  0  0
    0.7643  -11.4906    4.8753 N   0  0  0  0  0  0  0  0  0  0  0  0
    0.0145   -9.2785    3.9374 C   0  0  1  0  0  0  0  0  0  0  0  0
   -0.6395   -8.9905    5.1564 O   0  0  0  0  0  0  0  0  0  0  0  0
    1.7401   -3.1058    4.9700 C   0  0  0  0  0  0  0  0  0  0  0  0
    0.5429   -2.3759    5.0533 C   0  0  0  0  0  0  0  0  0  0  0  0
   -0.6186   -2.3792    5.8798 C   0  0  0  0  0  0  0  0  0  0  0  0
   -1.4609   -1.4167    5.5445 N   0  0  0  0  0  0  0  0  0  0  0  0
   -0.8789   -0.8044    4.4806 N   0  0  0  0  0  0  0  0  0  0  0  0
    0.3410   -1.3355    4.0911 C   0  0  0  0  0  0  0  0  0  0  0  0
   -1.3235    0.0047    4.0463 H   0  0  0  0  0  0  0  0  0  0  0  0
    1.9494    0.1275    1.4176 H   0  0  0  0  0  0  0  0  0  0  0  0
    0.9789    1.0032    2.6116 H   0  0  0  0  0  0  0  0  0  0  0  0
    0.2090   -0.1367    1.4803 H   0  0  0  0  0  0  0  0  0  0  0  0
    3.1963   -1.6769    2.2049 H   0  0  0  0  0  0  0  0  0  0  0  0
    4.1547   -4.2648    4.6697 H   0  0  0  0  0  0  0  0  0  0  0  0
    4.7266   -3.2233    3.4434 H   0  0  0  0  0  0  0  0  0  0  0  0
    4.6047   -5.5648    2.6924 H   0  0  0  0  0  0  0  0  0  0  0  0
    6.2665   -5.2388    1.4885 H   0  0  0  0  0  0  0  0  0  0  0  0
    6.1695   -5.6942   -0.1892 H   0  0  0  0  0  0  0  0  0  0  0  0
    7.0796   -2.9308    0.8662 H   0  0  0  0  0  0  0  0  0  0  0  0
    3.3725   -6.9095    4.5215 H   0  0  0  0  0  0  0  0  0  0  0  0
    2.3773   -5.4688    4.9462 H   0  0  0  0  0  0  0  0  0  0  0  0
    1.1234   -7.2405    5.4844 H   0  0  0  0  0  0  0  0  0  0  0  0
    0.3196   -6.4601    4.1743 H   0  0  0  0  0  0  0  0  0  0  0  0
    1.6696   -8.8440    1.5810 H   0  0  0  0  0  0  0  0  0  0  0  0
    0.5934   -7.4809    1.7363 H   0  0  0  0  0  0  0  0  0  0  0  0
    2.8615   -6.8417    0.9648 H   0  0  0  0  0  0  0  0  0  0  0  0
    3.6045   -7.6324    2.3534 H   0  0  0  0  0  0  0  0  0  0  0  0
    3.0423   -9.6145    3.6696 H   0  0  0  0  0  0  0  0  0  0  0  0
    2.2826   -9.3673    5.2840 H   0  0  0  0  0  0  0  0  0  0  0  0
    1.0970  -10.8715    2.8451 H   0  0  0  0  0  0  0  0  0  0  0  0
    0.6891  -11.0400    5.7822 H   0  0  0  0  0  0  0  0  0  0  0  0
    1.5251  -12.1567    4.9259 H   0  0  0  0  0  0  0  0  0  0  0  0
   -0.7194   -9.2848    3.1382 H   0  0  0  0  0  0  0  0  0  0  0  0
   -1.3089   -9.6975    5.2717 H   0  0  0  0  0  0  0  0  0  0  0  0
    1.8778   -3.8472    5.7462 H   0  0  0  0  0  0  0  0  0  0  0  0
   -0.8286   -3.0532    6.7022 H   0  0  0  0  0  0  0  0  0  0  0  0
   -0.1150  -11.9439    4.6851 H   0  0  0  0  0  0  0  0  0  0  0  0
  1 34  1  0
  1 35  1  0
  1 36  1  0
  1  2  1  0
  2 32  2  0
  2  3  1  0
  3 37  1  0
  3  4  2  0
  4  5  1  0
  4 27  1  0
  5  6  1  0
  5 38  1  0
  5 39  1  0
  6  7  1  0
  6 16  1  0
  6 40  1  6
  7 11  1  0
  7  8  2  0
  8  9  1  0
  9 10  2  0
 10 11  1  0
 11 12  1  0
 12 13  1  0
 12 41  1  0
 12 42  1  0
 13 14  1  0
 13 15  1  0
 13 43  1  0
 16 21  1  0
 16 17  1  0
 17 18  1  0
 17 44  1  0
 17 45  1  0
 18 19  1  0
 18 46  1  0
 18 47  1  0
 19 25  1  0
 19 20  1  0
 19 22  1  0
 20 21  1  0
 20 48  1  0
 20 49  1  0
 21 50  1  0
 21 51  1  0
 22 23  1  0
 22 52  1  0
 22 53  1  0
 23 24  1  0
 23 25  1  0
 23 54  1  6
 24 55  1  0
 24 56  1  0
 24 61  1  0
 25 26  1  0
 25 57  1  6
 26 58  1  0
 27 59  1  0
 27 28  2  0
 28 32  1  0
 28 29  1  0
 29 30  2  0
 29 60  1  0
 30 31  1  0
 31 33  1  0
 31 32  1  0
M  CHG  1  24   1
M  END
>  <i_m_ct_stereo_status>  (103) 
1

>  <s_m_source_file>  (103) 
/var/tmp/pbs.5076255.sched01/tmpqllwm4fg/43asec3i7m.sdf

>  <i_m_source_file_index>  (103) 
10

>  <i_lp_mmshare_version>  (103) 
48012

>  <i_f3d_flags>  (103) 
0

>  <s_epik_input>  (103) 
W09IXVtDQEBIXTFbQ0BIXShbTkgyXSlbQ0gyXUMxMltDSDJdW0NIMl1OKFtDSDJdW0NIMl0yKVtDQEBIXShjM25ubm4zW0NIMl1bQ0hdKEYpRilbQ0gyXWMoW2NIXTQpW2NIXWMoW0NIM10pYyhjNDUpbltuSF1bY0hdNQ==

>  <s_epik_cmdline>  (103) 
J2VwaWtfcHl0aG9uJywgJy1waHQnLCAnMi4wJywgJy1waCcsICc3LjAnLCAnLXRuJywgJzgnLCAnLW1hJywgJzIwMCcsICctaW1hZScsICc8aW5maWxlLm1hZT4nLCAnLW9tYWUnLCAnPG91dGZpbGUubWFlPic=

>  <r_lp_tautomer_probability>  (103) 
0.980392

>  <r_epik_Ionization_Penalty>  (103) 
0.0439756

>  <r_epik_Ionization_Penalty_Charging>  (103) 
0.00638623

>  <r_epik_Ionization_Penalty_Neutral>  (103) 
0.0375894

>  <r_epik_State_Penalty>  (103) 
0.0400444

>  <r_epik_Charging_Adjusted_Penalty>  (103) 
0.0464307

>  <i_epik_Tot_Q>  (103) 
1

>  <i_epik_Tot_abs_Q>  (103) 
1

>  <s_lp_Force_Field>  (103) 
OPLS3e

>  <r_lp_Energy>  (103) 
35.8892

>  <b_lp_Chiralities_Consistent>  (103) 
1

>  <s_lp_Variant>  (103) 
31:0-1

>  <s_i_glide_gridfile>  (103) 
pfpi4k_grid

>  <i_i_glide_lignum>  (103) 
10

>  <i_i_glide_rotatable_bonds>  (103) 
7

>  <r_i_docking_score>  (103) 
-3.44848

>  <r_i_glide_ligand_efficiency>  (103) 
-0.107765

>  <r_i_glide_ligand_efficiency_sa>  (103) 
-0.342133

>  <r_i_glide_ligand_efficiency_ln>  (103) 
-0.772209

>  <r_i_glide_gscore>  (103) 
-3.44848

>  <r_i_glide_lipo>  (103) 
-0.270909

>  <r_i_glide_hbond>  (103) 
-0.21986

>  <r_i_glide_metal>  (103) 
-0

>  <r_i_glide_rewards>  (103) 
-0.763562

>  <r_i_glide_evdw>  (103) 
-24.429

>  <r_i_glide_ecoul>  (103) 
-9.06532

>  <r_i_glide_erotb>  (103) 
0.499978

>  <r_i_glide_esite>  (103) 
-0.112883

>  <r_i_glide_emodel>  (103) 
-42.7858

>  <r_i_glide_energy>  (103) 
-33.4943

>  <r_i_glide_einternal>  (103) 
4.68364

>  <r_i_glide_intrahb_reward>  (103) 
-0

>  <i_i_glide_confnum>  (103) 
4

>  <i_i_glide_posenum>  (103) 
8

>  <r_i_glide_eff_state_penalty>  (103) 
0

>  <ligand_id>  (103) 
31

>  <original_smiles>  (103) 
Cc1cc(CC(c2nnnn2CC(F)F)N2CCC3(CC2)CC(N)C3O)cc2c[nH]nc12

>  <smiles>  (103) 
[H]OC1([H])C2(C([H])([H])C([H])([H])N(C([H])(c3nnnn3C([H])([H])C([H])(F)F)C([H])([H])c3c([H])c(C([H])([H])[H])c4c(c([H])nn4[H])c3[H])C([H])([H])C2([H])[H])C([H])([H])C1([H])[N+]([H])([H])[H]

$$$$
31:0:1
     RDKit          3D

 61 65  0  0  1  0  0  0  0  0999 V2000
    0.0472    1.1491   11.7115 C   0  0  0  0  0  0  0  0  0  0  0  0
   -0.1806    1.4863   10.2593 C   0  0  0  0  0  0  0  0  0  0  0  0
    0.7981    1.1463    9.3052 C   0  0  0  0  0  0  0  0  0  0  0  0
    0.5824    1.4592    7.9545 C   0  0  0  0  0  0  0  0  0  0  0  0
    1.6394    1.1296    6.9247 C   0  0  0  0  0  0  0  0  0  0  0  0
    1.4185   -0.2449    6.2295 C   0  0  2  0  0  0  0  0  0  0  0  0
    1.3167   -1.3515    7.2409 C   0  0  0  0  0  0  0  0  0  0  0  0
    0.1754   -1.8849    7.6517 N   0  0  0  0  0  0  0  0  0  0  0  0
    0.5646   -2.8368    8.5577 N   0  0  0  0  0  0  0  0  0  0  0  0
    1.8450   -2.8642    8.6850 N   0  0  0  0  0  0  0  0  0  0  0  0
    2.3602   -1.9272    7.8480 N   0  0  0  0  0  0  0  0  0  0  0  0
    3.7924   -1.6887    7.7938 C   0  0  0  0  0  0  0  0  0  0  0  0
    4.5953   -2.9260    7.3549 C   0  0  0  0  0  0  0  0  0  0  0  0
    4.2339   -3.3229    6.1405 F   0  0  0  0  0  0  0  0  0  0  0  0
    5.8903   -2.6097    7.3376 F   0  0  0  0  0  0  0  0  0  0  0  0
    2.4127   -0.5463    5.1897 N   0  0  0  0  0  0  0  0  0  0  0  0
    2.5716    0.5346    4.2192 C   0  0  0  0  0  0  0  0  0  0  0  0
    3.6851    0.2003    3.2428 C   0  0  0  0  0  0  0  0  0  0  0  0
    3.4022   -1.0591    2.4265 C   0  0  0  0  0  0  0  0  0  0  0  0
    3.1181   -2.1554    3.4589 C   0  0  0  0  0  0  0  0  0  0  0  0
    2.0262   -1.7594    4.4518 C   0  0  0  0  0  0  0  0  0  0  0  0
    2.3641   -0.9578    1.2959 C   0  0  0  0  0  0  0  0  0  0  0  0
    3.2734   -1.8562    0.4501 C   0  0  1  0  0  0  0  0  0  0  0  0
    3.4184   -1.4305   -0.9498 N   0  0  0  0  0  0  0  0  0  0  0  0
    4.4329   -1.3821    1.3200 C   0  0  1  0  0  0  0  0  0  0  0  0
    5.2044   -0.3172    0.7883 O   0  0  0  0  0  0  0  0  0  0  0  0
   -0.6113    2.1042    7.5428 C   0  0  0  0  0  0  0  0  0  0  0  0
   -1.6038    2.4611    8.4807 C   0  0  0  0  0  0  0  0  0  0  0  0
   -2.8828    3.1064    8.4500 C   0  0  0  0  0  0  0  0  0  0  0  0
   -3.4115    3.1788    9.6434 N   0  0  0  0  0  0  0  0  0  0  0  0
   -2.5033    2.5995   10.4890 N   0  0  0  0  0  0  0  0  0  0  0  0
   -1.3594    2.1453    9.8377 C   0  0  0  0  0  0  0  0  0  0  0  0
   -2.6994    2.4939   11.4725 H   0  0  0  0  0  0  0  0  0  0  0  0
    0.9802    0.5994   11.8314 H   0  0  0  0  0  0  0  0  0  0  0  0
   -0.7596    0.5262   12.0968 H   0  0  0  0  0  0  0  0  0  0  0  0
    0.1084    2.0577   12.3117 H   0  0  0  0  0  0  0  0  0  0  0  0
    1.7100    0.6460    9.6038 H   0  0  0  0  0  0  0  0  0  0  0  0
    2.6169    1.1481    7.4136 H   0  0  0  0  0  0  0  0  0  0  0  0
    1.6291    1.9675    6.2270 H   0  0  0  0  0  0  0  0  0  0  0  0
    0.4454   -0.1984    5.7378 H   0  0  0  0  0  0  0  0  0  0  0  0
    4.0275   -0.8425    7.1430 H   0  0  0  0  0  0  0  0  0  0  0  0
    4.1203   -1.3785    8.7870 H   0  0  0  0  0  0  0  0  0  0  0  0
    4.4663   -3.7801    8.0192 H   0  0  0  0  0  0  0  0  0  0  0  0
    1.6289    0.7316    3.7071 H   0  0  0  0  0  0  0  0  0  0  0  0
    2.9099    1.4570    4.6827 H   0  0  0  0  0  0  0  0  0  0  0  0
    3.7701    1.0659    2.5921 H   0  0  0  0  0  0  0  0  0  0  0  0
    4.6363    0.1143    3.7751 H   0  0  0  0  0  0  0  0  0  0  0  0
    2.7513   -3.0616    2.9829 H   0  0  0  0  0  0  0  0  0  0  0  0
    4.0434   -2.4416    3.9562 H   0  0  0  0  0  0  0  0  0  0  0  0
    1.8864   -2.6076    5.1182 H   0  0  0  0  0  0  0  0  0  0  0  0
    1.0733   -1.6188    3.9363 H   0  0  0  0  0  0  0  0  0  0  0  0
    1.3972   -1.3978    1.5412 H   0  0  0  0  0  0  0  0  0  0  0  0
    2.2419    0.0646    0.9297 H   0  0  0  0  0  0  0  0  0  0  0  0
    3.0615   -2.9197    0.5615 H   0  0  0  0  0  0  0  0  0  0  0  0
    3.6154   -0.4453   -0.9565 H   0  0  0  0  0  0  0  0  0  0  0  0
    2.4935   -1.5567   -1.3863 H   0  0  0  0  0  0  0  0  0  0  0  0
    5.1102   -2.1851    1.6218 H   0  0  0  0  0  0  0  0  0  0  0  0
    4.6376    0.4405    0.7375 H   0  0  0  0  0  0  0  0  0  0  0  0
   -0.7678    2.3503    6.5050 H   0  0  0  0  0  0  0  0  0  0  0  0
   -3.4190    3.5005    7.6019 H   0  0  0  0  0  0  0  0  0  0  0  0
    4.1441   -1.9386   -1.4037 H   0  0  0  0  0  0  0  0  0  0  0  0
  1 34  1  0
  1 35  1  0
  1 36  1  0
  1  2  1  0
  2 32  2  0
  2  3  1  0
  3 37  1  0
  3  4  2  0
  4  5  1  0
  4 27  1  0
  5  6  1  0
  5 38  1  0
  5 39  1  0
  6  7  1  0
  6 16  1  0
  6 40  1  6
  7 11  1  0
  7  8  2  0
  8  9  1  0
  9 10  2  0
 10 11  1  0
 11 12  1  0
 12 13  1  0
 12 41  1  0
 12 42  1  0
 13 14  1  0
 13 15  1  0
 13 43  1  0
 16 21  1  0
 16 17  1  0
 17 18  1  0
 17 44  1  0
 17 45  1  0
 18 19  1  0
 18 46  1  0
 18 47  1  0
 19 25  1  0
 19 20  1  0
 19 22  1  0
 20 21  1  0
 20 48  1  0
 20 49  1  0
 21 50  1  0
 21 51  1  0
 22 23  1  0
 22 52  1  0
 22 53  1  0
 23 24  1  0
 23 25  1  0
 23 54  1  6
 24 55  1  0
 24 56  1  0
 24 61  1  0
 25 26  1  0
 25 57  1  1
 26 58  1  0
 27 59  1  0
 27 28  2  0
 28 32  1  0
 28 29  1  0
 29 30  2  0
 29 60  1  0
 30 31  1  0
 31 33  1  0
 31 32  1  0
M  CHG  1  24   1
M  END
>  <i_m_ct_stereo_status>  (104) 
1

>  <s_m_source_file>  (104) 
/var/tmp/pbs.5076255.sched01/tmpqllwm4fg/43asec3i7m.sdf

>  <i_m_source_file_index>  (104) 
10

>  <i_lp_mmshare_version>  (104) 
48012

>  <i_f3d_flags>  (104) 
0

>  <s_epik_input>  (104) 
W09IXVtDQEBIXTFbQ0BIXShbTkgyXSlbQ0gyXUMxMltDSDJdW0NIMl1OKFtDSDJdW0NIMl0yKVtDQEBIXShjM25ubm4zW0NIMl1bQ0hdKEYpRilbQ0gyXWMoW2NIXTQpW2NIXWMoW0NIM10pYyhjNDUpbltuSF1bY0hdNQ==

>  <s_epik_cmdline>  (104) 
J2VwaWtfcHl0aG9uJywgJy1waHQnLCAnMi4wJywgJy1waCcsICc3LjAnLCAnLXRuJywgJzgnLCAnLW1hJywgJzIwMCcsICctaW1hZScsICc8aW5maWxlLm1hZT4nLCAnLW9tYWUnLCAnPG91dGZpbGUubWFlPic=

>  <r_lp_tautomer_probability>  (104) 
0.980392

>  <r_epik_Ionization_Penalty>  (104) 
0.0439756

>  <r_epik_Ionization_Penalty_Charging>  (104) 
0.00638623

>  <r_epik_Ionization_Penalty_Neutral>  (104) 
0.0375894

>  <r_epik_State_Penalty>  (104) 
0.0400444

>  <r_epik_Charging_Adjusted_Penalty>  (104) 
0.0464307

>  <i_epik_Tot_Q>  (104) 
1

>  <i_epik_Tot_abs_Q>  (104) 
1

>  <s_lp_Force_Field>  (104) 
OPLS3e

>  <r_lp_Energy>  (104) 
35.8892

>  <b_lp_Chiralities_Consistent>  (104) 
1

>  <s_lp_Variant>  (104) 
31:0-1

>  <s_i_glide_gridfile>  (104) 
pfpi4k_grid

>  <i_i_glide_lignum>  (104) 
10

>  <i_i_glide_rotatable_bonds>  (104) 
7

>  <r_i_docking_score>  (104) 
-3.24579

>  <r_i_glide_ligand_efficiency>  (104) 
-0.101431

>  <r_i_glide_ligand_efficiency_sa>  (104) 
-0.322023

>  <r_i_glide_ligand_efficiency_ln>  (104) 
-0.726821

>  <r_i_glide_gscore>  (104) 
-3.24579

>  <r_i_glide_lipo>  (104) 
-0.106118

>  <r_i_glide_hbond>  (104) 
-0.287415

>  <r_i_glide_metal>  (104) 
-0

>  <r_i_glide_rewards>  (104) 
-0.360303

>  <r_i_glide_evdw>  (104) 
-18.8598

>  <r_i_glide_ecoul>  (104) 
-11.7198

>  <r_i_glide_erotb>  (104) 
0.499978

>  <r_i_glide_esite>  (104) 
-0.290967

>  <r_i_glide_emodel>  (104) 
-41.7911

>  <r_i_glide_energy>  (104) 
-30.5796

>  <r_i_glide_einternal>  (104) 
0.585709

>  <r_i_glide_intrahb_reward>  (104) 
-0

>  <i_i_glide_confnum>  (104) 
6

>  <i_i_glide_posenum>  (104) 
3

>  <r_i_glide_eff_state_penalty>  (104) 
0

>  <ligand_id>  (104) 
31

>  <original_smiles>  (104) 
Cc1cc(CC(c2nnnn2CC(F)F)N2CCC3(CC2)CC(N)C3O)cc2c[nH]nc12

>  <smiles>  (104) 
[H]OC1([H])C2(C([H])([H])C([H])([H])N(C([H])(c3nnnn3C([H])([H])C([H])(F)F)C([H])([H])c3c([H])c(C([H])([H])[H])c4c(c([H])nn4[H])c3[H])C([H])([H])C2([H])[H])C([H])([H])C1([H])[N+]([H])([H])[H]

$$$$
31:0:2
     RDKit          3D

 61 65  0  0  1  0  0  0  0  0999 V2000
    1.1201    3.4980    7.5129 C   0  0  0  0  0  0  0  0  0  0  0  0
    0.6463    3.0033    6.1629 C   0  0  0  0  0  0  0  0  0  0  0  0
    1.5744    2.5003    5.2404 C   0  0  0  0  0  0  0  0  0  0  0  0
    1.1318    2.0226    3.9856 C   0  0  0  0  0  0  0  0  0  0  0  0
    2.1185    1.4684    2.9847 C   0  0  0  0  0  0  0  0  0  0  0  0
    2.4511   -0.0429    3.2138 C   0  0  2  0  0  0  0  0  0  0  0  0
    2.6956   -0.3774    4.6628 C   0  0  0  0  0  0  0  0  0  0  0  0
    1.8798   -1.1273    5.3982 N   0  0  0  0  0  0  0  0  0  0  0  0
    2.4757   -1.1421    6.6364 N   0  0  0  0  0  0  0  0  0  0  0  0
    3.5747   -0.4379    6.6408 N   0  0  0  0  0  0  0  0  0  0  0  0
    3.7399    0.0477    5.3846 N   0  0  0  0  0  0  0  0  0  0  0  0
    4.8509    0.9442    5.0841 C   0  0  0  0  0  0  0  0  0  0  0  0
    6.1663    0.2287    4.7758 C   0  0  0  0  0  0  0  0  0  0  0  0
    6.5922   -0.4674    5.8270 F   0  0  0  0  0  0  0  0  0  0  0  0
    6.0387   -0.5560    3.7141 F   0  0  0  0  0  0  0  0  0  0  0  0
    3.5390   -0.5500    2.3708 N   0  0  0  0  0  0  0  0  0  0  0  0
    3.3646   -0.1885    0.9695 C   0  0  0  0  0  0  0  0  0  0  0  0
    4.5623   -0.6511    0.1524 C   0  0  0  0  0  0  0  0  0  0  0  0
    4.7436   -2.1713    0.1852 C   0  0  0  0  0  0  0  0  0  0  0  0
    4.8046   -2.5593    1.6664 C   0  0  0  0  0  0  0  0  0  0  0  0
    3.6023   -2.0162    2.4518 C   0  0  0  0  0  0  0  0  0  0  0  0
    3.7772   -3.0214   -0.6613 C   0  0  0  0  0  0  0  0  0  0  0  0
    4.9667   -3.9033   -1.0422 C   0  0  1  0  0  0  0  0  0  0  0  0
    5.0088   -4.2621   -2.4652 N   0  0  0  0  0  0  0  0  0  0  0  0
    5.8701   -2.7206   -0.7143 C   0  0  1  0  0  0  0  0  0  0  0  0
    6.2466   -1.9259   -1.8209 O   0  0  0  0  0  0  0  0  0  0  0  0
   -0.2288    2.0656    3.6416 C   0  0  0  0  0  0  0  0  0  0  0  0
   -1.1755    2.5943    4.5372 C   0  0  0  0  0  0  0  0  0  0  0  0
   -2.5881    2.8275    4.5399 C   0  0  0  0  0  0  0  0  0  0  0  0
   -2.9875    3.3372    5.6741 N   0  0  0  0  0  0  0  0  0  0  0  0
   -1.8648    3.4751    6.4319 N   0  0  0  0  0  0  0  0  0  0  0  0
   -0.7079    3.0466    5.8011 C   0  0  0  0  0  0  0  0  0  0  0  0
   -1.9212    3.8775    7.3597 H   0  0  0  0  0  0  0  0  0  0  0  0
    2.1858    3.3173    7.6289 H   0  0  0  0  0  0  0  0  0  0  0  0
    0.6052    2.9870    8.3279 H   0  0  0  0  0  0  0  0  0  0  0  0
    0.9524    4.5710    7.6032 H   0  0  0  0  0  0  0  0  0  0  0  0
    2.6204    2.4720    5.5033 H   0  0  0  0  0  0  0  0  0  0  0  0
    2.9979    2.1104    3.0280 H   0  0  0  0  0  0  0  0  0  0  0  0
    1.7112    1.6396    1.9840 H   0  0  0  0  0  0  0  0  0  0  0  0
    1.5505   -0.5889    2.9440 H   0  0  0  0  0  0  0  0  0  0  0  0
    4.6187    1.5745    4.2256 H   0  0  0  0  0  0  0  0  0  0  0  0
    4.9804    1.6271    5.9257 H   0  0  0  0  0  0  0  0  0  0  0  0
    6.9418    0.9448    4.5069 H   0  0  0  0  0  0  0  0  0  0  0  0
    2.4349   -0.6006    0.5766 H   0  0  0  0  0  0  0  0  0  0  0  0
    3.3397    0.8914    0.8601 H   0  0  0  0  0  0  0  0  0  0  0  0
    4.3832   -0.3062   -0.8602 H   0  0  0  0  0  0  0  0  0  0  0  0
    5.4661   -0.1433    0.4992 H   0  0  0  0  0  0  0  0  0  0  0  0
    4.7722   -3.6324    1.7940 H   0  0  0  0  0  0  0  0  0  0  0  0
    5.7501   -2.2524    2.1126 H   0  0  0  0  0  0  0  0  0  0  0  0
    3.7222   -2.3555    3.4766 H   0  0  0  0  0  0  0  0  0  0  0  0
    2.6788   -2.4696    2.0817 H   0  0  0  0  0  0  0  0  0  0  0  0
    3.0025   -3.5306   -0.0891 H   0  0  0  0  0  0  0  0  0  0  0  0
    3.3412   -2.4561   -1.4876 H   0  0  0  0  0  0  0  0  0  0  0  0
    5.1210   -4.7505   -0.3710 H   0  0  0  0  0  0  0  0  0  0  0  0
    4.8640   -3.4403   -3.0337 H   0  0  0  0  0  0  0  0  0  0  0  0
    4.2696   -4.9402   -2.6411 H   0  0  0  0  0  0  0  0  0  0  0  0
    6.7639   -2.9871   -0.1516 H   0  0  0  0  0  0  0  0  0  0  0  0
    5.4482   -1.5591   -2.1738 H   0  0  0  0  0  0  0  0  0  0  0  0
   -0.5628    1.7180    2.6732 H   0  0  0  0  0  0  0  0  0  0  0  0
   -3.3074    2.6024    3.7683 H   0  0  0  0  0  0  0  0  0  0  0  0
    5.9005   -4.6793   -2.6796 H   0  0  0  0  0  0  0  0  0  0  0  0
  1 34  1  0
  1 35  1  0
  1 36  1  0
  1  2  1  0
  2 32  2  0
  2  3  1  0
  3 37  1  0
  3  4  2  0
  4  5  1  0
  4 27  1  0
  5  6  1  0
  5 38  1  0
  5 39  1  0
  6  7  1  0
  6 16  1  0
  6 40  1  6
  7 11  1  0
  7  8  2  0
  8  9  1  0
  9 10  2  0
 10 11  1  0
 11 12  1  0
 12 13  1  0
 12 41  1  0
 12 42  1  0
 13 14  1  0
 13 15  1  0
 13 43  1  0
 16 21  1  0
 16 17  1  0
 17 18  1  0
 17 44  1  0
 17 45  1  0
 18 19  1  0
 18 46  1  0
 18 47  1  0
 19 25  1  0
 19 20  1  0
 19 22  1  0
 20 21  1  0
 20 48  1  0
 20 49  1  0
 21 50  1  0
 21 51  1  0
 22 23  1  0
 22 52  1  0
 22 53  1  0
 23 24  1  0
 23 25  1  0
 23 54  1  1
 24 55  1  0
 24 56  1  0
 24 61  1  0
 25 26  1  0
 25 57  1  1
 26 58  1  0
 27 59  1  0
 27 28  2  0
 28 32  1  0
 28 29  1  0
 29 30  2  0
 29 60  1  0
 30 31  1  0
 31 33  1  0
 31 32  1  0
M  CHG  1  24   1
M  END
>  <i_m_ct_stereo_status>  (105) 
1

>  <s_m_source_file>  (105) 
/var/tmp/pbs.5076255.sched01/tmpqllwm4fg/43asec3i7m.sdf

>  <i_m_source_file_index>  (105) 
10

>  <i_lp_mmshare_version>  (105) 
48012

>  <i_f3d_flags>  (105) 
0

>  <s_epik_input>  (105) 
W09IXVtDQEBIXTFbQ0BIXShbTkgyXSlbQ0gyXUMxMltDSDJdW0NIMl1OKFtDSDJdW0NIMl0yKVtDQEBIXShjM25ubm4zW0NIMl1bQ0hdKEYpRilbQ0gyXWMoW2NIXTQpW2NIXWMoW0NIM10pYyhjNDUpbltuSF1bY0hdNQ==

>  <s_epik_cmdline>  (105) 
J2VwaWtfcHl0aG9uJywgJy1waHQnLCAnMi4wJywgJy1waCcsICc3LjAnLCAnLXRuJywgJzgnLCAnLW1hJywgJzIwMCcsICctaW1hZScsICc8aW5maWxlLm1hZT4nLCAnLW9tYWUnLCAnPG91dGZpbGUubWFlPic=

>  <r_lp_tautomer_probability>  (105) 
0.980392

>  <r_epik_Ionization_Penalty>  (105) 
0.0439756

>  <r_epik_Ionization_Penalty_Charging>  (105) 
0.00638623

>  <r_epik_Ionization_Penalty_Neutral>  (105) 
0.0375894

>  <r_epik_State_Penalty>  (105) 
0.0400444

>  <r_epik_Charging_Adjusted_Penalty>  (105) 
0.0464307

>  <i_epik_Tot_Q>  (105) 
1

>  <i_epik_Tot_abs_Q>  (105) 
1

>  <s_lp_Force_Field>  (105) 
OPLS3e

>  <r_lp_Energy>  (105) 
35.8892

>  <b_lp_Chiralities_Consistent>  (105) 
1

>  <s_lp_Variant>  (105) 
31:0-1

>  <s_i_glide_gridfile>  (105) 
pfpi4k_grid

>  <i_i_glide_lignum>  (105) 
10

>  <i_i_glide_rotatable_bonds>  (105) 
7

>  <r_i_docking_score>  (105) 
-3.14137

>  <r_i_glide_ligand_efficiency>  (105) 
-0.0981677

>  <r_i_glide_ligand_efficiency_sa>  (105) 
-0.311663

>  <r_i_glide_ligand_efficiency_ln>  (105) 
-0.703437

>  <r_i_glide_gscore>  (105) 
-3.14137

>  <r_i_glide_lipo>  (105) 
-0.259467

>  <r_i_glide_hbond>  (105) 
-0.140636

>  <r_i_glide_metal>  (105) 
-0

>  <r_i_glide_rewards>  (105) 
-0.548335

>  <r_i_glide_evdw>  (105) 
-21.4299

>  <r_i_glide_ecoul>  (105) 
-10.5328

>  <r_i_glide_erotb>  (105) 
0.499978

>  <r_i_glide_esite>  (105) 
-0.0414903

>  <r_i_glide_emodel>  (105) 
-41.9442

>  <r_i_glide_energy>  (105) 
-31.9627

>  <r_i_glide_einternal>  (105) 
2.11561

>  <r_i_glide_intrahb_reward>  (105) 
-0

>  <i_i_glide_confnum>  (105) 
6

>  <i_i_glide_posenum>  (105) 
19

>  <r_i_glide_eff_state_penalty>  (105) 
0

>  <ligand_id>  (105) 
31

>  <original_smiles>  (105) 
Cc1cc(CC(c2nnnn2CC(F)F)N2CCC3(CC2)CC(N)C3O)cc2c[nH]nc12

>  <smiles>  (105) 
[H]OC1([H])C2(C([H])([H])C([H])([H])N(C([H])(c3nnnn3C([H])([H])C([H])(F)F)C([H])([H])c3c([H])c(C([H])([H])[H])c4c(c([H])nn4[H])c3[H])C([H])([H])C2([H])[H])C([H])([H])C1([H])[N+]([H])([H])[H]

$$$$
31:1:0
     RDKit          3D

 62 66  0  0  1  0  0  0  0  0999 V2000
    1.6241  -11.4532    4.4379 C   0  0  0  0  0  0  0  0  0  0  0  0
    1.4764   -9.9513    4.6019 C   0  0  0  0  0  0  0  0  0  0  0  0
    1.7363   -9.1419    3.4904 C   0  0  0  0  0  0  0  0  0  0  0  0
    1.7125   -7.7580    3.6665 C   0  0  0  0  0  0  0  0  0  0  0  0
    2.1477   -6.8679    2.5456 C   0  0  0  0  0  0  0  0  0  0  0  0
    3.6410   -7.0584    2.1142 C   0  0  2  0  0  0  0  0  0  0  0  0
    4.6183   -7.4362    3.1875 C   0  0  0  0  0  0  0  0  0  0  0  0
    5.1274   -6.5779    4.0901 N   0  0  0  0  0  0  0  0  0  0  0  0
    5.8469   -7.4069    4.9273 N   0  0  0  0  0  0  0  0  0  0  0  0
    5.8548   -8.6222    4.5153 N   0  0  0  0  0  0  0  0  0  0  0  0
    5.0974   -8.6709    3.3793 N   0  0  0  0  0  0  0  0  0  0  0  0
    4.9121   -9.9323    2.6846 C   0  0  0  0  0  0  0  0  0  0  0  0
    6.0941  -10.3185    1.8044 C   0  0  0  0  0  0  0  0  0  0  0  0
    6.2687   -9.3531    0.9022 F   0  0  0  0  0  0  0  0  0  0  0  0
    7.1971  -10.5004    2.5228 F   0  0  0  0  0  0  0  0  0  0  0  0
    4.2111   -5.8677    1.4150 N   0  0  1  0  0  0  0  0  0  0  0  0
    3.9741   -5.8996   -0.0484 C   0  0  0  0  0  0  0  0  0  0  0  0
    4.6661   -4.7036   -0.7237 C   0  0  0  0  0  0  0  0  0  0  0  0
    4.1795   -3.3375   -0.1909 C   0  0  1  0  0  0  0  0  0  0  0  0
    4.4902   -3.3583    1.3135 C   0  0  0  0  0  0  0  0  0  0  0  0
    3.7841   -4.5416    1.9734 C   0  0  0  0  0  0  0  0  0  0  0  0
    4.6982   -2.0978   -0.9142 C   0  0  0  0  0  0  0  0  0  0  0  0
    3.4126   -1.9901   -1.7367 C   0  0  1  0  0  0  0  0  0  0  0  0
    3.5032   -2.6717   -3.0496 N   0  0  0  0  0  0  0  0  0  0  0  0
    2.7633   -2.8802   -0.6660 C   0  0  1  0  0  0  0  0  0  0  0  0
    1.8069   -3.8446   -1.1252 O   0  0  0  0  0  0  0  0  0  0  0  0
    1.3449   -7.1705    4.9013 C   0  0  0  0  0  0  0  0  0  0  0  0
    0.9889   -7.9645    6.0004 C   0  0  0  0  0  0  0  0  0  0  0  0
    0.5361   -7.7405    7.3402 C   0  0  0  0  0  0  0  0  0  0  0  0
    0.3212   -8.8839    7.9748 N   0  0  0  0  0  0  0  0  0  0  0  0
    0.6865   -9.8406    7.0562 N   0  0  0  0  0  0  0  0  0  0  0  0
    1.0757   -9.3602    5.8176 C   0  0  0  0  0  0  0  0  0  0  0  0
    0.7391  -10.8342    7.3216 H   0  0  0  0  0  0  0  0  0  0  0  0
    1.9634  -11.6814    3.4277 H   0  0  0  0  0  0  0  0  0  0  0  0
    0.6528  -11.9288    4.5932 H   0  0  0  0  0  0  0  0  0  0  0  0
    2.3624  -11.8589    5.1400 H   0  0  0  0  0  0  0  0  0  0  0  0
    1.9787   -9.5617    2.5240 H   0  0  0  0  0  0  0  0  0  0  0  0
    1.9543   -5.8513    2.9404 H   0  0  0  0  0  0  0  0  0  0  0  0
    1.4844   -6.9775    1.6798 H   0  0  0  0  0  0  0  0  0  0  0  0
    3.6645   -7.9251    1.4630 H   0  0  0  0  0  0  0  0  0  0  0  0
    4.7101  -10.7118    3.4327 H   0  0  0  0  0  0  0  0  0  0  0  0
    4.0552   -9.9211    2.0013 H   0  0  0  0  0  0  0  0  0  0  0  0
    5.8625  -11.2510    1.2774 H   0  0  0  0  0  0  0  0  0  0  0  0
    4.3475   -6.8139   -0.5110 H   0  0  0  0  0  0  0  0  0  0  0  0
    2.8971   -5.8962   -0.2286 H   0  0  0  0  0  0  0  0  0  0  0  0
    5.7643   -4.7861   -0.6584 H   0  0  0  0  0  0  0  0  0  0  0  0
    4.4221   -4.7736   -1.7698 H   0  0  0  0  0  0  0  0  0  0  0  0
    5.5659   -3.3532    1.5098 H   0  0  0  0  0  0  0  0  0  0  0  0
    4.0901   -2.4613    1.7902 H   0  0  0  0  0  0  0  0  0  0  0  0
    2.7246   -4.3574    1.7784 H   0  0  0  0  0  0  0  0  0  0  0  0
    3.9287   -4.4588    3.0542 H   0  0  0  0  0  0  0  0  0  0  0  0
    4.7966   -1.2401   -0.2363 H   0  0  0  0  0  0  0  0  0  0  0  0
    5.6294   -2.2521   -1.4663 H   0  0  0  0  0  0  0  0  0  0  0  0
    2.9901   -0.9773   -1.8048 H   0  0  0  0  0  0  0  0  0  0  0  0
    3.8634   -3.6015   -2.8779 H   0  0  0  0  0  0  0  0  0  0  0  0
    4.1182   -2.1751   -3.6619 H   0  0  0  0  0  0  0  0  0  0  0  0
    2.2776   -2.2582    0.0912 H   0  0  0  0  0  0  0  0  0  0  0  0
    2.2111   -4.5200   -1.6536 H   0  0  0  0  0  0  0  0  0  0  0  0
    1.3089   -6.1057    5.0436 H   0  0  0  0  0  0  0  0  0  0  0  0
    0.3412   -6.8034    7.8720 H   0  0  0  0  0  0  0  0  0  0  0  0
    2.5851   -2.7493   -3.4535 H   0  0  0  0  0  0  0  0  0  0  0  0
    5.2098   -5.9473    1.5156 H   0  0  0  0  0  0  0  0  0  0  0  0
  1 34  1  0
  1 35  1  0
  1 36  1  0
  1  2  1  0
  2 32  2  0
  2  3  1  0
  3 37  1  0
  3  4  2  0
  4  5  1  0
  4 27  1  0
  5  6  1  0
  5 38  1  0
  5 39  1  0
  6  7  1  0
  6 16  1  0
  6 40  1  6
  7 11  1  0
  7  8  2  0
  8  9  1  0
  9 10  2  0
 10 11  1  0
 11 12  1  0
 12 13  1  0
 12 41  1  0
 12 42  1  0
 13 14  1  0
 13 15  1  0
 13 43  1  0
 16 21  1  0
 16 17  1  0
 16 62  1  6
 17 18  1  0
 17 44  1  0
 17 45  1  0
 19 18  1  6
 18 46  1  0
 18 47  1  0
 19 25  1  0
 19 20  1  0
 19 22  1  0
 20 21  1  0
 20 48  1  0
 20 49  1  0
 21 50  1  0
 21 51  1  0
 22 23  1  0
 22 52  1  0
 22 53  1  0
 23 24  1  0
 23 25  1  0
 23 54  1  6
 24 55  1  0
 24 56  1  0
 24 61  1  0
 25 26  1  0
 25 57  1  1
 26 58  1  0
 27 59  1  0
 27 28  2  0
 28 32  1  0
 28 29  1  0
 29 30  2  0
 29 60  1  0
 30 31  1  0
 31 33  1  0
 31 32  1  0
M  CHG  2  16   1  24   1
M  END
>  <i_m_ct_stereo_status>  (106) 
1

>  <s_m_source_file>  (106) 
/var/tmp/pbs.5076255.sched01/tmpqllwm4fg/43asec3i7m.sdf

>  <i_m_source_file_index>  (106) 
11

>  <i_lp_mmshare_version>  (106) 
48012

>  <i_f3d_flags>  (106) 
0

>  <s_epik_input>  (106) 
W09IXVtDQEBIXTFbQ0BIXShbTkgyXSlbQ0gyXUMxMltDSDJdW0NIMl1OKFtDSDJdW0NIMl0yKVtDQEBIXShjM25ubm4zW0NIMl1bQ0hdKEYpRilbQ0gyXWMoW2NIXTQpW2NIXWMoW0NIM10pYyhjNDUpbltuSF1bY0hdNQ==

>  <s_epik_cmdline>  (106) 
J2VwaWtfcHl0aG9uJywgJy1waHQnLCAnMi4wJywgJy1waCcsICc3LjAnLCAnLXRuJywgJzgnLCAnLW1hJywgJzIwMCcsICctaW1hZScsICc8aW5maWxlLm1hZT4nLCAnLW9tYWUnLCAnPG91dGZpbGUubWFlPic=

>  <r_lp_tautomer_probability>  (106) 
0.980392

>  <r_epik_Ionization_Penalty>  (106) 
1.66725

>  <r_epik_Ionization_Penalty_Charging>  (106) 
1.66725

>  <r_epik_Ionization_Penalty_Neutral>  (106) 
2.43094e-06

>  <r_epik_State_Penalty>  (106) 
1.76348

>  <r_epik_Charging_Adjusted_Penalty>  (106) 
3.43073

>  <i_epik_Tot_Q>  (106) 
2

>  <i_epik_Tot_abs_Q>  (106) 
2

>  <s_lp_Force_Field>  (106) 
OPLS3e

>  <r_lp_Energy>  (106) 
49.0198

>  <b_lp_Chiralities_Consistent>  (106) 
1

>  <s_lp_Variant>  (106) 
31:0-2

>  <s_i_glide_gridfile>  (106) 
pfpi4k_grid

>  <i_i_glide_lignum>  (106) 
11

>  <i_i_glide_rotatable_bonds>  (106) 
7

>  <r_i_docking_score>  (106) 
-3.9877

>  <r_i_glide_ligand_efficiency>  (106) 
-0.124615

>  <r_i_glide_ligand_efficiency_sa>  (106) 
-0.39563

>  <r_i_glide_ligand_efficiency_ln>  (106) 
-0.892954

>  <r_i_glide_gscore>  (106) 
-3.9877

>  <r_i_glide_lipo>  (106) 
-0.0804991

>  <r_i_glide_hbond>  (106) 
-0.464843

>  <r_i_glide_metal>  (106) 
-0

>  <r_i_glide_rewards>  (106) 
-0.380802

>  <r_i_glide_evdw>  (106) 
-22.3204

>  <r_i_glide_ecoul>  (106) 
-15.5624

>  <r_i_glide_erotb>  (106) 
0.497937

>  <r_i_glide_esite>  (106) 
-0.109106

>  <r_i_glide_emodel>  (106) 
-45.2602

>  <r_i_glide_energy>  (106) 
-37.8828

>  <r_i_glide_einternal>  (106) 
8.71999

>  <r_i_glide_intrahb_reward>  (106) 
-0

>  <i_i_glide_confnum>  (106) 
3

>  <i_i_glide_posenum>  (106) 
4

>  <r_i_glide_eff_state_penalty>  (106) 
0

>  <ligand_id>  (106) 
31

>  <original_smiles>  (106) 
Cc1cc(CC(c2nnnn2CC(F)F)N2CCC3(CC2)CC(N)C3O)cc2c[nH]nc12

>  <smiles>  (106) 
[H]OC1([H])C2(C([H])([H])C1([H])[N+]([H])([H])[H])C([H])([H])C([H])([H])[N+]([H])(C([H])(c1nnnn1C([H])([H])C([H])(F)F)C([H])([H])c1c([H])c(C([H])([H])[H])c3c(c([H])nn3[H])c1[H])C([H])([H])C2([H])[H]

$$$$
31:1:1
     RDKit          3D

 62 66  0  0  1  0  0  0  0  0999 V2000
    1.7597    3.2052    7.1086 C   0  0  0  0  0  0  0  0  0  0  0  0
    1.4421    2.8424    5.6762 C   0  0  0  0  0  0  0  0  0  0  0  0
    2.3674    2.0929    4.9430 C   0  0  0  0  0  0  0  0  0  0  0  0
    2.0792    1.7660    3.6111 C   0  0  0  0  0  0  0  0  0  0  0  0
    3.0789    1.0466    2.7774 C   0  0  0  0  0  0  0  0  0  0  0  0
    2.8145   -0.4734    2.7371 C   0  0  2  0  0  0  0  0  0  0  0  0
    3.1138   -1.1458    4.0572 C   0  0  0  0  0  0  0  0  0  0  0  0
    4.3230   -1.4378    4.5199 N   0  0  0  0  0  0  0  0  0  0  0  0
    4.0793   -1.9826    5.7641 N   0  0  0  0  0  0  0  0  0  0  0  0
    2.8173   -2.0222    6.0280 N   0  0  0  0  0  0  0  0  0  0  0  0
    2.1767   -1.4985    4.9504 N   0  0  0  0  0  0  0  0  0  0  0  0
    0.7340   -1.4073    4.9305 C   0  0  0  0  0  0  0  0  0  0  0  0
    0.0755   -2.7717    4.6884 C   0  0  0  0  0  0  0  0  0  0  0  0
    0.6210   -3.3735    3.6330 F   0  0  0  0  0  0  0  0  0  0  0  0
    0.1709   -3.5528    5.7621 F   0  0  0  0  0  0  0  0  0  0  0  0
    3.6545   -1.1964    1.7332 N   0  0  1  0  0  0  0  0  0  0  0  0
    3.1469   -2.5714    1.4451 C   0  0  0  0  0  0  0  0  0  0  0  0
    4.0646   -3.3074    0.4680 C   0  0  0  0  0  0  0  0  0  0  0  0
    4.1938   -2.5579   -0.8721 C   0  0  1  0  0  0  0  0  0  0  0  0
    4.6718   -1.1438   -0.5494 C   0  0  0  0  0  0  0  0  0  0  0  0
    3.7882   -0.4339    0.4586 C   0  0  0  0  0  0  0  0  0  0  0  0
    5.0403   -3.2457   -1.9606 C   0  0  0  0  0  0  0  0  0  0  0  0
    4.0148   -2.7885   -2.9949 C   0  0  1  0  0  0  0  0  0  0  0  0
    3.6567   -3.8202   -3.9642 N   0  0  0  0  0  0  0  0  0  0  0  0
    3.0014   -2.6578   -1.8640 C   0  0  1  0  0  0  0  0  0  0  0  0
    2.0633   -3.7166   -1.6924 O   0  0  0  0  0  0  0  0  0  0  0  0
    0.8658    2.1671    3.0064 C   0  0  0  0  0  0  0  0  0  0  0  0
   -0.0746    2.9222    3.7125 C   0  0  0  0  0  0  0  0  0  0  0  0
   -1.3569    3.5235    3.4463 C   0  0  0  0  0  0  0  0  0  0  0  0
   -1.8107    4.1448    4.4990 N   0  0  0  0  0  0  0  0  0  0  0  0
   -0.8624    3.9824    5.4640 N   0  0  0  0  0  0  0  0  0  0  0  0
    0.2330    3.2569    5.0583 C   0  0  0  0  0  0  0  0  0  0  0  0
   -0.9891    4.3736    6.3812 H   0  0  0  0  0  0  0  0  0  0  0  0
    2.7232    2.7766    7.3922 H   0  0  0  0  0  0  0  0  0  0  0  0
    0.9977    2.8014    7.7766 H   0  0  0  0  0  0  0  0  0  0  0  0
    1.8209    4.2889    7.2239 H   0  0  0  0  0  0  0  0  0  0  0  0
    3.3143    1.7915    5.3712 H   0  0  0  0  0  0  0  0  0  0  0  0
    4.0792    1.2423    3.1616 H   0  0  0  0  0  0  0  0  0  0  0  0
    3.0028    1.5148    1.7900 H   0  0  0  0  0  0  0  0  0  0  0  0
    1.7653   -0.6264    2.4836 H   0  0  0  0  0  0  0  0  0  0  0  0
    0.3922   -0.9831    5.8784 H   0  0  0  0  0  0  0  0  0  0  0  0
    0.4157   -0.7087    4.1526 H   0  0  0  0  0  0  0  0  0  0  0  0
   -0.9824   -2.6553    4.4779 H   0  0  0  0  0  0  0  0  0  0  0  0
    3.0540   -3.1689    2.3478 H   0  0  0  0  0  0  0  0  0  0  0  0
    2.1453   -2.5102    1.0184 H   0  0  0  0  0  0  0  0  0  0  0  0
    5.0486   -3.4835    0.9159 H   0  0  0  0  0  0  0  0  0  0  0  0
    3.6123   -4.2901    0.3147 H   0  0  0  0  0  0  0  0  0  0  0  0
    5.6910   -1.1592   -0.1734 H   0  0  0  0  0  0  0  0  0  0  0  0
    4.6847   -0.5279   -1.4461 H   0  0  0  0  0  0  0  0  0  0  0  0
    2.7799   -0.2803    0.0730 H   0  0  0  0  0  0  0  0  0  0  0  0
    4.2470    0.5529    0.5927 H   0  0  0  0  0  0  0  0  0  0  0  0
    6.0351   -2.8105   -2.0981 H   0  0  0  0  0  0  0  0  0  0  0  0
    5.0969   -4.3337   -1.8301 H   0  0  0  0  0  0  0  0  0  0  0  0
    4.2402   -1.8192   -3.4435 H   0  0  0  0  0  0  0  0  0  0  0  0
    3.4094   -4.6618   -3.4555 H   0  0  0  0  0  0  0  0  0  0  0  0
    4.4379   -4.0109   -4.5677 H   0  0  0  0  0  0  0  0  0  0  0  0
    2.4496   -1.7220   -1.9738 H   0  0  0  0  0  0  0  0  0  0  0  0
    2.5040   -4.5546   -1.7889 H   0  0  0  0  0  0  0  0  0  0  0  0
    0.6617    1.9598    1.9651 H   0  0  0  0  0  0  0  0  0  0  0  0
   -1.9345    3.5106    2.5243 H   0  0  0  0  0  0  0  0  0  0  0  0
    2.8398   -3.5160   -4.4721 H   0  0  0  0  0  0  0  0  0  0  0  0
    4.5815   -1.2933    2.1333 H   0  0  0  0  0  0  0  0  0  0  0  0
  1 34  1  0
  1 35  1  0
  1 36  1  0
  1  2  1  0
  2 32  2  0
  2  3  1  0
  3 37  1  0
  3  4  2  0
  4  5  1  0
  4 27  1  0
  5  6  1  0
  5 38  1  0
  5 39  1  0
  6  7  1  0
  6 16  1  0
  6 40  1  6
  7 11  1  0
  7  8  2  0
  8  9  1  0
  9 10  2  0
 10 11  1  0
 11 12  1  0
 12 13  1  0
 12 41  1  0
 12 42  1  0
 13 14  1  0
 13 15  1  0
 13 43  1  0
 16 21  1  0
 16 17  1  0
 16 62  1  1
 17 18  1  0
 17 44  1  0
 17 45  1  0
 19 18  1  1
 18 46  1  0
 18 47  1  0
 19 25  1  0
 19 20  1  0
 19 22  1  0
 20 21  1  0
 20 48  1  0
 20 49  1  0
 21 50  1  0
 21 51  1  0
 22 23  1  0
 22 52  1  0
 22 53  1  0
 23 24  1  0
 23 25  1  0
 23 54  1  6
 24 55  1  0
 24 56  1  0
 24 61  1  0
 25 26  1  0
 25 57  1  6
 26 58  1  0
 27 59  1  0
 27 28  2  0
 28 32  1  0
 28 29  1  0
 29 30  2  0
 29 60  1  0
 30 31  1  0
 31 33  1  0
 31 32  1  0
M  CHG  2  16   1  24   1
M  END
>  <i_m_ct_stereo_status>  (107) 
1

>  <s_m_source_file>  (107) 
/var/tmp/pbs.5076255.sched01/tmpqllwm4fg/43asec3i7m.sdf

>  <i_m_source_file_index>  (107) 
11

>  <i_lp_mmshare_version>  (107) 
48012

>  <i_f3d_flags>  (107) 
0

>  <s_epik_input>  (107) 
W09IXVtDQEBIXTFbQ0BIXShbTkgyXSlbQ0gyXUMxMltDSDJdW0NIMl1OKFtDSDJdW0NIMl0yKVtDQEBIXShjM25ubm4zW0NIMl1bQ0hdKEYpRilbQ0gyXWMoW2NIXTQpW2NIXWMoW0NIM10pYyhjNDUpbltuSF1bY0hdNQ==

>  <s_epik_cmdline>  (107) 
J2VwaWtfcHl0aG9uJywgJy1waHQnLCAnMi4wJywgJy1waCcsICc3LjAnLCAnLXRuJywgJzgnLCAnLW1hJywgJzIwMCcsICctaW1hZScsICc8aW5maWxlLm1hZT4nLCAnLW9tYWUnLCAnPG91dGZpbGUubWFlPic=

>  <r_lp_tautomer_probability>  (107) 
0.980392

>  <r_epik_Ionization_Penalty>  (107) 
1.66725

>  <r_epik_Ionization_Penalty_Charging>  (107) 
1.66725

>  <r_epik_Ionization_Penalty_Neutral>  (107) 
2.43094e-06

>  <r_epik_State_Penalty>  (107) 
1.76348

>  <r_epik_Charging_Adjusted_Penalty>  (107) 
3.43073

>  <i_epik_Tot_Q>  (107) 
2

>  <i_epik_Tot_abs_Q>  (107) 
2

>  <s_lp_Force_Field>  (107) 
OPLS3e

>  <r_lp_Energy>  (107) 
49.0198

>  <b_lp_Chiralities_Consistent>  (107) 
1

>  <s_lp_Variant>  (107) 
31:0-2

>  <s_i_glide_gridfile>  (107) 
pfpi4k_grid

>  <i_i_glide_lignum>  (107) 
11

>  <i_i_glide_rotatable_bonds>  (107) 
7

>  <r_i_docking_score>  (107) 
-3.5047

>  <r_i_glide_ligand_efficiency>  (107) 
-0.109522

>  <r_i_glide_ligand_efficiency_sa>  (107) 
-0.347711

>  <r_i_glide_ligand_efficiency_ln>  (107) 
-0.784799

>  <r_i_glide_gscore>  (107) 
-3.5047

>  <r_i_glide_lipo>  (107) 
-0.233387

>  <r_i_glide_hbond>  (107) 
-0.342643

>  <r_i_glide_metal>  (107) 
-0

>  <r_i_glide_rewards>  (107) 
-0.387141

>  <r_i_glide_evdw>  (107) 
-22.6568

>  <r_i_glide_ecoul>  (107) 
-12.3715

>  <r_i_glide_erotb>  (107) 
0.497937

>  <r_i_glide_esite>  (107) 
-0.0509127

>  <r_i_glide_emodel>  (107) 
-43.8276

>  <r_i_glide_energy>  (107) 
-35.0282

>  <r_i_glide_einternal>  (107) 
3.5685

>  <r_i_glide_intrahb_reward>  (107) 
-0

>  <i_i_glide_confnum>  (107) 
1

>  <i_i_glide_posenum>  (107) 
8

>  <r_i_glide_eff_state_penalty>  (107) 
0

>  <ligand_id>  (107) 
31

>  <original_smiles>  (107) 
Cc1cc(CC(c2nnnn2CC(F)F)N2CCC3(CC2)CC(N)C3O)cc2c[nH]nc12

>  <smiles>  (107) 
[H]OC1([H])C2(C([H])([H])C1([H])[N+]([H])([H])[H])C([H])([H])C([H])([H])[N+]([H])(C([H])(c1nnnn1C([H])([H])C([H])(F)F)C([H])([H])c1c([H])c(C([H])([H])[H])c3c(c([H])nn3[H])c1[H])C([H])([H])C2([H])[H]

$$$$
31:1:2
     RDKit          3D

 62 66  0  0  1  0  0  0  0  0999 V2000
    1.3215   -7.0273    2.0649 C   0  0  0  0  0  0  0  0  0  0  0  0
    2.4169   -5.9810    2.1282 C   0  0  0  0  0  0  0  0  0  0  0  0
    2.0885   -4.6695    2.4733 C   0  0  0  0  0  0  0  0  0  0  0  0
    3.0822   -3.6745    2.5224 C   0  0  0  0  0  0  0  0  0  0  0  0
    2.7060   -2.2723    2.8866 C   0  0  0  0  0  0  0  0  0  0  0  0
    2.6225   -1.3270    1.6647 C   0  0  2  0  0  0  0  0  0  0  0  0
    3.9356   -1.1513    0.9281 C   0  0  0  0  0  0  0  0  0  0  0  0
    4.9913   -0.5115    1.4068 N   0  0  0  0  0  0  0  0  0  0  0  0
    5.9617   -0.6994    0.4502 N   0  0  0  0  0  0  0  0  0  0  0  0
    5.5023   -1.3690   -0.5613 N   0  0  0  0  0  0  0  0  0  0  0  0
    4.2100   -1.6589   -0.2824 N   0  0  0  0  0  0  0  0  0  0  0  0
    3.4067   -2.4040   -1.2483 C   0  0  0  0  0  0  0  0  0  0  0  0
    3.1445   -1.5855   -2.5222 C   0  0  0  0  0  0  0  0  0  0  0  0
    4.2741   -1.2533   -3.1489 F   0  0  0  0  0  0  0  0  0  0  0  0
    2.3756   -2.2807   -3.3639 F   0  0  0  0  0  0  0  0  0  0  0  0
    2.1626    0.0419    2.0486 N   0  0  1  0  0  0  0  0  0  0  0  0
    0.6759    0.1062    2.0462 C   0  0  0  0  0  0  0  0  0  0  0  0
    0.1824    1.5230    2.3282 C   0  0  0  0  0  0  0  0  0  0  0  0
    0.7113    2.0338    3.6856 C   0  0  1  0  0  0  0  0  0  0  0  0
    2.2420    1.9153    3.6802 C   0  0  0  0  0  0  0  0  0  0  0  0
    2.6910    0.4957    3.3718 C   0  0  0  0  0  0  0  0  0  0  0  0
    0.2093    3.4234    4.1094 C   0  0  0  0  0  0  0  0  0  0  0  0
   -0.8967    2.7699    4.9415 C   0  0  1  0  0  0  0  0  0  0  0  0
   -2.1556    2.6183    4.1813 N   0  0  0  0  0  0  0  0  0  0  0  0
   -0.0437    1.4936    4.9327 C   0  0  1  0  0  0  0  0  0  0  0  0
   -0.7563    0.2716    4.8242 O   0  0  0  0  0  0  0  0  0  0  0  0
    4.4245   -3.9917    2.2697 C   0  0  0  0  0  0  0  0  0  0  0  0
    4.7930   -5.2971    1.9181 C   0  0  0  0  0  0  0  0  0  0  0  0
    5.9997   -5.9824    1.5791 C   0  0  0  0  0  0  0  0  0  0  0  0
    5.7723   -7.2467    1.3188 N   0  0  0  0  0  0  0  0  0  0  0  0
    4.4398   -7.4281    1.4858 N   0  0  0  0  0  0  0  0  0  0  0  0
    3.7631   -6.2870    1.8500 C   0  0  0  0  0  0  0  0  0  0  0  0
    4.0316   -8.3452    1.3509 H   0  0  0  0  0  0  0  0  0  0  0  0
    0.3541   -6.5949    2.3455 H   0  0  0  0  0  0  0  0  0  0  0  0
    1.5391   -7.8417    2.7545 H   0  0  0  0  0  0  0  0  0  0  0  0
    1.2389   -7.4211    1.0528 H   0  0  0  0  0  0  0  0  0  0  0  0
    1.0763   -4.3946    2.7069 H   0  0  0  0  0  0  0  0  0  0  0  0
    3.4412   -1.9169    3.6149 H   0  0  0  0  0  0  0  0  0  0  0  0
    1.7468   -2.2923    3.4024 H   0  0  0  0  0  0  0  0  0  0  0  0
    1.8902   -1.7287    0.9716 H   0  0  0  0  0  0  0  0  0  0  0  0
    3.9324   -3.3234   -1.4810 H   0  0  0  0  0  0  0  0  0  0  0  0
    2.4551   -2.7039   -0.8125 H   0  0  0  0  0  0  0  0  0  0  0  0
    2.6220   -0.6594   -2.2989 H   0  0  0  0  0  0  0  0  0  0  0  0
    0.2503   -0.1920    1.0983 H   0  0  0  0  0  0  0  0  0  0  0  0
    0.2976   -0.6071    2.7872 H   0  0  0  0  0  0  0  0  0  0  0  0
    0.5045    2.1859    1.5159 H   0  0  0  0  0  0  0  0  0  0  0  0
   -0.9155    1.4845    2.3171 H   0  0  0  0  0  0  0  0  0  0  0  0
    2.6872    2.6199    2.9702 H   0  0  0  0  0  0  0  0  0  0  0  0
    2.6485    2.1825    4.6632 H   0  0  0  0  0  0  0  0  0  0  0  0
    2.3083   -0.1513    4.1731 H   0  0  0  0  0  0  0  0  0  0  0  0
    3.7786    0.4474    3.4231 H   0  0  0  0  0  0  0  0  0  0  0  0
    0.9295    3.9458    4.7398 H   0  0  0  0  0  0  0  0  0  0  0  0
   -0.1179    4.0571    3.2835 H   0  0  0  0  0  0  0  0  0  0  0  0
   -1.0388    3.1951    5.9406 H   0  0  0  0  0  0  0  0  0  0  0  0
   -1.9540    2.2002    3.2811 H   0  0  0  0  0  0  0  0  0  0  0  0
   -2.5953    3.5093    4.0332 H   0  0  0  0  0  0  0  0  0  0  0  0
    0.6152    1.4444    5.8148 H   0  0  0  0  0  0  0  0  0  0  0  0
   -1.1911    0.2345    3.9837 H   0  0  0  0  0  0  0  0  0  0  0  0
    5.1955   -3.2376    2.3400 H   0  0  0  0  0  0  0  0  0  0  0  0
    7.0071   -5.5948    1.5093 H   0  0  0  0  0  0  0  0  0  0  0  0
   -2.7931    2.0224    4.6832 H   0  0  0  0  0  0  0  0  0  0  0  0
    2.4940    0.6808    1.3335 H   0  0  0  0  0  0  0  0  0  0  0  0
  1 34  1  0
  1 35  1  0
  1 36  1  0
  1  2  1  0
  2 32  2  0
  2  3  1  0
  3 37  1  0
  3  4  2  0
  4  5  1  0
  4 27  1  0
  5  6  1  0
  5 38  1  0
  5 39  1  0
  6  7  1  0
  6 16  1  0
  6 40  1  6
  7 11  1  0
  7  8  2  0
  8  9  1  0
  9 10  2  0
 10 11  1  0
 11 12  1  0
 12 13  1  0
 12 41  1  0
 12 42  1  0
 13 14  1  0
 13 15  1  0
 13 43  1  0
 16 21  1  0
 16 17  1  0
 16 62  1  6
 17 18  1  0
 17 44  1  0
 17 45  1  0
 19 18  1  6
 18 46  1  0
 18 47  1  0
 19 25  1  0
 19 20  1  0
 19 22  1  0
 20 21  1  0
 20 48  1  0
 20 49  1  0
 21 50  1  0
 21 51  1  0
 22 23  1  0
 22 52  1  0
 22 53  1  0
 23 24  1  0
 23 25  1  0
 23 54  1  1
 24 55  1  0
 24 56  1  0
 24 61  1  0
 25 26  1  0
 25 57  1  1
 26 58  1  0
 27 59  1  0
 27 28  2  0
 28 32  1  0
 28 29  1  0
 29 30  2  0
 29 60  1  0
 30 31  1  0
 31 33  1  0
 31 32  1  0
M  CHG  2  16   1  24   1
M  END
>  <i_m_ct_stereo_status>  (108) 
1

>  <s_m_source_file>  (108) 
/var/tmp/pbs.5076255.sched01/tmpqllwm4fg/43asec3i7m.sdf

>  <i_m_source_file_index>  (108) 
11

>  <i_lp_mmshare_version>  (108) 
48012

>  <i_f3d_flags>  (108) 
0

>  <s_epik_input>  (108) 
W09IXVtDQEBIXTFbQ0BIXShbTkgyXSlbQ0gyXUMxMltDSDJdW0NIMl1OKFtDSDJdW0NIMl0yKVtDQEBIXShjM25ubm4zW0NIMl1bQ0hdKEYpRilbQ0gyXWMoW2NIXTQpW2NIXWMoW0NIM10pYyhjNDUpbltuSF1bY0hdNQ==

>  <s_epik_cmdline>  (108) 
J2VwaWtfcHl0aG9uJywgJy1waHQnLCAnMi4wJywgJy1waCcsICc3LjAnLCAnLXRuJywgJzgnLCAnLW1hJywgJzIwMCcsICctaW1hZScsICc8aW5maWxlLm1hZT4nLCAnLW9tYWUnLCAnPG91dGZpbGUubWFlPic=

>  <r_lp_tautomer_probability>  (108) 
0.980392

>  <r_epik_Ionization_Penalty>  (108) 
1.66725

>  <r_epik_Ionization_Penalty_Charging>  (108) 
1.66725

>  <r_epik_Ionization_Penalty_Neutral>  (108) 
2.43094e-06

>  <r_epik_State_Penalty>  (108) 
1.76348

>  <r_epik_Charging_Adjusted_Penalty>  (108) 
3.43073

>  <i_epik_Tot_Q>  (108) 
2

>  <i_epik_Tot_abs_Q>  (108) 
2

>  <s_lp_Force_Field>  (108) 
OPLS3e

>  <r_lp_Energy>  (108) 
49.0198

>  <b_lp_Chiralities_Consistent>  (108) 
1

>  <s_lp_Variant>  (108) 
31:0-2

>  <s_i_glide_gridfile>  (108) 
pfpi4k_grid

>  <i_i_glide_lignum>  (108) 
11

>  <i_i_glide_rotatable_bonds>  (108) 
7

>  <r_i_docking_score>  (108) 
-3.28408

>  <r_i_glide_ligand_efficiency>  (108) 
-0.102628

>  <r_i_glide_ligand_efficiency_sa>  (108) 
-0.325822

>  <r_i_glide_ligand_efficiency_ln>  (108) 
-0.735396

>  <r_i_glide_gscore>  (108) 
-3.28408

>  <r_i_glide_lipo>  (108) 
-0.138802

>  <r_i_glide_hbond>  (108) 
0

>  <r_i_glide_metal>  (108) 
-0

>  <r_i_glide_rewards>  (108) 
-0.640701

>  <r_i_glide_evdw>  (108) 
-27.0504

>  <r_i_glide_ecoul>  (108) 
-9.95173

>  <r_i_glide_erotb>  (108) 
0.497937

>  <r_i_glide_esite>  (108) 
-0.157237

>  <r_i_glide_emodel>  (108) 
-43.4836

>  <r_i_glide_energy>  (108) 
-37.0022

>  <r_i_glide_einternal>  (108) 
6.29893

>  <r_i_glide_intrahb_reward>  (108) 
-0

>  <i_i_glide_confnum>  (108) 
3

>  <i_i_glide_posenum>  (108) 
5

>  <r_i_glide_eff_state_penalty>  (108) 
0

>  <ligand_id>  (108) 
31

>  <original_smiles>  (108) 
Cc1cc(CC(c2nnnn2CC(F)F)N2CCC3(CC2)CC(N)C3O)cc2c[nH]nc12

>  <smiles>  (108) 
[H]OC1([H])C2(C([H])([H])C1([H])[N+]([H])([H])[H])C([H])([H])C([H])([H])[N+]([H])(C([H])(c1nnnn1C([H])([H])C([H])(F)F)C([H])([H])c1c([H])c(C([H])([H])[H])c3c(c([H])nn3[H])c1[H])C([H])([H])C2([H])[H]

$$$$
31:2:0
     RDKit          3D

 61 65  0  0  1  0  0  0  0  0999 V2000
    8.2026   -7.2318    1.6824 C   0  0  0  0  0  0  0  0  0  0  0  0
    6.7198   -6.9987    1.8896 C   0  0  0  0  0  0  0  0  0  0  0  0
    6.2629   -5.7464    2.3354 C   0  0  0  0  0  0  0  0  0  0  0  0
    4.8703   -5.4991    2.5244 C   0  0  0  0  0  0  0  0  0  0  0  0
    4.4025   -4.1261    2.9644 C   0  0  0  0  0  0  0  0  0  0  0  0
    3.7106   -3.3150    1.8257 C   0  0  2  0  0  0  0  0  0  0  0  0
    4.4250   -3.4533    0.5108 C   0  0  0  0  0  0  0  0  0  0  0  0
    3.8606   -3.9597   -0.5795 N   0  0  0  0  0  0  0  0  0  0  0  0
    4.8526   -3.8572   -1.5316 N   0  0  0  0  0  0  0  0  0  0  0  0
    5.9423   -3.3489   -1.0367 N   0  0  0  0  0  0  0  0  0  0  0  0
    5.6813   -3.0543    0.2629 N   0  0  0  0  0  0  0  0  0  0  0  0
    6.6962   -2.4810    1.1318 C   0  0  0  0  0  0  0  0  0  0  0  0
    7.5028   -1.3570    0.5006 C   0  0  0  0  0  0  0  0  0  0  0  0
    8.2855   -1.8244   -0.4739 F   0  0  0  0  0  0  0  0  0  0  0  0
    6.6777   -0.3999    0.0792 F   0  0  0  0  0  0  0  0  0  0  0  0
    3.4846   -1.9063    2.1768 N   0  0  0  0  0  0  0  0  0  0  0  0
    2.6458   -1.7740    3.3676 C   0  0  0  0  0  0  0  0  0  0  0  0
    2.4781   -0.3037    3.7444 C   0  0  0  0  0  0  0  0  0  0  0  0
    1.7904    0.5188    2.6562 C   0  0  0  0  0  0  0  0  0  0  0  0
    2.6033    0.2662    1.3843 C   0  0  0  0  0  0  0  0  0  0  0  0
    2.7744   -1.2217    1.0858 C   0  0  0  0  0  0  0  0  0  0  0  0
    0.2678    0.3570    2.4816 C   0  0  0  0  0  0  0  0  0  0  0  0
    0.1810    1.8636    2.2465 C   0  0  1  0  0  0  0  0  0  0  0  0
   -0.9502    2.5119    2.9153 N   0  0  0  0  0  0  0  0  0  0  0  0
    1.4975    1.9931    3.0167 C   0  0  1  0  0  0  0  0  0  0  0  0
    1.3933    2.3130    4.3988 O   0  0  0  0  0  0  0  0  0  0  0  0
    3.9325   -6.5305    2.2927 C   0  0  0  0  0  0  0  0  0  0  0  0
    4.4224   -7.7736    1.8853 C   0  0  0  0  0  0  0  0  0  0  0  0
    3.7720   -8.9672    1.6224 C   0  0  0  0  0  0  0  0  0  0  0  0
    4.7806   -9.8531    1.2779 N   0  0  0  0  0  0  0  0  0  0  0  0
    6.0354   -9.2761    1.2943 N   0  0  0  0  0  0  0  0  0  0  0  0
    5.7741   -8.0149    1.6793 C   0  0  0  0  0  0  0  0  0  0  0  0
    4.6214  -10.8135    0.9586 H   0  0  0  0  0  0  0  0  0  0  0  0
    8.7655   -6.3117    1.8404 H   0  0  0  0  0  0  0  0  0  0  0  0
    8.4123   -7.5818    0.6686 H   0  0  0  0  0  0  0  0  0  0  0  0
    8.5741   -7.9711    2.3942 H   0  0  0  0  0  0  0  0  0  0  0  0
    6.9887   -4.9759    2.5437 H   0  0  0  0  0  0  0  0  0  0  0  0
    3.7480   -4.2463    3.8301 H   0  0  0  0  0  0  0  0  0  0  0  0
    5.2721   -3.5881    3.3381 H   0  0  0  0  0  0  0  0  0  0  0  0
    2.7375   -3.7720    1.6622 H   0  0  0  0  0  0  0  0  0  0  0  0
    6.2340   -2.0974    2.0445 H   0  0  0  0  0  0  0  0  0  0  0  0
    7.4097   -3.2605    1.3938 H   0  0  0  0  0  0  0  0  0  0  0  0
    8.1657   -0.9196    1.2449 H   0  0  0  0  0  0  0  0  0  0  0  0
    1.6708   -2.2346    3.2082 H   0  0  0  0  0  0  0  0  0  0  0  0
    3.0951   -2.2574    4.2302 H   0  0  0  0  0  0  0  0  0  0  0  0
    1.8852   -0.2791    4.6521 H   0  0  0  0  0  0  0  0  0  0  0  0
    3.4464    0.1339    3.9924 H   0  0  0  0  0  0  0  0  0  0  0  0
    2.0673    0.6359    0.5205 H   0  0  0  0  0  0  0  0  0  0  0  0
    3.5729    0.7715    1.4007 H   0  0  0  0  0  0  0  0  0  0  0  0
    3.3063   -1.2549    0.1387 H   0  0  0  0  0  0  0  0  0  0  0  0
    1.8059   -1.6886    0.9002 H   0  0  0  0  0  0  0  0  0  0  0  0
   -0.0261   -0.2332    1.6132 H   0  0  0  0  0  0  0  0  0  0  0  0
   -0.2180    0.0088    3.3944 H   0  0  0  0  0  0  0  0  0  0  0  0
    0.2564    2.1416    1.1949 H   0  0  0  0  0  0  0  0  0  0  0  0
   -0.9274    2.2124    3.8804 H   0  0  0  0  0  0  0  0  0  0  0  0
   -1.8194    2.2489    2.4727 H   0  0  0  0  0  0  0  0  0  0  0  0
    2.1994    2.6782    2.5401 H   0  0  0  0  0  0  0  0  0  0  0  0
    1.3513    3.2542    4.4854 H   0  0  0  0  0  0  0  0  0  0  0  0
    2.8690   -6.3792    2.4380 H   0  0  0  0  0  0  0  0  0  0  0  0
    2.7407   -9.2784    1.6365 H   0  0  0  0  0  0  0  0  0  0  0  0
   -0.7980    3.5087    2.8394 H   0  0  0  0  0  0  0  0  0  0  0  0
  1  2  1  0
  1 34  1  0
  1 35  1  0
  1 36  1  0
  2 32  1  0
  2  3  2  0
  3  4  1  0
  3 37  1  0
  4  5  1  0
  4 27  2  0
  5  6  1  0
  5 38  1  0
  5 39  1  0
  6  7  1  0
  6 16  1  0
  6 40  1  6
  7 11  1  0
  7  8  2  0
  8  9  1  0
  9 10  2  0
 10 11  1  0
 11 12  1  0
 12 13  1  0
 12 41  1  0
 12 42  1  0
 13 14  1  0
 13 15  1  0
 13 43  1  0
 16 21  1  0
 16 17  1  0
 17 18  1  0
 17 44  1  0
 17 45  1  0
 18 19  1  0
 18 46  1  0
 18 47  1  0
 19 25  1  0
 19 20  1  0
 19 22  1  0
 20 21  1  0
 20 48  1  0
 20 49  1  0
 21 50  1  0
 21 51  1  0
 22 23  1  0
 22 52  1  0
 22 53  1  0
 23 24  1  0
 23 25  1  0
 23 54  1  6
 24 55  1  0
 24 56  1  0
 24 61  1  0
 25 26  1  0
 25 57  1  6
 26 58  1  0
 27 28  1  0
 27 59  1  0
 28 32  1  0
 28 29  2  0
 29 30  1  0
 29 60  1  0
 30 33  1  0
 30 31  1  0
 31 32  2  0
M  CHG  1  24   1
M  END
>  <i_m_ct_stereo_status>  (109) 
1

>  <s_m_source_file>  (109) 
/var/tmp/pbs.5076255.sched01/tmpqllwm4fg/43asec3i7m.sdf

>  <i_m_source_file_index>  (109) 
12

>  <i_lp_mmshare_version>  (109) 
48012

>  <i_f3d_flags>  (109) 
0

>  <s_epik_input>  (109) 
W09IXVtDQEBIXTFbQ0BIXShbTkgyXSlbQ0gyXUMxMltDSDJdW0NIMl1OKFtDSDJdW0NIMl0yKVtDQEBIXShjM25ubm4zW0NIMl1bQ0hdKEYpRilbQ0gyXWMoW2NIXTQpW2NIXWMoW0NIM10pYyhjNDUpbltuSF1bY0hdNQ==

>  <s_epik_cmdline>  (109) 
J2VwaWtfcHl0aG9uJywgJy1waHQnLCAnMi4wJywgJy1waCcsICc3LjAnLCAnLXRuJywgJzgnLCAnLW1hJywgJzIwMCcsICctaW1hZScsICc8aW5maWxlLm1hZT4nLCAnLW9tYWUnLCAnPG91dGZpbGUubWFlPic=

>  <r_lp_tautomer_probability>  (109) 
0.0196078

>  <r_epik_Ionization_Penalty>  (109) 
0.0440279

>  <r_epik_Ionization_Penalty_Charging>  (109) 
0.00638623

>  <r_epik_Ionization_Penalty_Neutral>  (109) 
0.0376417

>  <r_epik_State_Penalty>  (109) 
2.51334

>  <r_epik_Charging_Adjusted_Penalty>  (109) 
2.51973

>  <i_epik_Tot_Q>  (109) 
1

>  <i_epik_Tot_abs_Q>  (109) 
1

>  <s_lp_Force_Field>  (109) 
OPLS3e

>  <r_lp_Energy>  (109) 
35.6445

>  <b_lp_Chiralities_Consistent>  (109) 
1

>  <s_lp_Variant>  (109) 
31:0-3

>  <s_i_glide_gridfile>  (109) 
pfpi4k_grid

>  <i_i_glide_lignum>  (109) 
12

>  <i_i_glide_rotatable_bonds>  (109) 
7

>  <r_i_docking_score>  (109) 
-3.64032

>  <r_i_glide_ligand_efficiency>  (109) 
-0.11376

>  <r_i_glide_ligand_efficiency_sa>  (109) 
-0.361166

>  <r_i_glide_ligand_efficiency_ln>  (109) 
-0.815168

>  <r_i_glide_gscore>  (109) 
-3.64032

>  <r_i_glide_lipo>  (109) 
-0.27155

>  <r_i_glide_hbond>  (109) 
-0.164946

>  <r_i_glide_metal>  (109) 
-0

>  <r_i_glide_rewards>  (109) 
-0.459147

>  <r_i_glide_evdw>  (109) 
-25.4316

>  <r_i_glide_ecoul>  (109) 
-10.963

>  <r_i_glide_erotb>  (109) 
0.499978

>  <r_i_glide_esite>  (109) 
-0.328625

>  <r_i_glide_emodel>  (109) 
-47.0228

>  <r_i_glide_energy>  (109) 
-36.3946

>  <r_i_glide_einternal>  (109) 
4.53717

>  <r_i_glide_intrahb_reward>  (109) 
-0

>  <i_i_glide_confnum>  (109) 
5

>  <i_i_glide_posenum>  (109) 
3

>  <r_i_glide_eff_state_penalty>  (109) 
0

>  <ligand_id>  (109) 
31

>  <original_smiles>  (109) 
Cc1cc(CC(c2nnnn2CC(F)F)N2CCC3(CC2)CC(N)C3O)cc2c[nH]nc12

>  <smiles>  (109) 
[H]OC1([H])C2(C([H])([H])C([H])([H])N(C([H])(c3nnnn3C([H])([H])C([H])(F)F)C([H])([H])c3c([H])c(C([H])([H])[H])c4nn([H])c([H])c4c3[H])C([H])([H])C2([H])[H])C([H])([H])C1([H])[N+]([H])([H])[H]

$$$$
31:2:1
     RDKit          3D

 61 65  0  0  1  0  0  0  0  0999 V2000
    0.9455    5.7392    4.6335 C   0  0  0  0  0  0  0  0  0  0  0  0
    0.7526    4.3025    4.2211 C   0  0  0  0  0  0  0  0  0  0  0  0
    1.8144    3.5708    3.6499 C   0  0  0  0  0  0  0  0  0  0  0  0
    1.6288    2.2237    3.2619 C   0  0  0  0  0  0  0  0  0  0  0  0
    2.7713    1.4906    2.5922 C   0  0  0  0  0  0  0  0  0  0  0  0
    2.8620   -0.0293    2.8639 C   0  0  2  0  0  0  0  0  0  0  0  0
    2.9732   -0.3070    4.3387 C   0  0  0  0  0  0  0  0  0  0  0  0
    1.9550   -0.6435    5.1132 N   0  0  0  0  0  0  0  0  0  0  0  0
    2.5016   -0.7361    6.3653 N   0  0  0  0  0  0  0  0  0  0  0  0
    3.7767   -0.4787    6.3408 N   0  0  0  0  0  0  0  0  0  0  0  0
    4.0983   -0.2084    5.0562 N   0  0  0  0  0  0  0  0  0  0  0  0
    5.4704    0.1232    4.6575 C   0  0  0  0  0  0  0  0  0  0  0  0
    6.4713    0.2154    5.8212 C   0  0  0  0  0  0  0  0  0  0  0  0
    6.6081   -0.9575    6.4376 F   0  0  0  0  0  0  0  0  0  0  0  0
    7.6613    0.5827    5.3471 F   0  0  0  0  0  0  0  0  0  0  0  0
    3.8938   -0.7413    2.0970 N   0  0  0  0  0  0  0  0  0  0  0  0
    4.0405   -0.2339    0.7352 C   0  0  0  0  0  0  0  0  0  0  0  0
    5.1707   -0.9562    0.0345 C   0  0  0  0  0  0  0  0  0  0  0  0
    4.9103   -2.4474   -0.1048 C   0  0  0  0  0  0  0  0  0  0  0  0
    4.6130   -2.9699    1.3157 C   0  0  0  0  0  0  0  0  0  0  0  0
    3.5122   -2.1553    2.0086 C   0  0  0  0  0  0  0  0  0  0  0  0
    3.8911   -2.8770   -1.1795 C   0  0  0  0  0  0  0  0  0  0  0  0
    4.8377   -4.0267   -1.5259 C   0  0  1  0  0  0  0  0  0  0  0  0
    4.9870   -4.2499   -2.9628 N   0  0  0  0  0  0  0  0  0  0  0  0
    5.9823   -3.2067   -0.9279 C   0  0  1  0  0  0  0  0  0  0  0  0
    6.7599   -2.4323   -1.8350 O   0  0  0  0  0  0  0  0  0  0  0  0
    0.3731    1.5992    3.4039 C   0  0  0  0  0  0  0  0  0  0  0  0
   -0.6545    2.3444    3.9956 C   0  0  0  0  0  0  0  0  0  0  0  0
   -1.9407    1.9707    4.2880 C   0  0  0  0  0  0  0  0  0  0  0  0
   -2.4973    3.1056    4.8574 N   0  0  0  0  0  0  0  0  0  0  0  0
   -1.6081    4.1542    4.9260 N   0  0  0  0  0  0  0  0  0  0  0  0
   -0.4870    3.6446    4.3870 C   0  0  0  0  0  0  0  0  0  0  0  0
   -3.4539    3.1901    5.1919 H   0  0  0  0  0  0  0  0  0  0  0  0
    1.9780    6.0497    4.4534 H   0  0  0  0  0  0  0  0  0  0  0  0
    0.7320    5.8615    5.6964 H   0  0  0  0  0  0  0  0  0  0  0  0
    0.2914    6.3900    4.0514 H   0  0  0  0  0  0  0  0  0  0  0  0
    2.7771    4.0516    3.4783 H   0  0  0  0  0  0  0  0  0  0  0  0
    2.6175    1.7311    1.5417 H   0  0  0  0  0  0  0  0  0  0  0  0
    3.6853    1.9544    2.9500 H   0  0  0  0  0  0  0  0  0  0  0  0
    1.9178   -0.4505    2.5231 H   0  0  0  0  0  0  0  0  0  0  0  0
    5.8118   -0.6199    3.9332 H   0  0  0  0  0  0  0  0  0  0  0  0
    5.4490    1.0794    4.1335 H   0  0  0  0  0  0  0  0  0  0  0  0
    6.1760    0.9588    6.5610 H   0  0  0  0  0  0  0  0  0  0  0  0
    3.1036   -0.3114    0.1812 H   0  0  0  0  0  0  0  0  0  0  0  0
    4.3688    0.7997    0.7337 H   0  0  0  0  0  0  0  0  0  0  0  0
    5.2635   -0.4867   -0.9436 H   0  0  0  0  0  0  0  0  0  0  0  0
    6.1086   -0.7751    0.5631 H   0  0  0  0  0  0  0  0  0  0  0  0
    4.2556   -3.9980    1.2837 H   0  0  0  0  0  0  0  0  0  0  0  0
    5.5143   -2.9807    1.9311 H   0  0  0  0  0  0  0  0  0  0  0  0
    3.3332   -2.5745    2.9983 H   0  0  0  0  0  0  0  0  0  0  0  0
    2.5745   -2.2748    1.4585 H   0  0  0  0  0  0  0  0  0  0  0  0
    2.9168   -3.1814   -0.7937 H   0  0  0  0  0  0  0  0  0  0  0  0
    3.7771   -2.1319   -1.9695 H   0  0  0  0  0  0  0  0  0  0  0  0
    4.6231   -4.9397   -0.9703 H   0  0  0  0  0  0  0  0  0  0  0  0
    5.1688   -3.3712   -3.4144 H   0  0  0  0  0  0  0  0  0  0  0  0
    4.1270   -4.6805   -3.2890 H   0  0  0  0  0  0  0  0  0  0  0  0
    6.6394   -3.7962   -0.2883 H   0  0  0  0  0  0  0  0  0  0  0  0
    7.2615   -3.0177   -2.3933 H   0  0  0  0  0  0  0  0  0  0  0  0
    0.1576    0.5908    3.0881 H   0  0  0  0  0  0  0  0  0  0  0  0
   -2.4877    1.0519    4.1600 H   0  0  0  0  0  0  0  0  0  0  0  0
    5.7437   -4.9058   -3.1190 H   0  0  0  0  0  0  0  0  0  0  0  0
  1  2  1  0
  1 34  1  0
  1 35  1  0
  1 36  1  0
  2 32  1  0
  2  3  2  0
  3  4  1  0
  3 37  1  0
  4  5  1  0
  4 27  2  0
  5  6  1  0
  5 38  1  0
  5 39  1  0
  6  7  1  0
  6 16  1  0
  6 40  1  6
  7 11  1  0
  7  8  2  0
  8  9  1  0
  9 10  2  0
 10 11  1  0
 11 12  1  0
 12 13  1  0
 12 41  1  0
 12 42  1  0
 13 14  1  0
 13 15  1  0
 13 43  1  0
 16 21  1  0
 16 17  1  0
 17 18  1  0
 17 44  1  0
 17 45  1  0
 18 19  1  0
 18 46  1  0
 18 47  1  0
 19 25  1  0
 19 20  1  0
 19 22  1  0
 20 21  1  0
 20 48  1  0
 20 49  1  0
 21 50  1  0
 21 51  1  0
 22 23  1  0
 22 52  1  0
 22 53  1  0
 23 24  1  0
 23 25  1  0
 23 54  1  1
 24 55  1  0
 24 56  1  0
 24 61  1  0
 25 26  1  0
 25 57  1  1
 26 58  1  0
 27 28  1  0
 27 59  1  0
 28 32  1  0
 28 29  2  0
 29 30  1  0
 29 60  1  0
 30 33  1  0
 30 31  1  0
 31 32  2  0
M  CHG  1  24   1
M  END
>  <i_m_ct_stereo_status>  (110) 
1

>  <s_m_source_file>  (110) 
/var/tmp/pbs.5076255.sched01/tmpqllwm4fg/43asec3i7m.sdf

>  <i_m_source_file_index>  (110) 
12

>  <i_lp_mmshare_version>  (110) 
48012

>  <i_f3d_flags>  (110) 
0

>  <s_epik_input>  (110) 
W09IXVtDQEBIXTFbQ0BIXShbTkgyXSlbQ0gyXUMxMltDSDJdW0NIMl1OKFtDSDJdW0NIMl0yKVtDQEBIXShjM25ubm4zW0NIMl1bQ0hdKEYpRilbQ0gyXWMoW2NIXTQpW2NIXWMoW0NIM10pYyhjNDUpbltuSF1bY0hdNQ==

>  <s_epik_cmdline>  (110) 
J2VwaWtfcHl0aG9uJywgJy1waHQnLCAnMi4wJywgJy1waCcsICc3LjAnLCAnLXRuJywgJzgnLCAnLW1hJywgJzIwMCcsICctaW1hZScsICc8aW5maWxlLm1hZT4nLCAnLW9tYWUnLCAnPG91dGZpbGUubWFlPic=

>  <r_lp_tautomer_probability>  (110) 
0.0196078

>  <r_epik_Ionization_Penalty>  (110) 
0.0440279

>  <r_epik_Ionization_Penalty_Charging>  (110) 
0.00638623

>  <r_epik_Ionization_Penalty_Neutral>  (110) 
0.0376417

>  <r_epik_State_Penalty>  (110) 
2.51334

>  <r_epik_Charging_Adjusted_Penalty>  (110) 
2.51973

>  <i_epik_Tot_Q>  (110) 
1

>  <i_epik_Tot_abs_Q>  (110) 
1

>  <s_lp_Force_Field>  (110) 
OPLS3e

>  <r_lp_Energy>  (110) 
35.6445

>  <b_lp_Chiralities_Consistent>  (110) 
1

>  <s_lp_Variant>  (110) 
31:0-3

>  <s_i_glide_gridfile>  (110) 
pfpi4k_grid

>  <i_i_glide_lignum>  (110) 
12

>  <i_i_glide_rotatable_bonds>  (110) 
7

>  <r_i_docking_score>  (110) 
-3.59107

>  <r_i_glide_ligand_efficiency>  (110) 
-0.112221

>  <r_i_glide_ligand_efficiency_sa>  (110) 
-0.35628

>  <r_i_glide_ligand_efficiency_ln>  (110) 
-0.804139

>  <r_i_glide_gscore>  (110) 
-3.59107

>  <r_i_glide_lipo>  (110) 
-0.418845

>  <r_i_glide_hbond>  (110) 
-0.149927

>  <r_i_glide_metal>  (110) 
-0

>  <r_i_glide_rewards>  (110) 
-0.559286

>  <r_i_glide_evdw>  (110) 
-24.9129

>  <r_i_glide_ecoul>  (110) 
-11.039

>  <r_i_glide_erotb>  (110) 
0.499978

>  <r_i_glide_esite>  (110) 
-0.0615008

>  <r_i_glide_emodel>  (110) 
-46.0881

>  <r_i_glide_energy>  (110) 
-35.9519

>  <r_i_glide_einternal>  (110) 
5.04911

>  <r_i_glide_intrahb_reward>  (110) 
-0

>  <i_i_glide_confnum>  (110) 
5

>  <i_i_glide_posenum>  (110) 
4

>  <r_i_glide_eff_state_penalty>  (110) 
0

>  <ligand_id>  (110) 
31

>  <original_smiles>  (110) 
Cc1cc(CC(c2nnnn2CC(F)F)N2CCC3(CC2)CC(N)C3O)cc2c[nH]nc12

>  <smiles>  (110) 
[H]OC1([H])C2(C([H])([H])C([H])([H])N(C([H])(c3nnnn3C([H])([H])C([H])(F)F)C([H])([H])c3c([H])c(C([H])([H])[H])c4nn([H])c([H])c4c3[H])C([H])([H])C2([H])[H])C([H])([H])C1([H])[N+]([H])([H])[H]

$$$$
31:2:2
     RDKit          3D

 61 65  0  0  1  0  0  0  0  0999 V2000
    0.9324    4.6075    6.1971 C   0  0  0  0  0  0  0  0  0  0  0  0
    0.7483    3.6601    5.0449 C   0  0  0  0  0  0  0  0  0  0  0  0
    1.8593    2.9478    4.5291 C   0  0  0  0  0  0  0  0  0  0  0  0
    1.6971    2.0599    3.4508 C   0  0  0  0  0  0  0  0  0  0  0  0
    2.9108    1.3772    2.8519 C   0  0  0  0  0  0  0  0  0  0  0  0
    2.7989   -0.1688    2.8243 C   0  0  2  0  0  0  0  0  0  0  0  0
    2.6857   -0.7181    4.2165 C   0  0  0  0  0  0  0  0  0  0  0  0
    1.5711   -1.2129    4.7339 N   0  0  0  0  0  0  0  0  0  0  0  0
    1.9396   -1.6301    5.9796 N   0  0  0  0  0  0  0  0  0  0  0  0
    3.1948   -1.3776    6.2139 N   0  0  0  0  0  0  0  0  0  0  0  0
    3.6931   -0.7979    5.1004 N   0  0  0  0  0  0  0  0  0  0  0  0
    5.0948   -0.3639    5.0072 C   0  0  0  0  0  0  0  0  0  0  0  0
    6.0163   -0.8443    6.1455 C   0  0  0  0  0  0  0  0  0  0  0  0
    5.6240   -0.3856    7.3300 F   0  0  0  0  0  0  0  0  0  0  0  0
    6.1101   -2.1720    6.1581 F   0  0  0  0  0  0  0  0  0  0  0  0
    3.8577   -0.8341    2.0473 N   0  0  0  0  0  0  0  0  0  0  0  0
    3.9518   -0.3093    0.6851 C   0  0  0  0  0  0  0  0  0  0  0  0
    5.0942   -0.9708   -0.0543 C   0  0  0  0  0  0  0  0  0  0  0  0
    4.9062   -2.4717   -0.2114 C   0  0  0  0  0  0  0  0  0  0  0  0
    4.6713   -3.0079    1.2069 C   0  0  0  0  0  0  0  0  0  0  0  0
    3.5388   -2.2644    1.9218 C   0  0  0  0  0  0  0  0  0  0  0  0
    3.8877   -2.9443   -1.2689 C   0  0  0  0  0  0  0  0  0  0  0  0
    4.8828   -4.0418   -1.6407 C   0  0  1  0  0  0  0  0  0  0  0  0
    5.0128   -4.2483   -3.0811 N   0  0  0  0  0  0  0  0  0  0  0  0
    6.0001   -3.1801   -1.0504 C   0  0  1  0  0  0  0  0  0  0  0  0
    6.7472   -2.3524   -1.9315 O   0  0  0  0  0  0  0  0  0  0  0  0
    0.4240    1.8707    2.8477 C   0  0  0  0  0  0  0  0  0  0  0  0
   -0.6593    2.5873    3.3947 C   0  0  0  0  0  0  0  0  0  0  0  0
   -1.9863    2.6028    3.0180 C   0  0  0  0  0  0  0  0  0  0  0  0
   -2.5782    3.4789    3.9200 N   0  0  0  0  0  0  0  0  0  0  0  0
   -1.6661    4.0297    4.8081 N   0  0  0  0  0  0  0  0  0  0  0  0
   -0.5067    3.4454    4.4444 C   0  0  0  0  0  0  0  0  0  0  0  0
   -3.5635    3.7078    3.9437 H   0  0  0  0  0  0  0  0  0  0  0  0
    1.9728    4.5971    6.5364 H   0  0  0  0  0  0  0  0  0  0  0  0
    0.3040    4.3163    7.0415 H   0  0  0  0  0  0  0  0  0  0  0  0
    0.6902    5.6298    5.9002 H   0  0  0  0  0  0  0  0  0  0  0  0
    2.8543    3.1075    4.9485 H   0  0  0  0  0  0  0  0  0  0  0  0
    2.9786    1.8507    1.8767 H   0  0  0  0  0  0  0  0  0  0  0  0
    3.7984    1.6725    3.4043 H   0  0  0  0  0  0  0  0  0  0  0  0
    1.8619   -0.4281    2.3311 H   0  0  0  0  0  0  0  0  0  0  0  0
    5.5142   -0.7123    4.0565 H   0  0  0  0  0  0  0  0  0  0  0  0
    5.1254    0.7296    4.9815 H   0  0  0  0  0  0  0  0  0  0  0  0
    7.0230   -0.4576    6.0128 H   0  0  0  0  0  0  0  0  0  0  0  0
    3.0092   -0.4330    0.1541 H   0  0  0  0  0  0  0  0  0  0  0  0
    4.2376    0.7362    0.6453 H   0  0  0  0  0  0  0  0  0  0  0  0
    5.1322   -0.4848   -1.0234 H   0  0  0  0  0  0  0  0  0  0  0  0
    6.0379   -0.7479    0.4471 H   0  0  0  0  0  0  0  0  0  0  0  0
    4.3574   -4.0447    1.1881 H   0  0  0  0  0  0  0  0  0  0  0  0
    5.5850   -2.9783    1.8043 H   0  0  0  0  0  0  0  0  0  0  0  0
    3.4269   -2.7497    2.8889 H   0  0  0  0  0  0  0  0  0  0  0  0
    2.5957   -2.4241    1.3903 H   0  0  0  0  0  0  0  0  0  0  0  0
    2.9366   -3.2987   -0.8642 H   0  0  0  0  0  0  0  0  0  0  0  0
    3.7183   -2.2002   -2.0500 H   0  0  0  0  0  0  0  0  0  0  0  0
    4.7153   -4.9713   -1.0928 H   0  0  0  0  0  0  0  0  0  0  0  0
    5.1240   -3.3520   -3.5344 H   0  0  0  0  0  0  0  0  0  0  0  0
    4.1556   -4.7107   -3.3825 H   0  0  0  0  0  0  0  0  0  0  0  0
    6.6840   -3.7566   -0.4302 H   0  0  0  0  0  0  0  0  0  0  0  0
    7.1370   -2.8881   -2.6195 H   0  0  0  0  0  0  0  0  0  0  0  0
    0.2650    1.2450    1.9788 H   0  0  0  0  0  0  0  0  0  0  0  0
   -2.5682    2.1201    2.2532 H   0  0  0  0  0  0  0  0  0  0  0  0
    5.7796   -4.8733   -3.2531 H   0  0  0  0  0  0  0  0  0  0  0  0
  1  2  1  0
  1 34  1  0
  1 35  1  0
  1 36  1  0
  2 32  1  0
  2  3  2  0
  3  4  1  0
  3 37  1  0
  4  5  1  0
  4 27  2  0
  5  6  1  0
  5 38  1  0
  5 39  1  0
  6  7  1  0
  6 16  1  0
  6 40  1  6
  7 11  1  0
  7  8  2  0
  8  9  1  0
  9 10  2  0
 10 11  1  0
 11 12  1  0
 12 13  1  0
 12 41  1  0
 12 42  1  0
 13 14  1  0
 13 15  1  0
 13 43  1  0
 16 21  1  0
 16 17  1  0
 17 18  1  0
 17 44  1  0
 17 45  1  0
 18 19  1  0
 18 46  1  0
 18 47  1  0
 19 25  1  0
 19 20  1  0
 19 22  1  0
 20 21  1  0
 20 48  1  0
 20 49  1  0
 21 50  1  0
 21 51  1  0
 22 23  1  0
 22 52  1  0
 22 53  1  0
 23 24  1  0
 23 25  1  0
 23 54  1  1
 24 55  1  0
 24 56  1  0
 24 61  1  0
 25 26  1  0
 25 57  1  1
 26 58  1  0
 27 28  1  0
 27 59  1  0
 28 32  1  0
 28 29  2  0
 29 30  1  0
 29 60  1  0
 30 33  1  0
 30 31  1  0
 31 32  2  0
M  CHG  1  24   1
M  END
>  <i_m_ct_stereo_status>  (111) 
1

>  <s_m_source_file>  (111) 
/var/tmp/pbs.5076255.sched01/tmpqllwm4fg/43asec3i7m.sdf

>  <i_m_source_file_index>  (111) 
12

>  <i_lp_mmshare_version>  (111) 
48012

>  <i_f3d_flags>  (111) 
0

>  <s_epik_input>  (111) 
W09IXVtDQEBIXTFbQ0BIXShbTkgyXSlbQ0gyXUMxMltDSDJdW0NIMl1OKFtDSDJdW0NIMl0yKVtDQEBIXShjM25ubm4zW0NIMl1bQ0hdKEYpRilbQ0gyXWMoW2NIXTQpW2NIXWMoW0NIM10pYyhjNDUpbltuSF1bY0hdNQ==

>  <s_epik_cmdline>  (111) 
J2VwaWtfcHl0aG9uJywgJy1waHQnLCAnMi4wJywgJy1waCcsICc3LjAnLCAnLXRuJywgJzgnLCAnLW1hJywgJzIwMCcsICctaW1hZScsICc8aW5maWxlLm1hZT4nLCAnLW9tYWUnLCAnPG91dGZpbGUubWFlPic=

>  <r_lp_tautomer_probability>  (111) 
0.0196078

>  <r_epik_Ionization_Penalty>  (111) 
0.0440279

>  <r_epik_Ionization_Penalty_Charging>  (111) 
0.00638623

>  <r_epik_Ionization_Penalty_Neutral>  (111) 
0.0376417

>  <r_epik_State_Penalty>  (111) 
2.51334

>  <r_epik_Charging_Adjusted_Penalty>  (111) 
2.51973

>  <i_epik_Tot_Q>  (111) 
1

>  <i_epik_Tot_abs_Q>  (111) 
1

>  <s_lp_Force_Field>  (111) 
OPLS3e

>  <r_lp_Energy>  (111) 
35.6445

>  <b_lp_Chiralities_Consistent>  (111) 
1

>  <s_lp_Variant>  (111) 
31:0-3

>  <s_i_glide_gridfile>  (111) 
pfpi4k_grid

>  <i_i_glide_lignum>  (111) 
12

>  <i_i_glide_rotatable_bonds>  (111) 
7

>  <r_i_docking_score>  (111) 
-3.27841

>  <r_i_glide_ligand_efficiency>  (111) 
-0.10245

>  <r_i_glide_ligand_efficiency_sa>  (111) 
-0.325259

>  <r_i_glide_ligand_efficiency_ln>  (111) 
-0.734125

>  <r_i_glide_gscore>  (111) 
-3.27841

>  <r_i_glide_lipo>  (111) 
-0.273988

>  <r_i_glide_hbond>  (111) 
-0.252368

>  <r_i_glide_metal>  (111) 
-0

>  <r_i_glide_rewards>  (111) 
-0.406344

>  <r_i_glide_evdw>  (111) 
-24.923

>  <r_i_glide_ecoul>  (111) 
-10.0906

>  <r_i_glide_erotb>  (111) 
0.499978

>  <r_i_glide_esite>  (111) 
-0.0859429

>  <r_i_glide_emodel>  (111) 
-44.7544

>  <r_i_glide_energy>  (111) 
-35.0136

>  <r_i_glide_einternal>  (111) 
3.63818

>  <r_i_glide_intrahb_reward>  (111) 
-0

>  <i_i_glide_confnum>  (111) 
5

>  <i_i_glide_posenum>  (111) 
10

>  <r_i_glide_eff_state_penalty>  (111) 
0

>  <ligand_id>  (111) 
31

>  <original_smiles>  (111) 
Cc1cc(CC(c2nnnn2CC(F)F)N2CCC3(CC2)CC(N)C3O)cc2c[nH]nc12

>  <smiles>  (111) 
[H]OC1([H])C2(C([H])([H])C([H])([H])N(C([H])(c3nnnn3C([H])([H])C([H])(F)F)C([H])([H])c3c([H])c(C([H])([H])[H])c4nn([H])c([H])c4c3[H])C([H])([H])C2([H])[H])C([H])([H])C1([H])[N+]([H])([H])[H]

$$$$
33:0:0
     RDKit          3D

 88 97  0  0  1  0  0  0  0  0999 V2000
    3.7285    0.4811    1.3880 C   0  0  0  0  0  0  0  0  0  0  0  0
    3.8396   -0.9922    0.9610 C   0  0  2  0  0  0  0  0  0  0  0  0
    3.1542   -1.9287    1.9616 C   0  0  0  0  0  0  0  0  0  0  0  0
    4.1431   -3.0385    2.6008 C   0  0  2  0  0  0  0  0  0  0  0  0
    5.1251   -2.0446    3.2591 C   0  0  0  0  0  0  0  0  0  0  0  0
    5.8399   -1.3964    2.1684 O   0  0  0  0  0  0  0  0  0  0  0  0
    5.2652   -1.5231    0.8185 C   0  0  2  0  0  0  0  0  0  0  0  0
    6.1309   -0.7095   -0.1413 C   0  0  0  0  0  0  0  0  0  0  0  0
    5.1632   -3.0285    0.3050 C   0  0  0  0  0  0  0  0  0  0  0  0
    5.0760   -3.9670    1.5531 C   0  0  1  0  0  0  0  0  0  0  0  0
    6.4711   -3.7604    1.7170 O   0  0  0  0  0  0  0  0  0  0  0  0
    5.0007   -5.7143    1.4945 C   0  0  1  0  0  0  0  0  0  0  0  0
    5.2762   -6.2125    0.1008 C   0  0  0  0  0  0  0  0  0  0  0  0
    6.1538   -6.1360    2.4909 C   0  0  0  0  0  0  0  0  0  0  0  0
    5.8894   -5.4491    3.8782 C   0  0  0  0  0  0  0  0  0  0  0  0
    4.3661   -5.1826    4.2078 C   0  0  2  0  0  0  0  0  0  0  0  0
    3.7978   -6.4444    3.6823 C   0  0  1  0  0  0  0  0  0  0  0  0
    3.5049   -5.2216    3.1189 O   0  0  0  0  0  0  0  0  0  0  0  0
    2.4761   -4.6026    2.3493 C   0  0  1  0  0  0  0  0  0  0  0  0
    2.5712   -4.4877    0.9338 O   0  0  0  0  0  0  0  0  0  0  0  0
    1.3938   -5.3796    2.7871 C   0  0  1  0  0  0  0  0  0  0  0  0
    2.0674   -6.7447    2.1962 C   0  0  2  0  0  0  0  0  0  0  0  0
    1.2391   -7.8431    2.8806 C   0  0  1  0  0  0  0  0  0  0  0  0
    1.8039   -9.1191    2.6547 O   0  0  0  0  0  0  0  0  0  0  0  0
    0.8259   -7.7028    4.4041 C   0  0  1  0  0  0  0  0  0  0  0  0
    0.5489   -6.3842    5.2574 C   0  0  2  0  0  0  0  0  0  0  0  0
   -0.9126   -6.6111    4.8898 C   0  0  0  0  0  0  0  0  0  0  0  0
   -0.6381   -8.1372    4.7732 C   0  0  0  0  0  0  0  0  0  0  0  0
   -1.5368   -8.8020    3.7236 C   0  0  0  0  0  0  0  0  0  0  0  0
   -0.6692   -9.0746    6.0174 C   0  0  0  0  0  0  0  0  0  0  0  0
    1.1888   -4.9482    5.3950 C   0  0  2  0  0  0  0  0  0  0  0  0
    2.3347   -4.9482    6.4515 C   0  0  0  0  0  0  0  0  0  0  0  0
    1.7894   -4.9194    7.7753 O   0  0  0  0  0  0  0  0  0  0  0  0
    0.4672   -4.5204    7.7086 C   0  0  1  0  0  0  0  0  0  0  0  0
    0.2059   -3.4487    8.5747 O   0  0  0  0  0  0  0  0  0  0  0  0
    0.2554   -4.0717    6.2597 C   0  0  0  0  0  0  0  0  0  0  0  0
    1.6371   -4.2825    3.9773 C   0  0  2  0  0  0  0  0  0  0  0  0
    0.7494   -3.0147    3.7614 C   0  0  0  0  0  0  0  0  0  0  0  0
    3.2694   -4.0683    3.5418 C   0  0  1  0  0  0  0  0  0  0  0  0
    3.7571   -6.7624    2.2175 C   0  0  1  0  0  0  0  0  0  0  0  0
    4.1992    0.6762    2.3530 H   0  0  0  0  0  0  0  0  0  0  0  0
    2.6887    0.8034    1.4498 H   0  0  0  0  0  0  0  0  0  0  0  0
    4.2155    1.1052    0.6384 H   0  0  0  0  0  0  0  0  0  0  0  0
    3.3565   -1.0782   -0.0100 H   0  0  0  0  0  0  0  0  0  0  0  0
    2.7503   -1.3451    2.7769 H   0  0  0  0  0  0  0  0  0  0  0  0
    2.2636   -2.2529    1.4284 H   0  0  0  0  0  0  0  0  0  0  0  0
    4.5861   -1.2917    3.8204 H   0  0  0  0  0  0  0  0  0  0  0  0
    5.8069   -2.5173    3.9610 H   0  0  0  0  0  0  0  0  0  0  0  0
    5.6870   -0.6885   -1.1373 H   0  0  0  0  0  0  0  0  0  0  0  0
    7.1202   -1.1550   -0.2037 H   0  0  0  0  0  0  0  0  0  0  0  0
    6.2524    0.3093    0.2122 H   0  0  0  0  0  0  0  0  0  0  0  0
    4.2855   -3.1492   -0.3329 H   0  0  0  0  0  0  0  0  0  0  0  0
    5.9904   -3.2643   -0.3791 H   0  0  0  0  0  0  0  0  0  0  0  0
    6.5815   -2.8102    1.8537 H   0  0  0  0  0  0  0  0  0  0  0  0
    5.3574   -7.2963    0.1492 H   0  0  0  0  0  0  0  0  0  0  0  0
    6.2462   -5.8114   -0.2246 H   0  0  0  0  0  0  0  0  0  0  0  0
    4.4902   -5.8869   -0.6014 H   0  0  0  0  0  0  0  0  0  0  0  0
    6.1427   -7.2155    2.6127 H   0  0  0  0  0  0  0  0  0  0  0  0
    7.1660   -5.9452    2.1216 H   0  0  0  0  0  0  0  0  0  0  0  0
    6.2987   -6.1456    4.6057 H   0  0  0  0  0  0  0  0  0  0  0  0
    6.4876   -4.5650    4.0327 H   0  0  0  0  0  0  0  0  0  0  0  0
    4.3934   -5.1015    5.3032 H   0  0  0  0  0  0  0  0  0  0  0  0
    3.1044   -6.8858    4.3595 H   0  0  0  0  0  0  0  0  0  0  0  0
    2.4473   -3.5669    0.6660 H   0  0  0  0  0  0  0  0  0  0  0  0
    0.4576   -5.1975    2.3020 H   0  0  0  0  0  0  0  0  0  0  0  0
    1.8218   -6.8299    1.1359 H   0  0  0  0  0  0  0  0  0  0  0  0
    0.3270   -7.8528    2.2780 H   0  0  0  0  0  0  0  0  0  0  0  0
    1.5730   -9.4081    1.7725 H   0  0  0  0  0  0  0  0  0  0  0  0
    1.5108   -8.3165    4.9854 H   0  0  0  0  0  0  0  0  0  0  0  0
    0.6547   -6.7859    6.2656 H   0  0  0  0  0  0  0  0  0  0  0  0
   -1.5676   -6.2511    5.6915 H   0  0  0  0  0  0  0  0  0  0  0  0
   -1.1517   -6.1636    3.9162 H   0  0  0  0  0  0  0  0  0  0  0  0
   -2.5075   -9.0569    4.1448 H   0  0  0  0  0  0  0  0  0  0  0  0
   -1.0928   -9.7173    3.3222 H   0  0  0  0  0  0  0  0  0  0  0  0
   -1.7500   -8.1327    2.8931 H   0  0  0  0  0  0  0  0  0  0  0  0
   -1.6866   -9.3654    6.3113 H   0  0  0  0  0  0  0  0  0  0  0  0
   -0.1798   -8.6754    6.8965 H   0  0  0  0  0  0  0  0  0  0  0  0
   -0.1730  -10.0229    5.7983 H   0  0  0  0  0  0  0  0  0  0  0  0
    2.9153   -5.8692    6.4171 H   0  0  0  0  0  0  0  0  0  0  0  0
    2.9589   -4.0671    6.3753 H   0  0  0  0  0  0  0  0  0  0  0  0
   -0.1348   -5.3886    8.0053 H   0  0  0  0  0  0  0  0  0  0  0  0
    0.8785   -2.7882    8.3820 H   0  0  0  0  0  0  0  0  0  0  0  0
    0.4905   -3.0069    6.2498 H   0  0  0  0  0  0  0  0  0  0  0  0
   -0.8145   -4.1777    6.0402 H   0  0  0  0  0  0  0  0  0  0  0  0
    1.1460   -2.1750    4.3262 H   0  0  0  0  0  0  0  0  0  0  0  0
   -0.2796   -3.1884    4.0350 H   0  0  0  0  0  0  0  0  0  0  0  0
    0.7019   -2.7207    2.7258 H   0  0  0  0  0  0  0  0  0  0  0  0
    4.0625   -7.7938    2.0334 H   0  0  0  0  0  0  0  0  0  0  0  0
  1  2  1  0
  1 41  1  0
  1 42  1  0
  1 43  1  0
  2  7  1  0
  2  3  1  0
  2 44  1  6
  4  3  1  6
  3 45  1  0
  3 46  1  0
  4 10  1  0
 39  4  1  6
  4  5  1  0
  5  6  1  0
  5 47  1  0
  5 48  1  0
  6  7  1  0
  7  8  1  6
  7  9  1  0
  8 49  1  0
  8 50  1  0
  8 51  1  0
  9 10  1  0
  9 52  1  0
  9 53  1  0
 10 11  1  1
 10 12  1  0
 11 54  1  0
 12 40  1  0
 12 13  1  6
 12 14  1  0
 13 55  1  0
 13 56  1  0
 13 57  1  0
 14 15  1  0
 14 58  1  0
 14 59  1  0
 15 16  1  0
 15 60  1  0
 15 61  1  0
 16 39  1  0
 16 17  1  0
 16 62  1  1
 17 40  1  0
 17 18  1  0
 17 63  1  1
 18 19  1  0
 19 39  1  0
 19 20  1  6
 19 21  1  0
 20 64  1  0
 21 37  1  0
 21 22  1  0
 21 65  1  6
 22 23  1  0
 22 40  1  0
 22 66  1  6
 23 24  1  0
 23 25  1  0
 23 67  1  6
 24 68  1  0
 25 28  1  0
 25 26  1  0
 25 69  1  1
 26 27  1  0
 26 31  1  0
 26 70  1  1
 27 28  1  0
 27 71  1  0
 27 72  1  0
 28 29  1  0
 28 30  1  0
 29 73  1  0
 29 74  1  0
 29 75  1  0
 30 76  1  0
 30 77  1  0
 30 78  1  0
 31 36  1  1
 31 32  1  0
 31 37  1  0
 32 33  1  0
 32 79  1  0
 32 80  1  0
 33 34  1  0
 34 35  1  0
 34 36  1  0
 34 81  1  1
 35 82  1  0
 36 83  1  0
 36 84  1  0
 37 38  1  6
 37 39  1  0
 38 85  1  0
 38 86  1  0
 38 87  1  0
 40 88  1  1
M  END
>  <i_m_ct_stereo_status>  (112) 
1

>  <s_m_source_file>  (112) 
/var/tmp/pbs.5076255.sched01/tmpqllwm4fg/43asec3i7m.sdf

>  <i_m_source_file_index>  (112) 
14

>  <i_lp_mmshare_version>  (112) 
48012

>  <i_f3d_flags>  (112) 
0

>  <s_epik_input>  (112) 
W0NIM11bQ0BIXShbQ0gyXTEpW0NAQF0oW0NIM10pKE9bQ0gyXTIpW0NIMl1bQ0BdMyhbT0hdKVtDQEBdKFtDSDNdKShbQ0gyXVtDSDJdNClbQ0BASF0oW0NASF01W0NAQEhdNFtDQEBdNjdbQ0BAXTEyMylbQ0BASF04W0NASF0oW0NAQF02KE81KVtPSF0pW0NAQF03KFtDSDNdKVtDQEBdOShbQ0BASF0xW0NASF0oW0NAQEhdOFtPSF0pQyhbQ0gyXTEpKFtDSDNdKVtDSDNdKVtDSDJdT1tDQEBIXShbT0hdKVtDSDJdOQ==

>  <s_epik_cmdline>  (112) 
J2VwaWtfcHl0aG9uJywgJy1waHQnLCAnMi4wJywgJy1waCcsICc3LjAnLCAnLXRuJywgJzgnLCAnLW1hJywgJzIwMCcsICctaW1hZScsICc8aW5maWxlLm1hZT4nLCAnLW9tYWUnLCAnPG91dGZpbGUubWFlPic=

>  <r_lp_tautomer_probability>  (112) 
1

>  <r_epik_Ionization_Penalty>  (112) 
1.0495e-06

>  <r_epik_Ionization_Penalty_Charging>  (112) 
0

>  <r_epik_Ionization_Penalty_Neutral>  (112) 
1.0495e-06

>  <r_epik_State_Penalty>  (112) 
-0

>  <r_epik_Charging_Adjusted_Penalty>  (112) 
0

>  <i_epik_Tot_Q>  (112) 
0

>  <i_epik_Tot_abs_Q>  (112) 
0

>  <s_epik_Chemistry_Notes>  (112) 
This compound contains an acetal/aminal-like group ( X-CH(R)-Y where X, Y are N, S, or O) that may be acid/base labile, releasing an aldehyde.

>  <s_lp_Force_Field>  (112) 
OPLS3e

>  <r_lp_Energy>  (112) 
611.87

>  <b_lp_Chiralities_Consistent>  (112) 
1

>  <s_lp_Variant>  (112) 
33:0-1

>  <s_i_glide_gridfile>  (112) 
pfpi4k_grid

>  <i_i_glide_lignum>  (112) 
14

>  <i_i_glide_rotatable_bonds>  (112) 
4

>  <r_i_docking_score>  (112) 
-1.84592

>  <r_i_glide_ligand_efficiency>  (112) 
-0.0461481

>  <r_i_glide_ligand_efficiency_sa>  (112) 
-0.157824

>  <r_i_glide_ligand_efficiency_ln>  (112) 
-0.393681

>  <r_i_glide_gscore>  (112) 
-1.84592

>  <r_i_glide_lipo>  (112) 
-0.479142

>  <r_i_glide_hbond>  (112) 
0

>  <r_i_glide_metal>  (112) 
-0

>  <r_i_glide_rewards>  (112) 
0

>  <r_i_glide_evdw>  (112) 
-18.8281

>  <r_i_glide_ecoul>  (112) 
-2.75136

>  <r_i_glide_erotb>  (112) 
0

>  <r_i_glide_esite>  (112) 
-0.0126728

>  <r_i_glide_emodel>  (112) 
-22.1524

>  <r_i_glide_energy>  (112) 
-21.5794

>  <r_i_glide_einternal>  (112) 
1.81767

>  <r_i_glide_intrahb_reward>  (112) 
-0

>  <i_i_glide_confnum>  (112) 
2

>  <i_i_glide_posenum>  (112) 
13

>  <r_i_glide_eff_state_penalty>  (112) 
0

>  <ligand_id>  (112) 
33

>  <original_smiles>  (112) 
CC1CC23COC1(C)CC2(O)C1(C)CCC2C4OC5(O)C6C(C(O)C7C(CC7(C)C)C7(COC(O)C7)C6(C)C253)C41

>  <smiles>  (112) 
[H]OC1([H])OC([H])([H])C2(C1([H])[H])C1([H])C([H])([H])C(C([H])([H])[H])(C([H])([H])[H])C1([H])C([H])(O[H])C1([H])C3([H])C4([H])OC5(O[H])C1([H])C2(C([H])([H])[H])C51C4([H])C([H])([H])C([H])([H])C3(C([H])([H])[H])C2(O[H])C([H])([H])C3(C([H])([H])[H])OC([H])([H])C21C([H])([H])C3([H])C([H])([H])[H]

$$$$
33:0:1
     RDKit          3D

 88 97  0  0  1  0  0  0  0  0999 V2000
    3.7336    0.4787    1.3241 C   0  0  0  0  0  0  0  0  0  0  0  0
    3.8566   -0.9944    0.9062 C   0  0  2  0  0  0  0  0  0  0  0  0
    3.1641   -1.9343    1.9014 C   0  0  0  0  0  0  0  0  0  0  0  0
    4.1528   -3.0186    2.5669 C   0  0  2  0  0  0  0  0  0  0  0  0
    5.1232   -2.0209    3.2241 C   0  0  0  0  0  0  0  0  0  0  0  0
    5.8335   -1.3557    2.1423 O   0  0  0  0  0  0  0  0  0  0  0  0
    5.2861   -1.5162    0.7865 C   0  0  2  0  0  0  0  0  0  0  0  0
    6.1574   -0.7158   -0.1767 C   0  0  0  0  0  0  0  0  0  0  0  0
    5.1929   -3.0220    0.2792 C   0  0  0  0  0  0  0  0  0  0  0  0
    5.0955   -3.9516    1.5345 C   0  0  1  0  0  0  0  0  0  0  0  0
    6.4987   -3.7597    1.6792 O   0  0  0  0  0  0  0  0  0  0  0  0
    5.0174   -5.7012    1.4899 C   0  0  1  0  0  0  0  0  0  0  0  0
    5.2852   -6.2129    0.0960 C   0  0  0  0  0  0  0  0  0  0  0  0
    6.1588   -6.1304    2.4937 C   0  0  0  0  0  0  0  0  0  0  0  0
    5.8849   -5.4316    3.8756 C   0  0  0  0  0  0  0  0  0  0  0  0
    4.3604   -5.1574    4.1887 C   0  0  2  0  0  0  0  0  0  0  0  0
    3.7967   -6.4231    3.6661 C   0  0  1  0  0  0  0  0  0  0  0  0
    3.5113   -5.2011    3.1010 O   0  0  0  0  0  0  0  0  0  0  0  0
    2.4941   -4.6204    2.2969 C   0  0  1  0  0  0  0  0  0  0  0  0
    2.6157   -4.5120    0.8692 O   0  0  0  0  0  0  0  0  0  0  0  0
    1.3972   -5.3765    2.7489 C   0  0  1  0  0  0  0  0  0  0  0  0
    2.0801   -6.7373    2.1723 C   0  0  2  0  0  0  0  0  0  0  0  0
    1.2495   -7.8378    2.8520 C   0  0  1  0  0  0  0  0  0  0  0  0
    1.8228   -9.1102    2.6361 O   0  0  0  0  0  0  0  0  0  0  0  0
    0.8310   -7.6883    4.3678 C   0  0  1  0  0  0  0  0  0  0  0  0
    0.5371   -6.3690    5.2191 C   0  0  2  0  0  0  0  0  0  0  0  0
   -0.9220   -6.6184    4.8421 C   0  0  0  0  0  0  0  0  0  0  0  0
   -0.6277   -8.1399    4.7243 C   0  0  0  0  0  0  0  0  0  0  0  0
   -1.5269   -8.8083    3.6838 C   0  0  0  0  0  0  0  0  0  0  0  0
   -0.6590   -9.0582    5.9701 C   0  0  0  0  0  0  0  0  0  0  0  0
    1.1762   -4.9175    5.3499 C   0  0  2  0  0  0  0  0  0  0  0  0
    2.3110   -4.9138    6.4193 C   0  0  0  0  0  0  0  0  0  0  0  0
    1.7567   -4.8730    7.7361 O   0  0  0  0  0  0  0  0  0  0  0  0
    0.4352   -4.4793    7.6561 C   0  0  1  0  0  0  0  0  0  0  0  0
    0.1612   -3.3999    8.5079 O   0  0  0  0  0  0  0  0  0  0  0  0
    0.2315   -4.0431    6.2036 C   0  0  0  0  0  0  0  0  0  0  0  0
    1.6353   -4.2626    3.9300 C   0  0  2  0  0  0  0  0  0  0  0  0
    0.7554   -2.9917    3.7023 C   0  0  0  0  0  0  0  0  0  0  0  0
    3.2655   -4.0595    3.4920 C   0  0  2  0  0  0  0  0  0  0  0  0
    3.7684   -6.7522    2.2040 C   0  0  1  0  0  0  0  0  0  0  0  0
    4.1940    0.6829    2.2924 H   0  0  0  0  0  0  0  0  0  0  0  0
    2.6954    0.8031    1.3680 H   0  0  0  0  0  0  0  0  0  0  0  0
    4.2174    1.0963    0.5705 H   0  0  0  0  0  0  0  0  0  0  0  0
    3.3829   -1.0941   -0.0690 H   0  0  0  0  0  0  0  0  0  0  0  0
    2.7439   -1.3451    2.7070 H   0  0  0  0  0  0  0  0  0  0  0  0
    2.2996   -2.2974    1.3477 H   0  0  0  0  0  0  0  0  0  0  0  0
    4.5714   -1.2826    3.7906 H   0  0  0  0  0  0  0  0  0  0  0  0
    5.8068   -2.4909    3.9229 H   0  0  0  0  0  0  0  0  0  0  0  0
    5.7168   -0.7084   -1.1739 H   0  0  0  0  0  0  0  0  0  0  0  0
    7.1434   -1.1702   -0.2253 H   0  0  0  0  0  0  0  0  0  0  0  0
    6.2809    0.3048    0.1665 H   0  0  0  0  0  0  0  0  0  0  0  0
    4.3160   -3.1522   -0.3606 H   0  0  0  0  0  0  0  0  0  0  0  0
    6.0278   -3.2631   -0.3950 H   0  0  0  0  0  0  0  0  0  0  0  0
    6.7362   -4.1674    2.5055 H   0  0  0  0  0  0  0  0  0  0  0  0
    5.3207   -7.3016    0.1572 H   0  0  0  0  0  0  0  0  0  0  0  0
    6.2698   -5.8385   -0.2158 H   0  0  0  0  0  0  0  0  0  0  0  0
    4.5234   -5.8800   -0.6281 H   0  0  0  0  0  0  0  0  0  0  0  0
    6.1366   -7.2101    2.6239 H   0  0  0  0  0  0  0  0  0  0  0  0
    7.1791   -5.9664    2.1275 H   0  0  0  0  0  0  0  0  0  0  0  0
    6.2857   -6.1289    4.6074 H   0  0  0  0  0  0  0  0  0  0  0  0
    6.4712   -4.5444    4.0480 H   0  0  0  0  0  0  0  0  0  0  0  0
    4.3763   -5.0749    5.2787 H   0  0  0  0  0  0  0  0  0  0  0  0
    3.0958   -6.8598    4.3408 H   0  0  0  0  0  0  0  0  0  0  0  0
    3.1181   -5.2668    0.5479 H   0  0  0  0  0  0  0  0  0  0  0  0
    0.4673   -5.1981    2.2533 H   0  0  0  0  0  0  0  0  0  0  0  0
    1.8359   -6.8458    1.1084 H   0  0  0  0  0  0  0  0  0  0  0  0
    0.3417   -7.8518    2.2449 H   0  0  0  0  0  0  0  0  0  0  0  0
    1.5487   -9.4321    1.7804 H   0  0  0  0  0  0  0  0  0  0  0  0
    1.5175   -8.2942    4.9617 H   0  0  0  0  0  0  0  0  0  0  0  0
    0.6379   -6.7634    6.2314 H   0  0  0  0  0  0  0  0  0  0  0  0
   -1.6155   -6.3081    5.6354 H   0  0  0  0  0  0  0  0  0  0  0  0
   -1.1564   -6.1686    3.8670 H   0  0  0  0  0  0  0  0  0  0  0  0
   -2.4963   -9.0537    4.1160 H   0  0  0  0  0  0  0  0  0  0  0  0
   -1.0874   -9.7265    3.2926 H   0  0  0  0  0  0  0  0  0  0  0  0
   -1.7447   -8.1418    2.8574 H   0  0  0  0  0  0  0  0  0  0  0  0
   -1.6717   -9.3380    6.2485 H   0  0  0  0  0  0  0  0  0  0  0  0
   -0.1776   -8.6662    6.8542 H   0  0  0  0  0  0  0  0  0  0  0  0
   -0.1710  -10.0182    5.7646 H   0  0  0  0  0  0  0  0  0  0  0  0
    2.8961   -5.8326    6.3945 H   0  0  0  0  0  0  0  0  0  0  0  0
    2.9368   -4.0317    6.3396 H   0  0  0  0  0  0  0  0  0  0  0  0
   -0.1656   -5.3487    7.9536 H   0  0  0  0  0  0  0  0  0  0  0  0
    0.8151   -2.7287    8.2943 H   0  0  0  0  0  0  0  0  0  0  0  0
    0.4707   -2.9777    6.1856 H   0  0  0  0  0  0  0  0  0  0  0  0
   -0.8344   -4.1564    5.9718 H   0  0  0  0  0  0  0  0  0  0  0  0
    1.1551   -2.1504    4.2649 H   0  0  0  0  0  0  0  0  0  0  0  0
   -0.2783   -3.1568    3.9664 H   0  0  0  0  0  0  0  0  0  0  0  0
    0.7221   -2.7061    2.6634 H   0  0  0  0  0  0  0  0  0  0  0  0
    4.0760   -7.7835    2.0337 H   0  0  0  0  0  0  0  0  0  0  0  0
  1  2  1  0
  1 41  1  0
  1 42  1  0
  1 43  1  0
  2  7  1  0
  2  3  1  0
  2 44  1  6
  4  3  1  6
  3 45  1  0
  3 46  1  0
  4 10  1  0
 39  4  1  6
  4  5  1  0
  5  6  1  0
  5 47  1  0
  5 48  1  0
  6  7  1  0
  7  8  1  6
  7  9  1  0
  8 49  1  0
  8 50  1  0
  8 51  1  0
  9 10  1  0
  9 52  1  0
  9 53  1  0
 10 11  1  1
 10 12  1  0
 11 54  1  0
 12 40  1  0
 12 13  1  6
 12 14  1  0
 13 55  1  0
 13 56  1  0
 13 57  1  0
 14 15  1  0
 14 58  1  0
 14 59  1  0
 15 16  1  0
 15 60  1  0
 15 61  1  0
 16 39  1  0
 16 17  1  0
 16 62  1  1
 17 40  1  0
 17 18  1  0
 17 63  1  1
 18 19  1  0
 19 39  1  0
 19 20  1  6
 19 21  1  0
 20 64  1  0
 21 37  1  0
 21 22  1  0
 21 65  1  6
 22 23  1  0
 22 40  1  0
 22 66  1  6
 23 24  1  0
 23 25  1  0
 23 67  1  6
 24 68  1  0
 25 28  1  0
 25 26  1  0
 25 69  1  1
 26 27  1  0
 26 31  1  0
 26 70  1  1
 27 28  1  0
 27 71  1  0
 27 72  1  0
 28 29  1  0
 28 30  1  0
 29 73  1  0
 29 74  1  0
 29 75  1  0
 30 76  1  0
 30 77  1  0
 30 78  1  0
 31 36  1  1
 31 32  1  0
 31 37  1  0
 32 33  1  0
 32 79  1  0
 32 80  1  0
 33 34  1  0
 34 35  1  0
 34 36  1  0
 34 81  1  1
 35 82  1  0
 36 83  1  0
 36 84  1  0
 37 38  1  6
 37 39  1  0
 38 85  1  0
 38 86  1  0
 38 87  1  0
 40 88  1  1
M  END
>  <i_m_ct_stereo_status>  (113) 
1

>  <s_m_source_file>  (113) 
/var/tmp/pbs.5076255.sched01/tmpqllwm4fg/43asec3i7m.sdf

>  <i_m_source_file_index>  (113) 
14

>  <i_lp_mmshare_version>  (113) 
48012

>  <i_f3d_flags>  (113) 
0

>  <s_epik_input>  (113) 
W0NIM11bQ0BIXShbQ0gyXTEpW0NAQF0oW0NIM10pKE9bQ0gyXTIpW0NIMl1bQ0BdMyhbT0hdKVtDQEBdKFtDSDNdKShbQ0gyXVtDSDJdNClbQ0BASF0oW0NASF01W0NAQEhdNFtDQEBdNjdbQ0BAXTEyMylbQ0BASF04W0NASF0oW0NAQF02KE81KVtPSF0pW0NAQF03KFtDSDNdKVtDQEBdOShbQ0BASF0xW0NASF0oW0NAQEhdOFtPSF0pQyhbQ0gyXTEpKFtDSDNdKVtDSDNdKVtDSDJdT1tDQEBIXShbT0hdKVtDSDJdOQ==

>  <s_epik_cmdline>  (113) 
J2VwaWtfcHl0aG9uJywgJy1waHQnLCAnMi4wJywgJy1waCcsICc3LjAnLCAnLXRuJywgJzgnLCAnLW1hJywgJzIwMCcsICctaW1hZScsICc8aW5maWxlLm1hZT4nLCAnLW9tYWUnLCAnPG91dGZpbGUubWFlPic=

>  <r_lp_tautomer_probability>  (113) 
1

>  <r_epik_Ionization_Penalty>  (113) 
1.0495e-06

>  <r_epik_Ionization_Penalty_Charging>  (113) 
0

>  <r_epik_Ionization_Penalty_Neutral>  (113) 
1.0495e-06

>  <r_epik_State_Penalty>  (113) 
-0

>  <r_epik_Charging_Adjusted_Penalty>  (113) 
0

>  <i_epik_Tot_Q>  (113) 
0

>  <i_epik_Tot_abs_Q>  (113) 
0

>  <s_epik_Chemistry_Notes>  (113) 
This compound contains an acetal/aminal-like group ( X-CH(R)-Y where X, Y are N, S, or O) that may be acid/base labile, releasing an aldehyde.

>  <s_lp_Force_Field>  (113) 
OPLS3e

>  <r_lp_Energy>  (113) 
611.87

>  <b_lp_Chiralities_Consistent>  (113) 
1

>  <s_lp_Variant>  (113) 
33:0-1

>  <s_i_glide_gridfile>  (113) 
pfpi4k_grid

>  <i_i_glide_lignum>  (113) 
14

>  <i_i_glide_rotatable_bonds>  (113) 
4

>  <r_i_docking_score>  (113) 
-1.72475

>  <r_i_glide_ligand_efficiency>  (113) 
-0.0431188

>  <r_i_glide_ligand_efficiency_sa>  (113) 
-0.147464

>  <r_i_glide_ligand_efficiency_ln>  (113) 
-0.367839

>  <r_i_glide_gscore>  (113) 
-1.72475

>  <r_i_glide_lipo>  (113) 
-0.480031

>  <r_i_glide_hbond>  (113) 
0

>  <r_i_glide_metal>  (113) 
-0

>  <r_i_glide_rewards>  (113) 
0

>  <r_i_glide_evdw>  (113) 
-19.0431

>  <r_i_glide_ecoul>  (113) 
-1.86014

>  <r_i_glide_erotb>  (113) 
0

>  <r_i_glide_esite>  (113) 
-0.0135473

>  <r_i_glide_emodel>  (113) 
-21.7044

>  <r_i_glide_energy>  (113) 
-20.9032

>  <r_i_glide_einternal>  (113) 
1.03381

>  <r_i_glide_intrahb_reward>  (113) 
-0

>  <i_i_glide_confnum>  (113) 
2

>  <i_i_glide_posenum>  (113) 
18

>  <r_i_glide_eff_state_penalty>  (113) 
0

>  <ligand_id>  (113) 
33

>  <original_smiles>  (113) 
CC1CC23COC1(C)CC2(O)C1(C)CCC2C4OC5(O)C6C(C(O)C7C(CC7(C)C)C7(COC(O)C7)C6(C)C253)C41

>  <smiles>  (113) 
[H]OC1([H])OC([H])([H])C2(C1([H])[H])C1([H])C([H])([H])C(C([H])([H])[H])(C([H])([H])[H])C1([H])C([H])(O[H])C1([H])C3([H])C4([H])OC5(O[H])C1([H])C2(C([H])([H])[H])C51C4([H])C([H])([H])C([H])([H])C3(C([H])([H])[H])C2(O[H])C([H])([H])C3(C([H])([H])[H])OC([H])([H])C21C([H])([H])C3([H])C([H])([H])[H]

$$$$
33:0:2
     RDKit          3D

 88 97  0  0  1  0  0  0  0  0999 V2000
    9.6446   -7.5374    5.9375 C   0  0  0  0  0  0  0  0  0  0  0  0
    8.7704   -8.6229    5.2660 C   0  0  2  0  0  0  0  0  0  0  0  0
    7.2647   -8.3227    5.3542 C   0  0  0  0  0  0  0  0  0  0  0  0
    6.3950   -9.4420    6.1117 C   0  0  2  0  0  0  0  0  0  0  0  0
    7.1534   -9.3720    7.4664 C   0  0  0  0  0  0  0  0  0  0  0  0
    8.5015   -9.8895    7.2328 O   0  0  0  0  0  0  0  0  0  0  0  0
    8.9305  -10.0327    5.8372 C   0  0  2  0  0  0  0  0  0  0  0  0
   10.3828  -10.5312    5.8180 C   0  0  0  0  0  0  0  0  0  0  0  0
    7.9999  -11.0079    4.9780 C   0  0  0  0  0  0  0  0  0  0  0  0
    6.5812  -11.0551    5.6116 C   0  0  1  0  0  0  0  0  0  0  0  0
    7.1257  -11.8846    6.6454 O   0  0  0  0  0  0  0  0  0  0  0  0
    5.2524  -12.0353    5.0091 C   0  0  1  0  0  0  0  0  0  0  0  0
    5.7341  -13.0556    3.9869 C   0  0  0  0  0  0  0  0  0  0  0  0
    4.7740  -12.7736    6.3192 C   0  0  0  0  0  0  0  0  0  0  0  0
    4.4803  -11.6865    7.4311 C   0  0  0  0  0  0  0  0  0  0  0  0
    3.9624  -10.2864    6.8540 C   0  0  2  0  0  0  0  0  0  0  0  0
    3.0864  -10.8137    5.7577 C   0  0  1  0  0  0  0  0  0  0  0  0
    4.2212  -10.0847    5.5081 O   0  0  0  0  0  0  0  0  0  0  0  0
    4.7406   -9.2377    4.4920 C   0  0  1  0  0  0  0  0  0  0  0  0
    5.6459   -9.7674    3.5012 O   0  0  0  0  0  0  0  0  0  0  0  0
    3.5590   -8.7164    3.9806 C   0  0  1  0  0  0  0  0  0  0  0  0
    3.0511  -10.1984    3.5358 C   0  0  2  0  0  0  0  0  0  0  0  0
    1.5430  -10.0000    3.2786 C   0  0  1  0  0  0  0  0  0  0  0  0
    0.8942  -11.2431    3.0883 O   0  0  0  0  0  0  0  0  0  0  0  0
    0.6694   -9.0880    4.2303 C   0  0  1  0  0  0  0  0  0  0  0  0
    1.0982   -7.8301    5.0968 C   0  0  2  0  0  0  0  0  0  0  0  0
    0.5647   -6.9847    3.9492 C   0  0  0  0  0  0  0  0  0  0  0  0
   -0.3732   -8.1385    3.5328 C   0  0  0  0  0  0  0  0  0  0  0  0
   -0.6053   -8.2133    2.0259 C   0  0  0  0  0  0  0  0  0  0  0  0
   -1.7782   -8.1535    4.1553 C   0  0  0  0  0  0  0  0  0  0  0  0
    2.3661   -7.4258    5.9652 C   0  0  2  0  0  0  0  0  0  0  0  0
    2.2064   -7.9356    7.4057 C   0  0  0  0  0  0  0  0  0  0  0  0
    1.3747   -7.0480    8.1529 O   0  0  0  0  0  0  0  0  0  0  0  0
    1.2200   -5.8641    7.4402 C   0  0  1  0  0  0  0  0  0  0  0  0
    1.4696   -4.7386    8.2467 O   0  0  0  0  0  0  0  0  0  0  0  0
    2.2505   -5.9265    6.3214 C   0  0  0  0  0  0  0  0  0  0  0  0
    3.8090   -7.8338    5.3333 C   0  0  2  0  0  0  0  0  0  0  0  0
    4.5949   -6.5474    4.9776 C   0  0  0  0  0  0  0  0  0  0  0  0
    4.8108   -9.0643    6.0257 C   0  0  1  0  0  0  0  0  0  0  0  0
    3.6304  -11.4715    4.5262 C   0  0  1  0  0  0  0  0  0  0  0  0
    9.4732   -7.4676    7.0114 H   0  0  0  0  0  0  0  0  0  0  0  0
    9.4526   -6.5545    5.5056 H   0  0  0  0  0  0  0  0  0  0  0  0
   10.7070   -7.7345    5.7865 H   0  0  0  0  0  0  0  0  0  0  0  0
    9.0539   -8.6479    4.2162 H   0  0  0  0  0  0  0  0  0  0  0  0
    7.1167   -7.3836    5.8822 H   0  0  0  0  0  0  0  0  0  0  0  0
    6.9866   -8.0823    4.3342 H   0  0  0  0  0  0  0  0  0  0  0  0
    7.2181   -8.3444    7.8144 H   0  0  0  0  0  0  0  0  0  0  0  0
    6.6772   -9.9218    8.2749 H   0  0  0  0  0  0  0  0  0  0  0  0
   10.7754  -10.5528    4.8029 H   0  0  0  0  0  0  0  0  0  0  0  0
   10.4488  -11.5410    6.2205 H   0  0  0  0  0  0  0  0  0  0  0  0
   11.0376   -9.8999    6.4156 H   0  0  0  0  0  0  0  0  0  0  0  0
    7.9391  -10.6554    3.9457 H   0  0  0  0  0  0  0  0  0  0  0  0
    8.4489  -12.0008    4.8831 H   0  0  0  0  0  0  0  0  0  0  0  0
    7.7535  -11.3406    7.1111 H   0  0  0  0  0  0  0  0  0  0  0  0
    4.9378  -13.7694    3.7747 H   0  0  0  0  0  0  0  0  0  0  0  0
    6.5881  -13.6093    4.3863 H   0  0  0  0  0  0  0  0  0  0  0  0
    6.0275  -12.5720    3.0492 H   0  0  0  0  0  0  0  0  0  0  0  0
    3.8666  -13.3357    6.1090 H   0  0  0  0  0  0  0  0  0  0  0  0
    5.4621  -13.5444    6.6697 H   0  0  0  0  0  0  0  0  0  0  0  0
    3.6930  -12.1372    8.0419 H   0  0  0  0  0  0  0  0  0  0  0  0
    5.2880  -11.5632    8.1428 H   0  0  0  0  0  0  0  0  0  0  0  0
    3.4251   -9.9039    7.7053 H   0  0  0  0  0  0  0  0  0  0  0  0
    2.1296  -10.3244    5.7486 H   0  0  0  0  0  0  0  0  0  0  0  0
    5.3267  -10.6216    3.2322 H   0  0  0  0  0  0  0  0  0  0  0  0
    3.6783   -8.0995    3.0948 H   0  0  0  0  0  0  0  0  0  0  0  0
    3.4558  -10.4423    2.5521 H   0  0  0  0  0  0  0  0  0  0  0  0
    1.5469   -9.5468    2.2882 H   0  0  0  0  0  0  0  0  0  0  0  0
    0.9387  -11.7366    3.8940 H   0  0  0  0  0  0  0  0  0  0  0  0
    0.1218   -9.7400    4.9073 H   0  0  0  0  0  0  0  0  0  0  0  0
    0.2984   -7.8033    5.8357 H   0  0  0  0  0  0  0  0  0  0  0  0
    0.0198   -6.0991    4.2840 H   0  0  0  0  0  0  0  0  0  0  0  0
    1.3399   -6.7532    3.2183 H   0  0  0  0  0  0  0  0  0  0  0  0
   -1.3735   -7.5014    1.7041 H   0  0  0  0  0  0  0  0  0  0  0  0
   -0.9346   -9.2108    1.7264 H   0  0  0  0  0  0  0  0  0  0  0  0
    0.2957   -7.9596    1.4756 H   0  0  0  0  0  0  0  0  0  0  0  0
   -2.3786   -7.2981    3.8283 H   0  0  0  0  0  0  0  0  0  0  0  0
   -1.7557   -8.1351    5.2404 H   0  0  0  0  0  0  0  0  0  0  0  0
   -2.3248   -9.0597    3.8773 H   0  0  0  0  0  0  0  0  0  0  0  0
    1.6997   -8.9021    7.4352 H   0  0  0  0  0  0  0  0  0  0  0  0
    3.1667   -8.0151    7.9214 H   0  0  0  0  0  0  0  0  0  0  0  0
    0.1891   -5.8362    7.0861 H   0  0  0  0  0  0  0  0  0  0  0  0
    2.3725   -4.8026    8.5267 H   0  0  0  0  0  0  0  0  0  0  0  0
    3.1807   -5.5013    6.7246 H   0  0  0  0  0  0  0  0  0  0  0  0
    1.9203   -5.2973    5.4975 H   0  0  0  0  0  0  0  0  0  0  0  0
    5.0469   -6.1101    5.8668 H   0  0  0  0  0  0  0  0  0  0  0  0
    3.9624   -5.8103    4.4755 H   0  0  0  0  0  0  0  0  0  0  0  0
    5.3889   -6.7139    4.2598 H   0  0  0  0  0  0  0  0  0  0  0  0
    3.0439  -12.3443    4.2707 H   0  0  0  0  0  0  0  0  0  0  0  0
  1  2  1  0
  1 41  1  0
  1 42  1  0
  1 43  1  0
  2  7  1  0
  2  3  1  0
  2 44  1  6
  4  3  1  6
  3 45  1  0
  3 46  1  0
  4 10  1  0
 39  4  1  1
  4  5  1  0
  5  6  1  0
  5 47  1  0
  5 48  1  0
  6  7  1  0
  7  8  1  1
  7  9  1  0
  8 49  1  0
  8 50  1  0
  8 51  1  0
  9 10  1  0
  9 52  1  0
  9 53  1  0
 10 11  1  1
 10 12  1  0
 11 54  1  0
 12 40  1  0
 12 13  1  6
 12 14  1  0
 13 55  1  0
 13 56  1  0
 13 57  1  0
 14 15  1  0
 14 58  1  0
 14 59  1  0
 15 16  1  0
 15 60  1  0
 15 61  1  0
 16 39  1  0
 16 17  1  0
 16 62  1  1
 17 40  1  0
 17 18  1  0
 17 63  1  1
 18 19  1  0
 19 39  1  0
 19 20  1  6
 19 21  1  0
 20 64  1  0
 21 37  1  0
 21 22  1  0
 21 65  1  6
 22 23  1  0
 22 40  1  0
 22 66  1  6
 23 24  1  0
 23 25  1  0
 23 67  1  6
 24 68  1  0
 25 28  1  0
 25 26  1  0
 25 69  1  1
 26 27  1  0
 26 31  1  0
 26 70  1  1
 27 28  1  0
 27 71  1  0
 27 72  1  0
 28 29  1  0
 28 30  1  0
 29 73  1  0
 29 74  1  0
 29 75  1  0
 30 76  1  0
 30 77  1  0
 30 78  1  0
 31 36  1  1
 31 32  1  0
 31 37  1  0
 32 33  1  0
 32 79  1  0
 32 80  1  0
 33 34  1  0
 34 35  1  0
 34 36  1  0
 34 81  1  6
 35 82  1  0
 36 83  1  0
 36 84  1  0
 37 38  1  6
 37 39  1  0
 38 85  1  0
 38 86  1  0
 38 87  1  0
 40 88  1  6
M  END
>  <i_m_ct_stereo_status>  (114) 
1

>  <s_m_source_file>  (114) 
/var/tmp/pbs.5076255.sched01/tmpqllwm4fg/43asec3i7m.sdf

>  <i_m_source_file_index>  (114) 
14

>  <i_lp_mmshare_version>  (114) 
48012

>  <i_f3d_flags>  (114) 
0

>  <s_epik_input>  (114) 
W0NIM11bQ0BIXShbQ0gyXTEpW0NAQF0oW0NIM10pKE9bQ0gyXTIpW0NIMl1bQ0BdMyhbT0hdKVtDQEBdKFtDSDNdKShbQ0gyXVtDSDJdNClbQ0BASF0oW0NASF01W0NAQEhdNFtDQEBdNjdbQ0BAXTEyMylbQ0BASF04W0NASF0oW0NAQF02KE81KVtPSF0pW0NAQF03KFtDSDNdKVtDQEBdOShbQ0BASF0xW0NASF0oW0NAQEhdOFtPSF0pQyhbQ0gyXTEpKFtDSDNdKVtDSDNdKVtDSDJdT1tDQEBIXShbT0hdKVtDSDJdOQ==

>  <s_epik_cmdline>  (114) 
J2VwaWtfcHl0aG9uJywgJy1waHQnLCAnMi4wJywgJy1waCcsICc3LjAnLCAnLXRuJywgJzgnLCAnLW1hJywgJzIwMCcsICctaW1hZScsICc8aW5maWxlLm1hZT4nLCAnLW9tYWUnLCAnPG91dGZpbGUubWFlPic=

>  <r_lp_tautomer_probability>  (114) 
1

>  <r_epik_Ionization_Penalty>  (114) 
1.0495e-06

>  <r_epik_Ionization_Penalty_Charging>  (114) 
0

>  <r_epik_Ionization_Penalty_Neutral>  (114) 
1.0495e-06

>  <r_epik_State_Penalty>  (114) 
-0

>  <r_epik_Charging_Adjusted_Penalty>  (114) 
0

>  <i_epik_Tot_Q>  (114) 
0

>  <i_epik_Tot_abs_Q>  (114) 
0

>  <s_epik_Chemistry_Notes>  (114) 
This compound contains an acetal/aminal-like group ( X-CH(R)-Y where X, Y are N, S, or O) that may be acid/base labile, releasing an aldehyde.

>  <s_lp_Force_Field>  (114) 
OPLS3e

>  <r_lp_Energy>  (114) 
611.87

>  <b_lp_Chiralities_Consistent>  (114) 
1

>  <s_lp_Variant>  (114) 
33:0-1

>  <s_i_glide_gridfile>  (114) 
pfpi4k_grid

>  <i_i_glide_lignum>  (114) 
14

>  <i_i_glide_rotatable_bonds>  (114) 
4

>  <r_i_docking_score>  (114) 
-1.33511

>  <r_i_glide_ligand_efficiency>  (114) 
-0.0333778

>  <r_i_glide_ligand_efficiency_sa>  (114) 
-0.114151

>  <r_i_glide_ligand_efficiency_ln>  (114) 
-0.28474

>  <r_i_glide_gscore>  (114) 
-1.33511

>  <r_i_glide_lipo>  (114) 
-0.0598784

>  <r_i_glide_hbond>  (114) 
0

>  <r_i_glide_metal>  (114) 
-0

>  <r_i_glide_rewards>  (114) 
0

>  <r_i_glide_evdw>  (114) 
-19.1128

>  <r_i_glide_ecoul>  (114) 
-2.13006

>  <r_i_glide_erotb>  (114) 
0

>  <r_i_glide_esite>  (114) 
-8.4438e-05

>  <r_i_glide_emodel>  (114) 
-21.9123

>  <r_i_glide_energy>  (114) 
-21.2429

>  <r_i_glide_einternal>  (114) 
0.16029

>  <r_i_glide_intrahb_reward>  (114) 
-0

>  <i_i_glide_confnum>  (114) 
1

>  <i_i_glide_posenum>  (114) 
24

>  <r_i_glide_eff_state_penalty>  (114) 
0

>  <ligand_id>  (114) 
33

>  <original_smiles>  (114) 
CC1CC23COC1(C)CC2(O)C1(C)CCC2C4OC5(O)C6C(C(O)C7C(CC7(C)C)C7(COC(O)C7)C6(C)C253)C41

>  <smiles>  (114) 
[H]OC1([H])OC([H])([H])C2(C1([H])[H])C1([H])C([H])([H])C(C([H])([H])[H])(C([H])([H])[H])C1([H])C([H])(O[H])C1([H])C3([H])C4([H])OC5(O[H])C1([H])C2(C([H])([H])[H])C51C4([H])C([H])([H])C([H])([H])C3(C([H])([H])[H])C2(O[H])C([H])([H])C3(C([H])([H])[H])OC([H])([H])C21C([H])([H])C3([H])C([H])([H])[H]

$$$$
34:1:0
     RDKit          3D

 81 87  0  0  1  0  0  0  0  0999 V2000
    6.0430   -0.7196    2.4717 C   0  0  0  0  0  0  0  0  0  0  0  0
    5.0761   -1.7455    3.0678 C   0  0  2  0  0  0  0  0  0  0  0  0
    4.7794   -2.8941    2.0723 C   0  0  0  0  0  0  0  0  0  0  0  0
    3.2433   -3.0926    2.0643 C   0  0  1  0  0  0  0  0  0  0  0  0
    2.6171   -2.5717    0.7549 C   0  0  0  0  0  0  0  0  0  0  0  0
    2.6308   -3.7797   -0.1766 C   0  0  0  0  0  0  0  0  0  0  0  0
    2.6124   -4.9320    0.8116 C   0  0  0  0  0  0  0  0  0  0  0  0
    2.3128   -6.0846    0.5190 O   0  0  0  0  0  0  0  0  0  0  0  0
    2.9022   -4.4736    2.0334 O   0  0  0  0  0  0  0  0  0  0  0  0
    2.8249   -2.4032    3.3757 C   0  0  2  0  0  0  0  0  0  0  0  0
    1.4570   -1.8370    3.6888 C   0  0  0  0  0  0  0  0  0  0  0  0
    1.6662   -0.8043    4.8669 C   0  0  2  0  0  0  0  0  0  0  0  0
    1.4157   -1.7579    6.0902 C   0  0  0  0  0  0  0  0  0  0  0  0
    0.3436    0.2157    4.8483 C   0  0  1  0  0  0  0  0  0  0  0  0
   -0.5210    0.5377    6.1677 C   0  0  0  0  0  0  0  0  0  0  0  0
   -0.4901    1.8021    7.1410 C   0  0  0  0  0  0  0  0  0  0  0  0
    0.1249    3.2297    6.8619 C   0  0  2  0  0  0  0  0  0  0  0  0
   -0.6826    4.3953    6.2992 C   0  0  0  0  0  0  0  0  0  0  0  0
    0.2028    4.4133    5.0374 C   0  0  2  0  0  0  0  0  0  0  0  0
    0.7139    5.8517    4.7017 C   0  0  0  0  0  0  0  0  0  0  0  0
    1.7978    6.2942    5.0816 O   0  0  0  0  0  0  0  0  0  0  0  0
   -0.1475    6.5424    3.9178 O   0  0  0  0  0  0  0  0  0  0  0  0
   -0.5552    3.8533    3.8146 C   0  0  0  0  0  0  0  0  0  0  0  0
   -0.9382    2.3746    3.9245 C   0  0  0  0  0  0  0  0  0  0  0  0
    0.2577    1.3688    3.7953 C   0  0  2  0  0  0  0  0  0  0  0  0
    0.1341    0.8894    2.3143 C   0  0  0  0  0  0  0  0  0  0  0  0
    1.5916    2.0201    3.9569 C   0  0  0  0  0  0  0  0  0  0  0  0
    2.1243    2.4010    5.3904 C   0  0  1  0  0  0  0  0  0  0  0  0
    2.3972    1.5754    6.7212 C   0  0  0  0  0  0  0  0  0  0  0  0
    3.5893    2.4870    4.9957 C   0  0  0  0  0  0  0  0  0  0  0  0
    4.0936    1.0326    4.5586 C   0  0  0  0  0  0  0  0  0  0  0  0
    3.3302   -0.4204    4.7556 C   0  0  1  0  0  0  0  0  0  0  0  0
    4.1418   -1.1212    5.9054 C   0  0  0  0  0  0  0  0  0  0  0  0
    3.6833   -1.1813    3.4294 C   0  0  1  0  0  0  0  0  0  0  0  0
    1.2574    3.5790    5.8716 C   0  0  2  0  0  0  0  0  0  0  0  0
    5.6013   -0.1680    1.6452 H   0  0  0  0  0  0  0  0  0  0  0  0
    6.9387   -1.2001    2.0796 H   0  0  0  0  0  0  0  0  0  0  0  0
    6.3727   -0.0112    3.2291 H   0  0  0  0  0  0  0  0  0  0  0  0
    5.5362   -2.2087    3.9390 H   0  0  0  0  0  0  0  0  0  0  0  0
    5.1580   -2.6739    1.0712 H   0  0  0  0  0  0  0  0  0  0  0  0
    5.2895   -3.8065    2.3875 H   0  0  0  0  0  0  0  0  0  0  0  0
    1.5869   -2.2579    0.8793 H   0  0  0  0  0  0  0  0  0  0  0  0
    3.1497   -1.7210    0.3201 H   0  0  0  0  0  0  0  0  0  0  0  0
    1.7570   -3.8075   -0.8318 H   0  0  0  0  0  0  0  0  0  0  0  0
    3.5290   -3.8287   -0.7921 H   0  0  0  0  0  0  0  0  0  0  0  0
    3.1052   -3.0880    4.1703 H   0  0  0  0  0  0  0  0  0  0  0  0
    1.0537   -1.3811    2.8017 H   0  0  0  0  0  0  0  0  0  0  0  0
    0.7597   -2.6412    3.9238 H   0  0  0  0  0  0  0  0  0  0  0  0
    1.5938   -1.3114    7.0650 H   0  0  0  0  0  0  0  0  0  0  0  0
    2.0142   -2.6657    6.0650 H   0  0  0  0  0  0  0  0  0  0  0  0
    0.3914   -2.1292    6.1014 H   0  0  0  0  0  0  0  0  0  0  0  0
   -0.3820   -0.4749    4.4207 H   0  0  0  0  0  0  0  0  0  0  0  0
   -1.5590    0.4814    5.8408 H   0  0  0  0  0  0  0  0  0  0  0  0
   -0.4947   -0.3158    6.8361 H   0  0  0  0  0  0  0  0  0  0  0  0
   -1.5148    1.9499    7.4941 H   0  0  0  0  0  0  0  0  0  0  0  0
   -0.0075    1.4435    8.0547 H   0  0  0  0  0  0  0  0  0  0  0  0
    0.4538    3.6127    7.8254 H   0  0  0  0  0  0  0  0  0  0  0  0
   -1.7218    4.1231    6.1152 H   0  0  0  0  0  0  0  0  0  0  0  0
   -0.6139    5.3005    6.9148 H   0  0  0  0  0  0  0  0  0  0  0  0
    0.2169    7.3401    3.4951 H   0  0  0  0  0  0  0  0  0  0  0  0
   -1.4969    4.3907    3.6991 H   0  0  0  0  0  0  0  0  0  0  0  0
   -0.0160    4.0549    2.8885 H   0  0  0  0  0  0  0  0  0  0  0  0
   -1.5576    2.2695    4.8042 H   0  0  0  0  0  0  0  0  0  0  0  0
   -1.6693    2.1791    3.1394 H   0  0  0  0  0  0  0  0  0  0  0  0
   -0.0752    1.7222    1.6397 H   0  0  0  0  0  0  0  0  0  0  0  0
   -0.6809    0.1772    2.1915 H   0  0  0  0  0  0  0  0  0  0  0  0
    1.0347    0.4443    1.8947 H   0  0  0  0  0  0  0  0  0  0  0  0
    2.2061    1.3745    3.3570 H   0  0  0  0  0  0  0  0  0  0  0  0
    1.6796    2.9020    3.3250 H   0  0  0  0  0  0  0  0  0  0  0  0
    2.2875    2.2045    7.6009 H   0  0  0  0  0  0  0  0  0  0  0  0
    3.4124    1.2381    6.9053 H   0  0  0  0  0  0  0  0  0  0  0  0
    1.7892    0.7222    6.9049 H   0  0  0  0  0  0  0  0  0  0  0  0
    3.7493    3.1923    4.1779 H   0  0  0  0  0  0  0  0  0  0  0  0
    4.2116    2.8880    5.7987 H   0  0  0  0  0  0  0  0  0  0  0  0
    4.2927    1.1542    3.4974 H   0  0  0  0  0  0  0  0  0  0  0  0
    5.1076    0.9636    4.9438 H   0  0  0  0  0  0  0  0  0  0  0  0
    5.2082   -0.9121    5.8523 H   0  0  0  0  0  0  0  0  0  0  0  0
    4.0897   -2.2063    5.8779 H   0  0  0  0  0  0  0  0  0  0  0  0
    3.8284   -0.8273    6.9046 H   0  0  0  0  0  0  0  0  0  0  0  0
    3.3654   -0.5521    2.5957 H   0  0  0  0  0  0  0  0  0  0  0  0
    1.8895    4.2648    6.4334 H   0  0  0  0  0  0  0  0  0  0  0  0
  1  2  1  0
  1 36  1  0
  1 37  1  0
  1 38  1  0
  2 34  1  0
  2  3  1  0
  2 39  1  1
  3  4  1  0
  3 40  1  0
  3 41  1  0
  4  9  1  1
  4  5  1  0
  4 10  1  0
  5  6  1  0
  5 42  1  0
  5 43  1  0
  6  7  1  0
  6 44  1  0
  6 45  1  0
  7  8  2  0
  7  9  1  0
 10 34  1  0
 10 11  1  0
 10 46  1  1
 11 12  1  0
 11 47  1  0
 11 48  1  0
 12 32  1  0
 12 13  1  1
 12 14  1  0
 13 49  1  0
 13 50  1  0
 13 51  1  0
 14 25  1  0
 14 15  1  0
 14 52  1  6
 15 16  1  0
 15 53  1  0
 15 54  1  0
 16 17  1  0
 16 55  1  0
 16 56  1  0
 17 35  1  0
 17 18  1  0
 17 57  1  1
 18 19  1  0
 18 58  1  0
 18 59  1  0
 19 35  1  0
 19 20  1  6
 19 23  1  0
 20 21  2  0
 20 22  1  0
 22 60  1  0
 23 24  1  0
 23 61  1  0
 23 62  1  0
 24 25  1  0
 24 63  1  0
 24 64  1  0
 25 26  1  6
 25 27  1  0
 26 65  1  0
 26 66  1  0
 26 67  1  0
 27 28  1  0
 27 68  1  0
 27 69  1  0
 28 29  1  1
 28 30  1  0
 28 35  1  0
 29 70  1  0
 29 71  1  0
 29 72  1  0
 30 31  1  0
 30 73  1  0
 30 74  1  0
 31 32  1  0
 31 75  1  0
 31 76  1  0
 32 33  1  1
 32 34  1  0
 33 77  1  0
 33 78  1  0
 33 79  1  0
 34 80  1  6
 35 81  1  1
M  END
>  <i_m_ct_stereo_status>  (115) 
1

>  <s_m_source_file>  (115) 
/var/tmp/pbs.5076255.sched01/tmpqllwm4fg/43asec3i7m.sdf

>  <i_m_source_file_index>  (115) 
16

>  <i_lp_mmshare_version>  (115) 
48012

>  <i_f3d_flags>  (115) 
0

>  <s_epik_input>  (115) 
Tz1DKE8xKVtDSDJdW0NIMl1bQ0BAXTEyW0NASF0zW0NASF0oW0NASF0oW0NIM10pW0NIMl0yKVtDQF00KFtDSDNdKVtDQEBdKFtDSDJdMykoW0NIM10pW0NAQEhdNVtDQEBdNihbQ0gzXSlbQ0gyXVtDSDJdW0NAXTcoQyg9TylbT0hdKVtDQEBIXShbQ0BASF0oW0NIMl03KVtDSDJdW0NIMl01KVtDQF0oW0NIMl02KShbQ0gzXSlbQ0gyXVtDSDJdNA==

>  <s_epik_cmdline>  (115) 
J2VwaWtfcHl0aG9uJywgJy1waHQnLCAnMi4wJywgJy1waCcsICc3LjAnLCAnLXRuJywgJzgnLCAnLW1hJywgJzIwMCcsICctaW1hZScsICc8aW5maWxlLm1hZT4nLCAnLW9tYWUnLCAnPG91dGZpbGUubWFlPic=

>  <r_epik_Ionization_Penalty>  (115) 
2.42661

>  <r_epik_Ionization_Penalty_Charging>  (115) 
0

>  <r_epik_Ionization_Penalty_Neutral>  (115) 
2.42661

>  <r_epik_State_Penalty>  (115) 
2.58635

>  <r_epik_Charging_Adjusted_Penalty>  (115) 
2.58635

>  <i_epik_Tot_Q>  (115) 
0

>  <i_epik_Tot_abs_Q>  (115) 
0

>  <s_epik_Chemistry_Notes>  (115) 
This compound has an ester and may undergo hydrolysis at high or low pH.

>  <s_lp_Force_Field>  (115) 
OPLS3e

>  <r_lp_Energy>  (115) 
253.975

>  <b_lp_Chiralities_Consistent>  (115) 
1

>  <s_lp_Variant>  (115) 
34:0-2

>  <s_i_glide_gridfile>  (115) 
pfpi4k_grid

>  <i_i_glide_lignum>  (115) 
16

>  <i_i_glide_rotatable_bonds>  (115) 
2

>  <r_i_docking_score>  (115) 
-2.53523

>  <r_i_glide_ligand_efficiency>  (115) 
-0.0724352

>  <r_i_glide_ligand_efficiency_sa>  (115) 
-0.23694

>  <r_i_glide_ligand_efficiency_ln>  (115) 
-0.556539

>  <r_i_glide_gscore>  (115) 
-2.53523

>  <r_i_glide_lipo>  (115) 
-0.170528

>  <r_i_glide_hbond>  (115) 
0

>  <r_i_glide_metal>  (115) 
-0

>  <r_i_glide_rewards>  (115) 
-0.117992

>  <r_i_glide_evdw>  (115) 
-24.5841

>  <r_i_glide_ecoul>  (115) 
-6.86112

>  <r_i_glide_erotb>  (115) 
0.0871069

>  <r_i_glide_esite>  (115) 
-0.0754436

>  <r_i_glide_emodel>  (115) 
-34.9258

>  <r_i_glide_energy>  (115) 
-31.4453

>  <r_i_glide_einternal>  (115) 
2.47072

>  <r_i_glide_intrahb_reward>  (115) 
-0

>  <i_i_glide_confnum>  (115) 
2

>  <i_i_glide_posenum>  (115) 
26

>  <r_i_glide_eff_state_penalty>  (115) 
0

>  <ligand_id>  (115) 
34

>  <original_smiles>  (115) 
CC1CC2(CCC(=O)O2)C2CC3(C)C4CCC5CC6(C(=O)O)CCC4(C)CC(C)(CCC3(C)C12)C56

>  <smiles>  (115) 
[H]OC(=O)C12C([H])([H])C([H])([H])C3(C([H])([H])[H])C([H])([H])C4(C([H])([H])[H])C([H])([H])C([H])([H])C5(C([H])([H])[H])C6([H])C([H])(C([H])([H])[H])C([H])([H])C7(OC(=O)C([H])([H])C7([H])[H])C6([H])C([H])([H])C5(C([H])([H])[H])C3([H])C([H])([H])C([H])([H])C([H])(C1([H])[H])C24[H]

$$$$
34:1:1
     RDKit          3D

 81 87  0  0  1  0  0  0  0  0999 V2000
    5.4123   -3.2041    7.1836 C   0  0  0  0  0  0  0  0  0  0  0  0
    4.0517   -3.9050    7.0411 C   0  0  2  0  0  0  0  0  0  0  0  0
    4.1876   -5.2940    6.3616 C   0  0  0  0  0  0  0  0  0  0  0  0
    3.0944   -5.3808    5.2663 C   0  0  1  0  0  0  0  0  0  0  0  0
    3.6722   -5.2789    3.8348 C   0  0  0  0  0  0  0  0  0  0  0  0
    2.8360   -6.2425    3.0071 C   0  0  0  0  0  0  0  0  0  0  0  0
    2.2707   -7.1773    4.0584 C   0  0  0  0  0  0  0  0  0  0  0  0
    1.7285   -8.2464    3.7959 O   0  0  0  0  0  0  0  0  0  0  0  0
    2.4560   -6.6510    5.2720 O   0  0  0  0  0  0  0  0  0  0  0  0
    2.1177   -4.2754    5.7181 C   0  0  2  0  0  0  0  0  0  0  0  0
    1.1358   -3.5493    4.8194 C   0  0  0  0  0  0  0  0  0  0  0  0
    0.7839   -2.1932    5.5563 C   0  0  2  0  0  0  0  0  0  0  0  0
   -0.4848   -2.6614    6.3553 C   0  0  0  0  0  0  0  0  0  0  0  0
    0.1851   -1.1543    4.3946 C   0  0  1  0  0  0  0  0  0  0  0  0
   -1.1949   -0.3471    4.5833 C   0  0  0  0  0  0  0  0  0  0  0  0
   -1.4579    1.1679    5.0107 C   0  0  0  0  0  0  0  0  0  0  0  0
   -0.4500    2.3801    5.0062 C   0  0  2  0  0  0  0  0  0  0  0  0
   -0.2965    3.3178    3.8156 C   0  0  0  0  0  0  0  0  0  0  0  0
    1.1623    2.8555    3.6275 C   0  0  2  0  0  0  0  0  0  0  0  0
    2.1185    4.0565    3.5214 C   0  0  0  0  0  0  0  0  0  0  0  0
    3.0399    4.2490    4.3204 O   0  0  0  0  0  0  0  0  0  0  0  0
    1.8137    4.8807    2.4811 O   0  0  0  0  0  0  0  0  0  0  0  0
    1.3347    1.9722    2.3807 C   0  0  0  0  0  0  0  0  0  0  0  0
    0.5631    0.6505    2.4440 C   0  0  0  0  0  0  0  0  0  0  0  0
    1.1649   -0.4228    3.4189 C   0  0  2  0  0  0  0  0  0  0  0  0
    1.9344   -1.3708    2.4447 C   0  0  0  0  0  0  0  0  0  0  0  0
    2.1546    0.1564    4.3792 C   0  0  0  0  0  0  0  0  0  0  0  0
    1.6683    0.9706    5.6424 C   0  0  1  0  0  0  0  0  0  0  0  0
    0.7204    0.6238    6.8731 C   0  0  0  0  0  0  0  0  0  0  0  0
    2.9616    0.8193    6.4348 C   0  0  0  0  0  0  0  0  0  0  0  0
    3.1829   -0.7266    6.7813 C   0  0  0  0  0  0  0  0  0  0  0  0
    2.1033   -1.9748    6.6290 C   0  0  1  0  0  0  0  0  0  0  0  0
    1.6794   -2.2972    8.1070 C   0  0  0  0  0  0  0  0  0  0  0  0
    3.0168   -3.1612    6.1605 C   0  0  1  0  0  0  0  0  0  0  0  0
    1.0929    2.2965    5.1065 C   0  0  2  0  0  0  0  0  0  0  0  0
    5.8337   -2.9424    6.2123 H   0  0  0  0  0  0  0  0  0  0  0  0
    6.1285   -3.8527    7.6880 H   0  0  0  0  0  0  0  0  0  0  0  0
    5.3332   -2.2947    7.7760 H   0  0  0  0  0  0  0  0  0  0  0  0
    3.6451   -4.0806    8.0370 H   0  0  0  0  0  0  0  0  0  0  0  0
    5.1896   -5.4489    5.9599 H   0  0  0  0  0  0  0  0  0  0  0  0
    4.0476   -6.0784    7.1086 H   0  0  0  0  0  0  0  0  0  0  0  0
    3.6906   -4.2668    3.4295 H   0  0  0  0  0  0  0  0  0  0  0  0
    4.7002   -5.6400    3.8021 H   0  0  0  0  0  0  0  0  0  0  0  0
    2.0188   -5.7293    2.5041 H   0  0  0  0  0  0  0  0  0  0  0  0
    3.4351   -6.7793    2.2707 H   0  0  0  0  0  0  0  0  0  0  0  0
    1.5718   -4.6764    6.5708 H   0  0  0  0  0  0  0  0  0  0  0  0
    1.5938   -3.4102    3.8549 H   0  0  0  0  0  0  0  0  0  0  0  0
    0.2658   -4.1739    4.6130 H   0  0  0  0  0  0  0  0  0  0  0  0
   -0.8828   -1.9196    7.0385 H   0  0  0  0  0  0  0  0  0  0  0  0
   -0.3257   -3.5598    6.9472 H   0  0  0  0  0  0  0  0  0  0  0  0
   -1.3021   -2.9340    5.6880 H   0  0  0  0  0  0  0  0  0  0  0  0
   -0.2226   -1.8977    3.7107 H   0  0  0  0  0  0  0  0  0  0  0  0
   -1.7079   -0.4252    3.6290 H   0  0  0  0  0  0  0  0  0  0  0  0
   -1.8798   -0.9247    5.1948 H   0  0  0  0  0  0  0  0  0  0  0  0
   -2.3437    1.4908    4.4593 H   0  0  0  0  0  0  0  0  0  0  0  0
   -1.8517    1.1079    6.0268 H   0  0  0  0  0  0  0  0  0  0  0  0
   -0.7660    3.0435    5.8099 H   0  0  0  0  0  0  0  0  0  0  0  0
   -0.9547    3.0665    2.9863 H   0  0  0  0  0  0  0  0  0  0  0  0
   -0.4065    4.3723    4.0877 H   0  0  0  0  0  0  0  0  0  0  0  0
    1.1036    4.5954    1.8779 H   0  0  0  0  0  0  0  0  0  0  0  0
    0.9432    2.5200    1.5242 H   0  0  0  0  0  0  0  0  0  0  0  0
    2.3846    1.8230    2.1219 H   0  0  0  0  0  0  0  0  0  0  0  0
   -0.4803    0.8914    2.5980 H   0  0  0  0  0  0  0  0  0  0  0  0
    0.5264    0.2524    1.4287 H   0  0  0  0  0  0  0  0  0  0  0  0
    2.4771   -0.8022    1.6874 H   0  0  0  0  0  0  0  0  0  0  0  0
    1.2566   -2.0314    1.9047 H   0  0  0  0  0  0  0  0  0  0  0  0
    2.7038   -1.9806    2.9120 H   0  0  0  0  0  0  0  0  0  0  0  0
    2.7940   -0.6883    4.5532 H   0  0  0  0  0  0  0  0  0  0  0  0
    2.8909    0.7689    3.8643 H   0  0  0  0  0  0  0  0  0  0  0  0
    0.2301    1.5170    7.2554 H   0  0  0  0  0  0  0  0  0  0  0  0
    1.1914    0.3020    7.7981 H   0  0  0  0  0  0  0  0  0  0  0  0
   -0.0611   -0.0801    6.7071 H   0  0  0  0  0  0  0  0  0  0  0  0
    3.8187    1.2032    5.8785 H   0  0  0  0  0  0  0  0  0  0  0  0
    2.9606    1.4261    7.3441 H   0  0  0  0  0  0  0  0  0  0  0  0
    4.0772   -0.9785    6.2134 H   0  0  0  0  0  0  0  0  0  0  0  0
    3.5892   -0.7255    7.7899 H   0  0  0  0  0  0  0  0  0  0  0  0
    2.5024   -2.1879    8.8111 H   0  0  0  0  0  0  0  0  0  0  0  0
    1.3514   -3.3235    8.2518 H   0  0  0  0  0  0  0  0  0  0  0  0
    0.8798   -1.6640    8.4835 H   0  0  0  0  0  0  0  0  0  0  0  0
    3.5418   -2.8243    5.2638 H   0  0  0  0  0  0  0  0  0  0  0  0
    1.3759    3.0956    5.7919 H   0  0  0  0  0  0  0  0  0  0  0  0
  1  2  1  0
  1 36  1  0
  1 37  1  0
  1 38  1  0
  2 34  1  0
  2  3  1  0
  2 39  1  1
  3  4  1  0
  3 40  1  0
  3 41  1  0
  4  9  1  6
  4  5  1  0
  4 10  1  0
  5  6  1  0
  5 42  1  0
  5 43  1  0
  6  7  1  0
  6 44  1  0
  6 45  1  0
  7  8  2  0
  7  9  1  0
 10 34  1  0
 10 11  1  0
 10 46  1  1
 11 12  1  0
 11 47  1  0
 11 48  1  0
 12 32  1  0
 12 13  1  1
 12 14  1  0
 13 49  1  0
 13 50  1  0
 13 51  1  0
 14 25  1  0
 14 15  1  0
 14 52  1  6
 15 16  1  0
 15 53  1  0
 15 54  1  0
 16 17  1  0
 16 55  1  0
 16 56  1  0
 17 35  1  0
 17 18  1  0
 17 57  1  1
 18 19  1  0
 18 58  1  0
 18 59  1  0
 19 35  1  0
 19 20  1  1
 19 23  1  0
 20 21  2  0
 20 22  1  0
 22 60  1  0
 23 24  1  0
 23 61  1  0
 23 62  1  0
 24 25  1  0
 24 63  1  0
 24 64  1  0
 25 26  1  6
 25 27  1  0
 26 65  1  0
 26 66  1  0
 26 67  1  0
 27 28  1  0
 27 68  1  0
 27 69  1  0
 28 29  1  1
 28 30  1  0
 28 35  1  0
 29 70  1  0
 29 71  1  0
 29 72  1  0
 30 31  1  0
 30 73  1  0
 30 74  1  0
 31 32  1  0
 31 75  1  0
 31 76  1  0
 32 33  1  1
 32 34  1  0
 33 77  1  0
 33 78  1  0
 33 79  1  0
 34 80  1  6
 35 81  1  1
M  END
>  <i_m_ct_stereo_status>  (116) 
1

>  <s_m_source_file>  (116) 
/var/tmp/pbs.5076255.sched01/tmpqllwm4fg/43asec3i7m.sdf

>  <i_m_source_file_index>  (116) 
16

>  <i_lp_mmshare_version>  (116) 
48012

>  <i_f3d_flags>  (116) 
0

>  <s_epik_input>  (116) 
Tz1DKE8xKVtDSDJdW0NIMl1bQ0BAXTEyW0NASF0zW0NASF0oW0NASF0oW0NIM10pW0NIMl0yKVtDQF00KFtDSDNdKVtDQEBdKFtDSDJdMykoW0NIM10pW0NAQEhdNVtDQEBdNihbQ0gzXSlbQ0gyXVtDSDJdW0NAXTcoQyg9TylbT0hdKVtDQEBIXShbQ0BASF0oW0NIMl03KVtDSDJdW0NIMl01KVtDQF0oW0NIMl02KShbQ0gzXSlbQ0gyXVtDSDJdNA==

>  <s_epik_cmdline>  (116) 
J2VwaWtfcHl0aG9uJywgJy1waHQnLCAnMi4wJywgJy1waCcsICc3LjAnLCAnLXRuJywgJzgnLCAnLW1hJywgJzIwMCcsICctaW1hZScsICc8aW5maWxlLm1hZT4nLCAnLW9tYWUnLCAnPG91dGZpbGUubWFlPic=

>  <r_epik_Ionization_Penalty>  (116) 
2.42661

>  <r_epik_Ionization_Penalty_Charging>  (116) 
0

>  <r_epik_Ionization_Penalty_Neutral>  (116) 
2.42661

>  <r_epik_State_Penalty>  (116) 
2.58635

>  <r_epik_Charging_Adjusted_Penalty>  (116) 
2.58635

>  <i_epik_Tot_Q>  (116) 
0

>  <i_epik_Tot_abs_Q>  (116) 
0

>  <s_epik_Chemistry_Notes>  (116) 
This compound has an ester and may undergo hydrolysis at high or low pH.

>  <s_lp_Force_Field>  (116) 
OPLS3e

>  <r_lp_Energy>  (116) 
253.975

>  <b_lp_Chiralities_Consistent>  (116) 
1

>  <s_lp_Variant>  (116) 
34:0-2

>  <s_i_glide_gridfile>  (116) 
pfpi4k_grid

>  <i_i_glide_lignum>  (116) 
16

>  <i_i_glide_rotatable_bonds>  (116) 
2

>  <r_i_docking_score>  (116) 
-2.40703

>  <r_i_glide_ligand_efficiency>  (116) 
-0.0687722

>  <r_i_glide_ligand_efficiency_sa>  (116) 
-0.224958

>  <r_i_glide_ligand_efficiency_ln>  (116) 
-0.528396

>  <r_i_glide_gscore>  (116) 
-2.40703

>  <r_i_glide_lipo>  (116) 
-0.014039

>  <r_i_glide_hbond>  (116) 
0

>  <r_i_glide_metal>  (116) 
-0

>  <r_i_glide_rewards>  (116) 
-0.117992

>  <r_i_glide_evdw>  (116) 
-24.2711

>  <r_i_glide_ecoul>  (116) 
-7.38224

>  <r_i_glide_erotb>  (116) 
0.0871069

>  <r_i_glide_esite>  (116) 
-0.0412122

>  <r_i_glide_emodel>  (116) 
-35.5495

>  <r_i_glide_energy>  (116) 
-31.6533

>  <r_i_glide_einternal>  (116) 
1.84404

>  <r_i_glide_intrahb_reward>  (116) 
-0

>  <i_i_glide_confnum>  (116) 
4

>  <i_i_glide_posenum>  (116) 
23

>  <r_i_glide_eff_state_penalty>  (116) 
0

>  <ligand_id>  (116) 
34

>  <original_smiles>  (116) 
CC1CC2(CCC(=O)O2)C2CC3(C)C4CCC5CC6(C(=O)O)CCC4(C)CC(C)(CCC3(C)C12)C56

>  <smiles>  (116) 
[H]OC(=O)C12C([H])([H])C([H])([H])C3(C([H])([H])[H])C([H])([H])C4(C([H])([H])[H])C([H])([H])C([H])([H])C5(C([H])([H])[H])C6([H])C([H])(C([H])([H])[H])C([H])([H])C7(OC(=O)C([H])([H])C7([H])[H])C6([H])C([H])([H])C5(C([H])([H])[H])C3([H])C([H])([H])C([H])([H])C([H])(C1([H])[H])C24[H]

$$$$
34:1:2
     RDKit          3D

 81 87  0  0  1  0  0  0  0  0999 V2000
    5.2023   -3.3648    5.9473 C   0  0  0  0  0  0  0  0  0  0  0  0
    3.7699   -3.7400    5.5339 C   0  0  2  0  0  0  0  0  0  0  0  0
    3.7485   -4.8529    4.4510 C   0  0  0  0  0  0  0  0  0  0  0  0
    2.7543   -4.4029    3.3457 C   0  0  1  0  0  0  0  0  0  0  0  0
    3.4868   -3.9881    2.0489 C   0  0  0  0  0  0  0  0  0  0  0  0
    3.5592   -5.2822    1.2439 C   0  0  0  0  0  0  0  0  0  0  0  0
    2.3868   -6.0698    1.8047 C   0  0  0  0  0  0  0  0  0  0  0  0
    1.9148   -7.0732    1.2834 O   0  0  0  0  0  0  0  0  0  0  0  0
    1.9541   -5.4921    2.9221 O   0  0  0  0  0  0  0  0  0  0  0  0
    1.9308   -3.3409    4.0937 C   0  0  2  0  0  0  0  0  0  0  0  0
    1.1545   -2.2162    3.4451 C   0  0  0  0  0  0  0  0  0  0  0  0
    0.9431   -1.1154    4.5576 C   0  0  2  0  0  0  0  0  0  0  0  0
   -0.4495   -1.5820    5.1167 C   0  0  0  0  0  0  0  0  0  0  0  0
    0.6197    0.3132    3.7536 C   0  0  1  0  0  0  0  0  0  0  0  0
   -0.6369    1.2486    4.1224 C   0  0  0  0  0  0  0  0  0  0  0  0
   -0.7039    2.5800    5.0062 C   0  0  0  0  0  0  0  0  0  0  0  0
    0.4724    3.5442    5.4300 C   0  0  2  0  0  0  0  0  0  0  0  0
    0.8754    4.7668    4.6088 C   0  0  0  0  0  0  0  0  0  0  0  0
    2.2581    4.1430    4.3421 C   0  0  2  0  0  0  0  0  0  0  0  0
    3.4015    5.1336    4.6571 C   0  0  0  0  0  0  0  0  0  0  0  0
    4.2218    4.9658    5.5561 O   0  0  0  0  0  0  0  0  0  0  0  0
    3.3784    6.2140    3.8188 O   0  0  0  0  0  0  0  0  0  0  0  0
    2.3934    3.6749    2.8803 C   0  0  0  0  0  0  0  0  0  0  0  0
    1.4407    2.5324    2.5018 C   0  0  0  0  0  0  0  0  0  0  0  0
    1.7878    1.1272    3.1023 C   0  0  2  0  0  0  0  0  0  0  0  0
    2.4902    0.4085    1.9059 C   0  0  0  0  0  0  0  0  0  0  0  0
    2.7631    1.2063    4.2319 C   0  0  0  0  0  0  0  0  0  0  0  0
    2.2888    1.6656    5.6678 C   0  0  1  0  0  0  0  0  0  0  0  0
    1.1909    1.1249    6.6857 C   0  0  0  0  0  0  0  0  0  0  0  0
    3.4667    1.0573    6.4213 C   0  0  0  0  0  0  0  0  0  0  0  0
    3.4211   -0.5344    6.2695 C   0  0  0  0  0  0  0  0  0  0  0  0
    2.1839   -1.4709    5.6872 C   0  0  1  0  0  0  0  0  0  0  0  0
    1.5830   -2.1549    6.9670 C   0  0  0  0  0  0  0  0  0  0  0  0
    2.9473   -2.5927    4.8980 C   0  0  1  0  0  0  0  0  0  0  0  0
    1.9710    3.1732    5.5591 C   0  0  2  0  0  0  0  0  0  0  0  0
    5.7449   -2.8936    5.1282 H   0  0  0  0  0  0  0  0  0  0  0  0
    5.7640   -4.2492    6.2475 H   0  0  0  0  0  0  0  0  0  0  0  0
    5.2080   -2.6814    6.7939 H   0  0  0  0  0  0  0  0  0  0  0  0
    3.2528   -4.1395    6.4074 H   0  0  0  0  0  0  0  0  0  0  0  0
    4.7422   -5.0430    4.0429 H   0  0  0  0  0  0  0  0  0  0  0  0
    3.4322   -5.7929    4.9055 H   0  0  0  0  0  0  0  0  0  0  0  0
    2.9282   -3.2552    1.4701 H   0  0  0  0  0  0  0  0  0  0  0  0
    4.4737   -3.5641    2.2390 H   0  0  0  0  0  0  0  0  0  0  0  0
    3.4597   -5.1145    0.1707 H   0  0  0  0  0  0  0  0  0  0  0  0
    4.4868   -5.8236    1.4320 H   0  0  0  0  0  0  0  0  0  0  0  0
    1.2582   -3.8857    4.7539 H   0  0  0  0  0  0  0  0  0  0  0  0
    1.7061   -1.8561    2.5970 H   0  0  0  0  0  0  0  0  0  0  0  0
    0.2265   -2.5937    3.0203 H   0  0  0  0  0  0  0  0  0  0  0  0
   -0.7999   -1.0330    5.9865 H   0  0  0  0  0  0  0  0  0  0  0  0
   -0.4802   -2.6336    5.3911 H   0  0  0  0  0  0  0  0  0  0  0  0
   -1.2315   -1.4933    4.3615 H   0  0  0  0  0  0  0  0  0  0  0  0
    0.1678   -0.1025    2.8532 H   0  0  0  0  0  0  0  0  0  0  0  0
   -1.0641    1.5456    3.1629 H   0  0  0  0  0  0  0  0  0  0  0  0
   -1.4524    0.6370    4.4961 H   0  0  0  0  0  0  0  0  0  0  0  0
   -1.4833    3.1991    4.5613 H   0  0  0  0  0  0  0  0  0  0  0  0
   -1.1895    2.2753    5.9341 H   0  0  0  0  0  0  0  0  0  0  0  0
    0.1854    3.9668    6.3952 H   0  0  0  0  0  0  0  0  0  0  0  0
    0.2586    4.8982    3.7147 H   0  0  0  0  0  0  0  0  0  0  0  0
    0.8999    5.6827    5.2024 H   0  0  0  0  0  0  0  0  0  0  0  0
    2.6679    6.1759    3.1929 H   0  0  0  0  0  0  0  0  0  0  0  0
    2.1528    4.5085    2.2151 H   0  0  0  0  0  0  0  0  0  0  0  0
    3.4145    3.4326    2.6276 H   0  0  0  0  0  0  0  0  0  0  0  0
    0.4374    2.8875    2.6811 H   0  0  0  0  0  0  0  0  0  0  0  0
    1.4373    2.4764    1.4130 H   0  0  0  0  0  0  0  0  0  0  0  0
    3.1838    1.0767    1.3941 H   0  0  0  0  0  0  0  0  0  0  0  0
    1.7693    0.0751    1.1583 H   0  0  0  0  0  0  0  0  0  0  0  0
    3.1112   -0.4412    2.1820 H   0  0  0  0  0  0  0  0  0  0  0  0
    3.2486    0.2502    4.1532 H   0  0  0  0  0  0  0  0  0  0  0  0
    3.6230    1.8140    3.9637 H   0  0  0  0  0  0  0  0  0  0  0  0
    0.8091    1.9270    7.3147 H   0  0  0  0  0  0  0  0  0  0  0  0
    1.5187    0.4587    7.4778 H   0  0  0  0  0  0  0  0  0  0  0  0
    0.3287    0.6529    6.2759 H   0  0  0  0  0  0  0  0  0  0  0  0
    4.4207    1.4387    6.0504 H   0  0  0  0  0  0  0  0  0  0  0  0
    3.4742    1.3457    7.4756 H   0  0  0  0  0  0  0  0  0  0  0  0
    4.3137   -0.7509    5.6839 H   0  0  0  0  0  0  0  0  0  0  0  0
    3.7286   -0.9144    7.2420 H   0  0  0  0  0  0  0  0  0  0  0  0
    2.3447   -2.4113    7.7016 H   0  0  0  0  0  0  0  0  0  0  0  0
    1.0901   -3.1028    6.7644 H   0  0  0  0  0  0  0  0  0  0  0  0
    0.8555   -1.5397    7.4920 H   0  0  0  0  0  0  0  0  0  0  0  0
    3.5948   -2.0968    4.1713 H   0  0  0  0  0  0  0  0  0  0  0  0
    2.3039    3.6554    6.4814 H   0  0  0  0  0  0  0  0  0  0  0  0
  1  2  1  0
  1 36  1  0
  1 37  1  0
  1 38  1  0
  2 34  1  0
  2  3  1  0
  2 39  1  1
  3  4  1  0
  3 40  1  0
  3 41  1  0
  4  9  1  6
  4  5  1  0
  4 10  1  0
  5  6  1  0
  5 42  1  0
  5 43  1  0
  6  7  1  0
  6 44  1  0
  6 45  1  0
  7  8  2  0
  7  9  1  0
 10 34  1  0
 10 11  1  0
 10 46  1  1
 11 12  1  0
 11 47  1  0
 11 48  1  0
 12 32  1  0
 12 13  1  1
 12 14  1  0
 13 49  1  0
 13 50  1  0
 13 51  1  0
 14 25  1  0
 14 15  1  0
 14 52  1  6
 15 16  1  0
 15 53  1  0
 15 54  1  0
 16 17  1  0
 16 55  1  0
 16 56  1  0
 17 35  1  0
 17 18  1  0
 17 57  1  1
 18 19  1  0
 18 58  1  0
 18 59  1  0
 19 35  1  0
 19 20  1  1
 19 23  1  0
 20 21  2  0
 20 22  1  0
 22 60  1  0
 23 24  1  0
 23 61  1  0
 23 62  1  0
 24 25  1  0
 24 63  1  0
 24 64  1  0
 25 26  1  6
 25 27  1  0
 26 65  1  0
 26 66  1  0
 26 67  1  0
 27 28  1  0
 27 68  1  0
 27 69  1  0
 28 29  1  1
 28 30  1  0
 28 35  1  0
 29 70  1  0
 29 71  1  0
 29 72  1  0
 30 31  1  0
 30 73  1  0
 30 74  1  0
 31 32  1  0
 31 75  1  0
 31 76  1  0
 32 33  1  1
 32 34  1  0
 33 77  1  0
 33 78  1  0
 33 79  1  0
 34 80  1  6
 35 81  1  1
M  END
>  <i_m_ct_stereo_status>  (117) 
1

>  <s_m_source_file>  (117) 
/var/tmp/pbs.5076255.sched01/tmpqllwm4fg/43asec3i7m.sdf

>  <i_m_source_file_index>  (117) 
16

>  <i_lp_mmshare_version>  (117) 
48012

>  <i_f3d_flags>  (117) 
0

>  <s_epik_input>  (117) 
Tz1DKE8xKVtDSDJdW0NIMl1bQ0BAXTEyW0NASF0zW0NASF0oW0NASF0oW0NIM10pW0NIMl0yKVtDQF00KFtDSDNdKVtDQEBdKFtDSDJdMykoW0NIM10pW0NAQEhdNVtDQEBdNihbQ0gzXSlbQ0gyXVtDSDJdW0NAXTcoQyg9TylbT0hdKVtDQEBIXShbQ0BASF0oW0NIMl03KVtDSDJdW0NIMl01KVtDQF0oW0NIMl02KShbQ0gzXSlbQ0gyXVtDSDJdNA==

>  <s_epik_cmdline>  (117) 
J2VwaWtfcHl0aG9uJywgJy1waHQnLCAnMi4wJywgJy1waCcsICc3LjAnLCAnLXRuJywgJzgnLCAnLW1hJywgJzIwMCcsICctaW1hZScsICc8aW5maWxlLm1hZT4nLCAnLW9tYWUnLCAnPG91dGZpbGUubWFlPic=

>  <r_epik_Ionization_Penalty>  (117) 
2.42661

>  <r_epik_Ionization_Penalty_Charging>  (117) 
0

>  <r_epik_Ionization_Penalty_Neutral>  (117) 
2.42661

>  <r_epik_State_Penalty>  (117) 
2.58635

>  <r_epik_Charging_Adjusted_Penalty>  (117) 
2.58635

>  <i_epik_Tot_Q>  (117) 
0

>  <i_epik_Tot_abs_Q>  (117) 
0

>  <s_epik_Chemistry_Notes>  (117) 
This compound has an ester and may undergo hydrolysis at high or low pH.

>  <s_lp_Force_Field>  (117) 
OPLS3e

>  <r_lp_Energy>  (117) 
253.975

>  <b_lp_Chiralities_Consistent>  (117) 
1

>  <s_lp_Variant>  (117) 
34:0-2

>  <s_i_glide_gridfile>  (117) 
pfpi4k_grid

>  <i_i_glide_lignum>  (117) 
16

>  <i_i_glide_rotatable_bonds>  (117) 
2

>  <r_i_docking_score>  (117) 
-1.88547

>  <r_i_glide_ligand_efficiency>  (117) 
-0.0538706

>  <r_i_glide_ligand_efficiency_sa>  (117) 
-0.176214

>  <r_i_glide_ligand_efficiency_ln>  (117) 
-0.413902

>  <r_i_glide_gscore>  (117) 
-1.88547

>  <r_i_glide_lipo>  (117) 
-0.0777031

>  <r_i_glide_hbond>  (117) 
0

>  <r_i_glide_metal>  (117) 
-0

>  <r_i_glide_rewards>  (117) 
-0.117992

>  <r_i_glide_evdw>  (117) 
-28.6036

>  <r_i_glide_ecoul>  (117) 
-2.18552

>  <r_i_glide_erotb>  (117) 
0.0871069

>  <r_i_glide_esite>  (117) 
-0.0188751

>  <r_i_glide_emodel>  (117) 
-33.8406

>  <r_i_glide_energy>  (117) 
-30.7891

>  <r_i_glide_einternal>  (117) 
1.60959

>  <r_i_glide_intrahb_reward>  (117) 
-0

>  <i_i_glide_confnum>  (117) 
2

>  <i_i_glide_posenum>  (117) 
17

>  <r_i_glide_eff_state_penalty>  (117) 
0

>  <ligand_id>  (117) 
34

>  <original_smiles>  (117) 
CC1CC2(CCC(=O)O2)C2CC3(C)C4CCC5CC6(C(=O)O)CCC4(C)CC(C)(CCC3(C)C12)C56

>  <smiles>  (117) 
[H]OC(=O)C12C([H])([H])C([H])([H])C3(C([H])([H])[H])C([H])([H])C4(C([H])([H])[H])C([H])([H])C([H])([H])C5(C([H])([H])[H])C6([H])C([H])(C([H])([H])[H])C([H])([H])C7(OC(=O)C([H])([H])C7([H])[H])C6([H])C([H])([H])C5(C([H])([H])[H])C3([H])C([H])([H])C([H])([H])C([H])(C1([H])[H])C24[H]

$$$$
35:1:0
     RDKit          3D

 56 61  0  0  1  0  0  0  0  0999 V2000
   -2.1843   -8.4369    3.4738 C   0  0  0  0  0  0  0  0  0  0  0  0
   -0.7282   -8.0030    3.3252 C   0  0  0  0  0  0  0  0  0  0  0  0
   -0.0492   -8.5243    2.4469 O   0  0  0  0  0  0  0  0  0  0  0  0
   -0.4052   -6.9848    4.2120 N   0  0  0  0  0  0  0  0  0  0  0  0
    0.7863   -6.5358    4.3862 C   0  0  0  0  0  0  0  0  0  0  0  0
    1.0720   -5.3503    5.3133 C   0  0  0  0  0  0  0  0  0  0  0  0
    0.1813   -4.6474    5.7903 O   0  0  0  0  0  0  0  0  0  0  0  0
    2.5410   -5.0100    5.6804 C   0  0  0  0  0  0  0  0  0  0  0  0
    3.3604   -4.2928    4.5849 C   0  0  0  0  0  0  0  0  0  0  0  0
    4.1227   -3.2651    4.9965 C   0  0  0  0  0  0  0  0  0  0  0  0
    4.5999   -2.2971    4.1612 O   0  0  0  0  0  0  0  0  0  0  0  0
    3.6483   -1.4539    3.4769 C   0  0  0  0  0  0  0  0  0  0  0  0
    2.2374   -2.0324    3.1745 C   0  0  0  0  0  0  0  0  0  0  0  0
    1.2584   -1.2959    3.2858 O   0  0  0  0  0  0  0  0  0  0  0  0
    2.0087   -3.4983    2.7260 C   0  0  0  0  0  0  0  0  0  0  0  0
    3.1216   -4.5612    3.0680 C   0  0  1  0  0  0  0  0  0  0  0  0
    4.3141   -4.2725    2.0562 C   0  0  1  0  0  0  0  0  0  0  0  0
    5.5616   -5.1526    2.3236 C   0  0  0  0  0  0  0  0  0  0  0  0
    5.2929   -6.6449    2.2242 C   0  0  0  0  0  0  0  0  0  0  0  0
    6.2061   -7.6892    1.9558 C   0  0  0  0  0  0  0  0  0  0  0  0
    5.7503   -9.0356    2.0000 C   0  0  0  0  0  0  0  0  0  0  0  0
    4.4271   -9.3465    2.3987 C   0  0  0  0  0  0  0  0  0  0  0  0
    4.0151  -10.6482    2.4881 O   0  0  0  0  0  0  0  0  0  0  0  0
    3.5335   -8.3125    2.7418 C   0  0  0  0  0  0  0  0  0  0  0  0
    3.9846   -7.0074    2.5576 C   0  0  0  0  0  0  0  0  0  0  0  0
    2.7928   -6.0841    2.7386 C   0  0  2  0  0  0  0  0  0  0  0  0
    2.0919   -6.0546    1.3499 C   0  0  0  0  0  0  0  0  0  0  0  0
    3.0604   -5.5424    0.2552 C   0  0  0  0  0  0  0  0  0  0  0  0
    3.8200   -4.3476    0.6549 N   0  0  0  0  0  0  0  0  0  0  0  0
    4.8281   -4.0299   -0.3539 C   0  0  0  0  0  0  0  0  0  0  0  0
    2.1026   -7.0184    3.7719 C   0  0  2  0  0  0  0  0  0  0  0  0
    2.2808   -8.3588    3.2863 O   0  0  0  0  0  0  0  0  0  0  0  0
   -2.8513   -7.6279    3.1588 H   0  0  0  0  0  0  0  0  0  0  0  0
   -2.4104   -8.7322    4.5016 H   0  0  0  0  0  0  0  0  0  0  0  0
   -2.3498   -9.3052    2.8365 H   0  0  0  0  0  0  0  0  0  0  0  0
    2.5037   -4.3585    6.5534 H   0  0  0  0  0  0  0  0  0  0  0  0
    3.0783   -5.8791    6.0552 H   0  0  0  0  0  0  0  0  0  0  0  0
    4.2581   -2.9893    6.0337 H   0  0  0  0  0  0  0  0  0  0  0  0
    3.5295   -0.5367    4.0628 H   0  0  0  0  0  0  0  0  0  0  0  0
    4.0908   -1.1494    2.5304 H   0  0  0  0  0  0  0  0  0  0  0  0
    1.0581   -3.7965    3.1539 H   0  0  0  0  0  0  0  0  0  0  0  0
    1.8141   -3.4283    1.6598 H   0  0  0  0  0  0  0  0  0  0  0  0
    4.6658   -3.2507    2.1274 H   0  0  0  0  0  0  0  0  0  0  0  0
    6.3815   -4.8872    1.6599 H   0  0  0  0  0  0  0  0  0  0  0  0
    5.9213   -4.9414    3.3319 H   0  0  0  0  0  0  0  0  0  0  0  0
    7.2481   -7.4665    1.7345 H   0  0  0  0  0  0  0  0  0  0  0  0
    6.4412   -9.8277    1.7716 H   0  0  0  0  0  0  0  0  0  0  0  0
    4.2144  -11.1973    1.7236 H   0  0  0  0  0  0  0  0  0  0  0  0
    1.7511   -7.0509    1.0578 H   0  0  0  0  0  0  0  0  0  0  0  0
    1.1815   -5.4609    1.3709 H   0  0  0  0  0  0  0  0  0  0  0  0
    3.7489   -6.3425   -0.0291 H   0  0  0  0  0  0  0  0  0  0  0  0
    2.4950   -5.2996   -0.6451 H   0  0  0  0  0  0  0  0  0  0  0  0
    4.3597   -3.9000   -1.3315 H   0  0  0  0  0  0  0  0  0  0  0  0
    5.5700   -4.8244   -0.4539 H   0  0  0  0  0  0  0  0  0  0  0  0
    5.3477   -3.1040   -0.1098 H   0  0  0  0  0  0  0  0  0  0  0  0
    2.7650   -7.1410    4.6294 H   0  0  0  0  0  0  0  0  0  0  0  0
  1  2  1  0
  1 33  1  0
  1 34  1  0
  1 35  1  0
  2  3  2  0
  2  4  1  0
  4  5  2  3
  5 31  1  0
  5  6  1  0
  6  7  2  0
  6  8  1  0
  8  9  1  0
  8 36  1  0
  8 37  1  0
  9 16  1  0
  9 10  2  0
 10 11  1  0
 10 38  1  0
 11 12  1  0
 12 13  1  0
 12 39  1  0
 12 40  1  0
 13 14  2  0
 13 15  1  0
 16 15  1  6
 15 41  1  0
 15 42  1  0
 16 26  1  0
 16 17  1  0
 17 29  1  0
 17 18  1  0
 17 43  1  1
 18 19  1  0
 18 44  1  0
 18 45  1  0
 19 25  2  0
 19 20  1  0
 20 21  2  0
 20 46  1  0
 21 22  1  0
 21 47  1  0
 22 23  1  0
 22 24  2  0
 23 48  1  0
 24 32  1  0
 24 25  1  0
 25 26  1  0
 26 27  1  6
 26 31  1  0
 27 28  1  0
 27 49  1  0
 27 50  1  0
 28 29  1  0
 28 51  1  0
 28 52  1  0
 29 30  1  0
 30 53  1  0
 30 54  1  0
 30 55  1  0
 31 32  1  0
 31 56  1  1
M  END
>  <i_m_ct_stereo_status>  (118) 
1

>  <s_m_source_file>  (118) 
/var/tmp/pbs.5076255.sched01/tmpqllwm4fg/43asec3i7m.sdf

>  <i_m_source_file_index>  (118) 
18

>  <i_lp_mmshare_version>  (118) 
48012

>  <i_f3d_flags>  (118) 
0

>  <s_epik_input>  (118) 
Tz1DKFtDSDJdMSlbQ0gyXU9bQ0hdPUMyW0NIMl1DKD1PKS9DKD1OXEMoPU8pW0NIM10pW0NASF0zT2M0YyhbT0hdKVtjSF1bY0hdYyhjNFtDQF0zNVtDQEBdMTI2KVtDSDJdW0NASF02TihbQ0gzXSlbQ0gyXVtDSDJdNQ==

>  <s_epik_cmdline>  (118) 
J2VwaWtfcHl0aG9uJywgJy1waHQnLCAnMi4wJywgJy1waCcsICc3LjAnLCAnLXRuJywgJzgnLCAnLW1hJywgJzIwMCcsICctaW1hZScsICc8aW5maWxlLm1hZT4nLCAnLW9tYWUnLCAnPG91dGZpbGUubWFlPic=

>  <r_lp_tautomer_probability>  (118) 
1

>  <r_epik_Ionization_Penalty>  (118) 
0.0564769

>  <r_epik_Ionization_Penalty_Charging>  (118) 
0

>  <r_epik_Ionization_Penalty_Neutral>  (118) 
0.0564769

>  <r_epik_State_Penalty>  (118) 
0.0389779

>  <r_epik_Charging_Adjusted_Penalty>  (118) 
0.0389779

>  <i_epik_Tot_Q>  (118) 
0

>  <i_epik_Tot_abs_Q>  (118) 
0

>  <s_epik_Chemistry_Notes>  (118) 
This compound has an imine and may undergo hydrolysis.

>  <s_lp_Force_Field>  (118) 
OPLS3e

>  <r_lp_Energy>  (118) 
125.324

>  <b_lp_Chiralities_Consistent>  (118) 
1

>  <s_lp_Variant>  (118) 
35:0-2

>  <s_i_glide_gridfile>  (118) 
pfpi4k_grid

>  <i_i_glide_lignum>  (118) 
18

>  <i_i_glide_rotatable_bonds>  (118) 
2

>  <r_i_docking_score>  (118) 
-2.27431

>  <r_i_glide_ligand_efficiency>  (118) 
-0.0710723

>  <r_i_glide_ligand_efficiency_sa>  (118) 
-0.225641

>  <r_i_glide_ligand_efficiency_ln>  (118) 
-0.509281

>  <r_i_glide_gscore>  (118) 
-2.27431

>  <r_i_glide_lipo>  (118) 
-0.149088

>  <r_i_glide_hbond>  (118) 
0

>  <r_i_glide_metal>  (118) 
-0

>  <r_i_glide_rewards>  (118) 
-0.433247

>  <r_i_glide_evdw>  (118) 
-25.2243

>  <r_i_glide_ecoul>  (118) 
-3.07208

>  <r_i_glide_erotb>  (118) 
0.104638

>  <r_i_glide_esite>  (118) 
-0.0745935

>  <r_i_glide_emodel>  (118) 
-30.4947

>  <r_i_glide_energy>  (118) 
-28.2963

>  <r_i_glide_einternal>  (118) 
2.12014

>  <r_i_glide_intrahb_reward>  (118) 
-0

>  <i_i_glide_confnum>  (118) 
3

>  <i_i_glide_posenum>  (118) 
23

>  <r_i_glide_eff_state_penalty>  (118) 
0

>  <ligand_id>  (118) 
35

>  <original_smiles>  (118) 
CC(=O)N=C1C(=O)CC2=COCC(=O)CC23C2Cc4ccc(O)c5c4C3(CCN2C)C1O5

>  <smiles>  (118) 
[H]Oc1c([H])c([H])c2c3c1OC1([H])C(=NC(=O)C([H])([H])[H])C(=O)C([H])([H])C4=C([H])OC([H])([H])C(=O)C([H])([H])C45C([H])(N(C([H])([H])[H])C([H])([H])C([H])([H])C315)C2([H])[H]

$$$$
35:1:1
     RDKit          3D

 56 61  0  0  1  0  0  0  0  0999 V2000
   -0.1697  -10.4905    2.9226 C   0  0  0  0  0  0  0  0  0  0  0  0
    1.0141   -9.5296    2.8714 C   0  0  0  0  0  0  0  0  0  0  0  0
    1.7462   -9.5632    1.8859 O   0  0  0  0  0  0  0  0  0  0  0  0
    1.0476   -8.6975    3.9774 N   0  0  0  0  0  0  0  0  0  0  0  0
    2.0186   -7.9025    4.2426 C   0  0  0  0  0  0  0  0  0  0  0  0
    1.9651   -6.9393    5.4282 C   0  0  0  0  0  0  0  0  0  0  0  0
    0.9338   -6.7272    6.0646 O   0  0  0  0  0  0  0  0  0  0  0  0
    3.2544   -6.1917    5.8518 C   0  0  0  0  0  0  0  0  0  0  0  0
    3.6622   -4.9999    4.9614 C   0  0  0  0  0  0  0  0  0  0  0  0
    4.0567   -3.8898    5.6100 C   0  0  0  0  0  0  0  0  0  0  0  0
    4.0905   -2.6522    5.0363 O   0  0  0  0  0  0  0  0  0  0  0  0
    2.8440   -2.0736    4.5923 C   0  0  0  0  0  0  0  0  0  0  0  0
    1.6950   -3.0318    4.1674 C   0  0  0  0  0  0  0  0  0  0  0  0
    0.5381   -2.7338    4.4629 O   0  0  0  0  0  0  0  0  0  0  0  0
    1.9444   -4.3378    3.3702 C   0  0  0  0  0  0  0  0  0  0  0  0
    3.3833   -4.9775    3.4287 C   0  0  1  0  0  0  0  0  0  0  0  0
    4.2990   -4.0615    2.5075 C   0  0  1  0  0  0  0  0  0  0  0  0
    5.7904   -4.4701    2.5378 C   0  0  0  0  0  0  0  0  0  0  0  0
    6.0572   -5.8927    2.0824 C   0  0  0  0  0  0  0  0  0  0  0  0
    7.2405   -6.4540    1.5658 C   0  0  0  0  0  0  0  0  0  0  0  0
    7.2929   -7.8442    1.2917 C   0  0  0  0  0  0  0  0  0  0  0  0
    6.1899   -8.6913    1.5892 C   0  0  0  0  0  0  0  0  0  0  0  0
    6.2510  -10.0294    1.3183 O   0  0  0  0  0  0  0  0  0  0  0  0
    5.0366   -8.1433    2.1802 C   0  0  0  0  0  0  0  0  0  0  0  0
    4.9858   -6.7641    2.3192 C   0  0  0  0  0  0  0  0  0  0  0  0
    3.5718   -6.3969    2.7330 C   0  0  2  0  0  0  0  0  0  0  0  0
    2.7691   -6.3054    1.4024 C   0  0  0  0  0  0  0  0  0  0  0  0
    3.3964   -5.2503    0.4561 C   0  0  0  0  0  0  0  0  0  0  0  0
    3.7282   -3.9858    1.1348 N   0  0  0  0  0  0  0  0  0  0  0  0
    4.4635   -3.1030    0.2302 C   0  0  0  0  0  0  0  0  0  0  0  0
    3.3549   -7.7275    3.5089 C   0  0  2  0  0  0  0  0  0  0  0  0
    3.9443   -8.7669    2.7100 O   0  0  0  0  0  0  0  0  0  0  0  0
   -1.1142   -9.9462    2.8229 H   0  0  0  0  0  0  0  0  0  0  0  0
   -0.1807  -11.0682    3.8532 H   0  0  0  0  0  0  0  0  0  0  0  0
   -0.0816  -11.1835    2.0874 H   0  0  0  0  0  0  0  0  0  0  0  0
    3.0766   -5.8176    6.8604 H   0  0  0  0  0  0  0  0  0  0  0  0
    4.0897   -6.8738    5.9938 H   0  0  0  0  0  0  0  0  0  0  0  0
    4.1923   -3.8318    6.6809 H   0  0  0  0  0  0  0  0  0  0  0  0
    2.4743   -1.4195    5.3867 H   0  0  0  0  0  0  0  0  0  0  0  0
    3.0617   -1.4227    3.7459 H   0  0  0  0  0  0  0  0  0  0  0  0
    1.2032   -5.0484    3.7196 H   0  0  0  0  0  0  0  0  0  0  0  0
    1.6376   -4.1019    2.3554 H   0  0  0  0  0  0  0  0  0  0  0  0
    4.2832   -3.0258    2.8269 H   0  0  0  0  0  0  0  0  0  0  0  0
    6.4060   -3.7873    1.9565 H   0  0  0  0  0  0  0  0  0  0  0  0
    6.1470   -4.3891    3.5634 H   0  0  0  0  0  0  0  0  0  0  0  0
    8.1104   -5.8301    1.3928 H   0  0  0  0  0  0  0  0  0  0  0  0
    8.1927   -8.2549    0.8644 H   0  0  0  0  0  0  0  0  0  0  0  0
    5.4090  -10.4710    1.3829 H   0  0  0  0  0  0  0  0  0  0  0  0
    2.7662   -7.2668    0.8858 H   0  0  0  0  0  0  0  0  0  0  0  0
    1.7123   -6.0985    1.5703 H   0  0  0  0  0  0  0  0  0  0  0  0
    4.2882   -5.6668   -0.0180 H   0  0  0  0  0  0  0  0  0  0  0  0
    2.7077   -5.0338   -0.3609 H   0  0  0  0  0  0  0  0  0  0  0  0
    3.8880   -2.9253   -0.6802 H   0  0  0  0  0  0  0  0  0  0  0  0
    5.4220   -3.5325   -0.0690 H   0  0  0  0  0  0  0  0  0  0  0  0
    4.6530   -2.1344    0.6942 H   0  0  0  0  0  0  0  0  0  0  0  0
    4.0983   -7.8016    4.3020 H   0  0  0  0  0  0  0  0  0  0  0  0
  1  2  1  0
  1 33  1  0
  1 34  1  0
  1 35  1  0
  2  3  2  0
  2  4  1  0
  4  5  2  3
  5 31  1  0
  5  6  1  0
  6  7  2  0
  6  8  1  0
  8  9  1  0
  8 36  1  0
  8 37  1  0
  9 16  1  0
  9 10  2  0
 10 11  1  0
 10 38  1  0
 11 12  1  0
 12 13  1  0
 12 39  1  0
 12 40  1  0
 13 14  2  0
 13 15  1  0
 16 15  1  1
 15 41  1  0
 15 42  1  0
 16 26  1  0
 16 17  1  0
 17 29  1  0
 17 18  1  0
 17 43  1  1
 18 19  1  0
 18 44  1  0
 18 45  1  0
 19 25  2  0
 19 20  1  0
 20 21  2  0
 20 46  1  0
 21 22  1  0
 21 47  1  0
 22 23  1  0
 22 24  2  0
 23 48  1  0
 24 32  1  0
 24 25  1  0
 25 26  1  0
 26 27  1  6
 26 31  1  0
 27 28  1  0
 27 49  1  0
 27 50  1  0
 28 29  1  0
 28 51  1  0
 28 52  1  0
 29 30  1  0
 30 53  1  0
 30 54  1  0
 30 55  1  0
 31 32  1  0
 31 56  1  1
M  END
>  <i_m_ct_stereo_status>  (119) 
1

>  <s_m_source_file>  (119) 
/var/tmp/pbs.5076255.sched01/tmpqllwm4fg/43asec3i7m.sdf

>  <i_m_source_file_index>  (119) 
18

>  <i_lp_mmshare_version>  (119) 
48012

>  <i_f3d_flags>  (119) 
0

>  <s_epik_input>  (119) 
Tz1DKFtDSDJdMSlbQ0gyXU9bQ0hdPUMyW0NIMl1DKD1PKS9DKD1OXEMoPU8pW0NIM10pW0NASF0zT2M0YyhbT0hdKVtjSF1bY0hdYyhjNFtDQF0zNVtDQEBdMTI2KVtDSDJdW0NASF02TihbQ0gzXSlbQ0gyXVtDSDJdNQ==

>  <s_epik_cmdline>  (119) 
J2VwaWtfcHl0aG9uJywgJy1waHQnLCAnMi4wJywgJy1waCcsICc3LjAnLCAnLXRuJywgJzgnLCAnLW1hJywgJzIwMCcsICctaW1hZScsICc8aW5maWxlLm1hZT4nLCAnLW9tYWUnLCAnPG91dGZpbGUubWFlPic=

>  <r_lp_tautomer_probability>  (119) 
1

>  <r_epik_Ionization_Penalty>  (119) 
0.0564769

>  <r_epik_Ionization_Penalty_Charging>  (119) 
0

>  <r_epik_Ionization_Penalty_Neutral>  (119) 
0.0564769

>  <r_epik_State_Penalty>  (119) 
0.0389779

>  <r_epik_Charging_Adjusted_Penalty>  (119) 
0.0389779

>  <i_epik_Tot_Q>  (119) 
0

>  <i_epik_Tot_abs_Q>  (119) 
0

>  <s_epik_Chemistry_Notes>  (119) 
This compound has an imine and may undergo hydrolysis.

>  <s_lp_Force_Field>  (119) 
OPLS3e

>  <r_lp_Energy>  (119) 
125.324

>  <b_lp_Chiralities_Consistent>  (119) 
1

>  <s_lp_Variant>  (119) 
35:0-2

>  <s_i_glide_gridfile>  (119) 
pfpi4k_grid

>  <i_i_glide_lignum>  (119) 
18

>  <i_i_glide_rotatable_bonds>  (119) 
2

>  <r_i_docking_score>  (119) 
-2.18367

>  <r_i_glide_ligand_efficiency>  (119) 
-0.0682396

>  <r_i_glide_ligand_efficiency_sa>  (119) 
-0.216647

>  <r_i_glide_ligand_efficiency_ln>  (119) 
-0.488983

>  <r_i_glide_gscore>  (119) 
-2.18367

>  <r_i_glide_lipo>  (119) 
-0.326199

>  <r_i_glide_hbond>  (119) 
0

>  <r_i_glide_metal>  (119) 
-0

>  <r_i_glide_rewards>  (119) 
-0.498717

>  <r_i_glide_evdw>  (119) 
-23.7035

>  <r_i_glide_ecoul>  (119) 
-1.82489

>  <r_i_glide_erotb>  (119) 
0.104638

>  <r_i_glide_esite>  (119) 
-0.00448031

>  <r_i_glide_emodel>  (119) 
-29.1375

>  <r_i_glide_energy>  (119) 
-25.5284

>  <r_i_glide_einternal>  (119) 
0.328324

>  <r_i_glide_intrahb_reward>  (119) 
-0

>  <i_i_glide_confnum>  (119) 
3

>  <i_i_glide_posenum>  (119) 
25

>  <r_i_glide_eff_state_penalty>  (119) 
0

>  <ligand_id>  (119) 
35

>  <original_smiles>  (119) 
CC(=O)N=C1C(=O)CC2=COCC(=O)CC23C2Cc4ccc(O)c5c4C3(CCN2C)C1O5

>  <smiles>  (119) 
[H]Oc1c([H])c([H])c2c3c1OC1([H])C(=NC(=O)C([H])([H])[H])C(=O)C([H])([H])C4=C([H])OC([H])([H])C(=O)C([H])([H])C45C([H])(N(C([H])([H])[H])C([H])([H])C([H])([H])C315)C2([H])[H]

$$$$
35:1:2
     RDKit          3D

 56 61  0  0  1  0  0  0  0  0999 V2000
   -2.2813   -7.9866    2.7129 C   0  0  0  0  0  0  0  0  0  0  0  0
   -0.7845   -8.0322    2.5888 C   0  0  0  0  0  0  0  0  0  0  0  0
   -0.3121   -9.0534    2.1008 O   0  0  0  0  0  0  0  0  0  0  0  0
   -0.1851   -6.8878    3.0742 N   0  0  0  0  0  0  0  0  0  0  0  0
    1.0094   -6.8824    3.5431 C   0  0  0  0  0  0  0  0  0  0  0  0
    1.7107   -5.5962    3.9972 C   0  0  0  0  0  0  0  0  0  0  0  0
    1.2656   -4.4838    3.7087 O   0  0  0  0  0  0  0  0  0  0  0  0
    2.9723   -5.7162    4.8783 C   0  0  0  0  0  0  0  0  0  0  0  0
    4.2605   -6.0857    4.1311 C   0  0  0  0  0  0  0  0  0  0  0  0
    5.3412   -5.3588    4.4410 C   0  0  0  0  0  0  0  0  0  0  0  0
    6.4612   -5.3237    3.6581 O   0  0  0  0  0  0  0  0  0  0  0  0
    6.3124   -4.6960    2.3686 C   0  0  0  0  0  0  0  0  0  0  0  0
    4.9450   -4.7821    1.6526 C   0  0  0  0  0  0  0  0  0  0  0  0
    4.5712   -3.8117    0.9985 O   0  0  0  0  0  0  0  0  0  0  0  0
    4.0427   -6.0353    1.7033 C   0  0  0  0  0  0  0  0  0  0  0  0
    4.2668   -7.0265    2.8980 C   0  0  1  0  0  0  0  0  0  0  0  0
    5.6053   -7.7978    2.5649 C   0  0  1  0  0  0  0  0  0  0  0  0
    6.0383   -8.7655    3.6850 C   0  0  0  0  0  0  0  0  0  0  0  0
    5.0544   -9.8462    4.0216 C   0  0  0  0  0  0  0  0  0  0  0  0
    5.2418  -11.1011    4.6449 C   0  0  0  0  0  0  0  0  0  0  0  0
    4.1111  -11.9073    4.9227 C   0  0  0  0  0  0  0  0  0  0  0  0
    2.7951  -11.4341    4.6330 C   0  0  0  0  0  0  0  0  0  0  0  0
    1.7251  -12.1932    4.8671 O   0  0  0  0  0  0  0  0  0  0  0  0
    2.5798  -10.1380    4.1277 C   0  0  0  0  0  0  0  0  0  0  0  0
    3.7229   -9.4562    3.7563 C   0  0  0  0  0  0  0  0  0  0  0  0
    3.2478   -8.2220    3.0140 C   0  0  2  0  0  0  0  0  0  0  0  0
    3.0116   -8.7154    1.5593 C   0  0  0  0  0  0  0  0  0  0  0  0
    4.3230   -9.2802    0.9813 C   0  0  0  0  0  0  0  0  0  0  0  0
    5.5006   -8.4518    1.2426 N   0  0  0  0  0  0  0  0  0  0  0  0
    6.7161   -9.1687    0.8668 C   0  0  0  0  0  0  0  0  0  0  0  0
    1.9251   -8.0841    3.8307 C   0  0  2  0  0  0  0  0  0  0  0  0
    1.4152   -9.4127    4.0084 O   0  0  0  0  0  0  0  0  0  0  0  0
   -2.6855   -7.2196    2.0835 H   0  0  0  0  0  0  0  0  0  0  0  0
   -2.5674   -7.8090    3.7451 H   0  0  0  0  0  0  0  0  0  0  0  0
   -2.6621   -8.9505    2.3871 H   0  0  0  0  0  0  0  0  0  0  0  0
    3.0933   -4.7275    5.3048 H   0  0  0  0  0  0  0  0  0  0  0  0
    2.8130   -6.3574    5.7423 H   0  0  0  0  0  0  0  0  0  0  0  0
    5.3853   -4.6294    5.2412 H   0  0  0  0  0  0  0  0  0  0  0  0
    6.5571   -3.6299    2.4454 H   0  0  0  0  0  0  0  0  0  0  0  0
    7.0610   -5.1302    1.7104 H   0  0  0  0  0  0  0  0  0  0  0  0
    3.0257   -5.6610    1.6979 H   0  0  0  0  0  0  0  0  0  0  0  0
    4.1770   -6.5020    0.7288 H   0  0  0  0  0  0  0  0  0  0  0  0
    6.4535   -7.1504    2.4252 H   0  0  0  0  0  0  0  0  0  0  0  0
    6.9827   -9.2370    3.4617 H   0  0  0  0  0  0  0  0  0  0  0  0
    6.2333   -8.1961    4.5866 H   0  0  0  0  0  0  0  0  0  0  0  0
    6.2430  -11.4499    4.8687 H   0  0  0  0  0  0  0  0  0  0  0  0
    4.2429  -12.8869    5.3529 H   0  0  0  0  0  0  0  0  0  0  0  0
    1.7957  -12.5913    5.7385 H   0  0  0  0  0  0  0  0  0  0  0  0
    2.2623   -9.5136    1.5120 H   0  0  0  0  0  0  0  0  0  0  0  0
    2.5977   -7.9344    0.9269 H   0  0  0  0  0  0  0  0  0  0  0  0
    4.4948  -10.2576    1.4129 H   0  0  0  0  0  0  0  0  0  0  0  0
    4.2011   -9.4371   -0.0845 H   0  0  0  0  0  0  0  0  0  0  0  0
    6.6683   -9.4766   -0.1789 H   0  0  0  0  0  0  0  0  0  0  0  0
    6.8819  -10.0981    1.4155 H   0  0  0  0  0  0  0  0  0  0  0  0
    7.5908   -8.5327    0.9311 H   0  0  0  0  0  0  0  0  0  0  0  0
    2.1675   -7.9758    4.8874 H   0  0  0  0  0  0  0  0  0  0  0  0
  1  2  1  0
  1 33  1  0
  1 34  1  0
  1 35  1  0
  2  3  2  0
  2  4  1  0
  4  5  2  3
  5 31  1  0
  5  6  1  0
  6  7  2  0
  6  8  1  0
  8  9  1  0
  8 36  1  0
  8 37  1  0
  9 16  1  0
  9 10  2  0
 10 11  1  0
 10 38  1  0
 11 12  1  0
 12 13  1  0
 12 39  1  0
 12 40  1  0
 13 14  2  0
 13 15  1  0
 16 15  1  6
 15 41  1  0
 15 42  1  0
 16 26  1  0
 16 17  1  0
 17 29  1  0
 17 18  1  0
 17 43  1  6
 18 19  1  0
 18 44  1  0
 18 45  1  0
 19 25  2  0
 19 20  1  0
 20 21  2  0
 20 46  1  0
 21 22  1  0
 21 47  1  0
 22 23  1  0
 22 24  2  0
 23 48  1  0
 24 32  1  0
 24 25  1  0
 25 26  1  0
 26 27  1  6
 26 31  1  0
 27 28  1  0
 27 49  1  0
 27 50  1  0
 28 29  1  0
 28 51  1  0
 28 52  1  0
 29 30  1  0
 30 53  1  0
 30 54  1  0
 30 55  1  0
 31 32  1  0
 31 56  1  1
M  END
>  <i_m_ct_stereo_status>  (120) 
1

>  <s_m_source_file>  (120) 
/var/tmp/pbs.5076255.sched01/tmpqllwm4fg/43asec3i7m.sdf

>  <i_m_source_file_index>  (120) 
18

>  <i_lp_mmshare_version>  (120) 
48012

>  <i_f3d_flags>  (120) 
0

>  <s_epik_input>  (120) 
Tz1DKFtDSDJdMSlbQ0gyXU9bQ0hdPUMyW0NIMl1DKD1PKS9DKD1OXEMoPU8pW0NIM10pW0NASF0zT2M0YyhbT0hdKVtjSF1bY0hdYyhjNFtDQF0zNVtDQEBdMTI2KVtDSDJdW0NASF02TihbQ0gzXSlbQ0gyXVtDSDJdNQ==

>  <s_epik_cmdline>  (120) 
J2VwaWtfcHl0aG9uJywgJy1waHQnLCAnMi4wJywgJy1waCcsICc3LjAnLCAnLXRuJywgJzgnLCAnLW1hJywgJzIwMCcsICctaW1hZScsICc8aW5maWxlLm1hZT4nLCAnLW9tYWUnLCAnPG91dGZpbGUubWFlPic=

>  <r_lp_tautomer_probability>  (120) 
1

>  <r_epik_Ionization_Penalty>  (120) 
0.0564769

>  <r_epik_Ionization_Penalty_Charging>  (120) 
0

>  <r_epik_Ionization_Penalty_Neutral>  (120) 
0.0564769

>  <r_epik_State_Penalty>  (120) 
0.0389779

>  <r_epik_Charging_Adjusted_Penalty>  (120) 
0.0389779

>  <i_epik_Tot_Q>  (120) 
0

>  <i_epik_Tot_abs_Q>  (120) 
0

>  <s_epik_Chemistry_Notes>  (120) 
This compound has an imine and may undergo hydrolysis.

>  <s_lp_Force_Field>  (120) 
OPLS3e

>  <r_lp_Energy>  (120) 
125.324

>  <b_lp_Chiralities_Consistent>  (120) 
1

>  <s_lp_Variant>  (120) 
35:0-2

>  <s_i_glide_gridfile>  (120) 
pfpi4k_grid

>  <i_i_glide_lignum>  (120) 
18

>  <i_i_glide_rotatable_bonds>  (120) 
2

>  <r_i_docking_score>  (120) 
-1.47469

>  <r_i_glide_ligand_efficiency>  (120) 
-0.0460841

>  <r_i_glide_ligand_efficiency_sa>  (120) 
-0.146308

>  <r_i_glide_ligand_efficiency_ln>  (120) 
-0.330224

>  <r_i_glide_gscore>  (120) 
-1.47469

>  <r_i_glide_lipo>  (120) 
-0.0914145

>  <r_i_glide_hbond>  (120) 
-0.0772451

>  <r_i_glide_metal>  (120) 
-0

>  <r_i_glide_rewards>  (120) 
-0.474048

>  <r_i_glide_evdw>  (120) 
-18.567

>  <r_i_glide_ecoul>  (120) 
0.537125

>  <r_i_glide_erotb>  (120) 
0.104638

>  <r_i_glide_esite>  (120) 
-0.0888396

>  <r_i_glide_emodel>  (120) 
-17.8063

>  <r_i_glide_energy>  (120) 
-18.0299

>  <r_i_glide_einternal>  (120) 
3.64268

>  <r_i_glide_intrahb_reward>  (120) 
-0

>  <i_i_glide_confnum>  (120) 
3

>  <i_i_glide_posenum>  (120) 
36

>  <r_i_glide_eff_state_penalty>  (120) 
0

>  <ligand_id>  (120) 
35

>  <original_smiles>  (120) 
CC(=O)N=C1C(=O)CC2=COCC(=O)CC23C2Cc4ccc(O)c5c4C3(CCN2C)C1O5

>  <smiles>  (120) 
[H]Oc1c([H])c([H])c2c3c1OC1([H])C(=NC(=O)C([H])([H])[H])C(=O)C([H])([H])C4=C([H])OC([H])([H])C(=O)C([H])([H])C45C([H])(N(C([H])([H])[H])C([H])([H])C([H])([H])C315)C2([H])[H]

$$$$
35:3:0
     RDKit          3D

 57 62  0  0  1  0  0  0  0  0999 V2000
   -2.1198   -8.2496    3.7056 C   0  0  0  0  0  0  0  0  0  0  0  0
   -0.7447   -7.6704    3.3898 C   0  0  0  0  0  0  0  0  0  0  0  0
   -0.1714   -8.0347    2.3614 O   0  0  0  0  0  0  0  0  0  0  0  0
   -0.3515   -6.7241    4.3179 N   0  0  0  0  0  0  0  0  0  0  0  0
    0.8679   -6.3645    4.4926 C   0  0  0  0  0  0  0  0  0  0  0  0
    1.2343   -5.2316    5.4480 C   0  0  0  0  0  0  0  0  0  0  0  0
    0.3896   -4.4773    5.9341 O   0  0  0  0  0  0  0  0  0  0  0  0
    2.7197   -5.0171    5.8235 C   0  0  0  0  0  0  0  0  0  0  0  0
    3.5864   -4.3182    4.7560 C   0  0  0  0  0  0  0  0  0  0  0  0
    4.3706   -3.3283    5.2081 C   0  0  0  0  0  0  0  0  0  0  0  0
    4.8260   -2.3236    4.4109 O   0  0  0  0  0  0  0  0  0  0  0  0
    3.7968   -1.4085    4.0269 C   0  0  0  0  0  0  0  0  0  0  0  0
    2.9047   -1.9371    2.8873 C   0  0  0  0  0  0  0  0  0  0  0  0
    2.6477   -1.2002    1.9372 O   0  0  0  0  0  0  0  0  0  0  0  0
    2.3427   -3.3802    2.8890 C   0  0  0  0  0  0  0  0  0  0  0  0
    3.3570   -4.5467    3.2289 C   0  0  1  0  0  0  0  0  0  0  0  0
    4.5843   -4.3504    2.2335 C   0  0  1  0  0  0  0  0  0  0  0  0
    5.7519   -5.3342    2.4886 C   0  0  0  0  0  0  0  0  0  0  0  0
    5.3694   -6.7919    2.3522 C   0  0  0  0  0  0  0  0  0  0  0  0
    6.1800   -7.9007    2.0239 C   0  0  0  0  0  0  0  0  0  0  0  0
    5.6113   -9.2004    2.0343 C   0  0  0  0  0  0  0  0  0  0  0  0
    4.2740   -9.4114    2.4384 C   0  0  0  0  0  0  0  0  0  0  0  0
    3.7343  -10.6598    2.4744 O   0  0  0  0  0  0  0  0  0  0  0  0
    3.4704   -8.3117    2.8268 C   0  0  0  0  0  0  0  0  0  0  0  0
    4.0392   -7.0492    2.6790 C   0  0  0  0  0  0  0  0  0  0  0  0
    2.9163   -6.0411    2.8670 C   0  0  2  0  0  0  0  0  0  0  0  0
    2.2435   -5.9685    1.4606 C   0  0  0  0  0  0  0  0  0  0  0  0
    3.2646   -5.5267    0.3817 C   0  0  0  0  0  0  0  0  0  0  0  0
    4.1070   -4.3636    0.7959 N   0  0  2  0  0  0  0  0  0  0  0  0
    5.1619   -4.0752   -0.2116 C   0  0  0  0  0  0  0  0  0  0  0  0
    2.1436   -6.9429    3.8726 C   0  0  2  0  0  0  0  0  0  0  0  0
    2.2096   -8.2747    3.3495 O   0  0  0  0  0  0  0  0  0  0  0  0
   -2.8787   -7.4702    3.6222 H   0  0  0  0  0  0  0  0  0  0  0  0
   -2.1401   -8.6615    4.7170 H   0  0  0  0  0  0  0  0  0  0  0  0
   -2.3414   -9.0476    2.9989 H   0  0  0  0  0  0  0  0  0  0  0  0
    2.7207   -4.3942    6.7206 H   0  0  0  0  0  0  0  0  0  0  0  0
    3.1930   -5.9322    6.1730 H   0  0  0  0  0  0  0  0  0  0  0  0
    4.4835   -3.0776    6.2539 H   0  0  0  0  0  0  0  0  0  0  0  0
    3.1791   -1.1310    4.8820 H   0  0  0  0  0  0  0  0  0  0  0  0
    4.2864   -0.4930    3.6876 H   0  0  0  0  0  0  0  0  0  0  0  0
    1.4989   -3.3812    3.5758 H   0  0  0  0  0  0  0  0  0  0  0  0
    1.8998   -3.4770    1.9031 H   0  0  0  0  0  0  0  0  0  0  0  0
    5.0381   -3.3680    2.3497 H   0  0  0  0  0  0  0  0  0  0  0  0
    6.5966   -5.1307    1.8270 H   0  0  0  0  0  0  0  0  0  0  0  0
    6.1336   -5.1828    3.4991 H   0  0  0  0  0  0  0  0  0  0  0  0
    7.2213   -7.7638    1.7783 H   0  0  0  0  0  0  0  0  0  0  0  0
    6.2239  -10.0467    1.7642 H   0  0  0  0  0  0  0  0  0  0  0  0
    4.0583  -11.2646    1.7980 H   0  0  0  0  0  0  0  0  0  0  0  0
    1.8499   -6.9387    1.1547 H   0  0  0  0  0  0  0  0  0  0  0  0
    1.3640   -5.3288    1.4591 H   0  0  0  0  0  0  0  0  0  0  0  0
    3.9056   -6.3722    0.1123 H   0  0  0  0  0  0  0  0  0  0  0  0
    2.7300   -5.2594   -0.5314 H   0  0  0  0  0  0  0  0  0  0  0  0
    5.8519   -4.9160   -0.3169 H   0  0  0  0  0  0  0  0  0  0  0  0
    5.7284   -3.1836    0.0633 H   0  0  0  0  0  0  0  0  0  0  0  0
    4.7048   -3.8992   -1.1886 H   0  0  0  0  0  0  0  0  0  0  0  0
    2.7808   -7.1439    4.7321 H   0  0  0  0  0  0  0  0  0  0  0  0
    3.4764   -3.5719    0.7385 H   0  0  0  0  0  0  0  0  0  0  0  0
  1  2  1  0
  1 33  1  0
  1 34  1  0
  1 35  1  0
  2  3  2  0
  2  4  1  0
  4  5  2  3
  5 31  1  0
  5  6  1  0
  6  7  2  0
  6  8  1  0
  8  9  1  0
  8 36  1  0
  8 37  1  0
  9 16  1  0
  9 10  2  0
 10 11  1  0
 10 38  1  0
 11 12  1  0
 12 13  1  0
 12 39  1  0
 12 40  1  0
 13 14  2  0
 13 15  1  0
 16 15  1  6
 15 41  1  0
 15 42  1  0
 16 26  1  0
 16 17  1  0
 17 29  1  0
 17 18  1  0
 17 43  1  1
 18 19  1  0
 18 44  1  0
 18 45  1  0
 19 25  2  0
 19 20  1  0
 20 21  2  0
 20 46  1  0
 21 22  1  0
 21 47  1  0
 22 23  1  0
 22 24  2  0
 23 48  1  0
 24 32  1  0
 24 25  1  0
 25 26  1  0
 26 27  1  6
 26 31  1  0
 27 28  1  0
 27 49  1  0
 27 50  1  0
 28 29  1  0
 28 51  1  0
 28 52  1  0
 29 30  1  0
 29 57  1  1
 30 53  1  0
 30 54  1  0
 30 55  1  0
 31 32  1  0
 31 56  1  1
M  CHG  1  29   1
M  END
>  <i_m_ct_stereo_status>  (121) 
1

>  <s_m_source_file>  (121) 
/var/tmp/pbs.5076255.sched01/tmpqllwm4fg/43asec3i7m.sdf

>  <i_m_source_file_index>  (121) 
20

>  <i_lp_mmshare_version>  (121) 
48012

>  <i_f3d_flags>  (121) 
0

>  <s_epik_input>  (121) 
Tz1DKFtDSDJdMSlbQ0gyXU9bQ0hdPUMyW0NIMl1DKD1PKS9DKD1OXEMoPU8pW0NIM10pW0NASF0zT2M0YyhbT0hdKVtjSF1bY0hdYyhjNFtDQF0zNVtDQEBdMTI2KVtDSDJdW0NASF02TihbQ0gzXSlbQ0gyXVtDSDJdNQ==

>  <s_epik_cmdline>  (121) 
J2VwaWtfcHl0aG9uJywgJy1waHQnLCAnMi4wJywgJy1waCcsICc3LjAnLCAnLXRuJywgJzgnLCAnLW1hJywgJzIwMCcsICctaW1hZScsICc8aW5maWxlLm1hZT4nLCAnLW9tYWUnLCAnPG91dGZpbGUubWFlPic=

>  <r_lp_tautomer_probability>  (121) 
1

>  <r_epik_Ionization_Penalty>  (121) 
1.57018

>  <r_epik_Ionization_Penalty_Charging>  (121) 
1.52713

>  <r_epik_Ionization_Penalty_Neutral>  (121) 
0.0430521

>  <r_epik_State_Penalty>  (121) 
1.84142

>  <r_epik_Charging_Adjusted_Penalty>  (121) 
3.36854

>  <i_epik_Tot_Q>  (121) 
1

>  <i_epik_Tot_abs_Q>  (121) 
1

>  <s_epik_Chemistry_Notes>  (121) 
This compound has an imine and may undergo hydrolysis.

>  <s_lp_Force_Field>  (121) 
OPLS3e

>  <r_lp_Energy>  (121) 
129.666

>  <b_lp_Chiralities_Consistent>  (121) 
1

>  <s_lp_Variant>  (121) 
35:0-4

>  <s_i_glide_gridfile>  (121) 
pfpi4k_grid

>  <i_i_glide_lignum>  (121) 
20

>  <i_i_glide_rotatable_bonds>  (121) 
2

>  <r_i_docking_score>  (121) 
-2.59634

>  <r_i_glide_ligand_efficiency>  (121) 
-0.0811355

>  <r_i_glide_ligand_efficiency_sa>  (121) 
-0.257589

>  <r_i_glide_ligand_efficiency_ln>  (121) 
-0.581391

>  <r_i_glide_gscore>  (121) 
-2.59634

>  <r_i_glide_lipo>  (121) 
-0.170485

>  <r_i_glide_hbond>  (121) 
0

>  <r_i_glide_metal>  (121) 
-0

>  <r_i_glide_rewards>  (121) 
-0.426374

>  <r_i_glide_evdw>  (121) 
-24.6059

>  <r_i_glide_ecoul>  (121) 
-5.32254

>  <r_i_glide_erotb>  (121) 
0.104201

>  <r_i_glide_esite>  (121) 
-0.0750054

>  <r_i_glide_emodel>  (121) 
-33.3331

>  <r_i_glide_energy>  (121) 
-29.9284

>  <r_i_glide_einternal>  (121) 
1.86064

>  <r_i_glide_intrahb_reward>  (121) 
-0

>  <i_i_glide_confnum>  (121) 
2

>  <i_i_glide_posenum>  (121) 
7

>  <r_i_glide_eff_state_penalty>  (121) 
0

>  <ligand_id>  (121) 
35

>  <original_smiles>  (121) 
CC(=O)N=C1C(=O)CC2=COCC(=O)CC23C2Cc4ccc(O)c5c4C3(CCN2C)C1O5

>  <smiles>  (121) 
[H]Oc1c([H])c([H])c2c3c1OC1([H])C(=NC(=O)C([H])([H])[H])C(=O)C([H])([H])C4=C([H])OC([H])([H])C(=O)C([H])([H])C45C31C([H])([H])C([H])([H])[N+]([H])(C([H])([H])[H])C5([H])C2([H])[H]

$$$$
35:3:1
     RDKit          3D

 57 62  0  0  1  0  0  0  0  0999 V2000
    2.4732   -1.5183    3.9225 C   0  0  0  0  0  0  0  0  0  0  0  0
    2.5135   -3.0031    4.2979 C   0  0  0  0  0  0  0  0  0  0  0  0
    2.6615   -3.3088    5.4809 O   0  0  0  0  0  0  0  0  0  0  0  0
    2.3075   -3.8184    3.1921 N   0  0  0  0  0  0  0  0  0  0  0  0
    2.5048   -5.0879    3.1865 C   0  0  0  0  0  0  0  0  0  0  0  0
    2.1604   -5.9644    1.9777 C   0  0  0  0  0  0  0  0  0  0  0  0
    1.4867   -5.5700    1.0293 O   0  0  0  0  0  0  0  0  0  0  0  0
    2.6493   -7.4303    1.9275 C   0  0  0  0  0  0  0  0  0  0  0  0
    1.8559   -8.4195    2.8051 C   0  0  0  0  0  0  0  0  0  0  0  0
    1.5147   -9.5696    2.2004 C   0  0  0  0  0  0  0  0  0  0  0  0
    0.4528  -10.3238    2.5813 O   0  0  0  0  0  0  0  0  0  0  0  0
   -0.8136   -9.7162    2.3024 C   0  0  0  0  0  0  0  0  0  0  0  0
   -1.1943   -8.5954    3.2766 C   0  0  0  0  0  0  0  0  0  0  0  0
   -2.3474   -8.5000    3.6626 O   0  0  0  0  0  0  0  0  0  0  0  0
   -0.1930   -7.5201    3.7411 C   0  0  0  0  0  0  0  0  0  0  0  0
    1.2422   -8.0059    4.1760 C   0  0  1  0  0  0  0  0  0  0  0  0
    1.0042   -9.1395    5.2640 C   0  0  1  0  0  0  0  0  0  0  0  0
    2.3038   -9.8204    5.7401 C   0  0  0  0  0  0  0  0  0  0  0  0
    3.3088   -8.8659    6.3645 C   0  0  0  0  0  0  0  0  0  0  0  0
    4.3205   -9.1340    7.3041 C   0  0  0  0  0  0  0  0  0  0  0  0
    5.2056   -8.0935    7.6844 C   0  0  0  0  0  0  0  0  0  0  0  0
    5.1338   -6.8139    7.0742 C   0  0  0  0  0  0  0  0  0  0  0  0
    6.0059   -5.8297    7.4313 O   0  0  0  0  0  0  0  0  0  0  0  0
    4.1632   -6.5581    6.0955 C   0  0  0  0  0  0  0  0  0  0  0  0
    3.2403   -7.5646    5.8455 C   0  0  0  0  0  0  0  0  0  0  0  0
    2.1415   -6.9680    4.9912 C   0  0  2  0  0  0  0  0  0  0  0  0
    1.1826   -6.2847    6.0208 C   0  0  0  0  0  0  0  0  0  0  0  0
    0.6493   -7.3185    7.0449 C   0  0  0  0  0  0  0  0  0  0  0  0
    0.1830   -8.5990    6.4150 N   0  0  2  0  0  0  0  0  0  0  0  0
   -0.1845   -9.6091    7.4418 C   0  0  0  0  0  0  0  0  0  0  0  0
    3.0993   -5.9698    4.2821 C   0  0  2  0  0  0  0  0  0  0  0  0
    3.9700   -5.4550    5.2995 O   0  0  0  0  0  0  0  0  0  0  0  0
    1.4666   -1.2406    3.5898 H   0  0  0  0  0  0  0  0  0  0  0  0
    3.1968   -1.2777    3.1347 H   0  0  0  0  0  0  0  0  0  0  0  0
    2.7207   -0.9312    4.8052 H   0  0  0  0  0  0  0  0  0  0  0  0
    2.5458   -7.7437    0.8841 H   0  0  0  0  0  0  0  0  0  0  0  0
    3.7157   -7.5160    2.1141 H   0  0  0  0  0  0  0  0  0  0  0  0
    1.8379   -9.8411    1.2074 H   0  0  0  0  0  0  0  0  0  0  0  0
   -0.9152   -9.2813    1.3097 H   0  0  0  0  0  0  0  0  0  0  0  0
   -1.5704  -10.4941    2.3315 H   0  0  0  0  0  0  0  0  0  0  0  0
   -0.1461   -6.7986    2.9307 H   0  0  0  0  0  0  0  0  0  0  0  0
   -0.7413   -7.0210    4.5355 H   0  0  0  0  0  0  0  0  0  0  0  0
    0.3964   -9.9527    4.8812 H   0  0  0  0  0  0  0  0  0  0  0  0
    2.0960  -10.6268    6.4451 H   0  0  0  0  0  0  0  0  0  0  0  0
    2.7772  -10.2981    4.8809 H   0  0  0  0  0  0  0  0  0  0  0  0
    4.4275  -10.1315    7.7219 H   0  0  0  0  0  0  0  0  0  0  0  0
    5.9590   -8.2977    8.4223 H   0  0  0  0  0  0  0  0  0  0  0  0
    6.5679   -6.0603    8.1547 H   0  0  0  0  0  0  0  0  0  0  0  0
    1.7066   -5.5097    6.5875 H   0  0  0  0  0  0  0  0  0  0  0  0
    0.3685   -5.7332    5.5422 H   0  0  0  0  0  0  0  0  0  0  0  0
    1.4274   -7.5400    7.7778 H   0  0  0  0  0  0  0  0  0  0  0  0
   -0.1695   -6.8798    7.6148 H   0  0  0  0  0  0  0  0  0  0  0  0
    0.6710   -9.8821    8.0617 H   0  0  0  0  0  0  0  0  0  0  0  0
   -0.5857  -10.5030    6.9697 H   0  0  0  0  0  0  0  0  0  0  0  0
   -0.9496   -9.1778    8.0850 H   0  0  0  0  0  0  0  0  0  0  0  0
    3.8708   -6.5423    3.7702 H   0  0  0  0  0  0  0  0  0  0  0  0
   -0.6967   -8.3630    5.9704 H   0  0  0  0  0  0  0  0  0  0  0  0
  1  2  1  0
  1 33  1  0
  1 34  1  0
  1 35  1  0
  2  3  2  0
  2  4  1  0
  4  5  2  3
  5 31  1  0
  5  6  1  0
  6  7  2  0
  6  8  1  0
  8  9  1  0
  8 36  1  0
  8 37  1  0
  9 16  1  0
  9 10  2  0
 10 11  1  0
 10 38  1  0
 11 12  1  0
 12 13  1  0
 12 39  1  0
 12 40  1  0
 13 14  2  0
 13 15  1  0
 16 15  1  6
 15 41  1  0
 15 42  1  0
 16 26  1  0
 16 17  1  0
 17 29  1  0
 17 18  1  0
 17 43  1  6
 18 19  1  0
 18 44  1  0
 18 45  1  0
 19 25  2  0
 19 20  1  0
 20 21  2  0
 20 46  1  0
 21 22  1  0
 21 47  1  0
 22 23  1  0
 22 24  2  0
 23 48  1  0
 24 32  1  0
 24 25  1  0
 25 26  1  0
 26 27  1  1
 26 31  1  0
 27 28  1  0
 27 49  1  0
 27 50  1  0
 28 29  1  0
 28 51  1  0
 28 52  1  0
 29 30  1  0
 29 57  1  6
 30 53  1  0
 30 54  1  0
 30 55  1  0
 31 32  1  0
 31 56  1  6
M  CHG  1  29   1
M  END
>  <i_m_ct_stereo_status>  (122) 
1

>  <s_m_source_file>  (122) 
/var/tmp/pbs.5076255.sched01/tmpqllwm4fg/43asec3i7m.sdf

>  <i_m_source_file_index>  (122) 
20

>  <i_lp_mmshare_version>  (122) 
48012

>  <i_f3d_flags>  (122) 
0

>  <s_epik_input>  (122) 
Tz1DKFtDSDJdMSlbQ0gyXU9bQ0hdPUMyW0NIMl1DKD1PKS9DKD1OXEMoPU8pW0NIM10pW0NASF0zT2M0YyhbT0hdKVtjSF1bY0hdYyhjNFtDQF0zNVtDQEBdMTI2KVtDSDJdW0NASF02TihbQ0gzXSlbQ0gyXVtDSDJdNQ==

>  <s_epik_cmdline>  (122) 
J2VwaWtfcHl0aG9uJywgJy1waHQnLCAnMi4wJywgJy1waCcsICc3LjAnLCAnLXRuJywgJzgnLCAnLW1hJywgJzIwMCcsICctaW1hZScsICc8aW5maWxlLm1hZT4nLCAnLW9tYWUnLCAnPG91dGZpbGUubWFlPic=

>  <r_lp_tautomer_probability>  (122) 
1

>  <r_epik_Ionization_Penalty>  (122) 
1.57018

>  <r_epik_Ionization_Penalty_Charging>  (122) 
1.52713

>  <r_epik_Ionization_Penalty_Neutral>  (122) 
0.0430521

>  <r_epik_State_Penalty>  (122) 
1.84142

>  <r_epik_Charging_Adjusted_Penalty>  (122) 
3.36854

>  <i_epik_Tot_Q>  (122) 
1

>  <i_epik_Tot_abs_Q>  (122) 
1

>  <s_epik_Chemistry_Notes>  (122) 
This compound has an imine and may undergo hydrolysis.

>  <s_lp_Force_Field>  (122) 
OPLS3e

>  <r_lp_Energy>  (122) 
129.666

>  <b_lp_Chiralities_Consistent>  (122) 
1

>  <s_lp_Variant>  (122) 
35:0-4

>  <s_i_glide_gridfile>  (122) 
pfpi4k_grid

>  <i_i_glide_lignum>  (122) 
20

>  <i_i_glide_rotatable_bonds>  (122) 
2

>  <r_i_docking_score>  (122) 
-2.34066

>  <r_i_glide_ligand_efficiency>  (122) 
-0.0731455

>  <r_i_glide_ligand_efficiency_sa>  (122) 
-0.232222

>  <r_i_glide_ligand_efficiency_ln>  (122) 
-0.524137

>  <r_i_glide_gscore>  (122) 
-2.34066

>  <r_i_glide_lipo>  (122) 
-0.23054

>  <r_i_glide_hbond>  (122) 
-0.125771

>  <r_i_glide_metal>  (122) 
-0

>  <r_i_glide_rewards>  (122) 
-0.426556

>  <r_i_glide_evdw>  (122) 
-16.3781

>  <r_i_glide_ecoul>  (122) 
-4.76871

>  <r_i_glide_erotb>  (122) 
0.104201

>  <r_i_glide_esite>  (122) 
-0.127779

>  <r_i_glide_emodel>  (122) 
-25.0788

>  <r_i_glide_energy>  (122) 
-21.1468

>  <r_i_glide_einternal>  (122) 
0.314934

>  <r_i_glide_intrahb_reward>  (122) 
-0

>  <i_i_glide_confnum>  (122) 
1

>  <i_i_glide_posenum>  (122) 
4

>  <r_i_glide_eff_state_penalty>  (122) 
0

>  <ligand_id>  (122) 
35

>  <original_smiles>  (122) 
CC(=O)N=C1C(=O)CC2=COCC(=O)CC23C2Cc4ccc(O)c5c4C3(CCN2C)C1O5

>  <smiles>  (122) 
[H]Oc1c([H])c([H])c2c3c1OC1([H])C(=NC(=O)C([H])([H])[H])C(=O)C([H])([H])C4=C([H])OC([H])([H])C(=O)C([H])([H])C45C31C([H])([H])C([H])([H])[N+]([H])(C([H])([H])[H])C5([H])C2([H])[H]

$$$$
35:3:2
     RDKit          3D

 57 62  0  0  1  0  0  0  0  0999 V2000
    2.2734   -3.6607    2.7548 C   0  0  0  0  0  0  0  0  0  0  0  0
    2.2999   -2.2832    3.4095 C   0  0  0  0  0  0  0  0  0  0  0  0
    3.2137   -1.5214    3.0875 O   0  0  0  0  0  0  0  0  0  0  0  0
    1.2250   -2.0895    4.2640 N   0  0  0  0  0  0  0  0  0  0  0  0
    1.1057   -1.1018    5.0741 C   0  0  0  0  0  0  0  0  0  0  0  0
   -0.1547   -0.8755    5.9164 C   0  0  0  0  0  0  0  0  0  0  0  0
   -1.2048   -1.4979    5.7486 O   0  0  0  0  0  0  0  0  0  0  0  0
   -0.1199    0.1776    7.0525 C   0  0  0  0  0  0  0  0  0  0  0  0
   -0.2333    1.6472    6.6006 C   0  0  0  0  0  0  0  0  0  0  0  0
   -1.1118    2.3956    7.3011 C   0  0  0  0  0  0  0  0  0  0  0  0
   -1.6725    3.5183    6.7931 O   0  0  0  0  0  0  0  0  0  0  0  0
   -2.6367    3.2408    5.7820 C   0  0  0  0  0  0  0  0  0  0  0  0
   -2.0098    2.9288    4.4058 C   0  0  0  0  0  0  0  0  0  0  0  0
   -2.4562    3.4931    3.4101 O   0  0  0  0  0  0  0  0  0  0  0  0
   -0.8060    1.9583    4.2547 C   0  0  0  0  0  0  0  0  0  0  0  0
    0.3961    2.1511    5.2667 C   0  0  1  0  0  0  0  0  0  0  0  0
    0.8035    3.6802    5.1507 C   0  0  1  0  0  0  0  0  0  0  0  0
    1.9005    4.1077    6.1572 C   0  0  0  0  0  0  0  0  0  0  0  0
    3.2073    3.3551    6.0228 C   0  0  0  0  0  0  0  0  0  0  0  0
    4.5080    3.7342    6.3859 C   0  0  0  0  0  0  0  0  0  0  0  0
    5.5754    2.8159    6.2554 C   0  0  0  0  0  0  0  0  0  0  0  0
    5.3258    1.4665    5.8204 C   0  0  0  0  0  0  0  0  0  0  0  0
    6.3693    0.5955    5.7048 O   0  0  0  0  0  0  0  0  0  0  0  0
    4.0264    1.0700    5.5173 C   0  0  0  0  0  0  0  0  0  0  0  0
    3.0340    2.0315    5.5398 C   0  0  0  0  0  0  0  0  0  0  0  0
    1.7887    1.4448    4.9155 C   0  0  2  0  0  0  0  0  0  0  0  0
    1.9986    1.6507    3.3812 C   0  0  0  0  0  0  0  0  0  0  0  0
    2.1678    3.1512    3.0426 C   0  0  0  0  0  0  0  0  0  0  0  0
    1.1587    4.0330    3.7143 N   0  0  2  0  0  0  0  0  0  0  0  0
    1.4473    5.4761    3.4906 C   0  0  0  0  0  0  0  0  0  0  0  0
    2.1215   -0.0009    5.3960 C   0  0  2  0  0  0  0  0  0  0  0  0
    3.5280   -0.1816    5.2096 O   0  0  0  0  0  0  0  0  0  0  0  0
    1.4220   -3.7157    2.0771 H   0  0  0  0  0  0  0  0  0  0  0  0
    2.2123   -4.4725    3.4859 H   0  0  0  0  0  0  0  0  0  0  0  0
    3.1627   -3.7750    2.1530 H   0  0  0  0  0  0  0  0  0  0  0  0
   -0.9735   -0.0390    7.6935 H   0  0  0  0  0  0  0  0  0  0  0  0
    0.7208    0.0322    7.7291 H   0  0  0  0  0  0  0  0  0  0  0  0
   -1.6397    2.0508    8.1763 H   0  0  0  0  0  0  0  0  0  0  0  0
   -3.3031    2.4358    6.0979 H   0  0  0  0  0  0  0  0  0  0  0  0
   -3.2589    4.1252    5.7013 H   0  0  0  0  0  0  0  0  0  0  0  0
   -1.2121    0.9530    4.3203 H   0  0  0  0  0  0  0  0  0  0  0  0
   -0.5115    2.0753    3.2163 H   0  0  0  0  0  0  0  0  0  0  0  0
   -0.0265    4.3349    5.3819 H   0  0  0  0  0  0  0  0  0  0  0  0
    2.1095    5.1753    6.0921 H   0  0  0  0  0  0  0  0  0  0  0  0
    1.5295    3.9489    7.1698 H   0  0  0  0  0  0  0  0  0  0  0  0
    4.7007    4.7385    6.7658 H   0  0  0  0  0  0  0  0  0  0  0  0
    6.5733    3.1238    6.4818 H   0  0  0  0  0  0  0  0  0  0  0  0
    7.2083    0.9508    5.9344 H   0  0  0  0  0  0  0  0  0  0  0  0
    2.8976    1.1404    3.0353 H   0  0  0  0  0  0  0  0  0  0  0  0
    1.2099    1.1937    2.7819 H   0  0  0  0  0  0  0  0  0  0  0  0
    3.1713    3.4779    3.3148 H   0  0  0  0  0  0  0  0  0  0  0  0
    2.0990    3.3036    1.9687 H   0  0  0  0  0  0  0  0  0  0  0  0
    2.4121    5.7594    3.9091 H   0  0  0  0  0  0  0  0  0  0  0  0
    0.6730    6.1024    3.9217 H   0  0  0  0  0  0  0  0  0  0  0  0
    1.4817    5.6744    2.4270 H   0  0  0  0  0  0  0  0  0  0  0  0
    2.1796    0.0015    6.4834 H   0  0  0  0  0  0  0  0  0  0  0  0
    0.3125    3.8651    3.1676 H   0  0  0  0  0  0  0  0  0  0  0  0
  1  2  1  0
  1 33  1  0
  1 34  1  0
  1 35  1  0
  2  3  2  0
  2  4  1  0
  4  5  2  3
  5 31  1  0
  5  6  1  0
  6  7  2  0
  6  8  1  0
  8  9  1  0
  8 36  1  0
  8 37  1  0
  9 16  1  0
  9 10  2  0
 10 11  1  0
 10 38  1  0
 11 12  1  0
 12 13  1  0
 12 39  1  0
 12 40  1  0
 13 14  2  0
 13 15  1  0
 16 15  1  6
 15 41  1  0
 15 42  1  0
 16 26  1  0
 16 17  1  0
 17 29  1  0
 17 18  1  0
 17 43  1  1
 18 19  1  0
 18 44  1  0
 18 45  1  0
 19 25  2  0
 19 20  1  0
 20 21  2  0
 20 46  1  0
 21 22  1  0
 21 47  1  0
 22 23  1  0
 22 24  2  0
 23 48  1  0
 24 32  1  0
 24 25  1  0
 25 26  1  0
 26 27  1  6
 26 31  1  0
 27 28  1  0
 27 49  1  0
 27 50  1  0
 28 29  1  0
 28 51  1  0
 28 52  1  0
 29 30  1  0
 29 57  1  6
 30 53  1  0
 30 54  1  0
 30 55  1  0
 31 32  1  0
 31 56  1  1
M  CHG  1  29   1
M  END
>  <i_m_ct_stereo_status>  (123) 
1

>  <s_m_source_file>  (123) 
/var/tmp/pbs.5076255.sched01/tmpqllwm4fg/43asec3i7m.sdf

>  <i_m_source_file_index>  (123) 
20

>  <i_lp_mmshare_version>  (123) 
48012

>  <i_f3d_flags>  (123) 
0

>  <s_epik_input>  (123) 
Tz1DKFtDSDJdMSlbQ0gyXU9bQ0hdPUMyW0NIMl1DKD1PKS9DKD1OXEMoPU8pW0NIM10pW0NASF0zT2M0YyhbT0hdKVtjSF1bY0hdYyhjNFtDQF0zNVtDQEBdMTI2KVtDSDJdW0NASF02TihbQ0gzXSlbQ0gyXVtDSDJdNQ==

>  <s_epik_cmdline>  (123) 
J2VwaWtfcHl0aG9uJywgJy1waHQnLCAnMi4wJywgJy1waCcsICc3LjAnLCAnLXRuJywgJzgnLCAnLW1hJywgJzIwMCcsICctaW1hZScsICc8aW5maWxlLm1hZT4nLCAnLW9tYWUnLCAnPG91dGZpbGUubWFlPic=

>  <r_lp_tautomer_probability>  (123) 
1

>  <r_epik_Ionization_Penalty>  (123) 
1.57018

>  <r_epik_Ionization_Penalty_Charging>  (123) 
1.52713

>  <r_epik_Ionization_Penalty_Neutral>  (123) 
0.0430521

>  <r_epik_State_Penalty>  (123) 
1.84142

>  <r_epik_Charging_Adjusted_Penalty>  (123) 
3.36854

>  <i_epik_Tot_Q>  (123) 
1

>  <i_epik_Tot_abs_Q>  (123) 
1

>  <s_epik_Chemistry_Notes>  (123) 
This compound has an imine and may undergo hydrolysis.

>  <s_lp_Force_Field>  (123) 
OPLS3e

>  <r_lp_Energy>  (123) 
129.666

>  <b_lp_Chiralities_Consistent>  (123) 
1

>  <s_lp_Variant>  (123) 
35:0-4

>  <s_i_glide_gridfile>  (123) 
pfpi4k_grid

>  <i_i_glide_lignum>  (123) 
20

>  <i_i_glide_rotatable_bonds>  (123) 
2

>  <r_i_docking_score>  (123) 
-2.05186

>  <r_i_glide_ligand_efficiency>  (123) 
-0.0641206

>  <r_i_glide_ligand_efficiency_sa>  (123) 
-0.20357

>  <r_i_glide_ligand_efficiency_ln>  (123) 
-0.459467

>  <r_i_glide_gscore>  (123) 
-2.05186

>  <r_i_glide_lipo>  (123) 
-0.0671362

>  <r_i_glide_hbond>  (123) 
0

>  <r_i_glide_metal>  (123) 
-0

>  <r_i_glide_rewards>  (123) 
-0.426374

>  <r_i_glide_evdw>  (123) 
-22.0562

>  <r_i_glide_ecoul>  (123) 
-2.86979

>  <r_i_glide_erotb>  (123) 
0.104201

>  <r_i_glide_esite>  (123) 
-0.129271

>  <r_i_glide_emodel>  (123) 
-28.3477

>  <r_i_glide_energy>  (123) 
-24.926

>  <r_i_glide_einternal>  (123) 
0.161329

>  <r_i_glide_intrahb_reward>  (123) 
-0

>  <i_i_glide_confnum>  (123) 
1

>  <i_i_glide_posenum>  (123) 
3

>  <r_i_glide_eff_state_penalty>  (123) 
0

>  <ligand_id>  (123) 
35

>  <original_smiles>  (123) 
CC(=O)N=C1C(=O)CC2=COCC(=O)CC23C2Cc4ccc(O)c5c4C3(CCN2C)C1O5

>  <smiles>  (123) 
[H]Oc1c([H])c([H])c2c3c1OC1([H])C(=NC(=O)C([H])([H])[H])C(=O)C([H])([H])C4=C([H])OC([H])([H])C(=O)C([H])([H])C45C31C([H])([H])C([H])([H])[N+]([H])(C([H])([H])[H])C5([H])C2([H])[H]

$$$$
35:4:0
     RDKit          3D

 55 60  0  0  1  0  0  0  0  0999 V2000
    3.6670   -1.5017   -1.8919 C   0  0  0  0  0  0  0  0  0  0  0  0
    4.1078   -1.7746   -0.4502 C   0  0  0  0  0  0  0  0  0  0  0  0
    4.8089   -0.9257    0.0926 O   0  0  0  0  0  0  0  0  0  0  0  0
    3.6113   -2.9813    0.0498 N   0  0  0  0  0  0  0  0  0  0  0  0
    4.0113   -3.5058    1.1560 C   0  0  0  0  0  0  0  0  0  0  0  0
    5.1418   -3.1547    2.1470 C   0  0  0  0  0  0  0  0  0  0  0  0
    6.1060   -2.4496    1.8528 O   0  0  0  0  0  0  0  0  0  0  0  0
    5.1083   -3.7959    3.5559 C   0  0  0  0  0  0  0  0  0  0  0  0
    5.6892   -5.2219    3.6112 C   0  0  0  0  0  0  0  0  0  0  0  0
    6.5533   -5.4788    4.6075 C   0  0  0  0  0  0  0  0  0  0  0  0
    7.4353   -6.5272    4.6020 O   0  0  0  0  0  0  0  0  0  0  0  0
    8.4554   -6.5562    3.5759 C   0  0  0  0  0  0  0  0  0  0  0  0
    8.1606   -5.8576    2.2209 C   0  0  0  0  0  0  0  0  0  0  0  0
    9.0692   -5.2494    1.6560 O   0  0  0  0  0  0  0  0  0  0  0  0
    6.7780   -5.9077    1.5321 C   0  0  0  0  0  0  0  0  0  0  0  0
    5.5178   -6.2140    2.4259 C   0  0  1  0  0  0  0  0  0  0  0  0
    5.5844   -7.7643    2.7425 C   0  0  1  0  0  0  0  0  0  0  0  0
    4.4732   -8.2202    3.7115 C   0  0  0  0  0  0  0  0  0  0  0  0
    3.0730   -7.9706    3.2179 C   0  0  0  0  0  0  0  0  0  0  0  0
    1.8838   -8.6376    3.5648 C   0  0  0  0  0  0  0  0  0  0  0  0
    0.6580   -8.1815    3.0144 C   0  0  0  0  0  0  0  0  0  0  0  0
    0.6097   -7.0453    2.1692 C   0  0  0  0  0  0  0  0  0  0  0  0
   -0.5845   -6.6333    1.6653 O   0  0  0  0  0  0  0  0  0  0  0  0
    1.7947   -6.3302    1.8505 C   0  0  0  0  0  0  0  0  0  0  0  0
    2.9712   -6.8828    2.3473 C   0  0  0  0  0  0  0  0  0  0  0  0
    4.1047   -6.0885    1.7171 C   0  0  2  0  0  0  0  0  0  0  0  0
    4.3029   -6.7300    0.3194 C   0  0  0  0  0  0  0  0  0  0  0  0
    4.5987   -8.2451    0.4741 C   0  0  0  0  0  0  0  0  0  0  0  0
    5.6336   -8.5397    1.4746 N   0  0  0  0  0  0  0  0  0  0  0  0
    5.7448   -9.9845    1.6618 C   0  0  0  0  0  0  0  0  0  0  0  0
    3.2975   -4.7560    1.6716 C   0  0  2  0  0  0  0  0  0  0  0  0
    1.9962   -5.1402    1.1854 O   0  0  0  0  0  0  0  0  0  0  0  0
    2.6076   -1.2562   -1.9338 H   0  0  0  0  0  0  0  0  0  0  0  0
    3.8664   -2.3550   -2.5448 H   0  0  0  0  0  0  0  0  0  0  0  0
    4.1985   -0.6286   -2.2628 H   0  0  0  0  0  0  0  0  0  0  0  0
    5.7519   -3.1632    4.1632 H   0  0  0  0  0  0  0  0  0  0  0  0
    4.1350   -3.7274    4.0528 H   0  0  0  0  0  0  0  0  0  0  0  0
    6.7772   -4.7836    5.4043 H   0  0  0  0  0  0  0  0  0  0  0  0
    9.3664   -6.1340    4.0006 H   0  0  0  0  0  0  0  0  0  0  0  0
    8.6755   -7.6032    3.3677 H   0  0  0  0  0  0  0  0  0  0  0  0
    6.6638   -4.9554    1.0194 H   0  0  0  0  0  0  0  0  0  0  0  0
    6.9005   -6.6256    0.7238 H   0  0  0  0  0  0  0  0  0  0  0  0
    6.5157   -8.0397    3.2242 H   0  0  0  0  0  0  0  0  0  0  0  0
    4.5815   -9.2715    3.9632 H   0  0  0  0  0  0  0  0  0  0  0  0
    4.5933   -7.6873    4.6556 H   0  0  0  0  0  0  0  0  0  0  0  0
    1.8981   -9.4842    4.2333 H   0  0  0  0  0  0  0  0  0  0  0  0
   -0.2534   -8.7108    3.2483 H   0  0  0  0  0  0  0  0  0  0  0  0
    3.4146   -6.6166   -0.2962 H   0  0  0  0  0  0  0  0  0  0  0  0
    5.0653   -6.2249   -0.2710 H   0  0  0  0  0  0  0  0  0  0  0  0
    3.6805   -8.7963    0.6906 H   0  0  0  0  0  0  0  0  0  0  0  0
    4.9271   -8.6278   -0.4739 H   0  0  0  0  0  0  0  0  0  0  0  0
    5.9812  -10.4753    0.7181 H   0  0  0  0  0  0  0  0  0  0  0  0
    4.8152  -10.4267    2.0248 H   0  0  0  0  0  0  0  0  0  0  0  0
    6.5366  -10.2284    2.3691 H   0  0  0  0  0  0  0  0  0  0  0  0
    2.9716   -4.4848    2.6770 H   0  0  0  0  0  0  0  0  0  0  0  0
  1  2  1  0
  1 33  1  0
  1 34  1  0
  1 35  1  0
  2  3  2  0
  2  4  1  0
  4  5  2  3
  5 31  1  0
  5  6  1  0
  6  7  2  0
  6  8  1  0
  8  9  1  0
  8 36  1  0
  8 37  1  0
  9 16  1  0
  9 10  2  0
 10 11  1  0
 10 38  1  0
 11 12  1  0
 12 13  1  0
 12 39  1  0
 12 40  1  0
 13 14  2  0
 13 15  1  0
 16 15  1  6
 15 41  1  0
 15 42  1  0
 16 26  1  0
 16 17  1  0
 17 29  1  0
 17 18  1  0
 17 43  1  1
 18 19  1  0
 18 44  1  0
 18 45  1  0
 19 25  2  0
 19 20  1  0
 20 21  2  0
 20 46  1  0
 21 22  1  0
 21 47  1  0
 22 23  1  0
 22 24  2  0
 24 32  1  0
 24 25  1  0
 25 26  1  0
 26 27  1  6
 26 31  1  0
 27 28  1  0
 27 48  1  0
 27 49  1  0
 28 29  1  0
 28 50  1  0
 28 51  1  0
 29 30  1  0
 30 52  1  0
 30 53  1  0
 30 54  1  0
 31 32  1  0
 31 55  1  1
M  CHG  1  23  -1
M  END
>  <i_m_ct_stereo_status>  (124) 
1

>  <s_m_source_file>  (124) 
/var/tmp/pbs.5076255.sched01/tmpqllwm4fg/43asec3i7m.sdf

>  <i_m_source_file_index>  (124) 
21

>  <i_lp_mmshare_version>  (124) 
48012

>  <i_f3d_flags>  (124) 
0

>  <s_epik_input>  (124) 
Tz1DKFtDSDJdMSlbQ0gyXU9bQ0hdPUMyW0NIMl1DKD1PKS9DKD1OXEMoPU8pW0NIM10pW0NASF0zT2M0YyhbT0hdKVtjSF1bY0hdYyhjNFtDQF0zNVtDQEBdMTI2KVtDSDJdW0NASF02TihbQ0gzXSlbQ0gyXVtDSDJdNQ==

>  <s_epik_cmdline>  (124) 
J2VwaWtfcHl0aG9uJywgJy1waHQnLCAnMi4wJywgJy1waCcsICc3LjAnLCAnLXRuJywgJzgnLCAnLW1hJywgJzIwMCcsICctaW1hZScsICc8aW5maWxlLm1hZT4nLCAnLW9tYWUnLCAnPG91dGZpbGUubWFlPic=

>  <r_lp_tautomer_probability>  (124) 
1

>  <r_epik_Ionization_Penalty>  (124) 
2.49536

>  <r_epik_Ionization_Penalty_Charging>  (124) 
2.44323

>  <r_epik_Ionization_Penalty_Neutral>  (124) 
0.0521319

>  <r_epik_State_Penalty>  (124) 
2.41296

>  <r_epik_Charging_Adjusted_Penalty>  (124) 
4.85619

>  <i_epik_Tot_Q>  (124) 
-1

>  <i_epik_Tot_abs_Q>  (124) 
1

>  <s_epik_Chemistry_Notes>  (124) 
This compound has an imine and may undergo hydrolysis.

>  <s_lp_Force_Field>  (124) 
OPLS3e

>  <r_lp_Energy>  (124) 
136.316

>  <b_lp_Chiralities_Consistent>  (124) 
1

>  <s_lp_Variant>  (124) 
35:0-5

>  <s_i_glide_gridfile>  (124) 
pfpi4k_grid

>  <i_i_glide_lignum>  (124) 
21

>  <i_i_glide_rotatable_bonds>  (124) 
1

>  <r_i_docking_score>  (124) 
-2.80033

>  <r_i_glide_ligand_efficiency>  (124) 
-0.0875103

>  <r_i_glide_ligand_efficiency_sa>  (124) 
-0.277828

>  <r_i_glide_ligand_efficiency_ln>  (124) 
-0.62707

>  <r_i_glide_gscore>  (124) 
-2.80033

>  <r_i_glide_lipo>  (124) 
-0.317941

>  <r_i_glide_hbond>  (124) 
-0.327176

>  <r_i_glide_metal>  (124) 
-0

>  <r_i_glide_rewards>  (124) 
-0.519525

>  <r_i_glide_evdw>  (124) 
-25.6653

>  <r_i_glide_ecoul>  (124) 
-2.76289

>  <r_i_glide_erotb>  (124) 
0.105078

>  <r_i_glide_esite>  (124) 
-0.0430643

>  <r_i_glide_emodel>  (124) 
-35.5652

>  <r_i_glide_energy>  (124) 
-28.4282

>  <r_i_glide_einternal>  (124) 
0.464716

>  <r_i_glide_intrahb_reward>  (124) 
-0

>  <i_i_glide_confnum>  (124) 
2

>  <i_i_glide_posenum>  (124) 
35

>  <r_i_glide_eff_state_penalty>  (124) 
0

>  <ligand_id>  (124) 
35

>  <original_smiles>  (124) 
CC(=O)N=C1C(=O)CC2=COCC(=O)CC23C2Cc4ccc(O)c5c4C3(CCN2C)C1O5

>  <smiles>  (124) 
[H]C1=C2C([H])([H])C(=O)C(=NC(=O)C([H])([H])[H])C3([H])Oc4c([O-])c([H])c([H])c5c4C34C([H])([H])C([H])([H])N(C([H])([H])[H])C([H])(C5([H])[H])C24C([H])([H])C(=O)C([H])([H])O1

$$$$
35:4:1
     RDKit          3D

 55 60  0  0  1  0  0  0  0  0999 V2000
    4.2935   -1.7749   -2.5095 C   0  0  0  0  0  0  0  0  0  0  0  0
    4.9321   -2.2474   -1.1932 C   0  0  0  0  0  0  0  0  0  0  0  0
    5.9835   -1.7275   -0.8640 O   0  0  0  0  0  0  0  0  0  0  0  0
    4.1972   -3.2309   -0.5381 N   0  0  0  0  0  0  0  0  0  0  0  0
    4.4158   -3.6114    0.6739 C   0  0  0  0  0  0  0  0  0  0  0  0
    5.4145   -3.1619    1.7556 C   0  0  0  0  0  0  0  0  0  0  0  0
    6.4452   -2.5435    1.5164 O   0  0  0  0  0  0  0  0  0  0  0  0
    5.1237   -3.5349    3.2256 C   0  0  0  0  0  0  0  0  0  0  0  0
    5.5527   -4.9621    3.6200 C   0  0  0  0  0  0  0  0  0  0  0  0
    6.2302   -5.0818    4.7772 C   0  0  0  0  0  0  0  0  0  0  0  0
    7.0146   -6.1587    5.0893 O   0  0  0  0  0  0  0  0  0  0  0  0
    8.1650   -6.4407    4.2582 C   0  0  0  0  0  0  0  0  0  0  0  0
    8.1355   -5.9956    2.7720 C   0  0  0  0  0  0  0  0  0  0  0  0
    9.1581   -5.5568    2.2530 O   0  0  0  0  0  0  0  0  0  0  0  0
    6.8733   -6.0875    1.8898 C   0  0  0  0  0  0  0  0  0  0  0  0
    5.4738   -6.1444    2.6126 C   0  0  1  0  0  0  0  0  0  0  0  0
    5.3532   -7.6122    3.1968 C   0  0  1  0  0  0  0  0  0  0  0  0
    4.0779   -7.7993    4.0467 C   0  0  0  0  0  0  0  0  0  0  0  0
    2.7929   -7.5572    3.2960 C   0  0  0  0  0  0  0  0  0  0  0  0
    1.5065   -8.0701    3.5596 C   0  0  0  0  0  0  0  0  0  0  0  0
    0.4209   -7.6476    2.7586 C   0  0  0  0  0  0  0  0  0  0  0  0
    0.6099   -6.6732    1.7460 C   0  0  0  0  0  0  0  0  0  0  0  0
   -0.4572   -6.2592    1.0178 O   0  0  0  0  0  0  0  0  0  0  0  0
    1.8757   -6.1239    1.4811 C   0  0  0  0  0  0  0  0  0  0  0  0
    2.9125   -6.6500    2.2394 C   0  0  0  0  0  0  0  0  0  0  0  0
    4.1980   -6.0628    1.6709 C   0  0  2  0  0  0  0  0  0  0  0  0
    4.5462   -6.9681    0.4604 C   0  0  0  0  0  0  0  0  0  0  0  0
    4.6823   -8.4476    0.9034 C   0  0  0  0  0  0  0  0  0  0  0  0
    5.5126   -8.6132    2.1055 N   0  0  0  0  0  0  0  0  0  0  0  0
    5.4661  -10.0000    2.5618 C   0  0  0  0  0  0  0  0  0  0  0  0
    3.5302   -4.7121    1.2756 C   0  0  2  0  0  0  0  0  0  0  0  0
    2.2757   -5.0911    0.6718 O   0  0  0  0  0  0  0  0  0  0  0  0
    3.3394   -1.2698   -2.3110 H   0  0  0  0  0  0  0  0  0  0  0  0
    4.1648   -2.6169   -3.1992 H   0  0  0  0  0  0  0  0  0  0  0  0
    4.9779   -1.0535   -2.9576 H   0  0  0  0  0  0  0  0  0  0  0  0
    5.7301   -2.8390    3.8061 H   0  0  0  0  0  0  0  0  0  0  0  0
    4.0989   -3.3079    3.5413 H   0  0  0  0  0  0  0  0  0  0  0  0
    6.3961   -4.2575    5.4563 H   0  0  0  0  0  0  0  0  0  0  0  0
    9.0444   -6.0128    4.7410 H   0  0  0  0  0  0  0  0  0  0  0  0
    8.3172   -7.5204    4.2757 H   0  0  0  0  0  0  0  0  0  0  0  0
    6.9254   -5.2376    1.2102 H   0  0  0  0  0  0  0  0  0  0  0  0
    7.0504   -6.9516    1.2498 H   0  0  0  0  0  0  0  0  0  0  0  0
    6.1772   -7.8463    3.8609 H   0  0  0  0  0  0  0  0  0  0  0  0
    4.0458   -8.7905    4.4978 H   0  0  0  0  0  0  0  0  0  0  0  0
    4.1095   -7.1101    4.8961 H   0  0  0  0  0  0  0  0  0  0  0  0
    1.3535   -8.7867    4.3670 H   0  0  0  0  0  0  0  0  0  0  0  0
   -0.5501   -8.0690    2.9304 H   0  0  0  0  0  0  0  0  0  0  0  0
    3.7946   -6.9038   -0.3130 H   0  0  0  0  0  0  0  0  0  0  0  0
    5.4238   -6.6180   -0.0714 H   0  0  0  0  0  0  0  0  0  0  0  0
    3.6945   -8.8870    1.0571 H   0  0  0  0  0  0  0  0  0  0  0  0
    5.1282   -9.0266    0.0980 H   0  0  0  0  0  0  0  0  0  0  0  0
    5.7947  -10.6708    1.7707 H   0  0  0  0  0  0  0  0  0  0  0  0
    4.4603  -10.3114    2.8438 H   0  0  0  0  0  0  0  0  0  0  0  0
    6.1212  -10.1535    3.4177 H   0  0  0  0  0  0  0  0  0  0  0  0
    3.0878   -4.2433    2.1554 H   0  0  0  0  0  0  0  0  0  0  0  0
  1  2  1  0
  1 33  1  0
  1 34  1  0
  1 35  1  0
  2  3  2  0
  2  4  1  0
  4  5  2  3
  5 31  1  0
  5  6  1  0
  6  7  2  0
  6  8  1  0
  8  9  1  0
  8 36  1  0
  8 37  1  0
  9 16  1  0
  9 10  2  0
 10 11  1  0
 10 38  1  0
 11 12  1  0
 12 13  1  0
 12 39  1  0
 12 40  1  0
 13 14  2  0
 13 15  1  0
 16 15  1  6
 15 41  1  0
 15 42  1  0
 16 26  1  0
 16 17  1  0
 17 29  1  0
 17 18  1  0
 17 43  1  1
 18 19  1  0
 18 44  1  0
 18 45  1  0
 19 25  2  0
 19 20  1  0
 20 21  2  0
 20 46  1  0
 21 22  1  0
 21 47  1  0
 22 23  1  0
 22 24  2  0
 24 32  1  0
 24 25  1  0
 25 26  1  0
 26 27  1  6
 26 31  1  0
 27 28  1  0
 27 48  1  0
 27 49  1  0
 28 29  1  0
 28 50  1  0
 28 51  1  0
 29 30  1  0
 30 52  1  0
 30 53  1  0
 30 54  1  0
 31 32  1  0
 31 55  1  1
M  CHG  1  23  -1
M  END
>  <i_m_ct_stereo_status>  (125) 
1

>  <s_m_source_file>  (125) 
/var/tmp/pbs.5076255.sched01/tmpqllwm4fg/43asec3i7m.sdf

>  <i_m_source_file_index>  (125) 
21

>  <i_lp_mmshare_version>  (125) 
48012

>  <i_f3d_flags>  (125) 
0

>  <s_epik_input>  (125) 
Tz1DKFtDSDJdMSlbQ0gyXU9bQ0hdPUMyW0NIMl1DKD1PKS9DKD1OXEMoPU8pW0NIM10pW0NASF0zT2M0YyhbT0hdKVtjSF1bY0hdYyhjNFtDQF0zNVtDQEBdMTI2KVtDSDJdW0NASF02TihbQ0gzXSlbQ0gyXVtDSDJdNQ==

>  <s_epik_cmdline>  (125) 
J2VwaWtfcHl0aG9uJywgJy1waHQnLCAnMi4wJywgJy1waCcsICc3LjAnLCAnLXRuJywgJzgnLCAnLW1hJywgJzIwMCcsICctaW1hZScsICc8aW5maWxlLm1hZT4nLCAnLW9tYWUnLCAnPG91dGZpbGUubWFlPic=

>  <r_lp_tautomer_probability>  (125) 
1

>  <r_epik_Ionization_Penalty>  (125) 
2.49536

>  <r_epik_Ionization_Penalty_Charging>  (125) 
2.44323

>  <r_epik_Ionization_Penalty_Neutral>  (125) 
0.0521319

>  <r_epik_State_Penalty>  (125) 
2.41296

>  <r_epik_Charging_Adjusted_Penalty>  (125) 
4.85619

>  <i_epik_Tot_Q>  (125) 
-1

>  <i_epik_Tot_abs_Q>  (125) 
1

>  <s_epik_Chemistry_Notes>  (125) 
This compound has an imine and may undergo hydrolysis.

>  <s_lp_Force_Field>  (125) 
OPLS3e

>  <r_lp_Energy>  (125) 
136.316

>  <b_lp_Chiralities_Consistent>  (125) 
1

>  <s_lp_Variant>  (125) 
35:0-5

>  <s_i_glide_gridfile>  (125) 
pfpi4k_grid

>  <i_i_glide_lignum>  (125) 
21

>  <i_i_glide_rotatable_bonds>  (125) 
1

>  <r_i_docking_score>  (125) 
-2.77577

>  <r_i_glide_ligand_efficiency>  (125) 
-0.0867428

>  <r_i_glide_ligand_efficiency_sa>  (125) 
-0.275391

>  <r_i_glide_ligand_efficiency_ln>  (125) 
-0.621571

>  <r_i_glide_gscore>  (125) 
-2.77577

>  <r_i_glide_lipo>  (125) 
-0.313201

>  <r_i_glide_hbond>  (125) 
-0.409746

>  <r_i_glide_metal>  (125) 
-0

>  <r_i_glide_rewards>  (125) 
-0.540028

>  <r_i_glide_evdw>  (125) 
-23.6678

>  <r_i_glide_ecoul>  (125) 
-2.71271

>  <r_i_glide_erotb>  (125) 
0.105078

>  <r_i_glide_esite>  (125) 
-0.0275771

>  <r_i_glide_emodel>  (125) 
-33.2972

>  <r_i_glide_energy>  (125) 
-26.3805

>  <r_i_glide_einternal>  (125) 
0.242284

>  <r_i_glide_intrahb_reward>  (125) 
-0

>  <i_i_glide_confnum>  (125) 
2

>  <i_i_glide_posenum>  (125) 
19

>  <r_i_glide_eff_state_penalty>  (125) 
0

>  <ligand_id>  (125) 
35

>  <original_smiles>  (125) 
CC(=O)N=C1C(=O)CC2=COCC(=O)CC23C2Cc4ccc(O)c5c4C3(CCN2C)C1O5

>  <smiles>  (125) 
[H]C1=C2C([H])([H])C(=O)C(=NC(=O)C([H])([H])[H])C3([H])Oc4c([O-])c([H])c([H])c5c4C34C([H])([H])C([H])([H])N(C([H])([H])[H])C([H])(C5([H])[H])C24C([H])([H])C(=O)C([H])([H])O1

$$$$
36:0:0
     RDKit          3D

 33 35  0  0  1  0  0  0  0  0999 V2000
    4.2225   -3.4864    1.3523 C   0  0  0  0  0  0  0  0  0  0  0  0
    3.3781   -2.3181    0.8146 C   0  0  0  0  0  0  0  0  0  0  0  0
    4.1183   -1.5028   -0.2673 C   0  0  1  0  0  0  0  0  0  0  0  0
    5.4600   -1.0346    0.3121 C   0  0  0  0  0  0  0  0  0  0  0  0
    6.2983   -2.2272    0.5750 N   0  0  1  0  0  0  0  0  0  0  0  0
    5.6977   -3.1007    1.6231 C   0  0  0  0  0  0  0  0  0  0  0  0
    6.6798   -2.9152   -0.6856 C   0  0  0  0  0  0  0  0  0  0  0  0
    5.4714   -3.2949   -1.5654 C   0  0  0  0  0  0  0  0  0  0  0  0
    4.3655   -2.2102   -1.6308 C   0  0  1  0  0  0  0  0  0  0  0  0
    3.0947   -2.7577   -2.2994 C   0  0  0  0  0  0  0  0  0  0  0  0
    3.2970   -2.4293   -3.7587 C   0  0  0  0  0  0  0  0  0  0  0  0
    3.9877   -1.0807   -3.6624 C   0  0  0  0  0  0  0  0  0  0  0  0
    4.8439   -1.2077   -2.5315 O   0  0  0  0  0  0  0  0  0  0  0  0
    4.1616   -4.3201    0.6597 H   0  0  0  0  0  0  0  0  0  0  0  0
    3.7738   -3.8598    2.2761 H   0  0  0  0  0  0  0  0  0  0  0  0
    2.4112   -2.6660    0.4478 H   0  0  0  0  0  0  0  0  0  0  0  0
    3.1481   -1.6428    1.6418 H   0  0  0  0  0  0  0  0  0  0  0  0
    3.4940   -0.6299   -0.4616 H   0  0  0  0  0  0  0  0  0  0  0  0
    5.9673   -0.3687   -0.3868 H   0  0  0  0  0  0  0  0  0  0  0  0
    5.3132   -0.4693    1.2326 H   0  0  0  0  0  0  0  0  0  0  0  0
    5.7453   -2.5498    2.5646 H   0  0  0  0  0  0  0  0  0  0  0  0
    6.3027   -3.9996    1.7560 H   0  0  0  0  0  0  0  0  0  0  0  0
    7.3288   -2.2517   -1.2615 H   0  0  0  0  0  0  0  0  0  0  0  0
    7.2733   -3.8054   -0.4691 H   0  0  0  0  0  0  0  0  0  0  0  0
    5.8301   -3.5061   -2.5768 H   0  0  0  0  0  0  0  0  0  0  0  0
    5.0555   -4.2398   -1.2195 H   0  0  0  0  0  0  0  0  0  0  0  0
    2.9328   -3.8234   -2.1183 H   0  0  0  0  0  0  0  0  0  0  0  0
    2.2142   -2.2363   -1.9330 H   0  0  0  0  0  0  0  0  0  0  0  0
    3.9599   -3.1620   -4.2165 H   0  0  0  0  0  0  0  0  0  0  0  0
    2.3582   -2.4045   -4.3151 H   0  0  0  0  0  0  0  0  0  0  0  0
    4.5674   -0.8411   -4.5537 H   0  0  0  0  0  0  0  0  0  0  0  0
    3.2586   -0.2853   -3.4973 H   0  0  0  0  0  0  0  0  0  0  0  0
    7.1621   -1.8914    0.9692 H   0  0  0  0  0  0  0  0  0  0  0  0
  1  6  1  0
  1  2  1  0
  1 14  1  0
  1 15  1  0
  2  3  1  0
  2 16  1  0
  2 17  1  0
  3  9  1  0
  3  4  1  0
  3 18  1  6
  4  5  1  0
  4 19  1  0
  4 20  1  0
  5  6  1  0
  5  7  1  0
  5 33  1  1
  6 21  1  0
  6 22  1  0
  7  8  1  0
  7 23  1  0
  7 24  1  0
  8  9  1  0
  8 25  1  0
  8 26  1  0
  9 13  1  6
  9 10  1  0
 10 11  1  0
 10 27  1  0
 10 28  1  0
 11 12  1  0
 11 29  1  0
 11 30  1  0
 12 13  1  0
 12 31  1  0
 12 32  1  0
M  CHG  1   5   1
M  END
>  <i_m_ct_stereo_status>  (126) 
1

>  <s_m_source_file>  (126) 
/var/tmp/pbs.5076255.sched01/tmpqllwm4fg/43asec3i7m.sdf

>  <i_m_source_file_index>  (126) 
23

>  <i_lp_mmshare_version>  (126) 
48012

>  <i_f3d_flags>  (126) 
0

>  <s_epik_input>  (126) 
W0NIMl0xW0NIMl1OKFtDSDJdMilbQ0gyXVtDSDJdW0NIMl1bQ0BASF0yW0NAXTEzW0NIMl1bQ0gyXVtDSDJdTzM=

>  <s_epik_cmdline>  (126) 
J2VwaWtfcHl0aG9uJywgJy1waHQnLCAnMi4wJywgJy1waCcsICc3LjAnLCAnLXRuJywgJzgnLCAnLW1hJywgJzIwMCcsICctaW1hZScsICc8aW5maWxlLm1hZT4nLCAnLW9tYWUnLCAnPG91dGZpbGUubWFlPic=

>  <r_epik_Ionization_Penalty>  (126) 
0.00119081

>  <r_epik_Ionization_Penalty_Charging>  (126) 
0.00119081

>  <r_epik_Ionization_Penalty_Neutral>  (126) 
2.48816e-12

>  <r_epik_State_Penalty>  (126) 
0.000785442

>  <r_epik_Charging_Adjusted_Penalty>  (126) 
0.00197625

>  <i_epik_Tot_Q>  (126) 
1

>  <i_epik_Tot_abs_Q>  (126) 
1

>  <s_lp_Force_Field>  (126) 
OPLS3e

>  <r_lp_Energy>  (126) 
28.1095

>  <b_lp_Chiralities_Consistent>  (126) 
1

>  <s_lp_Variant>  (126) 
36:0-1

>  <s_i_glide_gridfile>  (126) 
pfpi4k_grid

>  <i_i_glide_lignum>  (126) 
23

>  <i_i_glide_rotatable_bonds>  (126) 
0

>  <r_i_docking_score>  (126) 
-4.20924

>  <r_i_glide_ligand_efficiency>  (126) 
-0.323787

>  <r_i_glide_ligand_efficiency_sa>  (126) 
-0.761332

>  <r_i_glide_ligand_efficiency_ln>  (126) 
-1.18073

>  <r_i_glide_gscore>  (126) 
-4.20924

>  <r_i_glide_lipo>  (126) 
-0.691405

>  <r_i_glide_hbond>  (126) 
0

>  <r_i_glide_metal>  (126) 
-0

>  <r_i_glide_rewards>  (126) 
-2.16626

>  <r_i_glide_evdw>  (126) 
-21.2111

>  <r_i_glide_ecoul>  (126) 
-1.94012

>  <r_i_glide_erotb>  (126) 
0

>  <r_i_glide_esite>  (126) 
0

>  <r_i_glide_emodel>  (126) 
-28.8692

>  <r_i_glide_energy>  (126) 
-23.1513

>  <r_i_glide_einternal>  (126) 
0

>  <r_i_glide_intrahb_reward>  (126) 
-0

>  <i_i_glide_confnum>  (126) 
2

>  <i_i_glide_posenum>  (126) 
2

>  <r_i_glide_eff_state_penalty>  (126) 
0

>  <ligand_id>  (126) 
36

>  <original_smiles>  (126) 
C1CC2CN(C1)CCC21CCCO1

>  <smiles>  (126) 
[H]C1([H])OC2(C([H])([H])C1([H])[H])C([H])([H])C([H])([H])[N+]1([H])C([H])([H])C([H])([H])C([H])([H])C2([H])C1([H])[H]

$$$$
36:0:1
     RDKit          3D

 33 35  0  0  1  0  0  0  0  0999 V2000
    5.0093   -1.9711   -2.2074 C   0  0  0  0  0  0  0  0  0  0  0  0
    3.9774   -1.2409   -1.3368 C   0  0  0  0  0  0  0  0  0  0  0  0
    3.6019   -2.0295   -0.0633 C   0  0  1  0  0  0  0  0  0  0  0  0
    3.1049   -3.4136   -0.5002 C   0  0  0  0  0  0  0  0  0  0  0  0
    4.2339   -4.1368   -1.1207 N   0  0  1  0  0  0  0  0  0  0  0  0
    4.7032   -3.4751   -2.3730 C   0  0  0  0  0  0  0  0  0  0  0  0
    5.2912   -4.4470   -0.1231 C   0  0  0  0  0  0  0  0  0  0  0  0
    5.8187   -3.1979    0.6111 C   0  0  0  0  0  0  0  0  0  0  0  0
    4.7224   -2.1841    1.0143 C   0  0  1  0  0  0  0  0  0  0  0  0
    5.3414   -0.8603    1.4952 C   0  0  0  0  0  0  0  0  0  0  0  0
    4.3254   -0.3603    2.4911 C   0  0  0  0  0  0  0  0  0  0  0  0
    3.8695   -1.6609    3.1457 C   0  0  0  0  0  0  0  0  0  0  0  0
    4.0710   -2.6901    2.1796 O   0  0  0  0  0  0  0  0  0  0  0  0
    6.0034   -1.8225   -1.7956 H   0  0  0  0  0  0  0  0  0  0  0  0
    5.0253   -1.4973   -3.1901 H   0  0  0  0  0  0  0  0  0  0  0  0
    4.3278   -0.2397   -1.0910 H   0  0  0  0  0  0  0  0  0  0  0  0
    3.0666   -1.0894   -1.9230 H   0  0  0  0  0  0  0  0  0  0  0  0
    2.7573   -1.5077    0.3900 H   0  0  0  0  0  0  0  0  0  0  0  0
    2.7258   -3.9776    0.3539 H   0  0  0  0  0  0  0  0  0  0  0  0
    2.2835   -3.3234   -1.2142 H   0  0  0  0  0  0  0  0  0  0  0  0
    3.9095   -3.5871   -3.1133 H   0  0  0  0  0  0  0  0  0  0  0  0
    5.5751   -3.9945   -2.7712 H   0  0  0  0  0  0  0  0  0  0  0  0
    4.8751   -5.1411    0.6116 H   0  0  0  0  0  0  0  0  0  0  0  0
    6.1196   -4.9665   -0.5991 H   0  0  0  0  0  0  0  0  0  0  0  0
    6.3507   -3.5215    1.5078 H   0  0  0  0  0  0  0  0  0  0  0  0
    6.5767   -2.7072    0.0061 H   0  0  0  0  0  0  0  0  0  0  0  0
    6.2837   -1.0597    2.0115 H   0  0  0  0  0  0  0  0  0  0  0  0
    5.5605   -0.1471    0.7000 H   0  0  0  0  0  0  0  0  0  0  0  0
    4.7458    0.3521    3.2000 H   0  0  0  0  0  0  0  0  0  0  0  0
    3.5007    0.1246    1.9680 H   0  0  0  0  0  0  0  0  0  0  0  0
    4.4886   -1.8948    4.0113 H   0  0  0  0  0  0  0  0  0  0  0  0
    2.8304   -1.6090    3.4733 H   0  0  0  0  0  0  0  0  0  0  0  0
    3.8637   -5.0276   -1.4361 H   0  0  0  0  0  0  0  0  0  0  0  0
  1  6  1  0
  1  2  1  0
  1 14  1  0
  1 15  1  0
  2  3  1  0
  2 16  1  0
  2 17  1  0
  3  9  1  0
  3  4  1  0
  3 18  1  1
  4  5  1  0
  4 19  1  0
  4 20  1  0
  5  6  1  0
  5  7  1  0
  5 33  1  6
  6 21  1  0
  6 22  1  0
  7  8  1  0
  7 23  1  0
  7 24  1  0
  8  9  1  0
  8 25  1  0
  8 26  1  0
  9 13  1  1
  9 10  1  0
 10 11  1  0
 10 27  1  0
 10 28  1  0
 11 12  1  0
 11 29  1  0
 11 30  1  0
 12 13  1  0
 12 31  1  0
 12 32  1  0
M  CHG  1   5   1
M  END
>  <i_m_ct_stereo_status>  (127) 
1

>  <s_m_source_file>  (127) 
/var/tmp/pbs.5076255.sched01/tmpqllwm4fg/43asec3i7m.sdf

>  <i_m_source_file_index>  (127) 
23

>  <i_lp_mmshare_version>  (127) 
48012

>  <i_f3d_flags>  (127) 
0

>  <s_epik_input>  (127) 
W0NIMl0xW0NIMl1OKFtDSDJdMilbQ0gyXVtDSDJdW0NIMl1bQ0BASF0yW0NAXTEzW0NIMl1bQ0gyXVtDSDJdTzM=

>  <s_epik_cmdline>  (127) 
J2VwaWtfcHl0aG9uJywgJy1waHQnLCAnMi4wJywgJy1waCcsICc3LjAnLCAnLXRuJywgJzgnLCAnLW1hJywgJzIwMCcsICctaW1hZScsICc8aW5maWxlLm1hZT4nLCAnLW9tYWUnLCAnPG91dGZpbGUubWFlPic=

>  <r_epik_Ionization_Penalty>  (127) 
0.00119081

>  <r_epik_Ionization_Penalty_Charging>  (127) 
0.00119081

>  <r_epik_Ionization_Penalty_Neutral>  (127) 
2.48816e-12

>  <r_epik_State_Penalty>  (127) 
0.000785442

>  <r_epik_Charging_Adjusted_Penalty>  (127) 
0.00197625

>  <i_epik_Tot_Q>  (127) 
1

>  <i_epik_Tot_abs_Q>  (127) 
1

>  <s_lp_Force_Field>  (127) 
OPLS3e

>  <r_lp_Energy>  (127) 
28.1095

>  <b_lp_Chiralities_Consistent>  (127) 
1

>  <s_lp_Variant>  (127) 
36:0-1

>  <s_i_glide_gridfile>  (127) 
pfpi4k_grid

>  <i_i_glide_lignum>  (127) 
23

>  <i_i_glide_rotatable_bonds>  (127) 
0

>  <r_i_docking_score>  (127) 
-4.12197

>  <r_i_glide_ligand_efficiency>  (127) 
-0.317074

>  <r_i_glide_ligand_efficiency_sa>  (127) 
-0.745548

>  <r_i_glide_ligand_efficiency_ln>  (127) 
-1.15625

>  <r_i_glide_gscore>  (127) 
-4.12197

>  <r_i_glide_lipo>  (127) 
-0.421959

>  <r_i_glide_hbond>  (127) 
0

>  <r_i_glide_metal>  (127) 
-0

>  <r_i_glide_rewards>  (127) 
-2.16626

>  <r_i_glide_evdw>  (127) 
-16.104

>  <r_i_glide_ecoul>  (127) 
-4.62228

>  <r_i_glide_erotb>  (127) 
0

>  <r_i_glide_esite>  (127) 
-0.0352077

>  <r_i_glide_emodel>  (127) 
-26.3216

>  <r_i_glide_energy>  (127) 
-20.7263

>  <r_i_glide_einternal>  (127) 
0

>  <r_i_glide_intrahb_reward>  (127) 
-0

>  <i_i_glide_confnum>  (127) 
3

>  <i_i_glide_posenum>  (127) 
1

>  <r_i_glide_eff_state_penalty>  (127) 
0

>  <ligand_id>  (127) 
36

>  <original_smiles>  (127) 
C1CC2CN(C1)CCC21CCCO1

>  <smiles>  (127) 
[H]C1([H])OC2(C([H])([H])C1([H])[H])C([H])([H])C([H])([H])[N+]1([H])C([H])([H])C([H])([H])C([H])([H])C2([H])C1([H])[H]

$$$$
36:0:2
     RDKit          3D

 33 35  0  0  1  0  0  0  0  0999 V2000
    4.1321   -4.5842    0.2975 C   0  0  0  0  0  0  0  0  0  0  0  0
    3.1462   -3.4114    0.1492 C   0  0  0  0  0  0  0  0  0  0  0  0
    3.8113   -2.1445   -0.4431 C   0  0  1  0  0  0  0  0  0  0  0  0
    5.0272   -1.7837    0.4213 C   0  0  0  0  0  0  0  0  0  0  0  0
    6.0218   -2.8764    0.3111 N   0  0  1  0  0  0  0  0  0  0  0  0
    5.5066   -4.1581    0.8693 C   0  0  0  0  0  0  0  0  0  0  0  0
    6.5842   -2.9634   -1.0600 C   0  0  0  0  0  0  0  0  0  0  0  0
    5.5061   -3.1133   -2.1530 C   0  0  0  0  0  0  0  0  0  0  0  0
    4.2483   -2.2290   -1.9329 C   0  0  1  0  0  0  0  0  0  0  0  0
    3.1180   -2.6252   -2.8981 C   0  0  0  0  0  0  0  0  0  0  0  0
    3.3696   -1.7245   -4.0840 C   0  0  0  0  0  0  0  0  0  0  0  0
    3.8268   -0.4509   -3.4162 C   0  0  0  0  0  0  0  0  0  0  0  0
    4.6306   -0.9106   -2.3336 O   0  0  0  0  0  0  0  0  0  0  0  0
    4.2478   -5.0809   -0.6604 H   0  0  0  0  0  0  0  0  0  0  0  0
    3.6954   -5.3457    0.9481 H   0  0  0  0  0  0  0  0  0  0  0  0
    2.2764   -3.7082   -0.4376 H   0  0  0  0  0  0  0  0  0  0  0  0
    2.7593   -3.1550    1.1377 H   0  0  0  0  0  0  0  0  0  0  0  0
    3.0766   -1.3357   -0.3564 H   0  0  0  0  0  0  0  0  0  0  0  0
    5.4673   -0.8416    0.0887 H   0  0  0  0  0  0  0  0  0  0  0  0
    4.7360   -1.6487    1.4634 H   0  0  0  0  0  0  0  0  0  0  0  0
    5.4087   -4.0232    1.9482 H   0  0  0  0  0  0  0  0  0  0  0  0
    6.2383   -4.9544    0.7200 H   0  0  0  0  0  0  0  0  0  0  0  0
    7.1501   -2.0509   -1.2538 H   0  0  0  0  0  0  0  0  0  0  0  0
    7.3015   -3.7828   -1.1240 H   0  0  0  0  0  0  0  0  0  0  0  0
    5.9592   -2.8656   -3.1162 H   0  0  0  0  0  0  0  0  0  0  0  0
    5.2276   -4.1612   -2.2443 H   0  0  0  0  0  0  0  0  0  0  0  0
    3.1264   -3.6849   -3.1625 H   0  0  0  0  0  0  0  0  0  0  0  0
    2.1325   -2.4058   -2.4745 H   0  0  0  0  0  0  0  0  0  0  0  0
    4.1720   -2.1301   -4.6988 H   0  0  0  0  0  0  0  0  0  0  0  0
    2.4868   -1.5753   -4.7009 H   0  0  0  0  0  0  0  0  0  0  0  0
    4.4011    0.1863   -4.0865 H   0  0  0  0  0  0  0  0  0  0  0  0
    2.9698    0.1166   -3.0579 H   0  0  0  0  0  0  0  0  0  0  0  0
    6.7963   -2.6171    0.9009 H   0  0  0  0  0  0  0  0  0  0  0  0
  1  6  1  0
  1  2  1  0
  1 14  1  0
  1 15  1  0
  2  3  1  0
  2 16  1  0
  2 17  1  0
  3  9  1  0
  3  4  1  0
  3 18  1  6
  4  5  1  0
  4 19  1  0
  4 20  1  0
  5  6  1  0
  5  7  1  0
  5 33  1  1
  6 21  1  0
  6 22  1  0
  7  8  1  0
  7 23  1  0
  7 24  1  0
  8  9  1  0
  8 25  1  0
  8 26  1  0
  9 13  1  6
  9 10  1  0
 10 11  1  0
 10 27  1  0
 10 28  1  0
 11 12  1  0
 11 29  1  0
 11 30  1  0
 12 13  1  0
 12 31  1  0
 12 32  1  0
M  CHG  1   5   1
M  END
>  <i_m_ct_stereo_status>  (128) 
1

>  <s_m_source_file>  (128) 
/var/tmp/pbs.5076255.sched01/tmpqllwm4fg/43asec3i7m.sdf

>  <i_m_source_file_index>  (128) 
23

>  <i_lp_mmshare_version>  (128) 
48012

>  <i_f3d_flags>  (128) 
0

>  <s_epik_input>  (128) 
W0NIMl0xW0NIMl1OKFtDSDJdMilbQ0gyXVtDSDJdW0NIMl1bQ0BASF0yW0NAXTEzW0NIMl1bQ0gyXVtDSDJdTzM=

>  <s_epik_cmdline>  (128) 
J2VwaWtfcHl0aG9uJywgJy1waHQnLCAnMi4wJywgJy1waCcsICc3LjAnLCAnLXRuJywgJzgnLCAnLW1hJywgJzIwMCcsICctaW1hZScsICc8aW5maWxlLm1hZT4nLCAnLW9tYWUnLCAnPG91dGZpbGUubWFlPic=

>  <r_epik_Ionization_Penalty>  (128) 
0.00119081

>  <r_epik_Ionization_Penalty_Charging>  (128) 
0.00119081

>  <r_epik_Ionization_Penalty_Neutral>  (128) 
2.48816e-12

>  <r_epik_State_Penalty>  (128) 
0.000785442

>  <r_epik_Charging_Adjusted_Penalty>  (128) 
0.00197625

>  <i_epik_Tot_Q>  (128) 
1

>  <i_epik_Tot_abs_Q>  (128) 
1

>  <s_lp_Force_Field>  (128) 
OPLS3e

>  <r_lp_Energy>  (128) 
28.1095

>  <b_lp_Chiralities_Consistent>  (128) 
1

>  <s_lp_Variant>  (128) 
36:0-1

>  <s_i_glide_gridfile>  (128) 
pfpi4k_grid

>  <i_i_glide_lignum>  (128) 
23

>  <i_i_glide_rotatable_bonds>  (128) 
0

>  <r_i_docking_score>  (128) 
-3.99968

>  <r_i_glide_ligand_efficiency>  (128) 
-0.307668

>  <r_i_glide_ligand_efficiency_sa>  (128) 
-0.72343

>  <r_i_glide_ligand_efficiency_ln>  (128) 
-1.12195

>  <r_i_glide_gscore>  (128) 
-3.99968

>  <r_i_glide_lipo>  (128) 
-0.530719

>  <r_i_glide_hbond>  (128) 
0

>  <r_i_glide_metal>  (128) 
-0

>  <r_i_glide_rewards>  (128) 
-2.16626

>  <r_i_glide_evdw>  (128) 
-21.2892

>  <r_i_glide_ecoul>  (128) 
-1.58833

>  <r_i_glide_erotb>  (128) 
0

>  <r_i_glide_esite>  (128) 
0

>  <r_i_glide_emodel>  (128) 
-28.3059

>  <r_i_glide_energy>  (128) 
-22.8775

>  <r_i_glide_einternal>  (128) 
0

>  <r_i_glide_intrahb_reward>  (128) 
-0

>  <i_i_glide_confnum>  (128) 
2

>  <i_i_glide_posenum>  (128) 
9

>  <r_i_glide_eff_state_penalty>  (128) 
0

>  <ligand_id>  (128) 
36

>  <original_smiles>  (128) 
C1CC2CN(C1)CCC21CCCO1

>  <smiles>  (128) 
[H]C1([H])OC2(C([H])([H])C1([H])[H])C([H])([H])C([H])([H])[N+]1([H])C([H])([H])C([H])([H])C([H])([H])C2([H])C1([H])[H]

$$$$
37:0:0
     RDKit          3D

 54 57  0  0  1  0  0  0  0  0999 V2000
    3.4650   -1.4452   -3.0360 C   0  0  0  0  0  0  0  0  0  0  0  0
    3.8366   -1.9330   -1.6359 C   0  0  2  0  0  0  0  0  0  0  0  0
    4.7581   -0.9861   -0.8764 C   0  0  2  0  0  0  0  0  0  0  0  0
    5.8594   -1.9854   -1.0258 C   0  0  1  0  0  0  0  0  0  0  0  0
    6.1985   -1.8122    0.4793 C   0  0  0  0  0  0  0  0  0  0  0  0
    7.0654   -2.2280    1.2054 O   0  0  0  0  0  0  0  0  0  0  0  0
    4.9426   -0.9477    0.6704 C   0  0  2  0  0  0  0  0  0  0  0  0
    3.9343   -1.4376    1.7580 C   0  0  0  0  0  0  0  0  0  0  0  0
    4.4318   -0.7609    3.0618 C   0  0  0  0  0  0  0  0  0  0  0  0
    2.6035   -0.7325    1.4627 C   0  0  0  0  0  0  0  0  0  0  0  0
    3.7723   -3.0060    1.9526 C   0  0  2  0  0  0  0  0  0  0  0  0
    2.7343   -3.3755    3.0463 C   0  0  0  0  0  0  0  0  0  0  0  0
    3.3113   -4.4597    3.7546 O   0  0  0  0  0  0  0  0  0  0  0  0
    4.6611   -4.2076    3.7278 C   0  0  0  0  0  0  0  0  0  0  0  0
    5.0209   -3.2797    4.9045 C   0  0  0  0  0  0  0  0  0  0  0  0
    5.4406   -5.5204    3.7885 C   0  0  0  0  0  0  0  0  0  0  0  0
    4.9516   -3.5277    2.5497 O   0  0  0  0  0  0  0  0  0  0  0  0
    3.5207   -3.9801    0.6957 C   0  0  1  0  0  0  0  0  0  0  0  0
    2.0965   -4.0400    0.1227 C   0  0  0  0  0  0  0  0  0  0  0  0
    4.5347   -4.2470   -0.4684 C   0  0  2  0  0  0  0  0  0  0  0  0
    5.7401   -5.0441    0.0320 C   0  0  0  0  0  0  0  0  0  0  0  0
    5.5698   -6.1497    0.5776 O   0  0  0  0  0  0  0  0  0  0  0  0
    4.8578   -3.0723   -1.4680 C   0  0  1  0  0  0  0  0  0  0  0  0
    5.2992   -3.6993   -2.7888 C   0  0  0  0  0  0  0  0  0  0  0  0
    4.3276   -1.1038   -3.6289 H   0  0  0  0  0  0  0  0  0  0  0  0
    2.7799   -0.5939   -2.9798 H   0  0  0  0  0  0  0  0  0  0  0  0
    2.9627   -2.2264   -3.6104 H   0  0  0  0  0  0  0  0  0  0  0  0
    2.9235   -2.1083   -1.1084 H   0  0  0  0  0  0  0  0  0  0  0  0
    4.9830   -0.0511   -1.3847 H   0  0  0  0  0  0  0  0  0  0  0  0
    6.6081   -1.6901   -1.7423 H   0  0  0  0  0  0  0  0  0  0  0  0
    5.2733    0.0864    0.8659 H   0  0  0  0  0  0  0  0  0  0  0  0
    3.7302   -0.9155    3.8849 H   0  0  0  0  0  0  0  0  0  0  0  0
    4.5662    0.3222    2.8840 H   0  0  0  0  0  0  0  0  0  0  0  0
    5.3915   -1.1552    3.4334 H   0  0  0  0  0  0  0  0  0  0  0  0
    1.8328   -1.0093    2.1621 H   0  0  0  0  0  0  0  0  0  0  0  0
    2.2237   -0.9834    0.4928 H   0  0  0  0  0  0  0  0  0  0  0  0
    2.7173    0.3617    1.4874 H   0  0  0  0  0  0  0  0  0  0  0  0
    2.6049   -2.5716    3.7609 H   0  0  0  0  0  0  0  0  0  0  0  0
    1.7414   -3.6765    2.6717 H   0  0  0  0  0  0  0  0  0  0  0  0
    4.4633   -2.3525    4.9430 H   0  0  0  0  0  0  0  0  0  0  0  0
    6.0684   -3.0010    4.7993 H   0  0  0  0  0  0  0  0  0  0  0  0
    5.0336   -3.8529    5.8491 H   0  0  0  0  0  0  0  0  0  0  0  0
    5.0736   -6.2187    3.0534 H   0  0  0  0  0  0  0  0  0  0  0  0
    5.3445   -5.9952    4.7595 H   0  0  0  0  0  0  0  0  0  0  0  0
    6.4911   -5.3453    3.5896 H   0  0  0  0  0  0  0  0  0  0  0  0
    3.5294   -4.9579    1.1817 H   0  0  0  0  0  0  0  0  0  0  0  0
    1.6702   -3.0604    0.2079 H   0  0  0  0  0  0  0  0  0  0  0  0
    1.4469   -4.7117    0.6798 H   0  0  0  0  0  0  0  0  0  0  0  0
    2.0431   -4.3258   -0.9289 H   0  0  0  0  0  0  0  0  0  0  0  0
    4.0509   -5.0162   -1.0792 H   0  0  0  0  0  0  0  0  0  0  0  0
    6.7129   -4.6113   -0.1431 H   0  0  0  0  0  0  0  0  0  0  0  0
    6.2315   -4.2342   -2.6199 H   0  0  0  0  0  0  0  0  0  0  0  0
    5.5813   -2.9388   -3.5250 H   0  0  0  0  0  0  0  0  0  0  0  0
    4.5106   -4.3250   -3.2323 H   0  0  0  0  0  0  0  0  0  0  0  0
  1  2  1  0
  1 25  1  0
  1 26  1  0
  1 27  1  0
  2 23  1  0
  2  3  1  0
  2 28  1  1
  3  7  1  0
  3  4  1  0
  3 29  1  6
  4 23  1  0
  4  5  1  0
  4 30  1  6
  5  6  2  0
  5  7  1  0
  7  8  1  0
  7 31  1  1
  8  9  1  0
  8 10  1  0
  8 11  1  0
  9 32  1  0
  9 33  1  0
  9 34  1  0
 10 35  1  0
 10 36  1  0
 10 37  1  0
 11 17  1  1
 11 12  1  0
 11 18  1  0
 12 13  1  0
 12 38  1  0
 12 39  1  0
 13 14  1  0
 14 15  1  0
 14 16  1  0
 14 17  1  0
 15 40  1  0
 15 41  1  0
 15 42  1  0
 16 43  1  0
 16 44  1  0
 16 45  1  0
 18 19  1  0
 18 20  1  0
 18 46  1  1
 19 47  1  0
 19 48  1  0
 19 49  1  0
 20 21  1  0
 20 23  1  0
 20 50  1  6
 21 22  2  0
 21 51  1  0
 23 24  1  6
 24 52  1  0
 24 53  1  0
 24 54  1  0
M  END
>  <i_m_ct_stereo_status>  (129) 
1

>  <s_m_source_file>  (129) 
/var/tmp/pbs.5076255.sched01/tmpqllwm4fg/43asec3i7m.sdf

>  <i_m_source_file_index>  (129) 
24

>  <i_lp_mmshare_version>  (129) 
48012

>  <i_f3d_flags>  (129) 
0

>  <s_epik_input>  (129) 
W0NIM11bQ0BIXTFbQ0hdKFtDSF09TylbQ0BAXShbQ0gzXSkoW0NAQEhdMltDSDNdKVtDQEhdKEMzPU8pW0NAQEhdMltDQEhdM0MoW0NIM10pKFtDSDNdKVtDQEBdMTRbQ0gyXU9DKE80KShbQ0gzXSlbQ0gzXQ==

>  <s_epik_cmdline>  (129) 
J2VwaWtfcHl0aG9uJywgJy1waHQnLCAnMi4wJywgJy1waCcsICc3LjAnLCAnLXRuJywgJzgnLCAnLW1hJywgJzIwMCcsICctaW1hZScsICc8aW5maWxlLm1hZT4nLCAnLW9tYWUnLCAnPG91dGZpbGUubWFlPic=

>  <r_lp_tautomer_probability>  (129) 
1

>  <r_epik_Ionization_Penalty>  (129) 
4.4683e-09

>  <r_epik_Ionization_Penalty_Charging>  (129) 
0

>  <r_epik_Ionization_Penalty_Neutral>  (129) 
4.4683e-09

>  <r_epik_State_Penalty>  (129) 
-0

>  <r_epik_Charging_Adjusted_Penalty>  (129) 
0

>  <i_epik_Tot_Q>  (129) 
0

>  <i_epik_Tot_abs_Q>  (129) 
0

>  <s_lp_Force_Field>  (129) 
OPLS3e

>  <r_lp_Energy>  (129) 
51.0523

>  <b_lp_Chiralities_Consistent>  (129) 
1

>  <s_lp_Variant>  (129) 
37:0-1

>  <s_i_glide_gridfile>  (129) 
pfpi4k_grid

>  <i_i_glide_lignum>  (129) 
24

>  <i_i_glide_rotatable_bonds>  (129) 
1

>  <r_i_docking_score>  (129) 
-2.44908

>  <r_i_glide_ligand_efficiency>  (129) 
-0.102045

>  <r_i_glide_ligand_efficiency_sa>  (129) 
-0.294349

>  <r_i_glide_ligand_efficiency_ln>  (129) 
-0.586178

>  <r_i_glide_gscore>  (129) 
-2.44908

>  <r_i_glide_lipo>  (129) 
-0.30972

>  <r_i_glide_hbond>  (129) 
0

>  <r_i_glide_metal>  (129) 
-0

>  <r_i_glide_rewards>  (129) 
-1.34433

>  <r_i_glide_evdw>  (129) 
-12.5764

>  <r_i_glide_ecoul>  (129) 
-1.10805

>  <r_i_glide_erotb>  (129) 
0

>  <r_i_glide_esite>  (129) 
0

>  <r_i_glide_emodel>  (129) 
-14.1496

>  <r_i_glide_energy>  (129) 
-13.6845

>  <r_i_glide_einternal>  (129) 
0.00556847

>  <r_i_glide_intrahb_reward>  (129) 
-0

>  <i_i_glide_confnum>  (129) 
2

>  <i_i_glide_posenum>  (129) 
8

>  <r_i_glide_eff_state_penalty>  (129) 
0

>  <ligand_id>  (129) 
37

>  <original_smiles>  (129) 
CC1C2C3C(=O)C2C(C)(C)C2(COC(C)(C)O2)C(C)C(C=O)C13C

>  <smiles>  (129) 
[H]C(=O)C1([H])C([H])(C([H])([H])[H])C2(OC(C([H])([H])[H])(C([H])([H])[H])OC2([H])[H])C(C([H])([H])[H])(C([H])([H])[H])C2([H])C(=O)C3([H])C2([H])C([H])(C([H])([H])[H])C31C([H])([H])[H]

$$$$
37:0:1
     RDKit          3D

 54 57  0  0  1  0  0  0  0  0999 V2000
    2.7513   -2.4118   -2.7832 C   0  0  0  0  0  0  0  0  0  0  0  0
    3.3091   -2.7457   -1.4060 C   0  0  2  0  0  0  0  0  0  0  0  0
    3.8685   -1.5738   -0.6056 C   0  0  2  0  0  0  0  0  0  0  0  0
    5.2673   -2.1280   -0.8178 C   0  0  1  0  0  0  0  0  0  0  0  0
    5.5568   -1.8554    0.6708 C   0  0  0  0  0  0  0  0  0  0  0  0
    6.5806   -1.8368    1.3395 O   0  0  0  0  0  0  0  0  0  0  0  0
    4.0798   -1.5037    0.9173 C   0  0  2  0  0  0  0  0  0  0  0  0
    3.3029   -2.3112    1.9929 C   0  0  0  0  0  0  0  0  0  0  0  0
    3.5532   -1.5212    3.2891 C   0  0  0  0  0  0  0  0  0  0  0  0
    1.7994   -2.1222    1.7420 C   0  0  0  0  0  0  0  0  0  0  0  0
    3.6847   -3.8781    2.1299 C   0  0  2  0  0  0  0  0  0  0  0  0
    2.8756   -4.5854    3.2660 C   0  0  0  0  0  0  0  0  0  0  0  0
    3.8226   -5.4109    3.9099 O   0  0  0  0  0  0  0  0  0  0  0  0
    5.0014   -4.6904    3.8448 C   0  0  0  0  0  0  0  0  0  0  0  0
    5.0911   -3.7174    5.0368 C   0  0  0  0  0  0  0  0  0  0  0  0
    6.1813   -5.6733    3.8646 C   0  0  0  0  0  0  0  0  0  0  0  0
    4.9982   -3.9719    2.6605 O   0  0  0  0  0  0  0  0  0  0  0  0
    3.6853   -4.8484    0.8694 C   0  0  1  0  0  0  0  0  0  0  0  0
    2.3066   -5.3754    0.3720 C   0  0  0  0  0  0  0  0  0  0  0  0
    4.7370   -4.7183   -0.3308 C   0  0  2  0  0  0  0  0  0  0  0  0
    6.1711   -5.0438    0.0918 C   0  0  0  0  0  0  0  0  0  0  0  0
    6.4341   -6.0371    0.7656 O   0  0  0  0  0  0  0  0  0  0  0  0
    4.6617   -3.4775   -1.2796 C   0  0  1  0  0  0  0  0  0  0  0  0
    5.2467   -3.8988   -2.6426 C   0  0  0  0  0  0  0  0  0  0  0  0
    3.4184   -1.7667   -3.3703 H   0  0  0  0  0  0  0  0  0  0  0  0
    1.8068   -1.8640   -2.6958 H   0  0  0  0  0  0  0  0  0  0  0  0
    2.5331   -3.3103   -3.3612 H   0  0  0  0  0  0  0  0  0  0  0  0
    2.5308   -3.2409   -0.8387 H   0  0  0  0  0  0  0  0  0  0  0  0
    3.7121   -0.5930   -1.0686 H   0  0  0  0  0  0  0  0  0  0  0  0
    5.8131   -1.5418   -1.5487 H   0  0  0  0  0  0  0  0  0  0  0  0
    4.0368   -0.4371    1.1515 H   0  0  0  0  0  0  0  0  0  0  0  0
    2.9513   -1.8896    4.1238 H   0  0  0  0  0  0  0  0  0  0  0  0
    3.3237   -0.4572    3.1351 H   0  0  0  0  0  0  0  0  0  0  0  0
    4.6013   -1.5716    3.5916 H   0  0  0  0  0  0  0  0  0  0  0  0
    1.1938   -2.6246    2.4959 H   0  0  0  0  0  0  0  0  0  0  0  0
    1.4933   -2.4747    0.7699 H   0  0  0  0  0  0  0  0  0  0  0  0
    1.5258   -1.0607    1.7676 H   0  0  0  0  0  0  0  0  0  0  0  0
    2.5068   -3.8831    3.9996 H   0  0  0  0  0  0  0  0  0  0  0  0
    2.0112   -5.1643    2.9133 H   0  0  0  0  0  0  0  0  0  0  0  0
    4.2132   -3.0897    5.1316 H   0  0  0  0  0  0  0  0  0  0  0  0
    5.9596   -3.0819    4.8640 H   0  0  0  0  0  0  0  0  0  0  0  0
    5.3157   -4.2839    5.9470 H   0  0  0  0  0  0  0  0  0  0  0  0
    6.0644   -6.4839    3.1453 H   0  0  0  0  0  0  0  0  0  0  0  0
    6.2819   -6.1153    4.8532 H   0  0  0  0  0  0  0  0  0  0  0  0
    7.0980   -5.1356    3.6317 H   0  0  0  0  0  0  0  0  0  0  0  0
    4.0386   -5.7843    1.3086 H   0  0  0  0  0  0  0  0  0  0  0  0
    1.5178   -4.6571    0.5397 H   0  0  0  0  0  0  0  0  0  0  0  0
    2.0139   -6.2796    0.9072 H   0  0  0  0  0  0  0  0  0  0  0  0
    2.2793   -5.6204   -0.6853 H   0  0  0  0  0  0  0  0  0  0  0  0
    4.5217   -5.5812   -0.9634 H   0  0  0  0  0  0  0  0  0  0  0  0
    6.9456   -4.3619   -0.2836 H   0  0  0  0  0  0  0  0  0  0  0  0
    6.2657   -4.2553   -2.5440 H   0  0  0  0  0  0  0  0  0  0  0  0
    5.2957   -3.0583   -3.3413 H   0  0  0  0  0  0  0  0  0  0  0  0
    4.6447   -4.6790   -3.1101 H   0  0  0  0  0  0  0  0  0  0  0  0
  1  2  1  0
  1 25  1  0
  1 26  1  0
  1 27  1  0
  2 23  1  0
  2  3  1  0
  2 28  1  1
  3  7  1  0
  3  4  1  0
  3 29  1  6
  4 23  1  0
  4  5  1  0
  4 30  1  6
  5  6  2  0
  5  7  1  0
  7  8  1  0
  7 31  1  1
  8  9  1  0
  8 10  1  0
  8 11  1  0
  9 32  1  0
  9 33  1  0
  9 34  1  0
 10 35  1  0
 10 36  1  0
 10 37  1  0
 11 17  1  1
 11 12  1  0
 11 18  1  0
 12 13  1  0
 12 38  1  0
 12 39  1  0
 13 14  1  0
 14 15  1  0
 14 16  1  0
 14 17  1  0
 15 40  1  0
 15 41  1  0
 15 42  1  0
 16 43  1  0
 16 44  1  0
 16 45  1  0
 18 19  1  0
 18 20  1  0
 18 46  1  1
 19 47  1  0
 19 48  1  0
 19 49  1  0
 20 21  1  0
 20 23  1  0
 20 50  1  6
 21 22  2  0
 21 51  1  0
 23 24  1  6
 24 52  1  0
 24 53  1  0
 24 54  1  0
M  END
>  <i_m_ct_stereo_status>  (130) 
1

>  <s_m_source_file>  (130) 
/var/tmp/pbs.5076255.sched01/tmpqllwm4fg/43asec3i7m.sdf

>  <i_m_source_file_index>  (130) 
24

>  <i_lp_mmshare_version>  (130) 
48012

>  <i_f3d_flags>  (130) 
0

>  <s_epik_input>  (130) 
W0NIM11bQ0BIXTFbQ0hdKFtDSF09TylbQ0BAXShbQ0gzXSkoW0NAQEhdMltDSDNdKVtDQEhdKEMzPU8pW0NAQEhdMltDQEhdM0MoW0NIM10pKFtDSDNdKVtDQEBdMTRbQ0gyXU9DKE80KShbQ0gzXSlbQ0gzXQ==

>  <s_epik_cmdline>  (130) 
J2VwaWtfcHl0aG9uJywgJy1waHQnLCAnMi4wJywgJy1waCcsICc3LjAnLCAnLXRuJywgJzgnLCAnLW1hJywgJzIwMCcsICctaW1hZScsICc8aW5maWxlLm1hZT4nLCAnLW9tYWUnLCAnPG91dGZpbGUubWFlPic=

>  <r_lp_tautomer_probability>  (130) 
1

>  <r_epik_Ionization_Penalty>  (130) 
4.4683e-09

>  <r_epik_Ionization_Penalty_Charging>  (130) 
0

>  <r_epik_Ionization_Penalty_Neutral>  (130) 
4.4683e-09

>  <r_epik_State_Penalty>  (130) 
-0

>  <r_epik_Charging_Adjusted_Penalty>  (130) 
0

>  <i_epik_Tot_Q>  (130) 
0

>  <i_epik_Tot_abs_Q>  (130) 
0

>  <s_lp_Force_Field>  (130) 
OPLS3e

>  <r_lp_Energy>  (130) 
51.0523

>  <b_lp_Chiralities_Consistent>  (130) 
1

>  <s_lp_Variant>  (130) 
37:0-1

>  <s_i_glide_gridfile>  (130) 
pfpi4k_grid

>  <i_i_glide_lignum>  (130) 
24

>  <i_i_glide_rotatable_bonds>  (130) 
1

>  <r_i_docking_score>  (130) 
-2.17916

>  <r_i_glide_ligand_efficiency>  (130) 
-0.0907984

>  <r_i_glide_ligand_efficiency_sa>  (130) 
-0.261908

>  <r_i_glide_ligand_efficiency_ln>  (130) 
-0.521573

>  <r_i_glide_gscore>  (130) 
-2.17916

>  <r_i_glide_lipo>  (130) 
-0.060085

>  <r_i_glide_hbond>  (130) 
0

>  <r_i_glide_metal>  (130) 
-0

>  <r_i_glide_rewards>  (130) 
-1.36207

>  <r_i_glide_evdw>  (130) 
-12.7993

>  <r_i_glide_ecoul>  (130) 
-0.78028

>  <r_i_glide_erotb>  (130) 
0

>  <r_i_glide_esite>  (130) 
0

>  <r_i_glide_emodel>  (130) 
-14.0416

>  <r_i_glide_energy>  (130) 
-13.5795

>  <r_i_glide_einternal>  (130) 
0.0563896

>  <r_i_glide_intrahb_reward>  (130) 
-0

>  <i_i_glide_confnum>  (130) 
4

>  <i_i_glide_posenum>  (130) 
31

>  <r_i_glide_eff_state_penalty>  (130) 
0

>  <ligand_id>  (130) 
37

>  <original_smiles>  (130) 
CC1C2C3C(=O)C2C(C)(C)C2(COC(C)(C)O2)C(C)C(C=O)C13C

>  <smiles>  (130) 
[H]C(=O)C1([H])C([H])(C([H])([H])[H])C2(OC(C([H])([H])[H])(C([H])([H])[H])OC2([H])[H])C(C([H])([H])[H])(C([H])([H])[H])C2([H])C(=O)C3([H])C2([H])C([H])(C([H])([H])[H])C31C([H])([H])[H]

$$$$
38:0:0
     RDKit          3D

 62 66  0  0  1  0  0  0  0  0999 V2000
   -1.7890   -7.8261    2.5717 C   0  0  0  0  0  0  0  0  0  0  0  0
   -0.5563   -7.6180    2.0811 C   0  0  0  0  0  0  0  0  0  0  0  0
    0.3878   -6.5303    2.5642 C   0  0  0  0  0  0  0  0  0  0  0  0
    1.6951   -7.0188    3.2500 C   0  0  1  0  0  0  0  0  0  0  0  0
    2.2449   -7.7994    2.1733 O   0  0  0  0  0  0  0  0  0  0  0  0
    2.4735   -9.1390    2.5905 C   0  0  0  0  0  0  0  0  0  0  0  0
    2.7671   -8.9509    4.0666 C   0  0  1  0  0  0  0  0  0  0  0  0
    2.7668  -10.2624    4.8664 C   0  0  0  0  0  0  0  0  0  0  0  0
    4.1432   -8.1535    4.1661 C   0  0  0  0  0  0  0  0  0  0  0  0
    4.1262   -6.6611    3.5897 C   0  0  0  0  0  0  0  0  0  0  0  0
    2.7205   -5.9604    3.7389 C   0  0  1  0  0  0  0  0  0  0  0  0
    2.1420   -4.8371    4.7227 C   0  0  2  0  0  0  0  0  0  0  0  0
    1.2915   -3.8119    3.9152 C   0  0  0  0  0  0  0  0  0  0  0  0
    3.3835   -3.9898    5.2833 C   0  0  1  0  0  0  0  0  0  0  0  0
    3.7957   -3.0398    4.3419 O   0  0  0  0  0  0  0  0  0  0  0  0
    4.9335   -2.2758    4.7325 C   0  0  0  0  0  0  0  0  0  0  0  0
    5.2096   -1.1890    3.6898 C   0  0  0  0  0  0  0  0  0  0  0  0
    3.0776   -3.3987    6.5217 O   0  0  0  0  0  0  0  0  0  0  0  0
    2.2941   -4.1886    7.4240 C   0  0  2  0  0  0  0  0  0  0  0  0
    2.2702   -5.7084    7.1903 C   0  0  1  0  0  0  0  0  0  0  0  0
    1.7935   -6.5128    8.2534 O   0  0  0  0  0  0  0  0  0  0  0  0
    1.3115   -5.3969    6.0065 C   0  0  2  0  0  0  0  0  0  0  0  0
    0.1345   -6.4508    5.7701 C   0  0  0  0  0  0  0  0  0  0  0  0
    0.4164   -7.9439    5.3134 C   0  0  0  0  0  0  0  0  0  0  0  0
    1.6643   -7.9689    4.4506 C   0  0  2  0  0  0  0  0  0  0  0  0
    0.8683   -4.1807    6.8822 C   0  0  1  0  0  0  0  0  0  0  0  0
   -0.0934   -4.3895    7.9142 O   0  0  0  0  0  0  0  0  0  0  0  0
   -0.2075   -3.1397    8.6628 O   0  0  0  0  0  0  0  0  0  0  0  0
   -2.1859   -7.2182    3.3707 H   0  0  0  0  0  0  0  0  0  0  0  0
   -2.4173   -8.6185    2.1897 H   0  0  0  0  0  0  0  0  0  0  0  0
   -0.1927   -8.2535    1.2861 H   0  0  0  0  0  0  0  0  0  0  0  0
    0.6576   -5.9385    1.6942 H   0  0  0  0  0  0  0  0  0  0  0  0
   -0.1855   -5.8834    3.1929 H   0  0  0  0  0  0  0  0  0  0  0  0
    1.5784   -9.7401    2.4323 H   0  0  0  0  0  0  0  0  0  0  0  0
    3.2993   -9.5938    2.0410 H   0  0  0  0  0  0  0  0  0  0  0  0
    2.9279  -10.0806    5.9318 H   0  0  0  0  0  0  0  0  0  0  0  0
    3.5553  -10.9354    4.5218 H   0  0  0  0  0  0  0  0  0  0  0  0
    1.8147  -10.7893    4.7638 H   0  0  0  0  0  0  0  0  0  0  0  0
    4.4228   -8.0904    5.2201 H   0  0  0  0  0  0  0  0  0  0  0  0
    4.9463   -8.7204    3.6896 H   0  0  0  0  0  0  0  0  0  0  0  0
    4.9503   -6.0823    4.0113 H   0  0  0  0  0  0  0  0  0  0  0  0
    4.3617   -6.6998    2.5259 H   0  0  0  0  0  0  0  0  0  0  0  0
    3.0693   -6.2053    4.7143 H   0  0  0  0  0  0  0  0  0  0  0  0
    1.3555   -2.8062    4.3320 H   0  0  0  0  0  0  0  0  0  0  0  0
    0.2300   -4.0375    3.9121 H   0  0  0  0  0  0  0  0  0  0  0  0
    1.6439   -3.7379    2.8849 H   0  0  0  0  0  0  0  0  0  0  0  0
    4.2511   -4.6175    5.4916 H   0  0  0  0  0  0  0  0  0  0  0  0
    4.7703   -1.8000    5.7014 H   0  0  0  0  0  0  0  0  0  0  0  0
    5.8008   -2.9304    4.8372 H   0  0  0  0  0  0  0  0  0  0  0  0
    6.0426   -0.5555    3.9966 H   0  0  0  0  0  0  0  0  0  0  0  0
    4.3410   -0.5450    3.5511 H   0  0  0  0  0  0  0  0  0  0  0  0
    5.4620   -1.6340    2.7278 H   0  0  0  0  0  0  0  0  0  0  0  0
    2.3835   -3.8813    8.4678 H   0  0  0  0  0  0  0  0  0  0  0  0
    3.2474   -6.0951    6.9030 H   0  0  0  0  0  0  0  0  0  0  0  0
    1.9095   -7.4112    7.9862 H   0  0  0  0  0  0  0  0  0  0  0  0
   -0.3920   -6.5653    6.7175 H   0  0  0  0  0  0  0  0  0  0  0  0
   -0.6474   -6.0016    5.1649 H   0  0  0  0  0  0  0  0  0  0  0  0
    0.5532   -8.5817    6.1878 H   0  0  0  0  0  0  0  0  0  0  0  0
   -0.4401   -8.3631    4.7902 H   0  0  0  0  0  0  0  0  0  0  0  0
    2.1912   -7.7084    5.3634 H   0  0  0  0  0  0  0  0  0  0  0  0
    0.6265   -3.2724    6.3322 H   0  0  0  0  0  0  0  0  0  0  0  0
    0.4662   -3.2546    9.3177 H   0  0  0  0  0  0  0  0  0  0  0  0
  1  2  2  0
  1 29  1  0
  1 30  1  0
  2  3  1  0
  2 31  1  0
  4  3  1  6
  3 32  1  0
  3 33  1  0
  4 11  1  0
  4 25  1  0
  4  5  1  0
  5  6  1  0
  6  7  1  0
  6 34  1  0
  6 35  1  0
  7 25  1  0
  7  8  1  1
  7  9  1  0
  8 36  1  0
  8 37  1  0
  8 38  1  0
  9 10  1  0
  9 39  1  0
  9 40  1  0
 10 11  1  0
 10 41  1  0
 10 42  1  0
 11 12  1  0
 11 43  1  6
 12 22  1  0
 12 13  1  6
 12 14  1  0
 13 44  1  0
 13 45  1  0
 13 46  1  0
 14 15  1  0
 14 18  1  0
 14 47  1  1
 15 16  1  0
 16 17  1  0
 16 48  1  0
 16 49  1  0
 17 50  1  0
 17 51  1  0
 17 52  1  0
 18 19  1  0
 19 26  1  0
 19 20  1  0
 19 53  1  1
 20 21  1  0
 20 22  1  0
 20 54  1  6
 21 55  1  0
 22 23  1  6
 22 26  1  0
 23 24  1  0
 23 56  1  0
 23 57  1  0
 24 25  1  0
 24 58  1  0
 24 59  1  0
 25 60  1  1
 26 27  1  0
 26 61  1  6
 27 28  1  0
 28 62  1  0
M  END
>  <i_m_ct_stereo_status>  (131) 
1

>  <s_m_source_file>  (131) 
/var/tmp/pbs.5076255.sched01/tmpqllwm4fg/43asec3i7m.sdf

>  <i_m_source_file_index>  (131) 
25

>  <i_lp_mmshare_version>  (131) 
48012

>  <i_f3d_flags>  (131) 
0

>  <s_epik_input>  (131) 
TzFbQ0gyXVtDQEBdKFtDSDNdKShbQ0gyXVtDSDJdMilbQ0BIXShbQ0gyXVtDSDJdMylDMShbQ0gyXVtDSF09W0NIMl0pW0NAQEhdMltDQF0oW0NAQF0zNDUpKFtDSDNdKVtDQEBIXShPW0NIMl1bQ0gzXSlPW0NASF0oW0NASF00W09IXSlbQ0BASF01T1tPSF0=

>  <s_epik_cmdline>  (131) 
J2VwaWtfcHl0aG9uJywgJy1waHQnLCAnMi4wJywgJy1waCcsICc3LjAnLCAnLXRuJywgJzgnLCAnLW1hJywgJzIwMCcsICctaW1hZScsICc8aW5maWxlLm1hZT4nLCAnLW9tYWUnLCAnPG91dGZpbGUubWFlPic=

>  <r_lp_tautomer_probability>  (131) 
1

>  <r_epik_Ionization_Penalty>  (131) 
1.46472e-05

>  <r_epik_Ionization_Penalty_Charging>  (131) 
0

>  <r_epik_Ionization_Penalty_Neutral>  (131) 
1.46472e-05

>  <r_epik_State_Penalty>  (131) 
-0

>  <r_epik_Charging_Adjusted_Penalty>  (131) 
0

>  <i_epik_Tot_Q>  (131) 
0

>  <i_epik_Tot_abs_Q>  (131) 
0

>  <s_epik_Chemistry_Notes>  (131) 
This compound contains an acetal/aminal-like group ( X-CH(R)-Y where X, Y are N, S, or O) that may be acid/base labile, releasing an aldehyde.

>  <s_lp_Force_Field>  (131) 
OPLS3e

>  <r_lp_Energy>  (131) 
175.99

>  <b_lp_Chiralities_Consistent>  (131) 
1

>  <s_lp_Variant>  (131) 
38:0-1

>  <s_i_glide_gridfile>  (131) 
pfpi4k_grid

>  <i_i_glide_lignum>  (131) 
25

>  <i_i_glide_rotatable_bonds>  (131) 
7

>  <r_i_docking_score>  (131) 
-1.53645

>  <r_i_glide_ligand_efficiency>  (131) 
-0.0548733

>  <r_i_glide_ligand_efficiency_sa>  (131) 
-0.166628

>  <r_i_glide_ligand_efficiency_ln>  (131) 
-0.354659

>  <r_i_glide_gscore>  (131) 
-1.53645

>  <r_i_glide_lipo>  (131) 
-0.127086

>  <r_i_glide_hbond>  (131) 
0

>  <r_i_glide_metal>  (131) 
-0

>  <r_i_glide_rewards>  (131) 
-0.719306

>  <r_i_glide_evdw>  (131) 
-15.8463

>  <r_i_glide_ecoul>  (131) 
-2.66734

>  <r_i_glide_erotb>  (131) 
0.502353

>  <r_i_glide_esite>  (131) 
0

>  <r_i_glide_emodel>  (131) 
-19.7657

>  <r_i_glide_energy>  (131) 
-18.5136

>  <r_i_glide_einternal>  (131) 
1.62276

>  <r_i_glide_intrahb_reward>  (131) 
-0

>  <i_i_glide_confnum>  (131) 
2

>  <i_i_glide_posenum>  (131) 
1

>  <r_i_glide_eff_state_penalty>  (131) 
0

>  <ligand_id>  (131) 
38

>  <original_smiles>  (131) 
C=CCC12OCC3(C)CCC1C1(C)C(OCC)OC4C(O)C1(CCC32)C4OO

>  <smiles>  (131) 
[H]OOC1([H])C2([H])OC([H])(OC([H])([H])C([H])([H])[H])C3(C([H])([H])[H])C4([H])C([H])([H])C([H])([H])C5(C([H])([H])[H])C([H])([H])OC4(C([H])([H])C([H])=C([H])[H])C5([H])C([H])([H])C([H])([H])C13C2([H])O[H]

$$$$
38:0:1
     RDKit          3D

 62 66  0  0  1  0  0  0  0  0999 V2000
   -1.7656   -7.4880    2.3107 C   0  0  0  0  0  0  0  0  0  0  0  0
   -0.5907   -7.4595    1.6751 C   0  0  0  0  0  0  0  0  0  0  0  0
    0.6925   -6.8042    2.1480 C   0  0  0  0  0  0  0  0  0  0  0  0
    1.6086   -7.6714    3.0947 C   0  0  1  0  0  0  0  0  0  0  0  0
    2.1491   -8.5790    2.1122 O   0  0  0  0  0  0  0  0  0  0  0  0
    1.8840   -9.9308    2.4745 C   0  0  0  0  0  0  0  0  0  0  0  0
    1.8809   -9.8495    3.9930 C   0  0  1  0  0  0  0  0  0  0  0  0
    1.2897  -11.0977    4.6681 C   0  0  0  0  0  0  0  0  0  0  0  0
    3.3645   -9.5006    4.4589 C   0  0  0  0  0  0  0  0  0  0  0  0
    3.9110   -8.0674    3.9900 C   0  0  0  0  0  0  0  0  0  0  0  0
    2.7711   -6.9721    3.8808 C   0  0  1  0  0  0  0  0  0  0  0  0
    2.3438   -5.7214    4.7941 C   0  0  2  0  0  0  0  0  0  0  0  0
    2.0544   -4.4770    3.8935 C   0  0  0  0  0  0  0  0  0  0  0  0
    3.6156   -5.3057    5.6814 C   0  0  1  0  0  0  0  0  0  0  0  0
    4.4885   -4.5164    4.9330 O   0  0  0  0  0  0  0  0  0  0  0  0
    5.7449   -4.2284    5.5423 C   0  0  0  0  0  0  0  0  0  0  0  0
    6.6755   -5.4474    5.4923 C   0  0  0  0  0  0  0  0  0  0  0  0
    3.2251   -4.6587    6.8716 O   0  0  0  0  0  0  0  0  0  0  0  0
    2.0470   -5.1541    7.5122 C   0  0  2  0  0  0  0  0  0  0  0  0
    1.6249   -6.5957    7.1672 C   0  0  1  0  0  0  0  0  0  0  0  0
    0.7032   -7.2474    8.0200 O   0  0  0  0  0  0  0  0  0  0  0  0
    1.1156   -6.0077    5.8245 C   0  0  2  0  0  0  0  0  0  0  0  0
   -0.2140   -6.6781    5.2762 C   0  0  0  0  0  0  0  0  0  0  0  0
   -0.2913   -8.2377    4.8503 C   0  0  0  0  0  0  0  0  0  0  0  0
    1.0457   -8.5925    4.1915 C   0  0  2  0  0  0  0  0  0  0  0  0
    0.8583   -4.7077    6.6661 C   0  0  1  0  0  0  0  0  0  0  0  0
   -0.3321   -4.5908    7.4354 O   0  0  0  0  0  0  0  0  0  0  0  0
   -0.2196   -3.3802    8.2499 O   0  0  0  0  0  0  0  0  0  0  0  0
   -1.8805   -7.0059    3.3122 H   0  0  0  0  0  0  0  0  0  0  0  0
   -2.6146   -7.9920    1.9534 H   0  0  0  0  0  0  0  0  0  0  0  0
   -0.5475   -7.9192    0.6776 H   0  0  0  0  0  0  0  0  0  0  0  0
    1.2785   -6.5294    1.2600 H   0  0  0  0  0  0  0  0  0  0  0  0
    0.3825   -5.8743    2.5937 H   0  0  0  0  0  0  0  0  0  0  0  0
    0.9091  -10.2287    2.0888 H   0  0  0  0  0  0  0  0  0  0  0  0
    2.6350  -10.6207    2.0789 H   0  0  0  0  0  0  0  0  0  0  0  0
    1.2405  -10.9679    5.7464 H   0  0  0  0  0  0  0  0  0  0  0  0
    1.8910  -11.9850    4.4683 H   0  0  0  0  0  0  0  0  0  0  0  0
    0.2756  -11.2963    4.3222 H   0  0  0  0  0  0  0  0  0  0  0  0
    3.3984   -9.5495    5.5515 H   0  0  0  0  0  0  0  0  0  0  0  0
    4.0512  -10.2807    4.1268 H   0  0  0  0  0  0  0  0  0  0  0  0
    4.7622   -7.7579    4.6010 H   0  0  0  0  0  0  0  0  0  0  0  0
    4.3547   -8.1981    3.0005 H   0  0  0  0  0  0  0  0  0  0  0  0
    2.8142   -7.3065    4.8938 H   0  0  0  0  0  0  0  0  0  0  0  0
    2.3069   -3.5349    4.3787 H   0  0  0  0  0  0  0  0  0  0  0  0
    1.0048   -4.3502    3.6421 H   0  0  0  0  0  0  0  0  0  0  0  0
    2.6384   -4.5150    2.9732 H   0  0  0  0  0  0  0  0  0  0  0  0
    4.1565   -6.1835    6.0269 H   0  0  0  0  0  0  0  0  0  0  0  0
    6.2004   -3.4196    4.9728 H   0  0  0  0  0  0  0  0  0  0  0  0
    5.6387   -3.8522    6.5618 H   0  0  0  0  0  0  0  0  0  0  0  0
    7.6781   -5.1885    5.8327 H   0  0  0  0  0  0  0  0  0  0  0  0
    6.7537   -5.8311    4.4748 H   0  0  0  0  0  0  0  0  0  0  0  0
    6.3232   -6.2563    6.1310 H   0  0  0  0  0  0  0  0  0  0  0  0
    1.9831   -4.8921    8.5690 H   0  0  0  0  0  0  0  0  0  0  0  0
    2.4783   -7.2644    7.0549 H   0  0  0  0  0  0  0  0  0  0  0  0
    0.6733   -8.1537    7.7552 H   0  0  0  0  0  0  0  0  0  0  0  0
   -0.9622   -6.5992    6.0539 H   0  0  0  0  0  0  0  0  0  0  0  0
   -0.6304   -6.0121    4.5228 H   0  0  0  0  0  0  0  0  0  0  0  0
   -0.4505   -8.8440    5.7443 H   0  0  0  0  0  0  0  0  0  0  0  0
   -1.0865   -8.5039    4.2194 H   0  0  0  0  0  0  0  0  0  0  0  0
    1.4317   -8.4982    5.2016 H   0  0  0  0  0  0  0  0  0  0  0  0
    1.0358   -3.7709    6.1373 H   0  0  0  0  0  0  0  0  0  0  0  0
    0.2625   -3.7090    8.9913 H   0  0  0  0  0  0  0  0  0  0  0  0
  1  2  2  0
  1 29  1  0
  1 30  1  0
  2  3  1  0
  2 31  1  0
  4  3  1  6
  3 32  1  0
  3 33  1  0
  4 11  1  0
  4 25  1  0
  4  5  1  0
  5  6  1  0
  6  7  1  0
  6 34  1  0
  6 35  1  0
  7 25  1  0
  7  8  1  1
  7  9  1  0
  8 36  1  0
  8 37  1  0
  8 38  1  0
  9 10  1  0
  9 39  1  0
  9 40  1  0
 10 11  1  0
 10 41  1  0
 10 42  1  0
 11 12  1  0
 11 43  1  6
 12 22  1  0
 12 13  1  6
 12 14  1  0
 13 44  1  0
 13 45  1  0
 13 46  1  0
 14 15  1  0
 14 18  1  0
 14 47  1  1
 15 16  1  0
 16 17  1  0
 16 48  1  0
 16 49  1  0
 17 50  1  0
 17 51  1  0
 17 52  1  0
 18 19  1  0
 19 26  1  0
 19 20  1  0
 19 53  1  1
 20 21  1  0
 20 22  1  0
 20 54  1  6
 21 55  1  0
 22 23  1  6
 22 26  1  0
 23 24  1  0
 23 56  1  0
 23 57  1  0
 24 25  1  0
 24 58  1  0
 24 59  1  0
 25 60  1  1
 26 27  1  0
 26 61  1  6
 27 28  1  0
 28 62  1  0
M  END
>  <i_m_ct_stereo_status>  (132) 
1

>  <s_m_source_file>  (132) 
/var/tmp/pbs.5076255.sched01/tmpqllwm4fg/43asec3i7m.sdf

>  <i_m_source_file_index>  (132) 
25

>  <i_lp_mmshare_version>  (132) 
48012

>  <i_f3d_flags>  (132) 
0

>  <s_epik_input>  (132) 
TzFbQ0gyXVtDQEBdKFtDSDNdKShbQ0gyXVtDSDJdMilbQ0BIXShbQ0gyXVtDSDJdMylDMShbQ0gyXVtDSF09W0NIMl0pW0NAQEhdMltDQF0oW0NAQF0zNDUpKFtDSDNdKVtDQEBIXShPW0NIMl1bQ0gzXSlPW0NASF0oW0NASF00W09IXSlbQ0BASF01T1tPSF0=

>  <s_epik_cmdline>  (132) 
J2VwaWtfcHl0aG9uJywgJy1waHQnLCAnMi4wJywgJy1waCcsICc3LjAnLCAnLXRuJywgJzgnLCAnLW1hJywgJzIwMCcsICctaW1hZScsICc8aW5maWxlLm1hZT4nLCAnLW9tYWUnLCAnPG91dGZpbGUubWFlPic=

>  <r_lp_tautomer_probability>  (132) 
1

>  <r_epik_Ionization_Penalty>  (132) 
1.46472e-05

>  <r_epik_Ionization_Penalty_Charging>  (132) 
0

>  <r_epik_Ionization_Penalty_Neutral>  (132) 
1.46472e-05

>  <r_epik_State_Penalty>  (132) 
-0

>  <r_epik_Charging_Adjusted_Penalty>  (132) 
0

>  <i_epik_Tot_Q>  (132) 
0

>  <i_epik_Tot_abs_Q>  (132) 
0

>  <s_epik_Chemistry_Notes>  (132) 
This compound contains an acetal/aminal-like group ( X-CH(R)-Y where X, Y are N, S, or O) that may be acid/base labile, releasing an aldehyde.

>  <s_lp_Force_Field>  (132) 
OPLS3e

>  <r_lp_Energy>  (132) 
175.99

>  <b_lp_Chiralities_Consistent>  (132) 
1

>  <s_lp_Variant>  (132) 
38:0-1

>  <s_i_glide_gridfile>  (132) 
pfpi4k_grid

>  <i_i_glide_lignum>  (132) 
25

>  <i_i_glide_rotatable_bonds>  (132) 
7

>  <r_i_docking_score>  (132) 
-1.51438

>  <r_i_glide_ligand_efficiency>  (132) 
-0.0540851

>  <r_i_glide_ligand_efficiency_sa>  (132) 
-0.164234

>  <r_i_glide_ligand_efficiency_ln>  (132) 
-0.349564

>  <r_i_glide_gscore>  (132) 
-1.51438

>  <r_i_glide_lipo>  (132) 
-0.105544

>  <r_i_glide_hbond>  (132) 
0

>  <r_i_glide_metal>  (132) 
-0

>  <r_i_glide_rewards>  (132) 
-0.719306

>  <r_i_glide_evdw>  (132) 
-16.0154

>  <r_i_glide_ecoul>  (132) 
-3.08422

>  <r_i_glide_erotb>  (132) 
0.502353

>  <r_i_glide_esite>  (132) 
0

>  <r_i_glide_emodel>  (132) 
-14.4939

>  <r_i_glide_energy>  (132) 
-19.0996

>  <r_i_glide_einternal>  (132) 
5.3853

>  <r_i_glide_intrahb_reward>  (132) 
-0

>  <i_i_glide_confnum>  (132) 
2

>  <i_i_glide_posenum>  (132) 
40

>  <r_i_glide_eff_state_penalty>  (132) 
0

>  <ligand_id>  (132) 
38

>  <original_smiles>  (132) 
C=CCC12OCC3(C)CCC1C1(C)C(OCC)OC4C(O)C1(CCC32)C4OO

>  <smiles>  (132) 
[H]OOC1([H])C2([H])OC([H])(OC([H])([H])C([H])([H])[H])C3(C([H])([H])[H])C4([H])C([H])([H])C([H])([H])C5(C([H])([H])[H])C([H])([H])OC4(C([H])([H])C([H])=C([H])[H])C5([H])C([H])([H])C([H])([H])C13C2([H])O[H]

$$$$
38:0:2
     RDKit          3D

 62 66  0  0  1  0  0  0  0  0999 V2000
   -2.1485   -8.0724    2.5888 C   0  0  0  0  0  0  0  0  0  0  0  0
   -1.4648   -8.0260    3.7372 C   0  0  0  0  0  0  0  0  0  0  0  0
   -0.2227   -7.2030    3.8474 C   0  0  0  0  0  0  0  0  0  0  0  0
    0.5863   -7.4508    5.1411 C   0  0  1  0  0  0  0  0  0  0  0  0
    0.6868   -8.8869    5.0999 O   0  0  0  0  0  0  0  0  0  0  0  0
    0.1472   -9.4712    6.2826 C   0  0  0  0  0  0  0  0  0  0  0  0
    0.4104   -8.3827    7.3040 C   0  0  1  0  0  0  0  0  0  0  0  0
   -0.3190   -8.5899    8.6393 C   0  0  0  0  0  0  0  0  0  0  0  0
    1.9847   -8.2851    7.4834 C   0  0  0  0  0  0  0  0  0  0  0  0
    2.7948   -7.7892    6.1924 C   0  0  0  0  0  0  0  0  0  0  0  0
    1.9758   -6.7870    5.2957 C   0  0  1  0  0  0  0  0  0  0  0  0
    2.0116   -5.1956    5.0679 C   0  0  2  0  0  0  0  0  0  0  0  0
    1.8679   -4.8947    3.5413 C   0  0  0  0  0  0  0  0  0  0  0  0
    3.4778   -4.7008    5.4792 C   0  0  1  0  0  0  0  0  0  0  0  0
    4.3675   -4.9755    4.4403 O   0  0  0  0  0  0  0  0  0  0  0  0
    5.7334   -5.0928    4.8112 C   0  0  0  0  0  0  0  0  0  0  0  0
    6.5122   -5.7454    3.6634 C   0  0  0  0  0  0  0  0  0  0  0  0
    3.4752   -3.3442    5.8704 O   0  0  0  0  0  0  0  0  0  0  0  0
    2.3338   -2.8871    6.6067 C   0  0  2  0  0  0  0  0  0  0  0  0
    1.5193   -3.9753    7.3445 C   0  0  1  0  0  0  0  0  0  0  0  0
    0.6246   -3.5603    8.3560 O   0  0  0  0  0  0  0  0  0  0  0  0
    0.9595   -4.3267    5.9401 C   0  0  2  0  0  0  0  0  0  0  0  0
   -0.5563   -4.7235    5.9287 C   0  0  0  0  0  0  0  0  0  0  0  0
   -1.0199   -6.0288    6.5900 C   0  0  0  0  0  0  0  0  0  0  0  0
   -0.0328   -7.1684    6.5016 C   0  0  2  0  0  0  0  0  0  0  0  0
    1.1628   -2.8009    5.6232 C   0  0  1  0  0  0  0  0  0  0  0  0
    0.1557   -1.8770    6.0209 O   0  0  0  0  0  0  0  0  0  0  0  0
   -0.7105   -1.6323    4.8723 O   0  0  0  0  0  0  0  0  0  0  0  0
   -1.9260   -7.4634    1.7483 H   0  0  0  0  0  0  0  0  0  0  0  0
   -2.9582   -8.7878    2.5412 H   0  0  0  0  0  0  0  0  0  0  0  0
   -1.8111   -8.6278    4.5587 H   0  0  0  0  0  0  0  0  0  0  0  0
    0.3846   -7.4993    2.9894 H   0  0  0  0  0  0  0  0  0  0  0  0
   -0.5220   -6.1915    3.6548 H   0  0  0  0  0  0  0  0  0  0  0  0
   -0.9199   -9.6486    6.1837 H   0  0  0  0  0  0  0  0  0  0  0  0
    0.6198  -10.4246    6.5059 H   0  0  0  0  0  0  0  0  0  0  0  0
   -0.1740   -7.7598    9.3240 H   0  0  0  0  0  0  0  0  0  0  0  0
    0.0449   -9.4838    9.1276 H   0  0  0  0  0  0  0  0  0  0  0  0
   -1.3850   -8.7084    8.5257 H   0  0  0  0  0  0  0  0  0  0  0  0
    2.1923   -7.5971    8.3043 H   0  0  0  0  0  0  0  0  0  0  0  0
    2.3793   -9.2488    7.8159 H   0  0  0  0  0  0  0  0  0  0  0  0
    3.7878   -7.4279    6.4604 H   0  0  0  0  0  0  0  0  0  0  0  0
    3.0106   -8.6708    5.5922 H   0  0  0  0  0  0  0  0  0  0  0  0
    2.0740   -6.3484    6.2599 H   0  0  0  0  0  0  0  0  0  0  0  0
    2.3997   -3.9913    3.2456 H   0  0  0  0  0  0  0  0  0  0  0  0
    0.8397   -4.7270    3.2304 H   0  0  0  0  0  0  0  0  0  0  0  0
    2.2787   -5.7035    2.9360 H   0  0  0  0  0  0  0  0  0  0  0  0
    3.8283   -5.2201    6.3714 H   0  0  0  0  0  0  0  0  0  0  0  0
    6.1483   -4.1155    5.0485 H   0  0  0  0  0  0  0  0  0  0  0  0
    5.8331   -5.7130    5.7011 H   0  0  0  0  0  0  0  0  0  0  0  0
    7.5718   -5.8228    3.9101 H   0  0  0  0  0  0  0  0  0  0  0  0
    6.4215   -5.1694    2.7420 H   0  0  0  0  0  0  0  0  0  0  0  0
    6.1465   -6.7539    3.4656 H   0  0  0  0  0  0  0  0  0  0  0  0
    2.5011   -1.9677    7.1748 H   0  0  0  0  0  0  0  0  0  0  0  0
    2.1370   -4.7694    7.7809 H   0  0  0  0  0  0  0  0  0  0  0  0
    1.1075   -3.4664    9.1592 H   0  0  0  0  0  0  0  0  0  0  0  0
   -1.1328   -3.9214    6.4067 H   0  0  0  0  0  0  0  0  0  0  0  0
   -0.8222   -4.6906    4.8914 H   0  0  0  0  0  0  0  0  0  0  0  0
   -1.3593   -5.8217    7.6111 H   0  0  0  0  0  0  0  0  0  0  0  0
   -1.9417   -6.2468    6.0445 H   0  0  0  0  0  0  0  0  0  0  0  0
    0.4868   -6.5417    7.2085 H   0  0  0  0  0  0  0  0  0  0  0  0
    1.4954   -2.5630    4.6071 H   0  0  0  0  0  0  0  0  0  0  0  0
   -0.2489   -0.9352    4.4372 H   0  0  0  0  0  0  0  0  0  0  0  0
  1  2  2  0
  1 29  1  0
  1 30  1  0
  2  3  1  0
  2 31  1  0
  4  3  1  6
  3 32  1  0
  3 33  1  0
  4 11  1  0
  4 25  1  0
  4  5  1  0
  5  6  1  0
  6  7  1  0
  6 34  1  0
  6 35  1  0
  7 25  1  0
  7  8  1  1
  7  9  1  0
  8 36  1  0
  8 37  1  0
  8 38  1  0
  9 10  1  0
  9 39  1  0
  9 40  1  0
 10 11  1  0
 10 41  1  0
 10 42  1  0
 11 12  1  0
 11 43  1  6
 12 22  1  0
 12 13  1  6
 12 14  1  0
 13 44  1  0
 13 45  1  0
 13 46  1  0
 14 15  1  0
 14 18  1  0
 14 47  1  1
 15 16  1  0
 16 17  1  0
 16 48  1  0
 16 49  1  0
 17 50  1  0
 17 51  1  0
 17 52  1  0
 18 19  1  0
 19 26  1  0
 19 20  1  0
 19 53  1  1
 20 21  1  0
 20 22  1  0
 20 54  1  1
 21 55  1  0
 22 23  1  1
 22 26  1  0
 23 24  1  0
 23 56  1  0
 23 57  1  0
 24 25  1  0
 24 58  1  0
 24 59  1  0
 25 60  1  1
 26 27  1  0
 26 61  1  6
 27 28  1  0
 28 62  1  0
M  END
>  <i_m_ct_stereo_status>  (133) 
1

>  <s_m_source_file>  (133) 
/var/tmp/pbs.5076255.sched01/tmpqllwm4fg/43asec3i7m.sdf

>  <i_m_source_file_index>  (133) 
25

>  <i_lp_mmshare_version>  (133) 
48012

>  <i_f3d_flags>  (133) 
0

>  <s_epik_input>  (133) 
TzFbQ0gyXVtDQEBdKFtDSDNdKShbQ0gyXVtDSDJdMilbQ0BIXShbQ0gyXVtDSDJdMylDMShbQ0gyXVtDSF09W0NIMl0pW0NAQEhdMltDQF0oW0NAQF0zNDUpKFtDSDNdKVtDQEBIXShPW0NIMl1bQ0gzXSlPW0NASF0oW0NASF00W09IXSlbQ0BASF01T1tPSF0=

>  <s_epik_cmdline>  (133) 
J2VwaWtfcHl0aG9uJywgJy1waHQnLCAnMi4wJywgJy1waCcsICc3LjAnLCAnLXRuJywgJzgnLCAnLW1hJywgJzIwMCcsICctaW1hZScsICc8aW5maWxlLm1hZT4nLCAnLW9tYWUnLCAnPG91dGZpbGUubWFlPic=

>  <r_lp_tautomer_probability>  (133) 
1

>  <r_epik_Ionization_Penalty>  (133) 
1.46472e-05

>  <r_epik_Ionization_Penalty_Charging>  (133) 
0

>  <r_epik_Ionization_Penalty_Neutral>  (133) 
1.46472e-05

>  <r_epik_State_Penalty>  (133) 
-0

>  <r_epik_Charging_Adjusted_Penalty>  (133) 
0

>  <i_epik_Tot_Q>  (133) 
0

>  <i_epik_Tot_abs_Q>  (133) 
0

>  <s_epik_Chemistry_Notes>  (133) 
This compound contains an acetal/aminal-like group ( X-CH(R)-Y where X, Y are N, S, or O) that may be acid/base labile, releasing an aldehyde.

>  <s_lp_Force_Field>  (133) 
OPLS3e

>  <r_lp_Energy>  (133) 
175.99

>  <b_lp_Chiralities_Consistent>  (133) 
1

>  <s_lp_Variant>  (133) 
38:0-1

>  <s_i_glide_gridfile>  (133) 
pfpi4k_grid

>  <i_i_glide_lignum>  (133) 
25

>  <i_i_glide_rotatable_bonds>  (133) 
7

>  <r_i_docking_score>  (133) 
-0.519129

>  <r_i_glide_ligand_efficiency>  (133) 
-0.0185403

>  <r_i_glide_ligand_efficiency_sa>  (133) 
-0.0562994

>  <r_i_glide_ligand_efficiency_ln>  (133) 
-0.11983

>  <r_i_glide_gscore>  (133) 
-0.519129

>  <r_i_glide_lipo>  (133) 
-0.0419689

>  <r_i_glide_hbond>  (133) 
0

>  <r_i_glide_metal>  (133) 
-0

>  <r_i_glide_rewards>  (133) 
-0.719306

>  <r_i_glide_evdw>  (133) 
-0.900921

>  <r_i_glide_ecoul>  (133) 
-1.43441

>  <r_i_glide_erotb>  (133) 
0.502353

>  <r_i_glide_esite>  (133) 
0

>  <r_i_glide_emodel>  (133) 
1.24101

>  <r_i_glide_energy>  (133) 
-2.33533

>  <r_i_glide_einternal>  (133) 
5.19004

>  <r_i_glide_intrahb_reward>  (133) 
-0

>  <i_i_glide_confnum>  (133) 
1

>  <i_i_glide_posenum>  (133) 
11

>  <r_i_glide_eff_state_penalty>  (133) 
0

>  <ligand_id>  (133) 
38

>  <original_smiles>  (133) 
C=CCC12OCC3(C)CCC1C1(C)C(OCC)OC4C(O)C1(CCC32)C4OO

>  <smiles>  (133) 
[H]OOC1([H])C2([H])OC([H])(OC([H])([H])C([H])([H])[H])C3(C([H])([H])[H])C4([H])C([H])([H])C([H])([H])C5(C([H])([H])[H])C([H])([H])OC4(C([H])([H])C([H])=C([H])[H])C5([H])C([H])([H])C([H])([H])C13C2([H])O[H]

$$$$
40:0:0
     RDKit          3D

 52 57  0  0  1  0  0  0  0  0999 V2000
    3.0637   -4.6852    4.0357 C   0  0  0  0  0  0  0  0  0  0  0  0
    2.5019   -3.3857    4.1483 O   0  0  0  0  0  0  0  0  0  0  0  0
    3.1507   -2.3744    3.3830 C   0  0  1  0  0  0  0  0  0  0  0  0
    2.6000   -0.9816    3.7866 C   0  0  0  0  0  0  0  0  0  0  0  0
    3.7555    0.0228    3.5033 C   0  0  0  0  0  0  0  0  0  0  0  0
    4.9479   -0.8160    2.9265 C   0  0  1  0  0  0  0  0  0  0  0  0
    6.1984   -0.2623    3.2994 O   0  0  0  0  0  0  0  0  0  0  0  0
    4.6249   -2.0659    3.7825 C   0  0  0  0  0  0  0  0  0  0  0  0
    4.9157   -1.1045    1.3497 C   0  0  1  0  0  0  0  0  0  0  0  0
    4.1259   -0.0531    0.8201 O   0  0  0  0  0  0  0  0  0  0  0  0
    6.1477   -1.0898    0.3977 C   0  0  2  0  0  0  0  0  0  0  0  0
    5.7038   -1.2537   -1.1198 C   0  0  0  0  0  0  0  0  0  0  0  0
    4.4921   -2.1422   -1.4283 C   0  0  0  0  0  0  0  0  0  0  0  0
    3.9305   -2.5180   -2.6698 C   0  0  0  0  0  0  0  0  0  0  0  0
    2.7527   -3.3091   -2.6643 C   0  0  0  0  0  0  0  0  0  0  0  0
    2.1174   -3.7223   -1.4547 C   0  0  0  0  0  0  0  0  0  0  0  0
    1.0006   -4.5095   -1.5208 O   0  0  0  0  0  0  0  0  0  0  0  0
    2.6541   -3.3541   -0.2059 C   0  0  0  0  0  0  0  0  0  0  0  0
    3.8063   -2.6116   -0.3036 C   0  0  0  0  0  0  0  0  0  0  0  0
    4.2833   -2.4703    1.0789 C   0  0  1  0  0  0  0  0  0  0  0  0
    5.2496   -3.7026    1.2469 C   0  0  0  0  0  0  0  0  0  0  0  0
    6.6027   -3.5174    0.5571 C   0  0  0  0  0  0  0  0  0  0  0  0
    7.1229   -2.1523    0.7855 N   0  0  1  0  0  0  0  0  0  0  0  0
    8.4859   -1.9737    0.2225 C   0  0  0  0  0  0  0  0  0  0  0  0
    2.9672   -2.5602    1.8341 C   0  0  1  0  0  0  0  0  0  0  0  0
    2.2616   -3.5842    1.1088 O   0  0  0  0  0  0  0  0  0  0  0  0
    2.4675   -5.3892    4.6170 H   0  0  0  0  0  0  0  0  0  0  0  0
    4.0781   -4.7107    4.4325 H   0  0  0  0  0  0  0  0  0  0  0  0
    3.0831   -5.0520    3.0102 H   0  0  0  0  0  0  0  0  0  0  0  0
    1.6651   -0.7079    3.2933 H   0  0  0  0  0  0  0  0  0  0  0  0
    2.3714   -0.9773    4.8537 H   0  0  0  0  0  0  0  0  0  0  0  0
    3.4371    0.8885    2.9232 H   0  0  0  0  0  0  0  0  0  0  0  0
    4.0531    0.4521    4.4651 H   0  0  0  0  0  0  0  0  0  0  0  0
    6.6785    0.0355    2.5402 H   0  0  0  0  0  0  0  0  0  0  0  0
    4.6528   -1.8098    4.8429 H   0  0  0  0  0  0  0  0  0  0  0  0
    5.3645   -2.8495    3.7454 H   0  0  0  0  0  0  0  0  0  0  0  0
    3.2187   -0.1771    1.0661 H   0  0  0  0  0  0  0  0  0  0  0  0
    6.6512   -0.1349    0.4753 H   0  0  0  0  0  0  0  0  0  0  0  0
    5.4327   -0.2688   -1.4948 H   0  0  0  0  0  0  0  0  0  0  0  0
    6.5291   -1.5896   -1.7375 H   0  0  0  0  0  0  0  0  0  0  0  0
    4.4082   -2.2238   -3.6034 H   0  0  0  0  0  0  0  0  0  0  0  0
    2.3631   -3.6527   -3.6058 H   0  0  0  0  0  0  0  0  0  0  0  0
    0.7086   -4.6422   -2.4164 H   0  0  0  0  0  0  0  0  0  0  0  0
    5.4418   -4.0301    2.2504 H   0  0  0  0  0  0  0  0  0  0  0  0
    4.7891   -4.6031    0.8432 H   0  0  0  0  0  0  0  0  0  0  0  0
    7.3118   -4.2466    0.9368 H   0  0  0  0  0  0  0  0  0  0  0  0
    6.5221   -3.7234   -0.5074 H   0  0  0  0  0  0  0  0  0  0  0  0
    8.5172   -2.1418   -0.8544 H   0  0  0  0  0  0  0  0  0  0  0  0
    9.1795   -2.6905    0.6610 H   0  0  0  0  0  0  0  0  0  0  0  0
    8.8843   -0.9819    0.4289 H   0  0  0  0  0  0  0  0  0  0  0  0
    2.3619   -1.7000    1.5346 H   0  0  0  0  0  0  0  0  0  0  0  0
    7.2413   -2.0667    1.7869 H   0  0  0  0  0  0  0  0  0  0  0  0
  1  2  1  0
  1 27  1  0
  1 28  1  0
  1 29  1  0
  3  2  1  1
  3  8  1  0
  3 25  1  0
  3  4  1  0
  4  5  1  0
  4 30  1  0
  4 31  1  0
  5  6  1  0
  5 32  1  0
  5 33  1  0
  6  7  1  1
  6  8  1  0
  6  9  1  0
  7 34  1  0
  8 35  1  0
  8 36  1  0
  9 20  1  0
  9 10  1  6
  9 11  1  0
 10 37  1  0
 11 23  1  0
 11 12  1  0
 11 38  1  6
 12 13  1  0
 12 39  1  0
 12 40  1  0
 13 19  2  0
 13 14  1  0
 14 15  2  0
 14 41  1  0
 15 16  1  0
 15 42  1  0
 16 17  1  0
 16 18  2  0
 17 43  1  0
 18 26  1  0
 18 19  1  0
 19 20  1  0
 20 21  1  1
 20 25  1  0
 21 22  1  0
 21 44  1  0
 21 45  1  0
 22 23  1  0
 22 46  1  0
 22 47  1  0
 23 24  1  0
 23 52  1  1
 24 48  1  0
 24 49  1  0
 24 50  1  0
 25 26  1  0
 25 51  1  6
M  CHG  1  23   1
M  END
>  <i_m_ct_stereo_status>  (134) 
1

>  <s_m_source_file>  (134) 
/var/tmp/pbs.5076255.sched01/tmpqllwm4fg/43asec3i7m.sdf

>  <i_m_source_file_index>  (134) 
27

>  <i_lp_mmshare_version>  (134) 
48012

>  <i_f3d_flags>  (134) 
0

>  <s_epik_input>  (134) 
W09IXVtDQF0xKFtDQEBdMjM0KVtDQEBdNShbT0hdKVtDSDJdW0NIMl1bQ0BAXShbQ0gyXTUpKE9bQ0gzXSlbQ0BASF00T2M2YzJjKFtjSF1bY0hdYzZbT0hdKVtDSDJdW0NAQEhdMU4oW0NIM10pW0NIMl1bQ0gyXTM=

>  <s_epik_cmdline>  (134) 
J2VwaWtfcHl0aG9uJywgJy1waHQnLCAnMi4wJywgJy1waCcsICc3LjAnLCAnLXRuJywgJzgnLCAnLW1hJywgJzIwMCcsICctaW1hZScsICc8aW5maWxlLm1hZT4nLCAnLW9tYWUnLCAnPG91dGZpbGUubWFlPic=

>  <r_lp_tautomer_probability>  (134) 
1

>  <r_epik_Ionization_Penalty>  (134) 
0.107084

>  <r_epik_Ionization_Penalty_Charging>  (134) 
0.0979463

>  <r_epik_Ionization_Penalty_Neutral>  (134) 
0.00913781

>  <r_epik_State_Penalty>  (134) 
0.0940194

>  <r_epik_Charging_Adjusted_Penalty>  (134) 
0.191966

>  <i_epik_Tot_Q>  (134) 
1

>  <i_epik_Tot_abs_Q>  (134) 
1

>  <s_lp_Force_Field>  (134) 
OPLS3e

>  <r_lp_Energy>  (134) 
124.882

>  <b_lp_Chiralities_Consistent>  (134) 
1

>  <s_lp_Variant>  (134) 
40:0-1

>  <s_i_glide_gridfile>  (134) 
pfpi4k_grid

>  <i_i_glide_lignum>  (134) 
27

>  <i_i_glide_rotatable_bonds>  (134) 
4

>  <r_i_docking_score>  (134) 
-3.51035

>  <r_i_glide_ligand_efficiency>  (134) 
-0.135014

>  <r_i_glide_ligand_efficiency_sa>  (134) 
-0.399977

>  <r_i_glide_ligand_efficiency_ln>  (134) 
-0.824394

>  <r_i_glide_gscore>  (134) 
-3.51035

>  <r_i_glide_lipo>  (134) 
-0.549006

>  <r_i_glide_hbond>  (134) 
0

>  <r_i_glide_metal>  (134) 
-0

>  <r_i_glide_rewards>  (134) 
-0.951654

>  <r_i_glide_evdw>  (134) 
-15.6245

>  <r_i_glide_ecoul>  (134) 
-8.18977

>  <r_i_glide_erotb>  (134) 
0

>  <r_i_glide_esite>  (134) 
0

>  <r_i_glide_emodel>  (134) 
-32.3032

>  <r_i_glide_energy>  (134) 
-23.8143

>  <r_i_glide_einternal>  (134) 
1.49252

>  <r_i_glide_intrahb_reward>  (134) 
-0

>  <i_i_glide_confnum>  (134) 
2

>  <i_i_glide_posenum>  (134) 
26

>  <r_i_glide_eff_state_penalty>  (134) 
0

>  <ligand_id>  (134) 
40

>  <original_smiles>  (134) 
COC12CCC(O)(C1)C1(O)C3Cc4ccc(O)c5c4C1(CCN3C)C2O5

>  <smiles>  (134) 
[H]Oc1c([H])c([H])c2c3c1OC1([H])C4(OC([H])([H])[H])C([H])([H])C([H])([H])C(O[H])(C4([H])[H])C4(O[H])C31C([H])([H])C([H])([H])[N+]([H])(C([H])([H])[H])C4([H])C2([H])[H]

$$$$
40:0:1
     RDKit          3D

 52 57  0  0  1  0  0  0  0  0999 V2000
    3.0678   -4.6990    4.0126 C   0  0  0  0  0  0  0  0  0  0  0  0
    2.5188   -3.3949    4.1476 O   0  0  0  0  0  0  0  0  0  0  0  0
    3.1650   -2.3787    3.3845 C   0  0  1  0  0  0  0  0  0  0  0  0
    2.6133   -0.9895    3.7961 C   0  0  0  0  0  0  0  0  0  0  0  0
    3.7675    0.0188    3.5144 C   0  0  0  0  0  0  0  0  0  0  0  0
    4.9634   -0.8139    2.9307 C   0  0  1  0  0  0  0  0  0  0  0  0
    6.2156   -0.2606    3.3016 O   0  0  0  0  0  0  0  0  0  0  0  0
    4.6406   -2.0690    3.7823 C   0  0  0  0  0  0  0  0  0  0  0  0
    4.9306   -1.0935    1.3520 C   0  0  1  0  0  0  0  0  0  0  0  0
    4.1211   -0.0511    0.8281 O   0  0  0  0  0  0  0  0  0  0  0  0
    6.1628   -1.0860    0.3970 C   0  0  2  0  0  0  0  0  0  0  0  0
    5.7121   -1.2497   -1.1162 C   0  0  0  0  0  0  0  0  0  0  0  0
    4.5012   -2.1358   -1.4262 C   0  0  0  0  0  0  0  0  0  0  0  0
    3.9383   -2.5097   -2.6694 C   0  0  0  0  0  0  0  0  0  0  0  0
    2.7611   -3.3017   -2.6599 C   0  0  0  0  0  0  0  0  0  0  0  0
    2.1225   -3.7175   -1.4560 C   0  0  0  0  0  0  0  0  0  0  0  0
    1.0076   -4.5028   -1.5178 O   0  0  0  0  0  0  0  0  0  0  0  0
    2.6646   -3.3489   -0.1996 C   0  0  0  0  0  0  0  0  0  0  0  0
    3.8176   -2.6062   -0.3034 C   0  0  0  0  0  0  0  0  0  0  0  0
    4.2998   -2.4621    1.0800 C   0  0  1  0  0  0  0  0  0  0  0  0
    5.2633   -3.6963    1.2431 C   0  0  0  0  0  0  0  0  0  0  0  0
    6.6150   -3.5093    0.5550 C   0  0  0  0  0  0  0  0  0  0  0  0
    7.1356   -2.1465    0.7843 N   0  0  1  0  0  0  0  0  0  0  0  0
    8.4959   -1.9664    0.2210 C   0  0  0  0  0  0  0  0  0  0  0  0
    2.9809   -2.5522    1.8340 C   0  0  1  0  0  0  0  0  0  0  0  0
    2.2748   -3.5788    1.1117 O   0  0  0  0  0  0  0  0  0  0  0  0
    2.4744   -5.4037    4.5947 H   0  0  0  0  0  0  0  0  0  0  0  0
    4.0884   -4.7375    4.3912 H   0  0  0  0  0  0  0  0  0  0  0  0
    3.0670   -5.0565    2.9833 H   0  0  0  0  0  0  0  0  0  0  0  0
    1.6796   -0.7151    3.3030 H   0  0  0  0  0  0  0  0  0  0  0  0
    2.3846   -0.9894    4.8633 H   0  0  0  0  0  0  0  0  0  0  0  0
    3.4392    0.8815    2.9355 H   0  0  0  0  0  0  0  0  0  0  0  0
    4.0636    0.4456    4.4761 H   0  0  0  0  0  0  0  0  0  0  0  0
    6.6558    0.1212    2.5572 H   0  0  0  0  0  0  0  0  0  0  0  0
    4.6676   -1.8190    4.8438 H   0  0  0  0  0  0  0  0  0  0  0  0
    5.3787   -2.8525    3.7446 H   0  0  0  0  0  0  0  0  0  0  0  0
    4.5232    0.7939    0.9655 H   0  0  0  0  0  0  0  0  0  0  0  0
    6.6703   -0.1309    0.4747 H   0  0  0  0  0  0  0  0  0  0  0  0
    5.4401   -0.2683   -1.4952 H   0  0  0  0  0  0  0  0  0  0  0  0
    6.5365   -1.5784   -1.7390 H   0  0  0  0  0  0  0  0  0  0  0  0
    4.4151   -2.2111   -3.6015 H   0  0  0  0  0  0  0  0  0  0  0  0
    2.3709   -3.6443   -3.6083 H   0  0  0  0  0  0  0  0  0  0  0  0
    0.7152   -4.6545   -2.4154 H   0  0  0  0  0  0  0  0  0  0  0  0
    5.4584   -4.0290    2.2433 H   0  0  0  0  0  0  0  0  0  0  0  0
    4.8044   -4.5962    0.8418 H   0  0  0  0  0  0  0  0  0  0  0  0
    7.3253   -4.2412    0.9280 H   0  0  0  0  0  0  0  0  0  0  0  0
    6.5351   -3.7149   -0.5095 H   0  0  0  0  0  0  0  0  0  0  0  0
    8.5268   -2.1295   -0.8539 H   0  0  0  0  0  0  0  0  0  0  0  0
    9.1925   -2.6805    0.6539 H   0  0  0  0  0  0  0  0  0  0  0  0
    8.8941   -0.9756    0.4277 H   0  0  0  0  0  0  0  0  0  0  0  0
    2.3756   -1.6910    1.5359 H   0  0  0  0  0  0  0  0  0  0  0  0
    7.2541   -2.0620    1.7842 H   0  0  0  0  0  0  0  0  0  0  0  0
  1  2  1  0
  1 27  1  0
  1 28  1  0
  1 29  1  0
  3  2  1  1
  3  8  1  0
  3 25  1  0
  3  4  1  0
  4  5  1  0
  4 30  1  0
  4 31  1  0
  5  6  1  0
  5 32  1  0
  5 33  1  0
  6  7  1  1
  6  8  1  0
  6  9  1  0
  7 34  1  0
  8 35  1  0
  8 36  1  0
  9 20  1  0
  9 10  1  6
  9 11  1  0
 10 37  1  0
 11 23  1  0
 11 12  1  0
 11 38  1  6
 12 13  1  0
 12 39  1  0
 12 40  1  0
 13 19  2  0
 13 14  1  0
 14 15  2  0
 14 41  1  0
 15 16  1  0
 15 42  1  0
 16 17  1  0
 16 18  2  0
 17 43  1  0
 18 26  1  0
 18 19  1  0
 19 20  1  0
 20 21  1  1
 20 25  1  0
 21 22  1  0
 21 44  1  0
 21 45  1  0
 22 23  1  0
 22 46  1  0
 22 47  1  0
 23 24  1  0
 23 52  1  1
 24 48  1  0
 24 49  1  0
 24 50  1  0
 25 26  1  0
 25 51  1  6
M  CHG  1  23   1
M  END
>  <i_m_ct_stereo_status>  (135) 
1

>  <s_m_source_file>  (135) 
/var/tmp/pbs.5076255.sched01/tmpqllwm4fg/43asec3i7m.sdf

>  <i_m_source_file_index>  (135) 
27

>  <i_lp_mmshare_version>  (135) 
48012

>  <i_f3d_flags>  (135) 
0

>  <s_epik_input>  (135) 
W09IXVtDQF0xKFtDQEBdMjM0KVtDQEBdNShbT0hdKVtDSDJdW0NIMl1bQ0BAXShbQ0gyXTUpKE9bQ0gzXSlbQ0BASF00T2M2YzJjKFtjSF1bY0hdYzZbT0hdKVtDSDJdW0NAQEhdMU4oW0NIM10pW0NIMl1bQ0gyXTM=

>  <s_epik_cmdline>  (135) 
J2VwaWtfcHl0aG9uJywgJy1waHQnLCAnMi4wJywgJy1waCcsICc3LjAnLCAnLXRuJywgJzgnLCAnLW1hJywgJzIwMCcsICctaW1hZScsICc8aW5maWxlLm1hZT4nLCAnLW9tYWUnLCAnPG91dGZpbGUubWFlPic=

>  <r_lp_tautomer_probability>  (135) 
1

>  <r_epik_Ionization_Penalty>  (135) 
0.107084

>  <r_epik_Ionization_Penalty_Charging>  (135) 
0.0979463

>  <r_epik_Ionization_Penalty_Neutral>  (135) 
0.00913781

>  <r_epik_State_Penalty>  (135) 
0.0940194

>  <r_epik_Charging_Adjusted_Penalty>  (135) 
0.191966

>  <i_epik_Tot_Q>  (135) 
1

>  <i_epik_Tot_abs_Q>  (135) 
1

>  <s_lp_Force_Field>  (135) 
OPLS3e

>  <r_lp_Energy>  (135) 
124.882

>  <b_lp_Chiralities_Consistent>  (135) 
1

>  <s_lp_Variant>  (135) 
40:0-1

>  <s_i_glide_gridfile>  (135) 
pfpi4k_grid

>  <i_i_glide_lignum>  (135) 
27

>  <i_i_glide_rotatable_bonds>  (135) 
4

>  <r_i_docking_score>  (135) 
-3.44644

>  <r_i_glide_ligand_efficiency>  (135) 
-0.132556

>  <r_i_glide_ligand_efficiency_sa>  (135) 
-0.392695

>  <r_i_glide_ligand_efficiency_ln>  (135) 
-0.809386

>  <r_i_glide_gscore>  (135) 
-3.44644

>  <r_i_glide_lipo>  (135) 
-0.549156

>  <r_i_glide_hbond>  (135) 
0

>  <r_i_glide_metal>  (135) 
-0

>  <r_i_glide_rewards>  (135) 
-0.951654

>  <r_i_glide_evdw>  (135) 
-15.75

>  <r_i_glide_ecoul>  (135) 
-7.72089

>  <r_i_glide_erotb>  (135) 
0

>  <r_i_glide_esite>  (135) 
0

>  <r_i_glide_emodel>  (135) 
-31.8821

>  <r_i_glide_energy>  (135) 
-23.4709

>  <r_i_glide_einternal>  (135) 
1.19916

>  <r_i_glide_intrahb_reward>  (135) 
-0

>  <i_i_glide_confnum>  (135) 
2

>  <i_i_glide_posenum>  (135) 
11

>  <r_i_glide_eff_state_penalty>  (135) 
0

>  <ligand_id>  (135) 
40

>  <original_smiles>  (135) 
COC12CCC(O)(C1)C1(O)C3Cc4ccc(O)c5c4C1(CCN3C)C2O5

>  <smiles>  (135) 
[H]Oc1c([H])c([H])c2c3c1OC1([H])C4(OC([H])([H])[H])C([H])([H])C([H])([H])C(O[H])(C4([H])[H])C4(O[H])C31C([H])([H])C([H])([H])[N+]([H])(C([H])([H])[H])C4([H])C2([H])[H]

$$$$
40:0:2
     RDKit          3D

 52 57  0  0  1  0  0  0  0  0999 V2000
    5.6113   -4.8433    2.9354 C   0  0  0  0  0  0  0  0  0  0  0  0
    5.9949   -6.1323    3.4217 O   0  0  0  0  0  0  0  0  0  0  0  0
    5.3239   -7.2280    2.8082 C   0  0  1  0  0  0  0  0  0  0  0  0
    5.5774   -7.2832    1.2803 C   0  0  0  0  0  0  0  0  0  0  0  0
    5.4743   -8.7827    0.8963 C   0  0  0  0  0  0  0  0  0  0  0  0
    5.1594   -9.5811    2.2029 C   0  0  1  0  0  0  0  0  0  0  0  0
    5.7207  -10.8787    2.1376 O   0  0  0  0  0  0  0  0  0  0  0  0
    5.9837   -8.6183    3.1039 C   0  0  0  0  0  0  0  0  0  0  0  0
    3.6081   -9.6704    2.6166 C   0  0  1  0  0  0  0  0  0  0  0  0
    2.8956   -9.4536    1.4053 O   0  0  0  0  0  0  0  0  0  0  0  0
    2.9095  -10.9325    3.2260 C   0  0  2  0  0  0  0  0  0  0  0  0
    1.3426  -10.6903    3.3623 C   0  0  0  0  0  0  0  0  0  0  0  0
    0.8442   -9.2618    3.7093 C   0  0  0  0  0  0  0  0  0  0  0  0
   -0.4520   -8.7712    3.9781 C   0  0  0  0  0  0  0  0  0  0  0  0
   -0.6376   -7.3867    4.2515 C   0  0  0  0  0  0  0  0  0  0  0  0
    0.4460   -6.4669    4.2226 C   0  0  0  0  0  0  0  0  0  0  0  0
    0.2270   -5.1476    4.4812 O   0  0  0  0  0  0  0  0  0  0  0  0
    1.7481   -6.9228    3.9262 C   0  0  0  0  0  0  0  0  0  0  0  0
    1.8428   -8.2871    3.7251 C   0  0  0  0  0  0  0  0  0  0  0  0
    3.2815   -8.5675    3.6370 C   0  0  1  0  0  0  0  0  0  0  0  0
    3.6743   -8.8826    5.1353 C   0  0  0  0  0  0  0  0  0  0  0  0
    3.2436  -10.2824    5.5923 C   0  0  0  0  0  0  0  0  0  0  0  0
    3.5241  -11.2840    4.5384 N   0  0  1  0  0  0  0  0  0  0  0  0
    3.2075  -12.6531    5.0009 C   0  0  0  0  0  0  0  0  0  0  0  0
    3.7773   -7.2301    3.0998 C   0  0  1  0  0  0  0  0  0  0  0  0
    2.9646   -6.2702    3.8117 O   0  0  0  0  0  0  0  0  0  0  0  0
    6.1889   -4.0732    3.4378 H   0  0  0  0  0  0  0  0  0  0  0  0
    4.5645   -4.6099    3.1203 H   0  0  0  0  0  0  0  0  0  0  0  0
    5.7910   -4.7276    1.8667 H   0  0  0  0  0  0  0  0  0  0  0  0
    4.9059   -6.6534    0.6964 H   0  0  0  0  0  0  0  0  0  0  0  0
    6.5879   -6.9286    1.0644 H   0  0  0  0  0  0  0  0  0  0  0  0
    4.7747   -8.9390    0.0817 H   0  0  0  0  0  0  0  0  0  0  0  0
    6.4470   -9.0928    0.5101 H   0  0  0  0  0  0  0  0  0  0  0  0
    5.2212  -11.3868    1.4954 H   0  0  0  0  0  0  0  0  0  0  0  0
    7.0250   -8.5946    2.7701 H   0  0  0  0  0  0  0  0  0  0  0  0
    6.1143   -8.9326    4.1251 H   0  0  0  0  0  0  0  0  0  0  0  0
    3.0842  -10.1862    0.8349 H   0  0  0  0  0  0  0  0  0  0  0  0
    3.0672  -11.7811    2.5610 H   0  0  0  0  0  0  0  0  0  0  0  0
    0.8736  -10.9295    2.4101 H   0  0  0  0  0  0  0  0  0  0  0  0
    0.8895  -11.3870    4.0679 H   0  0  0  0  0  0  0  0  0  0  0  0
   -1.2961   -9.4454    3.9993 H   0  0  0  0  0  0  0  0  0  0  0  0
   -1.6287   -7.0394    4.4920 H   0  0  0  0  0  0  0  0  0  0  0  0
    1.0278   -4.6463    4.4746 H   0  0  0  0  0  0  0  0  0  0  0  0
    4.7130   -8.7630    5.3961 H   0  0  0  0  0  0  0  0  0  0  0  0
    3.2251   -8.1502    5.8077 H   0  0  0  0  0  0  0  0  0  0  0  0
    3.7756  -10.5491    6.5042 H   0  0  0  0  0  0  0  0  0  0  0  0
    2.1867  -10.2872    5.8649 H   0  0  0  0  0  0  0  0  0  0  0  0
    2.1517  -12.7292    5.2661 H   0  0  0  0  0  0  0  0  0  0  0  0
    3.7856  -12.9042    5.8925 H   0  0  0  0  0  0  0  0  0  0  0  0
    3.4447  -13.3911    4.2348 H   0  0  0  0  0  0  0  0  0  0  0  0
    3.3432   -7.1087    2.1069 H   0  0  0  0  0  0  0  0  0  0  0  0
    4.5218  -11.2799    4.3798 H   0  0  0  0  0  0  0  0  0  0  0  0
  1  2  1  0
  1 27  1  0
  1 28  1  0
  1 29  1  0
  3  2  1  1
  3  8  1  0
  3 25  1  0
  3  4  1  0
  4  5  1  0
  4 30  1  0
  4 31  1  0
  5  6  1  0
  5 32  1  0
  5 33  1  0
  6  7  1  6
  6  8  1  0
  6  9  1  0
  7 34  1  0
  8 35  1  0
  8 36  1  0
  9 20  1  0
  9 10  1  6
  9 11  1  0
 10 37  1  0
 11 23  1  0
 11 12  1  0
 11 38  1  6
 12 13  1  0
 12 39  1  0
 12 40  1  0
 13 19  2  0
 13 14  1  0
 14 15  2  0
 14 41  1  0
 15 16  1  0
 15 42  1  0
 16 17  1  0
 16 18  2  0
 17 43  1  0
 18 26  1  0
 18 19  1  0
 19 20  1  0
 20 21  1  1
 20 25  1  0
 21 22  1  0
 21 44  1  0
 21 45  1  0
 22 23  1  0
 22 46  1  0
 22 47  1  0
 23 24  1  0
 23 52  1  6
 24 48  1  0
 24 49  1  0
 24 50  1  0
 25 26  1  0
 25 51  1  6
M  CHG  1  23   1
M  END
>  <i_m_ct_stereo_status>  (136) 
1

>  <s_m_source_file>  (136) 
/var/tmp/pbs.5076255.sched01/tmpqllwm4fg/43asec3i7m.sdf

>  <i_m_source_file_index>  (136) 
27

>  <i_lp_mmshare_version>  (136) 
48012

>  <i_f3d_flags>  (136) 
0

>  <s_epik_input>  (136) 
W09IXVtDQF0xKFtDQEBdMjM0KVtDQEBdNShbT0hdKVtDSDJdW0NIMl1bQ0BAXShbQ0gyXTUpKE9bQ0gzXSlbQ0BASF00T2M2YzJjKFtjSF1bY0hdYzZbT0hdKVtDSDJdW0NAQEhdMU4oW0NIM10pW0NIMl1bQ0gyXTM=

>  <s_epik_cmdline>  (136) 
J2VwaWtfcHl0aG9uJywgJy1waHQnLCAnMi4wJywgJy1waCcsICc3LjAnLCAnLXRuJywgJzgnLCAnLW1hJywgJzIwMCcsICctaW1hZScsICc8aW5maWxlLm1hZT4nLCAnLW9tYWUnLCAnPG91dGZpbGUubWFlPic=

>  <r_lp_tautomer_probability>  (136) 
1

>  <r_epik_Ionization_Penalty>  (136) 
0.107084

>  <r_epik_Ionization_Penalty_Charging>  (136) 
0.0979463

>  <r_epik_Ionization_Penalty_Neutral>  (136) 
0.00913781

>  <r_epik_State_Penalty>  (136) 
0.0940194

>  <r_epik_Charging_Adjusted_Penalty>  (136) 
0.191966

>  <i_epik_Tot_Q>  (136) 
1

>  <i_epik_Tot_abs_Q>  (136) 
1

>  <s_lp_Force_Field>  (136) 
OPLS3e

>  <r_lp_Energy>  (136) 
124.882

>  <b_lp_Chiralities_Consistent>  (136) 
1

>  <s_lp_Variant>  (136) 
40:0-1

>  <s_i_glide_gridfile>  (136) 
pfpi4k_grid

>  <i_i_glide_lignum>  (136) 
27

>  <i_i_glide_rotatable_bonds>  (136) 
4

>  <r_i_docking_score>  (136) 
-3.39857

>  <r_i_glide_ligand_efficiency>  (136) 
-0.130714

>  <r_i_glide_ligand_efficiency_sa>  (136) 
-0.387241

>  <r_i_glide_ligand_efficiency_ln>  (136) 
-0.798144

>  <r_i_glide_gscore>  (136) 
-3.39857

>  <r_i_glide_lipo>  (136) 
-0.26932

>  <r_i_glide_hbond>  (136) 
0

>  <r_i_glide_metal>  (136) 
-0

>  <r_i_glide_rewards>  (136) 
-0.951654

>  <r_i_glide_evdw>  (136) 
-17.5986

>  <r_i_glide_ecoul>  (136) 
-8.51097

>  <r_i_glide_erotb>  (136) 
0

>  <r_i_glide_esite>  (136) 
-0.0210241

>  <r_i_glide_emodel>  (136) 
-34.6505

>  <r_i_glide_energy>  (136) 
-26.1096

>  <r_i_glide_einternal>  (136) 
1.14538

>  <r_i_glide_intrahb_reward>  (136) 
-0

>  <i_i_glide_confnum>  (136) 
1

>  <i_i_glide_posenum>  (136) 
31

>  <r_i_glide_eff_state_penalty>  (136) 
0

>  <ligand_id>  (136) 
40

>  <original_smiles>  (136) 
COC12CCC(O)(C1)C1(O)C3Cc4ccc(O)c5c4C1(CCN3C)C2O5

>  <smiles>  (136) 
[H]Oc1c([H])c([H])c2c3c1OC1([H])C4(OC([H])([H])[H])C([H])([H])C([H])([H])C(O[H])(C4([H])[H])C4(O[H])C31C([H])([H])C([H])([H])[N+]([H])(C([H])([H])[H])C4([H])C2([H])[H]

$$$$
40:1:0
     RDKit          3D

 51 56  0  0  1  0  0  0  0  0999 V2000
    4.0013   -5.3425    3.4289 C   0  0  0  0  0  0  0  0  0  0  0  0
    3.2574   -4.2029    3.8378 O   0  0  0  0  0  0  0  0  0  0  0  0
    3.5608   -2.9978    3.1486 C   0  0  1  0  0  0  0  0  0  0  0  0
    2.8957   -1.8038    3.8707 C   0  0  0  0  0  0  0  0  0  0  0  0
    3.7710   -0.5709    3.5093 C   0  0  0  0  0  0  0  0  0  0  0  0
    4.9508   -1.0944    2.6177 C   0  0  1  0  0  0  0  0  0  0  0  0
    6.0890   -0.3254    2.9108 O   0  0  0  0  0  0  0  0  0  0  0  0
    5.0163   -2.4744    3.3154 C   0  0  0  0  0  0  0  0  0  0  0  0
    4.6784   -1.1958    1.0301 C   0  0  1  0  0  0  0  0  0  0  0  0
    3.6402   -0.2429    0.8369 O   0  0  0  0  0  0  0  0  0  0  0  0
    5.6824   -0.8952   -0.1545 C   0  0  2  0  0  0  0  0  0  0  0  0
    4.9124   -0.8780   -1.5280 C   0  0  0  0  0  0  0  0  0  0  0  0
    3.7830   -1.8934   -1.7246 C   0  0  0  0  0  0  0  0  0  0  0  0
    3.0126   -2.1726   -2.8617 C   0  0  0  0  0  0  0  0  0  0  0  0
    1.9980   -3.1583   -2.7597 C   0  0  0  0  0  0  0  0  0  0  0  0
    1.7160   -3.8506   -1.5515 C   0  0  0  0  0  0  0  0  0  0  0  0
    0.7091   -4.7659   -1.5199 O   0  0  0  0  0  0  0  0  0  0  0  0
    2.4494   -3.5710   -0.3829 C   0  0  0  0  0  0  0  0  0  0  0  0
    3.4428   -2.6334   -0.5763 C   0  0  0  0  0  0  0  0  0  0  0  0
    4.1906   -2.6002    0.6883 C   0  0  1  0  0  0  0  0  0  0  0  0
    5.3198   -3.6778    0.4632 C   0  0  0  0  0  0  0  0  0  0  0  0
    6.3903   -3.2077   -0.5306 C   0  0  0  0  0  0  0  0  0  0  0  0
    6.8175   -1.8277   -0.3164 N   0  0  0  0  0  0  0  0  0  0  0  0
    7.8046   -1.7188    0.7207 C   0  0  0  0  0  0  0  0  0  0  0  0
    3.0832   -3.0011    1.6559 C   0  0  1  0  0  0  0  0  0  0  0  0
    2.3752   -4.0266    0.9288 O   0  0  0  0  0  0  0  0  0  0  0  0
    3.6586   -6.2163    3.9826 H   0  0  0  0  0  0  0  0  0  0  0  0
    5.0621   -5.2164    3.6409 H   0  0  0  0  0  0  0  0  0  0  0  0
    3.8805   -5.5628    2.3679 H   0  0  0  0  0  0  0  0  0  0  0  0
    1.8429   -1.6614    3.6263 H   0  0  0  0  0  0  0  0  0  0  0  0
    2.9310   -1.9635    4.9500 H   0  0  0  0  0  0  0  0  0  0  0  0
    3.1916    0.2578    3.1061 H   0  0  0  0  0  0  0  0  0  0  0  0
    4.1780   -0.1756    4.4408 H   0  0  0  0  0  0  0  0  0  0  0  0
    6.7464   -0.4941    2.2519 H   0  0  0  0  0  0  0  0  0  0  0  0
    5.2302   -2.3421    4.3764 H   0  0  0  0  0  0  0  0  0  0  0  0
    5.8306   -3.1077    3.0173 H   0  0  0  0  0  0  0  0  0  0  0  0
    2.9717   -0.6074    0.2694 H   0  0  0  0  0  0  0  0  0  0  0  0
    6.0948    0.1042    0.0029 H   0  0  0  0  0  0  0  0  0  0  0  0
    4.4619    0.0925   -1.6969 H   0  0  0  0  0  0  0  0  0  0  0  0
    5.6145   -1.0084   -2.3488 H   0  0  0  0  0  0  0  0  0  0  0  0
    3.1811   -1.6576   -3.8035 H   0  0  0  0  0  0  0  0  0  0  0  0
    1.4323   -3.3819   -3.6527 H   0  0  0  0  0  0  0  0  0  0  0  0
    0.3667   -4.8868   -2.4353 H   0  0  0  0  0  0  0  0  0  0  0  0
    5.8362   -4.0189    1.3401 H   0  0  0  0  0  0  0  0  0  0  0  0
    4.8869   -4.6126    0.1001 H   0  0  0  0  0  0  0  0  0  0  0  0
    7.2478   -3.8787   -0.4913 H   0  0  0  0  0  0  0  0  0  0  0  0
    5.9938   -3.3106   -1.5385 H   0  0  0  0  0  0  0  0  0  0  0  0
    8.6997   -2.2887    0.4688 H   0  0  0  0  0  0  0  0  0  0  0  0
    7.3515   -2.1101    1.6285 H   0  0  0  0  0  0  0  0  0  0  0  0
    8.1171   -0.6855    0.8714 H   0  0  0  0  0  0  0  0  0  0  0  0
    2.3261   -2.2141    1.6170 H   0  0  0  0  0  0  0  0  0  0  0  0
  1  2  1  0
  1 27  1  0
  1 28  1  0
  1 29  1  0
  3  2  1  1
  3  8  1  0
  3 25  1  0
  3  4  1  0
  4  5  1  0
  4 30  1  0
  4 31  1  0
  5  6  1  0
  5 32  1  0
  5 33  1  0
  6  7  1  6
  6  8  1  0
  6  9  1  0
  7 34  1  0
  8 35  1  0
  8 36  1  0
  9 20  1  0
  9 10  1  6
  9 11  1  0
 10 37  1  0
 11 23  1  0
 11 12  1  0
 11 38  1  1
 12 13  1  0
 12 39  1  0
 12 40  1  0
 13 19  2  0
 13 14  1  0
 14 15  2  0
 14 41  1  0
 15 16  1  0
 15 42  1  0
 16 17  1  0
 16 18  2  0
 17 43  1  0
 18 26  1  0
 18 19  1  0
 19 20  1  0
 20 21  1  6
 20 25  1  0
 21 22  1  0
 21 44  1  0
 21 45  1  0
 22 23  1  0
 22 46  1  0
 22 47  1  0
 23 24  1  0
 24 48  1  0
 24 49  1  0
 24 50  1  0
 25 26  1  0
 25 51  1  1
M  END
>  <i_m_ct_stereo_status>  (137) 
1

>  <s_m_source_file>  (137) 
/var/tmp/pbs.5076255.sched01/tmpqllwm4fg/43asec3i7m.sdf

>  <i_m_source_file_index>  (137) 
28

>  <i_lp_mmshare_version>  (137) 
48012

>  <i_f3d_flags>  (137) 
0

>  <s_epik_input>  (137) 
W09IXVtDQF0xKFtDQEBdMjM0KVtDQEBdNShbT0hdKVtDSDJdW0NIMl1bQ0BAXShbQ0gyXTUpKE9bQ0gzXSlbQ0BASF00T2M2YzJjKFtjSF1bY0hdYzZbT0hdKVtDSDJdW0NAQEhdMU4oW0NIM10pW0NIMl1bQ0gyXTM=

>  <s_epik_cmdline>  (137) 
J2VwaWtfcHl0aG9uJywgJy1waHQnLCAnMi4wJywgJy1waCcsICc3LjAnLCAnLXRuJywgJzgnLCAnLW1hJywgJzIwMCcsICctaW1hZScsICc8aW5maWxlLm1hZT4nLCAnLW9tYWUnLCAnPG91dGZpbGUubWFlPic=

>  <r_lp_tautomer_probability>  (137) 
1

>  <r_epik_Ionization_Penalty>  (137) 
1.11523

>  <r_epik_Ionization_Penalty_Charging>  (137) 
0

>  <r_epik_Ionization_Penalty_Neutral>  (137) 
1.11523

>  <r_epik_State_Penalty>  (137) 
1.179

>  <r_epik_Charging_Adjusted_Penalty>  (137) 
1.179

>  <i_epik_Tot_Q>  (137) 
0

>  <i_epik_Tot_abs_Q>  (137) 
0

>  <s_lp_Force_Field>  (137) 
OPLS3e

>  <r_lp_Energy>  (137) 
125.115

>  <b_lp_Chiralities_Consistent>  (137) 
1

>  <s_lp_Variant>  (137) 
40:0-2

>  <s_i_glide_gridfile>  (137) 
pfpi4k_grid

>  <i_i_glide_lignum>  (137) 
28

>  <i_i_glide_rotatable_bonds>  (137) 
4

>  <r_i_docking_score>  (137) 
-3.9807

>  <r_i_glide_ligand_efficiency>  (137) 
-0.153104

>  <r_i_glide_ligand_efficiency_sa>  (137) 
-0.45357

>  <r_i_glide_ligand_efficiency_ln>  (137) 
-0.934855

>  <r_i_glide_gscore>  (137) 
-3.9807

>  <r_i_glide_lipo>  (137) 
-0.52049

>  <r_i_glide_hbond>  (137) 
-0.130926

>  <r_i_glide_metal>  (137) 
-0

>  <r_i_glide_rewards>  (137) 
-0.958526

>  <r_i_glide_evdw>  (137) 
-6.7781

>  <r_i_glide_ecoul>  (137) 
-13.5457

>  <r_i_glide_erotb>  (137) 
0

>  <r_i_glide_esite>  (137) 
0

>  <r_i_glide_emodel>  (137) 
-25.2029

>  <r_i_glide_energy>  (137) 
-20.3238

>  <r_i_glide_einternal>  (137) 
1.20639

>  <r_i_glide_intrahb_reward>  (137) 
-0

>  <i_i_glide_confnum>  (137) 
2

>  <i_i_glide_posenum>  (137) 
40

>  <r_i_glide_eff_state_penalty>  (137) 
0

>  <ligand_id>  (137) 
40

>  <original_smiles>  (137) 
COC12CCC(O)(C1)C1(O)C3Cc4ccc(O)c5c4C1(CCN3C)C2O5

>  <smiles>  (137) 
[H]Oc1c([H])c([H])c2c3c1OC1([H])C4(OC([H])([H])[H])C([H])([H])C([H])([H])C(O[H])(C4([H])[H])C4(O[H])C([H])(N(C([H])([H])[H])C([H])([H])C([H])([H])C314)C2([H])[H]

$$$$
40:1:1
     RDKit          3D

 51 56  0  0  1  0  0  0  0  0999 V2000
    3.7970   -5.2017    3.5347 C   0  0  0  0  0  0  0  0  0  0  0  0
    3.0762   -4.0287    3.9061 O   0  0  0  0  0  0  0  0  0  0  0  0
    3.4212   -2.8587    3.1882 C   0  0  1  0  0  0  0  0  0  0  0  0
    2.7458   -1.6280    3.8371 C   0  0  0  0  0  0  0  0  0  0  0  0
    3.6534   -0.4133    3.4703 C   0  0  0  0  0  0  0  0  0  0  0  0
    4.8508   -0.9919    2.6389 C   0  0  1  0  0  0  0  0  0  0  0  0
    6.0206   -0.2759    2.9482 O   0  0  0  0  0  0  0  0  0  0  0  0
    4.8757   -2.3468    3.3866 C   0  0  0  0  0  0  0  0  0  0  0  0
    4.6411   -1.1492    1.0467 C   0  0  1  0  0  0  0  0  0  0  0  0
    3.6134   -0.2077    0.8070 O   0  0  0  0  0  0  0  0  0  0  0  0
    5.6813   -0.8916   -0.1111 C   0  0  2  0  0  0  0  0  0  0  0  0
    4.9643   -0.8992   -1.4912 C   0  0  0  0  0  0  0  0  0  0  0  0
    3.8264   -1.8931   -1.7255 C   0  0  0  0  0  0  0  0  0  0  0  0
    3.0909   -2.2075   -2.8804 C   0  0  0  0  0  0  0  0  0  0  0  0
    2.0549   -3.1736   -2.7692 C   0  0  0  0  0  0  0  0  0  0  0  0
    1.7268   -3.8283   -1.5297 C   0  0  0  0  0  0  0  0  0  0  0  0
    0.7094   -4.7269   -1.5206 O   0  0  0  0  0  0  0  0  0  0  0  0
    2.4349   -3.5376   -0.3445 C   0  0  0  0  0  0  0  0  0  0  0  0
    3.4507   -2.6047   -0.5734 C   0  0  0  0  0  0  0  0  0  0  0  0
    4.1506   -2.5377    0.7296 C   0  0  1  0  0  0  0  0  0  0  0  0
    5.2681   -3.6434    0.5715 C   0  0  0  0  0  0  0  0  0  0  0  0
    6.3806   -3.2149   -0.3941 C   0  0  0  0  0  0  0  0  0  0  0  0
    6.8132   -1.8351   -0.2375 N   0  0  0  0  0  0  0  0  0  0  0  0
    7.7898   -1.7032    0.8053 C   0  0  0  0  0  0  0  0  0  0  0  0
    2.9972   -2.8993    1.6833 C   0  0  1  0  0  0  0  0  0  0  0  0
    2.3124   -3.9528    0.9670 O   0  0  0  0  0  0  0  0  0  0  0  0
    3.4226   -6.0473    4.1057 H   0  0  0  0  0  0  0  0  0  0  0  0
    4.8560   -5.0940    3.7489 H   0  0  0  0  0  0  0  0  0  0  0  0
    3.6759   -5.4478    2.4792 H   0  0  0  0  0  0  0  0  0  0  0  0
    1.7034   -1.4819    3.5533 H   0  0  0  0  0  0  0  0  0  0  0  0
    2.7403   -1.7499    4.9249 H   0  0  0  0  0  0  0  0  0  0  0  0
    3.0939    0.4037    3.0185 H   0  0  0  0  0  0  0  0  0  0  0  0
    4.0197    0.0047    4.4018 H   0  0  0  0  0  0  0  0  0  0  0  0
    6.0195   -0.0111    3.8381 H   0  0  0  0  0  0  0  0  0  0  0  0
    5.0459   -2.1795    4.4482 H   0  0  0  0  0  0  0  0  0  0  0  0
    5.7081   -2.9924    3.1382 H   0  0  0  0  0  0  0  0  0  0  0  0
    2.9864   -0.5484    0.1899 H   0  0  0  0  0  0  0  0  0  0  0  0
    6.1026    0.1112    0.0385 H   0  0  0  0  0  0  0  0  0  0  0  0
    4.5461    0.0848   -1.7135 H   0  0  0  0  0  0  0  0  0  0  0  0
    5.6868   -1.0658   -2.2966 H   0  0  0  0  0  0  0  0  0  0  0  0
    3.2944   -1.7416   -3.8226 H   0  0  0  0  0  0  0  0  0  0  0  0
    1.5119   -3.3967   -3.6665 H   0  0  0  0  0  0  0  0  0  0  0  0
    0.3803   -4.8343   -2.4187 H   0  0  0  0  0  0  0  0  0  0  0  0
    5.7412   -3.9582    1.4955 H   0  0  0  0  0  0  0  0  0  0  0  0
    4.8309   -4.5844    0.2464 H   0  0  0  0  0  0  0  0  0  0  0  0
    7.2158   -3.9000   -0.2885 H   0  0  0  0  0  0  0  0  0  0  0  0
    6.0063   -3.3613   -1.4036 H   0  0  0  0  0  0  0  0  0  0  0  0
    8.6908   -2.2914    0.6146 H   0  0  0  0  0  0  0  0  0  0  0  0
    7.2775   -2.0771    1.6632 H   0  0  0  0  0  0  0  0  0  0  0  0
    8.0886   -0.6560    0.9651 H   0  0  0  0  0  0  0  0  0  0  0  0
    2.2532   -2.1116    1.5824 H   0  0  0  0  0  0  0  0  0  0  0  0
  1  2  1  0
  1 27  1  0
  1 28  1  0
  1 29  1  0
  3  2  1  1
  3  8  1  0
  3 25  1  0
  3  4  1  0
  4  5  1  0
  4 30  1  0
  4 31  1  0
  5  6  1  0
  5 32  1  0
  5 33  1  0
  6  7  1  6
  6  8  1  0
  6  9  1  0
  7 34  1  0
  8 35  1  0
  8 36  1  0
  9 20  1  0
  9 10  1  6
  9 11  1  0
 10 37  1  0
 11 23  1  0
 11 12  1  0
 11 38  1  1
 12 13  1  0
 12 39  1  0
 12 40  1  0
 13 19  2  0
 13 14  1  0
 14 15  2  0
 14 41  1  0
 15 16  1  0
 15 42  1  0
 16 17  1  0
 16 18  2  0
 17 43  1  0
 18 26  1  0
 18 19  1  0
 19 20  1  0
 20 21  1  6
 20 25  1  0
 21 22  1  0
 21 44  1  0
 21 45  1  0
 22 23  1  0
 22 46  1  0
 22 47  1  0
 23 24  1  0
 24 48  1  0
 24 49  1  0
 24 50  1  0
 25 26  1  0
 25 51  1  1
M  END
>  <i_m_ct_stereo_status>  (138) 
1

>  <s_m_source_file>  (138) 
/var/tmp/pbs.5076255.sched01/tmpqllwm4fg/43asec3i7m.sdf

>  <i_m_source_file_index>  (138) 
28

>  <i_lp_mmshare_version>  (138) 
48012

>  <i_f3d_flags>  (138) 
0

>  <s_epik_input>  (138) 
W09IXVtDQF0xKFtDQEBdMjM0KVtDQEBdNShbT0hdKVtDSDJdW0NIMl1bQ0BAXShbQ0gyXTUpKE9bQ0gzXSlbQ0BASF00T2M2YzJjKFtjSF1bY0hdYzZbT0hdKVtDSDJdW0NAQEhdMU4oW0NIM10pW0NIMl1bQ0gyXTM=

>  <s_epik_cmdline>  (138) 
J2VwaWtfcHl0aG9uJywgJy1waHQnLCAnMi4wJywgJy1waCcsICc3LjAnLCAnLXRuJywgJzgnLCAnLW1hJywgJzIwMCcsICctaW1hZScsICc8aW5maWxlLm1hZT4nLCAnLW9tYWUnLCAnPG91dGZpbGUubWFlPic=

>  <r_lp_tautomer_probability>  (138) 
1

>  <r_epik_Ionization_Penalty>  (138) 
1.11523

>  <r_epik_Ionization_Penalty_Charging>  (138) 
0

>  <r_epik_Ionization_Penalty_Neutral>  (138) 
1.11523

>  <r_epik_State_Penalty>  (138) 
1.179

>  <r_epik_Charging_Adjusted_Penalty>  (138) 
1.179

>  <i_epik_Tot_Q>  (138) 
0

>  <i_epik_Tot_abs_Q>  (138) 
0

>  <s_lp_Force_Field>  (138) 
OPLS3e

>  <r_lp_Energy>  (138) 
125.115

>  <b_lp_Chiralities_Consistent>  (138) 
1

>  <s_lp_Variant>  (138) 
40:0-2

>  <s_i_glide_gridfile>  (138) 
pfpi4k_grid

>  <i_i_glide_lignum>  (138) 
28

>  <i_i_glide_rotatable_bonds>  (138) 
4

>  <r_i_docking_score>  (138) 
-3.62745

>  <r_i_glide_ligand_efficiency>  (138) 
-0.139517

>  <r_i_glide_ligand_efficiency_sa>  (138) 
-0.41332

>  <r_i_glide_ligand_efficiency_ln>  (138) 
-0.851895

>  <r_i_glide_gscore>  (138) 
-3.62745

>  <r_i_glide_lipo>  (138) 
-0.531332

>  <r_i_glide_hbond>  (138) 
-0.108666

>  <r_i_glide_metal>  (138) 
-0

>  <r_i_glide_rewards>  (138) 
-0.958526

>  <r_i_glide_evdw>  (138) 
-7.41419

>  <r_i_glide_ecoul>  (138) 
-11.0548

>  <r_i_glide_erotb>  (138) 
0

>  <r_i_glide_esite>  (138) 
0

>  <r_i_glide_emodel>  (138) 
-22.5042

>  <r_i_glide_energy>  (138) 
-18.469

>  <r_i_glide_einternal>  (138) 
0.986328

>  <r_i_glide_intrahb_reward>  (138) 
-0

>  <i_i_glide_confnum>  (138) 
2

>  <i_i_glide_posenum>  (138) 
2

>  <r_i_glide_eff_state_penalty>  (138) 
0

>  <ligand_id>  (138) 
40

>  <original_smiles>  (138) 
COC12CCC(O)(C1)C1(O)C3Cc4ccc(O)c5c4C1(CCN3C)C2O5

>  <smiles>  (138) 
[H]Oc1c([H])c([H])c2c3c1OC1([H])C4(OC([H])([H])[H])C([H])([H])C([H])([H])C(O[H])(C4([H])[H])C4(O[H])C([H])(N(C([H])([H])[H])C([H])([H])C([H])([H])C314)C2([H])[H]

$$$$
40:1:2
     RDKit          3D

 51 56  0  0  1  0  0  0  0  0999 V2000
    3.9519    3.5983    6.6297 C   0  0  0  0  0  0  0  0  0  0  0  0
    4.3067    2.8333    5.4842 O   0  0  0  0  0  0  0  0  0  0  0  0
    3.4059    1.7947    5.1403 C   0  0  1  0  0  0  0  0  0  0  0  0
    4.0133    0.9277    4.0117 C   0  0  0  0  0  0  0  0  0  0  0  0
    3.3623   -0.4773    4.1705 C   0  0  0  0  0  0  0  0  0  0  0  0
    2.4102   -0.4033    5.4163 C   0  0  1  0  0  0  0  0  0  0  0  0
    2.3954   -1.6610    6.0764 O   0  0  0  0  0  0  0  0  0  0  0  0
    3.2975    0.6243    6.1695 C   0  0  0  0  0  0  0  0  0  0  0  0
    0.9156    0.1318    5.1458 C   0  0  1  0  0  0  0  0  0  0  0  0
    0.6889   -0.2010    3.7776 O   0  0  0  0  0  0  0  0  0  0  0  0
   -0.4142   -0.3588    5.8333 C   0  0  2  0  0  0  0  0  0  0  0  0
   -1.6568    0.2524    5.0850 C   0  0  0  0  0  0  0  0  0  0  0  0
   -1.5613    1.7009    4.5634 C   0  0  0  0  0  0  0  0  0  0  0  0
   -2.5182    2.5429    3.9601 C   0  0  0  0  0  0  0  0  0  0  0  0
   -2.1514    3.8564    3.5497 C   0  0  0  0  0  0  0  0  0  0  0  0
   -0.8254    4.3385    3.6956 C   0  0  0  0  0  0  0  0  0  0  0  0
   -0.5222    5.5907    3.2793 O   0  0  0  0  0  0  0  0  0  0  0  0
    0.1966    3.5032    4.2440 C   0  0  0  0  0  0  0  0  0  0  0  0
   -0.2874    2.2727    4.6659 C   0  0  0  0  0  0  0  0  0  0  0  0
    0.8513    1.6433    5.3711 C   0  0  1  0  0  0  0  0  0  0  0  0
    0.6502    2.1044    6.8688 C   0  0  0  0  0  0  0  0  0  0  0  0
   -0.5159    1.3808    7.5483 C   0  0  0  0  0  0  0  0  0  0  0  0
   -0.5365   -0.0488    7.2705 N   0  0  0  0  0  0  0  0  0  0  0  0
    0.3076   -0.8245    8.1612 C   0  0  0  0  0  0  0  0  0  0  0  0
    2.0108    2.3224    4.6443 C   0  0  1  0  0  0  0  0  0  0  0  0
    1.5397    3.6800    4.4512 O   0  0  0  0  0  0  0  0  0  0  0  0
    4.6765    4.3990    6.7694 H   0  0  0  0  0  0  0  0  0  0  0  0
    3.9582    2.9809    7.5245 H   0  0  0  0  0  0  0  0  0  0  0  0
    2.9726    4.0644    6.5311 H   0  0  0  0  0  0  0  0  0  0  0  0
    3.8638    1.3415    3.0160 H   0  0  0  0  0  0  0  0  0  0  0  0
    5.0948    0.8457    4.1538 H   0  0  0  0  0  0  0  0  0  0  0  0
    2.9244   -0.8407    3.2420 H   0  0  0  0  0  0  0  0  0  0  0  0
    4.1721   -1.1791    4.3713 H   0  0  0  0  0  0  0  0  0  0  0  0
    3.2722   -1.9541    6.2033 H   0  0  0  0  0  0  0  0  0  0  0  0
    4.2986    0.2153    6.3334 H   0  0  0  0  0  0  0  0  0  0  0  0
    2.9993    0.8491    7.1830 H   0  0  0  0  0  0  0  0  0  0  0  0
    1.3261    0.2334    3.2450 H   0  0  0  0  0  0  0  0  0  0  0  0
   -0.4712   -1.4426    5.7180 H   0  0  0  0  0  0  0  0  0  0  0  0
   -1.8885   -0.3671    4.2157 H   0  0  0  0  0  0  0  0  0  0  0  0
   -2.5460    0.1790    5.7203 H   0  0  0  0  0  0  0  0  0  0  0  0
   -3.5254    2.2078    3.7964 H   0  0  0  0  0  0  0  0  0  0  0  0
   -2.8978    4.4848    3.1076 H   0  0  0  0  0  0  0  0  0  0  0  0
   -0.1791    5.5464    2.3941 H   0  0  0  0  0  0  0  0  0  0  0  0
    1.5002    1.9791    7.5242 H   0  0  0  0  0  0  0  0  0  0  0  0
    0.4931    3.1788    6.9258 H   0  0  0  0  0  0  0  0  0  0  0  0
   -0.4961    1.5626    8.6214 H   0  0  0  0  0  0  0  0  0  0  0  0
   -1.4455    1.8353    7.2014 H   0  0  0  0  0  0  0  0  0  0  0  0
   -0.0141   -0.6994    9.1938 H   0  0  0  0  0  0  0  0  0  0  0  0
    1.3484   -0.5153    8.0961 H   0  0  0  0  0  0  0  0  0  0  0  0
    0.2449   -1.8902    7.9202 H   0  0  0  0  0  0  0  0  0  0  0  0
    1.9550    1.9859    3.6083 H   0  0  0  0  0  0  0  0  0  0  0  0
  1  2  1  0
  1 27  1  0
  1 28  1  0
  1 29  1  0
  3  2  1  1
  3  8  1  0
  3 25  1  0
  3  4  1  0
  4  5  1  0
  4 30  1  0
  4 31  1  0
  5  6  1  0
  5 32  1  0
  5 33  1  0
  6  7  1  1
  6  8  1  0
  6  9  1  0
  7 34  1  0
  8 35  1  0
  8 36  1  0
  9 20  1  0
  9 10  1  6
  9 11  1  0
 10 37  1  0
 11 23  1  0
 11 12  1  0
 11 38  1  1
 12 13  1  0
 12 39  1  0
 12 40  1  0
 13 19  2  0
 13 14  1  0
 14 15  2  0
 14 41  1  0
 15 16  1  0
 15 42  1  0
 16 17  1  0
 16 18  2  0
 17 43  1  0
 18 26  1  0
 18 19  1  0
 19 20  1  0
 20 21  1  1
 20 25  1  0
 21 22  1  0
 21 44  1  0
 21 45  1  0
 22 23  1  0
 22 46  1  0
 22 47  1  0
 23 24  1  0
 24 48  1  0
 24 49  1  0
 24 50  1  0
 25 26  1  0
 25 51  1  6
M  END
>  <i_m_ct_stereo_status>  (139) 
1

>  <s_m_source_file>  (139) 
/var/tmp/pbs.5076255.sched01/tmpqllwm4fg/43asec3i7m.sdf

>  <i_m_source_file_index>  (139) 
28

>  <i_lp_mmshare_version>  (139) 
48012

>  <i_f3d_flags>  (139) 
0

>  <s_epik_input>  (139) 
W09IXVtDQF0xKFtDQEBdMjM0KVtDQEBdNShbT0hdKVtDSDJdW0NIMl1bQ0BAXShbQ0gyXTUpKE9bQ0gzXSlbQ0BASF00T2M2YzJjKFtjSF1bY0hdYzZbT0hdKVtDSDJdW0NAQEhdMU4oW0NIM10pW0NIMl1bQ0gyXTM=

>  <s_epik_cmdline>  (139) 
J2VwaWtfcHl0aG9uJywgJy1waHQnLCAnMi4wJywgJy1waCcsICc3LjAnLCAnLXRuJywgJzgnLCAnLW1hJywgJzIwMCcsICctaW1hZScsICc8aW5maWxlLm1hZT4nLCAnLW9tYWUnLCAnPG91dGZpbGUubWFlPic=

>  <r_lp_tautomer_probability>  (139) 
1

>  <r_epik_Ionization_Penalty>  (139) 
1.11523

>  <r_epik_Ionization_Penalty_Charging>  (139) 
0

>  <r_epik_Ionization_Penalty_Neutral>  (139) 
1.11523

>  <r_epik_State_Penalty>  (139) 
1.179

>  <r_epik_Charging_Adjusted_Penalty>  (139) 
1.179

>  <i_epik_Tot_Q>  (139) 
0

>  <i_epik_Tot_abs_Q>  (139) 
0

>  <s_lp_Force_Field>  (139) 
OPLS3e

>  <r_lp_Energy>  (139) 
125.115

>  <b_lp_Chiralities_Consistent>  (139) 
1

>  <s_lp_Variant>  (139) 
40:0-2

>  <s_i_glide_gridfile>  (139) 
pfpi4k_grid

>  <i_i_glide_lignum>  (139) 
28

>  <i_i_glide_rotatable_bonds>  (139) 
4

>  <r_i_docking_score>  (139) 
-2.54405

>  <r_i_glide_ligand_efficiency>  (139) 
-0.0978482

>  <r_i_glide_ligand_efficiency_sa>  (139) 
-0.289875

>  <r_i_glide_ligand_efficiency_ln>  (139) 
-0.597462

>  <r_i_glide_gscore>  (139) 
-2.54405

>  <r_i_glide_lipo>  (139) 
-0.00133554

>  <r_i_glide_hbond>  (139) 
-0.0475076

>  <r_i_glide_metal>  (139) 
-0

>  <r_i_glide_rewards>  (139) 
-0.958526

>  <r_i_glide_evdw>  (139) 
-14.2527

>  <r_i_glide_ecoul>  (139) 
-5.49364

>  <r_i_glide_erotb>  (139) 
0

>  <r_i_glide_esite>  (139) 
0

>  <r_i_glide_emodel>  (139) 
-21.8741

>  <r_i_glide_energy>  (139) 
-19.7464

>  <r_i_glide_einternal>  (139) 
3.41116

>  <r_i_glide_intrahb_reward>  (139) 
-0

>  <i_i_glide_confnum>  (139) 
2

>  <i_i_glide_posenum>  (139) 
1

>  <r_i_glide_eff_state_penalty>  (139) 
0

>  <ligand_id>  (139) 
40

>  <original_smiles>  (139) 
COC12CCC(O)(C1)C1(O)C3Cc4ccc(O)c5c4C1(CCN3C)C2O5

>  <smiles>  (139) 
[H]Oc1c([H])c([H])c2c3c1OC1([H])C4(OC([H])([H])[H])C([H])([H])C([H])([H])C(O[H])(C4([H])[H])C4(O[H])C([H])(N(C([H])([H])[H])C([H])([H])C([H])([H])C314)C2([H])[H]

$$$$
40:2:0
     RDKit          3D

 51 56  0  0  1  0  0  0  0  0999 V2000
    2.4616   -1.2539    1.5418 C   0  0  0  0  0  0  0  0  0  0  0  0
    3.6755   -1.7141    2.1416 O   0  0  0  0  0  0  0  0  0  0  0  0
    4.3139   -2.7823    1.4436 C   0  0  1  0  0  0  0  0  0  0  0  0
    4.6567   -2.4085   -0.0229 C   0  0  0  0  0  0  0  0  0  0  0  0
    5.9158   -3.2375   -0.3914 C   0  0  0  0  0  0  0  0  0  0  0  0
    6.2845   -4.0817    0.8736 C   0  0  1  0  0  0  0  0  0  0  0  0
    7.6866   -4.2562    0.9307 O   0  0  0  0  0  0  0  0  0  0  0  0
    5.7969   -3.0002    1.8745 C   0  0  0  0  0  0  0  0  0  0  0  0
    5.5207   -5.4861    1.0392 C   0  0  1  0  0  0  0  0  0  0  0  0
    5.0826   -5.8314   -0.2728 O   0  0  0  0  0  0  0  0  0  0  0  0
    6.1735   -6.8140    1.5458 C   0  0  2  0  0  0  0  0  0  0  0  0
    5.1559   -8.0285    1.4068 C   0  0  0  0  0  0  0  0  0  0  0  0
    3.6559   -7.7557    1.6495 C   0  0  0  0  0  0  0  0  0  0  0  0
    2.5694   -8.6456    1.7013 C   0  0  0  0  0  0  0  0  0  0  0  0
    1.2694   -8.1004    1.9142 C   0  0  0  0  0  0  0  0  0  0  0  0
    1.0474   -6.7057    2.0190 C   0  0  0  0  0  0  0  0  0  0  0  0
   -0.2270   -6.2659    2.1790 O   0  0  0  0  0  0  0  0  0  0  0  0
    2.1178   -5.7861    1.9575 C   0  0  0  0  0  0  0  0  0  0  0  0
    3.3420   -6.4022    1.8040 C   0  0  0  0  0  0  0  0  0  0  0  0
    4.3127   -5.3182    1.9595 C   0  0  1  0  0  0  0  0  0  0  0  0
    4.6258   -5.3438    3.5030 C   0  0  0  0  0  0  0  0  0  0  0  0
    5.5315   -6.5086    3.9169 C   0  0  0  0  0  0  0  0  0  0  0  0
    6.6384   -6.6805    2.9557 N   0  0  1  0  0  0  0  0  0  0  0  0
    7.5884   -7.7328    3.3810 C   0  0  0  0  0  0  0  0  0  0  0  0
    3.4928   -4.1242    1.4836 C   0  0  1  0  0  0  0  0  0  0  0  0
    2.1982   -4.4011    2.0398 O   0  0  0  0  0  0  0  0  0  0  0  0
    2.0493   -0.4177    2.1042 H   0  0  0  0  0  0  0  0  0  0  0  0
    1.6899   -2.0223    1.4966 H   0  0  0  0  0  0  0  0  0  0  0  0
    2.6177   -0.8907    0.5271 H   0  0  0  0  0  0  0  0  0  0  0  0
    3.8310   -2.5597   -0.7179 H   0  0  0  0  0  0  0  0  0  0  0  0
    4.9044   -1.3459   -0.0710 H   0  0  0  0  0  0  0  0  0  0  0  0
    5.8032   -3.7824   -1.3267 H   0  0  0  0  0  0  0  0  0  0  0  0
    6.7198   -2.5243   -0.5865 H   0  0  0  0  0  0  0  0  0  0  0  0
    7.9306   -4.6735    1.7397 H   0  0  0  0  0  0  0  0  0  0  0  0
    6.3535   -2.0736    1.7202 H   0  0  0  0  0  0  0  0  0  0  0  0
    6.0133   -3.1907    2.9101 H   0  0  0  0  0  0  0  0  0  0  0  0
    4.4946   -5.1676   -0.6060 H   0  0  0  0  0  0  0  0  0  0  0  0
    7.0461   -7.0350    0.9338 H   0  0  0  0  0  0  0  0  0  0  0  0
    5.2137   -8.4151    0.3906 H   0  0  0  0  0  0  0  0  0  0  0  0
    5.4415   -8.8666    2.0361 H   0  0  0  0  0  0  0  0  0  0  0  0
    2.7041   -9.7113    1.5894 H   0  0  0  0  0  0  0  0  0  0  0  0
    0.4281   -8.7678    1.9794 H   0  0  0  0  0  0  0  0  0  0  0  0
    5.0236   -4.4432    3.9379 H   0  0  0  0  0  0  0  0  0  0  0  0
    3.6991   -5.4177    4.0744 H   0  0  0  0  0  0  0  0  0  0  0  0
    5.9320   -6.3173    4.9099 H   0  0  0  0  0  0  0  0  0  0  0  0
    4.9498   -7.4246    4.0131 H   0  0  0  0  0  0  0  0  0  0  0  0
    7.1047   -8.7041    3.4922 H   0  0  0  0  0  0  0  0  0  0  0  0
    8.0176   -7.4838    4.3530 H   0  0  0  0  0  0  0  0  0  0  0  0
    8.4176   -7.8444    2.6795 H   0  0  0  0  0  0  0  0  0  0  0  0
    3.2556   -4.2922    0.4324 H   0  0  0  0  0  0  0  0  0  0  0  0
    7.1658   -5.8320    3.0075 H   0  0  0  0  0  0  0  0  0  0  0  0
  1  2  1  0
  1 27  1  0
  1 28  1  0
  1 29  1  0
  3  2  1  1
  3  8  1  0
  3 25  1  0
  3  4  1  0
  4  5  1  0
  4 30  1  0
  4 31  1  0
  5  6  1  0
  5 32  1  0
  5 33  1  0
  6  7  1  1
  6  8  1  0
  6  9  1  0
  7 34  1  0
  8 35  1  0
  8 36  1  0
  9 20  1  0
  9 10  1  6
  9 11  1  0
 10 37  1  0
 11 23  1  0
 11 12  1  0
 11 38  1  6
 12 13  1  0
 12 39  1  0
 12 40  1  0
 13 19  2  0
 13 14  1  0
 14 15  2  0
 14 41  1  0
 15 16  1  0
 15 42  1  0
 16 17  1  0
 16 18  2  0
 18 26  1  0
 18 19  1  0
 19 20  1  0
 20 21  1  1
 20 25  1  0
 21 22  1  0
 21 43  1  0
 21 44  1  0
 22 23  1  0
 22 45  1  0
 22 46  1  0
 23 24  1  0
 23 51  1  6
 24 47  1  0
 24 48  1  0
 24 49  1  0
 25 26  1  0
 25 50  1  6
M  CHG  2  17  -1  23   1
M  END
>  <i_m_ct_stereo_status>  (140) 
1

>  <s_m_source_file>  (140) 
/var/tmp/pbs.5076255.sched01/tmpqllwm4fg/43asec3i7m.sdf

>  <i_m_source_file_index>  (140) 
29

>  <i_lp_mmshare_version>  (140) 
48012

>  <i_f3d_flags>  (140) 
0

>  <s_epik_input>  (140) 
W09IXVtDQF0xKFtDQEBdMjM0KVtDQEBdNShbT0hdKVtDSDJdW0NIMl1bQ0BAXShbQ0gyXTUpKE9bQ0gzXSlbQ0BASF00T2M2YzJjKFtjSF1bY0hdYzZbT0hdKVtDSDJdW0NAQEhdMU4oW0NIM10pW0NIMl1bQ0gyXTM=

>  <s_epik_cmdline>  (140) 
J2VwaWtfcHl0aG9uJywgJy1waHQnLCAnMi4wJywgJy1waCcsICc3LjAnLCAnLXRuJywgJzgnLCAnLW1hJywgJzIwMCcsICctaW1hZScsICc8aW5maWxlLm1hZT4nLCAnLW9tYWUnLCAnPG91dGZpbGUubWFlPic=

>  <r_epik_Ionization_Penalty>  (140) 
2.56621

>  <r_epik_Ionization_Penalty_Charging>  (140) 
2.56621

>  <r_epik_Ionization_Penalty_Neutral>  (140) 
4.87928e-07

>  <r_epik_State_Penalty>  (140) 
2.72678

>  <r_epik_Charging_Adjusted_Penalty>  (140) 
5.29298

>  <i_epik_Tot_Q>  (140) 
0

>  <i_epik_Tot_abs_Q>  (140) 
2

>  <s_lp_Force_Field>  (140) 
OPLS3e

>  <r_lp_Energy>  (140) 
121.874

>  <b_lp_Chiralities_Consistent>  (140) 
1

>  <s_lp_Variant>  (140) 
40:0-3

>  <s_i_glide_gridfile>  (140) 
pfpi4k_grid

>  <i_i_glide_lignum>  (140) 
29

>  <i_i_glide_rotatable_bonds>  (140) 
3

>  <r_i_docking_score>  (140) 
-3.34845

>  <r_i_glide_ligand_efficiency>  (140) 
-0.128787

>  <r_i_glide_ligand_efficiency_sa>  (140) 
-0.38153

>  <r_i_glide_ligand_efficiency_ln>  (140) 
-0.786373

>  <r_i_glide_gscore>  (140) 
-3.34845

>  <r_i_glide_lipo>  (140) 
-0.534183

>  <r_i_glide_hbond>  (140) 
-0.287842

>  <r_i_glide_metal>  (140) 
-0

>  <r_i_glide_rewards>  (140) 
-0.958526

>  <r_i_glide_evdw>  (140) 
-17.0101

>  <r_i_glide_ecoul>  (140) 
-4.78265

>  <r_i_glide_erotb>  (140) 
0

>  <r_i_glide_esite>  (140) 
0

>  <r_i_glide_emodel>  (140) 
-28.7592

>  <r_i_glide_energy>  (140) 
-21.7927

>  <r_i_glide_einternal>  (140) 
1.29403

>  <r_i_glide_intrahb_reward>  (140) 
-0

>  <i_i_glide_confnum>  (140) 
1

>  <i_i_glide_posenum>  (140) 
33

>  <r_i_glide_eff_state_penalty>  (140) 
0

>  <ligand_id>  (140) 
40

>  <original_smiles>  (140) 
COC12CCC(O)(C1)C1(O)C3Cc4ccc(O)c5c4C1(CCN3C)C2O5

>  <smiles>  (140) 
[H]OC12C([H])([H])C([H])([H])C(OC([H])([H])[H])(C1([H])[H])C1([H])Oc3c([O-])c([H])c([H])c4c3C13C([H])([H])C([H])([H])[N+]([H])(C([H])([H])[H])C([H])(C4([H])[H])C23O[H]

$$$$
40:2:1
     RDKit          3D

 51 56  0  0  1  0  0  0  0  0999 V2000
    3.4173   -1.2407    4.4864 C   0  0  0  0  0  0  0  0  0  0  0  0
    3.1522   -0.7979    3.1637 O   0  0  0  0  0  0  0  0  0  0  0  0
    3.7689   -1.5570    2.1321 C   0  0  1  0  0  0  0  0  0  0  0  0
    3.6077   -0.8185    0.7788 C   0  0  0  0  0  0  0  0  0  0  0  0
    4.8252   -1.2554   -0.0861 C   0  0  0  0  0  0  0  0  0  0  0  0
    5.6675   -2.2444    0.7892 C   0  0  1  0  0  0  0  0  0  0  0  0
    7.0364   -2.1223    0.4653 O   0  0  0  0  0  0  0  0  0  0  0  0
    5.3301   -1.5295    2.1224 C   0  0  0  0  0  0  0  0  0  0  0  0
    5.2024   -3.7814    0.7579 C   0  0  1  0  0  0  0  0  0  0  0  0
    4.5226   -3.9262   -0.4816 O   0  0  0  0  0  0  0  0  0  0  0  0
    6.1543   -5.0259    0.7586 C   0  0  2  0  0  0  0  0  0  0  0  0
    5.3322   -6.3647    0.5540 C   0  0  0  0  0  0  0  0  0  0  0  0
    3.9408   -6.4701    1.2034 C   0  0  0  0  0  0  0  0  0  0  0  0
    3.0554   -7.5634    1.2865 C   0  0  0  0  0  0  0  0  0  0  0  0
    1.7931   -7.3709    1.8965 C   0  0  0  0  0  0  0  0  0  0  0  0
    1.4014   -6.1136    2.4197 C   0  0  0  0  0  0  0  0  0  0  0  0
    0.2153   -6.0061    3.0571 O   0  0  0  0  0  0  0  0  0  0  0  0
    2.2484   -4.9902    2.3215 C   0  0  0  0  0  0  0  0  0  0  0  0
    3.4609   -5.2762    1.7423 C   0  0  0  0  0  0  0  0  0  0  0  0
    4.2700   -4.0688    1.9419 C   0  0  1  0  0  0  0  0  0  0  0  0
    4.9865   -4.3493    3.3215 C   0  0  0  0  0  0  0  0  0  0  0  0
    6.1365   -5.3595    3.2143 C   0  0  0  0  0  0  0  0  0  0  0  0
    6.9615   -5.0888    2.0138 N   0  0  1  0  0  0  0  0  0  0  0  0
    8.1480   -5.9819    1.9329 C   0  0  0  0  0  0  0  0  0  0  0  0
    3.1773   -3.0100    1.9868 C   0  0  1  0  0  0  0  0  0  0  0  0
    2.1256   -3.6656    2.7276 O   0  0  0  0  0  0  0  0  0  0  0  0
    2.8400   -0.6413    5.1902 H   0  0  0  0  0  0  0  0  0  0  0  0
    4.4704   -1.1158    4.7347 H   0  0  0  0  0  0  0  0  0  0  0  0
    3.1425   -2.2839    4.6444 H   0  0  0  0  0  0  0  0  0  0  0  0
    2.6514   -0.9954    0.2889 H   0  0  0  0  0  0  0  0  0  0  0  0
    3.6553    0.2606    0.9383 H   0  0  0  0  0  0  0  0  0  0  0  0
    4.5466   -1.6002   -1.0811 H   0  0  0  0  0  0  0  0  0  0  0  0
    5.4223   -0.3616   -0.2761 H   0  0  0  0  0  0  0  0  0  0  0  0
    7.5513   -2.6078    1.0883 H   0  0  0  0  0  0  0  0  0  0  0  0
    5.6628   -0.4897    2.0795 H   0  0  0  0  0  0  0  0  0  0  0  0
    5.8662   -1.8821    2.9864 H   0  0  0  0  0  0  0  0  0  0  0  0
    3.7998   -3.3161   -0.5083 H   0  0  0  0  0  0  0  0  0  0  0  0
    6.8574   -4.9167   -0.0675 H   0  0  0  0  0  0  0  0  0  0  0  0
    5.1422   -6.4859   -0.5099 H   0  0  0  0  0  0  0  0  0  0  0  0
    5.9068   -7.2328    0.8741 H   0  0  0  0  0  0  0  0  0  0  0  0
    3.3279   -8.5369    0.8899 H   0  0  0  0  0  0  0  0  0  0  0  0
    1.1136   -8.2058    1.9763 H   0  0  0  0  0  0  0  0  0  0  0  0
    5.3507   -3.4942    3.8616 H   0  0  0  0  0  0  0  0  0  0  0  0
    4.2740   -4.7386    4.0472 H   0  0  0  0  0  0  0  0  0  0  0  0
    6.7612   -5.2955    4.1048 H   0  0  0  0  0  0  0  0  0  0  0  0
    5.7540   -6.3806    3.1988 H   0  0  0  0  0  0  0  0  0  0  0  0
    7.8672   -7.0354    1.9003 H   0  0  0  0  0  0  0  0  0  0  0  0
    8.7770   -5.8401    2.8142 H   0  0  0  0  0  0  0  0  0  0  0  0
    8.7575   -5.7604    1.0544 H   0  0  0  0  0  0  0  0  0  0  0  0
    2.7002   -2.9996    1.0058 H   0  0  0  0  0  0  0  0  0  0  0  0
    7.3424   -4.1679    2.1518 H   0  0  0  0  0  0  0  0  0  0  0  0
  1  2  1  0
  1 27  1  0
  1 28  1  0
  1 29  1  0
  3  2  1  1
  3  8  1  0
  3 25  1  0
  3  4  1  0
  4  5  1  0
  4 30  1  0
  4 31  1  0
  5  6  1  0
  5 32  1  0
  5 33  1  0
  6  7  1  6
  6  8  1  0
  6  9  1  0
  7 34  1  0
  8 35  1  0
  8 36  1  0
  9 20  1  0
  9 10  1  6
  9 11  1  0
 10 37  1  0
 11 23  1  0
 11 12  1  0
 11 38  1  6
 12 13  1  0
 12 39  1  0
 12 40  1  0
 13 19  2  0
 13 14  1  0
 14 15  2  0
 14 41  1  0
 15 16  1  0
 15 42  1  0
 16 17  1  0
 16 18  2  0
 18 26  1  0
 18 19  1  0
 19 20  1  0
 20 21  1  1
 20 25  1  0
 21 22  1  0
 21 43  1  0
 21 44  1  0
 22 23  1  0
 22 45  1  0
 22 46  1  0
 23 24  1  0
 23 51  1  1
 24 47  1  0
 24 48  1  0
 24 49  1  0
 25 26  1  0
 25 50  1  6
M  CHG  2  17  -1  23   1
M  END
>  <i_m_ct_stereo_status>  (141) 
1

>  <s_m_source_file>  (141) 
/var/tmp/pbs.5076255.sched01/tmpqllwm4fg/43asec3i7m.sdf

>  <i_m_source_file_index>  (141) 
29

>  <i_lp_mmshare_version>  (141) 
48012

>  <i_f3d_flags>  (141) 
0

>  <s_epik_input>  (141) 
W09IXVtDQF0xKFtDQEBdMjM0KVtDQEBdNShbT0hdKVtDSDJdW0NIMl1bQ0BAXShbQ0gyXTUpKE9bQ0gzXSlbQ0BASF00T2M2YzJjKFtjSF1bY0hdYzZbT0hdKVtDSDJdW0NAQEhdMU4oW0NIM10pW0NIMl1bQ0gyXTM=

>  <s_epik_cmdline>  (141) 
J2VwaWtfcHl0aG9uJywgJy1waHQnLCAnMi4wJywgJy1waCcsICc3LjAnLCAnLXRuJywgJzgnLCAnLW1hJywgJzIwMCcsICctaW1hZScsICc8aW5maWxlLm1hZT4nLCAnLW9tYWUnLCAnPG91dGZpbGUubWFlPic=

>  <r_epik_Ionization_Penalty>  (141) 
2.56621

>  <r_epik_Ionization_Penalty_Charging>  (141) 
2.56621

>  <r_epik_Ionization_Penalty_Neutral>  (141) 
4.87928e-07

>  <r_epik_State_Penalty>  (141) 
2.72678

>  <r_epik_Charging_Adjusted_Penalty>  (141) 
5.29298

>  <i_epik_Tot_Q>  (141) 
0

>  <i_epik_Tot_abs_Q>  (141) 
2

>  <s_lp_Force_Field>  (141) 
OPLS3e

>  <r_lp_Energy>  (141) 
121.874

>  <b_lp_Chiralities_Consistent>  (141) 
1

>  <s_lp_Variant>  (141) 
40:0-3

>  <s_i_glide_gridfile>  (141) 
pfpi4k_grid

>  <i_i_glide_lignum>  (141) 
29

>  <i_i_glide_rotatable_bonds>  (141) 
3

>  <r_i_docking_score>  (141) 
-2.73745

>  <r_i_glide_ligand_efficiency>  (141) 
-0.105287

>  <r_i_glide_ligand_efficiency_sa>  (141) 
-0.311911

>  <r_i_glide_ligand_efficiency_ln>  (141) 
-0.642882

>  <r_i_glide_gscore>  (141) 
-2.73745

>  <r_i_glide_lipo>  (141) 
-0.596523

>  <r_i_glide_hbond>  (141) 
-0.130379

>  <r_i_glide_metal>  (141) 
-0

>  <r_i_glide_rewards>  (141) 
-0.958526

>  <r_i_glide_evdw>  (141) 
-17.9425

>  <r_i_glide_ecoul>  (141) 
-1.03268

>  <r_i_glide_erotb>  (141) 
0

>  <r_i_glide_esite>  (141) 
0

>  <r_i_glide_emodel>  (141) 
-25.2741

>  <r_i_glide_energy>  (141) 
-18.9751

>  <r_i_glide_einternal>  (141) 
0.00562512

>  <r_i_glide_intrahb_reward>  (141) 
-0

>  <i_i_glide_confnum>  (141) 
1

>  <i_i_glide_posenum>  (141) 
7

>  <r_i_glide_eff_state_penalty>  (141) 
0

>  <ligand_id>  (141) 
40

>  <original_smiles>  (141) 
COC12CCC(O)(C1)C1(O)C3Cc4ccc(O)c5c4C1(CCN3C)C2O5

>  <smiles>  (141) 
[H]OC12C([H])([H])C([H])([H])C(OC([H])([H])[H])(C1([H])[H])C1([H])Oc3c([O-])c([H])c([H])c4c3C13C([H])([H])C([H])([H])[N+]([H])(C([H])([H])[H])C([H])(C4([H])[H])C23O[H]

$$$$
40:2:2
     RDKit          3D

 51 56  0  0  1  0  0  0  0  0999 V2000
    3.8773   -1.3962    4.2008 C   0  0  0  0  0  0  0  0  0  0  0  0
    3.6172   -1.0696    2.8430 O   0  0  0  0  0  0  0  0  0  0  0  0
    4.1320   -1.9831    1.8824 C   0  0  1  0  0  0  0  0  0  0  0  0
    4.0056   -1.3720    0.4625 C   0  0  0  0  0  0  0  0  0  0  0  0
    5.1603   -2.0098   -0.3676 C   0  0  0  0  0  0  0  0  0  0  0  0
    5.9279   -2.9849    0.5948 C   0  0  1  0  0  0  0  0  0  0  0  0
    7.3005   -3.0637    0.2717 O   0  0  0  0  0  0  0  0  0  0  0  0
    5.6901   -2.1018    1.8458 C   0  0  0  0  0  0  0  0  0  0  0  0
    5.3260   -4.4658    0.7311 C   0  0  1  0  0  0  0  0  0  0  0  0
    4.6241   -4.6579   -0.4892 O   0  0  0  0  0  0  0  0  0  0  0  0
    6.1639   -5.7824    0.8551 C   0  0  2  0  0  0  0  0  0  0  0  0
    5.2165   -7.0577    0.7969 C   0  0  0  0  0  0  0  0  0  0  0  0
    3.8300   -6.9614    1.4576 C   0  0  0  0  0  0  0  0  0  0  0  0
    2.8418   -7.9481    1.6713 C   0  0  0  0  0  0  0  0  0  0  0  0
    1.6194   -7.5746    2.2848 C   0  0  0  0  0  0  0  0  0  0  0  0
    1.3584   -6.2343    2.6786 C   0  0  0  0  0  0  0  0  0  0  0  0
    0.1974   -5.9318    3.3065 O   0  0  0  0  0  0  0  0  0  0  0  0
    2.3088   -5.2182    2.4500 C   0  0  0  0  0  0  0  0  0  0  0  0
    3.4774   -5.6799    1.8863 C   0  0  0  0  0  0  0  0  0  0  0  0
    4.3987   -4.5389    1.9497 C   0  0  1  0  0  0  0  0  0  0  0  0
    5.1223   -4.7406    3.3435 C   0  0  0  0  0  0  0  0  0  0  0  0
    6.1854   -5.8483    3.3209 C   0  0  0  0  0  0  0  0  0  0  0  0
    6.9986   -5.7746    2.0876 N   0  0  1  0  0  0  0  0  0  0  0  0
    8.0873   -6.7827    2.0788 C   0  0  0  0  0  0  0  0  0  0  0  0
    3.4071   -3.3808    1.8970 C   0  0  1  0  0  0  0  0  0  0  0  0
    2.3150   -3.8532    2.7133 O   0  0  0  0  0  0  0  0  0  0  0  0
    3.3752   -0.6771    4.8487 H   0  0  0  0  0  0  0  0  0  0  0  0
    4.9435   -1.3442    4.4179 H   0  0  0  0  0  0  0  0  0  0  0  0
    3.5134   -2.3875    4.4719 H   0  0  0  0  0  0  0  0  0  0  0  0
    3.0248   -1.5088    0.0046 H   0  0  0  0  0  0  0  0  0  0  0  0
    4.1537   -0.2903    0.5125 H   0  0  0  0  0  0  0  0  0  0  0  0
    4.8155   -2.4316   -1.3115 H   0  0  0  0  0  0  0  0  0  0  0  0
    5.8264   -1.1978   -0.6631 H   0  0  0  0  0  0  0  0  0  0  0  0
    7.3701   -3.4603   -0.5849 H   0  0  0  0  0  0  0  0  0  0  0  0
    6.1201   -1.1063    1.6940 H   0  0  0  0  0  0  0  0  0  0  0  0
    6.2117   -2.4141    2.7315 H   0  0  0  0  0  0  0  0  0  0  0  0
    4.1260   -5.4618   -0.4488 H   0  0  0  0  0  0  0  0  0  0  0  0
    6.8616   -5.8305    0.0232 H   0  0  0  0  0  0  0  0  0  0  0  0
    5.0126   -7.2852   -0.2489 H   0  0  0  0  0  0  0  0  0  0  0  0
    5.7154   -7.9453    1.1863 H   0  0  0  0  0  0  0  0  0  0  0  0
    3.0145   -8.9697    1.3681 H   0  0  0  0  0  0  0  0  0  0  0  0
    0.8736   -8.3332    2.4658 H   0  0  0  0  0  0  0  0  0  0  0  0
    5.5782   -3.8697    3.7842 H   0  0  0  0  0  0  0  0  0  0  0  0
    4.3930   -4.9864    4.1177 H   0  0  0  0  0  0  0  0  0  0  0  0
    6.8328   -5.7525    4.1931 H   0  0  0  0  0  0  0  0  0  0  0  0
    5.7096   -6.8270    3.4128 H   0  0  0  0  0  0  0  0  0  0  0  0
    7.7036   -7.8029    2.1565 H   0  0  0  0  0  0  0  0  0  0  0  0
    8.7555   -6.6230    2.9273 H   0  0  0  0  0  0  0  0  0  0  0  0
    8.6842   -6.7125    1.1674 H   0  0  0  0  0  0  0  0  0  0  0  0
    2.9161   -3.4285    0.9241 H   0  0  0  0  0  0  0  0  0  0  0  0
    7.4593   -4.8737    2.0885 H   0  0  0  0  0  0  0  0  0  0  0  0
  1  2  1  0
  1 27  1  0
  1 28  1  0
  1 29  1  0
  3  2  1  1
  3  8  1  0
  3 25  1  0
  3  4  1  0
  4  5  1  0
  4 30  1  0
  4 31  1  0
  5  6  1  0
  5 32  1  0
  5 33  1  0
  6  7  1  6
  6  8  1  0
  6  9  1  0
  7 34  1  0
  8 35  1  0
  8 36  1  0
  9 20  1  0
  9 10  1  6
  9 11  1  0
 10 37  1  0
 11 23  1  0
 11 12  1  0
 11 38  1  6
 12 13  1  0
 12 39  1  0
 12 40  1  0
 13 19  2  0
 13 14  1  0
 14 15  2  0
 14 41  1  0
 15 16  1  0
 15 42  1  0
 16 17  1  0
 16 18  2  0
 18 26  1  0
 18 19  1  0
 19 20  1  0
 20 21  1  1
 20 25  1  0
 21 22  1  0
 21 43  1  0
 21 44  1  0
 22 23  1  0
 22 45  1  0
 22 46  1  0
 23 24  1  0
 23 51  1  1
 24 47  1  0
 24 48  1  0
 24 49  1  0
 25 26  1  0
 25 50  1  6
M  CHG  2  17  -1  23   1
M  END
>  <i_m_ct_stereo_status>  (142) 
1

>  <s_m_source_file>  (142) 
/var/tmp/pbs.5076255.sched01/tmpqllwm4fg/43asec3i7m.sdf

>  <i_m_source_file_index>  (142) 
29

>  <i_lp_mmshare_version>  (142) 
48012

>  <i_f3d_flags>  (142) 
0

>  <s_epik_input>  (142) 
W09IXVtDQF0xKFtDQEBdMjM0KVtDQEBdNShbT0hdKVtDSDJdW0NIMl1bQ0BAXShbQ0gyXTUpKE9bQ0gzXSlbQ0BASF00T2M2YzJjKFtjSF1bY0hdYzZbT0hdKVtDSDJdW0NAQEhdMU4oW0NIM10pW0NIMl1bQ0gyXTM=

>  <s_epik_cmdline>  (142) 
J2VwaWtfcHl0aG9uJywgJy1waHQnLCAnMi4wJywgJy1waCcsICc3LjAnLCAnLXRuJywgJzgnLCAnLW1hJywgJzIwMCcsICctaW1hZScsICc8aW5maWxlLm1hZT4nLCAnLW9tYWUnLCAnPG91dGZpbGUubWFlPic=

>  <r_epik_Ionization_Penalty>  (142) 
2.56621

>  <r_epik_Ionization_Penalty_Charging>  (142) 
2.56621

>  <r_epik_Ionization_Penalty_Neutral>  (142) 
4.87928e-07

>  <r_epik_State_Penalty>  (142) 
2.72678

>  <r_epik_Charging_Adjusted_Penalty>  (142) 
5.29298

>  <i_epik_Tot_Q>  (142) 
0

>  <i_epik_Tot_abs_Q>  (142) 
2

>  <s_lp_Force_Field>  (142) 
OPLS3e

>  <r_lp_Energy>  (142) 
121.874

>  <b_lp_Chiralities_Consistent>  (142) 
1

>  <s_lp_Variant>  (142) 
40:0-3

>  <s_i_glide_gridfile>  (142) 
pfpi4k_grid

>  <i_i_glide_lignum>  (142) 
29

>  <i_i_glide_rotatable_bonds>  (142) 
3

>  <r_i_docking_score>  (142) 
-2.58894

>  <r_i_glide_ligand_efficiency>  (142) 
-0.0995748

>  <r_i_glide_ligand_efficiency_sa>  (142) 
-0.29499

>  <r_i_glide_ligand_efficiency_ln>  (142) 
-0.608005

>  <r_i_glide_gscore>  (142) 
-2.58894

>  <r_i_glide_lipo>  (142) 
-0.468391

>  <r_i_glide_hbond>  (142) 
-0.111528

>  <r_i_glide_metal>  (142) 
-0

>  <r_i_glide_rewards>  (142) 
-0.958526

>  <r_i_glide_evdw>  (142) 
-18.2449

>  <r_i_glide_ecoul>  (142) 
-0.921682

>  <r_i_glide_erotb>  (142) 
0

>  <r_i_glide_esite>  (142) 
0

>  <r_i_glide_emodel>  (142) 
-25.1555

>  <r_i_glide_energy>  (142) 
-19.1666

>  <r_i_glide_einternal>  (142) 
0.0280222

>  <r_i_glide_intrahb_reward>  (142) 
-0

>  <i_i_glide_confnum>  (142) 
1

>  <i_i_glide_posenum>  (142) 
13

>  <r_i_glide_eff_state_penalty>  (142) 
0

>  <ligand_id>  (142) 
40

>  <original_smiles>  (142) 
COC12CCC(O)(C1)C1(O)C3Cc4ccc(O)c5c4C1(CCN3C)C2O5

>  <smiles>  (142) 
[H]OC12C([H])([H])C([H])([H])C(OC([H])([H])[H])(C1([H])[H])C1([H])Oc3c([O-])c([H])c([H])c4c3C13C([H])([H])C([H])([H])[N+]([H])(C([H])([H])[H])C([H])(C4([H])[H])C23O[H]

$$$$
41:0:0
     RDKit          3D

 69 74  0  0  1  0  0  0  0  0999 V2000
    2.0821   -3.8263   -1.1685 C   0  0  0  0  0  0  0  0  0  0  0  0
    3.4330   -3.1126   -0.8040 C   0  0  2  0  0  0  0  0  0  0  0  0
    3.4446   -2.8568    0.7632 C   0  0  2  0  0  0  0  0  0  0  0  0
    2.6507   -1.5702    1.2006 C   0  0  0  0  0  0  0  0  0  0  0  0
    3.0129   -0.8887    2.5552 C   0  0  0  0  0  0  0  0  0  0  0  0
    4.2895   -1.4157    3.2744 C   0  0  2  0  0  0  0  0  0  0  0  0
    5.4911   -0.8171    2.5121 C   0  0  0  0  0  0  0  0  0  0  0  0
    5.5728   -1.6422    1.2241 C   0  0  1  0  0  0  0  0  0  0  0  0
    6.9032   -1.8611    0.8124 O   0  0  0  0  0  0  0  0  0  0  0  0
    4.7536   -2.9295    1.5222 C   0  0  2  0  0  0  0  0  0  0  0  0
    5.5481   -4.1729    1.9562 C   0  0  1  0  0  0  0  0  0  0  0  0
    5.7384   -3.5017    3.2234 O   0  0  0  0  0  0  0  0  0  0  0  0
    4.4291   -2.9102    3.0133 C   0  0  1  0  0  0  0  0  0  0  0  0
    3.5016   -3.9266    3.8115 C   0  0  1  0  0  0  0  0  0  0  0  0
    3.9275   -3.8493    5.3116 C   0  0  0  0  0  0  0  0  0  0  0  0
    1.9946   -3.5640    3.8188 C   0  0  0  0  0  0  0  0  0  0  0  0
    1.0755   -4.5907    4.4914 C   0  0  0  0  0  0  0  0  0  0  0  0
    1.4594   -6.0371    4.2313 C   0  0  0  0  0  0  0  0  0  0  0  0
    0.9266   -6.9324    4.8872 O   0  0  0  0  0  0  0  0  0  0  0  0
    2.4686   -6.3420    3.1007 C   0  0  0  0  0  0  0  0  0  0  0  0
    2.8899   -7.8268    3.1854 C   0  0  0  0  0  0  0  0  0  0  0  0
    1.6984   -6.1743    1.7752 C   0  0  0  0  0  0  0  0  0  0  0  0
    3.7285   -5.4027    3.2897 C   0  0  1  0  0  0  0  0  0  0  0  0
    4.9293   -5.5267    2.3002 C   0  0  1  0  0  0  0  0  0  0  0  0
    4.7171   -6.2246    1.0948 O   0  0  0  0  0  0  0  0  0  0  0  0
    3.5223   -1.8500   -1.7260 C   0  0  0  0  0  0  0  0  0  0  0  0
    4.0853   -2.3078   -3.0442 C   0  0  1  0  0  0  0  0  0  0  0  0
    4.5293   -1.2015   -3.7998 O   0  0  0  0  0  0  0  0  0  0  0  0
    5.1487   -3.3303   -2.6350 C   0  0  1  0  0  0  0  0  0  0  0  0
    6.3749   -2.6961   -2.3180 O   0  0  0  0  0  0  0  0  0  0  0  0
    4.6213   -3.9783   -1.3353 C   0  0  0  0  0  0  0  0  0  0  0  0
    1.2236   -3.1581   -1.0509 H   0  0  0  0  0  0  0  0  0  0  0  0
    1.8737   -4.7185   -0.5749 H   0  0  0  0  0  0  0  0  0  0  0  0
    2.0330   -4.1560   -2.2091 H   0  0  0  0  0  0  0  0  0  0  0  0
    2.8848   -3.6992    1.1692 H   0  0  0  0  0  0  0  0  0  0  0  0
    2.7283   -0.7899    0.4443 H   0  0  0  0  0  0  0  0  0  0  0  0
    1.5924   -1.8369    1.2255 H   0  0  0  0  0  0  0  0  0  0  0  0
    3.1119    0.1808    2.3602 H   0  0  0  0  0  0  0  0  0  0  0  0
    2.1400   -0.9296    3.1990 H   0  0  0  0  0  0  0  0  0  0  0  0
    4.3151   -1.1279    4.3287 H   0  0  0  0  0  0  0  0  0  0  0  0
    5.3857    0.2458    2.2969 H   0  0  0  0  0  0  0  0  0  0  0  0
    6.3949   -0.9379    3.0988 H   0  0  0  0  0  0  0  0  0  0  0  0
    5.1399   -1.0302    0.4425 H   0  0  0  0  0  0  0  0  0  0  0  0
    7.3291   -2.4011    1.4521 H   0  0  0  0  0  0  0  0  0  0  0  0
    6.4769   -4.2583    1.4077 H   0  0  0  0  0  0  0  0  0  0  0  0
    3.3737   -4.5694    5.9216 H   0  0  0  0  0  0  0  0  0  0  0  0
    3.7402   -2.8595    5.7369 H   0  0  0  0  0  0  0  0  0  0  0  0
    4.9865   -4.0741    5.4598 H   0  0  0  0  0  0  0  0  0  0  0  0
    1.8440   -2.6330    4.3609 H   0  0  0  0  0  0  0  0  0  0  0  0
    1.6074   -3.3836    2.8236 H   0  0  0  0  0  0  0  0  0  0  0  0
    1.0940   -4.4319    5.5694 H   0  0  0  0  0  0  0  0  0  0  0  0
    0.0480   -4.4271    4.1764 H   0  0  0  0  0  0  0  0  0  0  0  0
    3.5676   -8.1166    2.3800 H   0  0  0  0  0  0  0  0  0  0  0  0
    2.0288   -8.4960    3.1189 H   0  0  0  0  0  0  0  0  0  0  0  0
    3.3925   -8.0439    4.1295 H   0  0  0  0  0  0  0  0  0  0  0  0
    2.3031   -6.3942    0.8987 H   0  0  0  0  0  0  0  0  0  0  0  0
    1.3046   -5.1717    1.6757 H   0  0  0  0  0  0  0  0  0  0  0  0
    0.8442   -6.8521    1.7240 H   0  0  0  0  0  0  0  0  0  0  0  0
    4.1755   -5.8775    4.1636 H   0  0  0  0  0  0  0  0  0  0  0  0
    5.6978   -6.1065    2.8208 H   0  0  0  0  0  0  0  0  0  0  0  0
    4.0855   -5.7631    0.5656 H   0  0  0  0  0  0  0  0  0  0  0  0
    2.5760   -1.3703   -1.9440 H   0  0  0  0  0  0  0  0  0  0  0  0
    4.1750   -1.0730   -1.3422 H   0  0  0  0  0  0  0  0  0  0  0  0
    3.2898   -2.7910   -3.6080 H   0  0  0  0  0  0  0  0  0  0  0  0
    3.8977   -0.5022   -3.7011 H   0  0  0  0  0  0  0  0  0  0  0  0
    5.2968   -4.0659   -3.4243 H   0  0  0  0  0  0  0  0  0  0  0  0
    7.0527   -3.3537   -2.2682 H   0  0  0  0  0  0  0  0  0  0  0  0
    5.4524   -4.1025   -0.6391 H   0  0  0  0  0  0  0  0  0  0  0  0
    4.3062   -5.0016   -1.5191 H   0  0  0  0  0  0  0  0  0  0  0  0
  2  1  1  6
  1 32  1  0
  1 33  1  0
  1 34  1  0
  2 31  1  0
  2  3  1  0
  2 26  1  0
  3 10  1  0
  3  4  1  0
  3 35  1  1
  4  5  1  0
  4 36  1  0
  4 37  1  0
  5  6  1  0
  5 38  1  0
  5 39  1  0
  6 13  1  0
  6  7  1  0
  6 40  1  1
  7  8  1  0
  7 41  1  0
  7 42  1  0
  8  9  1  0
  8 10  1  0
  8 43  1  6
  9 44  1  0
 10 13  1  1
 10 11  1  0
 11 24  1  0
 11 12  1  0
 11 45  1  6
 13 12  1  1
 13 14  1  0
 14 23  1  0
 14 15  1  1
 14 16  1  0
 15 46  1  0
 15 47  1  0
 15 48  1  0
 16 17  1  0
 16 49  1  0
 16 50  1  0
 17 18  1  0
 17 51  1  0
 17 52  1  0
 18 19  2  0
 18 20  1  0
 20 21  1  0
 20 22  1  0
 20 23  1  0
 21 53  1  0
 21 54  1  0
 21 55  1  0
 22 56  1  0
 22 57  1  0
 22 58  1  0
 23 24  1  0
 23 59  1  1
 24 25  1  0
 24 60  1  1
 25 61  1  0
 26 27  1  0
 26 62  1  0
 26 63  1  0
 27 28  1  0
 27 29  1  0
 27 64  1  6
 28 65  1  0
 29 30  1  0
 29 31  1  0
 29 66  1  6
 30 67  1  0
 31 68  1  0
 31 69  1  0
M  END
>  <i_m_ct_stereo_status>  (143) 
1

>  <s_m_source_file>  (143) 
/var/tmp/pbs.5076255.sched01/tmpqllwm4fg/43asec3i7m.sdf

>  <i_m_source_file_index>  (143) 
30

>  <i_lp_mmshare_version>  (143) 
48012

>  <i_f3d_flags>  (143) 
0

>  <s_epik_input>  (143) 
W09IXVtDQEBIXShbQ0gyXTEpW0NASF0oW09IXSlbQ0gyXVtDQEBdMShbQ0gzXSlbQ0BASF0yW0NIMl1bQ0gyXVtDQEhdKFtDSDJdW0NASF0zW09IXSlbQ0BdNChbQ0BAXTIzNSlbQ0BdNihbQ0gzXSlbQ0BIXShbQ0BIXShbQ0BASF01TzQpW09IXSlDKFtDSDNdKShbQ0gzXSlDKD1PKVtDSDJdW0NIMl02

>  <s_epik_cmdline>  (143) 
J2VwaWtfcHl0aG9uJywgJy1waHQnLCAnMi4wJywgJy1waCcsICc3LjAnLCAnLXRuJywgJzgnLCAnLW1hJywgJzIwMCcsICctaW1hZScsICc8aW5maWxlLm1hZT4nLCAnLW9tYWUnLCAnPG91dGZpbGUubWFlPic=

>  <r_lp_tautomer_probability>  (143) 
1

>  <r_epik_Ionization_Penalty>  (143) 
1.03076e-06

>  <r_epik_Ionization_Penalty_Charging>  (143) 
0

>  <r_epik_Ionization_Penalty_Neutral>  (143) 
1.03076e-06

>  <r_epik_State_Penalty>  (143) 
-0

>  <r_epik_Charging_Adjusted_Penalty>  (143) 
0

>  <i_epik_Tot_Q>  (143) 
0

>  <i_epik_Tot_abs_Q>  (143) 
0

>  <s_lp_Force_Field>  (143) 
OPLS3e

>  <r_lp_Energy>  (143) 
103.528

>  <b_lp_Chiralities_Consistent>  (143) 
1

>  <s_lp_Variant>  (143) 
41:0-1

>  <s_i_glide_gridfile>  (143) 
pfpi4k_grid

>  <i_i_glide_lignum>  (143) 
30

>  <i_i_glide_rotatable_bonds>  (143) 
5

>  <r_i_docking_score>  (143) 
-3.1424

>  <r_i_glide_ligand_efficiency>  (143) 
-0.101368

>  <r_i_glide_ligand_efficiency_sa>  (143) 
-0.318435

>  <r_i_glide_ligand_efficiency_ln>  (143) 
-0.708708

>  <r_i_glide_gscore>  (143) 
-3.1424

>  <r_i_glide_lipo>  (143) 
-0.694142

>  <r_i_glide_hbond>  (143) 
0

>  <r_i_glide_metal>  (143) 
-0

>  <r_i_glide_rewards>  (143) 
-0.446143

>  <r_i_glide_evdw>  (143) 
-24.5198

>  <r_i_glide_ecoul>  (143) 
-5.83809

>  <r_i_glide_erotb>  (143) 
0.105465

>  <r_i_glide_esite>  (143) 
-0.00587633

>  <r_i_glide_emodel>  (143) 
-33.9697

>  <r_i_glide_energy>  (143) 
-30.3579

>  <r_i_glide_einternal>  (143) 
4.30042

>  <r_i_glide_intrahb_reward>  (143) 
-0

>  <i_i_glide_confnum>  (143) 
5

>  <i_i_glide_posenum>  (143) 
27

>  <r_i_glide_eff_state_penalty>  (143) 
0

>  <ligand_id>  (143) 
41

>  <original_smiles>  (143) 
CC1(C2CCC3CC(O)C24C2OC34C3(C)CCC(=O)C(C)(C)C3C2O)CC(O)C(O)C1

>  <smiles>  (143) 
[H]OC1([H])C([H])([H])C(C([H])([H])[H])(C2([H])C([H])([H])C([H])([H])C3([H])C([H])([H])C([H])(O[H])C24C2([H])OC34C3(C([H])([H])[H])C([H])([H])C([H])([H])C(=O)C(C([H])([H])[H])(C([H])([H])[H])C3([H])C2([H])O[H])C([H])([H])C1([H])O[H]

$$$$
41:0:1
     RDKit          3D

 69 74  0  0  1  0  0  0  0  0999 V2000
    2.9126    0.9803    3.2694 C   0  0  0  0  0  0  0  0  0  0  0  0
    1.7367   -0.0090    3.4860 C   0  0  2  0  0  0  0  0  0  0  0  0
    2.2161   -1.5245    3.4687 C   0  0  2  0  0  0  0  0  0  0  0  0
    1.0615   -2.5557    3.7410 C   0  0  0  0  0  0  0  0  0  0  0  0
    1.4489   -3.9634    4.3045 C   0  0  0  0  0  0  0  0  0  0  0  0
    2.9275   -4.1507    4.8036 C   0  0  2  0  0  0  0  0  0  0  0  0
    3.0141   -3.4451    6.1721 C   0  0  0  0  0  0  0  0  0  0  0  0
    3.0392   -1.9524    5.8073 C   0  0  1  0  0  0  0  0  0  0  0  0
    3.8784   -1.2181    6.6683 O   0  0  0  0  0  0  0  0  0  0  0  0
    3.4423   -1.9077    4.3069 C   0  0  2  0  0  0  0  0  0  0  0  0
    4.9321   -1.6641    4.0053 C   0  0  1  0  0  0  0  0  0  0  0  0
    5.1491   -3.0027    4.4621 O   0  0  0  0  0  0  0  0  0  0  0  0
    3.8561   -3.3241    3.9284 C   0  0  1  0  0  0  0  0  0  0  0  0
    4.2464   -3.8594    2.4842 C   0  0  1  0  0  0  0  0  0  0  0  0
    5.1034   -5.1451    2.6773 C   0  0  0  0  0  0  0  0  0  0  0  0
    3.0385   -4.3189    1.6157 C   0  0  0  0  0  0  0  0  0  0  0  0
    3.3858   -4.7221    0.1748 C   0  0  0  0  0  0  0  0  0  0  0  0
    4.4552   -3.8513   -0.4832 C   0  0  0  0  0  0  0  0  0  0  0  0
    5.0158   -4.2176   -1.5032 O   0  0  0  0  0  0  0  0  0  0  0  0
    4.7977   -2.5080    0.1858 C   0  0  0  0  0  0  0  0  0  0  0  0
    6.0552   -1.9282   -0.5156 C   0  0  0  0  0  0  0  0  0  0  0  0
    3.6237   -1.5409   -0.1060 C   0  0  0  0  0  0  0  0  0  0  0  0
    5.1077   -2.7862    1.7056 C   0  0  1  0  0  0  0  0  0  0  0  0
    5.5383   -1.6048    2.6093 C   0  0  1  0  0  0  0  0  0  0  0  0
    5.4053   -0.3161    2.0677 O   0  0  0  0  0  0  0  0  0  0  0  0
    0.7466    0.2581    2.3101 C   0  0  0  0  0  0  0  0  0  0  0  0
   -0.1584    1.3986    2.7592 C   0  0  1  0  0  0  0  0  0  0  0  0
   -1.3835    1.3668    2.0770 O   0  0  0  0  0  0  0  0  0  0  0  0
   -0.3524    1.1670    4.2611 C   0  0  1  0  0  0  0  0  0  0  0  0
   -1.4565    0.3009    4.4808 O   0  0  0  0  0  0  0  0  0  0  0  0
    0.9249    0.4650    4.7472 C   0  0  0  0  0  0  0  0  0  0  0  0
    3.2771    0.9140    2.2457 H   0  0  0  0  0  0  0  0  0  0  0  0
    3.7364    0.8002    3.9571 H   0  0  0  0  0  0  0  0  0  0  0  0
    2.6178    2.0141    3.4038 H   0  0  0  0  0  0  0  0  0  0  0  0
    2.5186   -1.6555    2.4379 H   0  0  0  0  0  0  0  0  0  0  0  0
    0.2743   -2.1426    4.3643 H   0  0  0  0  0  0  0  0  0  0  0  0
    0.5555   -2.7290    2.7964 H   0  0  0  0  0  0  0  0  0  0  0  0
    0.7571   -4.1885    5.1157 H   0  0  0  0  0  0  0  0  0  0  0  0
    1.1987   -4.7154    3.5628 H   0  0  0  0  0  0  0  0  0  0  0  0
    3.1980   -5.2034    4.8939 H   0  0  0  0  0  0  0  0  0  0  0  0
    2.1911   -3.6798    6.8473 H   0  0  0  0  0  0  0  0  0  0  0  0
    3.9421   -3.7321    6.6786 H   0  0  0  0  0  0  0  0  0  0  0  0
    2.0533   -1.5987    6.0179 H   0  0  0  0  0  0  0  0  0  0  0  0
    3.8168   -0.3012    6.4497 H   0  0  0  0  0  0  0  0  0  0  0  0
    5.3488   -0.9248    4.6836 H   0  0  0  0  0  0  0  0  0  0  0  0
    5.4609   -5.5335    1.7222 H   0  0  0  0  0  0  0  0  0  0  0  0
    4.5361   -5.9440    3.1576 H   0  0  0  0  0  0  0  0  0  0  0  0
    5.9940   -4.9634    3.2850 H   0  0  0  0  0  0  0  0  0  0  0  0
    2.5830   -5.1930    2.0695 H   0  0  0  0  0  0  0  0  0  0  0  0
    2.2645   -3.5657    1.5701 H   0  0  0  0  0  0  0  0  0  0  0  0
    3.7533   -5.7493    0.1707 H   0  0  0  0  0  0  0  0  0  0  0  0
    2.4884   -4.7194   -0.4413 H   0  0  0  0  0  0  0  0  0  0  0  0
    6.3433   -0.9500   -0.1305 H   0  0  0  0  0  0  0  0  0  0  0  0
    5.8935   -1.8050   -1.5878 H   0  0  0  0  0  0  0  0  0  0  0  0
    6.9147   -2.5917   -0.3958 H   0  0  0  0  0  0  0  0  0  0  0  0
    3.7543   -0.5374    0.2922 H   0  0  0  0  0  0  0  0  0  0  0  0
    2.6656   -1.9090    0.2565 H   0  0  0  0  0  0  0  0  0  0  0  0
    3.4862   -1.4168   -1.1820 H   0  0  0  0  0  0  0  0  0  0  0  0
    6.0691   -3.2944    1.6213 H   0  0  0  0  0  0  0  0  0  0  0  0
    6.6126   -1.6764    2.7079 H   0  0  0  0  0  0  0  0  0  0  0  0
    4.4772   -0.1310    1.9564 H   0  0  0  0  0  0  0  0  0  0  0  0
    1.2247    0.4640    1.3425 H   0  0  0  0  0  0  0  0  0  0  0  0
    0.1257   -0.6155    2.1322 H   0  0  0  0  0  0  0  0  0  0  0  0
    0.3634    2.3465    2.6030 H   0  0  0  0  0  0  0  0  0  0  0  0
   -1.1992    1.4115    1.1392 H   0  0  0  0  0  0  0  0  0  0  0  0
   -0.5162    2.0990    4.8021 H   0  0  0  0  0  0  0  0  0  0  0  0
   -2.1276    0.5858    3.8708 H   0  0  0  0  0  0  0  0  0  0  0  0
    0.5748   -0.2995    5.4299 H   0  0  0  0  0  0  0  0  0  0  0  0
    1.5368    1.1235    5.3645 H   0  0  0  0  0  0  0  0  0  0  0  0
  2  1  1  6
  1 32  1  0
  1 33  1  0
  1 34  1  0
  2 31  1  0
  2  3  1  0
  2 26  1  0
  3 10  1  0
  3  4  1  0
  3 35  1  6
  4  5  1  0
  4 36  1  0
  4 37  1  0
  5  6  1  0
  5 38  1  0
  5 39  1  0
  6 13  1  0
  6  7  1  0
  6 40  1  1
  7  8  1  0
  7 41  1  0
  7 42  1  0
  8  9  1  0
  8 10  1  0
  8 43  1  6
  9 44  1  0
 10 13  1  6
 10 11  1  0
 11 24  1  0
 11 12  1  0
 11 45  1  1
 13 12  1  1
 13 14  1  0
 14 23  1  0
 14 15  1  1
 14 16  1  0
 15 46  1  0
 15 47  1  0
 15 48  1  0
 16 17  1  0
 16 49  1  0
 16 50  1  0
 17 18  1  0
 17 51  1  0
 17 52  1  0
 18 19  2  0
 18 20  1  0
 20 21  1  0
 20 22  1  0
 20 23  1  0
 21 53  1  0
 21 54  1  0
 21 55  1  0
 22 56  1  0
 22 57  1  0
 22 58  1  0
 23 24  1  0
 23 59  1  6
 24 25  1  0
 24 60  1  1
 25 61  1  0
 26 27  1  0
 26 62  1  0
 26 63  1  0
 27 28  1  0
 27 29  1  0
 27 64  1  1
 28 65  1  0
 29 30  1  0
 29 31  1  0
 29 66  1  1
 30 67  1  0
 31 68  1  0
 31 69  1  0
M  END
>  <i_m_ct_stereo_status>  (144) 
1

>  <s_m_source_file>  (144) 
/var/tmp/pbs.5076255.sched01/tmpqllwm4fg/43asec3i7m.sdf

>  <i_m_source_file_index>  (144) 
30

>  <i_lp_mmshare_version>  (144) 
48012

>  <i_f3d_flags>  (144) 
0

>  <s_epik_input>  (144) 
W09IXVtDQEBIXShbQ0gyXTEpW0NASF0oW09IXSlbQ0gyXVtDQEBdMShbQ0gzXSlbQ0BASF0yW0NIMl1bQ0gyXVtDQEhdKFtDSDJdW0NASF0zW09IXSlbQ0BdNChbQ0BAXTIzNSlbQ0BdNihbQ0gzXSlbQ0BIXShbQ0BIXShbQ0BASF01TzQpW09IXSlDKFtDSDNdKShbQ0gzXSlDKD1PKVtDSDJdW0NIMl02

>  <s_epik_cmdline>  (144) 
J2VwaWtfcHl0aG9uJywgJy1waHQnLCAnMi4wJywgJy1waCcsICc3LjAnLCAnLXRuJywgJzgnLCAnLW1hJywgJzIwMCcsICctaW1hZScsICc8aW5maWxlLm1hZT4nLCAnLW9tYWUnLCAnPG91dGZpbGUubWFlPic=

>  <r_lp_tautomer_probability>  (144) 
1

>  <r_epik_Ionization_Penalty>  (144) 
1.03076e-06

>  <r_epik_Ionization_Penalty_Charging>  (144) 
0

>  <r_epik_Ionization_Penalty_Neutral>  (144) 
1.03076e-06

>  <r_epik_State_Penalty>  (144) 
-0

>  <r_epik_Charging_Adjusted_Penalty>  (144) 
0

>  <i_epik_Tot_Q>  (144) 
0

>  <i_epik_Tot_abs_Q>  (144) 
0

>  <s_lp_Force_Field>  (144) 
OPLS3e

>  <r_lp_Energy>  (144) 
103.528

>  <b_lp_Chiralities_Consistent>  (144) 
1

>  <s_lp_Variant>  (144) 
41:0-1

>  <s_i_glide_gridfile>  (144) 
pfpi4k_grid

>  <i_i_glide_lignum>  (144) 
30

>  <i_i_glide_rotatable_bonds>  (144) 
5

>  <r_i_docking_score>  (144) 
-2.71633

>  <r_i_glide_ligand_efficiency>  (144) 
-0.0876235

>  <r_i_glide_ligand_efficiency_sa>  (144) 
-0.275259

>  <r_i_glide_ligand_efficiency_ln>  (144) 
-0.612615

>  <r_i_glide_gscore>  (144) 
-2.71633

>  <r_i_glide_lipo>  (144) 
-0.252798

>  <r_i_glide_hbond>  (144) 
-0.164083

>  <r_i_glide_metal>  (144) 
-0

>  <r_i_glide_rewards>  (144) 
-0.455964

>  <r_i_glide_evdw>  (144) 
-27.0801

>  <r_i_glide_ecoul>  (144) 
-3.9663

>  <r_i_glide_erotb>  (144) 
0.105465

>  <r_i_glide_esite>  (144) 
0

>  <r_i_glide_emodel>  (144) 
-34.8272

>  <r_i_glide_energy>  (144) 
-31.0464

>  <r_i_glide_einternal>  (144) 
2.43387

>  <r_i_glide_intrahb_reward>  (144) 
-0

>  <i_i_glide_confnum>  (144) 
3

>  <i_i_glide_posenum>  (144) 
29

>  <r_i_glide_eff_state_penalty>  (144) 
0

>  <ligand_id>  (144) 
41

>  <original_smiles>  (144) 
CC1(C2CCC3CC(O)C24C2OC34C3(C)CCC(=O)C(C)(C)C3C2O)CC(O)C(O)C1

>  <smiles>  (144) 
[H]OC1([H])C([H])([H])C(C([H])([H])[H])(C2([H])C([H])([H])C([H])([H])C3([H])C([H])([H])C([H])(O[H])C24C2([H])OC34C3(C([H])([H])[H])C([H])([H])C([H])([H])C(=O)C(C([H])([H])[H])(C([H])([H])[H])C3([H])C2([H])O[H])C([H])([H])C1([H])O[H]

$$$$
41:0:2
     RDKit          3D

 69 74  0  0  1  0  0  0  0  0999 V2000
    1.3801   -1.7721    6.5087 C   0  0  0  0  0  0  0  0  0  0  0  0
    1.7748   -1.4468    5.0360 C   0  0  2  0  0  0  0  0  0  0  0  0
    2.2246   -2.6955    4.1725 C   0  0  2  0  0  0  0  0  0  0  0  0
    1.0942   -3.7854    4.0055 C   0  0  0  0  0  0  0  0  0  0  0  0
    1.5196   -5.2803    3.7193 C   0  0  0  0  0  0  0  0  0  0  0  0
    3.0379   -5.6328    3.8307 C   0  0  2  0  0  0  0  0  0  0  0  0
    3.3775   -5.7100    5.3327 C   0  0  0  0  0  0  0  0  0  0  0  0
    3.3869   -4.2437    5.7704 C   0  0  1  0  0  0  0  0  0  0  0  0
    4.3809   -4.0022    6.7487 O   0  0  0  0  0  0  0  0  0  0  0  0
    3.5549   -3.4136    4.4608 C   0  0  2  0  0  0  0  0  0  0  0  0
    4.9907   -2.9715    4.1022 C   0  0  1  0  0  0  0  0  0  0  0  0
    5.2521   -4.3745    3.7874 O   0  0  0  0  0  0  0  0  0  0  0  0
    3.8596   -4.4365    3.3570 C   0  0  1  0  0  0  0  0  0  0  0  0
    3.9929   -4.1676    1.8019 C   0  0  1  0  0  0  0  0  0  0  0  0
    4.8143   -5.3352    1.1893 C   0  0  0  0  0  0  0  0  0  0  0  0
    2.6536   -4.1715    1.0308 C   0  0  0  0  0  0  0  0  0  0  0  0
    2.7386   -3.7858   -0.4532 C   0  0  0  0  0  0  0  0  0  0  0  0
    3.7116   -2.6431   -0.7385 C   0  0  0  0  0  0  0  0  0  0  0  0
    4.0697   -2.4252   -1.9018 O   0  0  0  0  0  0  0  0  0  0  0  0
    4.2309   -1.8167    0.4510 C   0  0  0  0  0  0  0  0  0  0  0  0
    5.3833   -0.9148   -0.0674 C   0  0  0  0  0  0  0  0  0  0  0  0
    3.0735   -0.8947    0.9046 C   0  0  0  0  0  0  0  0  0  0  0  0
    4.7800   -2.8201    1.5332 C   0  0  1  0  0  0  0  0  0  0  0  0
    5.4276   -2.2363    2.8203 C   0  0  1  0  0  0  0  0  0  0  0  0
    5.3703   -0.8433    3.0135 O   0  0  0  0  0  0  0  0  0  0  0  0
    2.8535   -0.3486    5.0796 C   0  0  0  0  0  0  0  0  0  0  0  0
    2.1274    0.9852    5.2287 C   0  0  1  0  0  0  0  0  0  0  0  0
    2.9715    2.0573    4.8496 O   0  0  0  0  0  0  0  0  0  0  0  0
    0.9336    0.8102    4.2869 C   0  0  1  0  0  0  0  0  0  0  0  0
    1.2619    1.1899    2.9559 O   0  0  0  0  0  0  0  0  0  0  0  0
    0.6101   -0.7031    4.3057 C   0  0  0  0  0  0  0  0  0  0  0  0
    2.2537   -2.0088    7.1196 H   0  0  0  0  0  0  0  0  0  0  0  0
    0.6619   -2.5890    6.6435 H   0  0  0  0  0  0  0  0  0  0  0  0
    0.9348   -0.8945    6.9894 H   0  0  0  0  0  0  0  0  0  0  0  0
    2.3810   -2.2901    3.1812 H   0  0  0  0  0  0  0  0  0  0  0  0
    0.4549   -3.8093    4.8959 H   0  0  0  0  0  0  0  0  0  0  0  0
    0.4347   -3.4650    3.2025 H   0  0  0  0  0  0  0  0  0  0  0  0
    0.9717   -5.9152    4.4155 H   0  0  0  0  0  0  0  0  0  0  0  0
    1.1241   -5.5887    2.7512 H   0  0  0  0  0  0  0  0  0  0  0  0
    3.3019   -6.5661    3.3302 H   0  0  0  0  0  0  0  0  0  0  0  0
    2.6613   -6.2994    5.9080 H   0  0  0  0  0  0  0  0  0  0  0  0
    4.3598   -6.1634    5.4751 H   0  0  0  0  0  0  0  0  0  0  0  0
    2.4265   -4.0926    6.2641 H   0  0  0  0  0  0  0  0  0  0  0  0
    4.2211   -4.5517    7.4991 H   0  0  0  0  0  0  0  0  0  0  0  0
    5.5419   -2.6500    4.9872 H   0  0  0  0  0  0  0  0  0  0  0  0
    4.9917   -5.1707    0.1268 H   0  0  0  0  0  0  0  0  0  0  0  0
    4.2884   -6.2868    1.2887 H   0  0  0  0  0  0  0  0  0  0  0  0
    5.7936   -5.4402    1.6586 H   0  0  0  0  0  0  0  0  0  0  0  0
    2.2371   -5.1799    1.0463 H   0  0  0  0  0  0  0  0  0  0  0  0
    1.9154   -3.5320    1.4993 H   0  0  0  0  0  0  0  0  0  0  0  0
    3.0637   -4.6519   -1.0262 H   0  0  0  0  0  0  0  0  0  0  0  0
    1.7595   -3.5074   -0.8328 H   0  0  0  0  0  0  0  0  0  0  0  0
    5.7758   -0.2339    0.6836 H   0  0  0  0  0  0  0  0  0  0  0  0
    5.0411   -0.2779   -0.8844 H   0  0  0  0  0  0  0  0  0  0  0  0
    6.2185   -1.5128   -0.4349 H   0  0  0  0  0  0  0  0  0  0  0  0
    3.3347   -0.2197    1.7177 H   0  0  0  0  0  0  0  0  0  0  0  0
    2.1816   -1.4397    1.1936 H   0  0  0  0  0  0  0  0  0  0  0  0
    2.7625   -0.2586    0.0792 H   0  0  0  0  0  0  0  0  0  0  0  0
    5.6801   -3.1804    1.0291 H   0  0  0  0  0  0  0  0  0  0  0  0
    6.4949   -2.3961    2.6562 H   0  0  0  0  0  0  0  0  0  0  0  0
    4.4686   -0.5964    3.1254 H   0  0  0  0  0  0  0  0  0  0  0  0
    3.6261   -0.5043    5.8436 H   0  0  0  0  0  0  0  0  0  0  0  0
    3.3252   -0.3007    4.1006 H   0  0  0  0  0  0  0  0  0  0  0  0
    1.7860    1.1407    6.2528 H   0  0  0  0  0  0  0  0  0  0  0  0
    3.1891    1.9649    3.9374 H   0  0  0  0  0  0  0  0  0  0  0  0
    0.0751    1.3933    4.6159 H   0  0  0  0  0  0  0  0  0  0  0  0
    1.2603    2.1289    2.8822 H   0  0  0  0  0  0  0  0  0  0  0  0
    0.4509   -1.0661    3.2864 H   0  0  0  0  0  0  0  0  0  0  0  0
   -0.3345   -0.8784    4.8234 H   0  0  0  0  0  0  0  0  0  0  0  0
  2  1  1  1
  1 32  1  0
  1 33  1  0
  1 34  1  0
  2 31  1  0
  2  3  1  0
  2 26  1  0
  3 10  1  0
  3  4  1  0
  3 35  1  6
  4  5  1  0
  4 36  1  0
  4 37  1  0
  5  6  1  0
  5 38  1  0
  5 39  1  0
  6 13  1  0
  6  7  1  0
  6 40  1  6
  7  8  1  0
  7 41  1  0
  7 42  1  0
  8  9  1  0
  8 10  1  0
  8 43  1  1
  9 44  1  0
 10 13  1  6
 10 11  1  0
 11 24  1  0
 11 12  1  0
 11 45  1  1
 13 12  1  1
 13 14  1  0
 14 23  1  0
 14 15  1  6
 14 16  1  0
 15 46  1  0
 15 47  1  0
 15 48  1  0
 16 17  1  0
 16 49  1  0
 16 50  1  0
 17 18  1  0
 17 51  1  0
 17 52  1  0
 18 19  2  0
 18 20  1  0
 20 21  1  0
 20 22  1  0
 20 23  1  0
 21 53  1  0
 21 54  1  0
 21 55  1  0
 22 56  1  0
 22 57  1  0
 22 58  1  0
 23 24  1  0
 23 59  1  6
 24 25  1  0
 24 60  1  6
 25 61  1  0
 26 27  1  0
 26 62  1  0
 26 63  1  0
 27 28  1  0
 27 29  1  0
 27 64  1  1
 28 65  1  0
 29 30  1  0
 29 31  1  0
 29 66  1  1
 30 67  1  0
 31 68  1  0
 31 69  1  0
M  END
>  <i_m_ct_stereo_status>  (145) 
1

>  <s_m_source_file>  (145) 
/var/tmp/pbs.5076255.sched01/tmpqllwm4fg/43asec3i7m.sdf

>  <i_m_source_file_index>  (145) 
30

>  <i_lp_mmshare_version>  (145) 
48012

>  <i_f3d_flags>  (145) 
0

>  <s_epik_input>  (145) 
W09IXVtDQEBIXShbQ0gyXTEpW0NASF0oW09IXSlbQ0gyXVtDQEBdMShbQ0gzXSlbQ0BASF0yW0NIMl1bQ0gyXVtDQEhdKFtDSDJdW0NASF0zW09IXSlbQ0BdNChbQ0BAXTIzNSlbQ0BdNihbQ0gzXSlbQ0BIXShbQ0BIXShbQ0BASF01TzQpW09IXSlDKFtDSDNdKShbQ0gzXSlDKD1PKVtDSDJdW0NIMl02

>  <s_epik_cmdline>  (145) 
J2VwaWtfcHl0aG9uJywgJy1waHQnLCAnMi4wJywgJy1waCcsICc3LjAnLCAnLXRuJywgJzgnLCAnLW1hJywgJzIwMCcsICctaW1hZScsICc8aW5maWxlLm1hZT4nLCAnLW9tYWUnLCAnPG91dGZpbGUubWFlPic=

>  <r_lp_tautomer_probability>  (145) 
1

>  <r_epik_Ionization_Penalty>  (145) 
1.03076e-06

>  <r_epik_Ionization_Penalty_Charging>  (145) 
0

>  <r_epik_Ionization_Penalty_Neutral>  (145) 
1.03076e-06

>  <r_epik_State_Penalty>  (145) 
-0

>  <r_epik_Charging_Adjusted_Penalty>  (145) 
0

>  <i_epik_Tot_Q>  (145) 
0

>  <i_epik_Tot_abs_Q>  (145) 
0

>  <s_lp_Force_Field>  (145) 
OPLS3e

>  <r_lp_Energy>  (145) 
103.528

>  <b_lp_Chiralities_Consistent>  (145) 
1

>  <s_lp_Variant>  (145) 
41:0-1

>  <s_i_glide_gridfile>  (145) 
pfpi4k_grid

>  <i_i_glide_lignum>  (145) 
30

>  <i_i_glide_rotatable_bonds>  (145) 
5

>  <r_i_docking_score>  (145) 
-1.96903

>  <r_i_glide_ligand_efficiency>  (145) 
-0.0635172

>  <r_i_glide_ligand_efficiency_sa>  (145) 
-0.199532

>  <r_i_glide_ligand_efficiency_ln>  (145) 
-0.444077

>  <r_i_glide_gscore>  (145) 
-1.96903

>  <r_i_glide_lipo>  (145) 
-0.190065

>  <r_i_glide_hbond>  (145) 
0

>  <r_i_glide_metal>  (145) 
-0

>  <r_i_glide_rewards>  (145) 
-0.446143

>  <r_i_glide_evdw>  (145) 
-21.6871

>  <r_i_glide_ecoul>  (145) 
-2.17552

>  <r_i_glide_erotb>  (145) 
0.105465

>  <r_i_glide_esite>  (145) 
-0.0276074

>  <r_i_glide_emodel>  (145) 
-27.1142

>  <r_i_glide_energy>  (145) 
-23.8626

>  <r_i_glide_einternal>  (145) 
0.824528

>  <r_i_glide_intrahb_reward>  (145) 
-0

>  <i_i_glide_confnum>  (145) 
3

>  <i_i_glide_posenum>  (145) 
1

>  <r_i_glide_eff_state_penalty>  (145) 
0

>  <ligand_id>  (145) 
41

>  <original_smiles>  (145) 
CC1(C2CCC3CC(O)C24C2OC34C3(C)CCC(=O)C(C)(C)C3C2O)CC(O)C(O)C1

>  <smiles>  (145) 
[H]OC1([H])C([H])([H])C(C([H])([H])[H])(C2([H])C([H])([H])C([H])([H])C3([H])C([H])([H])C([H])(O[H])C24C2([H])OC34C3(C([H])([H])[H])C([H])([H])C([H])([H])C(=O)C(C([H])([H])[H])(C([H])([H])[H])C3([H])C2([H])O[H])C([H])([H])C1([H])O[H]

$$$$
42:0:0
     RDKit          3D

 26 27  0  0  1  0  0  0  0  0999 V2000
   -1.3101   -9.5768    2.1137 C   0  0  0  0  0  0  0  0  0  0  0  0
    0.0489   -8.9968    2.5272 C   0  0  2  0  0  0  0  0  0  0  0  0
    0.8472  -10.0011    3.7883 S   0  0  0  0  0  0  0  0  0  0  0  0
    0.8963   -8.6928    4.9489 C   0  0  0  0  0  0  0  0  0  0  0  0
    1.3737   -8.7528    6.2041 C   0  0  0  0  0  0  0  0  0  0  0  0
    1.3640   -7.5578    7.1482 C   0  0  0  0  0  0  0  0  0  0  0  0
    0.5227   -7.9067    8.3850 C   0  0  0  0  0  0  0  0  0  0  0  0
    2.8107   -7.2184    7.5398 C   0  0  0  0  0  0  0  0  0  0  0  0
    0.7436   -6.3471    6.4471 C   0  0  0  0  0  0  0  0  0  0  0  0
    0.2871   -6.3669    5.1801 C   0  0  0  0  0  0  0  0  0  0  0  0
    0.3506   -7.5308    4.4018 N   0  0  0  0  0  0  0  0  0  0  0  0
   -0.1031   -7.6015    3.1351 C   0  0  0  0  0  0  0  0  0  0  0  0
   -0.5931   -6.6658    2.4932 O   0  0  0  0  0  0  0  0  0  0  0  0
   -1.7906   -8.9724    1.3502 H   0  0  0  0  0  0  0  0  0  0  0  0
   -1.9828   -9.6640    2.9647 H   0  0  0  0  0  0  0  0  0  0  0  0
   -1.1727  -10.5715    1.6897 H   0  0  0  0  0  0  0  0  0  0  0  0
    0.7269   -8.9313    1.6827 H   0  0  0  0  0  0  0  0  0  0  0  0
    1.7823   -9.6786    6.5858 H   0  0  0  0  0  0  0  0  0  0  0  0
   -0.5004   -8.1518    8.0939 H   0  0  0  0  0  0  0  0  0  0  0  0
    0.4778   -7.0725    9.0866 H   0  0  0  0  0  0  0  0  0  0  0  0
    0.9245   -8.7720    8.9158 H   0  0  0  0  0  0  0  0  0  0  0  0
    3.4006   -6.9755    6.6523 H   0  0  0  0  0  0  0  0  0  0  0  0
    3.3013   -8.0571    8.0372 H   0  0  0  0  0  0  0  0  0  0  0  0
    2.8558   -6.3591    8.2090 H   0  0  0  0  0  0  0  0  0  0  0  0
    0.6899   -5.4378    7.0331 H   0  0  0  0  0  0  0  0  0  0  0  0
   -0.1454   -5.5068    4.6866 H   0  0  0  0  0  0  0  0  0  0  0  0
  1  2  1  0
  1 14  1  0
  1 15  1  0
  1 16  1  0
  2 12  1  0
  2  3  1  0
  2 17  1  6
  3  4  1  0
  4 11  1  0
  4  5  2  0
  5  6  1  0
  5 18  1  0
  6  7  1  0
  6  8  1  0
  6  9  1  0
  7 19  1  0
  7 20  1  0
  7 21  1  0
  8 22  1  0
  8 23  1  0
  8 24  1  0
  9 10  2  0
  9 25  1  0
 10 11  1  0
 10 26  1  0
 11 12  1  0
 12 13  2  0
M  END
>  <i_m_ct_stereo_status>  (146) 
1

>  <s_m_source_file>  (146) 
/var/tmp/pbs.5076255.sched01/tmpqllwm4fg/43asec3i7m.sdf

>  <i_m_source_file_index>  (146) 
31

>  <i_lp_mmshare_version>  (146) 
48012

>  <i_f3d_flags>  (146) 
0

>  <s_epik_input>  (146) 
W0NIM11bQ0BIXShTMSlDKD1PKU4oQzE9MilbQ0hdPVtDSF1DKFtDSF0yKShbQ0gzXSlbQ0gzXQ==

>  <s_epik_cmdline>  (146) 
J2VwaWtfcHl0aG9uJywgJy1waHQnLCAnMi4wJywgJy1waCcsICc3LjAnLCAnLXRuJywgJzgnLCAnLW1hJywgJzIwMCcsICctaW1hZScsICc8aW5maWxlLm1hZT4nLCAnLW9tYWUnLCAnPG91dGZpbGUubWFlPic=

>  <r_lp_tautomer_probability>  (146) 
1

>  <r_epik_Ionization_Penalty>  (146) 
4.05199e-14

>  <r_epik_Ionization_Penalty_Charging>  (146) 
0

>  <r_epik_Ionization_Penalty_Neutral>  (146) 
4.05199e-14

>  <r_epik_State_Penalty>  (146) 
-0

>  <r_epik_Charging_Adjusted_Penalty>  (146) 
0

>  <i_epik_Tot_Q>  (146) 
0

>  <i_epik_Tot_abs_Q>  (146) 
0

>  <s_lp_Force_Field>  (146) 
OPLS3e

>  <r_lp_Energy>  (146) 
17.9264

>  <b_lp_Chiralities_Consistent>  (146) 
1

>  <s_lp_Variant>  (146) 
42:0-1

>  <s_i_glide_gridfile>  (146) 
pfpi4k_grid

>  <i_i_glide_lignum>  (146) 
31

>  <i_i_glide_rotatable_bonds>  (146) 
0

>  <r_i_docking_score>  (146) 
-3.8399

>  <r_i_glide_ligand_efficiency>  (146) 
-0.295377

>  <r_i_glide_ligand_efficiency_sa>  (146) 
-0.694529

>  <r_i_glide_ligand_efficiency_ln>  (146) 
-1.07713

>  <r_i_glide_gscore>  (146) 
-3.8399

>  <r_i_glide_lipo>  (146) 
-0.166917

>  <r_i_glide_hbond>  (146) 
-0.16

>  <r_i_glide_metal>  (146) 
-0

>  <r_i_glide_rewards>  (146) 
-2.07762

>  <r_i_glide_evdw>  (146) 
-14.58

>  <r_i_glide_ecoul>  (146) 
-4.2244

>  <r_i_glide_erotb>  (146) 
0

>  <r_i_glide_esite>  (146) 
-0.0726968

>  <r_i_glide_emodel>  (146) 
-23.7439

>  <r_i_glide_energy>  (146) 
-18.8044

>  <r_i_glide_einternal>  (146) 
0

>  <r_i_glide_intrahb_reward>  (146) 
-0

>  <i_i_glide_confnum>  (146) 
2

>  <i_i_glide_posenum>  (146) 
1

>  <r_i_glide_eff_state_penalty>  (146) 
0

>  <ligand_id>  (146) 
42

>  <original_smiles>  (146) 
CC1SC2=CC(C)(C)C=CN2C1=O

>  <smiles>  (146) 
[H]C1=C([H])C(C([H])([H])[H])(C([H])([H])[H])C([H])=C2SC([H])(C([H])([H])[H])C(=O)N12

$$$$
42:0:1
     RDKit          3D

 26 27  0  0  1  0  0  0  0  0999 V2000
    1.4976   -2.9488    3.5927 C   0  0  0  0  0  0  0  0  0  0  0  0
    2.0855   -4.3514    3.8090 C   0  0  2  0  0  0  0  0  0  0  0  0
    2.0079   -5.3497    2.3094 S   0  0  0  0  0  0  0  0  0  0  0  0
    0.9951   -6.5761    3.0395 C   0  0  0  0  0  0  0  0  0  0  0  0
    0.5030   -7.6732    2.4392 C   0  0  0  0  0  0  0  0  0  0  0  0
   -0.3608   -8.6953    3.1700 C   0  0  0  0  0  0  0  0  0  0  0  0
   -1.7325   -8.7718    2.4787 C   0  0  0  0  0  0  0  0  0  0  0  0
    0.3635  -10.0535    3.1484 C   0  0  0  0  0  0  0  0  0  0  0  0
   -0.5624   -8.2621    4.6214 C   0  0  0  0  0  0  0  0  0  0  0  0
   -0.0364   -7.1398    5.1504 C   0  0  0  0  0  0  0  0  0  0  0  0
    0.7530   -6.2751    4.3809 N   0  0  0  0  0  0  0  0  0  0  0  0
    1.2940   -5.1380    4.8585 C   0  0  0  0  0  0  0  0  0  0  0  0
    1.1776   -4.7235    6.0142 O   0  0  0  0  0  0  0  0  0  0  0  0
    1.5446   -2.3536    4.5049 H   0  0  0  0  0  0  0  0  0  0  0  0
    0.4542   -2.9988    3.2844 H   0  0  0  0  0  0  0  0  0  0  0  0
    2.0429   -2.4124    2.8183 H   0  0  0  0  0  0  0  0  0  0  0  0
    3.1266   -4.2792    4.1305 H   0  0  0  0  0  0  0  0  0  0  0  0
    0.7214   -7.8736    1.4002 H   0  0  0  0  0  0  0  0  0  0  0  0
   -2.2317   -7.8017    2.5040 H   0  0  0  0  0  0  0  0  0  0  0  0
   -2.3885   -9.4853    2.9794 H   0  0  0  0  0  0  0  0  0  0  0  0
   -1.6450   -9.0678    1.4352 H   0  0  0  0  0  0  0  0  0  0  0  0
    1.3355   -9.9808    3.6402 H   0  0  0  0  0  0  0  0  0  0  0  0
    0.5368  -10.4090    2.1311 H   0  0  0  0  0  0  0  0  0  0  0  0
   -0.1943  -10.8235    3.6794 H   0  0  0  0  0  0  0  0  0  0  0  0
   -1.1598   -8.9258    5.2362 H   0  0  0  0  0  0  0  0  0  0  0  0
   -0.1763   -6.8475    6.1815 H   0  0  0  0  0  0  0  0  0  0  0  0
  1  2  1  0
  1 14  1  0
  1 15  1  0
  1 16  1  0
  2 12  1  0
  2  3  1  0
  2 17  1  1
  3  4  1  0
  4 11  1  0
  4  5  2  0
  5  6  1  0
  5 18  1  0
  6  7  1  0
  6  8  1  0
  6  9  1  0
  7 19  1  0
  7 20  1  0
  7 21  1  0
  8 22  1  0
  8 23  1  0
  8 24  1  0
  9 10  2  0
  9 25  1  0
 10 11  1  0
 10 26  1  0
 11 12  1  0
 12 13  2  0
M  END
>  <i_m_ct_stereo_status>  (147) 
1

>  <s_m_source_file>  (147) 
/var/tmp/pbs.5076255.sched01/tmpqllwm4fg/43asec3i7m.sdf

>  <i_m_source_file_index>  (147) 
31

>  <i_lp_mmshare_version>  (147) 
48012

>  <i_f3d_flags>  (147) 
0

>  <s_epik_input>  (147) 
W0NIM11bQ0BIXShTMSlDKD1PKU4oQzE9MilbQ0hdPVtDSF1DKFtDSF0yKShbQ0gzXSlbQ0gzXQ==

>  <s_epik_cmdline>  (147) 
J2VwaWtfcHl0aG9uJywgJy1waHQnLCAnMi4wJywgJy1waCcsICc3LjAnLCAnLXRuJywgJzgnLCAnLW1hJywgJzIwMCcsICctaW1hZScsICc8aW5maWxlLm1hZT4nLCAnLW9tYWUnLCAnPG91dGZpbGUubWFlPic=

>  <r_lp_tautomer_probability>  (147) 
1

>  <r_epik_Ionization_Penalty>  (147) 
4.05199e-14

>  <r_epik_Ionization_Penalty_Charging>  (147) 
0

>  <r_epik_Ionization_Penalty_Neutral>  (147) 
4.05199e-14

>  <r_epik_State_Penalty>  (147) 
-0

>  <r_epik_Charging_Adjusted_Penalty>  (147) 
0

>  <i_epik_Tot_Q>  (147) 
0

>  <i_epik_Tot_abs_Q>  (147) 
0

>  <s_lp_Force_Field>  (147) 
OPLS3e

>  <r_lp_Energy>  (147) 
17.9264

>  <b_lp_Chiralities_Consistent>  (147) 
1

>  <s_lp_Variant>  (147) 
42:0-1

>  <s_i_glide_gridfile>  (147) 
pfpi4k_grid

>  <i_i_glide_lignum>  (147) 
31

>  <i_i_glide_rotatable_bonds>  (147) 
0

>  <r_i_docking_score>  (147) 
-3.43689

>  <r_i_glide_ligand_efficiency>  (147) 
-0.264376

>  <r_i_glide_ligand_efficiency_sa>  (147) 
-0.621636

>  <r_i_glide_ligand_efficiency_ln>  (147) 
-0.964077

>  <r_i_glide_gscore>  (147) 
-3.43689

>  <r_i_glide_lipo>  (147) 
-0.221576

>  <r_i_glide_hbond>  (147) 
0

>  <r_i_glide_metal>  (147) 
-0

>  <r_i_glide_rewards>  (147) 
-2.07762

>  <r_i_glide_evdw>  (147) 
-17.5657

>  <r_i_glide_ecoul>  (147) 
-1.62636

>  <r_i_glide_erotb>  (147) 
0

>  <r_i_glide_esite>  (147) 
-0.0154536

>  <r_i_glide_emodel>  (147) 
-23.6141

>  <r_i_glide_energy>  (147) 
-19.192

>  <r_i_glide_einternal>  (147) 
0

>  <r_i_glide_intrahb_reward>  (147) 
-0

>  <i_i_glide_confnum>  (147) 
1

>  <i_i_glide_posenum>  (147) 
12

>  <r_i_glide_eff_state_penalty>  (147) 
0

>  <ligand_id>  (147) 
42

>  <original_smiles>  (147) 
CC1SC2=CC(C)(C)C=CN2C1=O

>  <smiles>  (147) 
[H]C1=C([H])C(C([H])([H])[H])(C([H])([H])[H])C([H])=C2SC([H])(C([H])([H])[H])C(=O)N12

$$$$
42:0:2
     RDKit          3D

 26 27  0  0  1  0  0  0  0  0999 V2000
    2.0488   -4.1541    6.4346 C   0  0  0  0  0  0  0  0  0  0  0  0
    0.7840   -4.3853    5.5936 C   0  0  2  0  0  0  0  0  0  0  0  0
   -0.1710   -5.7859    6.2007 S   0  0  0  0  0  0  0  0  0  0  0  0
   -0.0451   -6.6729    4.6965 C   0  0  0  0  0  0  0  0  0  0  0  0
   -0.5412   -7.8950    4.4344 C   0  0  0  0  0  0  0  0  0  0  0  0
   -0.3767   -8.5826    3.0843 C   0  0  0  0  0  0  0  0  0  0  0  0
    0.3982   -9.8964    3.2833 C   0  0  0  0  0  0  0  0  0  0  0  0
   -1.7680   -8.8375    2.4866 C   0  0  0  0  0  0  0  0  0  0  0  0
    0.4119   -7.6806    2.1335 C   0  0  0  0  0  0  0  0  0  0  0  0
    0.8803   -6.4638    2.4728 C   0  0  0  0  0  0  0  0  0  0  0  0
    0.6690   -5.9333    3.7510 N   0  0  0  0  0  0  0  0  0  0  0  0
    1.1229   -4.7266    4.1408 C   0  0  0  0  0  0  0  0  0  0  0  0
    1.7447   -3.9372    3.4260 O   0  0  0  0  0  0  0  0  0  0  0  0
    2.6258   -3.3106    6.0579 H   0  0  0  0  0  0  0  0  0  0  0  0
    2.6948   -5.0307    6.4196 H   0  0  0  0  0  0  0  0  0  0  0  0
    1.7946   -3.9470    7.4727 H   0  0  0  0  0  0  0  0  0  0  0  0
    0.1546   -3.4932    5.6062 H   0  0  0  0  0  0  0  0  0  0  0  0
   -1.0791   -8.4436    5.1948 H   0  0  0  0  0  0  0  0  0  0  0  0
    1.3839   -9.7031    3.7118 H   0  0  0  0  0  0  0  0  0  0  0  0
    0.5516  -10.4263    2.3418 H   0  0  0  0  0  0  0  0  0  0  0  0
   -0.1197  -10.5740    3.9653 H   0  0  0  0  0  0  0  0  0  0  0  0
   -2.3076   -7.8976    2.3544 H   0  0  0  0  0  0  0  0  0  0  0  0
   -2.3724   -9.4669    3.1397 H   0  0  0  0  0  0  0  0  0  0  0  0
   -1.7044   -9.3243    1.5144 H   0  0  0  0  0  0  0  0  0  0  0  0
    0.5993   -8.0800    1.1458 H   0  0  0  0  0  0  0  0  0  0  0  0
    1.4537   -5.8404    1.7992 H   0  0  0  0  0  0  0  0  0  0  0  0
  1  2  1  0
  1 14  1  0
  1 15  1  0
  1 16  1  0
  2 12  1  0
  2  3  1  0
  2 17  1  6
  3  4  1  0
  4 11  1  0
  4  5  2  0
  5  6  1  0
  5 18  1  0
  6  7  1  0
  6  8  1  0
  6  9  1  0
  7 19  1  0
  7 20  1  0
  7 21  1  0
  8 22  1  0
  8 23  1  0
  8 24  1  0
  9 10  2  0
  9 25  1  0
 10 11  1  0
 10 26  1  0
 11 12  1  0
 12 13  2  0
M  END
>  <i_m_ct_stereo_status>  (148) 
1

>  <s_m_source_file>  (148) 
/var/tmp/pbs.5076255.sched01/tmpqllwm4fg/43asec3i7m.sdf

>  <i_m_source_file_index>  (148) 
31

>  <i_lp_mmshare_version>  (148) 
48012

>  <i_f3d_flags>  (148) 
0

>  <s_epik_input>  (148) 
W0NIM11bQ0BIXShTMSlDKD1PKU4oQzE9MilbQ0hdPVtDSF1DKFtDSF0yKShbQ0gzXSlbQ0gzXQ==

>  <s_epik_cmdline>  (148) 
J2VwaWtfcHl0aG9uJywgJy1waHQnLCAnMi4wJywgJy1waCcsICc3LjAnLCAnLXRuJywgJzgnLCAnLW1hJywgJzIwMCcsICctaW1hZScsICc8aW5maWxlLm1hZT4nLCAnLW9tYWUnLCAnPG91dGZpbGUubWFlPic=

>  <r_lp_tautomer_probability>  (148) 
1

>  <r_epik_Ionization_Penalty>  (148) 
4.05199e-14

>  <r_epik_Ionization_Penalty_Charging>  (148) 
0

>  <r_epik_Ionization_Penalty_Neutral>  (148) 
4.05199e-14

>  <r_epik_State_Penalty>  (148) 
-0

>  <r_epik_Charging_Adjusted_Penalty>  (148) 
0

>  <i_epik_Tot_Q>  (148) 
0

>  <i_epik_Tot_abs_Q>  (148) 
0

>  <s_lp_Force_Field>  (148) 
OPLS3e

>  <r_lp_Energy>  (148) 
17.9264

>  <b_lp_Chiralities_Consistent>  (148) 
1

>  <s_lp_Variant>  (148) 
42:0-1

>  <s_i_glide_gridfile>  (148) 
pfpi4k_grid

>  <i_i_glide_lignum>  (148) 
31

>  <i_i_glide_rotatable_bonds>  (148) 
0

>  <r_i_docking_score>  (148) 
-3.28575

>  <r_i_glide_ligand_efficiency>  (148) 
-0.25275

>  <r_i_glide_ligand_efficiency_sa>  (148) 
-0.594299

>  <r_i_glide_ligand_efficiency_ln>  (148) 
-0.921681

>  <r_i_glide_gscore>  (148) 
-3.28575

>  <r_i_glide_lipo>  (148) 
-0.201589

>  <r_i_glide_hbond>  (148) 
0

>  <r_i_glide_metal>  (148) 
-0

>  <r_i_glide_rewards>  (148) 
-2.07762

>  <r_i_glide_evdw>  (148) 
-18.0693

>  <r_i_glide_ecoul>  (148) 
-0.441676

>  <r_i_glide_erotb>  (148) 
0

>  <r_i_glide_esite>  (148) 
-0.0368184

>  <r_i_glide_emodel>  (148) 
-22.7429

>  <r_i_glide_energy>  (148) 
-18.511

>  <r_i_glide_einternal>  (148) 
0

>  <r_i_glide_intrahb_reward>  (148) 
-0

>  <i_i_glide_confnum>  (148) 
2

>  <i_i_glide_posenum>  (148) 
18

>  <r_i_glide_eff_state_penalty>  (148) 
0

>  <ligand_id>  (148) 
42

>  <original_smiles>  (148) 
CC1SC2=CC(C)(C)C=CN2C1=O

>  <smiles>  (148) 
[H]C1=C([H])C(C([H])([H])[H])(C([H])([H])[H])C([H])=C2SC([H])(C([H])([H])[H])C(=O)N12

$$$$
43:0:0
     RDKit          3D

 66 72  0  0  1  0  0  0  0  0999 V2000
    2.2657   -6.9992    3.1686 C   0  0  0  0  0  0  0  0  0  0  0  0
    3.8049   -7.1246    3.0803 C   0  0  2  0  0  0  0  0  0  0  0  0
    4.4126   -6.0476    4.0141 C   0  0  0  0  0  0  0  0  0  0  0  0
    5.9402   -6.0580    4.2852 C   0  0  0  0  0  0  0  0  0  0  0  0
    6.8798   -6.4653    3.1409 C   0  0  1  0  0  0  0  0  0  0  0  0
    6.6853   -7.8865    2.6279 C   0  0  0  0  0  0  0  0  0  0  0  0
    5.8842   -7.2357    1.5002 C   0  0  1  0  0  0  0  0  0  0  0  0
    4.3498   -7.2013    1.5959 C   0  0  1  0  0  0  0  0  0  0  0  0
    3.8676   -8.5527    0.9902 C   0  0  0  0  0  0  0  0  0  0  0  0
    3.8187   -6.0397    0.7131 C   0  0  0  0  0  0  0  0  0  0  0  0
    2.6747   -6.0845    0.2516 O   0  0  0  0  0  0  0  0  0  0  0  0
    4.6535   -4.7634    0.4654 C   0  0  2  0  0  0  0  0  0  0  0  0
    3.8570   -3.5229    0.9690 C   0  0  0  0  0  0  0  0  0  0  0  0
    4.1175   -2.2297    0.0188 C   0  0  1  0  0  0  0  0  0  0  0  0
    2.7086   -2.7016   -0.3805 C   0  0  0  0  0  0  0  0  0  0  0  0
    2.5674   -3.5624   -1.4280 C   0  0  0  0  0  0  0  0  0  0  0  0
    3.9248   -3.6098   -1.9709 C   0  0  1  0  0  0  0  0  0  0  0  0
    3.9039   -3.8595   -3.3809 O   0  0  0  0  0  0  0  0  0  0  0  0
    4.1310   -2.1154   -1.5874 C   0  0  0  0  0  0  0  0  0  0  0  0
    4.9413   -4.5148   -1.1273 C   0  0  1  0  0  0  0  0  0  0  0  0
    6.1790   -3.6351   -1.1105 C   0  0  1  0  0  0  0  0  0  0  0  0
    6.6984   -3.1560   -2.3360 O   0  0  0  0  0  0  0  0  0  0  0  0
    5.7820   -2.5489   -0.0589 C   0  0  1  0  0  0  0  0  0  0  0  0
    6.4417   -1.2976   -0.2615 O   0  0  0  0  0  0  0  0  0  0  0  0
    6.4902   -3.1303    1.2396 C   0  0  0  0  0  0  0  0  0  0  0  0
    8.0411   -3.1067    1.0380 C   0  0  0  0  0  0  0  0  0  0  0  0
    6.1380   -2.1668    2.4403 C   0  0  0  0  0  0  0  0  0  0  0  0
    5.9106   -4.6236    1.4136 C   0  0  2  0  0  0  0  0  0  0  0  0
    6.7405   -5.9566    1.6663 C   0  0  1  0  0  0  0  0  0  0  0  0
    8.0759   -6.0910    0.8786 C   0  0  0  0  0  0  0  0  0  0  0  0
    1.9128   -6.0502    2.7602 H   0  0  0  0  0  0  0  0  0  0  0  0
    1.9434   -7.0408    4.2078 H   0  0  0  0  0  0  0  0  0  0  0  0
    1.7453   -7.8042    2.6498 H   0  0  0  0  0  0  0  0  0  0  0  0
    4.0256   -8.0877    3.5410 H   0  0  0  0  0  0  0  0  0  0  0  0
    4.0730   -5.0616    3.6995 H   0  0  0  0  0  0  0  0  0  0  0  0
    3.9462   -6.1709    4.9917 H   0  0  0  0  0  0  0  0  0  0  0  0
    6.2335   -5.0792    4.6562 H   0  0  0  0  0  0  0  0  0  0  0  0
    6.1208   -6.7245    5.1286 H   0  0  0  0  0  0  0  0  0  0  0  0
    7.9210   -6.3658    3.4512 H   0  0  0  0  0  0  0  0  0  0  0  0
    7.6035   -8.3659    2.2976 H   0  0  0  0  0  0  0  0  0  0  0  0
    6.1306   -8.5576    3.2845 H   0  0  0  0  0  0  0  0  0  0  0  0
    6.1731   -7.7213    0.5754 H   0  0  0  0  0  0  0  0  0  0  0  0
    4.2584   -9.4097    1.5402 H   0  0  0  0  0  0  0  0  0  0  0  0
    4.2164   -8.6764   -0.0358 H   0  0  0  0  0  0  0  0  0  0  0  0
    2.7859   -8.6654    0.9684 H   0  0  0  0  0  0  0  0  0  0  0  0
    2.8784   -3.8893    1.3481 H   0  0  0  0  0  0  0  0  0  0  0  0
    4.0229   -3.2147    1.9904 H   0  0  0  0  0  0  0  0  0  0  0  0
    1.8510   -2.4016    0.2078 H   0  0  0  0  0  0  0  0  0  0  0  0
    1.6975   -4.0047   -1.8379 H   0  0  0  0  0  0  0  0  0  0  0  0
    3.5939   -4.7312   -3.5175 H   0  0  0  0  0  0  0  0  0  0  0  0
    3.3864   -1.4374   -2.0518 H   0  0  0  0  0  0  0  0  0  0  0  0
    4.9721   -1.6297   -2.0800 H   0  0  0  0  0  0  0  0  0  0  0  0
    5.1009   -5.4682   -1.6253 H   0  0  0  0  0  0  0  0  0  0  0  0
    6.9642   -4.2742   -0.7834 H   0  0  0  0  0  0  0  0  0  0  0  0
    7.6061   -3.3925   -2.4141 H   0  0  0  0  0  0  0  0  0  0  0  0
    6.1405   -0.7246    0.4221 H   0  0  0  0  0  0  0  0  0  0  0  0
    8.4907   -3.6457    1.8552 H   0  0  0  0  0  0  0  0  0  0  0  0
    8.3943   -2.0782    0.9788 H   0  0  0  0  0  0  0  0  0  0  0  0
    8.4876   -3.5497    0.1543 H   0  0  0  0  0  0  0  0  0  0  0  0
    6.1067   -2.6786    3.4042 H   0  0  0  0  0  0  0  0  0  0  0  0
    5.1879   -1.6216    2.3389 H   0  0  0  0  0  0  0  0  0  0  0  0
    6.8338   -1.3354    2.4687 H   0  0  0  0  0  0  0  0  0  0  0  0
    5.4993   -4.5062    2.3934 H   0  0  0  0  0  0  0  0  0  0  0  0
    8.0017   -5.9039   -0.1812 H   0  0  0  0  0  0  0  0  0  0  0  0
    8.5027   -7.0915    0.9178 H   0  0  0  0  0  0  0  0  0  0  0  0
    8.8896   -5.5139    1.2940 H   0  0  0  0  0  0  0  0  0  0  0  0
  1  2  1  0
  1 31  1  0
  1 32  1  0
  1 33  1  0
  2  8  1  0
  2  3  1  0
  2 34  1  1
  3  4  1  0
  3 35  1  0
  3 36  1  0
  4  5  1  0
  4 37  1  0
  4 38  1  0
  5 29  1  0
  5  6  1  0
  5 39  1  1
  6  7  1  0
  6 40  1  0
  6 41  1  0
  7 29  1  0
  7  8  1  0
  7 42  1  6
  8  9  1  6
  8 10  1  0
  9 43  1  0
  9 44  1  0
  9 45  1  0
 10 11  2  0
 12 10  1  6
 12 20  1  0
 12 28  1  0
 12 13  1  0
 13 14  1  0
 13 46  1  0
 13 47  1  0
 14 19  1  0
 14 23  1  0
 14 15  1  1
 15 16  2  0
 15 48  1  0
 16 17  1  0
 16 49  1  0
 17 18  1  6
 17 19  1  0
 17 20  1  0
 18 50  1  0
 19 51  1  0
 19 52  1  0
 20 21  1  0
 20 53  1  6
 21 22  1  0
 21 23  1  0
 21 54  1  1
 22 55  1  0
 23 24  1  6
 23 25  1  0
 24 56  1  0
 25 26  1  0
 25 27  1  0
 25 28  1  0
 26 57  1  0
 26 58  1  0
 26 59  1  0
 27 60  1  0
 27 61  1  0
 27 62  1  0
 28 29  1  0
 28 63  1  1
 29 30  1  6
 30 64  1  0
 30 65  1  0
 30 66  1  0
M  END
>  <i_m_ct_stereo_status>  (149) 
1

>  <s_m_source_file>  (149) 
/var/tmp/pbs.5076255.sched01/tmpqllwm4fg/43asec3i7m.sdf

>  <i_m_source_file_index>  (149) 
32

>  <i_lp_mmshare_version>  (149) 
48012

>  <i_f3d_flags>  (149) 
2

>  <s_epik_input>  (149) 
W0NIMl0xW0NAQEhdMltDQEBdKFtDSDNdKShDMz1PKVtDQEhdKFtDSDNdKVtDSDJdW0NIMl1bQ0BASF0xW0NAQF0yKFtDSDNdKVtDQEhdNEMoW0NIM10pKFtDSDNdKVtDQEBdKFtPSF0pKFtDQEBIXTVbT0hdKUMoW0NIMl02KShbQ0gyXTcpW0NIXT1bQ0hdW0NAXTcoW09IXSlbQ0BASF01W0NAQF0zNDY=

>  <s_epik_cmdline>  (149) 
J2VwaWtfcHl0aG9uJywgJy1waHQnLCAnMi4wJywgJy1waCcsICc3LjAnLCAnLXRuJywgJzgnLCAnLW1hJywgJzIwMCcsICctaW1hZScsICc8aW5maWxlLm1hZT4nLCAnLW9tYWUnLCAnPG91dGZpbGUubWFlPic=

>  <r_lp_tautomer_probability>  (149) 
1

>  <r_epik_Ionization_Penalty>  (149) 
6.08256e-07

>  <r_epik_Ionization_Penalty_Charging>  (149) 
0

>  <r_epik_Ionization_Penalty_Neutral>  (149) 
6.08256e-07

>  <r_epik_State_Penalty>  (149) 
-0

>  <r_epik_Charging_Adjusted_Penalty>  (149) 
0

>  <i_epik_Tot_Q>  (149) 
0

>  <i_epik_Tot_abs_Q>  (149) 
0

>  <s_lp_Force_Field>  (149) 
OPLS3e

>  <r_lp_Energy>  (149) 
308.732

>  <b_lp_Chiralities_Consistent>  (149) 
0

>  <s_lp_Variant>  (149) 
43:0-1

>  <s_i_glide_gridfile>  (149) 
pfpi4k_grid

>  <i_i_glide_lignum>  (149) 
32

>  <i_i_glide_rotatable_bonds>  (149) 
3

>  <r_i_docking_score>  (149) 
-2.89941

>  <r_i_glide_ligand_efficiency>  (149) 
-0.096647

>  <r_i_glide_ligand_efficiency_sa>  (149) 
-0.300305

>  <r_i_glide_ligand_efficiency_ln>  (149) 
-0.658777

>  <r_i_glide_gscore>  (149) 
-2.89941

>  <r_i_glide_lipo>  (149) 
-0.753953

>  <r_i_glide_hbond>  (149) 
0

>  <r_i_glide_metal>  (149) 
-0

>  <r_i_glide_rewards>  (149) 
-0.673855

>  <r_i_glide_evdw>  (149) 
-2.85166

>  <r_i_glide_ecoul>  (149) 
-8.86012

>  <r_i_glide_erotb>  (149) 
0

>  <r_i_glide_esite>  (149) 
0

>  <r_i_glide_emodel>  (149) 
-11.9139

>  <r_i_glide_energy>  (149) 
-11.7118

>  <r_i_glide_einternal>  (149) 
1.64385

>  <r_i_glide_intrahb_reward>  (149) 
-0

>  <i_i_glide_confnum>  (149) 
1

>  <i_i_glide_posenum>  (149) 
38

>  <r_i_glide_eff_state_penalty>  (149) 
0

>  <ligand_id>  (149) 
43

>  <original_smiles>  (149) 
CC1CCC2CC3C1(C)C(=O)C14CC56C=CC(O)(C5)C1C(O)C6(O)C(C)(C)C4C23C

>  <smiles>  (149) 
[H]OC1([H])C2([H])C3(O[H])C([H])=C([H])C4(C3([H])[H])C([H])([H])C23C(=O)C2(C([H])([H])[H])C([H])(C([H])([H])[H])C([H])([H])C([H])([H])C5([H])C([H])([H])C2([H])C5(C([H])([H])[H])C3([H])C(C([H])([H])[H])(C([H])([H])[H])C14O[H]

$$$$
43:0:1
     RDKit          3D

 66 72  0  0  1  0  0  0  0  0999 V2000
    3.1992   -7.0686    3.3410 C   0  0  0  0  0  0  0  0  0  0  0  0
    4.7316   -6.9794    3.1168 C   0  0  2  0  0  0  0  0  0  0  0  0
    5.2654   -5.8332    3.9861 C   0  0  0  0  0  0  0  0  0  0  0  0
    6.7929   -5.6593    4.1436 C   0  0  0  0  0  0  0  0  0  0  0  0
    7.6993   -5.8839    2.9166 C   0  0  1  0  0  0  0  0  0  0  0  0
    7.6561   -7.3245    2.4432 C   0  0  0  0  0  0  0  0  0  0  0  0
    6.6743   -6.8444    1.3853 C   0  0  1  0  0  0  0  0  0  0  0  0
    5.1550   -7.0107    1.5885 C   0  0  1  0  0  0  0  0  0  0  0  0
    4.7947   -8.4137    1.0269 C   0  0  0  0  0  0  0  0  0  0  0  0
    4.3951   -5.9535    0.7396 C   0  0  0  0  0  0  0  0  0  0  0  0
    3.2841   -6.2262    0.2863 O   0  0  0  0  0  0  0  0  0  0  0  0
    4.9960   -4.5595    0.4435 C   0  0  2  0  0  0  0  0  0  0  0  0
    4.0668   -3.4365    1.0057 C   0  0  0  0  0  0  0  0  0  0  0  0
    4.0652   -2.1382    0.0287 C   0  0  1  0  0  0  0  0  0  0  0  0
    2.6607   -2.8273   -0.2610 C   0  0  0  0  0  0  0  0  0  0  0  0
    2.6039   -3.7101   -1.2525 C   0  0  0  0  0  0  0  0  0  0  0  0
    3.8906   -3.5855   -1.9200 C   0  0  1  0  0  0  0  0  0  0  0  0
    3.8545   -3.8397   -3.3349 O   0  0  0  0  0  0  0  0  0  0  0  0
    3.9156   -2.0644   -1.5720 C   0  0  0  0  0  0  0  0  0  0  0  0
    5.0979   -4.3045   -1.1622 C   0  0  1  0  0  0  0  0  0  0  0  0
    6.1882   -3.2737   -1.2886 C   0  0  1  0  0  0  0  0  0  0  0  0
    6.5035   -2.8269   -2.5804 O   0  0  0  0  0  0  0  0  0  0  0  0
    5.7195   -2.2219   -0.2035 C   0  0  1  0  0  0  0  0  0  0  0  0
    6.1888   -0.9117   -0.4480 O   0  0  0  0  0  0  0  0  0  0  0  0
    6.6583   -2.6684    1.0013 C   0  0  0  0  0  0  0  0  0  0  0  0
    8.1781   -2.4080    0.6470 C   0  0  0  0  0  0  0  0  0  0  0  0
    6.3096   -1.7276    2.2180 C   0  0  0  0  0  0  0  0  0  0  0  0
    6.3200   -4.2254    1.2604 C   0  0  2  0  0  0  0  0  0  0  0  0
    7.3412   -5.4479    1.4450 C   0  0  1  0  0  0  0  0  0  0  0  0
    8.6033   -5.4020    0.5169 C   0  0  0  0  0  0  0  0  0  0  0  0
    2.6758   -6.1851    2.9631 H   0  0  0  0  0  0  0  0  0  0  0  0
    2.9818   -7.1428    4.4086 H   0  0  0  0  0  0  0  0  0  0  0  0
    2.7469   -7.9524    2.8744 H   0  0  0  0  0  0  0  0  0  0  0  0
    5.1178   -7.9019    3.5449 H   0  0  0  0  0  0  0  0  0  0  0  0
    4.7811   -4.8981    3.7003 H   0  0  0  0  0  0  0  0  0  0  0  0
    4.9087   -5.9989    5.0003 H   0  0  0  0  0  0  0  0  0  0  0  0
    6.9571   -4.6554    4.5796 H   0  0  0  0  0  0  0  0  0  0  0  0
    7.1494   -6.3257    4.9357 H   0  0  0  0  0  0  0  0  0  0  0  0
    8.7405   -5.6354    3.1360 H   0  0  0  0  0  0  0  0  0  0  0  0
    8.5676   -7.6981    1.9861 H   0  0  0  0  0  0  0  0  0  0  0  0
    7.2518   -8.0837    3.1232 H   0  0  0  0  0  0  0  0  0  0  0  0
    6.9781   -7.4291    0.5552 H   0  0  0  0  0  0  0  0  0  0  0  0
    5.3603   -9.2070    1.5137 H   0  0  0  0  0  0  0  0  0  0  0  0
    5.0166   -8.4890   -0.0368 H   0  0  0  0  0  0  0  0  0  0  0  0
    3.7464   -8.6751    1.1110 H   0  0  0  0  0  0  0  0  0  0  0  0
    3.1755   -3.9275    1.4464 H   0  0  0  0  0  0  0  0  0  0  0  0
    4.3046   -3.0958    2.0022 H   0  0  0  0  0  0  0  0  0  0  0  0
    1.8289   -2.5631    0.3572 H   0  0  0  0  0  0  0  0  0  0  0  0
    1.7335   -4.2648   -1.6044 H   0  0  0  0  0  0  0  0  0  0  0  0
    3.5609   -4.7376   -3.4609 H   0  0  0  0  0  0  0  0  0  0  0  0
    3.0489   -1.4921   -1.9601 H   0  0  0  0  0  0  0  0  0  0  0  0
    4.6419   -1.4667   -2.1291 H   0  0  0  0  0  0  0  0  0  0  0  0
    5.3620   -5.2181   -1.6817 H   0  0  0  0  0  0  0  0  0  0  0  0
    7.0979   -3.7808   -1.0757 H   0  0  0  0  0  0  0  0  0  0  0  0
    5.6864   -2.7168   -3.0586 H   0  0  0  0  0  0  0  0  0  0  0  0
    5.7275   -0.3273    0.1466 H   0  0  0  0  0  0  0  0  0  0  0  0
    8.8449   -2.9415    1.2488 H   0  0  0  0  0  0  0  0  0  0  0  0
    8.4659   -1.3660    0.7721 H   0  0  0  0  0  0  0  0  0  0  0  0
    8.5441   -2.7053   -0.3350 H   0  0  0  0  0  0  0  0  0  0  0  0
    6.3912   -2.2668    3.1461 H   0  0  0  0  0  0  0  0  0  0  0  0
    5.2896   -1.3521    2.2801 H   0  0  0  0  0  0  0  0  0  0  0  0
    6.9446   -0.8408    2.2665 H   0  0  0  0  0  0  0  0  0  0  0  0
    5.9846   -4.1418    2.2735 H   0  0  0  0  0  0  0  0  0  0  0  0
    8.4127   -5.1715   -0.5192 H   0  0  0  0  0  0  0  0  0  0  0  0
    9.1309   -6.3514    0.4920 H   0  0  0  0  0  0  0  0  0  0  0  0
    9.4182   -4.7808    0.8373 H   0  0  0  0  0  0  0  0  0  0  0  0
  1  2  1  0
  1 31  1  0
  1 32  1  0
  1 33  1  0
  2  8  1  0
  2  3  1  0
  2 34  1  1
  3  4  1  0
  3 35  1  0
  3 36  1  0
  4  5  1  0
  4 37  1  0
  4 38  1  0
  5 29  1  0
  5  6  1  0
  5 39  1  1
  6  7  1  0
  6 40  1  0
  6 41  1  0
  7 29  1  0
  7  8  1  0
  7 42  1  6
  8  9  1  6
  8 10  1  0
  9 43  1  0
  9 44  1  0
  9 45  1  0
 10 11  2  0
 12 10  1  6
 12 20  1  0
 12 28  1  0
 12 13  1  0
 13 14  1  0
 13 46  1  0
 13 47  1  0
 14 19  1  0
 14 23  1  0
 14 15  1  1
 15 16  2  0
 15 48  1  0
 16 17  1  0
 16 49  1  0
 17 18  1  6
 17 19  1  0
 17 20  1  0
 18 50  1  0
 19 51  1  0
 19 52  1  0
 20 21  1  0
 20 53  1  6
 21 22  1  0
 21 23  1  0
 21 54  1  1
 22 55  1  0
 23 24  1  6
 23 25  1  0
 24 56  1  0
 25 26  1  0
 25 27  1  0
 25 28  1  0
 26 57  1  0
 26 58  1  0
 26 59  1  0
 27 60  1  0
 27 61  1  0
 27 62  1  0
 28 29  1  0
 28 63  1  1
 29 30  1  6
 30 64  1  0
 30 65  1  0
 30 66  1  0
M  END
>  <i_m_ct_stereo_status>  (150) 
1

>  <s_m_source_file>  (150) 
/var/tmp/pbs.5076255.sched01/tmpqllwm4fg/43asec3i7m.sdf

>  <i_m_source_file_index>  (150) 
32

>  <i_lp_mmshare_version>  (150) 
48012

>  <i_f3d_flags>  (150) 
2

>  <s_epik_input>  (150) 
W0NIMl0xW0NAQEhdMltDQEBdKFtDSDNdKShDMz1PKVtDQEhdKFtDSDNdKVtDSDJdW0NIMl1bQ0BASF0xW0NAQF0yKFtDSDNdKVtDQEhdNEMoW0NIM10pKFtDSDNdKVtDQEBdKFtPSF0pKFtDQEBIXTVbT0hdKUMoW0NIMl02KShbQ0gyXTcpW0NIXT1bQ0hdW0NAXTcoW09IXSlbQ0BASF01W0NAQF0zNDY=

>  <s_epik_cmdline>  (150) 
J2VwaWtfcHl0aG9uJywgJy1waHQnLCAnMi4wJywgJy1waCcsICc3LjAnLCAnLXRuJywgJzgnLCAnLW1hJywgJzIwMCcsICctaW1hZScsICc8aW5maWxlLm1hZT4nLCAnLW9tYWUnLCAnPG91dGZpbGUubWFlPic=

>  <r_lp_tautomer_probability>  (150) 
1

>  <r_epik_Ionization_Penalty>  (150) 
6.08256e-07

>  <r_epik_Ionization_Penalty_Charging>  (150) 
0

>  <r_epik_Ionization_Penalty_Neutral>  (150) 
6.08256e-07

>  <r_epik_State_Penalty>  (150) 
-0

>  <r_epik_Charging_Adjusted_Penalty>  (150) 
0

>  <i_epik_Tot_Q>  (150) 
0

>  <i_epik_Tot_abs_Q>  (150) 
0

>  <s_lp_Force_Field>  (150) 
OPLS3e

>  <r_lp_Energy>  (150) 
308.732

>  <b_lp_Chiralities_Consistent>  (150) 
0

>  <s_lp_Variant>  (150) 
43:0-1

>  <s_i_glide_gridfile>  (150) 
pfpi4k_grid

>  <i_i_glide_lignum>  (150) 
32

>  <i_i_glide_rotatable_bonds>  (150) 
3

>  <r_i_docking_score>  (150) 
-2.74512

>  <r_i_glide_ligand_efficiency>  (150) 
-0.0915041

>  <r_i_glide_ligand_efficiency_sa>  (150) 
-0.284325

>  <r_i_glide_ligand_efficiency_ln>  (150) 
-0.623722

>  <r_i_glide_gscore>  (150) 
-2.74512

>  <r_i_glide_lipo>  (150) 
-0.871631

>  <r_i_glide_hbond>  (150) 
0

>  <r_i_glide_metal>  (150) 
-0

>  <r_i_glide_rewards>  (150) 
-0.724203

>  <r_i_glide_evdw>  (150) 
-2.23012

>  <r_i_glide_ecoul>  (150) 
-6.91856

>  <r_i_glide_erotb>  (150) 
0

>  <r_i_glide_esite>  (150) 
0

>  <r_i_glide_emodel>  (150) 
-9.31903

>  <r_i_glide_energy>  (150) 
-9.14869

>  <r_i_glide_einternal>  (150) 
0.81743

>  <r_i_glide_intrahb_reward>  (150) 
-0

>  <i_i_glide_confnum>  (150) 
2

>  <i_i_glide_posenum>  (150) 
6

>  <r_i_glide_eff_state_penalty>  (150) 
0

>  <ligand_id>  (150) 
43

>  <original_smiles>  (150) 
CC1CCC2CC3C1(C)C(=O)C14CC56C=CC(O)(C5)C1C(O)C6(O)C(C)(C)C4C23C

>  <smiles>  (150) 
[H]OC1([H])C2([H])C3(O[H])C([H])=C([H])C4(C3([H])[H])C([H])([H])C23C(=O)C2(C([H])([H])[H])C([H])(C([H])([H])[H])C([H])([H])C([H])([H])C5([H])C([H])([H])C2([H])C5(C([H])([H])[H])C3([H])C(C([H])([H])[H])(C([H])([H])[H])C14O[H]

$$$$
43:0:2
     RDKit          3D

 66 72  0  0  1  0  0  0  0  0999 V2000
    1.0160   -5.7663    2.6909 C   0  0  0  0  0  0  0  0  0  0  0  0
    2.5089   -5.5873    3.0309 C   0  0  2  0  0  0  0  0  0  0  0  0
    2.6904   -4.1501    3.6045 C   0  0  0  0  0  0  0  0  0  0  0  0
    4.0694   -3.8049    4.2389 C   0  0  0  0  0  0  0  0  0  0  0  0
    5.3405   -4.3706    3.5943 C   0  0  1  0  0  0  0  0  0  0  0  0
    5.4338   -5.8898    3.5694 C   0  0  0  0  0  0  0  0  0  0  0  0
    4.9578   -5.7897    2.1139 C   0  0  1  0  0  0  0  0  0  0  0  0
    3.4622   -5.9911    1.8121 C   0  0  1  0  0  0  0  0  0  0  0  0
    3.2900   -7.5211    1.6114 C   0  0  0  0  0  0  0  0  0  0  0  0
    3.0810   -5.2235    0.5319 C   0  0  0  0  0  0  0  0  0  0  0  0
    2.0199   -5.5658   -0.0693 O   0  0  0  0  0  0  0  0  0  0  0  0
    3.9033   -3.9980    0.0114 C   0  0  2  0  0  0  0  0  0  0  0  0
    2.9113   -2.8022   -0.2093 C   0  0  0  0  0  0  0  0  0  0  0  0
    3.3636   -1.8411   -1.4338 C   0  0  1  0  0  0  0  0  0  0  0  0
    2.2270   -2.6968   -2.1086 C   0  0  0  0  0  0  0  0  0  0  0  0
    2.5227   -3.7838   -2.7175 C   0  0  0  0  0  0  0  0  0  0  0  0
    3.9694   -3.7350   -2.7882 C   0  0  1  0  0  0  0  0  0  0  0  0
    4.4264   -4.2865   -4.0008 O   0  0  0  0  0  0  0  0  0  0  0  0
    3.9232   -2.1884   -2.9100 C   0  0  0  0  0  0  0  0  0  0  0  0
    4.6940   -4.2152   -1.4215 C   0  0  1  0  0  0  0  0  0  0  0  0
    5.7961   -3.1639   -1.3628 C   0  0  1  0  0  0  0  0  0  0  0  0
    6.6443   -3.0114   -2.4704 O   0  0  0  0  0  0  0  0  0  0  0  0
    4.9851   -1.8815   -0.9263 C   0  0  1  0  0  0  0  0  0  0  0  0
    5.5364   -0.6887   -1.3679 O   0  0  0  0  0  0  0  0  0  0  0  0
    5.2999   -1.9002    0.6362 C   0  0  0  0  0  0  0  0  0  0  0  0
    6.7849   -1.5682    0.9358 C   0  0  0  0  0  0  0  0  0  0  0  0
    4.5922   -0.6991    1.3537 C   0  0  0  0  0  0  0  0  0  0  0  0
    4.8015   -3.3524    1.1499 C   0  0  2  0  0  0  0  0  0  0  0  0
    5.6175   -4.3915    2.0454 C   0  0  1  0  0  0  0  0  0  0  0  0
    7.1009   -4.5426    1.6651 C   0  0  0  0  0  0  0  0  0  0  0  0
    0.7879   -5.1039    1.8566 H   0  0  0  0  0  0  0  0  0  0  0  0
    0.4023   -5.4640    3.5345 H   0  0  0  0  0  0  0  0  0  0  0  0
    0.7523   -6.7925    2.4226 H   0  0  0  0  0  0  0  0  0  0  0  0
    2.7038   -6.2834    3.8512 H   0  0  0  0  0  0  0  0  0  0  0  0
    2.3929   -3.3896    2.8766 H   0  0  0  0  0  0  0  0  0  0  0  0
    1.9635   -4.0270    4.4111 H   0  0  0  0  0  0  0  0  0  0  0  0
    4.1514   -2.7243    4.3055 H   0  0  0  0  0  0  0  0  0  0  0  0
    4.0217   -4.1275    5.2784 H   0  0  0  0  0  0  0  0  0  0  0  0
    6.2109   -4.0329    4.1416 H   0  0  0  0  0  0  0  0  0  0  0  0
    6.4421   -6.2528    3.6758 H   0  0  0  0  0  0  0  0  0  0  0  0
    4.7642   -6.4283    4.2512 H   0  0  0  0  0  0  0  0  0  0  0  0
    5.5777   -6.4763    1.5234 H   0  0  0  0  0  0  0  0  0  0  0  0
    3.5700   -8.0829    2.5061 H   0  0  0  0  0  0  0  0  0  0  0  0
    3.9124   -7.8925    0.7984 H   0  0  0  0  0  0  0  0  0  0  0  0
    2.2781   -7.8082    1.3606 H   0  0  0  0  0  0  0  0  0  0  0  0
    1.8772   -3.1735   -0.0860 H   0  0  0  0  0  0  0  0  0  0  0  0
    2.7331   -2.1844    0.6572 H   0  0  0  0  0  0  0  0  0  0  0  0
    1.1726   -2.5596   -2.1079 H   0  0  0  0  0  0  0  0  0  0  0  0
    1.8258   -4.4335   -3.2440 H   0  0  0  0  0  0  0  0  0  0  0  0
    4.1910   -5.2023   -3.8782 H   0  0  0  0  0  0  0  0  0  0  0  0
    3.3351   -1.8431   -3.7849 H   0  0  0  0  0  0  0  0  0  0  0  0
    4.8530   -1.7560   -3.3037 H   0  0  0  0  0  0  0  0  0  0  0  0
    5.0463   -5.2653   -1.5003 H   0  0  0  0  0  0  0  0  0  0  0  0
    6.4972   -3.5309   -0.6470 H   0  0  0  0  0  0  0  0  0  0  0  0
    7.0714   -3.8322   -2.6599 H   0  0  0  0  0  0  0  0  0  0  0  0
    4.9652    0.0253   -1.0660 H   0  0  0  0  0  0  0  0  0  0  0  0
    6.9170   -1.5782    2.0123 H   0  0  0  0  0  0  0  0  0  0  0  0
    7.0431   -0.5696    0.5844 H   0  0  0  0  0  0  0  0  0  0  0  0
    7.5241   -2.2114    0.4689 H   0  0  0  0  0  0  0  0  0  0  0  0
    4.4536   -0.8942    2.4196 H   0  0  0  0  0  0  0  0  0  0  0  0
    3.6352   -0.4003    0.9249 H   0  0  0  0  0  0  0  0  0  0  0  0
    5.1898    0.2077    1.2811 H   0  0  0  0  0  0  0  0  0  0  0  0
    4.1040   -3.0054    1.8685 H   0  0  0  0  0  0  0  0  0  0  0  0
    7.3042   -4.7762    0.6276 H   0  0  0  0  0  0  0  0  0  0  0  0
    7.5995   -5.3583    2.1899 H   0  0  0  0  0  0  0  0  0  0  0  0
    7.6863   -3.6935    1.9544 H   0  0  0  0  0  0  0  0  0  0  0  0
  1  2  1  0
  1 31  1  0
  1 32  1  0
  1 33  1  0
  2  8  1  0
  2  3  1  0
  2 34  1  1
  3  4  1  0
  3 35  1  0
  3 36  1  0
  4  5  1  0
  4 37  1  0
  4 38  1  0
  5 29  1  0
  5  6  1  0
  5 39  1  1
  6  7  1  0
  6 40  1  0
  6 41  1  0
  7 29  1  0
  7  8  1  0
  7 42  1  6
  8  9  1  6
  8 10  1  0
  9 43  1  0
  9 44  1  0
  9 45  1  0
 10 11  2  0
 12 10  1  1
 12 20  1  0
 12 28  1  0
 12 13  1  0
 13 14  1  0
 13 46  1  0
 13 47  1  0
 14 19  1  0
 14 23  1  0
 14 15  1  6
 15 16  2  0
 15 48  1  0
 16 17  1  0
 16 49  1  0
 17 18  1  6
 17 19  1  0
 17 20  1  0
 18 50  1  0
 19 51  1  0
 19 52  1  0
 20 21  1  0
 20 53  1  6
 21 22  1  0
 21 23  1  0
 21 54  1  1
 22 55  1  0
 23 24  1  6
 23 25  1  0
 24 56  1  0
 25 26  1  0
 25 27  1  0
 25 28  1  0
 26 57  1  0
 26 58  1  0
 26 59  1  0
 27 60  1  0
 27 61  1  0
 27 62  1  0
 28 29  1  0
 28 63  1  1
 29 30  1  1
 30 64  1  0
 30 65  1  0
 30 66  1  0
M  END
>  <i_m_ct_stereo_status>  (151) 
1

>  <s_m_source_file>  (151) 
/var/tmp/pbs.5076255.sched01/tmpqllwm4fg/43asec3i7m.sdf

>  <i_m_source_file_index>  (151) 
32

>  <i_lp_mmshare_version>  (151) 
48012

>  <i_f3d_flags>  (151) 
2

>  <s_epik_input>  (151) 
W0NIMl0xW0NAQEhdMltDQEBdKFtDSDNdKShDMz1PKVtDQEhdKFtDSDNdKVtDSDJdW0NIMl1bQ0BASF0xW0NAQF0yKFtDSDNdKVtDQEhdNEMoW0NIM10pKFtDSDNdKVtDQEBdKFtPSF0pKFtDQEBIXTVbT0hdKUMoW0NIMl02KShbQ0gyXTcpW0NIXT1bQ0hdW0NAXTcoW09IXSlbQ0BASF01W0NAQF0zNDY=

>  <s_epik_cmdline>  (151) 
J2VwaWtfcHl0aG9uJywgJy1waHQnLCAnMi4wJywgJy1waCcsICc3LjAnLCAnLXRuJywgJzgnLCAnLW1hJywgJzIwMCcsICctaW1hZScsICc8aW5maWxlLm1hZT4nLCAnLW9tYWUnLCAnPG91dGZpbGUubWFlPic=

>  <r_lp_tautomer_probability>  (151) 
1

>  <r_epik_Ionization_Penalty>  (151) 
6.08256e-07

>  <r_epik_Ionization_Penalty_Charging>  (151) 
0

>  <r_epik_Ionization_Penalty_Neutral>  (151) 
6.08256e-07

>  <r_epik_State_Penalty>  (151) 
-0

>  <r_epik_Charging_Adjusted_Penalty>  (151) 
0

>  <i_epik_Tot_Q>  (151) 
0

>  <i_epik_Tot_abs_Q>  (151) 
0

>  <s_lp_Force_Field>  (151) 
OPLS3e

>  <r_lp_Energy>  (151) 
308.732

>  <b_lp_Chiralities_Consistent>  (151) 
0

>  <s_lp_Variant>  (151) 
43:0-1

>  <s_i_glide_gridfile>  (151) 
pfpi4k_grid

>  <i_i_glide_lignum>  (151) 
32

>  <i_i_glide_rotatable_bonds>  (151) 
3

>  <r_i_docking_score>  (151) 
-2.26392

>  <r_i_glide_ligand_efficiency>  (151) 
-0.075464

>  <r_i_glide_ligand_efficiency_sa>  (151) 
-0.234484

>  <r_i_glide_ligand_efficiency_ln>  (151) 
-0.514388

>  <r_i_glide_gscore>  (151) 
-2.26392

>  <r_i_glide_lipo>  (151) 
-0.651473

>  <r_i_glide_hbond>  (151) 
-0.00722592

>  <r_i_glide_metal>  (151) 
-0

>  <r_i_glide_rewards>  (151) 
-0.596171

>  <r_i_glide_evdw>  (151) 
8.47861

>  <r_i_glide_ecoul>  (151) 
-9.39759

>  <r_i_glide_erotb>  (151) 
0

>  <r_i_glide_esite>  (151) 
-0.0233432

>  <r_i_glide_emodel>  (151) 
-1.66769

>  <r_i_glide_energy>  (151) 
-0.918986

>  <r_i_glide_einternal>  (151) 
0.500865

>  <r_i_glide_intrahb_reward>  (151) 
-0

>  <i_i_glide_confnum>  (151) 
1

>  <i_i_glide_posenum>  (151) 
1

>  <r_i_glide_eff_state_penalty>  (151) 
0

>  <ligand_id>  (151) 
43

>  <original_smiles>  (151) 
CC1CCC2CC3C1(C)C(=O)C14CC56C=CC(O)(C5)C1C(O)C6(O)C(C)(C)C4C23C

>  <smiles>  (151) 
[H]OC1([H])C2([H])C3(O[H])C([H])=C([H])C4(C3([H])[H])C([H])([H])C23C(=O)C2(C([H])([H])[H])C([H])(C([H])([H])[H])C([H])([H])C([H])([H])C5([H])C([H])([H])C2([H])C5(C([H])([H])[H])C3([H])C(C([H])([H])[H])(C([H])([H])[H])C14O[H]

$$$$
44:0:0
     RDKit          3D

 71 77  0  0  1  0  0  0  0  0999 V2000
    7.0404   -6.0586    2.1267 C   0  0  0  0  0  0  0  0  0  0  0  0
    6.2907   -5.5491    3.2204 O   0  0  0  0  0  0  0  0  0  0  0  0
    4.9448   -5.8148    3.2910 C   0  0  0  0  0  0  0  0  0  0  0  0
    4.0967   -6.4454    2.4307 C   0  0  0  0  0  0  0  0  0  0  0  0
    4.3492   -7.0437    1.0432 C   0  0  0  0  0  0  0  0  0  0  0  0
    2.6558   -6.3549    2.9560 C   0  0  1  0  0  0  0  0  0  0  0  0
    1.5450   -7.4056    2.7284 C   0  0  1  0  0  0  0  0  0  0  0  0
    1.7483   -8.0520    1.4627 O   0  0  0  0  0  0  0  0  0  0  0  0
    1.6307   -8.8910    2.6159 C   0  0  1  0  0  0  0  0  0  0  0  0
    2.8242   -9.3886    3.2089 O   0  0  0  0  0  0  0  0  0  0  0  0
    3.3266  -10.5099    2.5226 C   0  0  0  0  0  0  0  0  0  0  0  0
    0.2901   -9.5513    2.8168 C   0  0  1  0  0  0  0  0  0  0  0  0
    0.2029  -10.0269    4.1591 O   0  0  0  0  0  0  0  0  0  0  0  0
   -0.7018   -8.3632    2.6310 C   0  0  1  0  0  0  0  0  0  0  0  0
   -2.1227   -8.5724    3.1815 C   0  0  0  0  0  0  0  0  0  0  0  0
    0.0566   -7.0467    3.0159 C   0  0  1  0  0  0  0  0  0  0  0  0
   -0.2568   -6.5266    4.4698 C   0  0  0  0  0  0  0  0  0  0  0  0
    0.8686   -6.8928    5.3976 C   0  0  2  0  0  0  0  0  0  0  0  0
    0.8676   -7.3210    6.8514 C   0  0  1  0  0  0  0  0  0  0  0  0
    0.5007   -8.7423    7.2573 C   0  0  0  0  0  0  0  0  0  0  0  0
    2.3723   -6.9984    6.7015 C   0  0  0  0  0  0  0  0  0  0  0  0
    2.0200   -5.8793    5.6525 C   0  0  2  0  0  0  0  0  0  0  0  0
    2.0151   -4.4940    6.4399 C   0  0  1  0  0  0  0  0  0  0  0  0
    1.2409   -4.3692    7.7820 C   0  0  0  0  0  0  0  0  0  0  0  0
    3.4947   -3.9310    6.6140 C   0  0  1  0  0  0  0  0  0  0  0  0
    4.0551   -4.4913    7.7875 O   0  0  0  0  0  0  0  0  0  0  0  0
    4.5108   -4.1406    5.4190 C   0  0  1  0  0  0  0  0  0  0  0  0
    5.0633   -2.9150    4.7131 C   0  0  0  0  0  0  0  0  0  0  0  0
    5.8590   -3.6713    5.6248 O   0  0  0  0  0  0  0  0  0  0  0  0
    4.2920   -5.4471    4.6271 C   0  0  2  0  0  0  0  0  0  0  0  0
    4.7734   -6.4407    5.5154 O   0  0  0  0  0  0  0  0  0  0  0  0
    2.7769   -5.5100    4.2969 C   0  0  1  0  0  0  0  0  0  0  0  0
    2.2976   -4.1158    3.6876 C   0  0  0  0  0  0  0  0  0  0  0  0
    8.1095   -5.9432    2.3048 H   0  0  0  0  0  0  0  0  0  0  0  0
    6.7766   -5.5586    1.1917 H   0  0  0  0  0  0  0  0  0  0  0  0
    6.8747   -7.1245    2.0038 H   0  0  0  0  0  0  0  0  0  0  0  0
    3.5038   -6.8304    0.3859 H   0  0  0  0  0  0  0  0  0  0  0  0
    4.3931   -8.1303    1.1297 H   0  0  0  0  0  0  0  0  0  0  0  0
    5.2517   -6.6920    0.5397 H   0  0  0  0  0  0  0  0  0  0  0  0
    2.3156   -5.7158    2.1473 H   0  0  0  0  0  0  0  0  0  0  0  0
    4.2285  -10.8396    3.0394 H   0  0  0  0  0  0  0  0  0  0  0  0
    3.5809  -10.2459    1.4914 H   0  0  0  0  0  0  0  0  0  0  0  0
    2.6011  -11.3253    2.5376 H   0  0  0  0  0  0  0  0  0  0  0  0
    0.0969  -10.3633    2.1043 H   0  0  0  0  0  0  0  0  0  0  0  0
   -0.6535  -10.3741    4.3361 H   0  0  0  0  0  0  0  0  0  0  0  0
   -0.8479   -8.2822    1.5535 H   0  0  0  0  0  0  0  0  0  0  0  0
   -2.1489   -8.7626    4.2557 H   0  0  0  0  0  0  0  0  0  0  0  0
   -2.5677   -9.4382    2.6930 H   0  0  0  0  0  0  0  0  0  0  0  0
   -2.7568   -7.7077    2.9847 H   0  0  0  0  0  0  0  0  0  0  0  0
   -0.2371   -6.2770    2.3067 H   0  0  0  0  0  0  0  0  0  0  0  0
   -0.3577   -5.4384    4.4528 H   0  0  0  0  0  0  0  0  0  0  0  0
   -1.2078   -6.8796    4.8644 H   0  0  0  0  0  0  0  0  0  0  0  0
    1.2504   -7.8275    4.9875 H   0  0  0  0  0  0  0  0  0  0  0  0
    0.3160   -6.6114    7.4505 H   0  0  0  0  0  0  0  0  0  0  0  0
    1.0936   -9.4938    6.7247 H   0  0  0  0  0  0  0  0  0  0  0  0
   -0.5514   -8.9610    7.0736 H   0  0  0  0  0  0  0  0  0  0  0  0
    0.6897   -8.8968    8.3215 H   0  0  0  0  0  0  0  0  0  0  0  0
    2.8281   -6.6760    7.6366 H   0  0  0  0  0  0  0  0  0  0  0  0
    2.9282   -7.8537    6.3018 H   0  0  0  0  0  0  0  0  0  0  0  0
    1.4141   -3.7755    5.8899 H   0  0  0  0  0  0  0  0  0  0  0  0
    1.5901   -5.0569    8.5521 H   0  0  0  0  0  0  0  0  0  0  0  0
    0.1675   -4.5033    7.6479 H   0  0  0  0  0  0  0  0  0  0  0  0
    1.3746   -3.3639    8.1829 H   0  0  0  0  0  0  0  0  0  0  0  0
    3.4084   -2.8618    6.8040 H   0  0  0  0  0  0  0  0  0  0  0  0
    4.2780   -5.3909    7.6005 H   0  0  0  0  0  0  0  0  0  0  0  0
    5.3905   -2.9739    3.6766 H   0  0  0  0  0  0  0  0  0  0  0  0
    4.7580   -1.9355    5.0749 H   0  0  0  0  0  0  0  0  0  0  0  0
    4.6788   -7.2776    5.0916 H   0  0  0  0  0  0  0  0  0  0  0  0
    2.4462   -3.2075    4.2699 H   0  0  0  0  0  0  0  0  0  0  0  0
    1.2425   -4.1470    3.4128 H   0  0  0  0  0  0  0  0  0  0  0  0
    2.8591   -3.8618    2.7894 H   0  0  0  0  0  0  0  0  0  0  0  0
  1  2  1  0
  1 34  1  0
  1 35  1  0
  1 36  1  0
  2  3  1  0
  3 30  1  0
  3  4  2  0
  4  5  1  0
  4  6  1  0
  5 37  1  0
  5 38  1  0
  5 39  1  0
  6 32  1  0
  6  7  1  0
  6 40  1  6
  7  9  1  0
  7 16  1  0
  7  8  1  6
  8  9  1  0
  9 10  1  1
  9 12  1  0
 10 11  1  0
 11 41  1  0
 11 42  1  0
 11 43  1  0
 12 13  1  0
 12 14  1  0
 12 44  1  6
 13 45  1  0
 14 15  1  0
 14 16  1  0
 14 46  1  6
 15 47  1  0
 15 48  1  0
 15 49  1  0
 16 17  1  0
 16 50  1  6
 17 18  1  0
 17 51  1  0
 17 52  1  0
 18 22  1  0
 18 19  1  0
 18 53  1  6
 19 20  1  0
 19 21  1  0
 19 54  1  1
 20 55  1  0
 20 56  1  0
 20 57  1  0
 22 21  1  1
 21 58  1  0
 21 59  1  0
 22 32  1  0
 22 23  1  0
 23 24  1  0
 23 25  1  0
 23 60  1  6
 24 61  1  0
 24 62  1  0
 24 63  1  0
 25 26  1  0
 25 27  1  0
 25 64  1  1
 26 65  1  0
 27 29  1  1
 27 28  1  0
 27 30  1  0
 28 29  1  0
 28 66  1  0
 28 67  1  0
 30 31  1  1
 30 32  1  0
 31 68  1  0
 32 33  1  6
 33 69  1  0
 33 70  1  0
 33 71  1  0
M  END
>  <i_m_ct_stereo_status>  (152) 
1

>  <s_m_source_file>  (152) 
/var/tmp/pbs.5076255.sched01/tmpqllwm4fg/43asec3i7m.sdf

>  <i_m_source_file_index>  (152) 
33

>  <i_lp_mmshare_version>  (152) 
48012

>  <i_f3d_flags>  (152) 
0

>  <s_epik_input>  (152) 
W0NIM11PQyg9QzFbQ0gzXSlbQ0BAXTIoW09IXSlbQ0BAXTMoW0NIMl1PMylbQ0BIXShbT0hdKVtDQEhdKFtDSDNdKVtDQF00KFtDQEBdMihbQ0BASF0xW0NAQF01NjcpW0NIM10pW0NAQEhdKFtDQEBIXShbQ0gzXSlbQ0gyXTQpW0NIMl1bQ0BASF03W0NASF0oW0NIM10pW0NASF0oW09IXSlbQ0BdNihPNSlPW0NIM10=

>  <s_epik_cmdline>  (152) 
J2VwaWtfcHl0aG9uJywgJy1waHQnLCAnMi4wJywgJy1waCcsICc3LjAnLCAnLXRuJywgJzgnLCAnLW1hJywgJzIwMCcsICctaW1hZScsICc8aW5maWxlLm1hZT4nLCAnLW9tYWUnLCAnPG91dGZpbGUubWFlPic=

>  <r_lp_tautomer_probability>  (152) 
1

>  <r_epik_Ionization_Penalty>  (152) 
2.19864e-06

>  <r_epik_Ionization_Penalty_Charging>  (152) 
0

>  <r_epik_Ionization_Penalty_Neutral>  (152) 
2.19864e-06

>  <r_epik_State_Penalty>  (152) 
-0

>  <r_epik_Charging_Adjusted_Penalty>  (152) 
0

>  <i_epik_Tot_Q>  (152) 
0

>  <i_epik_Tot_abs_Q>  (152) 
0

>  <s_lp_Force_Field>  (152) 
OPLS3e

>  <r_lp_Energy>  (152) 
138.551

>  <b_lp_Chiralities_Consistent>  (152) 
1

>  <s_lp_Variant>  (152) 
44:0-1

>  <s_i_glide_gridfile>  (152) 
pfpi4k_grid

>  <i_i_glide_lignum>  (152) 
33

>  <i_i_glide_rotatable_bonds>  (152) 
5

>  <r_i_docking_score>  (152) 
-2.54799

>  <r_i_glide_ligand_efficiency>  (152) 
-0.077212

>  <r_i_glide_ligand_efficiency_sa>  (152) 
-0.24766

>  <r_i_glide_ligand_efficiency_ln>  (152) 
-0.566661

>  <r_i_glide_gscore>  (152) 
-2.54799

>  <r_i_glide_lipo>  (152) 
-0.184788

>  <r_i_glide_hbond>  (152) 
0

>  <r_i_glide_metal>  (152) 
-0

>  <r_i_glide_rewards>  (152) 
-0.756246

>  <r_i_glide_evdw>  (152) 
-21.529

>  <r_i_glide_ecoul>  (152) 
-3.53673

>  <r_i_glide_erotb>  (152) 
0

>  <r_i_glide_esite>  (152) 
0

>  <r_i_glide_emodel>  (152) 
-33.1446

>  <r_i_glide_energy>  (152) 
-25.0657

>  <r_i_glide_einternal>  (152) 
0.513033

>  <r_i_glide_intrahb_reward>  (152) 
-0.5

>  <i_i_glide_confnum>  (152) 
2

>  <i_i_glide_posenum>  (152) 
30

>  <r_i_glide_eff_state_penalty>  (152) 
0

>  <ligand_id>  (152) 
44

>  <original_smiles>  (152) 
COC1=C(C)C2C34OC3(OC)C(O)C(C)C4CC3C(C)CC34C(C)C(O)C3(CO3)C1(O)C24C

>  <smiles>  (152) 
[H]OC1([H])C2(OC([H])([H])[H])OC23C2([H])C(C([H])([H])[H])=C(OC([H])([H])[H])C4(O[H])C5(OC5([H])[H])C([H])(O[H])C([H])(C([H])([H])[H])C5(C([H])([H])C([H])(C([H])([H])[H])C5([H])C([H])([H])C3([H])C1([H])C([H])([H])[H])C24C([H])([H])[H]

$$$$
44:0:1
     RDKit          3D

 71 77  0  0  1  0  0  0  0  0999 V2000
    7.3773   -6.8009    2.9219 C   0  0  0  0  0  0  0  0  0  0  0  0
    6.5813   -6.2371    3.9669 O   0  0  0  0  0  0  0  0  0  0  0  0
    5.2204   -6.4094    3.9385 C   0  0  0  0  0  0  0  0  0  0  0  0
    4.3677   -6.9164    3.0103 C   0  0  0  0  0  0  0  0  0  0  0  0
    4.6660   -7.4182    1.5726 C   0  0  0  0  0  0  0  0  0  0  0  0
    2.9181   -6.7919    3.4853 C   0  0  1  0  0  0  0  0  0  0  0  0
    1.7600   -7.7645    3.1435 C   0  0  1  0  0  0  0  0  0  0  0  0
    1.9984   -8.3295    1.8475 O   0  0  0  0  0  0  0  0  0  0  0  0
    1.7844   -9.2469    2.9230 C   0  0  1  0  0  0  0  0  0  0  0  0
    2.9151   -9.8253    3.5427 O   0  0  0  0  0  0  0  0  0  0  0  0
    3.5420  -10.8019    2.7448 C   0  0  0  0  0  0  0  0  0  0  0  0
    0.3763   -9.8379    3.0422 C   0  0  1  0  0  0  0  0  0  0  0  0
    0.2162  -10.3374    4.3584 O   0  0  0  0  0  0  0  0  0  0  0  0
   -0.5317   -8.5778    2.8932 C   0  0  1  0  0  0  0  0  0  0  0  0
   -1.9953   -8.7186    3.3650 C   0  0  0  0  0  0  0  0  0  0  0  0
    0.2835   -7.3319    3.3886 C   0  0  1  0  0  0  0  0  0  0  0  0
   -0.0666   -6.8796    4.8584 C   0  0  0  0  0  0  0  0  0  0  0  0
    0.9953   -7.3607    5.8153 C   0  0  2  0  0  0  0  0  0  0  0  0
    0.9085   -7.8778    7.2325 C   0  0  1  0  0  0  0  0  0  0  0  0
    0.4348   -9.2948    7.5386 C   0  0  0  0  0  0  0  0  0  0  0  0
    2.4341   -7.6370    7.1663 C   0  0  0  0  0  0  0  0  0  0  0  0
    2.1892   -6.4354    6.1782 C   0  0  2  0  0  0  0  0  0  0  0  0
    2.2292   -5.1032    7.0428 C   0  0  1  0  0  0  0  0  0  0  0  0
    1.4043   -5.0118    8.3530 C   0  0  0  0  0  0  0  0  0  0  0  0
    3.7344   -4.6412    7.3087 C   0  0  1  0  0  0  0  0  0  0  0  0
    4.2030   -5.2994    8.4715 O   0  0  0  0  0  0  0  0  0  0  0  0
    4.7890   -4.8350    6.1457 C   0  0  1  0  0  0  0  0  0  0  0  0
    5.4533   -3.6126    5.5423 C   0  0  0  0  0  0  0  0  0  0  0  0
    6.1589   -4.4850    6.4231 O   0  0  0  0  0  0  0  0  0  0  0  0
    4.5198   -6.0814    5.2738 C   0  0  2  0  0  0  0  0  0  0  0  0
    4.9313   -7.1266    6.1317 O   0  0  0  0  0  0  0  0  0  0  0  0
    3.0231   -6.0377    4.8823 C   0  0  1  0  0  0  0  0  0  0  0  0
    2.6543   -4.5874    4.3363 C   0  0  0  0  0  0  0  0  0  0  0  0
    8.4404   -6.7936    3.1934 H   0  0  0  0  0  0  0  0  0  0  0  0
    7.2563   -6.2630    1.9834 H   0  0  0  0  0  0  0  0  0  0  0  0
    7.1197   -7.8465    2.7718 H   0  0  0  0  0  0  0  0  0  0  0  0
    3.8277   -7.1601    0.9090 H   0  0  0  0  0  0  0  0  0  0  0  0
    4.7294   -8.5045    1.6107 H   0  0  0  0  0  0  0  0  0  0  0  0
    5.5879   -7.0633    1.1210 H   0  0  0  0  0  0  0  0  0  0  0  0
    2.6493   -6.0841    2.7032 H   0  0  0  0  0  0  0  0  0  0  0  0
    4.4037  -11.1730    3.3025 H   0  0  0  0  0  0  0  0  0  0  0  0
    3.8964  -10.4004    1.7924 H   0  0  0  0  0  0  0  0  0  0  0  0
    2.8615  -11.6264    2.5308 H   0  0  0  0  0  0  0  0  0  0  0  0
    0.1671  -10.6048    2.2750 H   0  0  0  0  0  0  0  0  0  0  0  0
   -0.6647  -10.6577    4.5174 H   0  0  0  0  0  0  0  0  0  0  0  0
   -0.6207   -8.4311    1.8175 H   0  0  0  0  0  0  0  0  0  0  0  0
   -2.0733   -8.9715    4.4251 H   0  0  0  0  0  0  0  0  0  0  0  0
   -2.4886   -9.5195    2.8135 H   0  0  0  0  0  0  0  0  0  0  0  0
   -2.5773   -7.8110    3.1976 H   0  0  0  0  0  0  0  0  0  0  0  0
    0.0660   -6.4928    2.7270 H   0  0  0  0  0  0  0  0  0  0  0  0
   -0.1033   -5.7902    4.8951 H   0  0  0  0  0  0  0  0  0  0  0  0
   -1.0502   -7.2002    5.1895 H   0  0  0  0  0  0  0  0  0  0  0  0
    1.3435   -8.2931    5.3741 H   0  0  0  0  0  0  0  0  0  0  0  0
    0.3772   -7.1677    7.8451 H   0  0  0  0  0  0  0  0  0  0  0  0
    1.0066  -10.0419    6.9836 H   0  0  0  0  0  0  0  0  0  0  0  0
   -0.6216   -9.4283    7.2996 H   0  0  0  0  0  0  0  0  0  0  0  0
    0.5697   -9.5211    8.5975 H   0  0  0  0  0  0  0  0  0  0  0  0
    2.8549   -7.3912    8.1375 H   0  0  0  0  0  0  0  0  0  0  0  0
    2.9615   -8.4953    6.7310 H   0  0  0  0  0  0  0  0  0  0  0  0
    1.6984   -4.3204    6.5139 H   0  0  0  0  0  0  0  0  0  0  0  0
    1.6776   -5.7621    9.0975 H   0  0  0  0  0  0  0  0  0  0  0  0
    0.3323   -5.0726    8.1674 H   0  0  0  0  0  0  0  0  0  0  0  0
    1.5765   -4.0425    8.8186 H   0  0  0  0  0  0  0  0  0  0  0  0
    3.6929   -3.5828    7.5629 H   0  0  0  0  0  0  0  0  0  0  0  0
    4.3299   -6.2153    8.2593 H   0  0  0  0  0  0  0  0  0  0  0  0
    5.8110   -3.6306    4.5123 H   0  0  0  0  0  0  0  0  0  0  0  0
    5.1795   -2.6438    5.9560 H   0  0  0  0  0  0  0  0  0  0  0  0
    5.8533   -6.9997    6.2968 H   0  0  0  0  0  0  0  0  0  0  0  0
    2.8306   -3.7238    4.9733 H   0  0  0  0  0  0  0  0  0  0  0  0
    1.6138   -4.5434    4.0104 H   0  0  0  0  0  0  0  0  0  0  0  0
    3.2729   -4.3235    3.4788 H   0  0  0  0  0  0  0  0  0  0  0  0
  1  2  1  0
  1 34  1  0
  1 35  1  0
  1 36  1  0
  2  3  1  0
  3 30  1  0
  3  4  2  0
  4  5  1  0
  4  6  1  0
  5 37  1  0
  5 38  1  0
  5 39  1  0
  6 32  1  0
  6  7  1  0
  6 40  1  6
  7  9  1  0
  7 16  1  0
  7  8  1  6
  8  9  1  0
  9 10  1  1
  9 12  1  0
 10 11  1  0
 11 41  1  0
 11 42  1  0
 11 43  1  0
 12 13  1  0
 12 14  1  0
 12 44  1  6
 13 45  1  0
 14 15  1  0
 14 16  1  0
 14 46  1  6
 15 47  1  0
 15 48  1  0
 15 49  1  0
 16 17  1  0
 16 50  1  6
 17 18  1  0
 17 51  1  0
 17 52  1  0
 18 22  1  0
 18 19  1  0
 18 53  1  6
 19 20  1  0
 19 21  1  0
 19 54  1  1
 20 55  1  0
 20 56  1  0
 20 57  1  0
 22 21  1  1
 21 58  1  0
 21 59  1  0
 22 32  1  0
 22 23  1  0
 23 24  1  0
 23 25  1  0
 23 60  1  6
 24 61  1  0
 24 62  1  0
 24 63  1  0
 25 26  1  0
 25 27  1  0
 25 64  1  1
 26 65  1  0
 27 29  1  1
 27 28  1  0
 27 30  1  0
 28 29  1  0
 28 66  1  0
 28 67  1  0
 30 31  1  1
 30 32  1  0
 31 68  1  0
 32 33  1  6
 33 69  1  0
 33 70  1  0
 33 71  1  0
M  END
>  <i_m_ct_stereo_status>  (153) 
1

>  <s_m_source_file>  (153) 
/var/tmp/pbs.5076255.sched01/tmpqllwm4fg/43asec3i7m.sdf

>  <i_m_source_file_index>  (153) 
33

>  <i_lp_mmshare_version>  (153) 
48012

>  <i_f3d_flags>  (153) 
0

>  <s_epik_input>  (153) 
W0NIM11PQyg9QzFbQ0gzXSlbQ0BAXTIoW09IXSlbQ0BAXTMoW0NIMl1PMylbQ0BIXShbT0hdKVtDQEhdKFtDSDNdKVtDQF00KFtDQEBdMihbQ0BASF0xW0NAQF01NjcpW0NIM10pW0NAQEhdKFtDQEBIXShbQ0gzXSlbQ0gyXTQpW0NIMl1bQ0BASF03W0NASF0oW0NIM10pW0NASF0oW09IXSlbQ0BdNihPNSlPW0NIM10=

>  <s_epik_cmdline>  (153) 
J2VwaWtfcHl0aG9uJywgJy1waHQnLCAnMi4wJywgJy1waCcsICc3LjAnLCAnLXRuJywgJzgnLCAnLW1hJywgJzIwMCcsICctaW1hZScsICc8aW5maWxlLm1hZT4nLCAnLW9tYWUnLCAnPG91dGZpbGUubWFlPic=

>  <r_lp_tautomer_probability>  (153) 
1

>  <r_epik_Ionization_Penalty>  (153) 
2.19864e-06

>  <r_epik_Ionization_Penalty_Charging>  (153) 
0

>  <r_epik_Ionization_Penalty_Neutral>  (153) 
2.19864e-06

>  <r_epik_State_Penalty>  (153) 
-0

>  <r_epik_Charging_Adjusted_Penalty>  (153) 
0

>  <i_epik_Tot_Q>  (153) 
0

>  <i_epik_Tot_abs_Q>  (153) 
0

>  <s_lp_Force_Field>  (153) 
OPLS3e

>  <r_lp_Energy>  (153) 
138.551

>  <b_lp_Chiralities_Consistent>  (153) 
1

>  <s_lp_Variant>  (153) 
44:0-1

>  <s_i_glide_gridfile>  (153) 
pfpi4k_grid

>  <i_i_glide_lignum>  (153) 
33

>  <i_i_glide_rotatable_bonds>  (153) 
5

>  <r_i_docking_score>  (153) 
-2.40601

>  <r_i_glide_ligand_efficiency>  (153) 
-0.0729094

>  <r_i_glide_ligand_efficiency_sa>  (153) 
-0.23386

>  <r_i_glide_ligand_efficiency_ln>  (153) 
-0.535084

>  <r_i_glide_gscore>  (153) 
-2.40601

>  <r_i_glide_lipo>  (153) 
-0.0778145

>  <r_i_glide_hbond>  (153) 
0

>  <r_i_glide_metal>  (153) 
-0

>  <r_i_glide_rewards>  (153) 
-0.76747

>  <r_i_glide_evdw>  (153) 
-18.9999

>  <r_i_glide_ecoul>  (153) 
-4.07155

>  <r_i_glide_erotb>  (153) 
0

>  <r_i_glide_esite>  (153) 
0

>  <r_i_glide_emodel>  (153) 
-30.269

>  <r_i_glide_energy>  (153) 
-23.0714

>  <r_i_glide_einternal>  (153) 
1.2656

>  <r_i_glide_intrahb_reward>  (153) 
-0.5

>  <i_i_glide_confnum>  (153) 
2

>  <i_i_glide_posenum>  (153) 
23

>  <r_i_glide_eff_state_penalty>  (153) 
0

>  <ligand_id>  (153) 
44

>  <original_smiles>  (153) 
COC1=C(C)C2C34OC3(OC)C(O)C(C)C4CC3C(C)CC34C(C)C(O)C3(CO3)C1(O)C24C

>  <smiles>  (153) 
[H]OC1([H])C2(OC([H])([H])[H])OC23C2([H])C(C([H])([H])[H])=C(OC([H])([H])[H])C4(O[H])C5(OC5([H])[H])C([H])(O[H])C([H])(C([H])([H])[H])C5(C([H])([H])C([H])(C([H])([H])[H])C5([H])C([H])([H])C3([H])C1([H])C([H])([H])[H])C24C([H])([H])[H]

$$$$
44:0:2
     RDKit          3D

 71 77  0  0  1  0  0  0  0  0999 V2000
    5.2193   -2.0558    0.7660 C   0  0  0  0  0  0  0  0  0  0  0  0
    4.8452   -2.2162    2.1245 O   0  0  0  0  0  0  0  0  0  0  0  0
    3.9428   -3.2094    2.4595 C   0  0  0  0  0  0  0  0  0  0  0  0
    3.2378   -4.0862    1.7000 C   0  0  0  0  0  0  0  0  0  0  0  0
    3.1695   -4.2689    0.1725 C   0  0  0  0  0  0  0  0  0  0  0  0
    2.2732   -4.8967    2.5895 C   0  0  1  0  0  0  0  0  0  0  0  0
    1.7877   -6.3343    2.3210 C   0  0  1  0  0  0  0  0  0  0  0  0
    1.7623   -6.5982    0.9027 O   0  0  0  0  0  0  0  0  0  0  0  0
    2.5166   -7.4948    1.7257 C   0  0  1  0  0  0  0  0  0  0  0  0
    3.9244   -7.3038    1.7629 O   0  0  0  0  0  0  0  0  0  0  0  0
    4.6041   -8.0106    0.7479 C   0  0  0  0  0  0  0  0  0  0  0  0
    1.8561   -8.8122    2.0513 C   0  0  1  0  0  0  0  0  0  0  0  0
    2.5304   -9.4471    3.1204 O   0  0  0  0  0  0  0  0  0  0  0  0
    0.4403   -8.3660    2.5202 C   0  0  1  0  0  0  0  0  0  0  0  0
   -0.3650   -9.4113    3.3207 C   0  0  0  0  0  0  0  0  0  0  0  0
    0.5638   -6.9086    3.0946 C   0  0  1  0  0  0  0  0  0  0  0  0
    0.6535   -6.8482    4.6652 C   0  0  0  0  0  0  0  0  0  0  0  0
    2.0814   -6.6377    5.0925 C   0  0  2  0  0  0  0  0  0  0  0  0
    2.8609   -7.1774    6.2768 C   0  0  1  0  0  0  0  0  0  0  0  0
    3.4045   -8.5973    6.2861 C   0  0  0  0  0  0  0  0  0  0  0  0
    3.8320   -6.0532    5.8522 C   0  0  0  0  0  0  0  0  0  0  0  0
    2.6084   -5.1996    5.3527 C   0  0  2  0  0  0  0  0  0  0  0  0
    2.2557   -4.1726    6.5142 C   0  0  1  0  0  0  0  0  0  0  0  0
    2.1178   -4.6747    7.9798 C   0  0  0  0  0  0  0  0  0  0  0  0
    3.2215   -2.9053    6.4685 C   0  0  1  0  0  0  0  0  0  0  0  0
    4.3918   -3.1973    7.2132 O   0  0  0  0  0  0  0  0  0  0  0  0
    3.6468   -2.3542    5.0498 C   0  0  1  0  0  0  0  0  0  0  0  0
    3.2262   -0.9522    4.6626 C   0  0  0  0  0  0  0  0  0  0  0  0
    4.5695   -1.2446    5.0383 O   0  0  0  0  0  0  0  0  0  0  0  0
    3.7858   -3.4400    3.9658 C   0  0  2  0  0  0  0  0  0  0  0  0
    4.9875   -4.0993    4.3195 O   0  0  0  0  0  0  0  0  0  0  0  0
    2.4940   -4.2985    4.0427 C   0  0  1  0  0  0  0  0  0  0  0  0
    1.2118   -3.3466    4.0586 C   0  0  0  0  0  0  0  0  0  0  0  0
    6.0615   -1.3787    0.6710 H   0  0  0  0  0  0  0  0  0  0  0  0
    4.4017   -1.6380    0.1766 H   0  0  0  0  0  0  0  0  0  0  0  0
    5.5421   -3.0036    0.3383 H   0  0  0  0  0  0  0  0  0  0  0  0
    2.1435   -4.4743   -0.1463 H   0  0  0  0  0  0  0  0  0  0  0  0
    3.7665   -5.1411   -0.1180 H   0  0  0  0  0  0  0  0  0  0  0  0
    3.4852   -3.4320   -0.4333 H   0  0  0  0  0  0  0  0  0  0  0  0
    1.4060   -4.4400    2.1332 H   0  0  0  0  0  0  0  0  0  0  0  0
    5.6741   -7.8341    0.8745 H   0  0  0  0  0  0  0  0  0  0  0  0
    4.3073   -7.6642   -0.2468 H   0  0  0  0  0  0  0  0  0  0  0  0
    4.4225   -9.0861    0.8304 H   0  0  0  0  0  0  0  0  0  0  0  0
    1.8250   -9.4676    1.1768 H   0  0  0  0  0  0  0  0  0  0  0  0
    2.1973  -10.3215    3.2060 H   0  0  0  0  0  0  0  0  0  0  0  0
   -0.1329   -8.2458    1.6001 H   0  0  0  0  0  0  0  0  0  0  0  0
    0.1340   -9.7242    4.2408 H   0  0  0  0  0  0  0  0  0  0  0  0
   -0.5177  -10.3108    2.7226 H   0  0  0  0  0  0  0  0  0  0  0  0
   -1.3545   -9.0394    3.5940 H   0  0  0  0  0  0  0  0  0  0  0  0
   -0.3262   -6.3600    2.7982 H   0  0  0  0  0  0  0  0  0  0  0  0
    0.0471   -6.0157    5.0264 H   0  0  0  0  0  0  0  0  0  0  0  0
    0.2321   -7.7242    5.1577 H   0  0  0  0  0  0  0  0  0  0  0  0
    2.6625   -7.1376    4.3181 H   0  0  0  0  0  0  0  0  0  0  0  0
    2.3237   -6.9852    7.1949 H   0  0  0  0  0  0  0  0  0  0  0  0
    4.0095   -8.8085    5.4025 H   0  0  0  0  0  0  0  0  0  0  0  0
    2.6019   -9.3313    6.3299 H   0  0  0  0  0  0  0  0  0  0  0  0
    4.0443   -8.7545    7.1540 H   0  0  0  0  0  0  0  0  0  0  0  0
    4.4092   -5.6531    6.6833 H   0  0  0  0  0  0  0  0  0  0  0  0
    4.5168   -6.3889    5.0672 H   0  0  0  0  0  0  0  0  0  0  0  0
    1.2240   -3.8530    6.4044 H   0  0  0  0  0  0  0  0  0  0  0  0
    3.0227   -5.1438    8.3710 H   0  0  0  0  0  0  0  0  0  0  0  0
    1.2838   -5.3690    8.1015 H   0  0  0  0  0  0  0  0  0  0  0  0
    1.9023   -3.8315    8.6395 H   0  0  0  0  0  0  0  0  0  0  0  0
    2.7187   -2.1035    7.0082 H   0  0  0  0  0  0  0  0  0  0  0  0
    4.9050   -3.8134    6.7151 H   0  0  0  0  0  0  0  0  0  0  0  0
    3.1025   -0.6915    3.6158 H   0  0  0  0  0  0  0  0  0  0  0  0
    2.6608   -0.3721    5.3837 H   0  0  0  0  0  0  0  0  0  0  0  0
    5.1199   -4.8154    3.7234 H   0  0  0  0  0  0  0  0  0  0  0  0
    1.1290   -2.5963    4.8422 H   0  0  0  0  0  0  0  0  0  0  0  0
    0.2874   -3.9250    4.0814 H   0  0  0  0  0  0  0  0  0  0  0  0
    1.1696   -2.7071    3.1749 H   0  0  0  0  0  0  0  0  0  0  0  0
  1  2  1  0
  1 34  1  0
  1 35  1  0
  1 36  1  0
  2  3  1  0
  3 30  1  0
  3  4  2  0
  4  5  1  0
  4  6  1  0
  5 37  1  0
  5 38  1  0
  5 39  1  0
  6 32  1  0
  6  7  1  0
  6 40  1  6
  7  9  1  0
  7 16  1  0
  7  8  1  6
  8  9  1  0
  9 10  1  6
  9 12  1  0
 10 11  1  0
 11 41  1  0
 11 42  1  0
 11 43  1  0
 12 13  1  0
 12 14  1  0
 12 44  1  6
 13 45  1  0
 14 15  1  0
 14 16  1  0
 14 46  1  6
 15 47  1  0
 15 48  1  0
 15 49  1  0
 16 17  1  0
 16 50  1  6
 17 18  1  0
 17 51  1  0
 17 52  1  0
 18 22  1  0
 18 19  1  0
 18 53  1  6
 19 20  1  0
 19 21  1  0
 19 54  1  1
 20 55  1  0
 20 56  1  0
 20 57  1  0
 22 21  1  1
 21 58  1  0
 21 59  1  0
 22 32  1  0
 22 23  1  0
 23 24  1  0
 23 25  1  0
 23 60  1  6
 24 61  1  0
 24 62  1  0
 24 63  1  0
 25 26  1  0
 25 27  1  0
 25 64  1  1
 26 65  1  0
 27 29  1  1
 27 28  1  0
 27 30  1  0
 28 29  1  0
 28 66  1  0
 28 67  1  0
 30 31  1  1
 30 32  1  0
 31 68  1  0
 32 33  1  1
 33 69  1  0
 33 70  1  0
 33 71  1  0
M  END
>  <i_m_ct_stereo_status>  (154) 
1

>  <s_m_source_file>  (154) 
/var/tmp/pbs.5076255.sched01/tmpqllwm4fg/43asec3i7m.sdf

>  <i_m_source_file_index>  (154) 
33

>  <i_lp_mmshare_version>  (154) 
48012

>  <i_f3d_flags>  (154) 
0

>  <s_epik_input>  (154) 
W0NIM11PQyg9QzFbQ0gzXSlbQ0BAXTIoW09IXSlbQ0BAXTMoW0NIMl1PMylbQ0BIXShbT0hdKVtDQEhdKFtDSDNdKVtDQF00KFtDQEBdMihbQ0BASF0xW0NAQF01NjcpW0NIM10pW0NAQEhdKFtDQEBIXShbQ0gzXSlbQ0gyXTQpW0NIMl1bQ0BASF03W0NASF0oW0NIM10pW0NASF0oW09IXSlbQ0BdNihPNSlPW0NIM10=

>  <s_epik_cmdline>  (154) 
J2VwaWtfcHl0aG9uJywgJy1waHQnLCAnMi4wJywgJy1waCcsICc3LjAnLCAnLXRuJywgJzgnLCAnLW1hJywgJzIwMCcsICctaW1hZScsICc8aW5maWxlLm1hZT4nLCAnLW9tYWUnLCAnPG91dGZpbGUubWFlPic=

>  <r_lp_tautomer_probability>  (154) 
1

>  <r_epik_Ionization_Penalty>  (154) 
2.19864e-06

>  <r_epik_Ionization_Penalty_Charging>  (154) 
0

>  <r_epik_Ionization_Penalty_Neutral>  (154) 
2.19864e-06

>  <r_epik_State_Penalty>  (154) 
-0

>  <r_epik_Charging_Adjusted_Penalty>  (154) 
0

>  <i_epik_Tot_Q>  (154) 
0

>  <i_epik_Tot_abs_Q>  (154) 
0

>  <s_lp_Force_Field>  (154) 
OPLS3e

>  <r_lp_Energy>  (154) 
138.551

>  <b_lp_Chiralities_Consistent>  (154) 
1

>  <s_lp_Variant>  (154) 
44:0-1

>  <s_i_glide_gridfile>  (154) 
pfpi4k_grid

>  <i_i_glide_lignum>  (154) 
33

>  <i_i_glide_rotatable_bonds>  (154) 
5

>  <r_i_docking_score>  (154) 
-2.19468

>  <r_i_glide_ligand_efficiency>  (154) 
-0.0665055

>  <r_i_glide_ligand_efficiency_sa>  (154) 
-0.213319

>  <r_i_glide_ligand_efficiency_ln>  (154) 
-0.488086

>  <r_i_glide_gscore>  (154) 
-2.19468

>  <r_i_glide_lipo>  (154) 
-0.0986479

>  <r_i_glide_hbond>  (154) 
0

>  <r_i_glide_metal>  (154) 
-0

>  <r_i_glide_rewards>  (154) 
-0.755166

>  <r_i_glide_evdw>  (154) 
-20.0871

>  <r_i_glide_ecoul>  (154) 
-2.2038

>  <r_i_glide_erotb>  (154) 
0

>  <r_i_glide_esite>  (154) 
-0.00594545

>  <r_i_glide_emodel>  (154) 
-29.8635

>  <r_i_glide_energy>  (154) 
-22.2909

>  <r_i_glide_einternal>  (154) 
0.473909

>  <r_i_glide_intrahb_reward>  (154) 
-0.5

>  <i_i_glide_confnum>  (154) 
2

>  <i_i_glide_posenum>  (154) 
7

>  <r_i_glide_eff_state_penalty>  (154) 
0

>  <ligand_id>  (154) 
44

>  <original_smiles>  (154) 
COC1=C(C)C2C34OC3(OC)C(O)C(C)C4CC3C(C)CC34C(C)C(O)C3(CO3)C1(O)C24C

>  <smiles>  (154) 
[H]OC1([H])C2(OC([H])([H])[H])OC23C2([H])C(C([H])([H])[H])=C(OC([H])([H])[H])C4(O[H])C5(OC5([H])[H])C([H])(O[H])C([H])(C([H])([H])[H])C5(C([H])([H])C([H])(C([H])([H])[H])C5([H])C([H])([H])C3([H])C1([H])C([H])([H])[H])C24C([H])([H])[H]

$$$$
45:0:0
     RDKit          3D

 34 36  0  0  1  0  0  0  0  0999 V2000
   -0.0985   -8.1816    2.0975 C   0  0  0  0  0  0  0  0  0  0  0  0
    1.2008   -7.5256    1.6739 C   0  0  0  0  0  0  0  0  0  0  0  0
    2.4321   -8.2223    1.7895 C   0  0  0  0  0  0  0  0  0  0  0  0
    3.5837   -7.5731    1.3874 C   0  0  0  0  0  0  0  0  0  0  0  0
    4.9569   -8.2034    1.4701 C   0  0  0  0  0  0  0  0  0  0  0  0
    3.4665   -6.2958    0.9266 N   0  0  0  0  0  0  0  0  0  0  0  0
    4.4374   -5.4651    0.4552 N   0  0  0  0  0  0  0  0  0  0  0  0
    3.7330   -4.3753    0.1770 C   0  0  0  0  0  0  0  0  0  0  0  0
    4.3620   -3.1520   -0.4315 C   0  0  0  0  0  0  0  0  0  0  0  0
    5.3760   -2.6836    0.0937 O   0  0  0  0  0  0  0  0  0  0  0  0
    3.8169   -2.6308   -1.5674 N   0  0  0  0  0  0  0  0  0  0  0  0
    4.4153   -1.4785   -2.2581 C   0  0  0  0  0  0  0  0  0  0  0  0
    4.6302   -1.8414   -3.7371 C   0  0  0  0  0  0  0  0  0  0  0  0
    3.4210   -2.2523   -4.3399 O   0  0  0  0  0  0  0  0  0  0  0  0
    2.8913   -3.4031   -3.7142 C   0  0  0  0  0  0  0  0  0  0  0  0
    2.5923   -3.0850   -2.2513 C   0  0  0  0  0  0  0  0  0  0  0  0
    2.4113   -4.3980    0.4982 N   0  0  0  0  0  0  0  0  0  0  0  0
    2.2235   -5.6520    0.8889 C   0  0  0  0  0  0  0  0  0  0  0  0
    1.0783   -6.2758    1.2330 N   0  0  0  0  0  0  0  0  0  0  0  0
    0.0706   -9.2125    2.4112 H   0  0  0  0  0  0  0  0  0  0  0  0
   -0.8177   -8.1910    1.2741 H   0  0  0  0  0  0  0  0  0  0  0  0
   -0.5455   -7.6349    2.9328 H   0  0  0  0  0  0  0  0  0  0  0  0
    2.4752   -9.2343    2.1821 H   0  0  0  0  0  0  0  0  0  0  0  0
    4.9021   -9.2194    1.8700 H   0  0  0  0  0  0  0  0  0  0  0  0
    5.6106   -7.6089    2.1154 H   0  0  0  0  0  0  0  0  0  0  0  0
    5.4114   -8.2483    0.4806 H   0  0  0  0  0  0  0  0  0  0  0  0
    3.7540   -0.6169   -2.1785 H   0  0  0  0  0  0  0  0  0  0  0  0
    5.3740   -1.1663   -1.8335 H   0  0  0  0  0  0  0  0  0  0  0  0
    4.9961   -0.9850   -4.3003 H   0  0  0  0  0  0  0  0  0  0  0  0
    5.3738   -2.6382   -3.8211 H   0  0  0  0  0  0  0  0  0  0  0  0
    1.9649   -3.6986   -4.2044 H   0  0  0  0  0  0  0  0  0  0  0  0
    3.5830   -4.2451   -3.7923 H   0  0  0  0  0  0  0  0  0  0  0  0
    2.1517   -4.0039   -1.8784 H   0  0  0  0  0  0  0  0  0  0  0  0
    1.8375   -2.3079   -2.1752 H   0  0  0  0  0  0  0  0  0  0  0  0
  1  2  1  0
  1 20  1  0
  1 21  1  0
  1 22  1  0
  2 19  2  0
  2  3  1  0
  3  4  2  0
  3 23  1  0
  4  5  1  0
  4  6  1  0
  5 24  1  0
  5 25  1  0
  5 26  1  0
  6 18  1  0
  6  7  1  0
  7  8  2  0
  8  9  1  0
  8 17  1  0
  9 10  2  0
  9 11  1  0
 11 16  1  0
 11 12  1  0
 12 13  1  0
 12 27  1  0
 12 28  1  0
 13 14  1  0
 13 29  1  0
 13 30  1  0
 14 15  1  0
 15 16  1  0
 15 31  1  0
 15 32  1  0
 16 33  1  0
 16 34  1  0
 17 18  2  0
 18 19  1  0
M  END
>  <i_m_ct_stereo_status>  (155) 
1

>  <s_m_source_file>  (155) 
/var/tmp/pbs.5076255.sched01/tmpqllwm4fg/43asec3i7m.sdf

>  <i_m_source_file_index>  (155) 
34

>  <i_lp_mmshare_version>  (155) 
48012

>  <i_f3d_flags>  (155) 
0

>  <s_epik_input>  (155) 
W0NIM11jMVtjSF1jKFtDSDNdKW5jKG4xMiluYyhuMilDKD1PKU4zW0NIMl1bQ0gyXU9bQ0gyXVtDSDJdMw==

>  <s_epik_cmdline>  (155) 
J2VwaWtfcHl0aG9uJywgJy1waHQnLCAnMi4wJywgJy1waCcsICc3LjAnLCAnLXRuJywgJzgnLCAnLW1hJywgJzIwMCcsICctaW1hZScsICc8aW5maWxlLm1hZT4nLCAnLW9tYWUnLCAnPG91dGZpbGUubWFlPic=

>  <r_lp_tautomer_probability>  (155) 
1

>  <r_epik_Ionization_Penalty>  (155) 
2.01322e-11

>  <r_epik_Ionization_Penalty_Charging>  (155) 
0

>  <r_epik_Ionization_Penalty_Neutral>  (155) 
2.01322e-11

>  <r_epik_State_Penalty>  (155) 
-0

>  <r_epik_Charging_Adjusted_Penalty>  (155) 
0

>  <i_epik_Tot_Q>  (155) 
0

>  <i_epik_Tot_abs_Q>  (155) 
0

>  <s_lp_Force_Field>  (155) 
OPLS3e

>  <r_lp_Energy>  (155) 
25.6507

>  <b_lp_Chiralities_Consistent>  (155) 
1

>  <s_lp_Variant>  (155) 
45:0-1

>  <s_i_glide_gridfile>  (155) 
pfpi4k_grid

>  <i_i_glide_lignum>  (155) 
34

>  <i_i_glide_rotatable_bonds>  (155) 
2

>  <r_i_docking_score>  (155) 
-4.10846

>  <r_i_glide_ligand_efficiency>  (155) 
-0.216235

>  <r_i_glide_ligand_efficiency_sa>  (155) 
-0.577001

>  <r_i_glide_ligand_efficiency_ln>  (155) 
-1.04158

>  <r_i_glide_gscore>  (155) 
-4.10846

>  <r_i_glide_lipo>  (155) 
-0.355248

>  <r_i_glide_hbond>  (155) 
-0.469802

>  <r_i_glide_metal>  (155) 
-0

>  <r_i_glide_rewards>  (155) 
-1.71017

>  <r_i_glide_evdw>  (155) 
-24.6823

>  <r_i_glide_ecoul>  (155) 
-5.20305

>  <r_i_glide_erotb>  (155) 
0.519095

>  <r_i_glide_esite>  (155) 
-0.0777665

>  <r_i_glide_emodel>  (155) 
-37.0634

>  <r_i_glide_energy>  (155) 
-29.8853

>  <r_i_glide_einternal>  (155) 
1.91557

>  <r_i_glide_intrahb_reward>  (155) 
-0

>  <i_i_glide_confnum>  (155) 
5

>  <i_i_glide_posenum>  (155) 
5

>  <r_i_glide_eff_state_penalty>  (155) 
0

>  <ligand_id>  (155) 
45

>  <original_smiles>  (155) 
Cc1cc(C)n2nc(C(=O)N3CCOCC3)nc2n1

>  <smiles>  (155) 
[H]c1c(C([H])([H])[H])nc2nc(C(=O)N3C([H])([H])C([H])([H])OC([H])([H])C3([H])[H])nn2c1C([H])([H])[H]

$$$$
45:0:1
     RDKit          3D

 34 36  0  0  1  0  0  0  0  0999 V2000
    0.0392   -8.1533    2.0795 C   0  0  0  0  0  0  0  0  0  0  0  0
    1.3400   -7.5049    1.6476 C   0  0  0  0  0  0  0  0  0  0  0  0
    2.5693   -8.2046    1.7730 C   0  0  0  0  0  0  0  0  0  0  0  0
    3.7253   -7.5676    1.3755 C   0  0  0  0  0  0  0  0  0  0  0  0
    5.0921   -8.2126    1.4721 C   0  0  0  0  0  0  0  0  0  0  0  0
    3.6149   -6.2963    0.8886 N   0  0  0  0  0  0  0  0  0  0  0  0
    4.5940   -5.4689    0.4329 N   0  0  0  0  0  0  0  0  0  0  0  0
    3.8846   -4.3918    0.1041 C   0  0  0  0  0  0  0  0  0  0  0  0
    4.5416   -3.1611   -0.4616 C   0  0  0  0  0  0  0  0  0  0  0  0
    5.3227   -2.5245    0.2496 O   0  0  0  0  0  0  0  0  0  0  0  0
    4.3018   -2.8362   -1.7631 N   0  0  0  0  0  0  0  0  0  0  0  0
    3.3289   -3.4757   -2.6614 C   0  0  0  0  0  0  0  0  0  0  0  0
    2.4078   -2.4246   -3.2700 C   0  0  0  0  0  0  0  0  0  0  0  0
    3.1927   -1.4712   -3.9690 O   0  0  0  0  0  0  0  0  0  0  0  0
    4.0841   -0.7914   -3.0976 C   0  0  0  0  0  0  0  0  0  0  0  0
    5.0583   -1.7974   -2.4656 C   0  0  0  0  0  0  0  0  0  0  0  0
    2.5453   -4.4149    0.3559 N   0  0  0  0  0  0  0  0  0  0  0  0
    2.3633   -5.6511    0.8098 C   0  0  0  0  0  0  0  0  0  0  0  0
    1.2225   -6.2650    1.1755 N   0  0  0  0  0  0  0  0  0  0  0  0
    0.2077   -9.1850    2.3918 H   0  0  0  0  0  0  0  0  0  0  0  0
   -0.6758   -8.1608    1.2532 H   0  0  0  0  0  0  0  0  0  0  0  0
   -0.4052   -7.5995    2.9108 H   0  0  0  0  0  0  0  0  0  0  0  0
    2.6064   -9.2181    2.1652 H   0  0  0  0  0  0  0  0  0  0  0  0
    5.0248   -9.2231    1.8761 H   0  0  0  0  0  0  0  0  0  0  0  0
    5.7512   -7.6250    2.1139 H   0  0  0  0  0  0  0  0  0  0  0  0
    5.5437   -8.2790    0.4839 H   0  0  0  0  0  0  0  0  0  0  0  0
    3.8525   -4.0399   -3.4384 H   0  0  0  0  0  0  0  0  0  0  0  0
    2.6640   -4.1582   -2.1417 H   0  0  0  0  0  0  0  0  0  0  0  0
    1.6970   -2.8979   -3.9454 H   0  0  0  0  0  0  0  0  0  0  0  0
    1.8251   -1.9541   -2.4783 H   0  0  0  0  0  0  0  0  0  0  0  0
    4.6080   -0.0478   -3.6804 H   0  0  0  0  0  0  0  0  0  0  0  0
    3.5230   -0.2611   -2.3261 H   0  0  0  0  0  0  0  0  0  0  0  0
    5.7561   -1.2669   -1.8180 H   0  0  0  0  0  0  0  0  0  0  0  0
    5.6615   -2.2863   -3.2283 H   0  0  0  0  0  0  0  0  0  0  0  0
  1  2  1  0
  1 20  1  0
  1 21  1  0
  1 22  1  0
  2 19  2  0
  2  3  1  0
  3  4  2  0
  3 23  1  0
  4  5  1  0
  4  6  1  0
  5 24  1  0
  5 25  1  0
  5 26  1  0
  6 18  1  0
  6  7  1  0
  7  8  2  0
  8  9  1  0
  8 17  1  0
  9 10  2  0
  9 11  1  0
 11 16  1  0
 11 12  1  0
 12 13  1  0
 12 27  1  0
 12 28  1  0
 13 14  1  0
 13 29  1  0
 13 30  1  0
 14 15  1  0
 15 16  1  0
 15 31  1  0
 15 32  1  0
 16 33  1  0
 16 34  1  0
 17 18  2  0
 18 19  1  0
M  END
>  <i_m_ct_stereo_status>  (156) 
1

>  <s_m_source_file>  (156) 
/var/tmp/pbs.5076255.sched01/tmpqllwm4fg/43asec3i7m.sdf

>  <i_m_source_file_index>  (156) 
34

>  <i_lp_mmshare_version>  (156) 
48012

>  <i_f3d_flags>  (156) 
0

>  <s_epik_input>  (156) 
W0NIM11jMVtjSF1jKFtDSDNdKW5jKG4xMiluYyhuMilDKD1PKU4zW0NIMl1bQ0gyXU9bQ0gyXVtDSDJdMw==

>  <s_epik_cmdline>  (156) 
J2VwaWtfcHl0aG9uJywgJy1waHQnLCAnMi4wJywgJy1waCcsICc3LjAnLCAnLXRuJywgJzgnLCAnLW1hJywgJzIwMCcsICctaW1hZScsICc8aW5maWxlLm1hZT4nLCAnLW9tYWUnLCAnPG91dGZpbGUubWFlPic=

>  <r_lp_tautomer_probability>  (156) 
1

>  <r_epik_Ionization_Penalty>  (156) 
2.01322e-11

>  <r_epik_Ionization_Penalty_Charging>  (156) 
0

>  <r_epik_Ionization_Penalty_Neutral>  (156) 
2.01322e-11

>  <r_epik_State_Penalty>  (156) 
-0

>  <r_epik_Charging_Adjusted_Penalty>  (156) 
0

>  <i_epik_Tot_Q>  (156) 
0

>  <i_epik_Tot_abs_Q>  (156) 
0

>  <s_lp_Force_Field>  (156) 
OPLS3e

>  <r_lp_Energy>  (156) 
25.6507

>  <b_lp_Chiralities_Consistent>  (156) 
1

>  <s_lp_Variant>  (156) 
45:0-1

>  <s_i_glide_gridfile>  (156) 
pfpi4k_grid

>  <i_i_glide_lignum>  (156) 
34

>  <i_i_glide_rotatable_bonds>  (156) 
2

>  <r_i_docking_score>  (156) 
-3.59873

>  <r_i_glide_ligand_efficiency>  (156) 
-0.189407

>  <r_i_glide_ligand_efficiency_sa>  (156) 
-0.505413

>  <r_i_glide_ligand_efficiency_ln>  (156) 
-0.912355

>  <r_i_glide_gscore>  (156) 
-3.59873

>  <r_i_glide_lipo>  (156) 
-0.395135

>  <r_i_glide_hbond>  (156) 
-0.124579

>  <r_i_glide_metal>  (156) 
-0

>  <r_i_glide_rewards>  (156) 
-1.73315

>  <r_i_glide_evdw>  (156) 
-23.6933

>  <r_i_glide_ecoul>  (156) 
-4.12942

>  <r_i_glide_erotb>  (156) 
0.519095

>  <r_i_glide_esite>  (156) 
-0.0608767

>  <r_i_glide_emodel>  (156) 
-34.9357

>  <r_i_glide_energy>  (156) 
-27.8227

>  <r_i_glide_einternal>  (156) 
0.162064

>  <r_i_glide_intrahb_reward>  (156) 
-0

>  <i_i_glide_confnum>  (156) 
2

>  <i_i_glide_posenum>  (156) 
29

>  <r_i_glide_eff_state_penalty>  (156) 
0

>  <ligand_id>  (156) 
45

>  <original_smiles>  (156) 
Cc1cc(C)n2nc(C(=O)N3CCOCC3)nc2n1

>  <smiles>  (156) 
[H]c1c(C([H])([H])[H])nc2nc(C(=O)N3C([H])([H])C([H])([H])OC([H])([H])C3([H])[H])nn2c1C([H])([H])[H]

$$$$
45:0:2
     RDKit          3D

 34 36  0  0  1  0  0  0  0  0999 V2000
   -0.3003   -8.2700    2.0682 C   0  0  0  0  0  0  0  0  0  0  0  0
    1.0618   -7.6842    1.7594 C   0  0  0  0  0  0  0  0  0  0  0  0
    2.2116   -8.5138    1.7273 C   0  0  0  0  0  0  0  0  0  0  0  0
    3.4311   -7.9332    1.4575 C   0  0  0  0  0  0  0  0  0  0  0  0
    4.7231   -8.7232    1.3821 C   0  0  0  0  0  0  0  0  0  0  0  0
    3.4535   -6.5875    1.2381 N   0  0  0  0  0  0  0  0  0  0  0  0
    4.5192   -5.7896    0.9495 N   0  0  0  0  0  0  0  0  0  0  0  0
    3.9280   -4.6044    0.8497 C   0  0  0  0  0  0  0  0  0  0  0  0
    4.7151   -3.3594    0.5518 C   0  0  0  0  0  0  0  0  0  0  0  0
    5.2914   -2.7808    1.4749 O   0  0  0  0  0  0  0  0  0  0  0  0
    4.7965   -2.9609   -0.7420 N   0  0  0  0  0  0  0  0  0  0  0  0
    4.0202   -3.5175   -1.8623 C   0  0  0  0  0  0  0  0  0  0  0  0
    3.2888   -2.3811   -2.5926 C   0  0  0  0  0  0  0  0  0  0  0  0
    4.2297   -1.4080   -3.0252 O   0  0  0  0  0  0  0  0  0  0  0  0
    4.9164   -0.8208   -1.9280 C   0  0  0  0  0  0  0  0  0  0  0  0
    5.7098   -1.8984   -1.1766 C   0  0  0  0  0  0  0  0  0  0  0  0
    2.5821   -4.5464    1.0533 N   0  0  0  0  0  0  0  0  0  0  0  0
    2.2748   -5.8176    1.2862 C   0  0  0  0  0  0  0  0  0  0  0  0
    1.0744   -6.3729    1.5342 N   0  0  0  0  0  0  0  0  0  0  0  0
   -0.2439   -9.3553    2.1608 H   0  0  0  0  0  0  0  0  0  0  0  0
   -0.9941   -8.0386    1.2589 H   0  0  0  0  0  0  0  0  0  0  0  0
   -0.6960   -7.8600    2.9997 H   0  0  0  0  0  0  0  0  0  0  0  0
    2.1417   -9.5839    1.8985 H   0  0  0  0  0  0  0  0  0  0  0  0
    4.5478   -9.7851    1.5645 H   0  0  0  0  0  0  0  0  0  0  0  0
    5.4363   -8.3573    2.1243 H   0  0  0  0  0  0  0  0  0  0  0  0
    5.1745   -8.6217    0.3938 H   0  0  0  0  0  0  0  0  0  0  0  0
    4.6850   -4.0497   -2.5432 H   0  0  0  0  0  0  0  0  0  0  0  0
    3.2670   -4.2340   -1.5419 H   0  0  0  0  0  0  0  0  0  0  0  0
    2.7496   -2.7716   -3.4550 H   0  0  0  0  0  0  0  0  0  0  0  0
    2.5524   -1.9162   -1.9376 H   0  0  0  0  0  0  0  0  0  0  0  0
    5.5892   -0.0641   -2.3184 H   0  0  0  0  0  0  0  0  0  0  0  0
    4.2194   -0.3094   -1.2627 H   0  0  0  0  0  0  0  0  0  0  0  0
    6.2405   -1.4313   -0.3452 H   0  0  0  0  0  0  0  0  0  0  0  0
    6.4751   -2.3320   -1.8211 H   0  0  0  0  0  0  0  0  0  0  0  0
  1  2  1  0
  1 20  1  0
  1 21  1  0
  1 22  1  0
  2 19  2  0
  2  3  1  0
  3  4  2  0
  3 23  1  0
  4  5  1  0
  4  6  1  0
  5 24  1  0
  5 25  1  0
  5 26  1  0
  6 18  1  0
  6  7  1  0
  7  8  2  0
  8  9  1  0
  8 17  1  0
  9 10  2  0
  9 11  1  0
 11 16  1  0
 11 12  1  0
 12 13  1  0
 12 27  1  0
 12 28  1  0
 13 14  1  0
 13 29  1  0
 13 30  1  0
 14 15  1  0
 15 16  1  0
 15 31  1  0
 15 32  1  0
 16 33  1  0
 16 34  1  0
 17 18  2  0
 18 19  1  0
M  END
>  <i_m_ct_stereo_status>  (157) 
1

>  <s_m_source_file>  (157) 
/var/tmp/pbs.5076255.sched01/tmpqllwm4fg/43asec3i7m.sdf

>  <i_m_source_file_index>  (157) 
34

>  <i_lp_mmshare_version>  (157) 
48012

>  <i_f3d_flags>  (157) 
0

>  <s_epik_input>  (157) 
W0NIM11jMVtjSF1jKFtDSDNdKW5jKG4xMiluYyhuMilDKD1PKU4zW0NIMl1bQ0gyXU9bQ0gyXVtDSDJdMw==

>  <s_epik_cmdline>  (157) 
J2VwaWtfcHl0aG9uJywgJy1waHQnLCAnMi4wJywgJy1waCcsICc3LjAnLCAnLXRuJywgJzgnLCAnLW1hJywgJzIwMCcsICctaW1hZScsICc8aW5maWxlLm1hZT4nLCAnLW9tYWUnLCAnPG91dGZpbGUubWFlPic=

>  <r_lp_tautomer_probability>  (157) 
1

>  <r_epik_Ionization_Penalty>  (157) 
2.01322e-11

>  <r_epik_Ionization_Penalty_Charging>  (157) 
0

>  <r_epik_Ionization_Penalty_Neutral>  (157) 
2.01322e-11

>  <r_epik_State_Penalty>  (157) 
-0

>  <r_epik_Charging_Adjusted_Penalty>  (157) 
0

>  <i_epik_Tot_Q>  (157) 
0

>  <i_epik_Tot_abs_Q>  (157) 
0

>  <s_lp_Force_Field>  (157) 
OPLS3e

>  <r_lp_Energy>  (157) 
25.6507

>  <b_lp_Chiralities_Consistent>  (157) 
1

>  <s_lp_Variant>  (157) 
45:0-1

>  <s_i_glide_gridfile>  (157) 
pfpi4k_grid

>  <i_i_glide_lignum>  (157) 
34

>  <i_i_glide_rotatable_bonds>  (157) 
2

>  <r_i_docking_score>  (157) 
-3.09726

>  <r_i_glide_ligand_efficiency>  (157) 
-0.163014

>  <r_i_glide_ligand_efficiency_sa>  (157) 
-0.434986

>  <r_i_glide_ligand_efficiency_ln>  (157) 
-0.785223

>  <r_i_glide_gscore>  (157) 
-3.09726

>  <r_i_glide_lipo>  (157) 
0

>  <r_i_glide_hbond>  (157) 
-0.0836765

>  <r_i_glide_metal>  (157) 
-0

>  <r_i_glide_rewards>  (157) 
-1.77933

>  <r_i_glide_evdw>  (157) 
-24.0546

>  <r_i_glide_ecoul>  (157) 
-3.47821

>  <r_i_glide_erotb>  (157) 
0.519095

>  <r_i_glide_esite>  (157) 
-0.028889

>  <r_i_glide_emodel>  (157) 
-33.6429

>  <r_i_glide_energy>  (157) 
-27.5328

>  <r_i_glide_einternal>  (157) 
0.332009

>  <r_i_glide_intrahb_reward>  (157) 
-0

>  <i_i_glide_confnum>  (157) 
1

>  <i_i_glide_posenum>  (157) 
40

>  <r_i_glide_eff_state_penalty>  (157) 
0

>  <ligand_id>  (157) 
45

>  <original_smiles>  (157) 
Cc1cc(C)n2nc(C(=O)N3CCOCC3)nc2n1

>  <smiles>  (157) 
[H]c1c(C([H])([H])[H])nc2nc(C(=O)N3C([H])([H])C([H])([H])OC([H])([H])C3([H])[H])nn2c1C([H])([H])[H]

$$$$
47:0:0
     RDKit          3D

 51 55  0  0  1  0  0  0  0  0999 V2000
    4.7451   -5.4693    0.1163 C   0  0  0  0  0  0  0  0  0  0  0  0
    4.7942   -3.9497    0.2294 C   0  0  0  0  0  0  0  0  0  0  0  0
    5.7218   -3.2852   -0.4441 C   0  0  0  0  0  0  0  0  0  0  0  0
    5.3299   -3.1621   -1.9297 C   0  0  0  0  0  0  0  0  0  0  0  0
    3.7684   -3.0662   -2.1971 C   0  0  0  0  0  0  0  0  0  0  0  0
    2.7844   -3.4474   -1.0132 C   0  0  0  0  0  0  0  0  0  0  0  0
    3.4663   -3.1714    0.3492 C   0  0  2  0  0  0  0  0  0  0  0  0
    3.6696   -1.6096    0.3906 C   0  0  0  0  0  0  0  0  0  0  0  0
    4.9715   -1.3426    1.1086 C   0  0  1  0  0  0  0  0  0  0  0  0
    4.7964   -1.8283    2.5825 C   0  0  0  0  0  0  0  0  0  0  0  0
    3.9056   -3.1056    2.8400 C   0  0  1  0  0  0  0  0  0  0  0  0
    3.3055   -3.1599    4.2749 C   0  0  1  0  0  0  0  0  0  0  0  0
    2.3893   -1.9845    4.6886 C   0  0  0  0  0  0  0  0  0  0  0  0
    1.5785   -2.4882    5.8895 C   0  0  0  0  0  0  0  0  0  0  0  0
    1.6664   -4.0001    5.7804 C   0  0  0  0  0  0  0  0  0  0  0  0
    1.1356   -4.7640    6.5830 O   0  0  0  0  0  0  0  0  0  0  0  0
    2.4897   -4.4465    4.5698 C   0  0  2  0  0  0  0  0  0  0  0  0
    3.3963   -5.6383    4.9328 C   0  0  0  0  0  0  0  0  0  0  0  0
    1.5240   -4.8052    3.4055 C   0  0  0  0  0  0  0  0  0  0  0  0
    2.2153   -4.8119    2.0289 C   0  0  0  0  0  0  0  0  0  0  0  0
    2.8291   -3.4278    1.7455 C   0  0  2  0  0  0  0  0  0  0  0  0
    6.0587   -2.0029    0.2238 C   0  0  0  0  0  0  0  0  0  0  0  0
    7.1533   -1.4554    0.0864 O   0  0  0  0  0  0  0  0  0  0  0  0
    3.7724   -5.8680   -0.1608 H   0  0  0  0  0  0  0  0  0  0  0  0
    5.0406   -5.9002    1.0737 H   0  0  0  0  0  0  0  0  0  0  0  0
    5.4635   -5.8149   -0.6282 H   0  0  0  0  0  0  0  0  0  0  0  0
    5.8670   -2.3551   -2.4294 H   0  0  0  0  0  0  0  0  0  0  0  0
    5.6789   -4.0787   -2.4069 H   0  0  0  0  0  0  0  0  0  0  0  0
    3.5458   -2.0441   -2.5093 H   0  0  0  0  0  0  0  0  0  0  0  0
    3.5118   -3.6601   -3.0759 H   0  0  0  0  0  0  0  0  0  0  0  0
    1.8509   -2.8978   -1.1132 H   0  0  0  0  0  0  0  0  0  0  0  0
    2.4889   -4.4890   -1.1014 H   0  0  0  0  0  0  0  0  0  0  0  0
    3.7064   -1.1236   -0.5825 H   0  0  0  0  0  0  0  0  0  0  0  0
    2.8533   -1.0821    0.8871 H   0  0  0  0  0  0  0  0  0  0  0  0
    5.1744   -0.2728    1.1190 H   0  0  0  0  0  0  0  0  0  0  0  0
    5.7794   -1.9907    3.0266 H   0  0  0  0  0  0  0  0  0  0  0  0
    4.3754   -0.9907    3.1362 H   0  0  0  0  0  0  0  0  0  0  0  0
    4.6103   -3.9379    2.8105 H   0  0  0  0  0  0  0  0  0  0  0  0
    4.1511   -3.1431    4.9652 H   0  0  0  0  0  0  0  0  0  0  0  0
    2.9636   -1.0953    4.9543 H   0  0  0  0  0  0  0  0  0  0  0  0
    1.7049   -1.7074    3.8832 H   0  0  0  0  0  0  0  0  0  0  0  0
    2.0218   -2.1720    6.8337 H   0  0  0  0  0  0  0  0  0  0  0  0
    0.5437   -2.1496    5.8651 H   0  0  0  0  0  0  0  0  0  0  0  0
    4.1072   -5.8583    4.1404 H   0  0  0  0  0  0  0  0  0  0  0  0
    2.8160   -6.5425    5.1088 H   0  0  0  0  0  0  0  0  0  0  0  0
    3.9705   -5.4442    5.8375 H   0  0  0  0  0  0  0  0  0  0  0  0
    1.0702   -5.7810    3.5852 H   0  0  0  0  0  0  0  0  0  0  0  0
    0.6942   -4.0962    3.3705 H   0  0  0  0  0  0  0  0  0  0  0  0
    2.9729   -5.5933    2.0251 H   0  0  0  0  0  0  0  0  0  0  0  0
    1.5002   -5.0719    1.2492 H   0  0  0  0  0  0  0  0  0  0  0  0
    1.9978   -2.7346    1.8555 H   0  0  0  0  0  0  0  0  0  0  0  0
  1  2  1  0
  1 24  1  0
  1 25  1  0
  1 26  1  0
  2  7  1  0
  2  3  2  0
  3 22  1  0
  3  4  1  0
  4  5  1  0
  4 27  1  0
  4 28  1  0
  5  6  1  0
  5 29  1  0
  5 30  1  0
  7  6  1  6
  6 31  1  0
  6 32  1  0
  7 21  1  0
  7  8  1  0
  8  9  1  0
  8 33  1  0
  8 34  1  0
  9 10  1  0
  9 22  1  0
  9 35  1  1
 10 11  1  0
 10 36  1  0
 10 37  1  0
 11 21  1  0
 11 12  1  0
 11 38  1  1
 12 17  1  0
 12 13  1  0
 12 39  1  1
 13 14  1  0
 13 40  1  0
 13 41  1  0
 14 15  1  0
 14 42  1  0
 14 43  1  0
 15 16  2  0
 15 17  1  0
 17 18  1  1
 17 19  1  0
 18 44  1  0
 18 45  1  0
 18 46  1  0
 19 20  1  0
 19 47  1  0
 19 48  1  0
 20 21  1  0
 20 49  1  0
 20 50  1  0
 21 51  1  1
 22 23  2  0
M  END
>  <i_m_ct_stereo_status>  (158) 
1

>  <s_m_source_file>  (158) 
/var/tmp/pbs.5076255.sched01/tmpqllwm4fg/43asec3i7m.sdf

>  <i_m_source_file_index>  (158) 
36

>  <i_lp_mmshare_version>  (158) 
48012

>  <i_f3d_flags>  (158) 
0

>  <s_epik_input>  (158) 
W0NIMl0xW0NIMl1bQ0gyXUMoPUMyW0NIM10pQyg9TylbQ0BASF0oW0NIMl0zKVtDSDJdW0NASF0oW0NASF00W0NAXTEyMylbQ0BASF01W0NAXShbQ0gzXSkoW0NIMl1bQ0gyXTQpQyg9TylbQ0gyXVtDSDJdNQ==

>  <s_epik_cmdline>  (158) 
J2VwaWtfcHl0aG9uJywgJy1waHQnLCAnMi4wJywgJy1waCcsICc3LjAnLCAnLXRuJywgJzgnLCAnLW1hJywgJzIwMCcsICctaW1hZScsICc8aW5maWxlLm1hZT4nLCAnLW9tYWUnLCAnPG91dGZpbGUubWFlPic=

>  <r_lp_tautomer_probability>  (158) 
1

>  <r_epik_Ionization_Penalty>  (158) 
3.34158e-14

>  <r_epik_Ionization_Penalty_Charging>  (158) 
0

>  <r_epik_Ionization_Penalty_Neutral>  (158) 
3.34158e-14

>  <r_epik_State_Penalty>  (158) 
-0

>  <r_epik_Charging_Adjusted_Penalty>  (158) 
0

>  <i_epik_Tot_Q>  (158) 
0

>  <i_epik_Tot_abs_Q>  (158) 
0

>  <s_lp_Force_Field>  (158) 
OPLS3e

>  <r_lp_Energy>  (158) 
111.433

>  <b_lp_Chiralities_Consistent>  (158) 
1

>  <s_lp_Variant>  (158) 
47:0-1

>  <s_i_glide_gridfile>  (158) 
pfpi4k_grid

>  <i_i_glide_lignum>  (158) 
36

>  <i_i_glide_rotatable_bonds>  (158) 
0

>  <r_i_docking_score>  (158) 
-3.23111

>  <r_i_glide_ligand_efficiency>  (158) 
-0.140483

>  <r_i_glide_ligand_efficiency_sa>  (158) 
-0.399515

>  <r_i_glide_ligand_efficiency_ln>  (158) 
-0.781311

>  <r_i_glide_gscore>  (158) 
-3.23111

>  <r_i_glide_lipo>  (158) 
-0.397798

>  <r_i_glide_hbond>  (158) 
-0.0990003

>  <r_i_glide_metal>  (158) 
-0

>  <r_i_glide_rewards>  (158) 
-1.33542

>  <r_i_glide_evdw>  (158) 
-22.044

>  <r_i_glide_ecoul>  (158) 
-1.97791

>  <r_i_glide_erotb>  (158) 
0

>  <r_i_glide_esite>  (158) 
0

>  <r_i_glide_emodel>  (158) 
-29.3974

>  <r_i_glide_energy>  (158) 
-24.0219

>  <r_i_glide_einternal>  (158) 
0

>  <r_i_glide_intrahb_reward>  (158) 
-0

>  <i_i_glide_confnum>  (158) 
1

>  <i_i_glide_posenum>  (158) 
2

>  <r_i_glide_eff_state_penalty>  (158) 
0

>  <ligand_id>  (158) 
47

>  <original_smiles>  (158) 
CC1=C2CCCC13CC(CC1C4CCC(=O)C4(C)CCC13)C2=O

>  <smiles>  (158) 
[H]C([H])([H])C1=C2C(=O)C3([H])C([H])([H])C4([H])C5([H])C([H])([H])C([H])([H])C(=O)C5(C([H])([H])[H])C([H])([H])C([H])([H])C4([H])C1(C([H])([H])C([H])([H])C2([H])[H])C3([H])[H]

$$$$
47:0:1
     RDKit          3D

 51 55  0  0  1  0  0  0  0  0999 V2000
    1.5036   -6.9859    1.3002 C   0  0  0  0  0  0  0  0  0  0  0  0
    1.8250   -6.1879    2.5551 C   0  0  0  0  0  0  0  0  0  0  0  0
    1.0408   -6.3244    3.6193 C   0  0  0  0  0  0  0  0  0  0  0  0
    1.3680   -7.6385    4.3557 C   0  0  0  0  0  0  0  0  0  0  0  0
    2.8895   -8.0920    4.2761 C   0  0  0  0  0  0  0  0  0  0  0  0
    3.8299   -7.3833    3.2179 C   0  0  0  0  0  0  0  0  0  0  0  0
    3.3108   -5.9540    2.9237 C   0  0  2  0  0  0  0  0  0  0  0  0
    3.4876   -5.1768    4.2788 C   0  0  0  0  0  0  0  0  0  0  0  0
    2.3400   -4.2128    4.4003 C   0  0  1  0  0  0  0  0  0  0  0  0
    2.4852   -3.1694    3.2437 C   0  0  0  0  0  0  0  0  0  0  0  0
    3.0587   -3.6759    1.8620 C   0  0  1  0  0  0  0  0  0  0  0  0
    3.7112   -2.5456    1.0176 C   0  0  1  0  0  0  0  0  0  0  0  0
    4.9056   -1.7981    1.6622 C   0  0  0  0  0  0  0  0  0  0  0  0
    5.6438   -1.1091    0.5119 C   0  0  0  0  0  0  0  0  0  0  0  0
    5.1854   -1.8796   -0.7061 C   0  0  0  0  0  0  0  0  0  0  0  0
    5.5733   -1.6037   -1.8504 O   0  0  0  0  0  0  0  0  0  0  0  0
    4.2123   -3.0050   -0.3751 C   0  0  2  0  0  0  0  0  0  0  0  0
    3.0700   -3.0748   -1.4124 C   0  0  0  0  0  0  0  0  0  0  0  0
    4.9926   -4.3463   -0.2980 C   0  0  0  0  0  0  0  0  0  0  0  0
    4.2488   -5.4430    0.4859 C   0  0  0  0  0  0  0  0  0  0  0  0
    3.9554   -4.9604    1.9193 C   0  0  2  0  0  0  0  0  0  0  0  0
    1.0790   -5.1095    4.4700 C   0  0  0  0  0  0  0  0  0  0  0  0
    0.1732   -4.8016    5.2545 O   0  0  0  0  0  0  0  0  0  0  0  0
    2.3376   -7.5715    0.9212 H   0  0  0  0  0  0  0  0  0  0  0  0
    1.1863   -6.3019    0.5148 H   0  0  0  0  0  0  0  0  0  0  0  0
    0.6776   -7.6750    1.4821 H   0  0  0  0  0  0  0  0  0  0  0  0
    1.0183   -7.6161    5.3860 H   0  0  0  0  0  0  0  0  0  0  0  0
    0.7780   -8.4108    3.8663 H   0  0  0  0  0  0  0  0  0  0  0  0
    3.3211   -7.9415    5.2647 H   0  0  0  0  0  0  0  0  0  0  0  0
    2.9418   -9.1745    4.1461 H   0  0  0  0  0  0  0  0  0  0  0  0
    4.8605   -7.3631    3.5808 H   0  0  0  0  0  0  0  0  0  0  0  0
    3.8663   -7.9859    2.3149 H   0  0  0  0  0  0  0  0  0  0  0  0
    3.5069   -5.8058    5.1664 H   0  0  0  0  0  0  0  0  0  0  0  0
    4.4349   -4.6406    4.3422 H   0  0  0  0  0  0  0  0  0  0  0  0
    2.4065   -3.6848    5.3433 H   0  0  0  0  0  0  0  0  0  0  0  0
    1.5257   -2.7080    3.0665 H   0  0  0  0  0  0  0  0  0  0  0  0
    3.1311   -2.3597    3.6239 H   0  0  0  0  0  0  0  0  0  0  0  0
    2.1748   -3.9639    1.2818 H   0  0  0  0  0  0  0  0  0  0  0  0
    2.9406   -1.7947    0.8518 H   0  0  0  0  0  0  0  0  0  0  0  0
    4.5764   -1.0653    2.4080 H   0  0  0  0  0  0  0  0  0  0  0  0
    5.5871   -2.4901    2.1618 H   0  0  0  0  0  0  0  0  0  0  0  0
    5.3467   -0.0625    0.4095 H   0  0  0  0  0  0  0  0  0  0  0  0
    6.7305   -1.1505    0.6271 H   0  0  0  0  0  0  0  0  0  0  0  0
    2.2837   -3.7505   -1.0904 H   0  0  0  0  0  0  0  0  0  0  0  0
    3.4311   -3.4306   -2.3741 H   0  0  0  0  0  0  0  0  0  0  0  0
    2.6165   -2.1002   -1.5732 H   0  0  0  0  0  0  0  0  0  0  0  0
    5.2077   -4.7088   -1.3019 H   0  0  0  0  0  0  0  0  0  0  0  0
    5.9682   -4.1914    0.1684 H   0  0  0  0  0  0  0  0  0  0  0  0
    3.3319   -5.6786   -0.0492 H   0  0  0  0  0  0  0  0  0  0  0  0
    4.8475   -6.3574    0.5121 H   0  0  0  0  0  0  0  0  0  0  0  0
    4.9321   -4.6877    2.3109 H   0  0  0  0  0  0  0  0  0  0  0  0
  1  2  1  0
  1 24  1  0
  1 25  1  0
  1 26  1  0
  2  7  1  0
  2  3  2  0
  3 22  1  0
  3  4  1  0
  4  5  1  0
  4 27  1  0
  4 28  1  0
  5  6  1  0
  5 29  1  0
  5 30  1  0
  7  6  1  1
  6 31  1  0
  6 32  1  0
  7 21  1  0
  7  8  1  0
  8  9  1  0
  8 33  1  0
  8 34  1  0
  9 10  1  0
  9 22  1  0
  9 35  1  1
 10 11  1  0
 10 36  1  0
 10 37  1  0
 11 21  1  0
 11 12  1  0
 11 38  1  6
 12 17  1  0
 12 13  1  0
 12 39  1  6
 13 14  1  0
 13 40  1  0
 13 41  1  0
 14 15  1  0
 14 42  1  0
 14 43  1  0
 15 16  2  0
 15 17  1  0
 17 18  1  6
 17 19  1  0
 18 44  1  0
 18 45  1  0
 18 46  1  0
 19 20  1  0
 19 47  1  0
 19 48  1  0
 20 21  1  0
 20 49  1  0
 20 50  1  0
 21 51  1  1
 22 23  2  0
M  END
>  <i_m_ct_stereo_status>  (159) 
1

>  <s_m_source_file>  (159) 
/var/tmp/pbs.5076255.sched01/tmpqllwm4fg/43asec3i7m.sdf

>  <i_m_source_file_index>  (159) 
36

>  <i_lp_mmshare_version>  (159) 
48012

>  <i_f3d_flags>  (159) 
0

>  <s_epik_input>  (159) 
W0NIMl0xW0NIMl1bQ0gyXUMoPUMyW0NIM10pQyg9TylbQ0BASF0oW0NIMl0zKVtDSDJdW0NASF0oW0NASF00W0NAXTEyMylbQ0BASF01W0NAXShbQ0gzXSkoW0NIMl1bQ0gyXTQpQyg9TylbQ0gyXVtDSDJdNQ==

>  <s_epik_cmdline>  (159) 
J2VwaWtfcHl0aG9uJywgJy1waHQnLCAnMi4wJywgJy1waCcsICc3LjAnLCAnLXRuJywgJzgnLCAnLW1hJywgJzIwMCcsICctaW1hZScsICc8aW5maWxlLm1hZT4nLCAnLW9tYWUnLCAnPG91dGZpbGUubWFlPic=

>  <r_lp_tautomer_probability>  (159) 
1

>  <r_epik_Ionization_Penalty>  (159) 
3.34158e-14

>  <r_epik_Ionization_Penalty_Charging>  (159) 
0

>  <r_epik_Ionization_Penalty_Neutral>  (159) 
3.34158e-14

>  <r_epik_State_Penalty>  (159) 
-0

>  <r_epik_Charging_Adjusted_Penalty>  (159) 
0

>  <i_epik_Tot_Q>  (159) 
0

>  <i_epik_Tot_abs_Q>  (159) 
0

>  <s_lp_Force_Field>  (159) 
OPLS3e

>  <r_lp_Energy>  (159) 
111.433

>  <b_lp_Chiralities_Consistent>  (159) 
1

>  <s_lp_Variant>  (159) 
47:0-1

>  <s_i_glide_gridfile>  (159) 
pfpi4k_grid

>  <i_i_glide_lignum>  (159) 
36

>  <i_i_glide_rotatable_bonds>  (159) 
0

>  <r_i_docking_score>  (159) 
-3.11787

>  <r_i_glide_ligand_efficiency>  (159) 
-0.13556

>  <r_i_glide_ligand_efficiency_sa>  (159) 
-0.385514

>  <r_i_glide_ligand_efficiency_ln>  (159) 
-0.75393

>  <r_i_glide_gscore>  (159) 
-3.11787

>  <r_i_glide_lipo>  (159) 
-0.31061

>  <r_i_glide_hbond>  (159) 
-0.00939223

>  <r_i_glide_metal>  (159) 
-0

>  <r_i_glide_rewards>  (159) 
-1.27878

>  <r_i_glide_evdw>  (159) 
-23.7185

>  <r_i_glide_ecoul>  (159) 
-2.03549

>  <r_i_glide_erotb>  (159) 
0

>  <r_i_glide_esite>  (159) 
-0.0278438

>  <r_i_glide_emodel>  (159) 
-30.9239

>  <r_i_glide_energy>  (159) 
-25.754

>  <r_i_glide_einternal>  (159) 
0

>  <r_i_glide_intrahb_reward>  (159) 
-0

>  <i_i_glide_confnum>  (159) 
1

>  <i_i_glide_posenum>  (159) 
1

>  <r_i_glide_eff_state_penalty>  (159) 
0

>  <ligand_id>  (159) 
47

>  <original_smiles>  (159) 
CC1=C2CCCC13CC(CC1C4CCC(=O)C4(C)CCC13)C2=O

>  <smiles>  (159) 
[H]C([H])([H])C1=C2C(=O)C3([H])C([H])([H])C4([H])C5([H])C([H])([H])C([H])([H])C(=O)C5(C([H])([H])[H])C([H])([H])C([H])([H])C4([H])C1(C([H])([H])C([H])([H])C2([H])[H])C3([H])[H]

$$$$
47:0:2
     RDKit          3D

 51 55  0  0  1  0  0  0  0  0999 V2000
    5.9256   -4.4765    0.1863 C   0  0  0  0  0  0  0  0  0  0  0  0
    5.1381   -3.3448    0.8390 C   0  0  0  0  0  0  0  0  0  0  0  0
    5.6945   -2.1436    0.9353 C   0  0  0  0  0  0  0  0  0  0  0  0
    5.6370   -1.4228   -0.4259 C   0  0  0  0  0  0  0  0  0  0  0  0
    4.3657   -1.7693   -1.3144 C   0  0  0  0  0  0  0  0  0  0  0  0
    3.4885   -3.0248   -0.9079 C   0  0  0  0  0  0  0  0  0  0  0  0
    3.6099   -3.2806    0.6158 C   0  0  2  0  0  0  0  0  0  0  0  0
    2.9444   -2.0216    1.2870 C   0  0  0  0  0  0  0  0  0  0  0  0
    3.7095   -1.7243    2.5528 C   0  0  1  0  0  0  0  0  0  0  0  0
    3.5091   -2.9379    3.5183 C   0  0  0  0  0  0  0  0  0  0  0  0
    3.3892   -4.3783    2.8847 C   0  0  1  0  0  0  0  0  0  0  0  0
    2.6100   -5.3833    3.7804 C   0  0  1  0  0  0  0  0  0  0  0  0
    1.1476   -5.0167    4.1270 C   0  0  0  0  0  0  0  0  0  0  0  0
    0.4850   -6.3239    4.5768 C   0  0  0  0  0  0  0  0  0  0  0  0
    1.3787   -7.4075    3.9961 C   0  0  0  0  0  0  0  0  0  0  0  0
    1.1765   -8.6060    4.1574 O   0  0  0  0  0  0  0  0  0  0  0  0
    2.5515   -6.8224    3.2052 C   0  0  2  0  0  0  0  0  0  0  0  0
    3.8460   -7.6128    3.4895 C   0  0  0  0  0  0  0  0  0  0  0  0
    2.2011   -6.8366    1.6899 C   0  0  0  0  0  0  0  0  0  0  0  0
    3.0690   -5.8715    0.8606 C   0  0  0  0  0  0  0  0  0  0  0  0
    2.9152   -4.4362    1.3918 C   0  0  2  0  0  0  0  0  0  0  0  0
    5.1404   -1.3674    2.0766 C   0  0  0  0  0  0  0  0  0  0  0  0
    5.7578   -0.4563    2.6299 O   0  0  0  0  0  0  0  0  0  0  0  0
    5.3951   -4.9888   -0.6133 H   0  0  0  0  0  0  0  0  0  0  0  0
    6.1791   -5.2080    0.9535 H   0  0  0  0  0  0  0  0  0  0  0  0
    6.8659   -4.1014   -0.2225 H   0  0  0  0  0  0  0  0  0  0  0  0
    5.7553   -0.3436   -0.3142 H   0  0  0  0  0  0  0  0  0  0  0  0
    6.5124   -1.7631   -0.9790 H   0  0  0  0  0  0  0  0  0  0  0  0
    3.7153   -0.8929   -1.3095 H   0  0  0  0  0  0  0  0  0  0  0  0
    4.6576   -1.8554   -2.3619 H   0  0  0  0  0  0  0  0  0  0  0  0
    2.4478   -2.8672   -1.1972 H   0  0  0  0  0  0  0  0  0  0  0  0
    3.8085   -3.8918   -1.4825 H   0  0  0  0  0  0  0  0  0  0  0  0
    2.9352   -1.1240    0.6717 H   0  0  0  0  0  0  0  0  0  0  0  0
    1.8879   -2.1648    1.5169 H   0  0  0  0  0  0  0  0  0  0  0  0
    3.3076   -0.8332    3.0291 H   0  0  0  0  0  0  0  0  0  0  0  0
    4.3028   -2.9439    4.2636 H   0  0  0  0  0  0  0  0  0  0  0  0
    2.5986   -2.7301    4.0805 H   0  0  0  0  0  0  0  0  0  0  0  0
    4.4145   -4.7560    2.8818 H   0  0  0  0  0  0  0  0  0  0  0  0
    3.1449   -5.4314    4.7304 H   0  0  0  0  0  0  0  0  0  0  0  0
    1.0946   -4.2641    4.9157 H   0  0  0  0  0  0  0  0  0  0  0  0
    0.6164   -4.6214    3.2594 H   0  0  0  0  0  0  0  0  0  0  0  0
    0.4752   -6.4180    5.6632 H   0  0  0  0  0  0  0  0  0  0  0  0
   -0.5394   -6.4234    4.2181 H   0  0  0  0  0  0  0  0  0  0  0  0
    4.7209   -7.1162    3.0767 H   0  0  0  0  0  0  0  0  0  0  0  0
    3.8068   -8.6124    3.0594 H   0  0  0  0  0  0  0  0  0  0  0  0
    4.0169   -7.7318    4.5586 H   0  0  0  0  0  0  0  0  0  0  0  0
    2.3062   -7.8473    1.2924 H   0  0  0  0  0  0  0  0  0  0  0  0
    1.1522   -6.5730    1.5408 H   0  0  0  0  0  0  0  0  0  0  0  0
    4.1037   -6.2076    0.9109 H   0  0  0  0  0  0  0  0  0  0  0  0
    2.7775   -5.9094   -0.1892 H   0  0  0  0  0  0  0  0  0  0  0  0
    1.8434   -4.2547    1.3613 H   0  0  0  0  0  0  0  0  0  0  0  0
  1  2  1  0
  1 24  1  0
  1 25  1  0
  1 26  1  0
  2  7  1  0
  2  3  2  0
  3 22  1  0
  3  4  1  0
  4  5  1  0
  4 27  1  0
  4 28  1  0
  5  6  1  0
  5 29  1  0
  5 30  1  0
  7  6  1  6
  6 31  1  0
  6 32  1  0
  7 21  1  0
  7  8  1  0
  8  9  1  0
  8 33  1  0
  8 34  1  0
  9 10  1  0
  9 22  1  0
  9 35  1  1
 10 11  1  0
 10 36  1  0
 10 37  1  0
 11 21  1  0
 11 12  1  0
 11 38  1  6
 12 17  1  0
 12 13  1  0
 12 39  1  1
 13 14  1  0
 13 40  1  0
 13 41  1  0
 14 15  1  0
 14 42  1  0
 14 43  1  0
 15 16  2  0
 15 17  1  0
 17 18  1  6
 17 19  1  0
 18 44  1  0
 18 45  1  0
 18 46  1  0
 19 20  1  0
 19 47  1  0
 19 48  1  0
 20 21  1  0
 20 49  1  0
 20 50  1  0
 21 51  1  1
 22 23  2  0
M  END
>  <i_m_ct_stereo_status>  (160) 
1

>  <s_m_source_file>  (160) 
/var/tmp/pbs.5076255.sched01/tmpqllwm4fg/43asec3i7m.sdf

>  <i_m_source_file_index>  (160) 
36

>  <i_lp_mmshare_version>  (160) 
48012

>  <i_f3d_flags>  (160) 
0

>  <s_epik_input>  (160) 
W0NIMl0xW0NIMl1bQ0gyXUMoPUMyW0NIM10pQyg9TylbQ0BASF0oW0NIMl0zKVtDSDJdW0NASF0oW0NASF00W0NAXTEyMylbQ0BASF01W0NAXShbQ0gzXSkoW0NIMl1bQ0gyXTQpQyg9TylbQ0gyXVtDSDJdNQ==

>  <s_epik_cmdline>  (160) 
J2VwaWtfcHl0aG9uJywgJy1waHQnLCAnMi4wJywgJy1waCcsICc3LjAnLCAnLXRuJywgJzgnLCAnLW1hJywgJzIwMCcsICctaW1hZScsICc8aW5maWxlLm1hZT4nLCAnLW9tYWUnLCAnPG91dGZpbGUubWFlPic=

>  <r_lp_tautomer_probability>  (160) 
1

>  <r_epik_Ionization_Penalty>  (160) 
3.34158e-14

>  <r_epik_Ionization_Penalty_Charging>  (160) 
0

>  <r_epik_Ionization_Penalty_Neutral>  (160) 
3.34158e-14

>  <r_epik_State_Penalty>  (160) 
-0

>  <r_epik_Charging_Adjusted_Penalty>  (160) 
0

>  <i_epik_Tot_Q>  (160) 
0

>  <i_epik_Tot_abs_Q>  (160) 
0

>  <s_lp_Force_Field>  (160) 
OPLS3e

>  <r_lp_Energy>  (160) 
111.433

>  <b_lp_Chiralities_Consistent>  (160) 
1

>  <s_lp_Variant>  (160) 
47:0-1

>  <s_i_glide_gridfile>  (160) 
pfpi4k_grid

>  <i_i_glide_lignum>  (160) 
36

>  <i_i_glide_rotatable_bonds>  (160) 
0

>  <r_i_docking_score>  (160) 
-2.90202

>  <r_i_glide_ligand_efficiency>  (160) 
-0.126175

>  <r_i_glide_ligand_efficiency_sa>  (160) 
-0.358825

>  <r_i_glide_ligand_efficiency_ln>  (160) 
-0.701736

>  <r_i_glide_gscore>  (160) 
-2.90202

>  <r_i_glide_lipo>  (160) 
-0.198214

>  <r_i_glide_hbond>  (160) 
-0.0531555

>  <r_i_glide_metal>  (160) 
-0

>  <r_i_glide_rewards>  (160) 
-1.4141

>  <r_i_glide_evdw>  (160) 
-23.7194

>  <r_i_glide_ecoul>  (160) 
-0.270729

>  <r_i_glide_erotb>  (160) 
0

>  <r_i_glide_esite>  (160) 
-0.00997251

>  <r_i_glide_emodel>  (160) 
-28.8285

>  <r_i_glide_energy>  (160) 
-23.9901

>  <r_i_glide_einternal>  (160) 
0

>  <r_i_glide_intrahb_reward>  (160) 
-0

>  <i_i_glide_confnum>  (160) 
1

>  <i_i_glide_posenum>  (160) 
16

>  <r_i_glide_eff_state_penalty>  (160) 
0

>  <ligand_id>  (160) 
47

>  <original_smiles>  (160) 
CC1=C2CCCC13CC(CC1C4CCC(=O)C4(C)CCC13)C2=O

>  <smiles>  (160) 
[H]C([H])([H])C1=C2C(=O)C3([H])C([H])([H])C4([H])C5([H])C([H])([H])C([H])([H])C(=O)C5(C([H])([H])[H])C([H])([H])C([H])([H])C4([H])C1(C([H])([H])C([H])([H])C2([H])[H])C3([H])[H]

$$$$
48:1:0
     RDKit          3D

 35 37  0  0  1  0  0  0  0  0999 V2000
    2.6888    0.2942    4.0896 C   0  0  0  0  0  0  0  0  0  0  0  0
    4.1668   -0.7939    4.0560 S   0  0  0  0  0  0  0  0  0  0  0  0
    5.3665    0.0384    4.2435 O   0  0  0  0  0  0  0  0  0  0  0  0
    3.8947   -1.9245    4.9531 O   0  0  0  0  0  0  0  0  0  0  0  0
    4.1825   -1.3832    2.4265 N   0  0  0  0  0  0  0  0  0  0  0  0
    4.2082   -2.8342    2.1327 C   0  0  0  0  0  0  0  0  0  0  0  0
    5.4531   -3.2384    1.3178 C   0  0  0  0  0  0  0  0  0  0  0  0
    5.6718   -2.3472    0.0834 C   0  0  0  0  0  0  0  0  0  0  0  0
    6.9520   -2.7189   -0.6544 C   0  0  0  0  0  0  0  0  0  0  0  0
    6.7464   -3.0608   -1.9320 C   0  0  0  0  0  0  0  0  0  0  0  0
    5.3293   -2.9975   -2.2173 C   0  0  0  0  0  0  0  0  0  0  0  0
    4.6162   -3.2511   -3.4043 C   0  0  0  0  0  0  0  0  0  0  0  0
    3.2165   -3.0611   -3.3656 C   0  0  0  0  0  0  0  0  0  0  0  0
    2.6179   -2.6620   -2.2132 N   0  0  0  0  0  0  0  0  0  0  0  0
    3.2823   -2.4430   -1.0604 C   0  0  0  0  0  0  0  0  0  0  0  0
    4.6786   -2.5996   -1.0476 C   0  0  0  0  0  0  0  0  0  0  0  0
    5.7205   -0.8809    0.5232 C   0  0  0  0  0  0  0  0  0  0  0  0
    4.4749   -0.4614    1.3146 C   0  0  0  0  0  0  0  0  0  0  0  0
    2.5721    0.6946    5.0971 H   0  0  0  0  0  0  0  0  0  0  0  0
    1.7971   -0.2804    3.8288 H   0  0  0  0  0  0  0  0  0  0  0  0
    2.8190    1.1218    3.3923 H   0  0  0  0  0  0  0  0  0  0  0  0
    4.1739   -3.4259    3.0478 H   0  0  0  0  0  0  0  0  0  0  0  0
    3.3019   -3.1031    1.5968 H   0  0  0  0  0  0  0  0  0  0  0  0
    6.3233   -3.1728    1.9740 H   0  0  0  0  0  0  0  0  0  0  0  0
    5.3795   -4.2871    1.0243 H   0  0  0  0  0  0  0  0  0  0  0  0
    7.9159   -2.7425   -0.1554 H   0  0  0  0  0  0  0  0  0  0  0  0
    7.4764   -3.4018   -2.6478 H   0  0  0  0  0  0  0  0  0  0  0  0
    5.1200   -3.5758   -4.3027 H   0  0  0  0  0  0  0  0  0  0  0  0
    2.5443   -3.2168   -4.1953 H   0  0  0  0  0  0  0  0  0  0  0  0
    2.6663   -2.1082   -0.2409 H   0  0  0  0  0  0  0  0  0  0  0  0
    6.6076   -0.7017    1.1325 H   0  0  0  0  0  0  0  0  0  0  0  0
    5.8225   -0.2529   -0.3560 H   0  0  0  0  0  0  0  0  0  0  0  0
    3.6076   -0.3924    0.6676 H   0  0  0  0  0  0  0  0  0  0  0  0
    4.6083    0.5413    1.7015 H   0  0  0  0  0  0  0  0  0  0  0  0
    1.6074   -2.4945   -2.1880 H   0  0  0  0  0  0  0  0  0  0  0  0
  1  2  1  0
  1 19  1  0
  1 20  1  0
  1 21  1  0
  2  3  2  0
  2  4  2  0
  2  5  1  0
  5 18  1  0
  5  6  1  0
  6  7  1  0
  6 22  1  0
  6 23  1  0
  7  8  1  0
  7 24  1  0
  7 25  1  0
  8 16  1  0
  8  9  1  0
  8 17  1  0
  9 10  2  0
  9 26  1  0
 10 11  1  0
 10 27  1  0
 11 16  2  0
 11 12  1  0
 12 13  2  0
 12 28  1  0
 13 14  1  0
 13 29  1  0
 14 15  2  0
 14 35  1  0
 15 16  1  0
 15 30  1  0
 17 18  1  0
 17 31  1  0
 17 32  1  0
 18 33  1  0
 18 34  1  0
M  CHG  1  14   1
M  END
>  <i_m_ct_stereo_status>  (161) 
1

>  <s_m_source_file>  (161) 
/var/tmp/pbs.5076255.sched01/tmpqllwm4fg/43asec3i7m.sdf

>  <i_m_source_file_index>  (161) 
38

>  <i_lp_mmshare_version>  (161) 
48012

>  <i_f3d_flags>  (161) 
0

>  <s_epik_input>  (161) 
W0NIM11TKD1PKSg9TylOKFtDSDJdW0NIMl0xKVtDSDJdW0NIMl1DMTJjM2MoW0NIXT1bQ0hdMilbY0hdW2NIXW5bY0hdMw==

>  <s_epik_cmdline>  (161) 
J2VwaWtfcHl0aG9uJywgJy1waHQnLCAnMi4wJywgJy1waCcsICc3LjAnLCAnLXRuJywgJzgnLCAnLW1hJywgJzIwMCcsICctaW1hZScsICc8aW5maWxlLm1hZT4nLCAnLW9tYWUnLCAnPG91dGZpbGUubWFlPic=

>  <r_lp_tautomer_probability>  (161) 
1

>  <r_epik_Ionization_Penalty>  (161) 
1.72883

>  <r_epik_Ionization_Penalty_Charging>  (161) 
1.72883

>  <r_epik_Ionization_Penalty_Neutral>  (161) 
4.88044e-10

>  <r_epik_State_Penalty>  (161) 
1.83697

>  <r_epik_Charging_Adjusted_Penalty>  (161) 
3.5658

>  <i_epik_Tot_Q>  (161) 
1

>  <i_epik_Tot_abs_Q>  (161) 
1

>  <s_lp_Force_Field>  (161) 
OPLS3e

>  <r_lp_Energy>  (161) 
37.7595

>  <b_lp_Chiralities_Consistent>  (161) 
1

>  <s_lp_Variant>  (161) 
48:0-2

>  <s_i_glide_gridfile>  (161) 
pfpi4k_grid

>  <i_i_glide_lignum>  (161) 
38

>  <i_i_glide_rotatable_bonds>  (161) 
1

>  <r_i_docking_score>  (161) 
-4.23628

>  <r_i_glide_ligand_efficiency>  (161) 
-0.235349

>  <r_i_glide_ligand_efficiency_sa>  (161) 
-0.616789

>  <r_i_glide_ligand_efficiency_ln>  (161) 
-1.08891

>  <r_i_glide_gscore>  (161) 
-4.23628

>  <r_i_glide_lipo>  (161) 
-0.804411

>  <r_i_glide_hbond>  (161) 
-0.0573093

>  <r_i_glide_metal>  (161) 
-0

>  <r_i_glide_rewards>  (161) 
-1.62573

>  <r_i_glide_evdw>  (161) 
-22.6443

>  <r_i_glide_ecoul>  (161) 
-3.85324

>  <r_i_glide_erotb>  (161) 
0

>  <r_i_glide_esite>  (161) 
-0.0386294

>  <r_i_glide_emodel>  (161) 
-33.4441

>  <r_i_glide_energy>  (161) 
-26.4975

>  <r_i_glide_einternal>  (161) 
2.17672

>  <r_i_glide_intrahb_reward>  (161) 
-0

>  <i_i_glide_confnum>  (161) 
4

>  <i_i_glide_posenum>  (161) 
6

>  <r_i_glide_eff_state_penalty>  (161) 
0

>  <ligand_id>  (161) 
48

>  <original_smiles>  (161) 
CS(=O)(=O)N1CCC2(C=Cc3ccncc32)CC1

>  <smiles>  (161) 
[H]C1=C([H])C2(c3c1c([H])c([H])[n+]([H])c3[H])C([H])([H])C([H])([H])N(S(=O)(=O)C([H])([H])[H])C([H])([H])C2([H])[H]

$$$$
48:1:1
     RDKit          3D

 35 37  0  0  1  0  0  0  0  0999 V2000
    3.2033    0.5507    4.1184 C   0  0  0  0  0  0  0  0  0  0  0  0
    4.5494   -0.6432    3.8112 S   0  0  0  0  0  0  0  0  0  0  0  0
    5.8157    0.0896    3.9607 O   0  0  0  0  0  0  0  0  0  0  0  0
    4.2918   -1.8503    4.6105 O   0  0  0  0  0  0  0  0  0  0  0  0
    4.3473   -1.0685    2.1482 N   0  0  0  0  0  0  0  0  0  0  0  0
    3.2361   -1.9548    1.7289 C   0  0  0  0  0  0  0  0  0  0  0  0
    3.7505   -3.2164    1.0116 C   0  0  0  0  0  0  0  0  0  0  0  0
    4.7560   -2.8982   -0.1100 C   0  0  0  0  0  0  0  0  0  0  0  0
    5.2868   -4.1624   -0.7401 C   0  0  0  0  0  0  0  0  0  0  0  0
    5.0482   -4.2236   -2.0611 C   0  0  0  0  0  0  0  0  0  0  0  0
    4.3357   -3.0814   -2.4965 C   0  0  0  0  0  0  0  0  0  0  0  0
    3.8852   -2.6938   -3.7613 C   0  0  0  0  0  0  0  0  0  0  0  0
    3.2076   -1.4550   -3.8548 C   0  0  0  0  0  0  0  0  0  0  0  0
    3.0159   -0.7028   -2.7268 N   0  0  0  0  0  0  0  0  0  0  0  0
    3.4381   -1.1193   -1.5047 C   0  0  0  0  0  0  0  0  0  0  0  0
    4.1339   -2.3121   -1.3723 C   0  0  0  0  0  0  0  0  0  0  0  0
    5.9002   -2.0418    0.4515 C   0  0  0  0  0  0  0  0  0  0  0  0
    5.3945   -0.7687    1.1485 C   0  0  0  0  0  0  0  0  0  0  0  0
    3.2491    0.8725    5.1618 H   0  0  0  0  0  0  0  0  0  0  0  0
    2.2328    0.0890    3.9340 H   0  0  0  0  0  0  0  0  0  0  0  0
    3.3292    1.4308    3.4796 H   0  0  0  0  0  0  0  0  0  0  0  0
    2.6308   -2.2386    2.5886 H   0  0  0  0  0  0  0  0  0  0  0  0
    2.5558   -1.4086    1.0813 H   0  0  0  0  0  0  0  0  0  0  0  0
    4.2339   -3.8592    1.7536 H   0  0  0  0  0  0  0  0  0  0  0  0
    2.9155   -3.7965    0.6126 H   0  0  0  0  0  0  0  0  0  0  0  0
    5.8008   -4.9285   -0.1635 H   0  0  0  0  0  0  0  0  0  0  0  0
    5.3137   -5.0061   -2.7402 H   0  0  0  0  0  0  0  0  0  0  0  0
    4.0451   -3.3351   -4.6169 H   0  0  0  0  0  0  0  0  0  0  0  0
    2.7887   -1.0392   -4.7596 H   0  0  0  0  0  0  0  0  0  0  0  0
    3.2305   -0.4725   -0.6635 H   0  0  0  0  0  0  0  0  0  0  0  0
    6.4852   -2.6282    1.1656 H   0  0  0  0  0  0  0  0  0  0  0  0
    6.5896   -1.7812   -0.3500 H   0  0  0  0  0  0  0  0  0  0  0  0
    5.0108   -0.0526    0.4269 H   0  0  0  0  0  0  0  0  0  0  0  0
    6.2376   -0.2608    1.6060 H   0  0  0  0  0  0  0  0  0  0  0  0
    2.5166    0.1905   -2.7999 H   0  0  0  0  0  0  0  0  0  0  0  0
  1  2  1  0
  1 19  1  0
  1 20  1  0
  1 21  1  0
  2  3  2  0
  2  4  2  0
  2  5  1  0
  5 18  1  0
  5  6  1  0
  6  7  1  0
  6 22  1  0
  6 23  1  0
  7  8  1  0
  7 24  1  0
  7 25  1  0
  8 16  1  0
  8  9  1  0
  8 17  1  0
  9 10  2  0
  9 26  1  0
 10 11  1  0
 10 27  1  0
 11 16  2  0
 11 12  1  0
 12 13  2  0
 12 28  1  0
 13 14  1  0
 13 29  1  0
 14 15  2  0
 14 35  1  0
 15 16  1  0
 15 30  1  0
 17 18  1  0
 17 31  1  0
 17 32  1  0
 18 33  1  0
 18 34  1  0
M  CHG  1  14   1
M  END
>  <i_m_ct_stereo_status>  (162) 
1

>  <s_m_source_file>  (162) 
/var/tmp/pbs.5076255.sched01/tmpqllwm4fg/43asec3i7m.sdf

>  <i_m_source_file_index>  (162) 
38

>  <i_lp_mmshare_version>  (162) 
48012

>  <i_f3d_flags>  (162) 
0

>  <s_epik_input>  (162) 
W0NIM11TKD1PKSg9TylOKFtDSDJdW0NIMl0xKVtDSDJdW0NIMl1DMTJjM2MoW0NIXT1bQ0hdMilbY0hdW2NIXW5bY0hdMw==

>  <s_epik_cmdline>  (162) 
J2VwaWtfcHl0aG9uJywgJy1waHQnLCAnMi4wJywgJy1waCcsICc3LjAnLCAnLXRuJywgJzgnLCAnLW1hJywgJzIwMCcsICctaW1hZScsICc8aW5maWxlLm1hZT4nLCAnLW9tYWUnLCAnPG91dGZpbGUubWFlPic=

>  <r_lp_tautomer_probability>  (162) 
1

>  <r_epik_Ionization_Penalty>  (162) 
1.72883

>  <r_epik_Ionization_Penalty_Charging>  (162) 
1.72883

>  <r_epik_Ionization_Penalty_Neutral>  (162) 
4.88044e-10

>  <r_epik_State_Penalty>  (162) 
1.83697

>  <r_epik_Charging_Adjusted_Penalty>  (162) 
3.5658

>  <i_epik_Tot_Q>  (162) 
1

>  <i_epik_Tot_abs_Q>  (162) 
1

>  <s_lp_Force_Field>  (162) 
OPLS3e

>  <r_lp_Energy>  (162) 
37.7595

>  <b_lp_Chiralities_Consistent>  (162) 
1

>  <s_lp_Variant>  (162) 
48:0-2

>  <s_i_glide_gridfile>  (162) 
pfpi4k_grid

>  <i_i_glide_lignum>  (162) 
38

>  <i_i_glide_rotatable_bonds>  (162) 
1

>  <r_i_docking_score>  (162) 
-3.74783

>  <r_i_glide_ligand_efficiency>  (162) 
-0.208213

>  <r_i_glide_ligand_efficiency_sa>  (162) 
-0.545672

>  <r_i_glide_ligand_efficiency_ln>  (162) 
-0.96336

>  <r_i_glide_gscore>  (162) 
-3.74783

>  <r_i_glide_lipo>  (162) 
-0.536977

>  <r_i_glide_hbond>  (162) 
0

>  <r_i_glide_metal>  (162) 
-0

>  <r_i_glide_rewards>  (162) 
-1.72973

>  <r_i_glide_evdw>  (162) 
-16.9502

>  <r_i_glide_ecoul>  (162) 
-3.92326

>  <r_i_glide_erotb>  (162) 
0

>  <r_i_glide_esite>  (162) 
-0.0451252

>  <r_i_glide_emodel>  (162) 
-26.5316

>  <r_i_glide_energy>  (162) 
-20.8735

>  <r_i_glide_einternal>  (162) 
2.03804

>  <r_i_glide_intrahb_reward>  (162) 
-0

>  <i_i_glide_confnum>  (162) 
4

>  <i_i_glide_posenum>  (162) 
12

>  <r_i_glide_eff_state_penalty>  (162) 
0

>  <ligand_id>  (162) 
48

>  <original_smiles>  (162) 
CS(=O)(=O)N1CCC2(C=Cc3ccncc32)CC1

>  <smiles>  (162) 
[H]C1=C([H])C2(c3c1c([H])c([H])[n+]([H])c3[H])C([H])([H])C([H])([H])N(S(=O)(=O)C([H])([H])[H])C([H])([H])C2([H])[H]

$$$$
48:1:2
     RDKit          3D

 35 37  0  0  1  0  0  0  0  0999 V2000
    4.8278   -3.9981    3.2228 C   0  0  0  0  0  0  0  0  0  0  0  0
    3.9287   -2.4213    3.0616 S   0  0  0  0  0  0  0  0  0  0  0  0
    2.5357   -2.6445    3.4758 O   0  0  0  0  0  0  0  0  0  0  0  0
    4.7469   -1.3660    3.6768 O   0  0  0  0  0  0  0  0  0  0  0  0
    3.9256   -2.1339    1.3678 N   0  0  0  0  0  0  0  0  0  0  0  0
    2.9306   -2.8030    0.5135 C   0  0  0  0  0  0  0  0  0  0  0  0
    3.5595   -3.6471   -0.5885 C   0  0  0  0  0  0  0  0  0  0  0  0
    4.6427   -2.8940   -1.3510 C   0  0  0  0  0  0  0  0  0  0  0  0
    5.2850   -3.8134   -2.3307 C   0  0  0  0  0  0  0  0  0  0  0  0
    5.1898   -3.4341   -3.6013 C   0  0  0  0  0  0  0  0  0  0  0  0
    4.4806   -2.1850   -3.6319 C   0  0  0  0  0  0  0  0  0  0  0  0
    4.1800   -1.2511   -4.6416 C   0  0  0  0  0  0  0  0  0  0  0  0
    3.4284   -0.0884   -4.3829 C   0  0  0  0  0  0  0  0  0  0  0  0
    3.1068    0.1405   -3.1305 N   0  0  0  0  0  0  0  0  0  0  0  0
    3.4271   -0.7369   -2.1202 C   0  0  0  0  0  0  0  0  0  0  0  0
    4.1390   -1.8926   -2.3588 C   0  0  0  0  0  0  0  0  0  0  0  0
    5.6914   -2.3396   -0.3742 C   0  0  0  0  0  0  0  0  0  0  0  0
    5.0628   -1.4570    0.7090 C   0  0  0  0  0  0  0  0  0  0  0  0
    4.8999   -4.2459    4.2739 H   0  0  0  0  0  0  0  0  0  0  0  0
    5.8249   -3.8991    2.8146 H   0  0  0  0  0  0  0  0  0  0  0  0
    4.2874   -4.7859    2.7151 H   0  0  0  0  0  0  0  0  0  0  0  0
    2.2230   -3.3869    1.0901 H   0  0  0  0  0  0  0  0  0  0  0  0
    2.3034   -2.0482    0.0825 H   0  0  0  0  0  0  0  0  0  0  0  0
    3.9856   -4.5354   -0.1201 H   0  0  0  0  0  0  0  0  0  0  0  0
    2.8026   -4.0110   -1.2809 H   0  0  0  0  0  0  0  0  0  0  0  0
    5.7888   -4.6756   -1.9984 H   0  0  0  0  0  0  0  0  0  0  0  0
    5.6082   -3.8763   -4.4678 H   0  0  0  0  0  0  0  0  0  0  0  0
    4.5398   -1.3805   -5.5894 H   0  0  0  0  0  0  0  0  0  0  0  0
    3.1516    0.6412   -5.1256 H   0  0  0  0  0  0  0  0  0  0  0  0
    3.1600   -0.5946   -1.1074 H   0  0  0  0  0  0  0  0  0  0  0  0
    6.2282   -3.1647    0.1087 H   0  0  0  0  0  0  0  0  0  0  0  0
    6.4455   -1.7840   -0.9277 H   0  0  0  0  0  0  0  0  0  0  0  0
    4.7286   -0.5193    0.2757 H   0  0  0  0  0  0  0  0  0  0  0  0
    5.8182   -1.1594    1.4303 H   0  0  0  0  0  0  0  0  0  0  0  0
    2.6555    1.0996   -2.9133 H   0  0  0  0  0  0  0  0  0  0  0  0
  1  2  1  0
  1 19  1  0
  1 20  1  0
  1 21  1  0
  2  3  2  0
  2  4  2  0
  2  5  1  0
  5 18  1  0
  5  6  1  0
  6  7  1  0
  6 22  1  0
  6 23  1  0
  7  8  1  0
  7 24  1  0
  7 25  1  0
  8 16  1  0
  8  9  1  0
  8 17  1  0
  9 10  2  0
  9 26  1  0
 10 11  1  0
 10 27  1  0
 11 16  2  0
 11 12  1  0
 12 13  2  0
 12 28  1  0
 13 14  1  0
 13 29  1  0
 14 15  2  0
 14 35  1  0
 15 16  1  0
 15 30  1  0
 17 18  1  0
 17 31  1  0
 17 32  1  0
 18 33  1  0
 18 34  1  0
M  CHG  1  14   1
M  END
>  <i_m_ct_stereo_status>  (163) 
1

>  <s_m_source_file>  (163) 
/var/tmp/pbs.5076255.sched01/tmpqllwm4fg/43asec3i7m.sdf

>  <i_m_source_file_index>  (163) 
38

>  <i_lp_mmshare_version>  (163) 
48012

>  <i_f3d_flags>  (163) 
0

>  <s_epik_input>  (163) 
W0NIM11TKD1PKSg9TylOKFtDSDJdW0NIMl0xKVtDSDJdW0NIMl1DMTJjM2MoW0NIXT1bQ0hdMilbY0hdW2NIXW5bY0hdMw==

>  <s_epik_cmdline>  (163) 
J2VwaWtfcHl0aG9uJywgJy1waHQnLCAnMi4wJywgJy1waCcsICc3LjAnLCAnLXRuJywgJzgnLCAnLW1hJywgJzIwMCcsICctaW1hZScsICc8aW5maWxlLm1hZT4nLCAnLW9tYWUnLCAnPG91dGZpbGUubWFlPic=

>  <r_lp_tautomer_probability>  (163) 
1

>  <r_epik_Ionization_Penalty>  (163) 
1.72883

>  <r_epik_Ionization_Penalty_Charging>  (163) 
1.72883

>  <r_epik_Ionization_Penalty_Neutral>  (163) 
4.88044e-10

>  <r_epik_State_Penalty>  (163) 
1.83697

>  <r_epik_Charging_Adjusted_Penalty>  (163) 
3.5658

>  <i_epik_Tot_Q>  (163) 
1

>  <i_epik_Tot_abs_Q>  (163) 
1

>  <s_lp_Force_Field>  (163) 
OPLS3e

>  <r_lp_Energy>  (163) 
37.7595

>  <b_lp_Chiralities_Consistent>  (163) 
1

>  <s_lp_Variant>  (163) 
48:0-2

>  <s_i_glide_gridfile>  (163) 
pfpi4k_grid

>  <i_i_glide_lignum>  (163) 
38

>  <i_i_glide_rotatable_bonds>  (163) 
1

>  <r_i_docking_score>  (163) 
-3.42781

>  <r_i_glide_ligand_efficiency>  (163) 
-0.190434

>  <r_i_glide_ligand_efficiency_sa>  (163) 
-0.499078

>  <r_i_glide_ligand_efficiency_ln>  (163) 
-0.8811

>  <r_i_glide_gscore>  (163) 
-3.42781

>  <r_i_glide_lipo>  (163) 
-0.706651

>  <r_i_glide_hbond>  (163) 
0

>  <r_i_glide_metal>  (163) 
-0

>  <r_i_glide_rewards>  (163) 
-1.59994

>  <r_i_glide_evdw>  (163) 
-3.14415

>  <r_i_glide_ecoul>  (163) 
-6.30621

>  <r_i_glide_erotb>  (163) 
0

>  <r_i_glide_esite>  (163) 
-0.0180809

>  <r_i_glide_emodel>  (163) 
-14.1367

>  <r_i_glide_energy>  (163) 
-9.45037

>  <r_i_glide_einternal>  (163) 
0.00700136

>  <r_i_glide_intrahb_reward>  (163) 
-0

>  <i_i_glide_confnum>  (163) 
4

>  <i_i_glide_posenum>  (163) 
30

>  <r_i_glide_eff_state_penalty>  (163) 
0

>  <ligand_id>  (163) 
48

>  <original_smiles>  (163) 
CS(=O)(=O)N1CCC2(C=Cc3ccncc32)CC1

>  <smiles>  (163) 
[H]C1=C([H])C2(c3c1c([H])c([H])[n+]([H])c3[H])C([H])([H])C([H])([H])N(S(=O)(=O)C([H])([H])[H])C([H])([H])C2([H])[H]

$$$$
49:1:0
     RDKit          3D

 34 36  0  0  1  0  0  0  0  0999 V2000
  -11.4572  -10.2647   -8.2223 C   0  0  0  0  0  0  0  0  0  0  0  0
  -10.2064  -10.6177   -8.8912 N   0  0  0  0  0  0  0  0  0  0  0  0
   -9.7581   -9.6886   -9.9217 C   0  0  2  0  0  0  0  0  0  0  0  0
   -8.5246  -10.4683  -10.4078 C   0  0  0  0  0  0  0  0  0  0  0  0
   -7.9912  -11.1094   -9.1190 C   0  0  0  0  0  0  0  0  0  0  0  0
   -8.9883  -10.5602   -8.0822 C   0  0  1  0  0  0  0  0  0  0  0  0
   -8.7867   -9.0506   -7.8456 C   0  0  1  0  0  0  0  0  0  0  0  0
   -7.0391   -8.5997   -7.4411 S   0  0  0  0  0  0  0  0  0  0  0  0
   -6.5194   -9.5934   -6.4899 O   0  0  0  0  0  0  0  0  0  0  0  0
   -6.2989   -8.3238   -8.6828 O   0  0  0  0  0  0  0  0  0  0  0  0
   -7.1957   -7.0463   -6.5944 C   0  0  0  0  0  0  0  0  0  0  0  0
   -7.9090   -5.9858   -7.1842 C   0  0  0  0  0  0  0  0  0  0  0  0
   -8.0280   -4.7612   -6.5123 C   0  0  0  0  0  0  0  0  0  0  0  0
   -7.4061   -4.5998   -5.2554 C   0  0  0  0  0  0  0  0  0  0  0  0
   -6.6743   -5.6510   -4.6785 C   0  0  0  0  0  0  0  0  0  0  0  0
   -6.5756   -6.8821   -5.3466 C   0  0  0  0  0  0  0  0  0  0  0  0
   -9.3165   -8.4343   -9.1473 C   0  0  0  0  0  0  0  0  0  0  0  0
  -12.2816  -10.2932   -8.9361 H   0  0  0  0  0  0  0  0  0  0  0  0
  -11.4551   -9.2804   -7.7541 H   0  0  0  0  0  0  0  0  0  0  0  0
  -11.6686  -11.0049   -7.4533 H   0  0  0  0  0  0  0  0  0  0  0  0
  -10.4857   -9.4851  -10.7089 H   0  0  0  0  0  0  0  0  0  0  0  0
   -8.8032  -11.2394  -11.1267 H   0  0  0  0  0  0  0  0  0  0  0  0
   -7.7893   -9.8084  -10.8686 H   0  0  0  0  0  0  0  0  0  0  0  0
   -8.0462  -12.1977   -9.1640 H   0  0  0  0  0  0  0  0  0  0  0  0
   -6.9476  -10.8503   -8.9280 H   0  0  0  0  0  0  0  0  0  0  0  0
   -9.0398  -11.1441   -7.1605 H   0  0  0  0  0  0  0  0  0  0  0  0
   -9.4039   -8.7355   -7.0093 H   0  0  0  0  0  0  0  0  0  0  0  0
   -8.3669   -6.1099   -8.1468 H   0  0  0  0  0  0  0  0  0  0  0  0
   -8.5896   -3.9549   -6.9566 H   0  0  0  0  0  0  0  0  0  0  0  0
   -7.4962   -3.6577   -4.7354 H   0  0  0  0  0  0  0  0  0  0  0  0
   -6.2083   -5.5310   -3.7135 H   0  0  0  0  0  0  0  0  0  0  0  0
   -6.0274   -7.6971   -4.9115 H   0  0  0  0  0  0  0  0  0  0  0  0
   -8.5695   -7.8735   -9.7080 H   0  0  0  0  0  0  0  0  0  0  0  0
  -10.1586   -7.7623   -8.9561 H   0  0  0  0  0  0  0  0  0  0  0  0
  1  2  1  0
  1 18  1  0
  1 19  1  0
  1 20  1  0
  2  6  1  0
  2  3  1  0
  3 17  1  0
  3  4  1  0
  3 21  1  6
  4  5  1  0
  4 22  1  0
  4 23  1  0
  5  6  1  0
  5 24  1  0
  5 25  1  0
  6  7  1  0
  6 26  1  1
  7  8  1  0
  7 17  1  0
  7 27  1  1
  8  9  2  0
  8 10  2  0
  8 11  1  0
 11 16  1  0
 11 12  2  0
 12 13  1  0
 12 28  1  0
 13 14  2  0
 13 29  1  0
 14 15  1  0
 14 30  1  0
 15 16  2  0
 15 31  1  0
 16 32  1  0
 17 33  1  0
 17 34  1  0
M  END
>  <i_m_ct_stereo_status>  (164) 
1

>  <s_m_source_file>  (164) 
/var/tmp/pbs.5076255.sched01/tmpqllwm4fg/43asec3i7m.sdf

>  <i_m_source_file_index>  (164) 
40

>  <i_lp_mmshare_version>  (164) 
48012

>  <i_f3d_flags>  (164) 
0

>  <s_epik_input>  (164) 
W0NIM11OKFtDQEhdMTIpW0NAQEhdKFtDSDJdW0NIMl0xKVtDQEhdKFtDSDJdMilTKD1PKSg9TyljM1tjSF1bY0hdW2NIXVtjSF1bY0hdMw==

>  <s_epik_cmdline>  (164) 
J2VwaWtfcHl0aG9uJywgJy1waHQnLCAnMi4wJywgJy1waCcsICc3LjAnLCAnLXRuJywgJzgnLCAnLW1hJywgJzIwMCcsICctaW1hZScsICc8aW5maWxlLm1hZT4nLCAnLW9tYWUnLCAnPG91dGZpbGUubWFlPic=

>  <r_epik_Ionization_Penalty>  (164) 
2.13769

>  <r_epik_Ionization_Penalty_Charging>  (164) 
0

>  <r_epik_Ionization_Penalty_Neutral>  (164) 
2.13769

>  <r_epik_State_Penalty>  (164) 
2.27655

>  <r_epik_Charging_Adjusted_Penalty>  (164) 
2.27655

>  <i_epik_Tot_Q>  (164) 
0

>  <i_epik_Tot_abs_Q>  (164) 
0

>  <s_lp_Force_Field>  (164) 
OPLS3e

>  <r_lp_Energy>  (164) 
31.6843

>  <b_lp_Chiralities_Consistent>  (164) 
1

>  <s_lp_Variant>  (164) 
49:0-2

>  <s_i_glide_gridfile>  (164) 
pfpi4k_grid

>  <i_i_glide_lignum>  (164) 
40

>  <i_i_glide_rotatable_bonds>  (164) 
2

>  <r_i_docking_score>  (164) 
-4.98033

>  <r_i_glide_ligand_efficiency>  (164) 
-0.29296

>  <r_i_glide_ligand_efficiency_sa>  (164) 
-0.753284

>  <r_i_glide_ligand_efficiency_ln>  (164) 
-1.29926

>  <r_i_glide_gscore>  (164) 
-4.98033

>  <r_i_glide_lipo>  (164) 
-1.92206

>  <r_i_glide_hbond>  (164) 
0

>  <r_i_glide_metal>  (164) 
-0

>  <r_i_glide_rewards>  (164) 
-2.5172

>  <r_i_glide_evdw>  (164) 
-21.2688

>  <r_i_glide_ecoul>  (164) 
-0.216681

>  <r_i_glide_erotb>  (164) 
0.554869

>  <r_i_glide_esite>  (164) 
0

>  <r_i_glide_emodel>  (164) 
-28.1731

>  <r_i_glide_energy>  (164) 
-21.4855

>  <r_i_glide_einternal>  (164) 
2.04782

>  <r_i_glide_intrahb_reward>  (164) 
-0

>  <i_i_glide_confnum>  (164) 
2

>  <i_i_glide_posenum>  (164) 
21

>  <r_i_glide_eff_state_penalty>  (164) 
0

>  <ligand_id>  (164) 
49

>  <original_smiles>  (164) 
CN1C2CCC1C(S(=O)(=O)c1ccccc1)C2

>  <smiles>  (164) 
[H]c1c([H])c([H])c(S(=O)(=O)C2([H])C([H])([H])C3([H])N(C([H])([H])[H])C2([H])C([H])([H])C3([H])[H])c([H])c1[H]

$$$$
49:1:1
     RDKit          3D

 34 36  0  0  1  0  0  0  0  0999 V2000
  -12.1687   -9.9857   -7.6159 C   0  0  0  0  0  0  0  0  0  0  0  0
  -11.8760   -9.2837   -8.8617 N   0  0  0  0  0  0  0  0  0  0  0  0
  -12.3461   -7.9033   -8.9389 C   0  0  2  0  0  0  0  0  0  0  0  0
  -11.9475   -7.6167  -10.3988 C   0  0  0  0  0  0  0  0  0  0  0  0
  -10.6379   -8.4060  -10.5572 C   0  0  0  0  0  0  0  0  0  0  0  0
  -10.4698   -8.9915   -9.1428 C   0  0  1  0  0  0  0  0  0  0  0  0
  -10.1088   -7.9102   -8.1048 C   0  0  1  0  0  0  0  0  0  0  0  0
   -8.6735   -6.8646   -8.6160 S   0  0  0  0  0  0  0  0  0  0  0  0
   -7.5770   -7.7514   -9.0348 O   0  0  0  0  0  0  0  0  0  0  0  0
   -9.1328   -5.8059   -9.5299 O   0  0  0  0  0  0  0  0  0  0  0  0
   -8.1933   -6.0517   -7.1085 C   0  0  0  0  0  0  0  0  0  0  0  0
   -8.8467   -4.8695   -6.7140 C   0  0  0  0  0  0  0  0  0  0  0  0
   -8.4778   -4.2341   -5.5194 C   0  0  0  0  0  0  0  0  0  0  0  0
   -7.4524   -4.7914   -4.7256 C   0  0  0  0  0  0  0  0  0  0  0  0
   -6.8156   -5.9825   -5.1135 C   0  0  0  0  0  0  0  0  0  0  0  0
   -7.1943   -6.6215   -6.3027 C   0  0  0  0  0  0  0  0  0  0  0  0
  -11.4278   -7.1301   -7.9721 C   0  0  0  0  0  0  0  0  0  0  0  0
  -13.2470  -10.1122   -7.5114 H   0  0  0  0  0  0  0  0  0  0  0  0
  -11.8017   -9.4742   -6.7268 H   0  0  0  0  0  0  0  0  0  0  0  0
  -11.7235  -10.9801   -7.6360 H   0  0  0  0  0  0  0  0  0  0  0  0
  -13.4093   -7.7633   -8.7402 H   0  0  0  0  0  0  0  0  0  0  0  0
  -12.7006   -7.9946  -11.0912 H   0  0  0  0  0  0  0  0  0  0  0  0
  -11.8221   -6.5487  -10.5833 H   0  0  0  0  0  0  0  0  0  0  0  0
  -10.7497   -9.2082  -11.2890 H   0  0  0  0  0  0  0  0  0  0  0  0
   -9.8035   -7.7876  -10.8931 H   0  0  0  0  0  0  0  0  0  0  0  0
   -9.8198   -9.8658   -9.0996 H   0  0  0  0  0  0  0  0  0  0  0  0
   -9.8437   -8.4091   -7.1690 H   0  0  0  0  0  0  0  0  0  0  0  0
   -9.6350   -4.4636   -7.3226 H   0  0  0  0  0  0  0  0  0  0  0  0
   -8.9771   -3.3273   -5.2149 H   0  0  0  0  0  0  0  0  0  0  0  0
   -7.1601   -4.2922   -3.8113 H   0  0  0  0  0  0  0  0  0  0  0  0
   -6.0462   -6.4224   -4.4947 H   0  0  0  0  0  0  0  0  0  0  0  0
   -6.7317   -7.5456   -6.6065 H   0  0  0  0  0  0  0  0  0  0  0  0
  -11.3541   -6.0830   -8.2626 H   0  0  0  0  0  0  0  0  0  0  0  0
  -11.8168   -7.1516   -6.9510 H   0  0  0  0  0  0  0  0  0  0  0  0
  1  2  1  0
  1 18  1  0
  1 19  1  0
  1 20  1  0
  2  6  1  0
  2  3  1  0
  3 17  1  0
  3  4  1  0
  3 21  1  6
  4  5  1  0
  4 22  1  0
  4 23  1  0
  5  6  1  0
  5 24  1  0
  5 25  1  0
  6  7  1  0
  6 26  1  6
  7  8  1  0
  7 17  1  0
  7 27  1  1
  8  9  2  0
  8 10  2  0
  8 11  1  0
 11 16  1  0
 11 12  2  0
 12 13  1  0
 12 28  1  0
 13 14  2  0
 13 29  1  0
 14 15  1  0
 14 30  1  0
 15 16  2  0
 15 31  1  0
 16 32  1  0
 17 33  1  0
 17 34  1  0
M  END
>  <i_m_ct_stereo_status>  (165) 
1

>  <s_m_source_file>  (165) 
/var/tmp/pbs.5076255.sched01/tmpqllwm4fg/43asec3i7m.sdf

>  <i_m_source_file_index>  (165) 
40

>  <i_lp_mmshare_version>  (165) 
48012

>  <i_f3d_flags>  (165) 
0

>  <s_epik_input>  (165) 
W0NIM11OKFtDQEhdMTIpW0NAQEhdKFtDSDJdW0NIMl0xKVtDQEhdKFtDSDJdMilTKD1PKSg9TyljM1tjSF1bY0hdW2NIXVtjSF1bY0hdMw==

>  <s_epik_cmdline>  (165) 
J2VwaWtfcHl0aG9uJywgJy1waHQnLCAnMi4wJywgJy1waCcsICc3LjAnLCAnLXRuJywgJzgnLCAnLW1hJywgJzIwMCcsICctaW1hZScsICc8aW5maWxlLm1hZT4nLCAnLW9tYWUnLCAnPG91dGZpbGUubWFlPic=

>  <r_epik_Ionization_Penalty>  (165) 
2.13769

>  <r_epik_Ionization_Penalty_Charging>  (165) 
0

>  <r_epik_Ionization_Penalty_Neutral>  (165) 
2.13769

>  <r_epik_State_Penalty>  (165) 
2.27655

>  <r_epik_Charging_Adjusted_Penalty>  (165) 
2.27655

>  <i_epik_Tot_Q>  (165) 
0

>  <i_epik_Tot_abs_Q>  (165) 
0

>  <s_lp_Force_Field>  (165) 
OPLS3e

>  <r_lp_Energy>  (165) 
31.6843

>  <b_lp_Chiralities_Consistent>  (165) 
1

>  <s_lp_Variant>  (165) 
49:0-2

>  <s_i_glide_gridfile>  (165) 
pfpi4k_grid

>  <i_i_glide_lignum>  (165) 
40

>  <i_i_glide_rotatable_bonds>  (165) 
2

>  <r_i_docking_score>  (165) 
-4.96322

>  <r_i_glide_ligand_efficiency>  (165) 
-0.291954

>  <r_i_glide_ligand_efficiency_sa>  (165) 
-0.750697

>  <r_i_glide_ligand_efficiency_ln>  (165) 
-1.29479

>  <r_i_glide_gscore>  (165) 
-4.96322

>  <r_i_glide_lipo>  (165) 
-1.68762

>  <r_i_glide_hbond>  (165) 
0

>  <r_i_glide_metal>  (165) 
-0

>  <r_i_glide_rewards>  (165) 
-2.36377

>  <r_i_glide_evdw>  (165) 
-23.2643

>  <r_i_glide_ecoul>  (165) 
-2.02322

>  <r_i_glide_erotb>  (165) 
0.554869

>  <r_i_glide_esite>  (165) 
0

>  <r_i_glide_emodel>  (165) 
-32.9717

>  <r_i_glide_energy>  (165) 
-25.2876

>  <r_i_glide_einternal>  (165) 
0.048302

>  <r_i_glide_intrahb_reward>  (165) 
-0

>  <i_i_glide_confnum>  (165) 
2

>  <i_i_glide_posenum>  (165) 
11

>  <r_i_glide_eff_state_penalty>  (165) 
0

>  <ligand_id>  (165) 
49

>  <original_smiles>  (165) 
CN1C2CCC1C(S(=O)(=O)c1ccccc1)C2

>  <smiles>  (165) 
[H]c1c([H])c([H])c(S(=O)(=O)C2([H])C([H])([H])C3([H])N(C([H])([H])[H])C2([H])C([H])([H])C3([H])[H])c([H])c1[H]

$$$$
49:1:2
     RDKit          3D

 34 36  0  0  1  0  0  0  0  0999 V2000
    6.3457   -5.6048    3.4347 C   0  0  0  0  0  0  0  0  0  0  0  0
    5.8154   -5.1135    2.1622 N   0  0  0  0  0  0  0  0  0  0  0  0
    6.1019   -5.9521    1.0051 C   0  0  2  0  0  0  0  0  0  0  0  0
    7.6251   -5.7824    0.8006 C   0  0  0  0  0  0  0  0  0  0  0  0
    7.8757   -4.3440    1.2602 C   0  0  0  0  0  0  0  0  0  0  0  0
    6.4399   -3.8992    1.6437 C   0  0  1  0  0  0  0  0  0  0  0  0
    5.5507   -3.7149    0.3980 C   0  0  1  0  0  0  0  0  0  0  0  0
    6.3349   -2.6602   -0.8882 S   0  0  0  0  0  0  0  0  0  0  0  0
    6.7151   -1.3967   -0.2467 O   0  0  0  0  0  0  0  0  0  0  0  0
    7.3647   -3.4213   -1.6136 O   0  0  0  0  0  0  0  0  0  0  0  0
    5.0406   -2.3363   -2.0559 C   0  0  0  0  0  0  0  0  0  0  0  0
    4.5405   -3.3807   -2.8523 C   0  0  0  0  0  0  0  0  0  0  0  0
    3.4992   -3.1301   -3.7551 C   0  0  0  0  0  0  0  0  0  0  0  0
    2.9954   -1.8224   -3.8799 C   0  0  0  0  0  0  0  0  0  0  0  0
    3.5086   -0.7713   -3.1016 C   0  0  0  0  0  0  0  0  0  0  0  0
    4.5231   -1.0340   -2.1702 C   0  0  0  0  0  0  0  0  0  0  0  0
    5.3167   -5.1620   -0.0519 C   0  0  0  0  0  0  0  0  0  0  0  0
    7.4322   -5.6497    3.4697 H   0  0  0  0  0  0  0  0  0  0  0  0
    5.9614   -6.6082    3.6206 H   0  0  0  0  0  0  0  0  0  0  0  0
    6.0108   -4.9488    4.2386 H   0  0  0  0  0  0  0  0  0  0  0  0
    5.7678   -6.9874    1.0774 H   0  0  0  0  0  0  0  0  0  0  0  0
    8.1842   -6.4948    1.4074 H   0  0  0  0  0  0  0  0  0  0  0  0
    7.9477   -5.9322   -0.2260 H   0  0  0  0  0  0  0  0  0  0  0  0
    8.5582   -4.3599    2.1008 H   0  0  0  0  0  0  0  0  0  0  0  0
    8.3559   -3.7081    0.5175 H   0  0  0  0  0  0  0  0  0  0  0  0
    6.3696   -3.0476    2.3289 H   0  0  0  0  0  0  0  0  0  0  0  0
    4.6025   -3.2488    0.6885 H   0  0  0  0  0  0  0  0  0  0  0  0
    4.9374   -4.3769   -2.7663 H   0  0  0  0  0  0  0  0  0  0  0  0
    3.0793   -3.9472   -4.3178 H   0  0  0  0  0  0  0  0  0  0  0  0
    2.1784   -1.6244   -4.5628 H   0  0  0  0  0  0  0  0  0  0  0  0
    3.0961    0.2216   -3.1919 H   0  0  0  0  0  0  0  0  0  0  0  0
    4.9121   -0.2491   -1.5467 H   0  0  0  0  0  0  0  0  0  0  0  0
    5.7061   -5.3616   -1.0401 H   0  0  0  0  0  0  0  0  0  0  0  0
    4.2467   -5.4059   -0.0537 H   0  0  0  0  0  0  0  0  0  0  0  0
  1  2  1  0
  1 18  1  0
  1 19  1  0
  1 20  1  0
  2  6  1  0
  2  3  1  0
  3 17  1  0
  3  4  1  0
  3 21  1  1
  4  5  1  0
  4 22  1  0
  4 23  1  0
  5  6  1  0
  5 24  1  0
  5 25  1  0
  6  7  1  0
  6 26  1  1
  7  8  1  0
  7 17  1  0
  7 27  1  1
  8  9  2  0
  8 10  2  0
  8 11  1  0
 11 16  1  0
 11 12  2  0
 12 13  1  0
 12 28  1  0
 13 14  2  0
 13 29  1  0
 14 15  1  0
 14 30  1  0
 15 16  2  0
 15 31  1  0
 16 32  1  0
 17 33  1  0
 17 34  1  0
M  END
>  <i_m_ct_stereo_status>  (166) 
1

>  <s_m_source_file>  (166) 
/var/tmp/pbs.5076255.sched01/tmpqllwm4fg/43asec3i7m.sdf

>  <i_m_source_file_index>  (166) 
40

>  <i_lp_mmshare_version>  (166) 
48012

>  <i_f3d_flags>  (166) 
0

>  <s_epik_input>  (166) 
W0NIM11OKFtDQEhdMTIpW0NAQEhdKFtDSDJdW0NIMl0xKVtDQEhdKFtDSDJdMilTKD1PKSg9TyljM1tjSF1bY0hdW2NIXVtjSF1bY0hdMw==

>  <s_epik_cmdline>  (166) 
J2VwaWtfcHl0aG9uJywgJy1waHQnLCAnMi4wJywgJy1waCcsICc3LjAnLCAnLXRuJywgJzgnLCAnLW1hJywgJzIwMCcsICctaW1hZScsICc8aW5maWxlLm1hZT4nLCAnLW9tYWUnLCAnPG91dGZpbGUubWFlPic=

>  <r_epik_Ionization_Penalty>  (166) 
2.13769

>  <r_epik_Ionization_Penalty_Charging>  (166) 
0

>  <r_epik_Ionization_Penalty_Neutral>  (166) 
2.13769

>  <r_epik_State_Penalty>  (166) 
2.27655

>  <r_epik_Charging_Adjusted_Penalty>  (166) 
2.27655

>  <i_epik_Tot_Q>  (166) 
0

>  <i_epik_Tot_abs_Q>  (166) 
0

>  <s_lp_Force_Field>  (166) 
OPLS3e

>  <r_lp_Energy>  (166) 
31.6843

>  <b_lp_Chiralities_Consistent>  (166) 
1

>  <s_lp_Variant>  (166) 
49:0-2

>  <s_i_glide_gridfile>  (166) 
pfpi4k_grid

>  <i_i_glide_lignum>  (166) 
40

>  <i_i_glide_rotatable_bonds>  (166) 
2

>  <r_i_docking_score>  (166) 
-3.55657

>  <r_i_glide_ligand_efficiency>  (166) 
-0.20921

>  <r_i_glide_ligand_efficiency_sa>  (166) 
-0.537937

>  <r_i_glide_ligand_efficiency_ln>  (166) 
-0.927829

>  <r_i_glide_gscore>  (166) 
-3.55657

>  <r_i_glide_lipo>  (166) 
-0.871788

>  <r_i_glide_hbond>  (166) 
0

>  <r_i_glide_metal>  (166) 
-0

>  <r_i_glide_rewards>  (166) 
-1.69537

>  <r_i_glide_evdw>  (166) 
-19.9412

>  <r_i_glide_ecoul>  (166) 
-3.03714

>  <r_i_glide_erotb>  (166) 
0.554869

>  <r_i_glide_esite>  (166) 
-0.0916439

>  <r_i_glide_emodel>  (166) 
-27.6382

>  <r_i_glide_energy>  (166) 
-22.9784

>  <r_i_glide_einternal>  (166) 
1.22041

>  <r_i_glide_intrahb_reward>  (166) 
-0

>  <i_i_glide_confnum>  (166) 
3

>  <i_i_glide_posenum>  (166) 
31

>  <r_i_glide_eff_state_penalty>  (166) 
0

>  <ligand_id>  (166) 
49

>  <original_smiles>  (166) 
CN1C2CCC1C(S(=O)(=O)c1ccccc1)C2

>  <smiles>  (166) 
[H]c1c([H])c([H])c(S(=O)(=O)C2([H])C([H])([H])C3([H])N(C([H])([H])[H])C2([H])C([H])([H])C3([H])[H])c([H])c1[H]

$$$$
52:0:0
     RDKit          3D

 45 47  0  0  1  0  0  0  0  0999 V2000
    2.7488    0.2300   -5.1931 C   0  0  0  0  0  0  0  0  0  0  0  0
    3.3513   -0.5950   -4.0696 C   0  0  0  0  0  0  0  0  0  0  0  0
    3.0810   -1.9668   -3.9567 C   0  0  0  0  0  0  0  0  0  0  0  0
    3.7095   -2.7387   -3.0151 C   0  0  0  0  0  0  0  0  0  0  0  0
    4.5260   -2.1072   -2.0470 C   0  0  0  0  0  0  0  0  0  0  0  0
    5.1495   -3.0090   -0.5922 S   0  0  0  0  0  0  0  0  0  0  0  0
    5.1745   -4.4943   -0.9493 O   0  0  0  0  0  0  0  0  0  0  0  0
    3.8462   -2.6339    0.5792 N   0  0  1  0  0  0  0  0  0  0  0  0
    2.6410   -3.5383    0.5926 C   0  0  1  0  0  0  0  0  0  0  0  0
    2.0564   -3.7790   -0.7938 C   0  0  0  0  0  0  0  0  0  0  0  0
    2.9636   -4.9117    1.2249 C   0  0  0  0  0  0  0  0  0  0  0  0
    3.5322   -4.7290    2.6301 C   0  0  0  0  0  0  0  0  0  0  0  0
    4.7261   -3.7574    2.6445 C   0  0  0  0  0  0  0  0  0  0  0  0
    4.3558   -2.4182    1.9679 C   0  0  1  0  0  0  0  0  0  0  0  0
    5.5362   -1.4309    2.0036 C   0  0  0  0  0  0  0  0  0  0  0  0
    3.9651   -5.9626    3.0793 O   0  0  0  0  0  0  0  0  0  0  0  0
    3.0238   -6.3896    4.0293 C   0  0  0  0  0  0  0  0  0  0  0  0
    2.5721   -5.0678    4.6102 C   0  0  0  0  0  0  0  0  0  0  0  0
    2.5318   -4.2562    3.4565 O   0  0  0  0  0  0  0  0  0  0  0  0
    4.7691   -0.7315   -2.1015 C   0  0  0  0  0  0  0  0  0  0  0  0
    4.1571    0.0442   -3.1340 C   0  0  0  0  0  0  0  0  0  0  0  0
    1.8056   -0.2552   -5.5111 H   0  0  0  0  0  0  0  0  0  0  0  0
    3.4579    0.2389   -6.0372 H   0  0  0  0  0  0  0  0  0  0  0  0
    2.5465    1.2654   -4.8633 H   0  0  0  0  0  0  0  0  0  0  0  0
    2.3674   -2.4210   -4.6211 H   0  0  0  0  0  0  0  0  0  0  0  0
    3.5221   -3.8037   -3.0315 H   0  0  0  0  0  0  0  0  0  0  0  0
    1.8578   -3.0297    1.1839 H   0  0  0  0  0  0  0  0  0  0  0  0
    1.1318   -4.3467   -0.8600 H   0  0  0  0  0  0  0  0  0  0  0  0
    2.8050   -4.3746   -1.3067 H   0  0  0  0  0  0  0  0  0  0  0  0
    1.9452   -2.8134   -1.2975 H   0  0  0  0  0  0  0  0  0  0  0  0
    2.0729   -5.5433    1.2420 H   0  0  0  0  0  0  0  0  0  0  0  0
    3.7055   -5.4542    0.6381 H   0  0  0  0  0  0  0  0  0  0  0  0
    5.0372   -3.6012    3.6796 H   0  0  0  0  0  0  0  0  0  0  0  0
    5.5632   -4.2216    2.1188 H   0  0  0  0  0  0  0  0  0  0  0  0
    3.5454   -1.9605    2.5360 H   0  0  0  0  0  0  0  0  0  0  0  0
    5.8179   -1.1876    3.0292 H   0  0  0  0  0  0  0  0  0  0  0  0
    5.2975   -0.5035    1.4770 H   0  0  0  0  0  0  0  0  0  0  0  0
    6.4262   -1.8634    1.5395 H   0  0  0  0  0  0  0  0  0  0  0  0
    2.1949   -6.8868    3.5444 H   0  0  0  0  0  0  0  0  0  0  0  0
    3.4552   -7.0579    4.7625 H   0  0  0  0  0  0  0  0  0  0  0  0
    1.6067   -5.1132    5.1149 H   0  0  0  0  0  0  0  0  0  0  0  0
    3.3110   -4.6724    5.3090 H   0  0  0  0  0  0  0  0  0  0  0  0
    5.3857   -0.2856   -1.3293 H   0  0  0  0  0  0  0  0  0  0  0  0
    4.4462    1.0908   -3.2287 H   0  0  0  0  0  0  0  0  0  0  0  0
    3.4609   -1.7393    0.3132 H   0  0  0  0  0  0  0  0  0  0  0  0
  1  2  1  0
  1 22  1  0
  1 23  1  0
  1 24  1  0
  2 21  2  0
  2  3  1  0
  3  4  2  0
  3 25  1  0
  4  5  1  0
  4 26  1  0
  6  5  1  6
  5 20  2  0
  6  7  2  0
  6  8  1  0
  8 14  1  0
  8  9  1  0
  8 45  1  6
  9 10  1  0
  9 11  1  0
  9 27  1  1
 10 28  1  0
 10 29  1  0
 10 30  1  0
 11 12  1  0
 11 31  1  0
 11 32  1  0
 12 19  1  0
 12 13  1  0
 12 16  1  0
 13 14  1  0
 13 33  1  0
 13 34  1  0
 14 15  1  0
 14 35  1  1
 15 36  1  0
 15 37  1  0
 15 38  1  0
 16 17  1  0
 17 18  1  0
 17 39  1  0
 17 40  1  0
 18 19  1  0
 18 41  1  0
 18 42  1  0
 20 21  1  0
 20 43  1  0
 21 44  1  0
M  CHG  1   8   1
M  END
>  <i_m_ct_stereo_status>  (167) 
1

>  <s_m_source_file>  (167) 
/var/tmp/pbs.5076255.sched01/tmpqllwm4fg/43asec3i7m.sdf

>  <i_m_source_file_index>  (167) 
43

>  <i_lp_mmshare_version>  (167) 
48012

>  <i_f3d_flags>  (167) 
0

>  <s_epik_input>  (167) 
W0NIM11jMVtjSF1bY0hdYyhbY0hdW2NIXTEpW1MrXShbTy1dKU4oW0NAQEhdKFtDSDJdMilbQ0gzXSlbQ0BASF0oW0NIM10pW0NIMl1DMjNPW0NIMl1bQ0gyXU8z

>  <s_epik_cmdline>  (167) 
J2VwaWtfcHl0aG9uJywgJy1waHQnLCAnMi4wJywgJy1waCcsICc3LjAnLCAnLXRuJywgJzgnLCAnLW1hJywgJzIwMCcsICctaW1hZScsICc8aW5maWxlLm1hZT4nLCAnLW9tYWUnLCAnPG91dGZpbGUubWFlPic=

>  <r_epik_Ionization_Penalty>  (167) 
0.000309059

>  <r_epik_Ionization_Penalty_Charging>  (167) 
0.000309059

>  <r_epik_Ionization_Penalty_Neutral>  (167) 
1.67079e-14

>  <r_epik_State_Penalty>  (167) 
0.000186163

>  <r_epik_Charging_Adjusted_Penalty>  (167) 
0.000495222

>  <i_epik_Tot_Q>  (167) 
1

>  <i_epik_Tot_abs_Q>  (167) 
3

>  <s_lp_Force_Field>  (167) 
OPLS3e

>  <r_lp_Energy>  (167) 
7.36827

>  <b_lp_Chiralities_Consistent>  (167) 
1

>  <s_lp_Variant>  (167) 
52:0-1

>  <s_i_glide_gridfile>  (167) 
pfpi4k_grid

>  <i_i_glide_lignum>  (167) 
43

>  <i_i_glide_rotatable_bonds>  (167) 
2

>  <r_i_docking_score>  (167) 
-3.2051

>  <r_i_glide_ligand_efficiency>  (167) 
-0.152624

>  <r_i_glide_ligand_efficiency_sa>  (167) 
-0.421078

>  <r_i_glide_ligand_efficiency_ln>  (167) 
-0.792455

>  <r_i_glide_gscore>  (167) 
-3.2051

>  <r_i_glide_lipo>  (167) 
-0.705231

>  <r_i_glide_hbond>  (167) 
0

>  <r_i_glide_metal>  (167) 
-0

>  <r_i_glide_rewards>  (167) 
-1.32053

>  <r_i_glide_evdw>  (167) 
-20.4732

>  <r_i_glide_ecoul>  (167) 
-3.52362

>  <r_i_glide_erotb>  (167) 
0.38458

>  <r_i_glide_esite>  (167) 
-0.0117238

>  <r_i_glide_emodel>  (167) 
-26.3974

>  <r_i_glide_energy>  (167) 
-23.9968

>  <r_i_glide_einternal>  (167) 
1.35665

>  <r_i_glide_intrahb_reward>  (167) 
-0

>  <i_i_glide_confnum>  (167) 
1

>  <i_i_glide_posenum>  (167) 
28

>  <r_i_glide_eff_state_penalty>  (167) 
0

>  <ligand_id>  (167) 
52

>  <original_smiles>  (167) 
Cc1ccc([S+]([O-])N2C(C)CC3(CC2C)OCCO3)cc1

>  <smiles>  (167) 
[H]c1c([H])c(C([H])([H])[H])c([H])c([H])c1S(=O)[N+]1([H])C([H])(C([H])([H])[H])C([H])([H])C2(OC([H])([H])C([H])([H])O2)C([H])([H])C1([H])C([H])([H])[H]

$$$$
52:0:1
     RDKit          3D

 45 47  0  0  1  0  0  0  0  0999 V2000
    3.5087   -0.0211   -4.3701 C   0  0  0  0  0  0  0  0  0  0  0  0
    3.5457   -1.0988   -3.3124 C   0  0  0  0  0  0  0  0  0  0  0  0
    2.6041   -2.1405   -3.3108 C   0  0  0  0  0  0  0  0  0  0  0  0
    2.6241   -3.1087   -2.3005 C   0  0  0  0  0  0  0  0  0  0  0  0
    3.6345   -3.0479   -1.3114 C   0  0  0  0  0  0  0  0  0  0  0  0
    3.7199   -4.3727   -0.0470 S   0  0  0  0  0  0  0  0  0  0  0  0
    2.2927   -4.6979    0.3930 O   0  0  0  0  0  0  0  0  0  0  0  0
    4.5389   -3.4356    1.1767 N   0  0  1  0  0  0  0  0  0  0  0  0
    3.7305   -2.9876    2.3431 C   0  0  1  0  0  0  0  0  0  0  0  0
    2.3925   -2.3010    1.9389 C   0  0  0  0  0  0  0  0  0  0  0  0
    3.5109   -4.1432    3.3348 C   0  0  0  0  0  0  0  0  0  0  0  0
    4.8497   -4.8110    3.7100 C   0  0  0  0  0  0  0  0  0  0  0  0
    5.6872   -5.2049    2.4703 C   0  0  0  0  0  0  0  0  0  0  0  0
    5.8601   -3.9948    1.5388 C   0  0  1  0  0  0  0  0  0  0  0  0
    6.7116   -4.3583    0.2978 C   0  0  0  0  0  0  0  0  0  0  0  0
    4.5869   -5.9637    4.4190 O   0  0  0  0  0  0  0  0  0  0  0  0
    4.9182   -5.6992    5.7500 C   0  0  0  0  0  0  0  0  0  0  0  0
    6.0601   -4.7163    5.5853 C   0  0  0  0  0  0  0  0  0  0  0  0
    5.5849   -3.9451    4.5032 O   0  0  0  0  0  0  0  0  0  0  0  0
    4.5819   -1.9992   -1.3163 C   0  0  0  0  0  0  0  0  0  0  0  0
    4.5296   -1.0258   -2.3157 C   0  0  0  0  0  0  0  0  0  0  0  0
    2.5086    0.0571   -4.7951 H   0  0  0  0  0  0  0  0  0  0  0  0
    4.2123   -0.2751   -5.1603 H   0  0  0  0  0  0  0  0  0  0  0  0
    3.7926    0.9450   -3.9432 H   0  0  0  0  0  0  0  0  0  0  0  0
    1.8408   -2.2048   -4.0857 H   0  0  0  0  0  0  0  0  0  0  0  0
    1.8987   -3.9059   -2.2855 H   0  0  0  0  0  0  0  0  0  0  0  0
    4.3422   -2.2350    2.8577 H   0  0  0  0  0  0  0  0  0  0  0  0
    1.9210   -1.7821    2.8085 H   0  0  0  0  0  0  0  0  0  0  0  0
    1.7459   -3.0285    1.5079 H   0  0  0  0  0  0  0  0  0  0  0  0
    2.5686   -1.4984    1.2022 H   0  0  0  0  0  0  0  0  0  0  0  0
    3.0078   -3.8113    4.2503 H   0  0  0  0  0  0  0  0  0  0  0  0
    2.8869   -4.8963    2.8560 H   0  0  0  0  0  0  0  0  0  0  0  0
    6.6569   -5.6032    2.7821 H   0  0  0  0  0  0  0  0  0  0  0  0
    5.1664   -6.0034    1.9401 H   0  0  0  0  0  0  0  0  0  0  0  0
    6.3992   -3.2169    2.0751 H   0  0  0  0  0  0  0  0  0  0  0  0
    7.7214   -4.6830    0.5675 H   0  0  0  0  0  0  0  0  0  0  0  0
    6.8231   -3.5284   -0.4034 H   0  0  0  0  0  0  0  0  0  0  0  0
    6.2814   -5.1903   -0.2607 H   0  0  0  0  0  0  0  0  0  0  0  0
    4.0848   -5.2205    6.2542 H   0  0  0  0  0  0  0  0  0  0  0  0
    5.1953   -6.5947    6.2977 H   0  0  0  0  0  0  0  0  0  0  0  0
    6.2618   -4.1128    6.4766 H   0  0  0  0  0  0  0  0  0  0  0  0
    6.9779   -5.2326    5.3076 H   0  0  0  0  0  0  0  0  0  0  0  0
    5.3660   -1.8912   -0.5894 H   0  0  0  0  0  0  0  0  0  0  0  0
    5.2624   -0.2298   -2.2946 H   0  0  0  0  0  0  0  0  0  0  0  0
    4.7481   -2.5536    0.7576 H   0  0  0  0  0  0  0  0  0  0  0  0
  1  2  1  0
  1 22  1  0
  1 23  1  0
  1 24  1  0
  2 21  2  0
  2  3  1  0
  3  4  2  0
  3 25  1  0
  4  5  1  0
  4 26  1  0
  6  5  1  6
  5 20  2  0
  6  7  2  0
  6  8  1  0
  8 14  1  0
  8  9  1  0
  8 45  1  6
  9 10  1  0
  9 11  1  0
  9 27  1  1
 10 28  1  0
 10 29  1  0
 10 30  1  0
 11 12  1  0
 11 31  1  0
 11 32  1  0
 12 19  1  0
 12 13  1  0
 12 16  1  0
 13 14  1  0
 13 33  1  0
 13 34  1  0
 14 15  1  0
 14 35  1  1
 15 36  1  0
 15 37  1  0
 15 38  1  0
 16 17  1  0
 17 18  1  0
 17 39  1  0
 17 40  1  0
 18 19  1  0
 18 41  1  0
 18 42  1  0
 20 21  1  0
 20 43  1  0
 21 44  1  0
M  CHG  1   8   1
M  END
>  <i_m_ct_stereo_status>  (168) 
1

>  <s_m_source_file>  (168) 
/var/tmp/pbs.5076255.sched01/tmpqllwm4fg/43asec3i7m.sdf

>  <i_m_source_file_index>  (168) 
43

>  <i_lp_mmshare_version>  (168) 
48012

>  <i_f3d_flags>  (168) 
0

>  <s_epik_input>  (168) 
W0NIM11jMVtjSF1bY0hdYyhbY0hdW2NIXTEpW1MrXShbTy1dKU4oW0NAQEhdKFtDSDJdMilbQ0gzXSlbQ0BASF0oW0NIM10pW0NIMl1DMjNPW0NIMl1bQ0gyXU8z

>  <s_epik_cmdline>  (168) 
J2VwaWtfcHl0aG9uJywgJy1waHQnLCAnMi4wJywgJy1waCcsICc3LjAnLCAnLXRuJywgJzgnLCAnLW1hJywgJzIwMCcsICctaW1hZScsICc8aW5maWxlLm1hZT4nLCAnLW9tYWUnLCAnPG91dGZpbGUubWFlPic=

>  <r_epik_Ionization_Penalty>  (168) 
0.000309059

>  <r_epik_Ionization_Penalty_Charging>  (168) 
0.000309059

>  <r_epik_Ionization_Penalty_Neutral>  (168) 
1.67079e-14

>  <r_epik_State_Penalty>  (168) 
0.000186163

>  <r_epik_Charging_Adjusted_Penalty>  (168) 
0.000495222

>  <i_epik_Tot_Q>  (168) 
1

>  <i_epik_Tot_abs_Q>  (168) 
3

>  <s_lp_Force_Field>  (168) 
OPLS3e

>  <r_lp_Energy>  (168) 
7.36827

>  <b_lp_Chiralities_Consistent>  (168) 
1

>  <s_lp_Variant>  (168) 
52:0-1

>  <s_i_glide_gridfile>  (168) 
pfpi4k_grid

>  <i_i_glide_lignum>  (168) 
43

>  <i_i_glide_rotatable_bonds>  (168) 
2

>  <r_i_docking_score>  (168) 
-3.17537

>  <r_i_glide_ligand_efficiency>  (168) 
-0.151208

>  <r_i_glide_ligand_efficiency_sa>  (168) 
-0.417172

>  <r_i_glide_ligand_efficiency_ln>  (168) 
-0.785105

>  <r_i_glide_gscore>  (168) 
-3.17537

>  <r_i_glide_lipo>  (168) 
-0.657716

>  <r_i_glide_hbond>  (168) 
-0.00672711

>  <r_i_glide_metal>  (168) 
-0

>  <r_i_glide_rewards>  (168) 
-1.29718

>  <r_i_glide_evdw>  (168) 
-21.6584

>  <r_i_glide_ecoul>  (168) 
-3.32372

>  <r_i_glide_erotb>  (168) 
0.38458

>  <r_i_glide_esite>  (168) 
-0.0168535

>  <r_i_glide_emodel>  (168) 
-26.9447

>  <r_i_glide_energy>  (168) 
-24.9821

>  <r_i_glide_einternal>  (168) 
3.33132

>  <r_i_glide_intrahb_reward>  (168) 
-0

>  <i_i_glide_confnum>  (168) 
1

>  <i_i_glide_posenum>  (168) 
35

>  <r_i_glide_eff_state_penalty>  (168) 
0

>  <ligand_id>  (168) 
52

>  <original_smiles>  (168) 
Cc1ccc([S+]([O-])N2C(C)CC3(CC2C)OCCO3)cc1

>  <smiles>  (168) 
[H]c1c([H])c(C([H])([H])[H])c([H])c([H])c1S(=O)[N+]1([H])C([H])(C([H])([H])[H])C([H])([H])C2(OC([H])([H])C([H])([H])O2)C([H])([H])C1([H])C([H])([H])[H]

$$$$
52:0:2
     RDKit          3D

 45 47  0  0  1  0  0  0  0  0999 V2000
    3.0648   -1.3480   -4.1854 C   0  0  0  0  0  0  0  0  0  0  0  0
    3.6715   -1.6923   -2.8424 C   0  0  0  0  0  0  0  0  0  0  0  0
    3.4866   -2.9794   -2.3075 C   0  0  0  0  0  0  0  0  0  0  0  0
    4.0899   -3.3291   -1.0871 C   0  0  0  0  0  0  0  0  0  0  0  0
    4.7703   -2.3445   -0.3747 C   0  0  0  0  0  0  0  0  0  0  0  0
    5.4050   -2.6792    1.2945 S   0  0  0  0  0  0  0  0  0  0  0  0
    5.7845   -4.1466    1.3665 O   0  0  0  0  0  0  0  0  0  0  0  0
    3.9201   -2.3390    2.2125 N   0  0  1  0  0  0  0  0  0  0  0  0
    3.0679   -3.5252    2.5331 C   0  0  1  0  0  0  0  0  0  0  0  0
    2.7580   -4.4061    1.3313 C   0  0  0  0  0  0  0  0  0  0  0  0
    3.6861   -4.3816    3.6616 C   0  0  0  0  0  0  0  0  0  0  0  0
    3.9753   -3.5283    4.9091 C   0  0  0  0  0  0  0  0  0  0  0  0
    4.8191   -2.2901    4.5613 C   0  0  0  0  0  0  0  0  0  0  0  0
    4.1658   -1.4911    3.4170 C   0  0  1  0  0  0  0  0  0  0  0  0
    4.9929   -0.2329    3.0772 C   0  0  0  0  0  0  0  0  0  0  0  0
    4.6800   -4.2945    5.8189 O   0  0  0  0  0  0  0  0  0  0  0  0
    3.7883   -4.6233    6.8431 C   0  0  0  0  0  0  0  0  0  0  0  0
    2.9086   -3.3953    6.8627 C   0  0  0  0  0  0  0  0  0  0  0  0
    2.7831   -3.1173    5.4884 O   0  0  0  0  0  0  0  0  0  0  0  0
    4.9638   -1.0497   -0.9048 C   0  0  0  0  0  0  0  0  0  0  0  0
    4.4145   -0.7086   -2.1541 C   0  0  0  0  0  0  0  0  0  0  0  0
    2.2081   -1.9987   -4.3688 H   0  0  0  0  0  0  0  0  0  0  0  0
    3.8077   -1.5179   -4.9670 H   0  0  0  0  0  0  0  0  0  0  0  0
    2.7264   -0.3058   -4.2381 H   0  0  0  0  0  0  0  0  0  0  0  0
    2.8778   -3.6888   -2.8423 H   0  0  0  0  0  0  0  0  0  0  0  0
    3.9876   -4.3375   -0.7385 H   0  0  0  0  0  0  0  0  0  0  0  0
    2.1162   -3.1222    2.9106 H   0  0  0  0  0  0  0  0  0  0  0  0
    2.0304   -5.1830    1.5725 H   0  0  0  0  0  0  0  0  0  0  0  0
    3.6968   -4.8772    1.0071 H   0  0  0  0  0  0  0  0  0  0  0  0
    2.3809   -3.7908    0.5043 H   0  0  0  0  0  0  0  0  0  0  0  0
    3.0187   -5.1976    3.9433 H   0  0  0  0  0  0  0  0  0  0  0  0
    4.6217   -4.8240    3.3347 H   0  0  0  0  0  0  0  0  0  0  0  0
    4.9409   -1.6732    5.4509 H   0  0  0  0  0  0  0  0  0  0  0  0
    5.8112   -2.6124    4.2646 H   0  0  0  0  0  0  0  0  0  0  0  0
    3.1944   -1.1312    3.7562 H   0  0  0  0  0  0  0  0  0  0  0  0
    5.0477    0.4549    3.9242 H   0  0  0  0  0  0  0  0  0  0  0  0
    4.5625    0.3193    2.2441 H   0  0  0  0  0  0  0  0  0  0  0  0
    6.0211   -0.4700    2.8248 H   0  0  0  0  0  0  0  0  0  0  0  0
    3.2194   -5.5110    6.5695 H   0  0  0  0  0  0  0  0  0  0  0  0
    4.3081   -4.8087    7.7797 H   0  0  0  0  0  0  0  0  0  0  0  0
    1.9465   -3.5692    7.3364 H   0  0  0  0  0  0  0  0  0  0  0  0
    3.4014   -2.5678    7.3586 H   0  0  0  0  0  0  0  0  0  0  0  0
    5.4736   -0.2885   -0.3322 H   0  0  0  0  0  0  0  0  0  0  0  0
    4.5719    0.2811   -2.5792 H   0  0  0  0  0  0  0  0  0  0  0  0
    3.3427   -1.7700    1.6201 H   0  0  0  0  0  0  0  0  0  0  0  0
  1  2  1  0
  1 22  1  0
  1 23  1  0
  1 24  1  0
  2 21  2  0
  2  3  1  0
  3  4  2  0
  3 25  1  0
  4  5  1  0
  4 26  1  0
  6  5  1  6
  5 20  2  0
  6  7  2  0
  6  8  1  0
  8 14  1  0
  8  9  1  0
  8 45  1  6
  9 10  1  0
  9 11  1  0
  9 27  1  1
 10 28  1  0
 10 29  1  0
 10 30  1  0
 11 12  1  0
 11 31  1  0
 11 32  1  0
 12 19  1  0
 12 13  1  0
 12 16  1  0
 13 14  1  0
 13 33  1  0
 13 34  1  0
 14 15  1  0
 14 35  1  1
 15 36  1  0
 15 37  1  0
 15 38  1  0
 16 17  1  0
 17 18  1  0
 17 39  1  0
 17 40  1  0
 18 19  1  0
 18 41  1  0
 18 42  1  0
 20 21  1  0
 20 43  1  0
 21 44  1  0
M  CHG  1   8   1
M  END
>  <i_m_ct_stereo_status>  (169) 
1

>  <s_m_source_file>  (169) 
/var/tmp/pbs.5076255.sched01/tmpqllwm4fg/43asec3i7m.sdf

>  <i_m_source_file_index>  (169) 
43

>  <i_lp_mmshare_version>  (169) 
48012

>  <i_f3d_flags>  (169) 
0

>  <s_epik_input>  (169) 
W0NIM11jMVtjSF1bY0hdYyhbY0hdW2NIXTEpW1MrXShbTy1dKU4oW0NAQEhdKFtDSDJdMilbQ0gzXSlbQ0BASF0oW0NIM10pW0NIMl1DMjNPW0NIMl1bQ0gyXU8z

>  <s_epik_cmdline>  (169) 
J2VwaWtfcHl0aG9uJywgJy1waHQnLCAnMi4wJywgJy1waCcsICc3LjAnLCAnLXRuJywgJzgnLCAnLW1hJywgJzIwMCcsICctaW1hZScsICc8aW5maWxlLm1hZT4nLCAnLW9tYWUnLCAnPG91dGZpbGUubWFlPic=

>  <r_epik_Ionization_Penalty>  (169) 
0.000309059

>  <r_epik_Ionization_Penalty_Charging>  (169) 
0.000309059

>  <r_epik_Ionization_Penalty_Neutral>  (169) 
1.67079e-14

>  <r_epik_State_Penalty>  (169) 
0.000186163

>  <r_epik_Charging_Adjusted_Penalty>  (169) 
0.000495222

>  <i_epik_Tot_Q>  (169) 
1

>  <i_epik_Tot_abs_Q>  (169) 
3

>  <s_lp_Force_Field>  (169) 
OPLS3e

>  <r_lp_Energy>  (169) 
7.36827

>  <b_lp_Chiralities_Consistent>  (169) 
1

>  <s_lp_Variant>  (169) 
52:0-1

>  <s_i_glide_gridfile>  (169) 
pfpi4k_grid

>  <i_i_glide_lignum>  (169) 
43

>  <i_i_glide_rotatable_bonds>  (169) 
2

>  <r_i_docking_score>  (169) 
-2.55175

>  <r_i_glide_ligand_efficiency>  (169) 
-0.121512

>  <r_i_glide_ligand_efficiency_sa>  (169) 
-0.335242

>  <r_i_glide_ligand_efficiency_ln>  (169) 
-0.630915

>  <r_i_glide_gscore>  (169) 
-2.55175

>  <r_i_glide_lipo>  (169) 
-0.154432

>  <r_i_glide_hbond>  (169) 
0

>  <r_i_glide_metal>  (169) 
-0

>  <r_i_glide_rewards>  (169) 
-1.37288

>  <r_i_glide_evdw>  (169) 
-19.5463

>  <r_i_glide_ecoul>  (169) 
-2.87457

>  <r_i_glide_erotb>  (169) 
0.38458

>  <r_i_glide_esite>  (169) 
-0.000516102

>  <r_i_glide_emodel>  (169) 
-24.5215

>  <r_i_glide_energy>  (169) 
-22.4209

>  <r_i_glide_einternal>  (169) 
0.200979

>  <r_i_glide_intrahb_reward>  (169) 
-0

>  <i_i_glide_confnum>  (169) 
1

>  <i_i_glide_posenum>  (169) 
19

>  <r_i_glide_eff_state_penalty>  (169) 
0

>  <ligand_id>  (169) 
52

>  <original_smiles>  (169) 
Cc1ccc([S+]([O-])N2C(C)CC3(CC2C)OCCO3)cc1

>  <smiles>  (169) 
[H]c1c([H])c(C([H])([H])[H])c([H])c([H])c1S(=O)[N+]1([H])C([H])(C([H])([H])[H])C([H])([H])C2(OC([H])([H])C([H])([H])O2)C([H])([H])C1([H])C([H])([H])[H]

$$$$
52:1:0
     RDKit          3D

 45 47  0  0  1  0  0  0  0  0999 V2000
   -3.4044    3.1411    9.8410 C   0  0  0  0  0  0  0  0  0  0  0  0
   -2.5886    3.4590    8.6107 C   0  0  0  0  0  0  0  0  0  0  0  0
   -1.4776    4.3245    8.6874 C   0  0  0  0  0  0  0  0  0  0  0  0
   -0.7405    4.6303    7.5281 C   0  0  0  0  0  0  0  0  0  0  0  0
   -1.1438    4.0806    6.2918 C   0  0  0  0  0  0  0  0  0  0  0  0
   -0.1683    4.4897    4.7947 S   0  0  0  0  0  0  0  0  0  0  0  0
   -1.1608    4.9152    3.7286 O   0  0  0  0  0  0  0  0  0  0  0  0
    0.4340    2.8620    4.4684 N   0  0  2  0  0  0  0  0  0  0  0  0
    1.9105    2.8270    4.5788 C   0  0  1  0  0  0  0  0  0  0  0  0
    2.4247    3.4100    5.9222 C   0  0  0  0  0  0  0  0  0  0  0  0
    2.4522    1.3885    4.4373 C   0  0  0  0  0  0  0  0  0  0  0  0
    1.9622    0.7446    3.1311 C   0  0  0  0  0  0  0  0  0  0  0  0
    0.4365    0.8253    3.0193 C   0  0  0  0  0  0  0  0  0  0  0  0
   -0.0643    2.2820    3.1866 C   0  0  1  0  0  0  0  0  0  0  0  0
   -1.6204    2.2264    3.0765 C   0  0  0  0  0  0  0  0  0  0  0  0
    2.3447   -0.5894    3.1234 O   0  0  0  0  0  0  0  0  0  0  0  0
    3.4296   -0.6968    2.2565 C   0  0  0  0  0  0  0  0  0  0  0  0
    3.1104    0.3962    1.2462 C   0  0  0  0  0  0  0  0  0  0  0  0
    2.5510    1.3982    2.0653 O   0  0  0  0  0  0  0  0  0  0  0  0
   -2.2756    3.2350    6.1895 C   0  0  0  0  0  0  0  0  0  0  0  0
   -2.9746    2.9050    7.3684 C   0  0  0  0  0  0  0  0  0  0  0  0
   -3.2152    3.8694   10.6350 H   0  0  0  0  0  0  0  0  0  0  0  0
   -3.1504    2.1476   10.2187 H   0  0  0  0  0  0  0  0  0  0  0  0
   -4.4762    3.1599    9.6074 H   0  0  0  0  0  0  0  0  0  0  0  0
   -1.1867    4.7662    9.6364 H   0  0  0  0  0  0  0  0  0  0  0  0
    0.1142    5.2853    7.5730 H   0  0  0  0  0  0  0  0  0  0  0  0
    2.3159    3.4289    3.7671 H   0  0  0  0  0  0  0  0  0  0  0  0
    3.5213    3.3880    5.9698 H   0  0  0  0  0  0  0  0  0  0  0  0
    2.0397    2.8446    6.7756 H   0  0  0  0  0  0  0  0  0  0  0  0
    2.1700    4.4557    6.0834 H   0  0  0  0  0  0  0  0  0  0  0  0
    3.5510    1.3792    4.4404 H   0  0  0  0  0  0  0  0  0  0  0  0
    2.1378    0.7598    5.2752 H   0  0  0  0  0  0  0  0  0  0  0  0
    0.1481    0.4161    2.0510 H   0  0  0  0  0  0  0  0  0  0  0  0
    0.0154    0.1767    3.7824 H   0  0  0  0  0  0  0  0  0  0  0  0
    0.3359    2.9011    2.3901 H   0  0  0  0  0  0  0  0  0  0  0  0
   -1.9203    1.7481    2.1058 H   0  0  0  0  0  0  0  0  0  0  0  0
   -2.0778    3.1828    3.1410 H   0  0  0  0  0  0  0  0  0  0  0  0
   -2.0284    1.5801    3.8862 H   0  0  0  0  0  0  0  0  0  0  0  0
    4.3577   -0.4713    2.7792 H   0  0  0  0  0  0  0  0  0  0  0  0
    3.5193   -1.6805    1.7959 H   0  0  0  0  0  0  0  0  0  0  0  0
    3.9962    0.7476    0.7019 H   0  0  0  0  0  0  0  0  0  0  0  0
    2.3738    0.0582    0.5260 H   0  0  0  0  0  0  0  0  0  0  0  0
   -2.6212    2.8204    5.2379 H   0  0  0  0  0  0  0  0  0  0  0  0
   -3.8219    2.2423    7.3066 H   0  0  0  0  0  0  0  0  0  0  0  0
    0.0860    2.2607    5.1888 H   0  0  0  0  0  0  0  0  0  0  0  0
  1  2  1  0
  1 22  1  0
  1 23  1  0
  1 24  1  0
  2 21  2  0
  2  3  1  0
  3  4  2  0
  3 25  1  0
  4  5  1  0
  4 26  1  0
  6  5  1  1
  5 20  2  0
  6  7  2  0
  6  8  1  0
  8 14  1  0
  8  9  1  0
  8 45  1  1
  9 10  1  0
  9 11  1  0
  9 27  1  6
 10 28  1  0
 10 29  1  0
 10 30  1  0
 11 12  1  0
 11 31  1  0
 11 32  1  0
 12 19  1  0
 12 13  1  0
 12 16  1  0
 13 14  1  0
 13 33  1  0
 13 34  1  0
 14 15  1  0
 14 35  1  6
 15 36  1  0
 15 37  1  0
 15 38  1  0
 16 17  1  0
 17 18  1  0
 17 39  1  0
 17 40  1  0
 18 19  1  0
 18 41  1  0
 18 42  1  0
 20 21  1  0
 20 43  1  0
 21 44  1  0
M  CHG  1   8   1
M  END
>  <i_m_ct_stereo_status>  (170) 
1

>  <s_m_source_file>  (170) 
/var/tmp/pbs.5076255.sched01/tmpln0nb48r/86bqtw16pk.sdf

>  <i_m_source_file_index>  (170) 
1

>  <i_lp_mmshare_version>  (170) 
48012

>  <i_f3d_flags>  (170) 
0

>  <s_epik_input>  (170) 
W0NIM11jMVtjSF1bY0hdYyhbY0hdW2NIXTEpW1MrXShbTy1dKU4oW0NAQEhdKFtDSDJdMilbQ0gzXSlbQ0BASF0oW0NIM10pW0NIMl1DMjNPW0NIMl1bQ0gyXU8z

>  <s_epik_cmdline>  (170) 
J2VwaWtfcHl0aG9uJywgJy1waHQnLCAnMi4wJywgJy1waCcsICc3LjAnLCAnLXRuJywgJzgnLCAnLW1hJywgJzIwMCcsICctaW1hZScsICc8aW5maWxlLm1hZT4nLCAnLW9tYWUnLCAnPG91dGZpbGUubWFlPic=

>  <r_epik_Ionization_Penalty>  (170) 
0.000309059

>  <r_epik_Ionization_Penalty_Charging>  (170) 
0.000309059

>  <r_epik_Ionization_Penalty_Neutral>  (170) 
1.67079e-14

>  <r_epik_State_Penalty>  (170) 
0.000186163

>  <r_epik_Charging_Adjusted_Penalty>  (170) 
0.000495222

>  <i_epik_Tot_Q>  (170) 
1

>  <i_epik_Tot_abs_Q>  (170) 
3

>  <s_lp_Force_Field>  (170) 
OPLS3e

>  <r_lp_Energy>  (170) 
6.37246

>  <b_lp_Chiralities_Consistent>  (170) 
1

>  <s_lp_Variant>  (170) 
52:0-2

>  <s_i_glide_gridfile>  (170) 
pfpi4k_grid

>  <i_i_glide_lignum>  (170) 
1

>  <i_i_glide_rotatable_bonds>  (170) 
2

>  <r_i_docking_score>  (170) 
-3.20977

>  <r_i_glide_ligand_efficiency>  (170) 
-0.152846

>  <r_i_glide_ligand_efficiency_sa>  (170) 
-0.421691

>  <r_i_glide_ligand_efficiency_ln>  (170) 
-0.793609

>  <r_i_glide_gscore>  (170) 
-3.20977

>  <r_i_glide_lipo>  (170) 
-0.394773

>  <r_i_glide_hbond>  (170) 
-0.147687

>  <r_i_glide_metal>  (170) 
-0

>  <r_i_glide_rewards>  (170) 
-1.2925

>  <r_i_glide_evdw>  (170) 
-20.7071

>  <r_i_glide_ecoul>  (170) 
-4.36146

>  <r_i_glide_erotb>  (170) 
0.38458

>  <r_i_glide_esite>  (170) 
-0.0698131

>  <r_i_glide_emodel>  (170) 
-29.1946

>  <r_i_glide_energy>  (170) 
-25.0685

>  <r_i_glide_einternal>  (170) 
1.04913

>  <r_i_glide_intrahb_reward>  (170) 
-0

>  <i_i_glide_confnum>  (170) 
5

>  <i_i_glide_posenum>  (170) 
27

>  <r_i_glide_eff_state_penalty>  (170) 
0

>  <ligand_id>  (170) 
52

>  <original_smiles>  (170) 
Cc1ccc([S+]([O-])N2C(C)CC3(CC2C)OCCO3)cc1

>  <smiles>  (170) 
[H]c1c([H])c(C([H])([H])[H])c([H])c([H])c1S(=O)[N+]1([H])C([H])(C([H])([H])[H])C([H])([H])C2(OC([H])([H])C([H])([H])O2)C([H])([H])C1([H])C([H])([H])[H]

$$$$
52:1:1
     RDKit          3D

 45 47  0  0  1  0  0  0  0  0999 V2000
   -3.4632    3.1648   10.2362 C   0  0  0  0  0  0  0  0  0  0  0  0
   -2.6196    3.4964    9.0158 C   0  0  0  0  0  0  0  0  0  0  0  0
   -1.5192    4.3727    9.1222 C   0  0  0  0  0  0  0  0  0  0  0  0
   -0.7819    4.6764    7.9445 C   0  0  0  0  0  0  0  0  0  0  0  0
   -1.1742    4.1516    6.7163 C   0  0  0  0  0  0  0  0  0  0  0  0
   -0.1815    4.5352    5.2319 S   0  0  0  0  0  0  0  0  0  0  0  0
   -1.0908    5.0274    4.1261 O   0  0  0  0  0  0  0  0  0  0  0  0
    0.4362    2.9236    4.9010 N   0  0  2  0  0  0  0  0  0  0  0  0
    1.9256    2.9348    4.8101 C   0  0  1  0  0  0  0  0  0  0  0  0
    2.5819    3.6064    6.0423 C   0  0  0  0  0  0  0  0  0  0  0  0
    2.4872    1.5022    4.6550 C   0  0  0  0  0  0  0  0  0  0  0  0
    1.8478    0.7934    3.4568 C   0  0  0  0  0  0  0  0  0  0  0  0
    0.3168    0.8459    3.5588 C   0  0  0  0  0  0  0  0  0  0  0  0
   -0.1870    2.2850    3.7021 C   0  0  1  0  0  0  0  0  0  0  0  0
   -1.7148    2.1404    3.7688 C   0  0  0  0  0  0  0  0  0  0  0  0
    2.2621   -0.5344    3.4302 O   0  0  0  0  0  0  0  0  0  0  0  0
    2.1069   -0.9183    2.0776 C   0  0  0  0  0  0  0  0  0  0  0  0
    2.4506    0.3760    1.3392 C   0  0  0  0  0  0  0  0  0  0  0  0
    2.2614    1.4106    2.2895 O   0  0  0  0  0  0  0  0  0  0  0  0
   -2.3251    3.3359    6.6158 C   0  0  0  0  0  0  0  0  0  0  0  0
   -3.0096    2.9656    7.7916 C   0  0  0  0  0  0  0  0  0  0  0  0
   -3.3071    3.8930   11.0403 H   0  0  0  0  0  0  0  0  0  0  0  0
   -3.2141    2.1674   10.6047 H   0  0  0  0  0  0  0  0  0  0  0  0
   -4.5251    3.1723    9.9696 H   0  0  0  0  0  0  0  0  0  0  0  0
   -1.2475    4.8221   10.0799 H   0  0  0  0  0  0  0  0  0  0  0  0
    0.0743    5.3401    8.0231 H   0  0  0  0  0  0  0  0  0  0  0  0
    2.1972    3.5185    3.9242 H   0  0  0  0  0  0  0  0  0  0  0  0
    3.6674    3.6201    5.9442 H   0  0  0  0  0  0  0  0  0  0  0  0
    2.3354    3.0752    6.9591 H   0  0  0  0  0  0  0  0  0  0  0  0
    2.3001    4.6473    6.1833 H   0  0  0  0  0  0  0  0  0  0  0  0
    3.5676    1.5259    4.5207 H   0  0  0  0  0  0  0  0  0  0  0  0
    2.3022    0.9203    5.5560 H   0  0  0  0  0  0  0  0  0  0  0  0
   -0.1289    0.3977    2.6733 H   0  0  0  0  0  0  0  0  0  0  0  0
    0.0192    0.2250    4.4084 H   0  0  0  0  0  0  0  0  0  0  0  0
    0.0843    2.8671    2.8164 H   0  0  0  0  0  0  0  0  0  0  0  0
   -2.1236    1.6663    2.8724 H   0  0  0  0  0  0  0  0  0  0  0  0
   -2.2254    3.0931    3.8378 H   0  0  0  0  0  0  0  0  0  0  0  0
   -1.9858    1.5068    4.6060 H   0  0  0  0  0  0  0  0  0  0  0  0
    2.7401   -1.7621    1.8043 H   0  0  0  0  0  0  0  0  0  0  0  0
    1.0737   -1.2130    1.8870 H   0  0  0  0  0  0  0  0  0  0  0  0
    3.4901    0.3745    1.0158 H   0  0  0  0  0  0  0  0  0  0  0  0
    1.8117    0.5340    0.4817 H   0  0  0  0  0  0  0  0  0  0  0  0
   -2.7614    2.9851    5.7332 H   0  0  0  0  0  0  0  0  0  0  0  0
   -3.8484    2.3057    7.7088 H   0  0  0  0  0  0  0  0  0  0  0  0
    0.2143    2.3392    5.6912 H   0  0  0  0  0  0  0  0  0  0  0  0
  1  2  1  0
  1 22  1  0
  1 23  1  0
  1 24  1  0
  2 21  2  0
  2  3  1  0
  3  4  2  0
  3 25  1  0
  4  5  1  0
  4 26  1  0
  6  5  1  1
  5 20  2  0
  6  7  2  0
  6  8  1  0
  8 14  1  0
  8  9  1  0
  8 45  1  1
  9 10  1  0
  9 11  1  0
  9 27  1  6
 10 28  1  0
 10 29  1  0
 10 30  1  0
 11 12  1  0
 11 31  1  0
 11 32  1  0
 12 19  1  0
 12 13  1  0
 12 16  1  0
 13 14  1  0
 13 33  1  0
 13 34  1  0
 14 15  1  0
 14 35  1  6
 15 36  1  0
 15 37  1  0
 15 38  1  0
 16 17  1  0
 17 18  1  0
 17 39  1  0
 17 40  1  0
 18 19  1  0
 18 41  1  0
 18 42  1  0
 20 21  1  0
 20 43  1  0
 21 44  1  0
M  CHG  1   8   1
M  END
>  <i_m_ct_stereo_status>  (171) 
1

>  <s_m_source_file>  (171) 
/var/tmp/pbs.5076255.sched01/tmpln0nb48r/86bqtw16pk.sdf

>  <i_m_source_file_index>  (171) 
1

>  <i_lp_mmshare_version>  (171) 
48012

>  <i_f3d_flags>  (171) 
0

>  <s_epik_input>  (171) 
W0NIM11jMVtjSF1bY0hdYyhbY0hdW2NIXTEpW1MrXShbTy1dKU4oW0NAQEhdKFtDSDJdMilbQ0gzXSlbQ0BASF0oW0NIM10pW0NIMl1DMjNPW0NIMl1bQ0gyXU8z

>  <s_epik_cmdline>  (171) 
J2VwaWtfcHl0aG9uJywgJy1waHQnLCAnMi4wJywgJy1waCcsICc3LjAnLCAnLXRuJywgJzgnLCAnLW1hJywgJzIwMCcsICctaW1hZScsICc8aW5maWxlLm1hZT4nLCAnLW9tYWUnLCAnPG91dGZpbGUubWFlPic=

>  <r_epik_Ionization_Penalty>  (171) 
0.000309059

>  <r_epik_Ionization_Penalty_Charging>  (171) 
0.000309059

>  <r_epik_Ionization_Penalty_Neutral>  (171) 
1.67079e-14

>  <r_epik_State_Penalty>  (171) 
0.000186163

>  <r_epik_Charging_Adjusted_Penalty>  (171) 
0.000495222

>  <i_epik_Tot_Q>  (171) 
1

>  <i_epik_Tot_abs_Q>  (171) 
3

>  <s_lp_Force_Field>  (171) 
OPLS3e

>  <r_lp_Energy>  (171) 
6.37246

>  <b_lp_Chiralities_Consistent>  (171) 
1

>  <s_lp_Variant>  (171) 
52:0-2

>  <s_i_glide_gridfile>  (171) 
pfpi4k_grid

>  <i_i_glide_lignum>  (171) 
1

>  <i_i_glide_rotatable_bonds>  (171) 
2

>  <r_i_docking_score>  (171) 
-2.98865

>  <r_i_glide_ligand_efficiency>  (171) 
-0.142316

>  <r_i_glide_ligand_efficiency_sa>  (171) 
-0.39264

>  <r_i_glide_ligand_efficiency_ln>  (171) 
-0.738936

>  <r_i_glide_gscore>  (171) 
-2.98865

>  <r_i_glide_lipo>  (171) 
-0.237627

>  <r_i_glide_hbond>  (171) 
-0.109584

>  <r_i_glide_metal>  (171) 
-0

>  <r_i_glide_rewards>  (171) 
-1.2925

>  <r_i_glide_evdw>  (171) 
-18.6994

>  <r_i_glide_ecoul>  (171) 
-5.01907

>  <r_i_glide_erotb>  (171) 
0.38458

>  <r_i_glide_esite>  (171) 
-0.0456784

>  <r_i_glide_emodel>  (171) 
-27.8579

>  <r_i_glide_energy>  (171) 
-23.7185

>  <r_i_glide_einternal>  (171) 
0.328077

>  <r_i_glide_intrahb_reward>  (171) 
-0

>  <i_i_glide_confnum>  (171) 
6

>  <i_i_glide_posenum>  (171) 
38

>  <r_i_glide_eff_state_penalty>  (171) 
0

>  <ligand_id>  (171) 
52

>  <original_smiles>  (171) 
Cc1ccc([S+]([O-])N2C(C)CC3(CC2C)OCCO3)cc1

>  <smiles>  (171) 
[H]c1c([H])c(C([H])([H])[H])c([H])c([H])c1S(=O)[N+]1([H])C([H])(C([H])([H])[H])C([H])([H])C2(OC([H])([H])C([H])([H])O2)C([H])([H])C1([H])C([H])([H])[H]

$$$$
52:1:2
     RDKit          3D

 45 47  0  0  1  0  0  0  0  0999 V2000
    3.7980   -1.1482   -4.2824 C   0  0  0  0  0  0  0  0  0  0  0  0
    4.3505   -1.7371   -3.0111 C   0  0  0  0  0  0  0  0  0  0  0  0
    4.6389   -3.1192   -2.9502 C   0  0  0  0  0  0  0  0  0  0  0  0
    5.2042   -3.6772   -1.7836 C   0  0  0  0  0  0  0  0  0  0  0  0
    5.4154   -2.8292   -0.6697 C   0  0  0  0  0  0  0  0  0  0  0  0
    6.0248   -3.5318    0.9092 S   0  0  0  0  0  0  0  0  0  0  0  0
    6.9832   -4.6681    0.5442 O   0  0  0  0  0  0  0  0  0  0  0  0
    4.4943   -4.1694    1.5046 N   0  0  2  0  0  0  0  0  0  0  0  0
    4.2002   -3.6714    2.8714 C   0  0  1  0  0  0  0  0  0  0  0  0
    4.2808   -2.1268    2.9696 C   0  0  0  0  0  0  0  0  0  0  0  0
    2.8047   -4.1301    3.3481 C   0  0  0  0  0  0  0  0  0  0  0  0
    2.6575   -5.6586    3.2532 C   0  0  0  0  0  0  0  0  0  0  0  0
    3.0037   -6.1374    1.8429 C   0  0  0  0  0  0  0  0  0  0  0  0
    4.3972   -5.6510    1.4254 C   0  0  1  0  0  0  0  0  0  0  0  0
    4.6521   -6.2086    0.0056 C   0  0  0  0  0  0  0  0  0  0  0  0
    1.3520   -6.0142    3.5572 O   0  0  0  0  0  0  0  0  0  0  0  0
    1.4430   -7.3565    3.9999 C   0  0  0  0  0  0  0  0  0  0  0  0
    2.7972   -7.3602    4.7141 C   0  0  0  0  0  0  0  0  0  0  0  0
    3.5021   -6.2516    4.1764 O   0  0  0  0  0  0  0  0  0  0  0  0
    5.1211   -1.4525   -0.7275 C   0  0  0  0  0  0  0  0  0  0  0  0
    4.6033   -0.9081   -1.9048 C   0  0  0  0  0  0  0  0  0  0  0  0
    3.3816   -1.9324   -4.9197 H   0  0  0  0  0  0  0  0  0  0  0  0
    4.5996   -0.6493   -4.8348 H   0  0  0  0  0  0  0  0  0  0  0  0
    3.0061   -0.4200   -4.0708 H   0  0  0  0  0  0  0  0  0  0  0  0
    4.4268   -3.7597   -3.7923 H   0  0  0  0  0  0  0  0  0  0  0  0
    5.4256   -4.7358   -1.7362 H   0  0  0  0  0  0  0  0  0  0  0  0
    4.9425   -4.0851    3.5518 H   0  0  0  0  0  0  0  0  0  0  0  0
    4.0687   -1.7754    3.9898 H   0  0  0  0  0  0  0  0  0  0  0  0
    3.5578   -1.6417    2.3048 H   0  0  0  0  0  0  0  0  0  0  0  0
    5.2629   -1.7115    2.7342 H   0  0  0  0  0  0  0  0  0  0  0  0
    2.6116   -3.8158    4.3861 H   0  0  0  0  0  0  0  0  0  0  0  0
    2.0087   -3.6614    2.7509 H   0  0  0  0  0  0  0  0  0  0  0  0
    2.9747   -7.2213    1.8087 H   0  0  0  0  0  0  0  0  0  0  0  0
    2.2316   -5.7741    1.1596 H   0  0  0  0  0  0  0  0  0  0  0  0
    5.1522   -6.0971    2.0868 H   0  0  0  0  0  0  0  0  0  0  0  0
    4.4572   -7.3017   -0.0403 H   0  0  0  0  0  0  0  0  0  0  0  0
    5.6516   -6.0008   -0.3173 H   0  0  0  0  0  0  0  0  0  0  0  0
    3.9539   -5.7636   -0.7103 H   0  0  0  0  0  0  0  0  0  0  0  0
    0.6091   -7.6492    4.6378 H   0  0  0  0  0  0  0  0  0  0  0  0
    1.4522   -8.0321    3.1440 H   0  0  0  0  0  0  0  0  0  0  0  0
    2.6670   -7.2171    5.7875 H   0  0  0  0  0  0  0  0  0  0  0  0
    3.3435   -8.2892    4.5530 H   0  0  0  0  0  0  0  0  0  0  0  0
    5.2836   -0.8302    0.1348 H   0  0  0  0  0  0  0  0  0  0  0  0
    4.3953    0.1452   -1.9653 H   0  0  0  0  0  0  0  0  0  0  0  0
    3.7635   -3.8110    0.9047 H   0  0  0  0  0  0  0  0  0  0  0  0
  1  2  1  0
  1 22  1  0
  1 23  1  0
  1 24  1  0
  2 21  2  0
  2  3  1  0
  3  4  2  0
  3 25  1  0
  4  5  1  0
  4 26  1  0
  6  5  1  6
  5 20  2  0
  6  7  2  0
  6  8  1  0
  8 14  1  0
  8  9  1  0
  8 45  1  6
  9 10  1  0
  9 11  1  0
  9 27  1  1
 10 28  1  0
 10 29  1  0
 10 30  1  0
 11 12  1  0
 11 31  1  0
 11 32  1  0
 12 19  1  0
 12 13  1  0
 12 16  1  0
 13 14  1  0
 13 33  1  0
 13 34  1  0
 14 15  1  0
 14 35  1  1
 15 36  1  0
 15 37  1  0
 15 38  1  0
 16 17  1  0
 17 18  1  0
 17 39  1  0
 17 40  1  0
 18 19  1  0
 18 41  1  0
 18 42  1  0
 20 21  1  0
 20 43  1  0
 21 44  1  0
M  CHG  1   8   1
M  END
>  <i_m_ct_stereo_status>  (172) 
1

>  <s_m_source_file>  (172) 
/var/tmp/pbs.5076255.sched01/tmpln0nb48r/86bqtw16pk.sdf

>  <i_m_source_file_index>  (172) 
1

>  <i_lp_mmshare_version>  (172) 
48012

>  <i_f3d_flags>  (172) 
0

>  <s_epik_input>  (172) 
W0NIM11jMVtjSF1bY0hdYyhbY0hdW2NIXTEpW1MrXShbTy1dKU4oW0NAQEhdKFtDSDJdMilbQ0gzXSlbQ0BASF0oW0NIM10pW0NIMl1DMjNPW0NIMl1bQ0gyXU8z

>  <s_epik_cmdline>  (172) 
J2VwaWtfcHl0aG9uJywgJy1waHQnLCAnMi4wJywgJy1waCcsICc3LjAnLCAnLXRuJywgJzgnLCAnLW1hJywgJzIwMCcsICctaW1hZScsICc8aW5maWxlLm1hZT4nLCAnLW9tYWUnLCAnPG91dGZpbGUubWFlPic=

>  <r_epik_Ionization_Penalty>  (172) 
0.000309059

>  <r_epik_Ionization_Penalty_Charging>  (172) 
0.000309059

>  <r_epik_Ionization_Penalty_Neutral>  (172) 
1.67079e-14

>  <r_epik_State_Penalty>  (172) 
0.000186163

>  <r_epik_Charging_Adjusted_Penalty>  (172) 
0.000495222

>  <i_epik_Tot_Q>  (172) 
1

>  <i_epik_Tot_abs_Q>  (172) 
3

>  <s_lp_Force_Field>  (172) 
OPLS3e

>  <r_lp_Energy>  (172) 
6.37246

>  <b_lp_Chiralities_Consistent>  (172) 
1

>  <s_lp_Variant>  (172) 
52:0-2

>  <s_i_glide_gridfile>  (172) 
pfpi4k_grid

>  <i_i_glide_lignum>  (172) 
1

>  <i_i_glide_rotatable_bonds>  (172) 
2

>  <r_i_docking_score>  (172) 
-2.82885

>  <r_i_glide_ligand_efficiency>  (172) 
-0.134707

>  <r_i_glide_ligand_efficiency_sa>  (172) 
-0.371647

>  <r_i_glide_ligand_efficiency_ln>  (172) 
-0.699428

>  <r_i_glide_gscore>  (172) 
-2.82885

>  <r_i_glide_lipo>  (172) 
-0.334781

>  <r_i_glide_hbond>  (172) 
0

>  <r_i_glide_metal>  (172) 
-0

>  <r_i_glide_rewards>  (172) 
-1.40192

>  <r_i_glide_evdw>  (172) 
-21.7013

>  <r_i_glide_ecoul>  (172) 
-2.60427

>  <r_i_glide_erotb>  (172) 
0.38458

>  <r_i_glide_esite>  (172) 
-0.00102642

>  <r_i_glide_emodel>  (172) 
-27.9688

>  <r_i_glide_energy>  (172) 
-24.3056

>  <r_i_glide_einternal>  (172) 
0.22521

>  <r_i_glide_intrahb_reward>  (172) 
-0

>  <i_i_glide_confnum>  (172) 
3

>  <i_i_glide_posenum>  (172) 
16

>  <r_i_glide_eff_state_penalty>  (172) 
0

>  <ligand_id>  (172) 
52

>  <original_smiles>  (172) 
Cc1ccc([S+]([O-])N2C(C)CC3(CC2C)OCCO3)cc1

>  <smiles>  (172) 
[H]c1c([H])c(C([H])([H])[H])c([H])c([H])c1S(=O)[N+]1([H])C([H])(C([H])([H])[H])C([H])([H])C2(OC([H])([H])C([H])([H])O2)C([H])([H])C1([H])C([H])([H])[H]

$$$$
53:0:0
     RDKit          3D

 16 17  0  0  1  0  0  0  0  0999 V2000
    7.9952   -3.2069    0.4848 O   0  0  0  0  0  0  0  0  0  0  0  0
    6.9595   -3.8132    0.1280 C   0  0  0  0  0  0  0  0  0  0  0  0
    6.6777   -4.9737    0.5058 O   0  0  0  0  0  0  0  0  0  0  0  0
    6.0151   -3.1428   -0.8090 C   0  0  0  0  0  0  0  0  0  0  0  0
    6.0607   -1.8649   -1.2362 N   0  0  0  0  0  0  0  0  0  0  0  0
    4.9617   -1.7281   -2.0697 C   0  0  0  0  0  0  0  0  0  0  0  0
    4.6031   -0.6169   -2.7195 N   0  0  0  0  0  0  0  0  0  0  0  0
    3.5110   -0.7078   -3.5184 C   0  0  0  0  0  0  0  0  0  0  0  0
    2.7544   -1.8880   -3.6994 C   0  0  0  0  0  0  0  0  0  0  0  0
    3.1349   -3.0476   -3.0030 C   0  0  0  0  0  0  0  0  0  0  0  0
    4.2676   -2.9540   -2.1780 C   0  0  0  0  0  0  0  0  0  0  0  0
    4.9498   -3.8076   -1.3690 N   0  0  0  0  0  0  0  0  0  0  0  0
    3.2254    0.2022   -4.0264 H   0  0  0  0  0  0  0  0  0  0  0  0
    1.8754   -1.8949   -4.3249 H   0  0  0  0  0  0  0  0  0  0  0  0
    2.5633   -3.9586   -3.0970 H   0  0  0  0  0  0  0  0  0  0  0  0
    4.7353   -4.7849   -1.1988 H   0  0  0  0  0  0  0  0  0  0  0  0
  1  2  2  0
  2  3  1  0
  2  4  1  0
  4 12  1  0
  4  5  2  0
  5  6  1  0
  6 11  2  0
  6  7  1  0
  7  8  2  0
  8  9  1  0
  8 13  1  0
  9 10  2  0
  9 14  1  0
 10 11  1  0
 10 15  1  0
 11 12  1  0
 12 16  1  0
M  CHG  1   3  -1
M  END
>  <i_m_ct_stereo_status>  (173) 
1

>  <s_m_source_file>  (173) 
/var/tmp/pbs.5076255.sched01/tmpln0nb48r/86bqtw16pk.sdf

>  <i_m_source_file_index>  (173) 
2

>  <i_lp_mmshare_version>  (173) 
48012

>  <i_f3d_flags>  (173) 
0

>  <s_epik_input>  (173) 
Tz1DKFtPSF0pYyhuMSlbbkhdYyhjMTIpW2NIXVtjSF1bY0hdbjI=

>  <s_epik_cmdline>  (173) 
J2VwaWtfcHl0aG9uJywgJy1waHQnLCAnMi4wJywgJy1waCcsICc3LjAnLCAnLXRuJywgJzgnLCAnLW1hJywgJzIwMCcsICctaW1hZScsICc8aW5maWxlLm1hZT4nLCAnLW9tYWUnLCAnPG91dGZpbGUubWFlPic=

>  <r_epik_Ionization_Penalty>  (173) 
0.00112287

>  <r_epik_Ionization_Penalty_Charging>  (173) 
3.12528e-06

>  <r_epik_Ionization_Penalty_Neutral>  (173) 
0.00111975

>  <r_epik_State_Penalty>  (173) 
0.0371202

>  <r_epik_Charging_Adjusted_Penalty>  (173) 
0.0371233

>  <i_epik_Tot_Q>  (173) 
-1

>  <i_epik_Tot_abs_Q>  (173) 
1

>  <s_lp_Force_Field>  (173) 
OPLS3e

>  <r_lp_Energy>  (173) 
20.5717

>  <b_lp_Chiralities_Consistent>  (173) 
1

>  <s_lp_Variant>  (173) 
53:0-1

>  <s_i_glide_gridfile>  (173) 
pfpi4k_grid

>  <i_i_glide_lignum>  (173) 
2

>  <i_i_glide_rotatable_bonds>  (173) 
1

>  <r_i_docking_score>  (173) 
-4.55892

>  <r_i_glide_ligand_efficiency>  (173) 
-0.37991

>  <r_i_glide_ligand_efficiency_sa>  (173) 
-0.869777

>  <r_i_glide_ligand_efficiency_ln>  (173) 
-1.30819

>  <r_i_glide_gscore>  (173) 
-4.55892

>  <r_i_glide_lipo>  (173) 
-0.413119

>  <r_i_glide_hbond>  (173) 
-0.0970143

>  <r_i_glide_metal>  (173) 
-0

>  <r_i_glide_rewards>  (173) 
-2.49797

>  <r_i_glide_evdw>  (173) 
-17.336

>  <r_i_glide_ecoul>  (173) 
-4.3801

>  <r_i_glide_erotb>  (173) 
0

>  <r_i_glide_esite>  (173) 
-0.0270036

>  <r_i_glide_emodel>  (173) 
-29.8213

>  <r_i_glide_energy>  (173) 
-21.7161

>  <r_i_glide_einternal>  (173) 
0.131934

>  <r_i_glide_intrahb_reward>  (173) 
-0

>  <i_i_glide_confnum>  (173) 
1

>  <i_i_glide_posenum>  (173) 
2

>  <r_i_glide_eff_state_penalty>  (173) 
0

>  <ligand_id>  (173) 
53

>  <original_smiles>  (173) 
O=C(O)c1nc2ncccc2[nH]1

>  <smiles>  (173) 
[H]c1nc2nc(C(=O)[O-])n([H])c2c([H])c1[H]

$$$$
53:0:1
     RDKit          3D

 16 17  0  0  1  0  0  0  0  0999 V2000
    8.2680   -2.1508    0.4646 O   0  0  0  0  0  0  0  0  0  0  0  0
    7.5958   -3.0655   -0.0585 C   0  0  0  0  0  0  0  0  0  0  0  0
    7.8472   -4.2826    0.0981 O   0  0  0  0  0  0  0  0  0  0  0  0
    6.4548   -2.6939   -0.9420 C   0  0  0  0  0  0  0  0  0  0  0  0
    5.9421   -1.4629   -1.1240 N   0  0  0  0  0  0  0  0  0  0  0  0
    4.9385   -1.6184   -2.0643 C   0  0  0  0  0  0  0  0  0  0  0  0
    4.1796   -0.6498   -2.5794 N   0  0  0  0  0  0  0  0  0  0  0  0
    3.2424   -1.0330   -3.4800 C   0  0  0  0  0  0  0  0  0  0  0  0
    3.0647   -2.3629   -3.9241 C   0  0  0  0  0  0  0  0  0  0  0  0
    3.9134   -3.3619   -3.4231 C   0  0  0  0  0  0  0  0  0  0  0  0
    4.8501   -2.9728   -2.4582 C   0  0  0  0  0  0  0  0  0  0  0  0
    5.8012   -3.6090   -1.7273 N   0  0  0  0  0  0  0  0  0  0  0  0
    2.6126   -0.2404   -3.8539 H   0  0  0  0  0  0  0  0  0  0  0  0
    2.2969   -2.6088   -4.6435 H   0  0  0  0  0  0  0  0  0  0  0  0
    3.8382   -4.3887   -3.7538 H   0  0  0  0  0  0  0  0  0  0  0  0
    6.0210   -4.5958   -1.7586 H   0  0  0  0  0  0  0  0  0  0  0  0
  1  2  2  0
  2  3  1  0
  2  4  1  0
  4 12  1  0
  4  5  2  0
  5  6  1  0
  6 11  2  0
  6  7  1  0
  7  8  2  0
  8  9  1  0
  8 13  1  0
  9 10  2  0
  9 14  1  0
 10 11  1  0
 10 15  1  0
 11 12  1  0
 12 16  1  0
M  CHG  1   3  -1
M  END
>  <i_m_ct_stereo_status>  (174) 
1

>  <s_m_source_file>  (174) 
/var/tmp/pbs.5076255.sched01/tmpln0nb48r/86bqtw16pk.sdf

>  <i_m_source_file_index>  (174) 
2

>  <i_lp_mmshare_version>  (174) 
48012

>  <i_f3d_flags>  (174) 
0

>  <s_epik_input>  (174) 
Tz1DKFtPSF0pYyhuMSlbbkhdYyhjMTIpW2NIXVtjSF1bY0hdbjI=

>  <s_epik_cmdline>  (174) 
J2VwaWtfcHl0aG9uJywgJy1waHQnLCAnMi4wJywgJy1waCcsICc3LjAnLCAnLXRuJywgJzgnLCAnLW1hJywgJzIwMCcsICctaW1hZScsICc8aW5maWxlLm1hZT4nLCAnLW9tYWUnLCAnPG91dGZpbGUubWFlPic=

>  <r_epik_Ionization_Penalty>  (174) 
0.00112287

>  <r_epik_Ionization_Penalty_Charging>  (174) 
3.12528e-06

>  <r_epik_Ionization_Penalty_Neutral>  (174) 
0.00111975

>  <r_epik_State_Penalty>  (174) 
0.0371202

>  <r_epik_Charging_Adjusted_Penalty>  (174) 
0.0371233

>  <i_epik_Tot_Q>  (174) 
-1

>  <i_epik_Tot_abs_Q>  (174) 
1

>  <s_lp_Force_Field>  (174) 
OPLS3e

>  <r_lp_Energy>  (174) 
20.5717

>  <b_lp_Chiralities_Consistent>  (174) 
1

>  <s_lp_Variant>  (174) 
53:0-1

>  <s_i_glide_gridfile>  (174) 
pfpi4k_grid

>  <i_i_glide_lignum>  (174) 
2

>  <i_i_glide_rotatable_bonds>  (174) 
1

>  <r_i_docking_score>  (174) 
-4.4251

>  <r_i_glide_ligand_efficiency>  (174) 
-0.368758

>  <r_i_glide_ligand_efficiency_sa>  (174) 
-0.844246

>  <r_i_glide_ligand_efficiency_ln>  (174) 
-1.26979

>  <r_i_glide_gscore>  (174) 
-4.4251

>  <r_i_glide_lipo>  (174) 
-0.55363

>  <r_i_glide_hbond>  (174) 
-0.0946984

>  <r_i_glide_metal>  (174) 
-0

>  <r_i_glide_rewards>  (174) 
-2.44895

>  <r_i_glide_evdw>  (174) 
-17.5555

>  <r_i_glide_ecoul>  (174) 
-2.69949

>  <r_i_glide_erotb>  (174) 
0

>  <r_i_glide_esite>  (174) 
-0.0451183

>  <r_i_glide_emodel>  (174) 
-28.0829

>  <r_i_glide_energy>  (174) 
-20.255

>  <r_i_glide_einternal>  (174) 
0.179625

>  <r_i_glide_intrahb_reward>  (174) 
-0

>  <i_i_glide_confnum>  (174) 
2

>  <i_i_glide_posenum>  (174) 
36

>  <r_i_glide_eff_state_penalty>  (174) 
0

>  <ligand_id>  (174) 
53

>  <original_smiles>  (174) 
O=C(O)c1nc2ncccc2[nH]1

>  <smiles>  (174) 
[H]c1nc2nc(C(=O)[O-])n([H])c2c([H])c1[H]

$$$$
53:0:2
     RDKit          3D

 16 17  0  0  1  0  0  0  0  0999 V2000
    2.8204   -5.7300    1.5213 O   0  0  0  0  0  0  0  0  0  0  0  0
    2.2070   -5.3545    0.4961 C   0  0  0  0  0  0  0  0  0  0  0  0
    1.1117   -5.8566    0.1357 O   0  0  0  0  0  0  0  0  0  0  0  0
    2.7248   -4.2016   -0.3027 C   0  0  0  0  0  0  0  0  0  0  0  0
    3.7648   -3.4011   -0.0095 N   0  0  0  0  0  0  0  0  0  0  0  0
    3.8378   -2.4998   -1.0632 C   0  0  0  0  0  0  0  0  0  0  0  0
    4.7348   -1.5178   -1.2085 N   0  0  0  0  0  0  0  0  0  0  0  0
    4.6153   -0.7618   -2.3246 C   0  0  0  0  0  0  0  0  0  0  0  0
    3.6564   -0.9659   -3.3426 C   0  0  0  0  0  0  0  0  0  0  0  0
    2.7343   -2.0188   -3.1876 C   0  0  0  0  0  0  0  0  0  0  0  0
    2.8288   -2.7818   -2.0144 C   0  0  0  0  0  0  0  0  0  0  0  0
    2.1387   -3.8281   -1.4896 N   0  0  0  0  0  0  0  0  0  0  0  0
    5.3209    0.0477   -2.3935 H   0  0  0  0  0  0  0  0  0  0  0  0
    3.6016   -0.3042   -4.1960 H   0  0  0  0  0  0  0  0  0  0  0  0
    1.9522   -2.2135   -3.9088 H   0  0  0  0  0  0  0  0  0  0  0  0
    1.3645   -4.3194   -1.9195 H   0  0  0  0  0  0  0  0  0  0  0  0
  1  2  2  0
  2  3  1  0
  2  4  1  0
  4 12  1  0
  4  5  2  0
  5  6  1  0
  6 11  2  0
  6  7  1  0
  7  8  2  0
  8  9  1  0
  8 13  1  0
  9 10  2  0
  9 14  1  0
 10 11  1  0
 10 15  1  0
 11 12  1  0
 12 16  1  0
M  CHG  1   3  -1
M  END
>  <i_m_ct_stereo_status>  (175) 
1

>  <s_m_source_file>  (175) 
/var/tmp/pbs.5076255.sched01/tmpln0nb48r/86bqtw16pk.sdf

>  <i_m_source_file_index>  (175) 
2

>  <i_lp_mmshare_version>  (175) 
48012

>  <i_f3d_flags>  (175) 
0

>  <s_epik_input>  (175) 
Tz1DKFtPSF0pYyhuMSlbbkhdYyhjMTIpW2NIXVtjSF1bY0hdbjI=

>  <s_epik_cmdline>  (175) 
J2VwaWtfcHl0aG9uJywgJy1waHQnLCAnMi4wJywgJy1waCcsICc3LjAnLCAnLXRuJywgJzgnLCAnLW1hJywgJzIwMCcsICctaW1hZScsICc8aW5maWxlLm1hZT4nLCAnLW9tYWUnLCAnPG91dGZpbGUubWFlPic=

>  <r_epik_Ionization_Penalty>  (175) 
0.00112287

>  <r_epik_Ionization_Penalty_Charging>  (175) 
3.12528e-06

>  <r_epik_Ionization_Penalty_Neutral>  (175) 
0.00111975

>  <r_epik_State_Penalty>  (175) 
0.0371202

>  <r_epik_Charging_Adjusted_Penalty>  (175) 
0.0371233

>  <i_epik_Tot_Q>  (175) 
-1

>  <i_epik_Tot_abs_Q>  (175) 
1

>  <s_lp_Force_Field>  (175) 
OPLS3e

>  <r_lp_Energy>  (175) 
20.5717

>  <b_lp_Chiralities_Consistent>  (175) 
1

>  <s_lp_Variant>  (175) 
53:0-1

>  <s_i_glide_gridfile>  (175) 
pfpi4k_grid

>  <i_i_glide_lignum>  (175) 
2

>  <i_i_glide_rotatable_bonds>  (175) 
1

>  <r_i_docking_score>  (175) 
-4.22324

>  <r_i_glide_ligand_efficiency>  (175) 
-0.351936

>  <r_i_glide_ligand_efficiency_sa>  (175) 
-0.805733

>  <r_i_glide_ligand_efficiency_ln>  (175) 
-1.21186

>  <r_i_glide_gscore>  (175) 
-4.22324

>  <r_i_glide_lipo>  (175) 
-0.1968

>  <r_i_glide_hbond>  (175) 
-0.278815

>  <r_i_glide_metal>  (175) 
-0

>  <r_i_glide_rewards>  (175) 
-2.25

>  <r_i_glide_evdw>  (175) 
-13.2709

>  <r_i_glide_ecoul>  (175) 
-4.59263

>  <r_i_glide_erotb>  (175) 
0

>  <r_i_glide_esite>  (175) 
-0.14518

>  <r_i_glide_emodel>  (175) 
-25.3397

>  <r_i_glide_energy>  (175) 
-17.8636

>  <r_i_glide_einternal>  (175) 
0.0975279

>  <r_i_glide_intrahb_reward>  (175) 
-0

>  <i_i_glide_confnum>  (175) 
2

>  <i_i_glide_posenum>  (175) 
29

>  <r_i_glide_eff_state_penalty>  (175) 
0

>  <ligand_id>  (175) 
53

>  <original_smiles>  (175) 
O=C(O)c1nc2ncccc2[nH]1

>  <smiles>  (175) 
[H]c1nc2nc(C(=O)[O-])n([H])c2c([H])c1[H]

$$$$
53:1:0
     RDKit          3D

 16 17  0  0  1  0  0  0  0  0999 V2000
    2.7327   -5.6263    1.6469 O   0  0  0  0  0  0  0  0  0  0  0  0
    2.2170   -5.2976    0.5583 C   0  0  0  0  0  0  0  0  0  0  0  0
    1.1817   -5.8550    0.1020 O   0  0  0  0  0  0  0  0  0  0  0  0
    2.7808   -4.1345   -0.1804 C   0  0  0  0  0  0  0  0  0  0  0  0
    2.2657   -3.8236   -1.3894 N   0  0  0  0  0  0  0  0  0  0  0  0
    2.9888   -2.7538   -1.8779 C   0  0  0  0  0  0  0  0  0  0  0  0
    2.8888   -2.1246   -3.0867 N   0  0  0  0  0  0  0  0  0  0  0  0
    3.7185   -1.0640   -3.2228 C   0  0  0  0  0  0  0  0  0  0  0  0
    4.6548   -0.6605   -2.2460 C   0  0  0  0  0  0  0  0  0  0  0  0
    4.7568   -1.3617   -1.0293 C   0  0  0  0  0  0  0  0  0  0  0  0
    3.8946   -2.4531   -0.8248 C   0  0  0  0  0  0  0  0  0  0  0  0
    3.7643   -3.3313    0.2335 N   0  0  0  0  0  0  0  0  0  0  0  0
    3.6390   -0.5148   -4.1519 H   0  0  0  0  0  0  0  0  0  0  0  0
    5.2924    0.1836   -2.4190 H   0  0  0  0  0  0  0  0  0  0  0  0
    5.4584   -1.0740   -0.2594 H   0  0  0  0  0  0  0  0  0  0  0  0
    1.5773   -4.3851   -1.8693 H   0  0  0  0  0  0  0  0  0  0  0  0
  1  2  2  0
  2  3  1  0
  2  4  1  0
  4 12  2  0
  4  5  1  0
  5  6  1  0
  5 16  1  0
  6 11  2  0
  6  7  1  0
  7  8  2  0
  8  9  1  0
  8 13  1  0
  9 10  2  0
  9 14  1  0
 10 11  1  0
 10 15  1  0
 11 12  1  0
M  CHG  1   3  -1
M  END
>  <i_m_ct_stereo_status>  (176) 
1

>  <s_m_source_file>  (176) 
/var/tmp/pbs.5076255.sched01/tmpln0nb48r/86bqtw16pk.sdf

>  <i_m_source_file_index>  (176) 
3

>  <i_lp_mmshare_version>  (176) 
48012

>  <i_f3d_flags>  (176) 
0

>  <s_epik_input>  (176) 
Tz1DKFtPSF0pYyhuMSlbbkhdYyhjMTIpW2NIXVtjSF1bY0hdbjI=

>  <s_epik_cmdline>  (176) 
J2VwaWtfcHl0aG9uJywgJy1waHQnLCAnMi4wJywgJy1waCcsICc3LjAnLCAnLXRuJywgJzgnLCAnLW1hJywgJzIwMCcsICctaW1hZScsICc8aW5maWxlLm1hZT4nLCAnLW9tYWUnLCAnPG91dGZpbGUubWFlPic=

>  <r_epik_Ionization_Penalty>  (176) 
0.00124248

>  <r_epik_Ionization_Penalty_Charging>  (176) 
0.000158659

>  <r_epik_Ionization_Penalty_Neutral>  (176) 
0.00108382

>  <r_epik_State_Penalty>  (176) 
1.65975

>  <r_epik_Charging_Adjusted_Penalty>  (176) 
1.65991

>  <i_epik_Tot_Q>  (176) 
-1

>  <i_epik_Tot_abs_Q>  (176) 
1

>  <s_lp_Force_Field>  (176) 
OPLS3e

>  <r_lp_Energy>  (176) 
19.2742

>  <b_lp_Chiralities_Consistent>  (176) 
1

>  <s_lp_Variant>  (176) 
53:0-2

>  <s_i_glide_gridfile>  (176) 
pfpi4k_grid

>  <i_i_glide_lignum>  (176) 
3

>  <i_i_glide_rotatable_bonds>  (176) 
1

>  <r_i_docking_score>  (176) 
-4.02612

>  <r_i_glide_ligand_efficiency>  (176) 
-0.33551

>  <r_i_glide_ligand_efficiency_sa>  (176) 
-0.768127

>  <r_i_glide_ligand_efficiency_ln>  (176) 
-1.1553

>  <r_i_glide_gscore>  (176) 
-4.02612

>  <r_i_glide_lipo>  (176) 
-0.104235

>  <r_i_glide_hbond>  (176) 
-0.276998

>  <r_i_glide_metal>  (176) 
-0

>  <r_i_glide_rewards>  (176) 
-2.25

>  <r_i_glide_evdw>  (176) 
-13.3154

>  <r_i_glide_ecoul>  (176) 
-3.93377

>  <r_i_glide_erotb>  (176) 
0

>  <r_i_glide_esite>  (176) 
-0.139056

>  <r_i_glide_emodel>  (176) 
-24.3255

>  <r_i_glide_energy>  (176) 
-17.2491

>  <r_i_glide_einternal>  (176) 
0.144979

>  <r_i_glide_intrahb_reward>  (176) 
-0

>  <i_i_glide_confnum>  (176) 
1

>  <i_i_glide_posenum>  (176) 
13

>  <r_i_glide_eff_state_penalty>  (176) 
0

>  <ligand_id>  (176) 
53

>  <original_smiles>  (176) 
O=C(O)c1nc2ncccc2[nH]1

>  <smiles>  (176) 
[H]c1nc2c(nc(C(=O)[O-])n2[H])c([H])c1[H]

$$$$
53:1:1
     RDKit          3D

 16 17  0  0  1  0  0  0  0  0999 V2000
    8.4012   -3.6094    0.0762 O   0  0  0  0  0  0  0  0  0  0  0  0
    7.7529   -2.5469   -0.0786 C   0  0  0  0  0  0  0  0  0  0  0  0
    8.0568   -1.4687    0.4792 O   0  0  0  0  0  0  0  0  0  0  0  0
    6.5850   -2.5095   -1.0132 C   0  0  0  0  0  0  0  0  0  0  0  0
    5.8110   -1.4034   -1.0696 N   0  0  0  0  0  0  0  0  0  0  0  0
    4.8315   -1.6338   -2.0211 C   0  0  0  0  0  0  0  0  0  0  0  0
    3.8278   -0.8155   -2.4558 N   0  0  0  0  0  0  0  0  0  0  0  0
    3.0227   -1.3675   -3.3947 C   0  0  0  0  0  0  0  0  0  0  0  0
    3.1935   -2.6624   -3.9299 C   0  0  0  0  0  0  0  0  0  0  0  0
    4.2741   -3.4582   -3.4941 C   0  0  0  0  0  0  0  0  0  0  0  0
    5.1238   -2.9349   -2.5004 C   0  0  0  0  0  0  0  0  0  0  0  0
    6.2385   -3.4579   -1.8835 N   0  0  0  0  0  0  0  0  0  0  0  0
    2.2153   -0.7408   -3.7390 H   0  0  0  0  0  0  0  0  0  0  0  0
    2.5076   -3.0376   -4.6747 H   0  0  0  0  0  0  0  0  0  0  0  0
    4.4403   -4.4534   -3.8736 H   0  0  0  0  0  0  0  0  0  0  0  0
    5.9226   -0.5999   -0.4662 H   0  0  0  0  0  0  0  0  0  0  0  0
  1  2  2  0
  2  3  1  0
  2  4  1  0
  4 12  2  0
  4  5  1  0
  5  6  1  0
  5 16  1  0
  6 11  2  0
  6  7  1  0
  7  8  2  0
  8  9  1  0
  8 13  1  0
  9 10  2  0
  9 14  1  0
 10 11  1  0
 10 15  1  0
 11 12  1  0
M  CHG  1   3  -1
M  END
>  <i_m_ct_stereo_status>  (177) 
1

>  <s_m_source_file>  (177) 
/var/tmp/pbs.5076255.sched01/tmpln0nb48r/86bqtw16pk.sdf

>  <i_m_source_file_index>  (177) 
3

>  <i_lp_mmshare_version>  (177) 
48012

>  <i_f3d_flags>  (177) 
0

>  <s_epik_input>  (177) 
Tz1DKFtPSF0pYyhuMSlbbkhdYyhjMTIpW2NIXVtjSF1bY0hdbjI=

>  <s_epik_cmdline>  (177) 
J2VwaWtfcHl0aG9uJywgJy1waHQnLCAnMi4wJywgJy1waCcsICc3LjAnLCAnLXRuJywgJzgnLCAnLW1hJywgJzIwMCcsICctaW1hZScsICc8aW5maWxlLm1hZT4nLCAnLW9tYWUnLCAnPG91dGZpbGUubWFlPic=

>  <r_epik_Ionization_Penalty>  (177) 
0.00124248

>  <r_epik_Ionization_Penalty_Charging>  (177) 
0.000158659

>  <r_epik_Ionization_Penalty_Neutral>  (177) 
0.00108382

>  <r_epik_State_Penalty>  (177) 
1.65975

>  <r_epik_Charging_Adjusted_Penalty>  (177) 
1.65991

>  <i_epik_Tot_Q>  (177) 
-1

>  <i_epik_Tot_abs_Q>  (177) 
1

>  <s_lp_Force_Field>  (177) 
OPLS3e

>  <r_lp_Energy>  (177) 
19.2742

>  <b_lp_Chiralities_Consistent>  (177) 
1

>  <s_lp_Variant>  (177) 
53:0-2

>  <s_i_glide_gridfile>  (177) 
pfpi4k_grid

>  <i_i_glide_lignum>  (177) 
3

>  <i_i_glide_rotatable_bonds>  (177) 
1

>  <r_i_docking_score>  (177) 
-3.96901

>  <r_i_glide_ligand_efficiency>  (177) 
-0.330751

>  <r_i_glide_ligand_efficiency_sa>  (177) 
-0.757231

>  <r_i_glide_ligand_efficiency_ln>  (177) 
-1.13892

>  <r_i_glide_gscore>  (177) 
-3.96901

>  <r_i_glide_lipo>  (177) 
-0.533808

>  <r_i_glide_hbond>  (177) 
-0.0249663

>  <r_i_glide_metal>  (177) 
-0

>  <r_i_glide_rewards>  (177) 
-2.32917

>  <r_i_glide_evdw>  (177) 
-18.5536

>  <r_i_glide_ecoul>  (177) 
-0.0977425

>  <r_i_glide_erotb>  (177) 
0

>  <r_i_glide_esite>  (177) 
-0.138725

>  <r_i_glide_emodel>  (177) 
-25.5283

>  <r_i_glide_energy>  (177) 
-18.6514

>  <r_i_glide_einternal>  (177) 
0.251085

>  <r_i_glide_intrahb_reward>  (177) 
-0

>  <i_i_glide_confnum>  (177) 
2

>  <i_i_glide_posenum>  (177) 
4

>  <r_i_glide_eff_state_penalty>  (177) 
0

>  <ligand_id>  (177) 
53

>  <original_smiles>  (177) 
O=C(O)c1nc2ncccc2[nH]1

>  <smiles>  (177) 
[H]c1nc2c(nc(C(=O)[O-])n2[H])c([H])c1[H]

$$$$
53:1:2
     RDKit          3D

 16 17  0  0  1  0  0  0  0  0999 V2000
    0.8945   -5.8723    1.2447 O   0  0  0  0  0  0  0  0  0  0  0  0
    2.1405   -5.9803    1.1369 C   0  0  0  0  0  0  0  0  0  0  0  0
    2.8093   -6.8817    1.6898 O   0  0  0  0  0  0  0  0  0  0  0  0
    2.8574   -4.9789    0.2989 C   0  0  0  0  0  0  0  0  0  0  0  0
    4.1882   -5.0973    0.1279 N   0  0  0  0  0  0  0  0  0  0  0  0
    4.5852   -4.0546   -0.6856 C   0  0  0  0  0  0  0  0  0  0  0  0
    5.8339   -3.7450   -1.1360 N   0  0  0  0  0  0  0  0  0  0  0  0
    5.8818   -2.6513   -1.9296 C   0  0  0  0  0  0  0  0  0  0  0  0
    4.7667   -1.8462   -2.2620 C   0  0  0  0  0  0  0  0  0  0  0  0
    3.4957   -2.1979   -1.7621 C   0  0  0  0  0  0  0  0  0  0  0  0
    3.3830   -3.3450   -0.9511 C   0  0  0  0  0  0  0  0  0  0  0  0
    2.3003   -3.9353   -0.3245 N   0  0  0  0  0  0  0  0  0  0  0  0
    6.8624   -2.4019   -2.3111 H   0  0  0  0  0  0  0  0  0  0  0  0
    4.8735   -0.9719   -2.8850 H   0  0  0  0  0  0  0  0  0  0  0  0
    2.6164   -1.6058   -1.9758 H   0  0  0  0  0  0  0  0  0  0  0  0
    4.7194   -5.8524    0.5316 H   0  0  0  0  0  0  0  0  0  0  0  0
  1  2  2  0
  2  3  1  0
  2  4  1  0
  4 12  2  0
  4  5  1  0
  5  6  1  0
  5 16  1  0
  6 11  2  0
  6  7  1  0
  7  8  2  0
  8  9  1  0
  8 13  1  0
  9 10  2  0
  9 14  1  0
 10 11  1  0
 10 15  1  0
 11 12  1  0
M  CHG  1   3  -1
M  END
>  <i_m_ct_stereo_status>  (178) 
1

>  <s_m_source_file>  (178) 
/var/tmp/pbs.5076255.sched01/tmpln0nb48r/86bqtw16pk.sdf

>  <i_m_source_file_index>  (178) 
3

>  <i_lp_mmshare_version>  (178) 
48012

>  <i_f3d_flags>  (178) 
0

>  <s_epik_input>  (178) 
Tz1DKFtPSF0pYyhuMSlbbkhdYyhjMTIpW2NIXVtjSF1bY0hdbjI=

>  <s_epik_cmdline>  (178) 
J2VwaWtfcHl0aG9uJywgJy1waHQnLCAnMi4wJywgJy1waCcsICc3LjAnLCAnLXRuJywgJzgnLCAnLW1hJywgJzIwMCcsICctaW1hZScsICc8aW5maWxlLm1hZT4nLCAnLW9tYWUnLCAnPG91dGZpbGUubWFlPic=

>  <r_epik_Ionization_Penalty>  (178) 
0.00124248

>  <r_epik_Ionization_Penalty_Charging>  (178) 
0.000158659

>  <r_epik_Ionization_Penalty_Neutral>  (178) 
0.00108382

>  <r_epik_State_Penalty>  (178) 
1.65975

>  <r_epik_Charging_Adjusted_Penalty>  (178) 
1.65991

>  <i_epik_Tot_Q>  (178) 
-1

>  <i_epik_Tot_abs_Q>  (178) 
1

>  <s_lp_Force_Field>  (178) 
OPLS3e

>  <r_lp_Energy>  (178) 
19.2742

>  <b_lp_Chiralities_Consistent>  (178) 
1

>  <s_lp_Variant>  (178) 
53:0-2

>  <s_i_glide_gridfile>  (178) 
pfpi4k_grid

>  <i_i_glide_lignum>  (178) 
3

>  <i_i_glide_rotatable_bonds>  (178) 
1

>  <r_i_docking_score>  (178) 
-3.69559

>  <r_i_glide_ligand_efficiency>  (178) 
-0.307966

>  <r_i_glide_ligand_efficiency_sa>  (178) 
-0.705065

>  <r_i_glide_ligand_efficiency_ln>  (178) 
-1.06046

>  <r_i_glide_gscore>  (178) 
-3.69559

>  <r_i_glide_lipo>  (178) 
-0.0716426

>  <r_i_glide_hbond>  (178) 
-0.2

>  <r_i_glide_metal>  (178) 
-0

>  <r_i_glide_rewards>  (178) 
-2.25

>  <r_i_glide_evdw>  (178) 
-13.0983

>  <r_i_glide_ecoul>  (178) 
-2.95925

>  <r_i_glide_erotb>  (178) 
0

>  <r_i_glide_esite>  (178) 
-0.0751428

>  <r_i_glide_emodel>  (178) 
-22.6722

>  <r_i_glide_energy>  (178) 
-16.0576

>  <r_i_glide_einternal>  (178) 
0.0290294

>  <r_i_glide_intrahb_reward>  (178) 
-0

>  <i_i_glide_confnum>  (178) 
1

>  <i_i_glide_posenum>  (178) 
10

>  <r_i_glide_eff_state_penalty>  (178) 
0

>  <ligand_id>  (178) 
53

>  <original_smiles>  (178) 
O=C(O)c1nc2ncccc2[nH]1

>  <smiles>  (178) 
[H]c1nc2c(nc(C(=O)[O-])n2[H])c([H])c1[H]

$$$$
54:0:0
     RDKit          3D

 47 51  0  0  1  0  0  0  0  0999 V2000
   -0.9051   -8.0207    3.4584 C   0  0  0  0  0  0  0  0  0  0  0  0
    0.0572   -7.3076    2.6914 O   0  0  0  0  0  0  0  0  0  0  0  0
    1.2719   -7.9158    2.4238 C   0  0  0  0  0  0  0  0  0  0  0  0
    1.6372   -9.1861    2.9369 C   0  0  0  0  0  0  0  0  0  0  0  0
    2.8907   -9.7453    2.6262 C   0  0  0  0  0  0  0  0  0  0  0  0
    3.8105   -9.0371    1.8320 C   0  0  0  0  0  0  0  0  0  0  0  0
    3.4817   -7.7583    1.3288 C   0  0  0  0  0  0  0  0  0  0  0  0
    2.2003   -7.2193    1.6092 C   0  0  0  0  0  0  0  0  0  0  0  0
    1.8383   -5.9368    0.9748 C   0  0  0  0  0  0  0  0  0  0  0  0
    0.9711   -5.8523    0.1047 O   0  0  0  0  0  0  0  0  0  0  0  0
    2.6010   -4.6965    1.4664 C   0  0  2  0  0  0  0  0  0  0  0  0
    3.1067   -3.8341    0.4246 N   0  0  0  0  0  0  0  0  0  0  0  0
    4.1885   -4.4819   -0.1979 C   0  0  0  0  0  0  0  0  0  0  0  0
    4.9585   -3.8056   -1.0622 C   0  0  0  0  0  0  0  0  0  0  0  0
    4.6500   -2.3331   -1.2449 C   0  0  1  0  0  0  0  0  0  0  0  0
    3.5726   -2.0942   -2.1461 O   0  0  0  0  0  0  0  0  0  0  0  0
    3.8238   -2.4289   -3.5021 C   0  0  0  0  0  0  0  0  0  0  0  0
    4.2724   -1.7543    0.1506 C   0  0  0  0  0  0  0  0  0  0  0  0
    3.5580   -2.6704    1.1045 N   0  0  0  0  0  0  0  0  0  0  0  0
    4.3380   -3.3566    2.1925 C   0  0  0  0  0  0  0  0  0  0  0  0
    3.9918   -4.8868    2.0489 C   0  0  1  0  0  0  0  0  0  0  0  0
    4.0277   -5.5836    3.2880 O   0  0  0  0  0  0  0  0  0  0  0  0
    5.3219   -5.7683    3.8306 C   0  0  0  0  0  0  0  0  0  0  0  0
    4.7379   -5.4870    0.8157 C   0  0  1  0  0  0  0  0  0  0  0  0
    4.4894   -6.9911    0.4573 C   0  0  0  0  0  0  0  0  0  0  0  0
   -1.7939   -7.4009    3.5841 H   0  0  0  0  0  0  0  0  0  0  0  0
   -0.5391   -8.2635    4.4578 H   0  0  0  0  0  0  0  0  0  0  0  0
   -1.2132   -8.9387    2.9563 H   0  0  0  0  0  0  0  0  0  0  0  0
    0.9692   -9.7606    3.5608 H   0  0  0  0  0  0  0  0  0  0  0  0
    3.1450  -10.7305    2.9956 H   0  0  0  0  0  0  0  0  0  0  0  0
    4.7566   -9.5013    1.5877 H   0  0  0  0  0  0  0  0  0  0  0  0
    1.9582   -4.1376    2.1451 H   0  0  0  0  0  0  0  0  0  0  0  0
    5.9428   -4.1530   -1.3352 H   0  0  0  0  0  0  0  0  0  0  0  0
    5.5333   -1.8120   -1.6195 H   0  0  0  0  0  0  0  0  0  0  0  0
    2.9562   -2.1637   -4.1101 H   0  0  0  0  0  0  0  0  0  0  0  0
    3.9950   -3.4992   -3.6194 H   0  0  0  0  0  0  0  0  0  0  0  0
    4.6834   -1.8847   -3.8978 H   0  0  0  0  0  0  0  0  0  0  0  0
    5.1736   -1.3894    0.6467 H   0  0  0  0  0  0  0  0  0  0  0  0
    3.6474   -0.8711    0.0070 H   0  0  0  0  0  0  0  0  0  0  0  0
    5.4084   -3.1700    2.0915 H   0  0  0  0  0  0  0  0  0  0  0  0
    4.0176   -2.9642    3.1586 H   0  0  0  0  0  0  0  0  0  0  0  0
    5.2275   -6.2897    4.7825 H   0  0  0  0  0  0  0  0  0  0  0  0
    5.8234   -4.8169    4.0145 H   0  0  0  0  0  0  0  0  0  0  0  0
    5.9409   -6.3778    3.1708 H   0  0  0  0  0  0  0  0  0  0  0  0
    5.8132   -5.3217    0.9103 H   0  0  0  0  0  0  0  0  0  0  0  0
    5.4410   -7.5116    0.5473 H   0  0  0  0  0  0  0  0  0  0  0  0
    4.2134   -7.0948   -0.5931 H   0  0  0  0  0  0  0  0  0  0  0  0
  1  2  1  0
  1 26  1  0
  1 27  1  0
  1 28  1  0
  2  3  1  0
  3  8  2  0
  3  4  1  0
  4  5  2  0
  4 29  1  0
  5  6  1  0
  5 30  1  0
  6  7  2  0
  6 31  1  0
  7 25  1  0
  7  8  1  0
  8  9  1  0
  9 10  2  0
  9 11  1  0
 11 21  1  0
 11 12  1  0
 11 32  1  1
 12 19  1  0
 12 13  1  0
 13 24  1  0
 13 14  2  0
 14 15  1  0
 14 33  1  0
 15 16  1  0
 15 18  1  0
 15 34  1  6
 16 17  1  0
 17 35  1  0
 17 36  1  0
 17 37  1  0
 18 19  1  0
 18 38  1  0
 18 39  1  0
 19 20  1  0
 20 21  1  0
 20 40  1  0
 20 41  1  0
 21 22  1  1
 21 24  1  0
 22 23  1  0
 23 42  1  0
 23 43  1  0
 23 44  1  0
 24 25  1  0
 24 45  1  1
 25 46  1  0
 25 47  1  0
M  END
>  <i_m_ct_stereo_status>  (179) 
1

>  <s_m_source_file>  (179) 
/var/tmp/pbs.5076255.sched01/tmpln0nb48r/86bqtw16pk.sdf

>  <i_m_source_file_index>  (179) 
4

>  <i_lp_mmshare_version>  (179) 
48012

>  <i_f3d_flags>  (179) 
0

>  <s_epik_input>  (179) 
W2NIXTFbY0hdW2NIXWMoT1tDSDNdKWMoQzI9TyljMVtDSDJdW0NASF0zQyhONFtDQEBIXTJbQ0BAXTM1T1tDSDNdKT1bQ0hdW0NAQEhdKE9bQ0gzXSlbQ0gyXU40W0NIMl01

>  <s_epik_cmdline>  (179) 
J2VwaWtfcHl0aG9uJywgJy1waHQnLCAnMi4wJywgJy1waCcsICc3LjAnLCAnLXRuJywgJzgnLCAnLW1hJywgJzIwMCcsICctaW1hZScsICc8aW5maWxlLm1hZT4nLCAnLW9tYWUnLCAnPG91dGZpbGUubWFlPic=

>  <r_lp_tautomer_probability>  (179) 
1

>  <r_epik_Ionization_Penalty>  (179) 
1.22345e-06

>  <r_epik_Ionization_Penalty_Charging>  (179) 
0

>  <r_epik_Ionization_Penalty_Neutral>  (179) 
1.22345e-06

>  <r_epik_State_Penalty>  (179) 
-0

>  <r_epik_Charging_Adjusted_Penalty>  (179) 
0

>  <i_epik_Tot_Q>  (179) 
0

>  <i_epik_Tot_abs_Q>  (179) 
0

>  <s_lp_Force_Field>  (179) 
OPLS3e

>  <r_lp_Energy>  (179) 
93.2491

>  <b_lp_Chiralities_Consistent>  (179) 
1

>  <s_lp_Variant>  (179) 
54:0-1

>  <s_i_glide_gridfile>  (179) 
pfpi4k_grid

>  <i_i_glide_lignum>  (179) 
4

>  <i_i_glide_rotatable_bonds>  (179) 
3

>  <r_i_docking_score>  (179) 
-3.58587

>  <r_i_glide_ligand_efficiency>  (179) 
-0.143435

>  <r_i_glide_ligand_efficiency_sa>  (179) 
-0.419406

>  <r_i_glide_ligand_efficiency_ln>  (179) 
-0.849958

>  <r_i_glide_gscore>  (179) 
-3.58587

>  <r_i_glide_lipo>  (179) 
-0.466

>  <r_i_glide_hbond>  (179) 
-0.365072

>  <r_i_glide_metal>  (179) 
-0

>  <r_i_glide_rewards>  (179) 
-1.07462

>  <r_i_glide_evdw>  (179) 
-25.1968

>  <r_i_glide_ecoul>  (179) 
-2.32416

>  <r_i_glide_erotb>  (179) 
0

>  <r_i_glide_esite>  (179) 
-0.0717086

>  <r_i_glide_emodel>  (179) 
-34.271

>  <r_i_glide_energy>  (179) 
-27.521

>  <r_i_glide_einternal>  (179) 
0.0549663

>  <r_i_glide_intrahb_reward>  (179) 
-0

>  <i_i_glide_confnum>  (179) 
2

>  <i_i_glide_posenum>  (179) 
36

>  <r_i_glide_eff_state_penalty>  (179) 
0

>  <ligand_id>  (179) 
54

>  <original_smiles>  (179) 
COc1cccc2c1C(=O)C1N3C4=CC(OC)CN3CC1(OC)C4C2

>  <smiles>  (179) 
[H]C1=C2N3N(C([H])([H])C1([H])OC([H])([H])[H])C([H])([H])C1(OC([H])([H])[H])C3([H])C(=O)c3c(OC([H])([H])[H])c([H])c([H])c([H])c3C([H])([H])C21[H]

$$$$
54:0:1
     RDKit          3D

 47 51  0  0  1  0  0  0  0  0999 V2000
   -1.8546   -8.1859    3.6317 C   0  0  0  0  0  0  0  0  0  0  0  0
   -0.7179   -7.6537    2.9645 O   0  0  0  0  0  0  0  0  0  0  0  0
    0.3858   -8.4694    2.8073 C   0  0  0  0  0  0  0  0  0  0  0  0
    0.4442   -9.8002    3.2940 C   0  0  0  0  0  0  0  0  0  0  0  0
    1.6111  -10.5742    3.1209 C   0  0  0  0  0  0  0  0  0  0  0  0
    2.7462  -10.0168    2.4919 C   0  0  0  0  0  0  0  0  0  0  0  0
    2.7170   -8.6784    2.0199 C   0  0  0  0  0  0  0  0  0  0  0  0
    1.5204   -7.9182    2.1515 C   0  0  0  0  0  0  0  0  0  0  0  0
    1.4831   -6.5672    1.5643 C   0  0  0  0  0  0  0  0  0  0  0  0
    0.7098   -6.2393    0.6642 O   0  0  0  0  0  0  0  0  0  0  0  0
    2.3954   -5.5289    2.2455 C   0  0  2  0  0  0  0  0  0  0  0  0
    3.1948   -4.7375    1.3513 N   0  0  0  0  0  0  0  0  0  0  0  0
    4.2053   -5.5346    0.8227 C   0  0  0  0  0  0  0  0  0  0  0  0
    5.2111   -5.0012    0.1174 C   0  0  0  0  0  0  0  0  0  0  0  0
    5.2015   -3.4885   -0.0074 C   0  0  1  0  0  0  0  0  0  0  0  0
    4.3238   -3.0071   -1.0175 O   0  0  0  0  0  0  0  0  0  0  0  0
    4.7119   -3.3032   -2.3506 C   0  0  0  0  0  0  0  0  0  0  0  0
    4.7523   -2.9054    1.3557 C   0  0  0  0  0  0  0  0  0  0  0  0
    3.7474   -3.6980    2.1468 N   0  0  0  0  0  0  0  0  0  0  0  0
    4.2285   -4.5748    3.2806 C   0  0  0  0  0  0  0  0  0  0  0  0
    3.6346   -6.0046    2.9979 C   0  0  1  0  0  0  0  0  0  0  0  0
    3.3757   -6.7437    4.1809 O   0  0  0  0  0  0  0  0  0  0  0  0
    4.5296   -7.1717    4.8823 C   0  0  0  0  0  0  0  0  0  0  0  0
    4.4290   -6.6759    1.8308 C   0  0  1  0  0  0  0  0  0  0  0  0
    3.9617   -8.0914    1.3461 C   0  0  0  0  0  0  0  0  0  0  0  0
   -2.6288   -7.4199    3.6776 H   0  0  0  0  0  0  0  0  0  0  0  0
   -1.6342   -8.4795    4.6589 H   0  0  0  0  0  0  0  0  0  0  0  0
   -2.2692   -9.0382    3.0934 H   0  0  0  0  0  0  0  0  0  0  0  0
   -0.3959  -10.2605    3.7838 H   0  0  0  0  0  0  0  0  0  0  0  0
    1.6241  -11.6023    3.4491 H   0  0  0  0  0  0  0  0  0  0  0  0
    3.6128  -10.6386    2.3392 H   0  0  0  0  0  0  0  0  0  0  0  0
    1.7851   -4.8893    2.8823 H   0  0  0  0  0  0  0  0  0  0  0  0
    6.1375   -5.5131   -0.0587 H   0  0  0  0  0  0  0  0  0  0  0  0
    6.2122   -3.1307   -0.2287 H   0  0  0  0  0  0  0  0  0  0  0  0
    3.9990   -2.8557   -3.0482 H   0  0  0  0  0  0  0  0  0  0  0  0
    4.7178   -4.3777   -2.5317 H   0  0  0  0  0  0  0  0  0  0  0  0
    5.6989   -2.8999   -2.5857 H   0  0  0  0  0  0  0  0  0  0  0  0
    5.6251   -2.7400    1.9915 H   0  0  0  0  0  0  0  0  0  0  0  0
    4.3276   -1.9091    1.1921 H   0  0  0  0  0  0  0  0  0  0  0  0
    5.3213   -4.5781    3.3306 H   0  0  0  0  0  0  0  0  0  0  0  0
    3.8659   -4.1581    4.2291 H   0  0  0  0  0  0  0  0  0  0  0  0
    4.2147   -7.7050    5.7802 H   0  0  0  0  0  0  0  0  0  0  0  0
    5.1531   -6.3317    5.1917 H   0  0  0  0  0  0  0  0  0  0  0  0
    5.1245   -7.8526    4.2743 H   0  0  0  0  0  0  0  0  0  0  0  0
    5.4900   -6.7141    2.0716 H   0  0  0  0  0  0  0  0  0  0  0  0
    4.7868   -8.7833    1.5178 H   0  0  0  0  0  0  0  0  0  0  0  0
    3.8150   -8.0985    0.2706 H   0  0  0  0  0  0  0  0  0  0  0  0
  1  2  1  0
  1 26  1  0
  1 27  1  0
  1 28  1  0
  2  3  1  0
  3  8  2  0
  3  4  1  0
  4  5  2  0
  4 29  1  0
  5  6  1  0
  5 30  1  0
  6  7  2  0
  6 31  1  0
  7 25  1  0
  7  8  1  0
  8  9  1  0
  9 10  2  0
  9 11  1  0
 11 21  1  0
 11 12  1  0
 11 32  1  1
 12 19  1  0
 12 13  1  0
 13 24  1  0
 13 14  2  0
 14 15  1  0
 14 33  1  0
 15 16  1  0
 15 18  1  0
 15 34  1  6
 16 17  1  0
 17 35  1  0
 17 36  1  0
 17 37  1  0
 18 19  1  0
 18 38  1  0
 18 39  1  0
 19 20  1  0
 20 21  1  0
 20 40  1  0
 20 41  1  0
 21 22  1  1
 21 24  1  0
 22 23  1  0
 23 42  1  0
 23 43  1  0
 23 44  1  0
 24 25  1  0
 24 45  1  1
 25 46  1  0
 25 47  1  0
M  END
>  <i_m_ct_stereo_status>  (180) 
1

>  <s_m_source_file>  (180) 
/var/tmp/pbs.5076255.sched01/tmpln0nb48r/86bqtw16pk.sdf

>  <i_m_source_file_index>  (180) 
4

>  <i_lp_mmshare_version>  (180) 
48012

>  <i_f3d_flags>  (180) 
0

>  <s_epik_input>  (180) 
W2NIXTFbY0hdW2NIXWMoT1tDSDNdKWMoQzI9TyljMVtDSDJdW0NASF0zQyhONFtDQEBIXTJbQ0BAXTM1T1tDSDNdKT1bQ0hdW0NAQEhdKE9bQ0gzXSlbQ0gyXU40W0NIMl01

>  <s_epik_cmdline>  (180) 
J2VwaWtfcHl0aG9uJywgJy1waHQnLCAnMi4wJywgJy1waCcsICc3LjAnLCAnLXRuJywgJzgnLCAnLW1hJywgJzIwMCcsICctaW1hZScsICc8aW5maWxlLm1hZT4nLCAnLW9tYWUnLCAnPG91dGZpbGUubWFlPic=

>  <r_lp_tautomer_probability>  (180) 
1

>  <r_epik_Ionization_Penalty>  (180) 
1.22345e-06

>  <r_epik_Ionization_Penalty_Charging>  (180) 
0

>  <r_epik_Ionization_Penalty_Neutral>  (180) 
1.22345e-06

>  <r_epik_State_Penalty>  (180) 
-0

>  <r_epik_Charging_Adjusted_Penalty>  (180) 
0

>  <i_epik_Tot_Q>  (180) 
0

>  <i_epik_Tot_abs_Q>  (180) 
0

>  <s_lp_Force_Field>  (180) 
OPLS3e

>  <r_lp_Energy>  (180) 
93.2491

>  <b_lp_Chiralities_Consistent>  (180) 
1

>  <s_lp_Variant>  (180) 
54:0-1

>  <s_i_glide_gridfile>  (180) 
pfpi4k_grid

>  <i_i_glide_lignum>  (180) 
4

>  <i_i_glide_rotatable_bonds>  (180) 
3

>  <r_i_docking_score>  (180) 
-3.42169

>  <r_i_glide_ligand_efficiency>  (180) 
-0.136867

>  <r_i_glide_ligand_efficiency_sa>  (180) 
-0.400203

>  <r_i_glide_ligand_efficiency_ln>  (180) 
-0.811042

>  <r_i_glide_gscore>  (180) 
-3.42169

>  <r_i_glide_lipo>  (180) 
-0.400776

>  <r_i_glide_hbond>  (180) 
-0.16

>  <r_i_glide_metal>  (180) 
-0

>  <r_i_glide_rewards>  (180) 
-1.07653

>  <r_i_glide_evdw>  (180) 
-25.7114

>  <r_i_glide_ecoul>  (180) 
-2.98182

>  <r_i_glide_erotb>  (180) 
0

>  <r_i_glide_esite>  (180) 
-0.0515334

>  <r_i_glide_emodel>  (180) 
-35.0969

>  <r_i_glide_energy>  (180) 
-28.6932

>  <r_i_glide_einternal>  (180) 
0.00587909

>  <r_i_glide_intrahb_reward>  (180) 
-0

>  <i_i_glide_confnum>  (180) 
1

>  <i_i_glide_posenum>  (180) 
8

>  <r_i_glide_eff_state_penalty>  (180) 
0

>  <ligand_id>  (180) 
54

>  <original_smiles>  (180) 
COc1cccc2c1C(=O)C1N3C4=CC(OC)CN3CC1(OC)C4C2

>  <smiles>  (180) 
[H]C1=C2N3N(C([H])([H])C1([H])OC([H])([H])[H])C([H])([H])C1(OC([H])([H])[H])C3([H])C(=O)c3c(OC([H])([H])[H])c([H])c([H])c([H])c3C([H])([H])C21[H]

$$$$
54:0:2
     RDKit          3D

 47 51  0  0  1  0  0  0  0  0999 V2000
    3.9977   -2.5958   -2.7427 C   0  0  0  0  0  0  0  0  0  0  0  0
    3.8222   -3.4714   -1.6417 O   0  0  0  0  0  0  0  0  0  0  0  0
    4.3562   -3.1309   -0.4159 C   0  0  0  0  0  0  0  0  0  0  0  0
    5.1347   -1.9664   -0.2082 C   0  0  0  0  0  0  0  0  0  0  0  0
    5.6558   -1.6776    1.0655 C   0  0  0  0  0  0  0  0  0  0  0  0
    5.4316   -2.5637    2.1351 C   0  0  0  0  0  0  0  0  0  0  0  0
    4.6835   -3.7460    1.9477 C   0  0  0  0  0  0  0  0  0  0  0  0
    4.1217   -4.0104    0.6727 C   0  0  0  0  0  0  0  0  0  0  0  0
    3.2607   -5.2077    0.5167 C   0  0  0  0  0  0  0  0  0  0  0  0
    2.0502   -5.1307    0.2984 O   0  0  0  0  0  0  0  0  0  0  0  0
    3.9691   -6.5668    0.6464 C   0  0  2  0  0  0  0  0  0  0  0  0
    3.3053   -7.5200    1.5087 N   0  0  0  0  0  0  0  0  0  0  0  0
    3.4808   -7.1093    2.8435 C   0  0  0  0  0  0  0  0  0  0  0  0
    3.1299   -7.9354    3.8414 C   0  0  0  0  0  0  0  0  0  0  0  0
    2.6479   -9.3185    3.4568 C   0  0  1  0  0  0  0  0  0  0  0  0
    1.2640   -9.3100    3.1225 O   0  0  0  0  0  0  0  0  0  0  0  0
    0.6279  -10.5844    3.1849 C   0  0  0  0  0  0  0  0  0  0  0  0
    3.5160   -9.8002    2.2535 C   0  0  0  0  0  0  0  0  0  0  0  0
    3.9873   -8.7519    1.2843 N   0  0  0  0  0  0  0  0  0  0  0  0
    5.3904   -8.2361    1.3956 C   0  0  0  0  0  0  0  0  0  0  0  0
    5.2519   -6.6619    1.4586 C   0  0  1  0  0  0  0  0  0  0  0  0
    6.3675   -5.9707    0.8964 O   0  0  0  0  0  0  0  0  0  0  0  0
    7.5903   -6.1388    1.5944 C   0  0  0  0  0  0  0  0  0  0  0  0
    4.7327   -6.2301    2.8673 C   0  0  1  0  0  0  0  0  0  0  0  0
    4.4628   -4.7085    3.1255 C   0  0  0  0  0  0  0  0  0  0  0  0
    3.5220   -3.0328   -3.6214 H   0  0  0  0  0  0  0  0  0  0  0  0
    5.0504   -2.4457   -2.9858 H   0  0  0  0  0  0  0  0  0  0  0  0
    3.5223   -1.6333   -2.5536 H   0  0  0  0  0  0  0  0  0  0  0  0
    5.3223   -1.2667   -1.0079 H   0  0  0  0  0  0  0  0  0  0  0  0
    6.2133   -0.7632    1.2220 H   0  0  0  0  0  0  0  0  0  0  0  0
    5.8146   -2.3097    3.1142 H   0  0  0  0  0  0  0  0  0  0  0  0
    4.1188   -6.9769   -0.3497 H   0  0  0  0  0  0  0  0  0  0  0  0
    3.4920   -7.7999    4.8501 H   0  0  0  0  0  0  0  0  0  0  0  0
    2.7957   -9.9757    4.3142 H   0  0  0  0  0  0  0  0  0  0  0  0
   -0.4005  -10.5075    2.8270 H   0  0  0  0  0  0  0  0  0  0  0  0
    0.5943  -10.9554    4.2095 H   0  0  0  0  0  0  0  0  0  0  0  0
    1.1194  -11.3403    2.5736 H   0  0  0  0  0  0  0  0  0  0  0  0
    4.3946  -10.3258    2.6318 H   0  0  0  0  0  0  0  0  0  0  0  0
    2.9667  -10.5515    1.6838 H   0  0  0  0  0  0  0  0  0  0  0  0
    5.8812   -8.6324    2.2850 H   0  0  0  0  0  0  0  0  0  0  0  0
    5.9546   -8.5737    0.5247 H   0  0  0  0  0  0  0  0  0  0  0  0
    8.3750   -5.5999    1.0632 H   0  0  0  0  0  0  0  0  0  0  0  0
    7.8888   -7.1863    1.6518 H   0  0  0  0  0  0  0  0  0  0  0  0
    7.5175   -5.7323    2.6026 H   0  0  0  0  0  0  0  0  0  0  0  0
    5.3954   -6.6134    3.6448 H   0  0  0  0  0  0  0  0  0  0  0  0
    5.1305   -4.3967    3.9296 H   0  0  0  0  0  0  0  0  0  0  0  0
    3.4569   -4.5504    3.5165 H   0  0  0  0  0  0  0  0  0  0  0  0
  1  2  1  0
  1 26  1  0
  1 27  1  0
  1 28  1  0
  2  3  1  0
  3  8  2  0
  3  4  1  0
  4  5  2  0
  4 29  1  0
  5  6  1  0
  5 30  1  0
  6  7  2  0
  6 31  1  0
  7 25  1  0
  7  8  1  0
  8  9  1  0
  9 10  2  0
  9 11  1  0
 11 21  1  0
 11 12  1  0
 11 32  1  6
 12 19  1  0
 12 13  1  0
 13 24  1  0
 13 14  2  0
 14 15  1  0
 14 33  1  0
 15 16  1  0
 15 18  1  0
 15 34  1  1
 16 17  1  0
 17 35  1  0
 17 36  1  0
 17 37  1  0
 18 19  1  0
 18 38  1  0
 18 39  1  0
 19 20  1  0
 20 21  1  0
 20 40  1  0
 20 41  1  0
 21 22  1  6
 21 24  1  0
 22 23  1  0
 23 42  1  0
 23 43  1  0
 23 44  1  0
 24 25  1  0
 24 45  1  1
 25 46  1  0
 25 47  1  0
M  END
>  <i_m_ct_stereo_status>  (181) 
1

>  <s_m_source_file>  (181) 
/var/tmp/pbs.5076255.sched01/tmpln0nb48r/86bqtw16pk.sdf

>  <i_m_source_file_index>  (181) 
4

>  <i_lp_mmshare_version>  (181) 
48012

>  <i_f3d_flags>  (181) 
0

>  <s_epik_input>  (181) 
W2NIXTFbY0hdW2NIXWMoT1tDSDNdKWMoQzI9TyljMVtDSDJdW0NASF0zQyhONFtDQEBIXTJbQ0BAXTM1T1tDSDNdKT1bQ0hdW0NAQEhdKE9bQ0gzXSlbQ0gyXU40W0NIMl01

>  <s_epik_cmdline>  (181) 
J2VwaWtfcHl0aG9uJywgJy1waHQnLCAnMi4wJywgJy1waCcsICc3LjAnLCAnLXRuJywgJzgnLCAnLW1hJywgJzIwMCcsICctaW1hZScsICc8aW5maWxlLm1hZT4nLCAnLW9tYWUnLCAnPG91dGZpbGUubWFlPic=

>  <r_lp_tautomer_probability>  (181) 
1

>  <r_epik_Ionization_Penalty>  (181) 
1.22345e-06

>  <r_epik_Ionization_Penalty_Charging>  (181) 
0

>  <r_epik_Ionization_Penalty_Neutral>  (181) 
1.22345e-06

>  <r_epik_State_Penalty>  (181) 
-0

>  <r_epik_Charging_Adjusted_Penalty>  (181) 
0

>  <i_epik_Tot_Q>  (181) 
0

>  <i_epik_Tot_abs_Q>  (181) 
0

>  <s_lp_Force_Field>  (181) 
OPLS3e

>  <r_lp_Energy>  (181) 
93.2491

>  <b_lp_Chiralities_Consistent>  (181) 
1

>  <s_lp_Variant>  (181) 
54:0-1

>  <s_i_glide_gridfile>  (181) 
pfpi4k_grid

>  <i_i_glide_lignum>  (181) 
4

>  <i_i_glide_rotatable_bonds>  (181) 
3

>  <r_i_docking_score>  (181) 
-3.15994

>  <r_i_glide_ligand_efficiency>  (181) 
-0.126398

>  <r_i_glide_ligand_efficiency_sa>  (181) 
-0.369589

>  <r_i_glide_ligand_efficiency_ln>  (181) 
-0.749001

>  <r_i_glide_gscore>  (181) 
-3.15994

>  <r_i_glide_lipo>  (181) 
-0.646333

>  <r_i_glide_hbond>  (181) 
-0.0429341

>  <r_i_glide_metal>  (181) 
-0

>  <r_i_glide_rewards>  (181) 
-1.1369

>  <r_i_glide_evdw>  (181) 
-24.264

>  <r_i_glide_ecoul>  (181) 
-0.68951

>  <r_i_glide_erotb>  (181) 
0

>  <r_i_glide_esite>  (181) 
-0.0171471

>  <r_i_glide_emodel>  (181) 
-29.7395

>  <r_i_glide_energy>  (181) 
-24.9535

>  <r_i_glide_einternal>  (181) 
2.16456

>  <r_i_glide_intrahb_reward>  (181) 
-0

>  <i_i_glide_confnum>  (181) 
1

>  <i_i_glide_posenum>  (181) 
18

>  <r_i_glide_eff_state_penalty>  (181) 
0

>  <ligand_id>  (181) 
54

>  <original_smiles>  (181) 
COc1cccc2c1C(=O)C1N3C4=CC(OC)CN3CC1(OC)C4C2

>  <smiles>  (181) 
[H]C1=C2N3N(C([H])([H])C1([H])OC([H])([H])[H])C([H])([H])C1(OC([H])([H])[H])C3([H])C(=O)c3c(OC([H])([H])[H])c([H])c([H])c([H])c3C([H])([H])C21[H]

$$$$
55:0:0
     RDKit          3D

 55 60  0  0  1  0  0  0  0  0999 V2000
    3.5527   -8.5392    3.6270 C   0  0  0  0  0  0  0  0  0  0  0  0
    3.5279   -7.2500    2.7789 C   0  0  2  0  0  0  0  0  0  0  0  0
    3.9923   -7.5819    1.3330 C   0  0  0  0  0  0  0  0  0  0  0  0
    4.1106   -6.3463    0.4186 C   0  0  0  0  0  0  0  0  0  0  0  0
    4.9433   -5.2846    1.1331 C   0  0  1  0  0  0  0  0  0  0  0  0
    5.4756   -4.0592    0.3837 C   0  0  1  0  0  0  0  0  0  0  0  0
    4.5710   -3.3639   -0.6637 C   0  0  0  0  0  0  0  0  0  0  0  0
    3.4248   -2.4679   -0.1658 C   0  0  0  0  0  0  0  0  0  0  0  0
    3.7931   -1.1100    0.4797 C   0  0  2  0  0  0  0  0  0  0  0  0
    5.2428   -0.8642    0.8642 C   0  0  0  0  0  0  0  0  0  0  0  0
    6.1730   -1.7352    1.2877 C   0  0  0  0  0  0  0  0  0  0  0  0
    5.9879   -3.2184    1.5593 C   0  0  1  0  0  0  0  0  0  0  0  0
    5.1549   -3.5755    2.8285 C   0  0  1  0  0  0  0  0  0  0  0  0
    4.4585   -2.3916    3.2250 O   0  0  0  0  0  0  0  0  0  0  0  0
    3.0899   -2.4353    3.5827 C   0  0  2  0  0  0  0  0  0  0  0  0
    3.0062   -2.2312    5.1063 C   0  0  0  0  0  0  0  0  0  0  0  0
    2.4774   -3.7139    3.4350 O   0  0  0  0  0  0  0  0  0  0  0  0
    2.9944   -4.3833    2.2082 O   0  0  0  0  0  0  0  0  0  0  0  0
    4.3136   -4.8271    2.4617 C   0  0  1  0  0  0  0  0  0  0  0  0
    4.3503   -6.0779    3.4068 C   0  0  1  0  0  0  0  0  0  0  0  0
    3.9915   -5.8083    4.8786 C   0  0  0  0  0  0  0  0  0  0  0  0
    2.3116   -1.3295    2.8133 C   0  0  1  0  0  0  0  0  0  0  0  0
    2.3828   -0.0683    3.5414 O   0  0  0  0  0  0  0  0  0  0  0  0
    3.0264    0.5774    2.4164 C   0  0  0  0  0  0  0  0  0  0  0  0
    2.7592   -0.6180    1.5157 C   0  0  1  0  0  0  0  0  0  0  0  0
    4.5724   -8.8788    3.8169 H   0  0  0  0  0  0  0  0  0  0  0  0
    3.0276   -9.3516    3.1245 H   0  0  0  0  0  0  0  0  0  0  0  0
    3.0612   -8.4021    4.5903 H   0  0  0  0  0  0  0  0  0  0  0  0
    2.4884   -6.9286    2.7228 H   0  0  0  0  0  0  0  0  0  0  0  0
    4.9611   -8.0847    1.3777 H   0  0  0  0  0  0  0  0  0  0  0  0
    3.3055   -8.3016    0.8832 H   0  0  0  0  0  0  0  0  0  0  0  0
    4.5880   -6.6343   -0.5192 H   0  0  0  0  0  0  0  0  0  0  0  0
    3.1210   -5.9641    0.1676 H   0  0  0  0  0  0  0  0  0  0  0  0
    5.8693   -5.8028    1.3960 H   0  0  0  0  0  0  0  0  0  0  0  0
    6.3422   -4.3900   -0.1889 H   0  0  0  0  0  0  0  0  0  0  0  0
    5.2025   -2.7666   -1.3232 H   0  0  0  0  0  0  0  0  0  0  0  0
    4.1463   -4.1329   -1.3089 H   0  0  0  0  0  0  0  0  0  0  0  0
    2.8314   -2.2274   -1.0484 H   0  0  0  0  0  0  0  0  0  0  0  0
    2.7144   -3.0116    0.4392 H   0  0  0  0  0  0  0  0  0  0  0  0
    3.7247   -0.4185   -0.3566 H   0  0  0  0  0  0  0  0  0  0  0  0
    5.5561    0.1675    0.7660 H   0  0  0  0  0  0  0  0  0  0  0  0
    7.1516   -1.3486    1.5156 H   0  0  0  0  0  0  0  0  0  0  0  0
    6.9952   -3.5854    1.7558 H   0  0  0  0  0  0  0  0  0  0  0  0
    5.8150   -3.8310    3.6549 H   0  0  0  0  0  0  0  0  0  0  0  0
    3.5094   -3.0368    5.6381 H   0  0  0  0  0  0  0  0  0  0  0  0
    1.9668   -2.2130    5.4418 H   0  0  0  0  0  0  0  0  0  0  0  0
    3.4752   -1.2967    5.4147 H   0  0  0  0  0  0  0  0  0  0  0  0
    5.3867   -6.4128    3.4452 H   0  0  0  0  0  0  0  0  0  0  0  0
    2.9309   -5.6047    5.0142 H   0  0  0  0  0  0  0  0  0  0  0  0
    4.5651   -4.9786    5.2856 H   0  0  0  0  0  0  0  0  0  0  0  0
    4.2378   -6.6693    5.4995 H   0  0  0  0  0  0  0  0  0  0  0  0
    1.2590   -1.6137    2.7120 H   0  0  0  0  0  0  0  0  0  0  0  0
    2.5084    1.4770    2.0852 H   0  0  0  0  0  0  0  0  0  0  0  0
    4.0798    0.7719    2.6125 H   0  0  0  0  0  0  0  0  0  0  0  0
    1.8325   -0.3847    0.9919 H   0  0  0  0  0  0  0  0  0  0  0  0
  1  2  1  0
  1 26  1  0
  1 27  1  0
  1 28  1  0
  2 20  1  0
  2  3  1  0
  2 29  1  6
  3  4  1  0
  3 30  1  0
  3 31  1  0
  4  5  1  0
  4 32  1  0
  4 33  1  0
  5 19  1  0
  5  6  1  0
  5 34  1  1
  6 12  1  0
  6  7  1  0
  6 35  1  6
  7  8  1  0
  7 36  1  0
  7 37  1  0
  8  9  1  0
  8 38  1  0
  8 39  1  0
  9 25  1  0
  9 10  1  0
  9 40  1  6
 10 11  2  0
 10 41  1  0
 11 12  1  0
 11 42  1  0
 12 13  1  0
 12 43  1  1
 13 19  1  0
 13 14  1  0
 13 44  1  1
 14 15  1  0
 15 16  1  1
 15 17  1  0
 15 22  1  0
 16 45  1  0
 16 46  1  0
 16 47  1  0
 17 18  1  0
 19 18  1  6
 19 20  1  0
 20 21  1  0
 20 48  1  1
 21 49  1  0
 21 50  1  0
 21 51  1  0
 22 25  1  0
 22 23  1  0
 22 52  1  6
 23 24  1  0
 24 25  1  0
 24 53  1  0
 24 54  1  0
 25 55  1  6
M  END
>  <i_m_ct_stereo_status>  (182) 
1

>  <s_m_source_file>  (182) 
/var/tmp/pbs.5076255.sched01/tmpln0nb48r/86bqtw16pk.sdf

>  <i_m_source_file_index>  (182) 
5

>  <i_lp_mmshare_version>  (182) 
48012

>  <i_f3d_flags>  (182) 
0

>  <s_epik_input>  (182) 
W0NIM11bQ0BIXTFbQ0BIXShbQ0gzXSlbQ0gyXVtDSDJdW0NASF0oW0NAQF0xMjMpW0NAQEhdNFtDQEBIXTVbQ0BIXTJPW0NAXShbQ0gzXSkoT08zKVtDQEBIXTZbQ0BASF0oW0NIMl1PNilbQ0BIXShbQ0gyXVtDSDJdNClbQ0hdPVtDSF01

>  <s_epik_cmdline>  (182) 
J2VwaWtfcHl0aG9uJywgJy1waHQnLCAnMi4wJywgJy1waCcsICc3LjAnLCAnLXRuJywgJzgnLCAnLW1hJywgJzIwMCcsICctaW1hZScsICc8aW5maWxlLm1hZT4nLCAnLW9tYWUnLCAnPG91dGZpbGUubWFlPic=

>  <r_lp_tautomer_probability>  (182) 
1

>  <r_epik_Ionization_Penalty>  (182) 
9.33932e-13

>  <r_epik_Ionization_Penalty_Charging>  (182) 
0

>  <r_epik_Ionization_Penalty_Neutral>  (182) 
9.33932e-13

>  <r_epik_State_Penalty>  (182) 
-0

>  <r_epik_Charging_Adjusted_Penalty>  (182) 
0

>  <i_epik_Tot_Q>  (182) 
0

>  <i_epik_Tot_abs_Q>  (182) 
0

>  <s_lp_Force_Field>  (182) 
OPLS3e

>  <r_lp_Energy>  (182) 
70.3162

>  <b_lp_Chiralities_Consistent>  (182) 
1

>  <s_lp_Variant>  (182) 
55:0-1

>  <s_i_glide_gridfile>  (182) 
pfpi4k_grid

>  <i_i_glide_lignum>  (182) 
5

>  <i_i_glide_rotatable_bonds>  (182) 
0

>  <r_i_docking_score>  (182) 
-3.09767

>  <r_i_glide_ligand_efficiency>  (182) 
-0.123907

>  <r_i_glide_ligand_efficiency_sa>  (182) 
-0.362306

>  <r_i_glide_ligand_efficiency_ln>  (182) 
-0.734242

>  <r_i_glide_gscore>  (182) 
-3.09767

>  <r_i_glide_lipo>  (182) 
-0.847956

>  <r_i_glide_hbond>  (182) 
0

>  <r_i_glide_metal>  (182) 
-0

>  <r_i_glide_rewards>  (182) 
-1.04687

>  <r_i_glide_evdw>  (182) 
-21.2166

>  <r_i_glide_ecoul>  (182) 
-0.946792

>  <r_i_glide_erotb>  (182) 
0

>  <r_i_glide_esite>  (182) 
0

>  <r_i_glide_emodel>  (182) 
-26.7958

>  <r_i_glide_energy>  (182) 
-22.1634

>  <r_i_glide_einternal>  (182) 
0

>  <r_i_glide_intrahb_reward>  (182) 
-0

>  <i_i_glide_confnum>  (182) 
2

>  <i_i_glide_posenum>  (182) 
2

>  <r_i_glide_eff_state_penalty>  (182) 
0

>  <ligand_id>  (182) 
55

>  <original_smiles>  (182) 
CC1CCC2C3CCC4C=CC3C3OC(C)(OOC23C1C)C1OCC41

>  <smiles>  (182) 
[H]C1=C([H])C2([H])C3([H])OC4(C([H])([H])[H])OOC35C([H])(C([H])([H])[H])C([H])(C([H])([H])[H])C([H])([H])C([H])([H])C5([H])C2([H])C([H])([H])C([H])([H])C1([H])C1([H])C([H])([H])OC41[H]

$$$$
55:0:1
     RDKit          3D

 55 60  0  0  1  0  0  0  0  0999 V2000
    0.6733   -1.3551    5.7456 C   0  0  0  0  0  0  0  0  0  0  0  0
    1.2565   -2.2282    4.6034 C   0  0  2  0  0  0  0  0  0  0  0  0
    0.8627   -3.7103    4.8552 C   0  0  0  0  0  0  0  0  0  0  0  0
    1.4733   -4.6940    3.8388 C   0  0  0  0  0  0  0  0  0  0  0  0
    2.9789   -4.4342    3.7597 C   0  0  1  0  0  0  0  0  0  0  0  0
    3.9158   -5.4195    3.0576 C   0  0  1  0  0  0  0  0  0  0  0  0
    3.4507   -6.0965    1.7402 C   0  0  0  0  0  0  0  0  0  0  0  0
    3.4666   -5.2619    0.4495 C   0  0  0  0  0  0  0  0  0  0  0  0
    4.8422   -4.9193   -0.1788 C   0  0  2  0  0  0  0  0  0  0  0  0
    6.0859   -5.1346    0.6768 C   0  0  0  0  0  0  0  0  0  0  0  0
    6.2452   -5.0285    2.0033 C   0  0  0  0  0  0  0  0  0  0  0  0
    5.2109   -4.6014    3.0276 C   0  0  1  0  0  0  0  0  0  0  0  0
    4.8468   -3.0816    3.0152 C   0  0  1  0  0  0  0  0  0  0  0  0
    5.3217   -2.5469    1.7759 O   0  0  0  0  0  0  0  0  0  0  0  0
    4.5068   -1.7065    0.9909 C   0  0  2  0  0  0  0  0  0  0  0  0
    5.0914   -0.2775    1.1003 C   0  0  0  0  0  0  0  0  0  0  0  0
    3.1936   -1.4878    1.4854 O   0  0  0  0  0  0  0  0  0  0  0  0
    2.6682   -2.7888    2.0681 O   0  0  0  0  0  0  0  0  0  0  0  0
    3.3209   -2.9949    3.2943 C   0  0  1  0  0  0  0  0  0  0  0  0
    2.8009   -2.0574    4.4373 C   0  0  1  0  0  0  0  0  0  0  0  0
    3.2326   -0.5833    4.2982 C   0  0  0  0  0  0  0  0  0  0  0  0
    4.5163   -2.1795   -0.4943 C   0  0  1  0  0  0  0  0  0  0  0  0
    5.6538   -1.6634   -1.2068 O   0  0  0  0  0  0  0  0  0  0  0  0
    6.1291   -2.9697   -1.4989 C   0  0  0  0  0  0  0  0  0  0  0  0
    4.8398   -3.6238   -0.9895 C   0  0  1  0  0  0  0  0  0  0  0  0
    1.1785   -1.5457    6.6969 H   0  0  0  0  0  0  0  0  0  0  0  0
   -0.3854   -1.5556    5.8890 H   0  0  0  0  0  0  0  0  0  0  0  0
    0.7660   -0.2942    5.5254 H   0  0  0  0  0  0  0  0  0  0  0  0
    0.7762   -1.9070    3.6906 H   0  0  0  0  0  0  0  0  0  0  0  0
    1.1690   -4.0004    5.8607 H   0  0  0  0  0  0  0  0  0  0  0  0
   -0.2268   -3.8058    4.8359 H   0  0  0  0  0  0  0  0  0  0  0  0
    1.2788   -5.7212    4.1643 H   0  0  0  0  0  0  0  0  0  0  0  0
    1.0028   -4.5708    2.8645 H   0  0  0  0  0  0  0  0  0  0  0  0
    3.3171   -4.5098    4.7951 H   0  0  0  0  0  0  0  0  0  0  0  0
    4.0707   -6.2542    3.7421 H   0  0  0  0  0  0  0  0  0  0  0  0
    4.0563   -6.9884    1.5772 H   0  0  0  0  0  0  0  0  0  0  0  0
    2.4418   -6.4703    1.8888 H   0  0  0  0  0  0  0  0  0  0  0  0
    2.9535   -5.8649   -0.3006 H   0  0  0  0  0  0  0  0  0  0  0  0
    2.8351   -4.3919    0.5112 H   0  0  0  0  0  0  0  0  0  0  0  0
    4.9849   -5.7198   -0.9016 H   0  0  0  0  0  0  0  0  0  0  0  0
    6.9640   -5.4277    0.1065 H   0  0  0  0  0  0  0  0  0  0  0  0
    7.2238   -5.2274    2.4177 H   0  0  0  0  0  0  0  0  0  0  0  0
    5.6918   -4.7698    3.9871 H   0  0  0  0  0  0  0  0  0  0  0  0
    5.3995   -2.5869    3.8182 H   0  0  0  0  0  0  0  0  0  0  0  0
    5.0434    0.0808    2.1244 H   0  0  0  0  0  0  0  0  0  0  0  0
    4.5290    0.4271    0.4782 H   0  0  0  0  0  0  0  0  0  0  0  0
    6.1311   -0.2448    0.7893 H   0  0  0  0  0  0  0  0  0  0  0  0
    3.2610   -2.3865    5.3561 H   0  0  0  0  0  0  0  0  0  0  0  0
    2.7197   -0.0693    3.4895 H   0  0  0  0  0  0  0  0  0  0  0  0
    4.3060   -0.4925    4.1546 H   0  0  0  0  0  0  0  0  0  0  0  0
    3.0124   -0.0359    5.2212 H   0  0  0  0  0  0  0  0  0  0  0  0
    3.5899   -1.8504   -0.9918 H   0  0  0  0  0  0  0  0  0  0  0  0
    6.2981   -3.1598   -2.5675 H   0  0  0  0  0  0  0  0  0  0  0  0
    7.0166   -3.2348   -0.9206 H   0  0  0  0  0  0  0  0  0  0  0  0
    4.2006   -3.7553   -1.8667 H   0  0  0  0  0  0  0  0  0  0  0  0
  1  2  1  0
  1 26  1  0
  1 27  1  0
  1 28  1  0
  2 20  1  0
  2  3  1  0
  2 29  1  6
  3  4  1  0
  3 30  1  0
  3 31  1  0
  4  5  1  0
  4 32  1  0
  4 33  1  0
  5 19  1  0
  5  6  1  0
  5 34  1  1
  6 12  1  0
  6  7  1  0
  6 35  1  1
  7  8  1  0
  7 36  1  0
  7 37  1  0
  8  9  1  0
  8 38  1  0
  8 39  1  0
  9 25  1  0
  9 10  1  0
  9 40  1  6
 10 11  2  0
 10 41  1  0
 11 12  1  0
 11 42  1  0
 12 13  1  0
 12 43  1  1
 13 19  1  0
 13 14  1  0
 13 44  1  1
 14 15  1  0
 15 16  1  6
 15 17  1  0
 15 22  1  0
 16 45  1  0
 16 46  1  0
 16 47  1  0
 17 18  1  0
 19 18  1  6
 19 20  1  0
 20 21  1  0
 20 48  1  1
 21 49  1  0
 21 50  1  0
 21 51  1  0
 22 25  1  0
 22 23  1  0
 22 52  1  6
 23 24  1  0
 24 25  1  0
 24 53  1  0
 24 54  1  0
 25 55  1  6
M  END
>  <i_m_ct_stereo_status>  (183) 
1

>  <s_m_source_file>  (183) 
/var/tmp/pbs.5076255.sched01/tmpln0nb48r/86bqtw16pk.sdf

>  <i_m_source_file_index>  (183) 
5

>  <i_lp_mmshare_version>  (183) 
48012

>  <i_f3d_flags>  (183) 
0

>  <s_epik_input>  (183) 
W0NIM11bQ0BIXTFbQ0BIXShbQ0gzXSlbQ0gyXVtDSDJdW0NASF0oW0NAQF0xMjMpW0NAQEhdNFtDQEBIXTVbQ0BIXTJPW0NAXShbQ0gzXSkoT08zKVtDQEBIXTZbQ0BASF0oW0NIMl1PNilbQ0BIXShbQ0gyXVtDSDJdNClbQ0hdPVtDSF01

>  <s_epik_cmdline>  (183) 
J2VwaWtfcHl0aG9uJywgJy1waHQnLCAnMi4wJywgJy1waCcsICc3LjAnLCAnLXRuJywgJzgnLCAnLW1hJywgJzIwMCcsICctaW1hZScsICc8aW5maWxlLm1hZT4nLCAnLW9tYWUnLCAnPG91dGZpbGUubWFlPic=

>  <r_lp_tautomer_probability>  (183) 
1

>  <r_epik_Ionization_Penalty>  (183) 
9.33932e-13

>  <r_epik_Ionization_Penalty_Charging>  (183) 
0

>  <r_epik_Ionization_Penalty_Neutral>  (183) 
9.33932e-13

>  <r_epik_State_Penalty>  (183) 
-0

>  <r_epik_Charging_Adjusted_Penalty>  (183) 
0

>  <i_epik_Tot_Q>  (183) 
0

>  <i_epik_Tot_abs_Q>  (183) 
0

>  <s_lp_Force_Field>  (183) 
OPLS3e

>  <r_lp_Energy>  (183) 
70.3162

>  <b_lp_Chiralities_Consistent>  (183) 
1

>  <s_lp_Variant>  (183) 
55:0-1

>  <s_i_glide_gridfile>  (183) 
pfpi4k_grid

>  <i_i_glide_lignum>  (183) 
5

>  <i_i_glide_rotatable_bonds>  (183) 
0

>  <r_i_docking_score>  (183) 
-2.8211

>  <r_i_glide_ligand_efficiency>  (183) 
-0.112844

>  <r_i_glide_ligand_efficiency_sa>  (183) 
-0.329958

>  <r_i_glide_ligand_efficiency_ln>  (183) 
-0.668686

>  <r_i_glide_gscore>  (183) 
-2.8211

>  <r_i_glide_lipo>  (183) 
-0.490988

>  <r_i_glide_hbond>  (183) 
-0.0105197

>  <r_i_glide_metal>  (183) 
-0

>  <r_i_glide_rewards>  (183) 
-1.05224

>  <r_i_glide_evdw>  (183) 
-23.5348

>  <r_i_glide_ecoul>  (183) 
-0.604124

>  <r_i_glide_erotb>  (183) 
0

>  <r_i_glide_esite>  (183) 
0

>  <r_i_glide_emodel>  (183) 
-28.2948

>  <r_i_glide_energy>  (183) 
-24.139

>  <r_i_glide_einternal>  (183) 
0

>  <r_i_glide_intrahb_reward>  (183) 
-0

>  <i_i_glide_confnum>  (183) 
2

>  <i_i_glide_posenum>  (183) 
10

>  <r_i_glide_eff_state_penalty>  (183) 
0

>  <ligand_id>  (183) 
55

>  <original_smiles>  (183) 
CC1CCC2C3CCC4C=CC3C3OC(C)(OOC23C1C)C1OCC41

>  <smiles>  (183) 
[H]C1=C([H])C2([H])C3([H])OC4(C([H])([H])[H])OOC35C([H])(C([H])([H])[H])C([H])(C([H])([H])[H])C([H])([H])C([H])([H])C5([H])C2([H])C([H])([H])C([H])([H])C1([H])C1([H])C([H])([H])OC41[H]

$$$$
55:0:2
     RDKit          3D

 55 60  0  0  1  0  0  0  0  0999 V2000
    1.7900   -4.5072    7.2152 C   0  0  0  0  0  0  0  0  0  0  0  0
    1.9517   -4.4453    5.6818 C   0  0  2  0  0  0  0  0  0  0  0  0
    1.3406   -5.7276    5.0509 C   0  0  0  0  0  0  0  0  0  0  0  0
    1.5372   -5.8308    3.5244 C   0  0  0  0  0  0  0  0  0  0  0  0
    3.0173   -5.5960    3.2099 C   0  0  1  0  0  0  0  0  0  0  0  0
    3.5926   -5.9010    1.8230 C   0  0  1  0  0  0  0  0  0  0  0  0
    2.7531   -5.5605    0.5677 C   0  0  0  0  0  0  0  0  0  0  0  0
    2.6565   -4.0958    0.1152 C   0  0  0  0  0  0  0  0  0  0  0  0
    3.9115   -3.4474   -0.5064 C   0  0  2  0  0  0  0  0  0  0  0  0
    5.2451   -4.1694   -0.3545 C   0  0  0  0  0  0  0  0  0  0  0  0
    5.6925   -4.9468    0.6469 C   0  0  0  0  0  0  0  0  0  0  0  0
    4.9849   -5.2682    1.9506 C   0  0  1  0  0  0  0  0  0  0  0  0
    4.9162   -4.1048    2.9820 C   0  0  1  0  0  0  0  0  0  0  0  0
    5.2198   -2.8943    2.2772 O   0  0  0  0  0  0  0  0  0  0  0  0
    4.4306   -1.7292    2.4429 C   0  0  2  0  0  0  0  0  0  0  0  0
    5.2771   -0.7176    3.2405 C   0  0  0  0  0  0  0  0  0  0  0  0
    3.3054   -1.8916    3.3015 O   0  0  0  0  0  0  0  0  0  0  0  0
    2.6896   -3.2284    3.0757 O   0  0  0  0  0  0  0  0  0  0  0  0
    3.5202   -4.2117    3.6619 C   0  0  1  0  0  0  0  0  0  0  0  0
    3.4283   -4.2076    5.2261 C   0  0  1  0  0  0  0  0  0  0  0  0
    4.0916   -3.0072    5.9230 C   0  0  0  0  0  0  0  0  0  0  0  0
    4.0214   -1.1567    1.0544 C   0  0  1  0  0  0  0  0  0  0  0  0
    5.0850   -0.3001    0.5456 O   0  0  0  0  0  0  0  0  0  0  0  0
    5.2318   -1.1295   -0.6302 C   0  0  0  0  0  0  0  0  0  0  0  0
    3.9779   -1.9224   -0.2907 C   0  0  1  0  0  0  0  0  0  0  0  0
    2.4311   -5.2706    7.6580 H   0  0  0  0  0  0  0  0  0  0  0  0
    0.7630   -4.7428    7.4943 H   0  0  0  0  0  0  0  0  0  0  0  0
    2.0299   -3.5551    7.6881 H   0  0  0  0  0  0  0  0  0  0  0  0
    1.3608   -3.5982    5.3334 H   0  0  0  0  0  0  0  0  0  0  0  0
    1.7911   -6.6028    5.5245 H   0  0  0  0  0  0  0  0  0  0  0  0
    0.2747   -5.7799    5.2811 H   0  0  0  0  0  0  0  0  0  0  0  0
    1.2304   -6.8212    3.1864 H   0  0  0  0  0  0  0  0  0  0  0  0
    0.9078   -5.1032    3.0131 H   0  0  0  0  0  0  0  0  0  0  0  0
    3.5428   -6.3256    3.8324 H   0  0  0  0  0  0  0  0  0  0  0  0
    3.7277   -6.9818    1.7698 H   0  0  0  0  0  0  0  0  0  0  0  0
    3.1417   -6.1426   -0.2701 H   0  0  0  0  0  0  0  0  0  0  0  0
    1.7444   -5.9402    0.7238 H   0  0  0  0  0  0  0  0  0  0  0  0
    1.8969   -4.0696   -0.6660 H   0  0  0  0  0  0  0  0  0  0  0  0
    2.2275   -3.4611    0.8773 H   0  0  0  0  0  0  0  0  0  0  0  0
    3.7551   -3.5892   -1.5764 H   0  0  0  0  0  0  0  0  0  0  0  0
    5.9142   -4.0341   -1.1943 H   0  0  0  0  0  0  0  0  0  0  0  0
    6.6772   -5.3734    0.5592 H   0  0  0  0  0  0  0  0  0  0  0  0
    5.6128   -6.0268    2.4208 H   0  0  0  0  0  0  0  0  0  0  0  0
    5.6994   -4.2452    3.7293 H   0  0  0  0  0  0  0  0  0  0  0  0
    5.5121   -1.1041    4.2313 H   0  0  0  0  0  0  0  0  0  0  0  0
    4.7439    0.2262    3.3729 H   0  0  0  0  0  0  0  0  0  0  0  0
    6.2239   -0.5031    2.7437 H   0  0  0  0  0  0  0  0  0  0  0  0
    4.0035   -5.0660    5.5727 H   0  0  0  0  0  0  0  0  0  0  0  0
    3.5281   -2.0863    5.7838 H   0  0  0  0  0  0  0  0  0  0  0  0
    5.1102   -2.8537    5.5723 H   0  0  0  0  0  0  0  0  0  0  0  0
    4.1712   -3.1798    6.9958 H   0  0  0  0  0  0  0  0  0  0  0  0
    3.1078   -0.5610    1.1464 H   0  0  0  0  0  0  0  0  0  0  0  0
    5.1355   -0.5696   -1.5602 H   0  0  0  0  0  0  0  0  0  0  0  0
    6.1568   -1.7041   -0.6003 H   0  0  0  0  0  0  0  0  0  0  0  0
    3.1575   -1.4600   -0.8436 H   0  0  0  0  0  0  0  0  0  0  0  0
  1  2  1  0
  1 26  1  0
  1 27  1  0
  1 28  1  0
  2 20  1  0
  2  3  1  0
  2 29  1  6
  3  4  1  0
  3 30  1  0
  3 31  1  0
  4  5  1  0
  4 32  1  0
  4 33  1  0
  5 19  1  0
  5  6  1  0
  5 34  1  1
  6 12  1  0
  6  7  1  0
  6 35  1  1
  7  8  1  0
  7 36  1  0
  7 37  1  0
  8  9  1  0
  8 38  1  0
  8 39  1  0
  9 25  1  0
  9 10  1  0
  9 40  1  6
 10 11  2  0
 10 41  1  0
 11 12  1  0
 11 42  1  0
 12 13  1  0
 12 43  1  1
 13 19  1  0
 13 14  1  0
 13 44  1  1
 14 15  1  0
 15 16  1  1
 15 17  1  0
 15 22  1  0
 16 45  1  0
 16 46  1  0
 16 47  1  0
 17 18  1  0
 19 18  1  6
 19 20  1  0
 20 21  1  0
 20 48  1  1
 21 49  1  0
 21 50  1  0
 21 51  1  0
 22 25  1  0
 22 23  1  0
 22 52  1  1
 23 24  1  0
 24 25  1  0
 24 53  1  0
 24 54  1  0
 25 55  1  6
M  END
>  <i_m_ct_stereo_status>  (184) 
1

>  <s_m_source_file>  (184) 
/var/tmp/pbs.5076255.sched01/tmpln0nb48r/86bqtw16pk.sdf

>  <i_m_source_file_index>  (184) 
5

>  <i_lp_mmshare_version>  (184) 
48012

>  <i_f3d_flags>  (184) 
0

>  <s_epik_input>  (184) 
W0NIM11bQ0BIXTFbQ0BIXShbQ0gzXSlbQ0gyXVtDSDJdW0NASF0oW0NAQF0xMjMpW0NAQEhdNFtDQEBIXTVbQ0BIXTJPW0NAXShbQ0gzXSkoT08zKVtDQEBIXTZbQ0BASF0oW0NIMl1PNilbQ0BIXShbQ0gyXVtDSDJdNClbQ0hdPVtDSF01

>  <s_epik_cmdline>  (184) 
J2VwaWtfcHl0aG9uJywgJy1waHQnLCAnMi4wJywgJy1waCcsICc3LjAnLCAnLXRuJywgJzgnLCAnLW1hJywgJzIwMCcsICctaW1hZScsICc8aW5maWxlLm1hZT4nLCAnLW9tYWUnLCAnPG91dGZpbGUubWFlPic=

>  <r_lp_tautomer_probability>  (184) 
1

>  <r_epik_Ionization_Penalty>  (184) 
9.33932e-13

>  <r_epik_Ionization_Penalty_Charging>  (184) 
0

>  <r_epik_Ionization_Penalty_Neutral>  (184) 
9.33932e-13

>  <r_epik_State_Penalty>  (184) 
-0

>  <r_epik_Charging_Adjusted_Penalty>  (184) 
0

>  <i_epik_Tot_Q>  (184) 
0

>  <i_epik_Tot_abs_Q>  (184) 
0

>  <s_lp_Force_Field>  (184) 
OPLS3e

>  <r_lp_Energy>  (184) 
70.3162

>  <b_lp_Chiralities_Consistent>  (184) 
1

>  <s_lp_Variant>  (184) 
55:0-1

>  <s_i_glide_gridfile>  (184) 
pfpi4k_grid

>  <i_i_glide_lignum>  (184) 
5

>  <i_i_glide_rotatable_bonds>  (184) 
0

>  <r_i_docking_score>  (184) 
-2.43493

>  <r_i_glide_ligand_efficiency>  (184) 
-0.0973971

>  <r_i_glide_ligand_efficiency_sa>  (184) 
-0.284791

>  <r_i_glide_ligand_efficiency_ln>  (184) 
-0.577151

>  <r_i_glide_gscore>  (184) 
-2.43493

>  <r_i_glide_lipo>  (184) 
-0.380111

>  <r_i_glide_hbond>  (184) 
0

>  <r_i_glide_metal>  (184) 
-0

>  <r_i_glide_rewards>  (184) 
-1.08623

>  <r_i_glide_evdw>  (184) 
-21.8975

>  <r_i_glide_ecoul>  (184) 
0.84193

>  <r_i_glide_erotb>  (184) 
0

>  <r_i_glide_esite>  (184) 
0

>  <r_i_glide_emodel>  (184) 
-24.6557

>  <r_i_glide_energy>  (184) 
-21.0556

>  <r_i_glide_einternal>  (184) 
0

>  <r_i_glide_intrahb_reward>  (184) 
-0

>  <i_i_glide_confnum>  (184) 
1

>  <i_i_glide_posenum>  (184) 
7

>  <r_i_glide_eff_state_penalty>  (184) 
0

>  <ligand_id>  (184) 
55

>  <original_smiles>  (184) 
CC1CCC2C3CCC4C=CC3C3OC(C)(OOC23C1C)C1OCC41

>  <smiles>  (184) 
[H]C1=C([H])C2([H])C3([H])OC4(C([H])([H])[H])OOC35C([H])(C([H])([H])[H])C([H])(C([H])([H])[H])C([H])([H])C([H])([H])C5([H])C2([H])C([H])([H])C([H])([H])C1([H])C1([H])C([H])([H])OC41[H]

$$$$
56:0:0
     RDKit          3D

 25 27  0  0  1  0  0  0  0  0999 V2000
    4.9887   -2.9612    4.3234 O   0  0  0  0  0  0  0  0  0  0  0  0
    4.7426   -2.9572    3.1170 C   0  0  0  0  0  0  0  0  0  0  0  0
    5.3490   -2.0472    2.1095 C   0  0  0  0  0  0  0  0  0  0  0  0
    5.9396   -1.0243    2.5287 O   0  0  0  0  0  0  0  0  0  0  0  0
    4.9607   -2.5805    0.8950 C   0  0  0  0  0  0  0  0  0  0  0  0
    5.1260   -1.9062   -0.4072 C   0  0  0  0  0  0  0  0  0  0  0  0
    6.0297   -1.0968   -0.5961 O   0  0  0  0  0  0  0  0  0  0  0  0
    4.1401   -2.2355   -1.4698 C   0  0  0  0  0  0  0  0  0  0  0  0
    4.2103   -1.5181   -2.6865 C   0  0  0  0  0  0  0  0  0  0  0  0
    3.2913   -1.7575   -3.7225 C   0  0  0  0  0  0  0  0  0  0  0  0
    2.2851   -2.7285   -3.5381 C   0  0  0  0  0  0  0  0  0  0  0  0
    2.2033   -3.4415   -2.3290 C   0  0  0  0  0  0  0  0  0  0  0  0
    3.1294   -3.2141   -1.2864 C   0  0  0  0  0  0  0  0  0  0  0  0
    3.0384   -4.0300   -0.0439 C   0  0  0  0  0  0  0  0  0  0  0  0
    2.1903   -4.8971    0.1503 O   0  0  0  0  0  0  0  0  0  0  0  0
    4.1646   -3.8757    1.0005 C   0  0  1  0  0  0  0  0  0  0  0  0
    5.0756   -4.9552    0.8405 O   0  0  0  0  0  0  0  0  0  0  0  0
    3.7068   -3.8743    2.4884 C   0  0  2  0  0  0  0  0  0  0  0  0
    2.1037   -3.1454    2.7825 Cl  0  0  0  0  0  0  0  0  0  0  0  0
    4.9666   -0.7609   -2.8276 H   0  0  0  0  0  0  0  0  0  0  0  0
    3.3364   -1.1970   -4.6457 H   0  0  0  0  0  0  0  0  0  0  0  0
    1.5614   -2.9201   -4.3218 H   0  0  0  0  0  0  0  0  0  0  0  0
    1.4289   -4.1951   -2.2238 H   0  0  0  0  0  0  0  0  0  0  0  0
    4.6096   -5.7597    1.0054 H   0  0  0  0  0  0  0  0  0  0  0  0
    3.7009   -4.8604    2.9507 H   0  0  0  0  0  0  0  0  0  0  0  0
  1  2  2  0
  2 18  1  0
  2  3  1  0
  3  4  1  0
  3  5  2  0
  5 16  1  0
  5  6  1  0
  6  7  2  0
  6  8  1  0
  8 13  2  0
  8  9  1  0
  9 10  2  0
  9 20  1  0
 10 11  1  0
 10 21  1  0
 11 12  2  0
 11 22  1  0
 12 13  1  0
 12 23  1  0
 13 14  1  0
 14 15  2  0
 14 16  1  0
 16 17  1  1
 16 18  1  0
 17 24  1  0
 18 19  1  0
 18 25  1  1
M  CHG  1   4  -1
M  END
>  <i_m_ct_stereo_status>  (185) 
1

>  <s_m_source_file>  (185) 
/var/tmp/pbs.5076255.sched01/tmpln0nb48r/86bqtw16pk.sdf

>  <i_m_source_file_index>  (185) 
6

>  <i_lp_mmshare_version>  (185) 
48012

>  <i_f3d_flags>  (185) 
0

>  <s_epik_input>  (185) 
Q2xbQ0BASF0xQyg9TylDKD1PKVtDQEBIXShbQ0BAXTEyW09IXSlDKD1PKWMzYyhDMj1PKVtjSF1bY0hdW2NIXVtjSF0z

>  <s_epik_cmdline>  (185) 
J2VwaWtfcHl0aG9uJywgJy1waHQnLCAnMi4wJywgJy1waCcsICc3LjAnLCAnLXRuJywgJzgnLCAnLW1hJywgJzIwMCcsICctaW1hZScsICc8aW5maWxlLm1hZT4nLCAnLW9tYWUnLCAnPG91dGZpbGUubWFlPic=

>  <r_epik_Ionization_Penalty>  (185) 
0.000551624

>  <r_epik_Ionization_Penalty_Charging>  (185) 
2.3171e-07

>  <r_epik_Ionization_Penalty_Neutral>  (185) 
0.000551392

>  <r_epik_State_Penalty>  (185) 
0.000345314

>  <r_epik_Charging_Adjusted_Penalty>  (185) 
0.000345546

>  <i_epik_Tot_Q>  (185) 
-1

>  <i_epik_Tot_abs_Q>  (185) 
1

>  <s_lp_Force_Field>  (185) 
OPLS3e

>  <r_lp_Energy>  (185) 
32.8473

>  <b_lp_Chiralities_Consistent>  (185) 
1

>  <s_lp_Variant>  (185) 
56:0-1

>  <s_i_glide_gridfile>  (185) 
pfpi4k_grid

>  <i_i_glide_lignum>  (185) 
6

>  <i_i_glide_rotatable_bonds>  (185) 
1

>  <r_i_docking_score>  (185) 
-3.73384

>  <r_i_glide_ligand_efficiency>  (185) 
-0.196518

>  <r_i_glide_ligand_efficiency_sa>  (185) 
-0.524389

>  <r_i_glide_ligand_efficiency_ln>  (185) 
-0.946609

>  <r_i_glide_gscore>  (185) 
-3.73384

>  <r_i_glide_lipo>  (185) 
-0.844884

>  <r_i_glide_hbond>  (185) 
-0.0812247

>  <r_i_glide_metal>  (185) 
-0

>  <r_i_glide_rewards>  (185) 
-1.56337

>  <r_i_glide_evdw>  (185) 
-21.3413

>  <r_i_glide_ecoul>  (185) 
-0.948035

>  <r_i_glide_erotb>  (185) 
0

>  <r_i_glide_esite>  (185) 
-0.0350903

>  <r_i_glide_emodel>  (185) 
-27.8104

>  <r_i_glide_energy>  (185) 
-22.2894

>  <r_i_glide_einternal>  (185) 
1.68052

>  <r_i_glide_intrahb_reward>  (185) 
-0

>  <i_i_glide_confnum>  (185) 
2

>  <i_i_glide_posenum>  (185) 
2

>  <r_i_glide_eff_state_penalty>  (185) 
0

>  <ligand_id>  (185) 
56

>  <original_smiles>  (185) 
O=C1C(=O)C2C(=O)c3ccccc3C(=O)C2(O)C1Cl

>  <smiles>  (185) 
[H]OC12C(=O)c3c([H])c([H])c([H])c([H])c3C(=O)C1=C([O-])C(=O)C2([H])Cl

$$$$
56:0:1
     RDKit          3D

 25 27  0  0  1  0  0  0  0  0999 V2000
    2.0931    2.0009    2.0957 O   0  0  0  0  0  0  0  0  0  0  0  0
    1.4022    2.3858    3.0422 C   0  0  0  0  0  0  0  0  0  0  0  0
    1.9201    2.8616    4.3521 C   0  0  0  0  0  0  0  0  0  0  0  0
    3.1308    2.6396    4.6154 O   0  0  0  0  0  0  0  0  0  0  0  0
    0.8038    3.3575    5.0037 C   0  0  0  0  0  0  0  0  0  0  0  0
    0.7447    3.7322    6.4280 C   0  0  0  0  0  0  0  0  0  0  0  0
    1.7537    4.0769    7.0418 O   0  0  0  0  0  0  0  0  0  0  0  0
   -0.5815    3.6380    7.1047 C   0  0  0  0  0  0  0  0  0  0  0  0
   -0.6412    3.8783    8.4983 C   0  0  0  0  0  0  0  0  0  0  0  0
   -1.8565    3.7689    9.2018 C   0  0  0  0  0  0  0  0  0  0  0  0
   -3.0282    3.4163    8.5114 C   0  0  0  0  0  0  0  0  0  0  0  0
   -2.9795    3.1751    7.1262 C   0  0  0  0  0  0  0  0  0  0  0  0
   -1.7667    3.2874    6.4091 C   0  0  0  0  0  0  0  0  0  0  0  0
   -1.7699    3.0741    4.9347 C   0  0  0  0  0  0  0  0  0  0  0  0
   -2.7855    2.8024    4.2974 O   0  0  0  0  0  0  0  0  0  0  0  0
   -0.4712    3.3594    4.1593 C   0  0  1  0  0  0  0  0  0  0  0  0
   -0.6276    4.6544    3.5931 O   0  0  0  0  0  0  0  0  0  0  0  0
   -0.1208    2.3507    3.0308 C   0  0  2  0  0  0  0  0  0  0  0  0
   -0.6258    0.6690    3.3692 Cl  0  0  0  0  0  0  0  0  0  0  0  0
    0.2533    4.1360    9.0469 H   0  0  0  0  0  0  0  0  0  0  0  0
   -1.8849    3.9484   10.2705 H   0  0  0  0  0  0  0  0  0  0  0  0
   -3.9659    3.3340    9.0474 H   0  0  0  0  0  0  0  0  0  0  0  0
   -3.8973    2.9403    6.6057 H   0  0  0  0  0  0  0  0  0  0  0  0
   -0.1826    4.6820    2.7485 H   0  0  0  0  0  0  0  0  0  0  0  0
   -0.5323    2.6230    2.0609 H   0  0  0  0  0  0  0  0  0  0  0  0
  1  2  2  0
  2 18  1  0
  2  3  1  0
  3  4  1  0
  3  5  2  0
  5 16  1  0
  5  6  1  0
  6  7  2  0
  6  8  1  0
  8 13  2  0
  8  9  1  0
  9 10  2  0
  9 20  1  0
 10 11  1  0
 10 21  1  0
 11 12  2  0
 11 22  1  0
 12 13  1  0
 12 23  1  0
 13 14  1  0
 14 15  2  0
 14 16  1  0
 16 17  1  6
 16 18  1  0
 17 24  1  0
 18 19  1  0
 18 25  1  6
M  CHG  1   4  -1
M  END
>  <i_m_ct_stereo_status>  (186) 
1

>  <s_m_source_file>  (186) 
/var/tmp/pbs.5076255.sched01/tmpln0nb48r/86bqtw16pk.sdf

>  <i_m_source_file_index>  (186) 
6

>  <i_lp_mmshare_version>  (186) 
48012

>  <i_f3d_flags>  (186) 
0

>  <s_epik_input>  (186) 
Q2xbQ0BASF0xQyg9TylDKD1PKVtDQEBIXShbQ0BAXTEyW09IXSlDKD1PKWMzYyhDMj1PKVtjSF1bY0hdW2NIXVtjSF0z

>  <s_epik_cmdline>  (186) 
J2VwaWtfcHl0aG9uJywgJy1waHQnLCAnMi4wJywgJy1waCcsICc3LjAnLCAnLXRuJywgJzgnLCAnLW1hJywgJzIwMCcsICctaW1hZScsICc8aW5maWxlLm1hZT4nLCAnLW9tYWUnLCAnPG91dGZpbGUubWFlPic=

>  <r_epik_Ionization_Penalty>  (186) 
0.000551624

>  <r_epik_Ionization_Penalty_Charging>  (186) 
2.3171e-07

>  <r_epik_Ionization_Penalty_Neutral>  (186) 
0.000551392

>  <r_epik_State_Penalty>  (186) 
0.000345314

>  <r_epik_Charging_Adjusted_Penalty>  (186) 
0.000345546

>  <i_epik_Tot_Q>  (186) 
-1

>  <i_epik_Tot_abs_Q>  (186) 
1

>  <s_lp_Force_Field>  (186) 
OPLS3e

>  <r_lp_Energy>  (186) 
32.8473

>  <b_lp_Chiralities_Consistent>  (186) 
1

>  <s_lp_Variant>  (186) 
56:0-1

>  <s_i_glide_gridfile>  (186) 
pfpi4k_grid

>  <i_i_glide_lignum>  (186) 
6

>  <i_i_glide_rotatable_bonds>  (186) 
1

>  <r_i_docking_score>  (186) 
-3.40549

>  <r_i_glide_ligand_efficiency>  (186) 
-0.179236

>  <r_i_glide_ligand_efficiency_sa>  (186) 
-0.478274

>  <r_i_glide_ligand_efficiency_ln>  (186) 
-0.863364

>  <r_i_glide_gscore>  (186) 
-3.40549

>  <r_i_glide_lipo>  (186) 
-0.290708

>  <r_i_glide_hbond>  (186) 
0

>  <r_i_glide_metal>  (186) 
-0

>  <r_i_glide_rewards>  (186) 
-1.51612

>  <r_i_glide_evdw>  (186) 
-19.3099

>  <r_i_glide_ecoul>  (186) 
-3.77826

>  <r_i_glide_erotb>  (186) 
0

>  <r_i_glide_esite>  (186) 
-0.0664317

>  <r_i_glide_emodel>  (186) 
-27.6762

>  <r_i_glide_energy>  (186) 
-23.0881

>  <r_i_glide_einternal>  (186) 
1.16872

>  <r_i_glide_intrahb_reward>  (186) 
-0

>  <i_i_glide_confnum>  (186) 
1

>  <i_i_glide_posenum>  (186) 
1

>  <r_i_glide_eff_state_penalty>  (186) 
0

>  <ligand_id>  (186) 
56

>  <original_smiles>  (186) 
O=C1C(=O)C2C(=O)c3ccccc3C(=O)C2(O)C1Cl

>  <smiles>  (186) 
[H]OC12C(=O)c3c([H])c([H])c([H])c([H])c3C(=O)C1=C([O-])C(=O)C2([H])Cl

$$$$
56:0:2
     RDKit          3D

 25 27  0  0  1  0  0  0  0  0999 V2000
    2.9243    4.2266    2.7372 O   0  0  0  0  0  0  0  0  0  0  0  0
    2.0037    4.2221    3.5550 C   0  0  0  0  0  0  0  0  0  0  0  0
    1.9041    5.1059    4.7426 C   0  0  0  0  0  0  0  0  0  0  0  0
    2.9439    5.7270    5.0892 O   0  0  0  0  0  0  0  0  0  0  0  0
    0.6241    4.8908    5.2230 C   0  0  0  0  0  0  0  0  0  0  0  0
    0.1144    5.3551    6.5251 C   0  0  0  0  0  0  0  0  0  0  0  0
    0.5741    6.3589    7.0708 O   0  0  0  0  0  0  0  0  0  0  0  0
   -0.9752    4.5589    7.1572 C   0  0  0  0  0  0  0  0  0  0  0  0
   -1.4037    4.9279    8.4536 C   0  0  0  0  0  0  0  0  0  0  0  0
   -2.4164    4.2076    9.1135 C   0  0  0  0  0  0  0  0  0  0  0  0
   -3.0141    3.1044    8.4800 C   0  0  0  0  0  0  0  0  0  0  0  0
   -2.5993    2.7284    7.1835 C   0  0  0  0  0  0  0  0  0  0  0  0
   -1.5887    3.4514    6.5092 C   0  0  0  0  0  0  0  0  0  0  0  0
   -1.2043    3.0501    5.1289 C   0  0  0  0  0  0  0  0  0  0  0  0
   -1.6925    2.0752    4.5547 O   0  0  0  0  0  0  0  0  0  0  0  0
   -0.2341    3.9705    4.3486 C   0  0  1  0  0  0  0  0  0  0  0  0
   -1.0200    4.7948    3.4924 O   0  0  0  0  0  0  0  0  0  0  0  0
    0.8397    3.2373    3.4997 C   0  0  2  0  0  0  0  0  0  0  0  0
    1.3975    1.6819    4.1881 Cl  0  0  0  0  0  0  0  0  0  0  0  0
   -0.9545    5.7706    8.9565 H   0  0  0  0  0  0  0  0  0  0  0  0
   -2.7279    4.4938   10.1098 H   0  0  0  0  0  0  0  0  0  0  0  0
   -3.7830    2.5466    8.9922 H   0  0  0  0  0  0  0  0  0  0  0  0
   -3.0760    1.8859    6.7043 H   0  0  0  0  0  0  0  0  0  0  0  0
   -0.5741    4.8864    2.6544 H   0  0  0  0  0  0  0  0  0  0  0  0
    0.5206    3.0352    2.4790 H   0  0  0  0  0  0  0  0  0  0  0  0
  1  2  2  0
  2 18  1  0
  2  3  1  0
  3  4  1  0
  3  5  2  0
  5 16  1  0
  5  6  1  0
  6  7  2  0
  6  8  1  0
  8 13  2  0
  8  9  1  0
  9 10  2  0
  9 20  1  0
 10 11  1  0
 10 21  1  0
 11 12  2  0
 11 22  1  0
 12 13  1  0
 12 23  1  0
 13 14  1  0
 14 15  2  0
 14 16  1  0
 16 17  1  6
 16 18  1  0
 17 24  1  0
 18 19  1  0
 18 25  1  6
M  CHG  1   4  -1
M  END
>  <i_m_ct_stereo_status>  (187) 
1

>  <s_m_source_file>  (187) 
/var/tmp/pbs.5076255.sched01/tmpln0nb48r/86bqtw16pk.sdf

>  <i_m_source_file_index>  (187) 
6

>  <i_lp_mmshare_version>  (187) 
48012

>  <i_f3d_flags>  (187) 
0

>  <s_epik_input>  (187) 
Q2xbQ0BASF0xQyg9TylDKD1PKVtDQEBIXShbQ0BAXTEyW09IXSlDKD1PKWMzYyhDMj1PKVtjSF1bY0hdW2NIXVtjSF0z

>  <s_epik_cmdline>  (187) 
J2VwaWtfcHl0aG9uJywgJy1waHQnLCAnMi4wJywgJy1waCcsICc3LjAnLCAnLXRuJywgJzgnLCAnLW1hJywgJzIwMCcsICctaW1hZScsICc8aW5maWxlLm1hZT4nLCAnLW9tYWUnLCAnPG91dGZpbGUubWFlPic=

>  <r_epik_Ionization_Penalty>  (187) 
0.000551624

>  <r_epik_Ionization_Penalty_Charging>  (187) 
2.3171e-07

>  <r_epik_Ionization_Penalty_Neutral>  (187) 
0.000551392

>  <r_epik_State_Penalty>  (187) 
0.000345314

>  <r_epik_Charging_Adjusted_Penalty>  (187) 
0.000345546

>  <i_epik_Tot_Q>  (187) 
-1

>  <i_epik_Tot_abs_Q>  (187) 
1

>  <s_lp_Force_Field>  (187) 
OPLS3e

>  <r_lp_Energy>  (187) 
32.8473

>  <b_lp_Chiralities_Consistent>  (187) 
1

>  <s_lp_Variant>  (187) 
56:0-1

>  <s_i_glide_gridfile>  (187) 
pfpi4k_grid

>  <i_i_glide_lignum>  (187) 
6

>  <i_i_glide_rotatable_bonds>  (187) 
1

>  <r_i_docking_score>  (187) 
-3.38937

>  <r_i_glide_ligand_efficiency>  (187) 
-0.178388

>  <r_i_glide_ligand_efficiency_sa>  (187) 
-0.47601

>  <r_i_glide_ligand_efficiency_ln>  (187) 
-0.859277

>  <r_i_glide_gscore>  (187) 
-3.38937

>  <r_i_glide_lipo>  (187) 
-0.283473

>  <r_i_glide_hbond>  (187) 
0

>  <r_i_glide_metal>  (187) 
-0

>  <r_i_glide_rewards>  (187) 
-1.51612

>  <r_i_glide_evdw>  (187) 
-19.2195

>  <r_i_glide_ecoul>  (187) 
-3.77339

>  <r_i_glide_erotb>  (187) 
0

>  <r_i_glide_esite>  (187) 
-0.0627945

>  <r_i_glide_emodel>  (187) 
-27.1376

>  <r_i_glide_energy>  (187) 
-22.9929

>  <r_i_glide_einternal>  (187) 
1.44037

>  <r_i_glide_intrahb_reward>  (187) 
-0

>  <i_i_glide_confnum>  (187) 
2

>  <i_i_glide_posenum>  (187) 
5

>  <r_i_glide_eff_state_penalty>  (187) 
0

>  <ligand_id>  (187) 
56

>  <original_smiles>  (187) 
O=C1C(=O)C2C(=O)c3ccccc3C(=O)C2(O)C1Cl

>  <smiles>  (187) 
[H]OC12C(=O)c3c([H])c([H])c([H])c([H])c3C(=O)C1=C([O-])C(=O)C2([H])Cl

$$$$
57:0:0
     RDKit          3D

 30 33  0  0  1  0  0  0  0  0999 V2000
    3.8185   -0.2531   -3.3748 C   0  0  0  0  0  0  0  0  0  0  0  0
    3.4397   -1.1035   -4.4181 C   0  0  0  0  0  0  0  0  0  0  0  0
    3.4363   -2.4461   -4.3095 N   0  0  0  0  0  0  0  0  0  0  0  0
    3.7690   -2.9875   -3.1185 C   0  0  0  0  0  0  0  0  0  0  0  0
    4.1536   -2.2210   -1.9971 C   0  0  0  0  0  0  0  0  0  0  0  0
    4.5045   -2.8819   -0.6647 C   0  0  2  0  0  0  0  0  0  0  0  0
    3.5100   -2.5551    0.4765 C   0  0  0  0  0  0  0  0  0  0  0  0
    3.8849   -1.2965    1.2916 C   0  0  0  0  0  0  0  0  0  0  0  0
    2.8583   -0.5380    1.9909 C   0  0  0  0  0  0  0  0  0  0  0  0
    2.7465    0.8206    2.1472 C   0  0  0  0  0  0  0  0  0  0  0  0
    1.6329    1.2084    2.9425 C   0  0  0  0  0  0  0  0  0  0  0  0
    0.9148    0.1398    3.4041 C   0  0  0  0  0  0  0  0  0  0  0  0
    1.5846   -1.3697    2.8532 S   0  0  0  0  0  0  0  0  0  0  0  0
    5.1042   -0.9015    1.3500 N   0  0  0  0  0  0  0  0  0  0  0  0
    6.1070   -1.5640    0.7008 C   0  0  0  0  0  0  0  0  0  0  0  0
    7.4215   -1.4584    0.8008 N   0  0  0  0  0  0  0  0  0  0  0  0
    7.9226   -2.3999   -0.0879 N   0  0  0  0  0  0  0  0  0  0  0  0
    6.9592   -3.0011   -0.7203 N   0  0  0  0  0  0  0  0  0  0  0  0
    5.8152   -2.4900   -0.2213 N   0  0  0  0  0  0  0  0  0  0  0  0
    4.1914   -0.8205   -2.1472 C   0  0  0  0  0  0  0  0  0  0  0  0
    3.8128    0.8201   -3.5157 H   0  0  0  0  0  0  0  0  0  0  0  0
    3.1695   -0.6965   -5.3817 H   0  0  0  0  0  0  0  0  0  0  0  0
    3.7240   -4.0623   -3.0693 H   0  0  0  0  0  0  0  0  0  0  0  0
    4.5321   -3.9643   -0.8082 H   0  0  0  0  0  0  0  0  0  0  0  0
    2.4895   -2.4774    0.0923 H   0  0  0  0  0  0  0  0  0  0  0  0
    3.5187   -3.3942    1.1731 H   0  0  0  0  0  0  0  0  0  0  0  0
    3.4132    1.5518    1.7188 H   0  0  0  0  0  0  0  0  0  0  0  0
    1.4046    2.2464    3.1431 H   0  0  0  0  0  0  0  0  0  0  0  0
    0.0308    0.1513    4.0241 H   0  0  0  0  0  0  0  0  0  0  0  0
    4.4754   -0.1851   -1.3229 H   0  0  0  0  0  0  0  0  0  0  0  0
  1 20  2  0
  1  2  1  0
  1 21  1  0
  2  3  2  0
  2 22  1  0
  3  4  1  0
  4  5  2  0
  4 23  1  0
  5  6  1  0
  5 20  1  0
  6 19  1  0
  6  7  1  0
  6 24  1  6
  7  8  1  0
  7 25  1  0
  7 26  1  0
  8  9  1  0
  8 14  2  0
  9 13  1  0
  9 10  2  0
 10 11  1  0
 10 27  1  0
 11 12  2  0
 11 28  1  0
 12 13  1  0
 12 29  1  0
 14 15  1  0
 15 19  1  0
 15 16  2  0
 16 17  1  0
 17 18  2  0
 18 19  1  0
 20 30  1  0
M  END
>  <i_m_ct_stereo_status>  (188) 
1

>  <s_m_source_file>  (188) 
/var/tmp/pbs.5076255.sched01/tmpln0nb48r/86bqtw16pk.sdf

>  <i_m_source_file_index>  (188) 
7

>  <i_lp_mmshare_version>  (188) 
48012

>  <i_f3d_flags>  (188) 
0

>  <s_epik_input>  (188) 
W2NIXTFbY0hdW2NIXW5bY0hdYzFbQ0BASF0obihjMjMpbm5uMylbQ0gyXUMoPU4yKWM0W2NIXVtjSF1bY0hdczQ=

>  <s_epik_cmdline>  (188) 
J2VwaWtfcHl0aG9uJywgJy1waHQnLCAnMi4wJywgJy1waCcsICc3LjAnLCAnLXRuJywgJzgnLCAnLW1hJywgJzIwMCcsICctaW1hZScsICc8aW5maWxlLm1hZT4nLCAnLW9tYWUnLCAnPG91dGZpbGUubWFlPic=

>  <r_lp_tautomer_probability>  (188) 
0.999601

>  <r_epik_Ionization_Penalty>  (188) 
0.000451073

>  <r_epik_Ionization_Penalty_Charging>  (188) 
0

>  <r_epik_Ionization_Penalty_Neutral>  (188) 
0.000451073

>  <r_epik_State_Penalty>  (188) 
0.000277875

>  <r_epik_Charging_Adjusted_Penalty>  (188) 
0.000277875

>  <i_epik_Tot_Q>  (188) 
0

>  <i_epik_Tot_abs_Q>  (188) 
0

>  <s_epik_Chemistry_Notes>  (188) 
This compound has an imine and may undergo hydrolysis.

>  <s_lp_Force_Field>  (188) 
OPLS3e

>  <r_lp_Energy>  (188) 
30.8652

>  <b_lp_Chiralities_Consistent>  (188) 
1

>  <s_lp_Variant>  (188) 
57:0-1

>  <s_i_glide_gridfile>  (188) 
pfpi4k_grid

>  <i_i_glide_lignum>  (188) 
7

>  <i_i_glide_rotatable_bonds>  (188) 
2

>  <r_i_docking_score>  (188) 
-4.02661

>  <r_i_glide_ligand_efficiency>  (188) 
-0.20133

>  <r_i_glide_ligand_efficiency_sa>  (188) 
-0.546495

>  <r_i_glide_ligand_efficiency_ln>  (188) 
-1.00773

>  <r_i_glide_gscore>  (188) 
-4.02661

>  <r_i_glide_lipo>  (188) 
-0.290993

>  <r_i_glide_hbond>  (188) 
-0.32

>  <r_i_glide_metal>  (188) 
-0

>  <r_i_glide_rewards>  (188) 
-1.65997

>  <r_i_glide_evdw>  (188) 
-29.7512

>  <r_i_glide_ecoul>  (188) 
-4.52084

>  <r_i_glide_erotb>  (188) 
0.453957

>  <r_i_glide_esite>  (188) 
-0.0439199

>  <r_i_glide_emodel>  (188) 
-42.5484

>  <r_i_glide_energy>  (188) 
-34.272

>  <r_i_glide_einternal>  (188) 
1.3765

>  <r_i_glide_intrahb_reward>  (188) 
-0

>  <i_i_glide_confnum>  (188) 
6

>  <i_i_glide_posenum>  (188) 
8

>  <r_i_glide_eff_state_penalty>  (188) 
0

>  <ligand_id>  (188) 
57

>  <original_smiles>  (188) 
c1cncc(C2CC(c3cccs3)=Nc3nnnn32)c1

>  <smiles>  (188) 
[H]c1nc([H])c(C2([H])n3nnnc3N=C(c3sc([H])c([H])c3[H])C2([H])[H])c([H])c1[H]

$$$$
57:0:1
     RDKit          3D

 30 33  0  0  1  0  0  0  0  0999 V2000
    3.8193   -0.2520   -3.3194 C   0  0  0  0  0  0  0  0  0  0  0  0
    3.4270   -1.0827   -4.3741 C   0  0  0  0  0  0  0  0  0  0  0  0
    3.4703   -2.4287   -4.3076 N   0  0  0  0  0  0  0  0  0  0  0  0
    3.8636   -2.9944   -3.1468 C   0  0  0  0  0  0  0  0  0  0  0  0
    4.2624   -2.2481   -2.0162 C   0  0  0  0  0  0  0  0  0  0  0  0
    4.6934   -2.9293   -0.7190 C   0  0  2  0  0  0  0  0  0  0  0  0
    3.8637   -2.4844    0.5103 C   0  0  0  0  0  0  0  0  0  0  0  0
    4.4663   -1.2852    1.2747 C   0  0  0  0  0  0  0  0  0  0  0  0
    3.6099   -0.4230    2.0717 C   0  0  0  0  0  0  0  0  0  0  0  0
    2.3571    0.0576    1.7876 C   0  0  0  0  0  0  0  0  0  0  0  0
    1.8182    0.8716    2.8223 C   0  0  0  0  0  0  0  0  0  0  0  0
    2.6590    0.9981    3.8920 C   0  0  0  0  0  0  0  0  0  0  0  0
    4.1487    0.1343    3.6407 S   0  0  0  0  0  0  0  0  0  0  0  0
    5.7302   -1.0607    1.2301 N   0  0  0  0  0  0  0  0  0  0  0  0
    6.5774   -1.8158    0.4731 C   0  0  0  0  0  0  0  0  0  0  0  0
    7.9009   -1.8600    0.4310 N   0  0  0  0  0  0  0  0  0  0  0  0
    8.1909   -2.8294   -0.5099 N   0  0  0  0  0  0  0  0  0  0  0  0
    7.1065   -3.3081   -1.0382 N   0  0  0  0  0  0  0  0  0  0  0  0
    6.0835   -2.6835   -0.4214 N   0  0  0  0  0  0  0  0  0  0  0  0
    4.2408   -0.8442   -2.1204 C   0  0  0  0  0  0  0  0  0  0  0  0
    3.7943    0.8233   -3.4266 H   0  0  0  0  0  0  0  0  0  0  0  0
    3.1107   -0.6575   -5.3157 H   0  0  0  0  0  0  0  0  0  0  0  0
    3.8523   -4.0722   -3.1344 H   0  0  0  0  0  0  0  0  0  0  0  0
    4.5802   -4.0084   -0.8462 H   0  0  0  0  0  0  0  0  0  0  0  0
    2.8187   -2.3089    0.2375 H   0  0  0  0  0  0  0  0  0  0  0  0
    3.8582   -3.3155    1.2160 H   0  0  0  0  0  0  0  0  0  0  0  0
    1.8095   -0.1361    0.8805 H   0  0  0  0  0  0  0  0  0  0  0  0
    0.8397    1.3268    2.7397 H   0  0  0  0  0  0  0  0  0  0  0  0
    2.4985    1.5525    4.8073 H   0  0  0  0  0  0  0  0  0  0  0  0
    4.5379   -0.2221   -1.2920 H   0  0  0  0  0  0  0  0  0  0  0  0
  1 20  2  0
  1  2  1  0
  1 21  1  0
  2  3  2  0
  2 22  1  0
  3  4  1  0
  4  5  2  0
  4 23  1  0
  5  6  1  0
  5 20  1  0
  6 19  1  0
  6  7  1  0
  6 24  1  6
  7  8  1  0
  7 25  1  0
  7 26  1  0
  8  9  1  0
  8 14  2  0
  9 13  1  0
  9 10  2  0
 10 11  1  0
 10 27  1  0
 11 12  2  0
 11 28  1  0
 12 13  1  0
 12 29  1  0
 14 15  1  0
 15 19  1  0
 15 16  2  0
 16 17  1  0
 17 18  2  0
 18 19  1  0
 20 30  1  0
M  END
>  <i_m_ct_stereo_status>  (189) 
1

>  <s_m_source_file>  (189) 
/var/tmp/pbs.5076255.sched01/tmpln0nb48r/86bqtw16pk.sdf

>  <i_m_source_file_index>  (189) 
7

>  <i_lp_mmshare_version>  (189) 
48012

>  <i_f3d_flags>  (189) 
0

>  <s_epik_input>  (189) 
W2NIXTFbY0hdW2NIXW5bY0hdYzFbQ0BASF0obihjMjMpbm5uMylbQ0gyXUMoPU4yKWM0W2NIXVtjSF1bY0hdczQ=

>  <s_epik_cmdline>  (189) 
J2VwaWtfcHl0aG9uJywgJy1waHQnLCAnMi4wJywgJy1waCcsICc3LjAnLCAnLXRuJywgJzgnLCAnLW1hJywgJzIwMCcsICctaW1hZScsICc8aW5maWxlLm1hZT4nLCAnLW9tYWUnLCAnPG91dGZpbGUubWFlPic=

>  <r_lp_tautomer_probability>  (189) 
0.999601

>  <r_epik_Ionization_Penalty>  (189) 
0.000451073

>  <r_epik_Ionization_Penalty_Charging>  (189) 
0

>  <r_epik_Ionization_Penalty_Neutral>  (189) 
0.000451073

>  <r_epik_State_Penalty>  (189) 
0.000277875

>  <r_epik_Charging_Adjusted_Penalty>  (189) 
0.000277875

>  <i_epik_Tot_Q>  (189) 
0

>  <i_epik_Tot_abs_Q>  (189) 
0

>  <s_epik_Chemistry_Notes>  (189) 
This compound has an imine and may undergo hydrolysis.

>  <s_lp_Force_Field>  (189) 
OPLS3e

>  <r_lp_Energy>  (189) 
30.8652

>  <b_lp_Chiralities_Consistent>  (189) 
1

>  <s_lp_Variant>  (189) 
57:0-1

>  <s_i_glide_gridfile>  (189) 
pfpi4k_grid

>  <i_i_glide_lignum>  (189) 
7

>  <i_i_glide_rotatable_bonds>  (189) 
2

>  <r_i_docking_score>  (189) 
-3.98929

>  <r_i_glide_ligand_efficiency>  (189) 
-0.199464

>  <r_i_glide_ligand_efficiency_sa>  (189) 
-0.541429

>  <r_i_glide_ligand_efficiency_ln>  (189) 
-0.998387

>  <r_i_glide_gscore>  (189) 
-3.98929

>  <r_i_glide_lipo>  (189) 
-0.287434

>  <r_i_glide_hbond>  (189) 
-0.32

>  <r_i_glide_metal>  (189) 
-0

>  <r_i_glide_rewards>  (189) 
-1.56258

>  <r_i_glide_evdw>  (189) 
-30.7799

>  <r_i_glide_ecoul>  (189) 
-4.87206

>  <r_i_glide_erotb>  (189) 
0.453957

>  <r_i_glide_esite>  (189) 
-0.0034198

>  <r_i_glide_emodel>  (189) 
-43.6954

>  <r_i_glide_energy>  (189) 
-35.652

>  <r_i_glide_einternal>  (189) 
1.65349

>  <r_i_glide_intrahb_reward>  (189) 
-0

>  <i_i_glide_confnum>  (189) 
6

>  <i_i_glide_posenum>  (189) 
21

>  <r_i_glide_eff_state_penalty>  (189) 
0

>  <ligand_id>  (189) 
57

>  <original_smiles>  (189) 
c1cncc(C2CC(c3cccs3)=Nc3nnnn32)c1

>  <smiles>  (189) 
[H]c1nc([H])c(C2([H])n3nnnc3N=C(c3sc([H])c([H])c3[H])C2([H])[H])c([H])c1[H]

$$$$
57:0:2
     RDKit          3D

 30 33  0  0  1  0  0  0  0  0999 V2000
    2.5960   -2.3103   -3.9108 C   0  0  0  0  0  0  0  0  0  0  0  0
    3.0260   -1.0108   -4.2409 C   0  0  0  0  0  0  0  0  0  0  0  0
    3.8605   -0.2985   -3.4637 N   0  0  0  0  0  0  0  0  0  0  0  0
    4.2581   -0.8512   -2.3017 C   0  0  0  0  0  0  0  0  0  0  0  0
    3.8700   -2.1367   -1.8635 C   0  0  0  0  0  0  0  0  0  0  0  0
    4.3422   -2.7098   -0.5271 C   0  0  2  0  0  0  0  0  0  0  0  0
    3.5098   -2.2060    0.6706 C   0  0  0  0  0  0  0  0  0  0  0  0
    4.0827   -0.9405    1.3316 C   0  0  0  0  0  0  0  0  0  0  0  0
    3.2087   -0.0598    2.0891 C   0  0  0  0  0  0  0  0  0  0  0  0
    1.9530    0.3954    1.7809 C   0  0  0  0  0  0  0  0  0  0  0  0
    1.3960    1.2533    2.7699 C   0  0  0  0  0  0  0  0  0  0  0  0
    2.2329    1.4462    3.8372 C   0  0  0  0  0  0  0  0  0  0  0  0
    3.7138    0.5456    3.6497 S   0  0  0  0  0  0  0  0  0  0  0  0
    5.3429   -0.6822    1.2569 N   0  0  0  0  0  0  0  0  0  0  0  0
    6.2088   -1.4686    0.5518 C   0  0  0  0  0  0  0  0  0  0  0  0
    7.5372   -1.4694    0.4736 N   0  0  0  0  0  0  0  0  0  0  0  0
    7.8358   -2.5309   -0.3683 N   0  0  0  0  0  0  0  0  0  0  0  0
    6.7515   -3.0764   -0.8363 N   0  0  0  0  0  0  0  0  0  0  0  0
    5.7254   -2.4214   -0.2559 N   0  0  0  0  0  0  0  0  0  0  0  0
    3.0076   -2.8760   -2.6976 C   0  0  0  0  0  0  0  0  0  0  0  0
    1.9143   -2.8535   -4.5487 H   0  0  0  0  0  0  0  0  0  0  0  0
    2.7080   -0.5346   -5.1529 H   0  0  0  0  0  0  0  0  0  0  0  0
    4.9171   -0.2523   -1.7000 H   0  0  0  0  0  0  0  0  0  0  0  0
    4.2506   -3.7971   -0.5872 H   0  0  0  0  0  0  0  0  0  0  0  0
    2.4592   -2.0768    0.4063 H   0  0  0  0  0  0  0  0  0  0  0  0
    3.5334   -2.9781    1.4371 H   0  0  0  0  0  0  0  0  0  0  0  0
    1.4144    0.1471    0.8792 H   0  0  0  0  0  0  0  0  0  0  0  0
    0.4154    1.6924    2.6601 H   0  0  0  0  0  0  0  0  0  0  0  0
    2.0635    2.0579    4.7148 H   0  0  0  0  0  0  0  0  0  0  0  0
    2.6531   -3.8524   -2.4103 H   0  0  0  0  0  0  0  0  0  0  0  0
  1 20  2  0
  1  2  1  0
  1 21  1  0
  2  3  2  0
  2 22  1  0
  3  4  1  0
  4  5  2  0
  4 23  1  0
  5  6  1  0
  5 20  1  0
  6 19  1  0
  6  7  1  0
  6 24  1  6
  7  8  1  0
  7 25  1  0
  7 26  1  0
  8  9  1  0
  8 14  2  0
  9 13  1  0
  9 10  2  0
 10 11  1  0
 10 27  1  0
 11 12  2  0
 11 28  1  0
 12 13  1  0
 12 29  1  0
 14 15  1  0
 15 19  1  0
 15 16  2  0
 16 17  1  0
 17 18  2  0
 18 19  1  0
 20 30  1  0
M  END
>  <i_m_ct_stereo_status>  (190) 
1

>  <s_m_source_file>  (190) 
/var/tmp/pbs.5076255.sched01/tmpln0nb48r/86bqtw16pk.sdf

>  <i_m_source_file_index>  (190) 
7

>  <i_lp_mmshare_version>  (190) 
48012

>  <i_f3d_flags>  (190) 
0

>  <s_epik_input>  (190) 
W2NIXTFbY0hdW2NIXW5bY0hdYzFbQ0BASF0obihjMjMpbm5uMylbQ0gyXUMoPU4yKWM0W2NIXVtjSF1bY0hdczQ=

>  <s_epik_cmdline>  (190) 
J2VwaWtfcHl0aG9uJywgJy1waHQnLCAnMi4wJywgJy1waCcsICc3LjAnLCAnLXRuJywgJzgnLCAnLW1hJywgJzIwMCcsICctaW1hZScsICc8aW5maWxlLm1hZT4nLCAnLW9tYWUnLCAnPG91dGZpbGUubWFlPic=

>  <r_lp_tautomer_probability>  (190) 
0.999601

>  <r_epik_Ionization_Penalty>  (190) 
0.000451073

>  <r_epik_Ionization_Penalty_Charging>  (190) 
0

>  <r_epik_Ionization_Penalty_Neutral>  (190) 
0.000451073

>  <r_epik_State_Penalty>  (190) 
0.000277875

>  <r_epik_Charging_Adjusted_Penalty>  (190) 
0.000277875

>  <i_epik_Tot_Q>  (190) 
0

>  <i_epik_Tot_abs_Q>  (190) 
0

>  <s_epik_Chemistry_Notes>  (190) 
This compound has an imine and may undergo hydrolysis.

>  <s_lp_Force_Field>  (190) 
OPLS3e

>  <r_lp_Energy>  (190) 
30.8652

>  <b_lp_Chiralities_Consistent>  (190) 
1

>  <s_lp_Variant>  (190) 
57:0-1

>  <s_i_glide_gridfile>  (190) 
pfpi4k_grid

>  <i_i_glide_lignum>  (190) 
7

>  <i_i_glide_rotatable_bonds>  (190) 
2

>  <r_i_docking_score>  (190) 
-3.63007

>  <r_i_glide_ligand_efficiency>  (190) 
-0.181504

>  <r_i_glide_ligand_efficiency_sa>  (190) 
-0.492677

>  <r_i_glide_ligand_efficiency_ln>  (190) 
-0.908487

>  <r_i_glide_gscore>  (190) 
-3.63007

>  <r_i_glide_lipo>  (190) 
-0.258249

>  <r_i_glide_hbond>  (190) 
0

>  <r_i_glide_metal>  (190) 
-0

>  <r_i_glide_rewards>  (190) 
-1.65162

>  <r_i_glide_evdw>  (190) 
-30.753

>  <r_i_glide_ecoul>  (190) 
-3.88342

>  <r_i_glide_erotb>  (190) 
0.453957

>  <r_i_glide_esite>  (190) 
-0.0539966

>  <r_i_glide_emodel>  (190) 
-41.8935

>  <r_i_glide_energy>  (190) 
-34.6365

>  <r_i_glide_einternal>  (190) 
1.59894

>  <r_i_glide_intrahb_reward>  (190) 
-0

>  <i_i_glide_confnum>  (190) 
3

>  <i_i_glide_posenum>  (190) 
28

>  <r_i_glide_eff_state_penalty>  (190) 
0

>  <ligand_id>  (190) 
57

>  <original_smiles>  (190) 
c1cncc(C2CC(c3cccs3)=Nc3nnnn32)c1

>  <smiles>  (190) 
[H]c1nc([H])c(C2([H])n3nnnc3N=C(c3sc([H])c([H])c3[H])C2([H])[H])c([H])c1[H]

$$$$
59:0:0
     RDKit          3D

 53 59  0  0  1  0  0  0  0  0999 V2000
    8.2420   -5.5191    1.1909 C   0  0  0  0  0  0  0  0  0  0  0  0
    7.1458   -5.1685    0.3633 O   0  0  0  0  0  0  0  0  0  0  0  0
    5.8917   -5.3615    0.8717 C   0  0  0  0  0  0  0  0  0  0  0  0
    5.4821   -6.6318    1.4116 C   0  0  0  0  0  0  0  0  0  0  0  0
    6.2702   -7.7252    1.3656 O   0  0  0  0  0  0  0  0  0  0  0  0
    4.1926   -6.7532    1.9842 C   0  0  0  0  0  0  0  0  0  0  0  0
    3.3296   -5.6619    2.0576 C   0  0  0  0  0  0  0  0  0  0  0  0
    3.7329   -4.4136    1.5045 C   0  0  0  0  0  0  0  0  0  0  0  0
    4.9765   -4.2918    0.8509 C   0  0  0  0  0  0  0  0  0  0  0  0
    5.2745   -2.9288    0.1573 C   0  0  2  0  0  0  0  0  0  0  0  0
    5.9563   -1.9399    1.1610 C   0  0  1  0  0  0  0  0  0  0  0  0
    7.3776   -2.1170    1.1379 O   0  0  0  0  0  0  0  0  0  0  0  0
    8.1871   -1.4322    0.1818 C   0  0  0  0  0  0  0  0  0  0  0  0
    5.5229   -0.4496    1.0802 C   0  0  0  0  0  0  0  0  0  0  0  0
    4.2588   -0.2519    0.2365 C   0  0  2  0  0  0  0  0  0  0  0  0
    2.9954   -0.7480    0.9305 C   0  0  0  0  0  0  0  0  0  0  0  0
    2.8225   -2.2265    0.5212 C   0  0  2  0  0  0  0  0  0  0  0  0
    2.8368   -3.2091    1.7076 C   0  0  0  0  0  0  0  0  0  0  0  0
    3.9192   -2.4497   -0.5098 C   0  0  2  0  0  0  0  0  0  0  0  0
    3.6339   -3.3620   -1.7549 C   0  0  0  0  0  0  0  0  0  0  0  0
    5.0330   -3.8522   -2.0209 C   0  0  1  0  0  0  0  0  0  0  0  0
    6.0620   -3.4803   -3.0409 C   0  0  0  0  0  0  0  0  0  0  0  0
    6.9413   -3.4176   -2.0140 C   0  0  0  0  0  0  0  0  0  0  0  0
    5.8086   -2.8297   -1.2138 C   0  0  2  0  0  0  0  0  0  0  0  0
    5.6285   -1.4216   -1.5338 O   0  0  0  0  0  0  0  0  0  0  0  0
    4.3380   -1.0905   -1.0664 C   0  0  2  0  0  0  0  0  0  0  0  0
    3.6017   -0.4938   -2.2983 C   0  0  0  0  0  0  0  0  0  0  0  0
    9.1431   -5.0480    0.8046 H   0  0  0  0  0  0  0  0  0  0  0  0
    8.4346   -6.5900    1.2132 H   0  0  0  0  0  0  0  0  0  0  0  0
    8.0844   -5.1591    2.2096 H   0  0  0  0  0  0  0  0  0  0  0  0
    5.8853   -8.4898    1.7671 H   0  0  0  0  0  0  0  0  0  0  0  0
    3.8799   -7.7041    2.3943 H   0  0  0  0  0  0  0  0  0  0  0  0
    2.3723   -5.7525    2.5374 H   0  0  0  0  0  0  0  0  0  0  0  0
    5.6243   -2.2648    2.1503 H   0  0  0  0  0  0  0  0  0  0  0  0
    9.2138   -1.7920    0.2756 H   0  0  0  0  0  0  0  0  0  0  0  0
    8.1923   -0.3648    0.3741 H   0  0  0  0  0  0  0  0  0  0  0  0
    7.9013   -1.6125   -0.7874 H   0  0  0  0  0  0  0  0  0  0  0  0
    5.3724   -0.0540    2.0959 H   0  0  0  0  0  0  0  0  0  0  0  0
    6.2592    0.1520    0.6094 H   0  0  0  0  0  0  0  0  0  0  0  0
    4.1210    0.8162    0.0926 H   0  0  0  0  0  0  0  0  0  0  0  0
    3.0111   -0.5588    2.0008 H   0  0  0  0  0  0  0  0  0  0  0  0
    2.2038   -0.1323    0.5206 H   0  0  0  0  0  0  0  0  0  0  0  0
    1.8692   -2.3993    0.0406 H   0  0  0  0  0  0  0  0  0  0  0  0
    1.8137   -3.5100    1.9247 H   0  0  0  0  0  0  0  0  0  0  0  0
    3.2021   -2.6992    2.5994 H   0  0  0  0  0  0  0  0  0  0  0  0
    2.9754   -4.1979   -1.4789 H   0  0  0  0  0  0  0  0  0  0  0  0
    3.1988   -2.9209   -2.6395 H   0  0  0  0  0  0  0  0  0  0  0  0
    5.1194   -4.9019   -1.6736 H   0  0  0  0  0  0  0  0  0  0  0  0
    6.1845   -3.7614   -4.0744 H   0  0  0  0  0  0  0  0  0  0  0  0
    8.0341   -3.4211   -1.9025 H   0  0  0  0  0  0  0  0  0  0  0  0
    2.5250   -0.5024   -2.1157 H   0  0  0  0  0  0  0  0  0  0  0  0
    3.7709   -1.0043   -3.2450 H   0  0  0  0  0  0  0  0  0  0  0  0
    3.9503    0.5271   -2.4577 H   0  0  0  0  0  0  0  0  0  0  0  0
  1  2  1  0
  1 28  1  0
  1 29  1  0
  1 30  1  0
  2  3  1  0
  3  9  2  0
  3  4  1  0
  4  5  1  0
  4  6  2  0
  5 31  1  0
  6  7  1  0
  6 32  1  0
  7  8  2  0
  7 33  1  0
  8 18  1  0
  8  9  1  0
 10  9  1  1
 10 19  1  0
 10 24  1  0
 10 11  1  0
 11 12  1  0
 11 14  1  0
 11 34  1  1
 12 13  1  0
 13 35  1  0
 13 36  1  0
 13 37  1  0
 14 15  1  0
 14 38  1  0
 14 39  1  0
 15 26  1  0
 15 16  1  0
 15 40  1  6
 16 17  1  0
 16 41  1  0
 16 42  1  0
 17 18  1  0
 17 19  1  0
 17 43  1  6
 18 44  1  0
 18 45  1  0
 19 26  1  0
 19 20  1  6
 20 21  1  0
 20 46  1  0
 20 47  1  0
 21 24  1  0
 21 22  1  0
 21 48  1  1
 22 23  2  0
 22 49  1  0
 23 24  1  0
 23 50  1  0
 24 25  1  6
 25 26  1  0
 26 27  1  6
 27 51  1  0
 27 52  1  0
 27 53  1  0
M  END
>  <i_m_ct_stereo_status>  (191) 
1

>  <s_m_source_file>  (191) 
/var/tmp/pbs.5076255.sched01/tmpln0nb48r/86bqtw16pk.sdf

>  <i_m_source_file_index>  (191) 
10

>  <i_lp_mmshare_version>  (191) 
48012

>  <i_f3d_flags>  (191) 
0

>  <s_epik_input>  (191) 
W2NIXTFbY0hdYyhbT0hdKWMoT1tDSDNdKWMyYzFbQ0gyXVtDQEhdKFtDQEBdMzRbQ0BdMjU2KVtDSDJdW0NAQEhdKFtDSDJdW0NAQEhdNU9bQ0gzXSlbQ0BAXTQoW0NIM10pT1tDQF02N1tDQEBIXShbQ0gyXTMpW0NIXT1bQ0hdNw==

>  <s_epik_cmdline>  (191) 
J2VwaWtfcHl0aG9uJywgJy1waHQnLCAnMi4wJywgJy1waCcsICc3LjAnLCAnLXRuJywgJzgnLCAnLW1hJywgJzIwMCcsICctaW1hZScsICc8aW5maWxlLm1hZT4nLCAnLW9tYWUnLCAnPG91dGZpbGUubWFlPic=

>  <r_lp_tautomer_probability>  (191) 
1

>  <r_epik_Ionization_Penalty>  (191) 
0.00010818

>  <r_epik_Ionization_Penalty_Charging>  (191) 
0

>  <r_epik_Ionization_Penalty_Neutral>  (191) 
0.00010818

>  <r_epik_State_Penalty>  (191) 
-0

>  <r_epik_Charging_Adjusted_Penalty>  (191) 
0

>  <i_epik_Tot_Q>  (191) 
0

>  <i_epik_Tot_abs_Q>  (191) 
0

>  <s_lp_Force_Field>  (191) 
OPLS3e

>  <r_lp_Energy>  (191) 
128.839

>  <b_lp_Chiralities_Consistent>  (191) 
1

>  <s_lp_Variant>  (191) 
59:0-1

>  <s_i_glide_gridfile>  (191) 
pfpi4k_grid

>  <i_i_glide_lignum>  (191) 
10

>  <i_i_glide_rotatable_bonds>  (191) 
3

>  <r_i_docking_score>  (191) 
-2.53523

>  <r_i_glide_ligand_efficiency>  (191) 
-0.0938976

>  <r_i_glide_ligand_efficiency_sa>  (191) 
-0.281693

>  <r_i_glide_ligand_efficiency_ln>  (191) 
-0.590161

>  <r_i_glide_gscore>  (191) 
-2.53523

>  <r_i_glide_lipo>  (191) 
-0.897076

>  <r_i_glide_hbond>  (191) 
-0.0354746

>  <r_i_glide_metal>  (191) 
-0

>  <r_i_glide_rewards>  (191) 
-0.910567

>  <r_i_glide_evdw>  (191) 
-4.61844

>  <r_i_glide_ecoul>  (191) 
-3.07463

>  <r_i_glide_erotb>  (191) 
0

>  <r_i_glide_esite>  (191) 
0

>  <r_i_glide_emodel>  (191) 
-0.0324357

>  <r_i_glide_energy>  (191) 
-7.69307

>  <r_i_glide_einternal>  (191) 
15.4989

>  <r_i_glide_intrahb_reward>  (191) 
-0

>  <i_i_glide_confnum>  (191) 
2

>  <i_i_glide_posenum>  (191) 
8

>  <r_i_glide_eff_state_penalty>  (191) 
0

>  <ligand_id>  (191) 
59

>  <original_smiles>  (191) 
COc1c(O)ccc2c1C13C(OC)CC4CC(C2)C12CC1C=CC13OC42C

>  <smiles>  (191) 
[H]Oc1c([H])c([H])c2c(c1OC([H])([H])[H])C13C([H])(OC([H])([H])[H])C([H])([H])C4([H])C([H])([H])C([H])(C2([H])[H])C12C([H])([H])C1([H])C([H])=C([H])C13OC42C([H])([H])[H]

$$$$
59:0:1
     RDKit          3D

 53 59  0  0  1  0  0  0  0  0999 V2000
    1.9674   -4.4889    4.3116 C   0  0  0  0  0  0  0  0  0  0  0  0
    2.0451   -3.8491    3.0429 O   0  0  0  0  0  0  0  0  0  0  0  0
    2.5577   -2.5755    3.0431 C   0  0  0  0  0  0  0  0  0  0  0  0
    1.9626   -1.5407    3.8110 C   0  0  0  0  0  0  0  0  0  0  0  0
    0.8238   -1.7376    4.5279 O   0  0  0  0  0  0  0  0  0  0  0  0
    2.5375   -0.2579    3.8217 C   0  0  0  0  0  0  0  0  0  0  0  0
    3.7048    0.0052    3.0930 C   0  0  0  0  0  0  0  0  0  0  0  0
    4.2924   -1.0052    2.3096 C   0  0  0  0  0  0  0  0  0  0  0  0
    3.6878   -2.2911    2.2314 C   0  0  0  0  0  0  0  0  0  0  0  0
    4.3219   -3.3131    1.2614 C   0  0  2  0  0  0  0  0  0  0  0  0
    5.4508   -4.1551    1.9793 C   0  0  1  0  0  0  0  0  0  0  0  0
    4.9325   -5.3304    2.6188 O   0  0  0  0  0  0  0  0  0  0  0  0
    4.7155   -6.5205    1.8665 C   0  0  0  0  0  0  0  0  0  0  0  0
    6.7251   -4.4563    1.1548 C   0  0  0  0  0  0  0  0  0  0  0  0
    6.8002   -3.6554   -0.1422 C   0  0  2  0  0  0  0  0  0  0  0  0
    7.1433   -2.1649    0.0672 C   0  0  0  0  0  0  0  0  0  0  0  0
    5.7861   -1.4268    0.2266 C   0  0  2  0  0  0  0  0  0  0  0  0
    5.6177   -0.7398    1.6091 C   0  0  0  0  0  0  0  0  0  0  0  0
    4.7381   -2.5129   -0.0439 C   0  0  2  0  0  0  0  0  0  0  0  0
    3.4124   -2.1291   -0.8278 C   0  0  0  0  0  0  0  0  0  0  0  0
    2.4561   -3.1265   -0.2367 C   0  0  1  0  0  0  0  0  0  0  0  0
    1.8111   -4.4263   -0.7262 C   0  0  0  0  0  0  0  0  0  0  0  0
    2.2533   -5.0223    0.4176 C   0  0  0  0  0  0  0  0  0  0  0  0
    3.4815   -4.1133    0.3130 C   0  0  2  0  0  0  0  0  0  0  0  0
    4.4940   -4.6390   -0.6179 O   0  0  0  0  0  0  0  0  0  0  0  0
    5.4328   -3.6047   -0.8542 C   0  0  2  0  0  0  0  0  0  0  0  0
    5.6036   -3.4287   -2.3838 C   0  0  0  0  0  0  0  0  0  0  0  0
    1.8743   -5.5669    4.1711 H   0  0  0  0  0  0  0  0  0  0  0  0
    1.0983   -4.1664    4.8823 H   0  0  0  0  0  0  0  0  0  0  0  0
    2.8682   -4.3044    4.9038 H   0  0  0  0  0  0  0  0  0  0  0  0
    0.5292   -0.9629    4.9705 H   0  0  0  0  0  0  0  0  0  0  0  0
    2.0896    0.5347    4.3952 H   0  0  0  0  0  0  0  0  0  0  0  0
    4.1532    0.9791    3.1379 H   0  0  0  0  0  0  0  0  0  0  0  0
    5.7960   -3.4864    2.7808 H   0  0  0  0  0  0  0  0  0  0  0  0
    4.1552   -7.2112    2.4883 H   0  0  0  0  0  0  0  0  0  0  0  0
    5.6631   -6.9666    1.5956 H   0  0  0  0  0  0  0  0  0  0  0  0
    4.1452   -6.3494    0.9802 H   0  0  0  0  0  0  0  0  0  0  0  0
    7.6167   -4.2869    1.7564 H   0  0  0  0  0  0  0  0  0  0  0  0
    6.7690   -5.4869    0.8374 H   0  0  0  0  0  0  0  0  0  0  0  0
    7.5740   -4.1140   -0.7520 H   0  0  0  0  0  0  0  0  0  0  0  0
    7.8503   -2.0206    0.8881 H   0  0  0  0  0  0  0  0  0  0  0  0
    7.6628   -1.8262   -0.8344 H   0  0  0  0  0  0  0  0  0  0  0  0
    5.7112   -0.6652   -0.5567 H   0  0  0  0  0  0  0  0  0  0  0  0
    5.7907    0.3288    1.4949 H   0  0  0  0  0  0  0  0  0  0  0  0
    6.3905   -1.0919    2.2985 H   0  0  0  0  0  0  0  0  0  0  0  0
    3.1123   -1.1088   -0.5546 H   0  0  0  0  0  0  0  0  0  0  0  0
    3.4641   -2.1497   -1.9160 H   0  0  0  0  0  0  0  0  0  0  0  0
    1.8273   -2.6265    0.4995 H   0  0  0  0  0  0  0  0  0  0  0  0
    1.0687   -4.6420   -1.4534 H   0  0  0  0  0  0  0  0  0  0  0  0
    2.0571   -5.9730    0.8947 H   0  0  0  0  0  0  0  0  0  0  0  0
    6.0037   -2.4500   -2.6468 H   0  0  0  0  0  0  0  0  0  0  0  0
    4.6706   -3.5949   -2.9266 H   0  0  0  0  0  0  0  0  0  0  0  0
    6.2912   -4.1760   -2.7672 H   0  0  0  0  0  0  0  0  0  0  0  0
  1  2  1  0
  1 28  1  0
  1 29  1  0
  1 30  1  0
  2  3  1  0
  3  9  2  0
  3  4  1  0
  4  5  1  0
  4  6  2  0
  5 31  1  0
  6  7  1  0
  6 32  1  0
  7  8  2  0
  7 33  1  0
  8 18  1  0
  8  9  1  0
 10  9  1  1
 10 19  1  0
 10 24  1  0
 10 11  1  0
 11 12  1  0
 11 14  1  0
 11 34  1  1
 12 13  1  0
 13 35  1  0
 13 36  1  0
 13 37  1  0
 14 15  1  0
 14 38  1  0
 14 39  1  0
 15 26  1  0
 15 16  1  0
 15 40  1  6
 16 17  1  0
 16 41  1  0
 16 42  1  0
 17 18  1  0
 17 19  1  0
 17 43  1  6
 18 44  1  0
 18 45  1  0
 19 26  1  0
 19 20  1  6
 20 21  1  0
 20 46  1  0
 20 47  1  0
 21 24  1  0
 21 22  1  0
 21 48  1  1
 22 23  2  0
 22 49  1  0
 23 24  1  0
 23 50  1  0
 24 25  1  6
 25 26  1  0
 26 27  1  6
 27 51  1  0
 27 52  1  0
 27 53  1  0
M  END
>  <i_m_ct_stereo_status>  (192) 
1

>  <s_m_source_file>  (192) 
/var/tmp/pbs.5076255.sched01/tmpln0nb48r/86bqtw16pk.sdf

>  <i_m_source_file_index>  (192) 
10

>  <i_lp_mmshare_version>  (192) 
48012

>  <i_f3d_flags>  (192) 
0

>  <s_epik_input>  (192) 
W2NIXTFbY0hdYyhbT0hdKWMoT1tDSDNdKWMyYzFbQ0gyXVtDQEhdKFtDQEBdMzRbQ0BdMjU2KVtDSDJdW0NAQEhdKFtDSDJdW0NAQEhdNU9bQ0gzXSlbQ0BAXTQoW0NIM10pT1tDQF02N1tDQEBIXShbQ0gyXTMpW0NIXT1bQ0hdNw==

>  <s_epik_cmdline>  (192) 
J2VwaWtfcHl0aG9uJywgJy1waHQnLCAnMi4wJywgJy1waCcsICc3LjAnLCAnLXRuJywgJzgnLCAnLW1hJywgJzIwMCcsICctaW1hZScsICc8aW5maWxlLm1hZT4nLCAnLW9tYWUnLCAnPG91dGZpbGUubWFlPic=

>  <r_lp_tautomer_probability>  (192) 
1

>  <r_epik_Ionization_Penalty>  (192) 
0.00010818

>  <r_epik_Ionization_Penalty_Charging>  (192) 
0

>  <r_epik_Ionization_Penalty_Neutral>  (192) 
0.00010818

>  <r_epik_State_Penalty>  (192) 
-0

>  <r_epik_Charging_Adjusted_Penalty>  (192) 
0

>  <i_epik_Tot_Q>  (192) 
0

>  <i_epik_Tot_abs_Q>  (192) 
0

>  <s_lp_Force_Field>  (192) 
OPLS3e

>  <r_lp_Energy>  (192) 
128.839

>  <b_lp_Chiralities_Consistent>  (192) 
1

>  <s_lp_Variant>  (192) 
59:0-1

>  <s_i_glide_gridfile>  (192) 
pfpi4k_grid

>  <i_i_glide_lignum>  (192) 
10

>  <i_i_glide_rotatable_bonds>  (192) 
3

>  <r_i_docking_score>  (192) 
-2.08064

>  <r_i_glide_ligand_efficiency>  (192) 
-0.0770606

>  <r_i_glide_ligand_efficiency_sa>  (192) 
-0.231182

>  <r_i_glide_ligand_efficiency_ln>  (192) 
-0.484338

>  <r_i_glide_gscore>  (192) 
-2.08064

>  <r_i_glide_lipo>  (192) 
-0.78848

>  <r_i_glide_hbond>  (192) 
0

>  <r_i_glide_metal>  (192) 
-0

>  <r_i_glide_rewards>  (192) 
-0.910567

>  <r_i_glide_evdw>  (192) 
-17.1258

>  <r_i_glide_ecoul>  (192) 
3.16468

>  <r_i_glide_erotb>  (192) 
0

>  <r_i_glide_esite>  (192) 
0

>  <r_i_glide_emodel>  (192) 
-6.52941

>  <r_i_glide_energy>  (192) 
-13.9611

>  <r_i_glide_einternal>  (192) 
15.3432

>  <r_i_glide_intrahb_reward>  (192) 
-0

>  <i_i_glide_confnum>  (192) 
2

>  <i_i_glide_posenum>  (192) 
10

>  <r_i_glide_eff_state_penalty>  (192) 
0

>  <ligand_id>  (192) 
59

>  <original_smiles>  (192) 
COc1c(O)ccc2c1C13C(OC)CC4CC(C2)C12CC1C=CC13OC42C

>  <smiles>  (192) 
[H]Oc1c([H])c([H])c2c(c1OC([H])([H])[H])C13C([H])(OC([H])([H])[H])C([H])([H])C4([H])C([H])([H])C([H])(C2([H])[H])C12C([H])([H])C1([H])C([H])=C([H])C13OC42C([H])([H])[H]

$$$$
59:0:2
     RDKit          3D

 53 59  0  0  1  0  0  0  0  0999 V2000
    5.3213   -0.3225   -2.1899 C   0  0  0  0  0  0  0  0  0  0  0  0
    4.4919   -0.6626   -1.1393 O   0  0  0  0  0  0  0  0  0  0  0  0
    3.6729   -1.6833   -1.4684 C   0  0  0  0  0  0  0  0  0  0  0  0
    2.9216   -1.6658   -2.6742 C   0  0  0  0  0  0  0  0  0  0  0  0
    2.9103   -0.6146   -3.5448 O   0  0  0  0  0  0  0  0  0  0  0  0
    2.0706   -2.7170   -2.9579 C   0  0  0  0  0  0  0  0  0  0  0  0
    1.9516   -3.7700   -2.0578 C   0  0  0  0  0  0  0  0  0  0  0  0
    2.7882   -3.8669   -0.9481 C   0  0  0  0  0  0  0  0  0  0  0  0
    3.6261   -2.8175   -0.6109 C   0  0  0  0  0  0  0  0  0  0  0  0
    4.4464   -2.9916    0.6829 C   0  0  2  0  0  0  0  0  0  0  0  0
    5.8121   -3.6824    0.3654 C   0  0  1  0  0  0  0  0  0  0  0  0
    6.7638   -2.6602    0.0520 O   0  0  0  0  0  0  0  0  0  0  0  0
    7.9401   -3.0785   -0.6178 C   0  0  0  0  0  0  0  0  0  0  0  0
    6.3407   -4.6132    1.4867 C   0  0  0  0  0  0  0  0  0  0  0  0
    5.2514   -5.0563    2.4765 C   0  0  2  0  0  0  0  0  0  0  0  0
    4.1959   -6.0043    1.8639 C   0  0  0  0  0  0  0  0  0  0  0  0
    3.0700   -5.0926    1.3146 C   0  0  2  0  0  0  0  0  0  0  0  0
    2.8676   -5.1953   -0.1987 C   0  0  0  0  0  0  0  0  0  0  0  0
    3.4918   -3.6872    1.7393 C   0  0  2  0  0  0  0  0  0  0  0  0
    2.3859   -2.6459    2.1396 C   0  0  0  0  0  0  0  0  0  0  0  0
    3.0903   -1.3662    1.7538 C   0  0  1  0  0  0  0  0  0  0  0  0
    3.7714   -0.2453    2.4997 C   0  0  0  0  0  0  0  0  0  0  0  0
    4.8672   -0.4257    1.7128 C   0  0  0  0  0  0  0  0  0  0  0  0
    4.5337   -1.8942    1.7027 C   0  0  2  0  0  0  0  0  0  0  0  0
    5.0484   -2.5713    2.8835 O   0  0  0  0  0  0  0  0  0  0  0  0
    4.4223   -3.8491    2.9262 C   0  0  2  0  0  0  0  0  0  0  0  0
    3.8048   -4.0671    4.3229 C   0  0  0  0  0  0  0  0  0  0  0  0
    6.2156   -0.0238   -1.7044 H   0  0  0  0  0  0  0  0  0  0  0  0
    4.8502    0.4518   -2.7904 H   0  0  0  0  0  0  0  0  0  0  0  0
    5.5417   -1.2588   -2.7123 H   0  0  0  0  0  0  0  0  0  0  0  0
    2.1213   -0.0984   -3.3851 H   0  0  0  0  0  0  0  0  0  0  0  0
    1.4573   -2.7008   -3.8448 H   0  0  0  0  0  0  0  0  0  0  0  0
    1.3958   -4.6464   -2.2804 H   0  0  0  0  0  0  0  0  0  0  0  0
    5.6717   -4.3153   -0.5114 H   0  0  0  0  0  0  0  0  0  0  0  0
    8.5835   -2.2162   -0.7944 H   0  0  0  0  0  0  0  0  0  0  0  0
    7.6936   -3.5082   -1.5870 H   0  0  0  0  0  0  0  0  0  0  0  0
    8.5107   -3.8008   -0.0344 H   0  0  0  0  0  0  0  0  0  0  0  0
    6.8188   -5.4896    1.0506 H   0  0  0  0  0  0  0  0  0  0  0  0
    7.1137   -4.0978    2.0573 H   0  0  0  0  0  0  0  0  0  0  0  0
    5.7411   -5.5230    3.3323 H   0  0  0  0  0  0  0  0  0  0  0  0
    4.6354   -6.7014    1.1451 H   0  0  0  0  0  0  0  0  0  0  0  0
    3.7814   -6.6216    2.6611 H   0  0  0  0  0  0  0  0  0  0  0  0
    2.1347   -5.3633    1.7990 H   0  0  0  0  0  0  0  0  0  0  0  0
    2.0014   -5.8129   -0.4204 H   0  0  0  0  0  0  0  0  0  0  0  0
    3.7299   -5.7007   -0.6361 H   0  0  0  0  0  0  0  0  0  0  0  0
    1.5070   -2.7662    1.5148 H   0  0  0  0  0  0  0  0  0  0  0  0
    2.0332   -2.6733    3.1588 H   0  0  0  0  0  0  0  0  0  0  0  0
    2.6726   -1.0064    0.8078 H   0  0  0  0  0  0  0  0  0  0  0  0
    3.3953    0.5784    3.0875 H   0  0  0  0  0  0  0  0  0  0  0  0
    5.7593    0.1437    1.4973 H   0  0  0  0  0  0  0  0  0  0  0  0
    3.0389   -4.8460    4.3121 H   0  0  0  0  0  0  0  0  0  0  0  0
    3.3673   -3.1557    4.7357 H   0  0  0  0  0  0  0  0  0  0  0  0
    4.5810   -4.3727    5.0236 H   0  0  0  0  0  0  0  0  0  0  0  0
  1  2  1  0
  1 28  1  0
  1 29  1  0
  1 30  1  0
  2  3  1  0
  3  9  2  0
  3  4  1  0
  4  5  1  0
  4  6  2  0
  5 31  1  0
  6  7  1  0
  6 32  1  0
  7  8  2  0
  7 33  1  0
  8 18  1  0
  8  9  1  0
 10  9  1  6
 10 19  1  0
 10 24  1  0
 10 11  1  0
 11 12  1  0
 11 14  1  0
 11 34  1  6
 12 13  1  0
 13 35  1  0
 13 36  1  0
 13 37  1  0
 14 15  1  0
 14 38  1  0
 14 39  1  0
 15 26  1  0
 15 16  1  0
 15 40  1  1
 16 17  1  0
 16 41  1  0
 16 42  1  0
 17 18  1  0
 17 19  1  0
 17 43  1  1
 18 44  1  0
 18 45  1  0
 19 26  1  0
 19 20  1  1
 20 21  1  0
 20 46  1  0
 20 47  1  0
 21 24  1  0
 21 22  1  0
 21 48  1  6
 22 23  2  0
 22 49  1  0
 23 24  1  0
 23 50  1  0
 24 25  1  1
 25 26  1  0
 26 27  1  1
 27 51  1  0
 27 52  1  0
 27 53  1  0
M  END
>  <i_m_ct_stereo_status>  (193) 
1

>  <s_m_source_file>  (193) 
/var/tmp/pbs.5076255.sched01/tmpln0nb48r/86bqtw16pk.sdf

>  <i_m_source_file_index>  (193) 
10

>  <i_lp_mmshare_version>  (193) 
48012

>  <i_f3d_flags>  (193) 
0

>  <s_epik_input>  (193) 
W2NIXTFbY0hdYyhbT0hdKWMoT1tDSDNdKWMyYzFbQ0gyXVtDQEhdKFtDQEBdMzRbQ0BdMjU2KVtDSDJdW0NAQEhdKFtDSDJdW0NAQEhdNU9bQ0gzXSlbQ0BAXTQoW0NIM10pT1tDQF02N1tDQEBIXShbQ0gyXTMpW0NIXT1bQ0hdNw==

>  <s_epik_cmdline>  (193) 
J2VwaWtfcHl0aG9uJywgJy1waHQnLCAnMi4wJywgJy1waCcsICc3LjAnLCAnLXRuJywgJzgnLCAnLW1hJywgJzIwMCcsICctaW1hZScsICc8aW5maWxlLm1hZT4nLCAnLW9tYWUnLCAnPG91dGZpbGUubWFlPic=

>  <r_lp_tautomer_probability>  (193) 
1

>  <r_epik_Ionization_Penalty>  (193) 
0.00010818

>  <r_epik_Ionization_Penalty_Charging>  (193) 
0

>  <r_epik_Ionization_Penalty_Neutral>  (193) 
0.00010818

>  <r_epik_State_Penalty>  (193) 
-0

>  <r_epik_Charging_Adjusted_Penalty>  (193) 
0

>  <i_epik_Tot_Q>  (193) 
0

>  <i_epik_Tot_abs_Q>  (193) 
0

>  <s_lp_Force_Field>  (193) 
OPLS3e

>  <r_lp_Energy>  (193) 
128.839

>  <b_lp_Chiralities_Consistent>  (193) 
1

>  <s_lp_Variant>  (193) 
59:0-1

>  <s_i_glide_gridfile>  (193) 
pfpi4k_grid

>  <i_i_glide_lignum>  (193) 
10

>  <i_i_glide_rotatable_bonds>  (193) 
3

>  <r_i_docking_score>  (193) 
-1.9638

>  <r_i_glide_ligand_efficiency>  (193) 
-0.0727332

>  <r_i_glide_ligand_efficiency_sa>  (193) 
-0.218199

>  <r_i_glide_ligand_efficiency_ln>  (193) 
-0.457139

>  <r_i_glide_gscore>  (193) 
-1.9638

>  <r_i_glide_lipo>  (193) 
-0.62422

>  <r_i_glide_hbond>  (193) 
0

>  <r_i_glide_metal>  (193) 
-0

>  <r_i_glide_rewards>  (193) 
-0.910567

>  <r_i_glide_evdw>  (193) 
-4.4224

>  <r_i_glide_ecoul>  (193) 
-1.38592

>  <r_i_glide_erotb>  (193) 
0

>  <r_i_glide_esite>  (193) 
0

>  <r_i_glide_emodel>  (193) 
-2.95088

>  <r_i_glide_energy>  (193) 
-5.80832

>  <r_i_glide_einternal>  (193) 
3.35403

>  <r_i_glide_intrahb_reward>  (193) 
-0

>  <i_i_glide_confnum>  (193) 
2

>  <i_i_glide_posenum>  (193) 
35

>  <r_i_glide_eff_state_penalty>  (193) 
0

>  <ligand_id>  (193) 
59

>  <original_smiles>  (193) 
COc1c(O)ccc2c1C13C(OC)CC4CC(C2)C12CC1C=CC13OC42C

>  <smiles>  (193) 
[H]Oc1c([H])c([H])c2c(c1OC([H])([H])[H])C13C([H])(OC([H])([H])[H])C([H])([H])C4([H])C([H])([H])C([H])(C2([H])[H])C12C([H])([H])C1([H])C([H])=C([H])C13OC42C([H])([H])[H]

$$$$
61:0:0
     RDKit          3D

 14 15  0  0  1  0  0  0  0  0999 V2000
   -8.6801   -4.1589   -5.6791 C   0  0  0  0  0  0  0  0  0  0  0  0
   -9.0227   -4.8396   -6.8635 C   0  0  0  0  0  0  0  0  0  0  0  0
   -8.4002   -5.9532   -7.3076 N   0  0  0  0  0  0  0  0  0  0  0  0
   -7.3862   -6.4101   -6.5123 C   0  0  0  0  0  0  0  0  0  0  0  0
   -6.4552   -7.8558   -6.8903 S   0  0  0  0  0  0  0  0  0  0  0  0
   -5.4845   -7.6417   -5.4612 C   0  0  0  0  0  0  0  0  0  0  0  0
   -5.8333   -6.5503   -4.7026 C   0  0  0  0  0  0  0  0  0  0  0  0
   -6.9315   -5.8194   -5.2924 C   0  0  0  0  0  0  0  0  0  0  0  0
   -7.6248   -4.6563   -4.8911 C   0  0  0  0  0  0  0  0  0  0  0  0
   -9.2159   -3.2701   -5.3785 H   0  0  0  0  0  0  0  0  0  0  0  0
   -9.8309   -4.4743   -7.4797 H   0  0  0  0  0  0  0  0  0  0  0  0
   -4.7054   -8.3605   -5.2448 H   0  0  0  0  0  0  0  0  0  0  0  0
   -5.3732   -6.2617   -3.7719 H   0  0  0  0  0  0  0  0  0  0  0  0
   -7.3434   -4.1543   -3.9769 H   0  0  0  0  0  0  0  0  0  0  0  0
  1  9  2  0
  1  2  1  0
  1 10  1  0
  2  3  2  0
  2 11  1  0
  3  4  1  0
  4  8  2  0
  4  5  1  0
  5  6  1  0
  6  7  2  0
  6 12  1  0
  7  8  1  0
  7 13  1  0
  8  9  1  0
  9 14  1  0
M  END
>  <i_m_ct_stereo_status>  (194) 
1

>  <s_m_source_file>  (194) 
/var/tmp/pbs.5076255.sched01/tmpln0nb48r/86bqtw16pk.sdf

>  <i_m_source_file_index>  (194) 
12

>  <i_lp_mmshare_version>  (194) 
48012

>  <i_f3d_flags>  (194) 
0

>  <s_epik_input>  (194) 
bjFbY0hdW2NIXVtjSF1jKGMxMilbY0hdW2NIXXMy

>  <s_epik_cmdline>  (194) 
J2VwaWtfcHl0aG9uJywgJy1waHQnLCAnMi4wJywgJy1waCcsICc3LjAnLCAnLXRuJywgJzgnLCAnLW1hJywgJzIwMCcsICctaW1hZScsICc8aW5maWxlLm1hZT4nLCAnLW9tYWUnLCAnPG91dGZpbGUubWFlPic=

>  <r_lp_tautomer_probability>  (194) 
1

>  <r_epik_Ionization_Penalty>  (194) 
1.78928e-08

>  <r_epik_Ionization_Penalty_Charging>  (194) 
0

>  <r_epik_Ionization_Penalty_Neutral>  (194) 
1.78928e-08

>  <r_epik_State_Penalty>  (194) 
-0

>  <r_epik_Charging_Adjusted_Penalty>  (194) 
0

>  <i_epik_Tot_Q>  (194) 
0

>  <i_epik_Tot_abs_Q>  (194) 
0

>  <s_lp_Force_Field>  (194) 
OPLS3e

>  <r_lp_Energy>  (194) 
14.4303

>  <b_lp_Chiralities_Consistent>  (194) 
1

>  <s_lp_Variant>  (194) 
61:0-1

>  <s_i_glide_gridfile>  (194) 
pfpi4k_grid

>  <i_i_glide_lignum>  (194) 
12

>  <i_i_glide_rotatable_bonds>  (194) 
0

>  <r_i_docking_score>  (194) 
-6.10426

>  <r_i_glide_ligand_efficiency>  (194) 
-0.678251

>  <r_i_glide_ligand_efficiency_sa>  (194) 
-1.41082

>  <r_i_glide_ligand_efficiency_ln>  (194) 
-1.90924

>  <r_i_glide_gscore>  (194) 
-6.10426

>  <r_i_glide_lipo>  (194) 
-2.31782

>  <r_i_glide_hbond>  (194) 
0

>  <r_i_glide_metal>  (194) 
-0

>  <r_i_glide_rewards>  (194) 
-2.72745

>  <r_i_glide_evdw>  (194) 
-19.8961

>  <r_i_glide_ecoul>  (194) 
-0.427865

>  <r_i_glide_erotb>  (194) 
0

>  <r_i_glide_esite>  (194) 
0

>  <r_i_glide_emodel>  (194) 
-27.9607

>  <r_i_glide_energy>  (194) 
-20.324

>  <r_i_glide_einternal>  (194) 
0

>  <r_i_glide_intrahb_reward>  (194) 
-0

>  <i_i_glide_confnum>  (194) 
1

>  <i_i_glide_posenum>  (194) 
14

>  <r_i_glide_eff_state_penalty>  (194) 
0

>  <ligand_id>  (194) 
61

>  <original_smiles>  (194) 
c1cnc2sccc2c1

>  <smiles>  (194) 
[H]c1nc2sc([H])c([H])c2c([H])c1[H]

$$$$
61:0:1
     RDKit          3D

 14 15  0  0  1  0  0  0  0  0999 V2000
   -6.2988   -8.5777   -7.1103 C   0  0  0  0  0  0  0  0  0  0  0  0
   -7.2614   -7.8955   -7.8810 C   0  0  0  0  0  0  0  0  0  0  0  0
   -7.8177   -6.7143   -7.5338 N   0  0  0  0  0  0  0  0  0  0  0  0
   -7.3834   -6.1932   -6.3476 C   0  0  0  0  0  0  0  0  0  0  0  0
   -7.9709   -4.6633   -5.7072 S   0  0  0  0  0  0  0  0  0  0  0  0
   -6.9364   -4.8217   -4.3149 C   0  0  0  0  0  0  0  0  0  0  0  0
   -6.1767   -5.9659   -4.3012 C   0  0  0  0  0  0  0  0  0  0  0  0
   -6.4141   -6.7757   -5.4713 C   0  0  0  0  0  0  0  0  0  0  0  0
   -5.8744   -8.0105   -5.8949 C   0  0  0  0  0  0  0  0  0  0  0  0
   -5.8949   -9.5226   -7.4416 H   0  0  0  0  0  0  0  0  0  0  0  0
   -7.5973   -8.3159   -8.8179 H   0  0  0  0  0  0  0  0  0  0  0  0
   -6.9588   -4.0489   -3.5573 H   0  0  0  0  0  0  0  0  0  0  0  0
   -5.4899   -6.2504   -3.5202 H   0  0  0  0  0  0  0  0  0  0  0  0
   -5.1412   -8.5136   -5.2812 H   0  0  0  0  0  0  0  0  0  0  0  0
  1  9  2  0
  1  2  1  0
  1 10  1  0
  2  3  2  0
  2 11  1  0
  3  4  1  0
  4  8  2  0
  4  5  1  0
  5  6  1  0
  6  7  2  0
  6 12  1  0
  7  8  1  0
  7 13  1  0
  8  9  1  0
  9 14  1  0
M  END
>  <i_m_ct_stereo_status>  (195) 
1

>  <s_m_source_file>  (195) 
/var/tmp/pbs.5076255.sched01/tmpln0nb48r/86bqtw16pk.sdf

>  <i_m_source_file_index>  (195) 
12

>  <i_lp_mmshare_version>  (195) 
48012

>  <i_f3d_flags>  (195) 
0

>  <s_epik_input>  (195) 
bjFbY0hdW2NIXVtjSF1jKGMxMilbY0hdW2NIXXMy

>  <s_epik_cmdline>  (195) 
J2VwaWtfcHl0aG9uJywgJy1waHQnLCAnMi4wJywgJy1waCcsICc3LjAnLCAnLXRuJywgJzgnLCAnLW1hJywgJzIwMCcsICctaW1hZScsICc8aW5maWxlLm1hZT4nLCAnLW9tYWUnLCAnPG91dGZpbGUubWFlPic=

>  <r_lp_tautomer_probability>  (195) 
1

>  <r_epik_Ionization_Penalty>  (195) 
1.78928e-08

>  <r_epik_Ionization_Penalty_Charging>  (195) 
0

>  <r_epik_Ionization_Penalty_Neutral>  (195) 
1.78928e-08

>  <r_epik_State_Penalty>  (195) 
-0

>  <r_epik_Charging_Adjusted_Penalty>  (195) 
0

>  <i_epik_Tot_Q>  (195) 
0

>  <i_epik_Tot_abs_Q>  (195) 
0

>  <s_lp_Force_Field>  (195) 
OPLS3e

>  <r_lp_Energy>  (195) 
14.4303

>  <b_lp_Chiralities_Consistent>  (195) 
1

>  <s_lp_Variant>  (195) 
61:0-1

>  <s_i_glide_gridfile>  (195) 
pfpi4k_grid

>  <i_i_glide_lignum>  (195) 
12

>  <i_i_glide_rotatable_bonds>  (195) 
0

>  <r_i_docking_score>  (195) 
-5.93232

>  <r_i_glide_ligand_efficiency>  (195) 
-0.659147

>  <r_i_glide_ligand_efficiency_sa>  (195) 
-1.37108

>  <r_i_glide_ligand_efficiency_ln>  (195) 
-1.85546

>  <r_i_glide_gscore>  (195) 
-5.93232

>  <r_i_glide_lipo>  (195) 
-2.13698

>  <r_i_glide_hbond>  (195) 
0

>  <r_i_glide_metal>  (195) 
-0

>  <r_i_glide_rewards>  (195) 
-2.7184

>  <r_i_glide_evdw>  (195) 
-19.1496

>  <r_i_glide_ecoul>  (195) 
-0.796435

>  <r_i_glide_erotb>  (195) 
0

>  <r_i_glide_esite>  (195) 
0

>  <r_i_glide_emodel>  (195) 
-27.367

>  <r_i_glide_energy>  (195) 
-19.946

>  <r_i_glide_einternal>  (195) 
0

>  <r_i_glide_intrahb_reward>  (195) 
-0

>  <i_i_glide_confnum>  (195) 
1

>  <i_i_glide_posenum>  (195) 
3

>  <r_i_glide_eff_state_penalty>  (195) 
0

>  <ligand_id>  (195) 
61

>  <original_smiles>  (195) 
c1cnc2sccc2c1

>  <smiles>  (195) 
[H]c1nc2sc([H])c([H])c2c([H])c1[H]

$$$$
61:0:2
     RDKit          3D

 14 15  0  0  1  0  0  0  0  0999 V2000
   -9.9748   -4.0073   -6.8406 C   0  0  0  0  0  0  0  0  0  0  0  0
   -9.7417   -5.1404   -7.6445 C   0  0  0  0  0  0  0  0  0  0  0  0
   -8.7300   -6.0137   -7.4453 N   0  0  0  0  0  0  0  0  0  0  0  0
   -7.9301   -5.7507   -6.3661 C   0  0  0  0  0  0  0  0  0  0  0  0
   -6.5948   -6.7921   -5.8976 S   0  0  0  0  0  0  0  0  0  0  0  0
   -6.2064   -5.7465   -4.5686 C   0  0  0  0  0  0  0  0  0  0  0  0
   -7.0340   -4.6592   -4.4433 C   0  0  0  0  0  0  0  0  0  0  0  0
   -8.0501   -4.6443   -5.4722 C   0  0  0  0  0  0  0  0  0  0  0  0
   -9.1170   -3.7616   -5.7540 C   0  0  0  0  0  0  0  0  0  0  0  0
  -10.8028   -3.3413   -7.0378 H   0  0  0  0  0  0  0  0  0  0  0  0
  -10.3956   -5.3582   -8.4788 H   0  0  0  0  0  0  0  0  0  0  0  0
   -5.3776   -6.0022   -3.9271 H   0  0  0  0  0  0  0  0  0  0  0  0
   -6.9497   -3.9017   -3.6744 H   0  0  0  0  0  0  0  0  0  0  0  0
   -9.2843   -2.8987   -5.1248 H   0  0  0  0  0  0  0  0  0  0  0  0
  1  9  2  0
  1  2  1  0
  1 10  1  0
  2  3  2  0
  2 11  1  0
  3  4  1  0
  4  8  2  0
  4  5  1  0
  5  6  1  0
  6  7  2  0
  6 12  1  0
  7  8  1  0
  7 13  1  0
  8  9  1  0
  9 14  1  0
M  END
>  <i_m_ct_stereo_status>  (196) 
1

>  <s_m_source_file>  (196) 
/var/tmp/pbs.5076255.sched01/tmpln0nb48r/86bqtw16pk.sdf

>  <i_m_source_file_index>  (196) 
12

>  <i_lp_mmshare_version>  (196) 
48012

>  <i_f3d_flags>  (196) 
0

>  <s_epik_input>  (196) 
bjFbY0hdW2NIXVtjSF1jKGMxMilbY0hdW2NIXXMy

>  <s_epik_cmdline>  (196) 
J2VwaWtfcHl0aG9uJywgJy1waHQnLCAnMi4wJywgJy1waCcsICc3LjAnLCAnLXRuJywgJzgnLCAnLW1hJywgJzIwMCcsICctaW1hZScsICc8aW5maWxlLm1hZT4nLCAnLW9tYWUnLCAnPG91dGZpbGUubWFlPic=

>  <r_lp_tautomer_probability>  (196) 
1

>  <r_epik_Ionization_Penalty>  (196) 
1.78928e-08

>  <r_epik_Ionization_Penalty_Charging>  (196) 
0

>  <r_epik_Ionization_Penalty_Neutral>  (196) 
1.78928e-08

>  <r_epik_State_Penalty>  (196) 
-0

>  <r_epik_Charging_Adjusted_Penalty>  (196) 
0

>  <i_epik_Tot_Q>  (196) 
0

>  <i_epik_Tot_abs_Q>  (196) 
0

>  <s_lp_Force_Field>  (196) 
OPLS3e

>  <r_lp_Energy>  (196) 
14.4303

>  <b_lp_Chiralities_Consistent>  (196) 
1

>  <s_lp_Variant>  (196) 
61:0-1

>  <s_i_glide_gridfile>  (196) 
pfpi4k_grid

>  <i_i_glide_lignum>  (196) 
12

>  <i_i_glide_rotatable_bonds>  (196) 
0

>  <r_i_docking_score>  (196) 
-5.74057

>  <r_i_glide_ligand_efficiency>  (196) 
-0.637841

>  <r_i_glide_ligand_efficiency_sa>  (196) 
-1.32676

>  <r_i_glide_ligand_efficiency_ln>  (196) 
-1.79548

>  <r_i_glide_gscore>  (196) 
-5.74057

>  <r_i_glide_lipo>  (196) 
-2.14618

>  <r_i_glide_hbond>  (196) 
0

>  <r_i_glide_metal>  (196) 
-0

>  <r_i_glide_rewards>  (196) 
-2.68333

>  <r_i_glide_evdw>  (196) 
-20.8356

>  <r_i_glide_ecoul>  (196) 
0.871534

>  <r_i_glide_erotb>  (196) 
0

>  <r_i_glide_esite>  (196) 
0

>  <r_i_glide_emodel>  (196) 
-27.1386

>  <r_i_glide_energy>  (196) 
-19.9641

>  <r_i_glide_einternal>  (196) 
0

>  <r_i_glide_intrahb_reward>  (196) 
-0

>  <i_i_glide_confnum>  (196) 
2

>  <i_i_glide_posenum>  (196) 
1

>  <r_i_glide_eff_state_penalty>  (196) 
0

>  <ligand_id>  (196) 
61

>  <original_smiles>  (196) 
c1cnc2sccc2c1

>  <smiles>  (196) 
[H]c1nc2sc([H])c([H])c2c([H])c1[H]

$$$$
64:0:0
     RDKit          3D

 91 98  0  0  1  0  0  0  0  0999 V2000
   -0.9766   -5.4792    6.4134 C   0  0  0  0  0  0  0  0  0  0  0  0
   -0.9648   -6.5834    5.5035 O   0  0  0  0  0  0  0  0  0  0  0  0
    0.2933   -6.8978    4.9060 C   0  0  2  0  0  0  0  0  0  0  0  0
    0.4102   -5.8768    3.6824 C   0  0  2  0  0  0  0  0  0  0  0  0
    0.0372   -6.5546    2.3252 C   0  0  0  0  0  0  0  0  0  0  0  0
    0.5215   -7.9764    2.2870 C   0  0  1  0  0  0  0  0  0  0  0  0
    2.0411   -8.2327    2.7678 C   0  0  1  0  0  0  0  0  0  0  0  0
    2.6978   -9.2594    1.8043 C   0  0  0  0  0  0  0  0  0  0  0  0
    3.1284   -7.0298    2.9573 C   0  0  2  0  0  0  0  0  0  0  0  0
    3.3332   -6.4423    4.3869 C   0  0  0  0  0  0  0  0  0  0  0  0
    2.7240   -5.0585    4.5887 C   0  0  2  0  0  0  0  0  0  0  0  0
    1.5857   -4.8247    3.6016 C   0  0  2  0  0  0  0  0  0  0  0  0
    1.2334   -3.3714    3.9524 C   0  0  0  0  0  0  0  0  0  0  0  0
    2.5977   -2.6866    4.2568 C   0  0  2  0  0  0  0  0  0  0  0  0
    2.9783   -1.3824    3.4576 C   0  0  0  0  0  0  0  0  0  0  0  0
    2.0467   -1.0176    2.2793 C   0  0  0  0  0  0  0  0  0  0  0  0
    2.8226   -0.1854    4.4284 C   0  0  0  0  0  0  0  0  0  0  0  0
    4.4327   -1.3707    2.9944 C   0  0  1  0  0  0  0  0  0  0  0  0
    5.2694   -2.6228    2.8926 C   0  0  2  0  0  0  0  0  0  0  0  0
    5.0402   -1.7614    1.6617 C   0  0  0  0  0  0  0  0  0  0  0  0
    4.2959   -2.1447    0.3895 C   0  0  0  0  0  0  0  0  0  0  0  0
    6.2113   -0.9260    1.1858 C   0  0  0  0  0  0  0  0  0  0  0  0
    4.8081   -4.0335    3.3745 C   0  0  2  0  0  0  0  0  0  0  0  0
    6.1018   -4.6596    4.0198 C   0  0  0  0  0  0  0  0  0  0  0  0
    4.6057   -5.0429    2.1581 C   0  0  0  0  0  0  0  0  0  0  0  0
    3.2702   -5.8049    1.9606 C   0  0  1  0  0  0  0  0  0  0  0  0
    3.1990   -6.2290    0.4903 C   0  0  0  0  0  0  0  0  0  0  0  0
    2.2037   -4.7448    2.1915 C   0  0  0  0  0  0  0  0  0  0  0  0
    3.6641   -3.8401    4.4817 C   0  0  2  0  0  0  0  0  0  0  0  0
    4.2865   -3.6071    5.8910 C   0  0  0  0  0  0  0  0  0  0  0  0
    1.7228   -8.9895    4.0939 C   0  0  1  0  0  0  0  0  0  0  0  0
    2.7134   -9.2213    5.0711 O   0  0  0  0  0  0  0  0  0  0  0  0
    0.3362   -8.4631    4.5412 C   0  0  1  0  0  0  0  0  0  0  0  0
   -0.1195   -9.2376    5.6352 O   0  0  0  0  0  0  0  0  0  0  0  0
   -0.4476   -8.7355    3.2302 C   0  0  0  0  0  0  0  0  0  0  0  0
   -1.9560   -8.3538    3.3285 C   0  0  0  0  0  0  0  0  0  0  0  0
   -0.5585  -10.2085    2.7795 C   0  0  0  0  0  0  0  0  0  0  0  0
   -1.9260   -5.4303    6.9385 H   0  0  0  0  0  0  0  0  0  0  0  0
   -0.8645   -4.5134    5.9266 H   0  0  0  0  0  0  0  0  0  0  0  0
   -0.1979   -5.5772    7.1668 H   0  0  0  0  0  0  0  0  0  0  0  0
    1.0118   -6.7211    5.7066 H   0  0  0  0  0  0  0  0  0  0  0  0
   -0.4159   -5.2168    3.8685 H   0  0  0  0  0  0  0  0  0  0  0  0
   -1.0292   -6.4969    2.1360 H   0  0  0  0  0  0  0  0  0  0  0  0
    0.3647   -6.1366    1.4045 H   0  0  0  0  0  0  0  0  0  0  0  0
    0.3885   -8.3247    1.2637 H   0  0  0  0  0  0  0  0  0  0  0  0
    3.6417   -9.6440    2.1894 H   0  0  0  0  0  0  0  0  0  0  0  0
    2.8890   -8.8442    0.8256 H   0  0  0  0  0  0  0  0  0  0  0  0
    2.1001  -10.1361    1.6138 H   0  0  0  0  0  0  0  0  0  0  0  0
    4.0594   -7.5759    2.8236 H   0  0  0  0  0  0  0  0  0  0  0  0
    2.9676   -7.0124    5.2074 H   0  0  0  0  0  0  0  0  0  0  0  0
    4.3730   -6.4719    4.6354 H   0  0  0  0  0  0  0  0  0  0  0  0
    2.2962   -5.0357    5.5925 H   0  0  0  0  0  0  0  0  0  0  0  0
    0.6264   -2.9020    3.1777 H   0  0  0  0  0  0  0  0  0  0  0  0
    0.6289   -3.3451    4.8549 H   0  0  0  0  0  0  0  0  0  0  0  0
    2.4046   -2.3146    5.2594 H   0  0  0  0  0  0  0  0  0  0  0  0
    2.4601   -0.1826    1.7082 H   0  0  0  0  0  0  0  0  0  0  0  0
    1.0695   -0.7028    2.6428 H   0  0  0  0  0  0  0  0  0  0  0  0
    1.8797   -1.8321    1.5832 H   0  0  0  0  0  0  0  0  0  0  0  0
    3.0640    0.7599    3.9340 H   0  0  0  0  0  0  0  0  0  0  0  0
    3.4821   -0.2642    5.2988 H   0  0  0  0  0  0  0  0  0  0  0  0
    1.8001   -0.1030    4.7977 H   0  0  0  0  0  0  0  0  0  0  0  0
    4.9764   -0.5575    3.4865 H   0  0  0  0  0  0  0  0  0  0  0  0
    6.2088   -2.4157    3.3586 H   0  0  0  0  0  0  0  0  0  0  0  0
    4.9936   -2.6379   -0.2854 H   0  0  0  0  0  0  0  0  0  0  0  0
    3.9125   -1.2422   -0.0882 H   0  0  0  0  0  0  0  0  0  0  0  0
    3.4888   -2.8159    0.5820 H   0  0  0  0  0  0  0  0  0  0  0  0
    6.8525   -1.4792    0.5114 H   0  0  0  0  0  0  0  0  0  0  0  0
    6.8121   -0.6725    2.0592 H   0  0  0  0  0  0  0  0  0  0  0  0
    5.8699   -0.0138    0.6961 H   0  0  0  0  0  0  0  0  0  0  0  0
    6.0845   -5.6749    4.4013 H   0  0  0  0  0  0  0  0  0  0  0  0
    6.5263   -4.1066    4.8592 H   0  0  0  0  0  0  0  0  0  0  0  0
    6.8376   -4.7691    3.2289 H   0  0  0  0  0  0  0  0  0  0  0  0
    4.8292   -4.5050    1.2467 H   0  0  0  0  0  0  0  0  0  0  0  0
    5.3746   -5.8162    2.1384 H   0  0  0  0  0  0  0  0  0  0  0  0
    3.3393   -5.3827   -0.1869 H   0  0  0  0  0  0  0  0  0  0  0  0
    2.2094   -6.6452    0.3191 H   0  0  0  0  0  0  0  0  0  0  0  0
    3.9559   -6.9726    0.2563 H   0  0  0  0  0  0  0  0  0  0  0  0
    1.5299   -4.6356    1.3632 H   0  0  0  0  0  0  0  0  0  0  0  0
    2.6627   -3.7823    2.0824 H   0  0  0  0  0  0  0  0  0  0  0  0
    4.9454   -2.7386    5.8877 H   0  0  0  0  0  0  0  0  0  0  0  0
    4.8492   -4.4735    6.2465 H   0  0  0  0  0  0  0  0  0  0  0  0
    3.5298   -3.4381    6.6608 H   0  0  0  0  0  0  0  0  0  0  0  0
    1.6226  -10.0459    3.8661 H   0  0  0  0  0  0  0  0  0  0  0  0
    2.3844   -9.9127    5.6373 H   0  0  0  0  0  0  0  0  0  0  0  0
   -0.7408   -9.9018    5.3171 H   0  0  0  0  0  0  0  0  0  0  0  0
   -2.4787   -9.0242    4.0110 H   0  0  0  0  0  0  0  0  0  0  0  0
   -2.4440   -8.4419    2.3572 H   0  0  0  0  0  0  0  0  0  0  0  0
   -2.1860   -7.3555    3.6871 H   0  0  0  0  0  0  0  0  0  0  0  0
   -0.9345  -10.6978    3.6785 H   0  0  0  0  0  0  0  0  0  0  0  0
    0.3345  -10.6923    2.3960 H   0  0  0  0  0  0  0  0  0  0  0  0
   -1.2916  -10.3211    1.9860 H   0  0  0  0  0  0  0  0  0  0  0  0
  1  2  1  0
  1 38  1  0
  1 39  1  0
  1 40  1  0
  2  3  1  0
  3 33  1  0
  3  4  1  0
  3 41  1  1
  4 12  1  0
  4  5  1  0
  4 42  1  1
  5  6  1  0
  5 43  1  0
  5 44  1  0
  6 35  1  0
  6  7  1  0
  6 45  1  6
  7  8  1  6
  7  9  1  0
  7 31  1  0
  8 46  1  0
  8 47  1  0
  8 48  1  0
  9 26  1  0
  9 10  1  0
  9 49  1  6
 10 11  1  0
 10 50  1  0
 10 51  1  0
 11 29  1  0
 11 12  1  0
 11 52  1  1
 12 28  1  0
 12 13  1  1
 13 14  1  0
 13 53  1  0
 13 54  1  0
 14 29  1  0
 14 15  1  0
 14 55  1  1
 15 16  1  0
 15 17  1  0
 15 18  1  0
 16 56  1  0
 16 57  1  0
 16 58  1  0
 17 59  1  0
 17 60  1  0
 17 61  1  0
 18 20  1  0
 18 19  1  0
 18 62  1  1
 19 20  1  0
 19 23  1  0
 19 63  1  1
 20 21  1  0
 20 22  1  0
 21 64  1  0
 21 65  1  0
 21 66  1  0
 22 67  1  0
 22 68  1  0
 22 69  1  0
 23 24  1  1
 23 25  1  0
 23 29  1  0
 24 70  1  0
 24 71  1  0
 24 72  1  0
 25 26  1  0
 25 73  1  0
 25 74  1  0
 26 27  1  6
 26 28  1  0
 27 75  1  0
 27 76  1  0
 27 77  1  0
 28 78  1  0
 28 79  1  0
 29 30  1  1
 30 80  1  0
 30 81  1  0
 30 82  1  0
 31 32  1  0
 31 33  1  0
 31 83  1  6
 32 84  1  0
 33 34  1  1
 33 35  1  0
 34 85  1  0
 35 36  1  0
 35 37  1  0
 36 86  1  0
 36 87  1  0
 36 88  1  0
 37 89  1  0
 37 90  1  0
 37 91  1  0
M  END
>  <i_m_ct_stereo_status>  (197) 
1

>  <s_m_source_file>  (197) 
/var/tmp/pbs.5076255.sched01/tmpln0nb48r/86bqtw16pk.sdf

>  <i_m_source_file_index>  (197) 
15

>  <i_lp_mmshare_version>  (197) 
48012

>  <i_f3d_flags>  (197) 
0

>  <s_epik_input>  (197) 
W0NIM11PW0NASF0oW0NASF0xW0NAXTIzNClbQ0BdNShbT0hdKVtDQEhdKFtPSF0pW0NAQF0oW0NIM10pKFtDQEhdKFtDSDJdMSlDNShbQ0gzXSlbQ0gzXSlbQ0BIXTZbQ0BAXShbQ0gzXSkoW0NIMl00KVtDSDJdW0NAQF03KFtDSDNdKVtDQEBIXThbQ0BASF0oQzgoW0NIM10pW0NIM10pQyhbQ0gzXSkoW0NIM10pW0NAQEhdKFtDSDJdMylbQ0BAXTcoW0NIM10pW0NAQEhdMltDSDJdNg==

>  <s_epik_cmdline>  (197) 
J2VwaWtfcHl0aG9uJywgJy1waHQnLCAnMi4wJywgJy1waCcsICc3LjAnLCAnLXRuJywgJzgnLCAnLW1hJywgJzIwMCcsICctaW1hZScsICc8aW5maWxlLm1hZT4nLCAnLW9tYWUnLCAnPG91dGZpbGUubWFlPic=

>  <r_lp_tautomer_probability>  (197) 
1

>  <r_epik_Ionization_Penalty>  (197) 
6.27189e-07

>  <r_epik_Ionization_Penalty_Charging>  (197) 
0

>  <r_epik_Ionization_Penalty_Neutral>  (197) 
6.27189e-07

>  <r_epik_State_Penalty>  (197) 
-0

>  <r_epik_Charging_Adjusted_Penalty>  (197) 
0

>  <i_epik_Tot_Q>  (197) 
0

>  <i_epik_Tot_abs_Q>  (197) 
0

>  <s_lp_Force_Field>  (197) 
OPLS3e

>  <r_lp_Energy>  (197) 
246.942

>  <b_lp_Chiralities_Consistent>  (197) 
1

>  <s_lp_Variant>  (197) 
64:0-1

>  <s_i_glide_gridfile>  (197) 
pfpi4k_grid

>  <i_i_glide_lignum>  (197) 
15

>  <i_i_glide_rotatable_bonds>  (197) 
3

>  <r_i_docking_score>  (197) 
-1.65869

>  <r_i_glide_ligand_efficiency>  (197) 
-0.0448295

>  <r_i_glide_ligand_efficiency_sa>  (197) 
-0.149382

>  <r_i_glide_ligand_efficiency_ln>  (197) 
-0.359731

>  <r_i_glide_gscore>  (197) 
-1.65869

>  <r_i_glide_lipo>  (197) 
-0.409903

>  <r_i_glide_hbond>  (197) 
0

>  <r_i_glide_metal>  (197) 
-0

>  <r_i_glide_rewards>  (197) 
0

>  <r_i_glide_evdw>  (197) 
-14.0072

>  <r_i_glide_ecoul>  (197) 
-3.6562

>  <r_i_glide_erotb>  (197) 
0

>  <r_i_glide_esite>  (197) 
0

>  <r_i_glide_emodel>  (197) 
-15.4509

>  <r_i_glide_energy>  (197) 
-17.6633

>  <r_i_glide_einternal>  (197) 
1.38254

>  <r_i_glide_intrahb_reward>  (197) 
-0

>  <i_i_glide_confnum>  (197) 
2

>  <i_i_glide_posenum>  (197) 
17

>  <r_i_glide_eff_state_penalty>  (197) 
0

>  <ligand_id>  (197) 
64

>  <original_smiles>  (197) 
COC1C2CC3C(C)(C4CC5C26CC2C(C)(C)C7C(C7(C)C)C(C)(CC4(C)C6)C25C)C(O)C1(O)C3(C)C

>  <smiles>  (197) 
[H]OC1([H])C2(O[H])C([H])(OC([H])([H])[H])C3([H])C([H])([H])C([H])(C1(C([H])([H])[H])C1([H])C([H])([H])C4([H])C35C([H])([H])C3([H])C(C([H])([H])[H])(C([H])([H])[H])C6([H])C([H])(C6(C([H])([H])[H])C([H])([H])[H])C(C([H])([H])[H])(C([H])([H])C1(C([H])([H])[H])C5([H])[H])C34C([H])([H])[H])C2(C([H])([H])[H])C([H])([H])[H]

$$$$
64:0:1
     RDKit          3D

 91 98  0  0  1  0  0  0  0  0999 V2000
    3.5963   -4.9684    7.2955 C   0  0  0  0  0  0  0  0  0  0  0  0
    2.5266   -5.8191    6.9187 O   0  0  0  0  0  0  0  0  0  0  0  0
    2.5910   -6.3391    5.5888 C   0  0  2  0  0  0  0  0  0  0  0  0
    2.0821   -5.1706    4.5919 C   0  0  2  0  0  0  0  0  0  0  0  0
    0.6183   -5.4307    4.1202 C   0  0  0  0  0  0  0  0  0  0  0  0
    0.3127   -6.9171    3.9772 C   0  0  1  0  0  0  0  0  0  0  0  0
    1.3910   -7.7602    3.1216 C   0  0  1  0  0  0  0  0  0  0  0  0
    0.6125   -8.7379    2.1906 C   0  0  0  0  0  0  0  0  0  0  0  0
    2.5546   -7.0782    2.1994 C   0  0  2  0  0  0  0  0  0  0  0  0
    3.9638   -6.8915    2.8283 C   0  0  0  0  0  0  0  0  0  0  0  0
    4.2983   -5.4520    3.1816 C   0  0  2  0  0  0  0  0  0  0  0  0
    3.0352   -4.6303    3.4350 C   0  0  2  0  0  0  0  0  0  0  0  0
    3.6682   -3.2536    3.6794 C   0  0  0  0  0  0  0  0  0  0  0  0
    4.8719   -3.1741    2.6842 C   0  0  2  0  0  0  0  0  0  0  0  0
    4.9243   -1.9634    1.6697 C   0  0  0  0  0  0  0  0  0  0  0  0
    3.6583   -1.0644    1.6192 C   0  0  0  0  0  0  0  0  0  0  0  0
    6.0052   -0.9854    2.1955 C   0  0  0  0  0  0  0  0  0  0  0  0
    5.3975   -2.3541    0.2631 C   0  0  1  0  0  0  0  0  0  0  0  0
    5.3069   -3.7818   -0.2679 C   0  0  2  0  0  0  0  0  0  0  0  0
    4.5607   -2.6637   -0.9692 C   0  0  0  0  0  0  0  0  0  0  0  0
    3.0585   -2.5322   -1.0952 C   0  0  0  0  0  0  0  0  0  0  0  0
    5.1215   -2.1896   -2.2952 C   0  0  0  0  0  0  0  0  0  0  0  0
    4.8627   -4.9700    0.6417 C   0  0  2  0  0  0  0  0  0  0  0  0
    5.7992   -6.0864    0.1058 C   0  0  0  0  0  0  0  0  0  0  0  0
    3.4596   -5.5992    0.2466 C   0  0  0  0  0  0  0  0  0  0  0  0
    2.3104   -5.8036    1.2793 C   0  0  1  0  0  0  0  0  0  0  0  0
    1.0375   -5.9623    0.4473 C   0  0  0  0  0  0  0  0  0  0  0  0
    2.3077   -4.4961    2.0793 C   0  0  0  0  0  0  0  0  0  0  0  0
    5.1581   -4.6478    2.1742 C   0  0  2  0  0  0  0  0  0  0  0  0
    6.6104   -4.9985    2.5270 C   0  0  0  0  0  0  0  0  0  0  0  0
    1.9907   -8.5967    4.2903 C   0  0  1  0  0  0  0  0  0  0  0  0
    3.1497   -9.3800    4.1399 O   0  0  0  0  0  0  0  0  0  0  0  0
    1.7895   -7.7305    5.5636 C   0  0  1  0  0  0  0  0  0  0  0  0
    2.1102   -8.5096    6.7015 O   0  0  0  0  0  0  0  0  0  0  0  0
    0.2658   -7.4936    5.4345 C   0  0  0  0  0  0  0  0  0  0  0  0
   -0.2762   -6.5645    6.5592 C   0  0  0  0  0  0  0  0  0  0  0  0
   -0.6410   -8.7794    5.5135 C   0  0  0  0  0  0  0  0  0  0  0  0
    3.4965   -4.7231    8.3542 H   0  0  0  0  0  0  0  0  0  0  0  0
    3.5903   -4.0306    6.7380 H   0  0  0  0  0  0  0  0  0  0  0  0
    4.5534   -5.4627    7.1535 H   0  0  0  0  0  0  0  0  0  0  0  0
    3.6406   -6.5884    5.4744 H   0  0  0  0  0  0  0  0  0  0  0  0
    1.9637   -4.2935    5.2165 H   0  0  0  0  0  0  0  0  0  0  0  0
   -0.0658   -4.9149    4.7954 H   0  0  0  0  0  0  0  0  0  0  0  0
    0.2667   -4.9696    3.2209 H   0  0  0  0  0  0  0  0  0  0  0  0
   -0.6779   -6.9990    3.5201 H   0  0  0  0  0  0  0  0  0  0  0  0
    1.2775   -9.4821    1.7520 H   0  0  0  0  0  0  0  0  0  0  0  0
    0.1050   -8.2333    1.3765 H   0  0  0  0  0  0  0  0  0  0  0  0
   -0.1648   -9.2996    2.6911 H   0  0  0  0  0  0  0  0  0  0  0  0
    2.7392   -7.8743    1.4858 H   0  0  0  0  0  0  0  0  0  0  0  0
    4.1932   -7.4458    3.7085 H   0  0  0  0  0  0  0  0  0  0  0  0
    4.6935   -7.3244    2.1692 H   0  0  0  0  0  0  0  0  0  0  0  0
    4.8330   -5.4855    4.1345 H   0  0  0  0  0  0  0  0  0  0  0  0
    2.9093   -2.4681    3.5932 H   0  0  0  0  0  0  0  0  0  0  0  0
    4.0340   -3.1920    4.7036 H   0  0  0  0  0  0  0  0  0  0  0  0
    5.6755   -2.9681    3.3886 H   0  0  0  0  0  0  0  0  0  0  0  0
    3.7491   -0.3289    0.8194 H   0  0  0  0  0  0  0  0  0  0  0  0
    3.5377   -0.5097    2.5472 H   0  0  0  0  0  0  0  0  0  0  0  0
    2.7380   -1.6088    1.4583 H   0  0  0  0  0  0  0  0  0  0  0  0
    6.0641   -0.1028    1.5498 H   0  0  0  0  0  0  0  0  0  0  0  0
    7.0019   -1.4305    2.1824 H   0  0  0  0  0  0  0  0  0  0  0  0
    5.7896   -0.6361    3.2096 H   0  0  0  0  0  0  0  0  0  0  0  0
    6.3490   -1.8786    0.0262 H   0  0  0  0  0  0  0  0  0  0  0  0
    6.2026   -4.0326   -0.8303 H   0  0  0  0  0  0  0  0  0  0  0  0
    2.7062   -3.0947   -1.9638 H   0  0  0  0  0  0  0  0  0  0  0  0
    2.8407   -1.4746   -1.2609 H   0  0  0  0  0  0  0  0  0  0  0  0
    2.5212   -2.8711   -0.2378 H   0  0  0  0  0  0  0  0  0  0  0  0
    4.7356   -2.7986   -3.1061 H   0  0  0  0  0  0  0  0  0  0  0  0
    6.2092   -2.2498   -2.3053 H   0  0  0  0  0  0  0  0  0  0  0  0
    4.8296   -1.1536   -2.4670 H   0  0  0  0  0  0  0  0  0  0  0  0
    5.7402   -7.0633    0.5760 H   0  0  0  0  0  0  0  0  0  0  0  0
    6.8598   -5.7958    0.1149 H   0  0  0  0  0  0  0  0  0  0  0  0
    5.4777   -6.2784   -0.9273 H   0  0  0  0  0  0  0  0  0  0  0  0
    3.0764   -5.0119   -0.5776 H   0  0  0  0  0  0  0  0  0  0  0  0
    3.5700   -6.5805   -0.2172 H   0  0  0  0  0  0  0  0  0  0  0  0
    0.9795   -5.1740   -0.3090 H   0  0  0  0  0  0  0  0  0  0  0  0
    0.1576   -5.9484    1.0837 H   0  0  0  0  0  0  0  0  0  0  0  0
    1.0414   -6.9070   -0.0933 H   0  0  0  0  0  0  0  0  0  0  0  0
    1.4070   -3.9067    2.0671 H   0  0  0  0  0  0  0  0  0  0  0  0
    2.8529   -3.7798    1.4959 H   0  0  0  0  0  0  0  0  0  0  0  0
    7.2992   -4.3687    1.9619 H   0  0  0  0  0  0  0  0  0  0  0  0
    6.8651   -6.0442    2.3547 H   0  0  0  0  0  0  0  0  0  0  0  0
    6.7248   -4.8577    3.6034 H   0  0  0  0  0  0  0  0  0  0  0  0
    1.3992   -9.4932    4.3910 H   0  0  0  0  0  0  0  0  0  0  0  0
    3.8832   -8.7958    4.0190 H   0  0  0  0  0  0  0  0  0  0  0  0
    1.7047   -9.3628    6.5910 H   0  0  0  0  0  0  0  0  0  0  0  0
   -0.3065   -7.0895    7.5175 H   0  0  0  0  0  0  0  0  0  0  0  0
   -1.2736   -6.2656    6.2805 H   0  0  0  0  0  0  0  0  0  0  0  0
    0.2696   -5.6484    6.7665 H   0  0  0  0  0  0  0  0  0  0  0  0
   -0.4693   -9.3144    6.4509 H   0  0  0  0  0  0  0  0  0  0  0  0
   -0.5042   -9.4972    4.7170 H   0  0  0  0  0  0  0  0  0  0  0  0
   -1.7101   -8.5874    5.3927 H   0  0  0  0  0  0  0  0  0  0  0  0
  1  2  1  0
  1 38  1  0
  1 39  1  0
  1 40  1  0
  2  3  1  0
  3 33  1  0
  3  4  1  0
  3 41  1  6
  4 12  1  0
  4  5  1  0
  4 42  1  1
  5  6  1  0
  5 43  1  0
  5 44  1  0
  6 35  1  0
  6  7  1  0
  6 45  1  6
  7  8  1  6
  7  9  1  0
  7 31  1  0
  8 46  1  0
  8 47  1  0
  8 48  1  0
  9 26  1  0
  9 10  1  0
  9 49  1  6
 10 11  1  0
 10 50  1  0
 10 51  1  0
 11 29  1  0
 11 12  1  0
 11 52  1  1
 12 28  1  0
 12 13  1  1
 13 14  1  0
 13 53  1  0
 13 54  1  0
 14 29  1  0
 14 15  1  0
 14 55  1  1
 15 16  1  0
 15 17  1  0
 15 18  1  0
 16 56  1  0
 16 57  1  0
 16 58  1  0
 17 59  1  0
 17 60  1  0
 17 61  1  0
 18 20  1  0
 18 19  1  0
 18 62  1  6
 19 20  1  0
 19 23  1  0
 19 63  1  6
 20 21  1  0
 20 22  1  0
 21 64  1  0
 21 65  1  0
 21 66  1  0
 22 67  1  0
 22 68  1  0
 22 69  1  0
 23 24  1  6
 23 25  1  0
 23 29  1  0
 24 70  1  0
 24 71  1  0
 24 72  1  0
 25 26  1  0
 25 73  1  0
 25 74  1  0
 26 27  1  6
 26 28  1  0
 27 75  1  0
 27 76  1  0
 27 77  1  0
 28 78  1  0
 28 79  1  0
 29 30  1  1
 30 80  1  0
 30 81  1  0
 30 82  1  0
 31 32  1  0
 31 33  1  0
 31 83  1  1
 32 84  1  0
 33 34  1  1
 33 35  1  0
 34 85  1  0
 35 36  1  0
 35 37  1  0
 36 86  1  0
 36 87  1  0
 36 88  1  0
 37 89  1  0
 37 90  1  0
 37 91  1  0
M  END
>  <i_m_ct_stereo_status>  (198) 
1

>  <s_m_source_file>  (198) 
/var/tmp/pbs.5076255.sched01/tmpln0nb48r/86bqtw16pk.sdf

>  <i_m_source_file_index>  (198) 
15

>  <i_lp_mmshare_version>  (198) 
48012

>  <i_f3d_flags>  (198) 
0

>  <s_epik_input>  (198) 
W0NIM11PW0NASF0oW0NASF0xW0NAXTIzNClbQ0BdNShbT0hdKVtDQEhdKFtPSF0pW0NAQF0oW0NIM10pKFtDQEhdKFtDSDJdMSlDNShbQ0gzXSlbQ0gzXSlbQ0BIXTZbQ0BAXShbQ0gzXSkoW0NIMl00KVtDSDJdW0NAQF03KFtDSDNdKVtDQEBIXThbQ0BASF0oQzgoW0NIM10pW0NIM10pQyhbQ0gzXSkoW0NIM10pW0NAQEhdKFtDSDJdMylbQ0BAXTcoW0NIM10pW0NAQEhdMltDSDJdNg==

>  <s_epik_cmdline>  (198) 
J2VwaWtfcHl0aG9uJywgJy1waHQnLCAnMi4wJywgJy1waCcsICc3LjAnLCAnLXRuJywgJzgnLCAnLW1hJywgJzIwMCcsICctaW1hZScsICc8aW5maWxlLm1hZT4nLCAnLW9tYWUnLCAnPG91dGZpbGUubWFlPic=

>  <r_lp_tautomer_probability>  (198) 
1

>  <r_epik_Ionization_Penalty>  (198) 
6.27189e-07

>  <r_epik_Ionization_Penalty_Charging>  (198) 
0

>  <r_epik_Ionization_Penalty_Neutral>  (198) 
6.27189e-07

>  <r_epik_State_Penalty>  (198) 
-0

>  <r_epik_Charging_Adjusted_Penalty>  (198) 
0

>  <i_epik_Tot_Q>  (198) 
0

>  <i_epik_Tot_abs_Q>  (198) 
0

>  <s_lp_Force_Field>  (198) 
OPLS3e

>  <r_lp_Energy>  (198) 
246.942

>  <b_lp_Chiralities_Consistent>  (198) 
1

>  <s_lp_Variant>  (198) 
64:0-1

>  <s_i_glide_gridfile>  (198) 
pfpi4k_grid

>  <i_i_glide_lignum>  (198) 
15

>  <i_i_glide_rotatable_bonds>  (198) 
3

>  <r_i_docking_score>  (198) 
-1.21765

>  <r_i_glide_ligand_efficiency>  (198) 
-0.0329094

>  <r_i_glide_ligand_efficiency_sa>  (198) 
-0.109661

>  <r_i_glide_ligand_efficiency_ln>  (198) 
-0.264079

>  <r_i_glide_gscore>  (198) 
-1.21765

>  <r_i_glide_lipo>  (198) 
-0.478723

>  <r_i_glide_hbond>  (198) 
0

>  <r_i_glide_metal>  (198) 
-0

>  <r_i_glide_rewards>  (198) 
0

>  <r_i_glide_evdw>  (198) 
-13.1354

>  <r_i_glide_ecoul>  (198) 
-0.547705

>  <r_i_glide_erotb>  (198) 
0

>  <r_i_glide_esite>  (198) 
0

>  <r_i_glide_emodel>  (198) 
-13.0537

>  <r_i_glide_energy>  (198) 
-13.6831

>  <r_i_glide_einternal>  (198) 
0.0612284

>  <r_i_glide_intrahb_reward>  (198) 
-0

>  <i_i_glide_confnum>  (198) 
2

>  <i_i_glide_posenum>  (198) 
29

>  <r_i_glide_eff_state_penalty>  (198) 
0

>  <ligand_id>  (198) 
64

>  <original_smiles>  (198) 
COC1C2CC3C(C)(C4CC5C26CC2C(C)(C)C7C(C7(C)C)C(C)(CC4(C)C6)C25C)C(O)C1(O)C3(C)C

>  <smiles>  (198) 
[H]OC1([H])C2(O[H])C([H])(OC([H])([H])[H])C3([H])C([H])([H])C([H])(C1(C([H])([H])[H])C1([H])C([H])([H])C4([H])C35C([H])([H])C3([H])C(C([H])([H])[H])(C([H])([H])[H])C6([H])C([H])(C6(C([H])([H])[H])C([H])([H])[H])C(C([H])([H])[H])(C([H])([H])C1(C([H])([H])[H])C5([H])[H])C34C([H])([H])[H])C2(C([H])([H])[H])C([H])([H])[H]

$$$$
64:0:2
     RDKit          3D

 91 98  0  0  1  0  0  0  0  0999 V2000
    3.3977   -4.9990    7.2220 C   0  0  0  0  0  0  0  0  0  0  0  0
    2.3263   -5.8267    6.7946 O   0  0  0  0  0  0  0  0  0  0  0  0
    2.4399   -6.3287    5.4595 C   0  0  2  0  0  0  0  0  0  0  0  0
    1.9809   -5.1461    4.4615 C   0  0  2  0  0  0  0  0  0  0  0  0
    0.5362   -5.3807    3.9325 C   0  0  0  0  0  0  0  0  0  0  0  0
    0.2166   -6.8541    3.7610 C   0  0  1  0  0  0  0  0  0  0  0  0
    1.3174   -7.6983    2.9532 C   0  0  1  0  0  0  0  0  0  0  0  0
    0.5656   -8.6540    2.0029 C   0  0  0  0  0  0  0  0  0  0  0  0
    2.5135   -7.0150    2.0692 C   0  0  2  0  0  0  0  0  0  0  0  0
    3.9094   -6.8534    2.7370 C   0  0  0  0  0  0  0  0  0  0  0  0
    4.2411   -5.4217    3.1374 C   0  0  2  0  0  0  0  0  0  0  0  0
    2.9818   -4.5978    3.3544 C   0  0  2  0  0  0  0  0  0  0  0  0
    3.6096   -3.2286    3.6330 C   0  0  0  0  0  0  0  0  0  0  0  0
    4.8511   -3.1428    2.6806 C   0  0  2  0  0  0  0  0  0  0  0  0
    4.9468   -1.9168    1.6856 C   0  0  0  0  0  0  0  0  0  0  0  0
    3.6940   -1.0147    1.5973 C   0  0  0  0  0  0  0  0  0  0  0  0
    6.0152   -0.9559    2.2633 C   0  0  0  0  0  0  0  0  0  0  0  0
    5.4715   -2.2996    0.2886 C   0  0  1  0  0  0  0  0  0  0  0  0
    5.3931   -3.7238   -0.2625 C   0  0  2  0  0  0  0  0  0  0  0  0
    4.6754   -2.5909   -0.9806 C   0  0  0  0  0  0  0  0  0  0  0  0
    3.1781   -2.4334   -1.1527 C   0  0  0  0  0  0  0  0  0  0  0  0
    5.2854   -2.0968   -2.2826 C   0  0  0  0  0  0  0  0  0  0  0  0
    4.9058   -4.9170    0.6260 C   0  0  2  0  0  0  0  0  0  0  0  0
    5.8696   -6.0214    0.1279 C   0  0  0  0  0  0  0  0  0  0  0  0
    3.5030   -5.5335    0.1692 C   0  0  0  0  0  0  0  0  0  0  0  0
    2.3068   -5.7370    1.1555 C   0  0  1  0  0  0  0  0  0  0  0  0
    1.0490   -5.8961    0.2856 C   0  0  0  0  0  0  0  0  0  0  0  0
    2.2922   -4.4260    1.9781 C   0  0  0  0  0  0  0  0  0  0  0  0
    5.1483   -4.6097    2.1735 C   0  0  2  0  0  0  0  0  0  0  0  0
    6.5872   -4.9687    2.5699 C   0  0  0  0  0  0  0  0  0  0  0  0
    1.8510   -8.5678    4.1292 C   0  0  1  0  0  0  0  0  0  0  0  0
    3.0269   -9.3363    3.9943 O   0  0  0  0  0  0  0  0  0  0  0  0
    1.6136   -7.7049    5.3982 C   0  0  1  0  0  0  0  0  0  0  0  0
    1.8802   -8.5007    6.5456 O   0  0  0  0  0  0  0  0  0  0  0  0
    0.1024   -7.4346    5.2070 C   0  0  0  0  0  0  0  0  0  0  0  0
   -0.4842   -6.5095    6.3142 C   0  0  0  0  0  0  0  0  0  0  0  0
   -0.8523   -8.6697    5.2345 C   0  0  0  0  0  0  0  0  0  0  0  0
    3.2630   -4.7610    8.2756 H   0  0  0  0  0  0  0  0  0  0  0  0
    3.4317   -4.0600    6.6732 H   0  0  0  0  0  0  0  0  0  0  0  0
    4.3563   -5.5056    7.1130 H   0  0  0  0  0  0  0  0  0  0  0  0
    3.4896   -6.5953    5.3743 H   0  0  0  0  0  0  0  0  0  0  0  0
    1.8429   -4.2765    5.0993 H   0  0  0  0  0  0  0  0  0  0  0  0
   -0.1650   -4.8680    4.5863 H   0  0  0  0  0  0  0  0  0  0  0  0
    0.2278   -4.9118    3.0293 H   0  0  0  0  0  0  0  0  0  0  0  0
   -0.7514   -6.9224    3.2670 H   0  0  0  0  0  0  0  0  0  0  0  0
    1.2526   -9.3933    1.5876 H   0  0  0  0  0  0  0  0  0  0  0  0
    0.0864   -8.1252    1.1874 H   0  0  0  0  0  0  0  0  0  0  0  0
   -0.2380   -9.2209    2.4591 H   0  0  0  0  0  0  0  0  0  0  0  0
    2.7250   -7.8085    1.3478 H   0  0  0  0  0  0  0  0  0  0  0  0
    4.1152   -7.4324    3.6134 H   0  0  0  0  0  0  0  0  0  0  0  0
    4.6559   -7.2853    2.0972 H   0  0  0  0  0  0  0  0  0  0  0  0
    4.7482   -5.4785    4.1023 H   0  0  0  0  0  0  0  0  0  0  0  0
    2.8669   -2.4358    3.5230 H   0  0  0  0  0  0  0  0  0  0  0  0
    3.9420   -3.1752    4.6711 H   0  0  0  0  0  0  0  0  0  0  0  0
    5.6284   -2.9514    3.4163 H   0  0  0  0  0  0  0  0  0  0  0  0
    3.8134   -0.2630    0.8124 H   0  0  0  0  0  0  0  0  0  0  0  0
    3.5432   -0.4684    2.5292 H   0  0  0  0  0  0  0  0  0  0  0  0
    2.7696   -1.5479    1.4000 H   0  0  0  0  0  0  0  0  0  0  0  0
    6.1096   -0.0721    1.6300 H   0  0  0  0  0  0  0  0  0  0  0  0
    7.0145   -1.4141    2.2916 H   0  0  0  0  0  0  0  0  0  0  0  0
    5.7565   -0.6144    3.2691 H   0  0  0  0  0  0  0  0  0  0  0  0
    6.4315   -1.8284    0.0855 H   0  0  0  0  0  0  0  0  0  0  0  0
    6.2978   -3.9781   -0.8055 H   0  0  0  0  0  0  0  0  0  0  0  0
    2.8382   -2.9764   -2.0356 H   0  0  0  0  0  0  0  0  0  0  0  0
    2.9664   -1.3751   -1.2956 H   0  0  0  0  0  0  0  0  0  0  0  0
    2.6011   -2.7879   -0.3158 H   0  0  0  0  0  0  0  0  0  0  0  0
    4.9263   -2.6938   -3.1186 H   0  0  0  0  0  0  0  0  0  0  0  0
    6.3725   -2.1667   -2.2573 H   0  0  0  0  0  0  0  0  0  0  0  0
    5.0066   -1.0572   -2.4531 H   0  0  0  0  0  0  0  0  0  0  0  0
    5.7788   -7.0187    0.5386 H   0  0  0  0  0  0  0  0  0  0  0  0
    6.9318   -5.7636    0.1747 H   0  0  0  0  0  0  0  0  0  0  0  0
    5.5851   -6.1089   -0.9143 H   0  0  0  0  0  0  0  0  0  0  0  0
    3.1598   -4.9460   -0.6711 H   0  0  0  0  0  0  0  0  0  0  0  0
    3.6376   -6.5095   -0.2914 H   0  0  0  0  0  0  0  0  0  0  0  0
    0.9715   -5.0612   -0.4286 H   0  0  0  0  0  0  0  0  0  0  0  0
    0.1590   -5.9014    0.9068 H   0  0  0  0  0  0  0  0  0  0  0  0
    1.0510   -6.8174   -0.2799 H   0  0  0  0  0  0  0  0  0  0  0  0
    1.4012   -3.8216    1.9990 H   0  0  0  0  0  0  0  0  0  0  0  0
    2.8689   -3.7192    1.4143 H   0  0  0  0  0  0  0  0  0  0  0  0
    7.3040   -4.3488    2.0260 H   0  0  0  0  0  0  0  0  0  0  0  0
    6.8465   -6.0204    2.4183 H   0  0  0  0  0  0  0  0  0  0  0  0
    6.6570   -4.8129    3.6433 H   0  0  0  0  0  0  0  0  0  0  0  0
    1.2278   -9.4510    4.2031 H   0  0  0  0  0  0  0  0  0  0  0  0
    2.8621  -10.0183    3.3582 H   0  0  0  0  0  0  0  0  0  0  0  0
    1.4753   -9.3463    6.4189 H   0  0  0  0  0  0  0  0  0  0  0  0
   -0.5303   -7.0409    7.2639 H   0  0  0  0  0  0  0  0  0  0  0  0
   -1.4866   -6.1916    6.0417 H   0  0  0  0  0  0  0  0  0  0  0  0
    0.0585   -5.5977    6.5400 H   0  0  0  0  0  0  0  0  0  0  0  0
   -0.7407   -9.2305    6.1615 H   0  0  0  0  0  0  0  0  0  0  0  0
   -0.7484   -9.3949    4.4307 H   0  0  0  0  0  0  0  0  0  0  0  0
   -1.8930   -8.3642    5.1843 H   0  0  0  0  0  0  0  0  0  0  0  0
  1  2  1  0
  1 38  1  0
  1 39  1  0
  1 40  1  0
  2  3  1  0
  3 33  1  0
  3  4  1  0
  3 41  1  6
  4 12  1  0
  4  5  1  0
  4 42  1  1
  5  6  1  0
  5 43  1  0
  5 44  1  0
  6 35  1  0
  6  7  1  0
  6 45  1  6
  7  8  1  6
  7  9  1  0
  7 31  1  0
  8 46  1  0
  8 47  1  0
  8 48  1  0
  9 26  1  0
  9 10  1  0
  9 49  1  6
 10 11  1  0
 10 50  1  0
 10 51  1  0
 11 29  1  0
 11 12  1  0
 11 52  1  1
 12 28  1  0
 12 13  1  1
 13 14  1  0
 13 53  1  0
 13 54  1  0
 14 29  1  0
 14 15  1  0
 14 55  1  1
 15 16  1  0
 15 17  1  0
 15 18  1  0
 16 56  1  0
 16 57  1  0
 16 58  1  0
 17 59  1  0
 17 60  1  0
 17 61  1  0
 18 20  1  0
 18 19  1  0
 18 62  1  6
 19 20  1  0
 19 23  1  0
 19 63  1  6
 20 21  1  0
 20 22  1  0
 21 64  1  0
 21 65  1  0
 21 66  1  0
 22 67  1  0
 22 68  1  0
 22 69  1  0
 23 24  1  6
 23 25  1  0
 23 29  1  0
 24 70  1  0
 24 71  1  0
 24 72  1  0
 25 26  1  0
 25 73  1  0
 25 74  1  0
 26 27  1  6
 26 28  1  0
 27 75  1  0
 27 76  1  0
 27 77  1  0
 28 78  1  0
 28 79  1  0
 29 30  1  1
 30 80  1  0
 30 81  1  0
 30 82  1  0
 31 32  1  0
 31 33  1  0
 31 83  1  1
 32 84  1  0
 33 34  1  1
 33 35  1  0
 34 85  1  0
 35 36  1  0
 35 37  1  0
 36 86  1  0
 36 87  1  0
 36 88  1  0
 37 89  1  0
 37 90  1  0
 37 91  1  0
M  END
>  <i_m_ct_stereo_status>  (199) 
1

>  <s_m_source_file>  (199) 
/var/tmp/pbs.5076255.sched01/tmpln0nb48r/86bqtw16pk.sdf

>  <i_m_source_file_index>  (199) 
15

>  <i_lp_mmshare_version>  (199) 
48012

>  <i_f3d_flags>  (199) 
0

>  <s_epik_input>  (199) 
W0NIM11PW0NASF0oW0NASF0xW0NAXTIzNClbQ0BdNShbT0hdKVtDQEhdKFtPSF0pW0NAQF0oW0NIM10pKFtDQEhdKFtDSDJdMSlDNShbQ0gzXSlbQ0gzXSlbQ0BIXTZbQ0BAXShbQ0gzXSkoW0NIMl00KVtDSDJdW0NAQF03KFtDSDNdKVtDQEBIXThbQ0BASF0oQzgoW0NIM10pW0NIM10pQyhbQ0gzXSkoW0NIM10pW0NAQEhdKFtDSDJdMylbQ0BAXTcoW0NIM10pW0NAQEhdMltDSDJdNg==

>  <s_epik_cmdline>  (199) 
J2VwaWtfcHl0aG9uJywgJy1waHQnLCAnMi4wJywgJy1waCcsICc3LjAnLCAnLXRuJywgJzgnLCAnLW1hJywgJzIwMCcsICctaW1hZScsICc8aW5maWxlLm1hZT4nLCAnLW9tYWUnLCAnPG91dGZpbGUubWFlPic=

>  <r_lp_tautomer_probability>  (199) 
1

>  <r_epik_Ionization_Penalty>  (199) 
6.27189e-07

>  <r_epik_Ionization_Penalty_Charging>  (199) 
0

>  <r_epik_Ionization_Penalty_Neutral>  (199) 
6.27189e-07

>  <r_epik_State_Penalty>  (199) 
-0

>  <r_epik_Charging_Adjusted_Penalty>  (199) 
0

>  <i_epik_Tot_Q>  (199) 
0

>  <i_epik_Tot_abs_Q>  (199) 
0

>  <s_lp_Force_Field>  (199) 
OPLS3e

>  <r_lp_Energy>  (199) 
246.942

>  <b_lp_Chiralities_Consistent>  (199) 
1

>  <s_lp_Variant>  (199) 
64:0-1

>  <s_i_glide_gridfile>  (199) 
pfpi4k_grid

>  <i_i_glide_lignum>  (199) 
15

>  <i_i_glide_rotatable_bonds>  (199) 
3

>  <r_i_docking_score>  (199) 
-1.16691

>  <r_i_glide_ligand_efficiency>  (199) 
-0.0315381

>  <r_i_glide_ligand_efficiency_sa>  (199) 
-0.105092

>  <r_i_glide_ligand_efficiency_ln>  (199) 
-0.253075

>  <r_i_glide_gscore>  (199) 
-1.16691

>  <r_i_glide_lipo>  (199) 
-0.43043

>  <r_i_glide_hbond>  (199) 
0

>  <r_i_glide_metal>  (199) 
-0

>  <r_i_glide_rewards>  (199) 
0

>  <r_i_glide_evdw>  (199) 
-11.7981

>  <r_i_glide_ecoul>  (199) 
-0.977162

>  <r_i_glide_erotb>  (199) 
0

>  <r_i_glide_esite>  (199) 
0

>  <r_i_glide_emodel>  (199) 
-11.597

>  <r_i_glide_energy>  (199) 
-12.7753

>  <r_i_glide_einternal>  (199) 
0.433109

>  <r_i_glide_intrahb_reward>  (199) 
-0

>  <i_i_glide_confnum>  (199) 
1

>  <i_i_glide_posenum>  (199) 
28

>  <r_i_glide_eff_state_penalty>  (199) 
0

>  <ligand_id>  (199) 
64

>  <original_smiles>  (199) 
COC1C2CC3C(C)(C4CC5C26CC2C(C)(C)C7C(C7(C)C)C(C)(CC4(C)C6)C25C)C(O)C1(O)C3(C)C

>  <smiles>  (199) 
[H]OC1([H])C2(O[H])C([H])(OC([H])([H])[H])C3([H])C([H])([H])C([H])(C1(C([H])([H])[H])C1([H])C([H])([H])C4([H])C35C([H])([H])C3([H])C(C([H])([H])[H])(C([H])([H])[H])C6([H])C([H])(C6(C([H])([H])[H])C([H])([H])[H])C(C([H])([H])[H])(C([H])([H])C1(C([H])([H])[H])C5([H])[H])C34C([H])([H])[H])C2(C([H])([H])[H])C([H])([H])[H]

$$$$
65:0:0
     RDKit          3D

 27 30  0  0  1  0  0  0  0  0999 V2000
    9.3801   -2.8600    0.4986 C   0  0  0  0  0  0  0  0  0  0  0  0
    7.9744   -3.4129    0.4568 C   0  0  0  0  0  0  0  0  0  0  0  0
    7.1972   -2.6877   -0.3900 N   0  0  0  0  0  0  0  0  0  0  0  0
    5.8952   -2.8362   -0.7082 C   0  0  0  0  0  0  0  0  0  0  0  0
    5.2372   -2.0386   -1.5872 N   0  0  0  0  0  0  0  0  0  0  0  0
    3.9458   -2.2165   -1.8731 N   0  0  0  0  0  0  0  0  0  0  0  0
    3.2451   -3.1885   -1.2994 N   0  0  0  0  0  0  0  0  0  0  0  0
    3.8476   -3.9980   -0.4291 N   0  0  0  0  0  0  0  0  0  0  0  0
    5.1856   -3.8827   -0.0829 C   0  0  0  0  0  0  0  0  0  0  0  0
    5.3190   -4.9355    0.8273 C   0  0  0  0  0  0  0  0  0  0  0  0
    4.0723   -5.6126    0.9758 C   0  0  0  0  0  0  0  0  0  0  0  0
    3.7135   -6.7237    1.7685 C   0  0  0  0  0  0  0  0  0  0  0  0
    2.3843   -7.2021    1.7197 C   0  0  0  0  0  0  0  0  0  0  0  0
    1.9274   -8.5614    2.6792 Cl  0  0  0  0  0  0  0  0  0  0  0  0
    1.4259   -6.5780    0.8858 C   0  0  0  0  0  0  0  0  0  0  0  0
    1.7886   -5.4774    0.0804 C   0  0  0  0  0  0  0  0  0  0  0  0
    3.1023   -4.9961    0.1461 C   0  0  0  0  0  0  0  0  0  0  0  0
    6.5241   -5.2477    1.4741 C   0  0  0  0  0  0  0  0  0  0  0  0
    7.7213   -4.5405    1.2774 C   0  0  0  0  0  0  0  0  0  0  0  0
   10.0261   -3.4128    1.1809 H   0  0  0  0  0  0  0  0  0  0  0  0
    9.3761   -1.8142    0.8055 H   0  0  0  0  0  0  0  0  0  0  0  0
    9.8071   -2.9247   -0.4935 H   0  0  0  0  0  0  0  0  0  0  0  0
    4.4447   -7.2032    2.4048 H   0  0  0  0  0  0  0  0  0  0  0  0
    0.4188   -6.9719    0.8526 H   0  0  0  0  0  0  0  0  0  0  0  0
    1.0816   -5.0107   -0.5880 H   0  0  0  0  0  0  0  0  0  0  0  0
    6.5289   -6.0743    2.1715 H   0  0  0  0  0  0  0  0  0  0  0  0
    8.5436   -4.9112    1.8742 H   0  0  0  0  0  0  0  0  0  0  0  0
  1  2  1  0
  1 20  1  0
  1 21  1  0
  1 22  1  0
  2 19  1  0
  2  3  2  0
  3  4  1  0
  4  9  1  0
  4  5  2  0
  5  6  1  0
  6  7  2  0
  7  8  1  0
  8 17  1  0
  8  9  1  0
  9 10  2  0
 10 11  1  0
 10 18  1  0
 11 17  2  0
 11 12  1  0
 12 13  2  0
 12 23  1  0
 13 14  1  0
 13 15  1  0
 15 16  2  0
 15 24  1  0
 16 17  1  0
 16 25  1  0
 18 19  2  0
 18 26  1  0
 19 27  1  0
M  END
>  <i_m_ct_stereo_status>  (200) 
1

>  <s_m_source_file>  (200) 
/var/tmp/pbs.5076255.sched01/tmpln0nb48r/86bqtw16pk.sdf

>  <i_m_source_file_index>  (200) 
16

>  <i_lp_mmshare_version>  (200) 
48012

>  <i_f3d_flags>  (200) 
0

>  <s_epik_input>  (200) 
W0NIM11jKG4xKVtjSF1bY0hdYzJjKFtjSF1jKENsKVtjSF1bY0hdMyljM24oYzJjMTQpbm5uNA==

>  <s_epik_cmdline>  (200) 
J2VwaWtfcHl0aG9uJywgJy1waHQnLCAnMi4wJywgJy1waCcsICc3LjAnLCAnLXRuJywgJzgnLCAnLW1hJywgJzIwMCcsICctaW1hZScsICc8aW5maWxlLm1hZT4nLCAnLW9tYWUnLCAnPG91dGZpbGUubWFlPic=

>  <r_lp_tautomer_probability>  (200) 
1

>  <r_epik_Ionization_Penalty>  (200) 
1.48761e-08

>  <r_epik_Ionization_Penalty_Charging>  (200) 
0

>  <r_epik_Ionization_Penalty_Neutral>  (200) 
1.48761e-08

>  <r_epik_State_Penalty>  (200) 
-0

>  <r_epik_Charging_Adjusted_Penalty>  (200) 
0

>  <i_epik_Tot_Q>  (200) 
0

>  <i_epik_Tot_abs_Q>  (200) 
0

>  <s_lp_Force_Field>  (200) 
OPLS3e

>  <r_lp_Energy>  (200) 
24.092

>  <b_lp_Chiralities_Consistent>  (200) 
1

>  <s_lp_Variant>  (200) 
65:0-1

>  <s_i_glide_gridfile>  (200) 
pfpi4k_grid

>  <i_i_glide_lignum>  (200) 
16

>  <i_i_glide_rotatable_bonds>  (200) 
0

>  <r_i_docking_score>  (200) 
-3.45447

>  <r_i_glide_ligand_efficiency>  (200) 
-0.181814

>  <r_i_glide_ligand_efficiency_sa>  (200) 
-0.485153

>  <r_i_glide_ligand_efficiency_ln>  (200) 
-0.875782

>  <r_i_glide_gscore>  (200) 
-3.45447

>  <r_i_glide_lipo>  (200) 
-0.64017

>  <r_i_glide_hbond>  (200) 
0

>  <r_i_glide_metal>  (200) 
-0

>  <r_i_glide_rewards>  (200) 
-1.57334

>  <r_i_glide_evdw>  (200) 
-22.6532

>  <r_i_glide_ecoul>  (200) 
-0.244951

>  <r_i_glide_erotb>  (200) 
0

>  <r_i_glide_esite>  (200) 
-0.0715537

>  <r_i_glide_emodel>  (200) 
-27.7345

>  <r_i_glide_energy>  (200) 
-22.8981

>  <r_i_glide_einternal>  (200) 
0

>  <r_i_glide_intrahb_reward>  (200) 
-0

>  <i_i_glide_confnum>  (200) 
2

>  <i_i_glide_posenum>  (200) 
10

>  <r_i_glide_eff_state_penalty>  (200) 
0

>  <ligand_id>  (200) 
65

>  <original_smiles>  (200) 
CC1=Nc2nnnn3c2c(c2cc(Cl)ccc23)C=C1

>  <smiles>  (200) 
[H]C1=C([H])c2c3c([H])c(Cl)c([H])c([H])c3n3nnnc(c23)N=C1C([H])([H])[H]

$$$$
65:0:1
     RDKit          3D

 27 30  0  0  1  0  0  0  0  0999 V2000
    5.2559   -1.3579    1.3221 C   0  0  0  0  0  0  0  0  0  0  0  0
    4.2255   -0.5162    2.0400 C   0  0  0  0  0  0  0  0  0  0  0  0
    4.6852   -0.1457    3.2655 N   0  0  0  0  0  0  0  0  0  0  0  0
    4.1044    0.6100    4.2177 C   0  0  0  0  0  0  0  0  0  0  0  0
    4.6822    0.9229    5.4088 N   0  0  0  0  0  0  0  0  0  0  0  0
    4.0656    1.6718    6.3239 N   0  0  0  0  0  0  0  0  0  0  0  0
    2.8472    2.1480    6.1050 N   0  0  0  0  0  0  0  0  0  0  0  0
    2.2352    1.8780    4.9592 N   0  0  0  0  0  0  0  0  0  0  0  0
    2.8086    1.1078    3.9527 C   0  0  0  0  0  0  0  0  0  0  0  0
    1.7902    1.1258    2.9964 C   0  0  0  0  0  0  0  0  0  0  0  0
    0.6805    1.8881    3.4836 C   0  0  0  0  0  0  0  0  0  0  0  0
   -0.5638    2.1736    2.8831 C   0  0  0  0  0  0  0  0  0  0  0  0
   -1.4958    2.9719    3.5868 C   0  0  0  0  0  0  0  0  0  0  0  0
   -3.0229    3.3443    2.8831 Cl  0  0  0  0  0  0  0  0  0  0  0  0
   -1.1910    3.4713    4.8740 C   0  0  0  0  0  0  0  0  0  0  0  0
    0.0483    3.1815    5.4841 C   0  0  0  0  0  0  0  0  0  0  0  0
    0.9745    2.3884    4.7764 C   0  0  0  0  0  0  0  0  0  0  0  0
    1.8887    0.4752    1.7564 C   0  0  0  0  0  0  0  0  0  0  0  0
    3.0134   -0.2658    1.3460 C   0  0  0  0  0  0  0  0  0  0  0  0
    4.9110   -1.6773    0.3378 H   0  0  0  0  0  0  0  0  0  0  0  0
    5.4804   -2.2501    1.9087 H   0  0  0  0  0  0  0  0  0  0  0  0
    6.1769   -0.7873    1.1920 H   0  0  0  0  0  0  0  0  0  0  0  0
   -0.7900    1.8095    1.8861 H   0  0  0  0  0  0  0  0  0  0  0  0
   -1.9141    4.0760    5.3972 H   0  0  0  0  0  0  0  0  0  0  0  0
    0.2923    3.5518    6.4668 H   0  0  0  0  0  0  0  0  0  0  0  0
    1.0518    0.5450    1.0743 H   0  0  0  0  0  0  0  0  0  0  0  0
    2.9066   -0.6978    0.3609 H   0  0  0  0  0  0  0  0  0  0  0  0
  1  2  1  0
  1 20  1  0
  1 21  1  0
  1 22  1  0
  2 19  1  0
  2  3  2  0
  3  4  1  0
  4  9  1  0
  4  5  2  0
  5  6  1  0
  6  7  2  0
  7  8  1  0
  8 17  1  0
  8  9  1  0
  9 10  2  0
 10 11  1  0
 10 18  1  0
 11 17  2  0
 11 12  1  0
 12 13  2  0
 12 23  1  0
 13 14  1  0
 13 15  1  0
 15 16  2  0
 15 24  1  0
 16 17  1  0
 16 25  1  0
 18 19  2  0
 18 26  1  0
 19 27  1  0
M  END
>  <i_m_ct_stereo_status>  (201) 
1

>  <s_m_source_file>  (201) 
/var/tmp/pbs.5076255.sched01/tmpln0nb48r/86bqtw16pk.sdf

>  <i_m_source_file_index>  (201) 
16

>  <i_lp_mmshare_version>  (201) 
48012

>  <i_f3d_flags>  (201) 
0

>  <s_epik_input>  (201) 
W0NIM11jKG4xKVtjSF1bY0hdYzJjKFtjSF1jKENsKVtjSF1bY0hdMyljM24oYzJjMTQpbm5uNA==

>  <s_epik_cmdline>  (201) 
J2VwaWtfcHl0aG9uJywgJy1waHQnLCAnMi4wJywgJy1waCcsICc3LjAnLCAnLXRuJywgJzgnLCAnLW1hJywgJzIwMCcsICctaW1hZScsICc8aW5maWxlLm1hZT4nLCAnLW9tYWUnLCAnPG91dGZpbGUubWFlPic=

>  <r_lp_tautomer_probability>  (201) 
1

>  <r_epik_Ionization_Penalty>  (201) 
1.48761e-08

>  <r_epik_Ionization_Penalty_Charging>  (201) 
0

>  <r_epik_Ionization_Penalty_Neutral>  (201) 
1.48761e-08

>  <r_epik_State_Penalty>  (201) 
-0

>  <r_epik_Charging_Adjusted_Penalty>  (201) 
0

>  <i_epik_Tot_Q>  (201) 
0

>  <i_epik_Tot_abs_Q>  (201) 
0

>  <s_lp_Force_Field>  (201) 
OPLS3e

>  <r_lp_Energy>  (201) 
24.092

>  <b_lp_Chiralities_Consistent>  (201) 
1

>  <s_lp_Variant>  (201) 
65:0-1

>  <s_i_glide_gridfile>  (201) 
pfpi4k_grid

>  <i_i_glide_lignum>  (201) 
16

>  <i_i_glide_rotatable_bonds>  (201) 
0

>  <r_i_docking_score>  (201) 
-2.95576

>  <r_i_glide_ligand_efficiency>  (201) 
-0.155566

>  <r_i_glide_ligand_efficiency_sa>  (201) 
-0.415113

>  <r_i_glide_ligand_efficiency_ln>  (201) 
-0.749348

>  <r_i_glide_gscore>  (201) 
-2.95576

>  <r_i_glide_lipo>  (201) 
-0.177017

>  <r_i_glide_hbond>  (201) 
0

>  <r_i_glide_metal>  (201) 
-0

>  <r_i_glide_rewards>  (201) 
-1.57197

>  <r_i_glide_evdw>  (201) 
-20.4798

>  <r_i_glide_ecoul>  (201) 
-1.21107

>  <r_i_glide_erotb>  (201) 
0

>  <r_i_glide_esite>  (201) 
-0.00112007

>  <r_i_glide_emodel>  (201) 
-25.8324

>  <r_i_glide_energy>  (201) 
-21.6908

>  <r_i_glide_einternal>  (201) 
0

>  <r_i_glide_intrahb_reward>  (201) 
-0

>  <i_i_glide_confnum>  (201) 
2

>  <i_i_glide_posenum>  (201) 
16

>  <r_i_glide_eff_state_penalty>  (201) 
0

>  <ligand_id>  (201) 
65

>  <original_smiles>  (201) 
CC1=Nc2nnnn3c2c(c2cc(Cl)ccc23)C=C1

>  <smiles>  (201) 
[H]C1=C([H])c2c3c([H])c(Cl)c([H])c([H])c3n3nnnc(c23)N=C1C([H])([H])[H]

$$$$
65:0:2
     RDKit          3D

 27 30  0  0  1  0  0  0  0  0999 V2000
    4.9179   -0.9929    1.8899 C   0  0  0  0  0  0  0  0  0  0  0  0
    3.7470   -0.2619    2.5082 C   0  0  0  0  0  0  0  0  0  0  0  0
    3.9749   -0.0310    3.8285 N   0  0  0  0  0  0  0  0  0  0  0  0
    3.2046    0.5852    4.7473 C   0  0  0  0  0  0  0  0  0  0  0  0
    3.5481    0.7526    6.0539 N   0  0  0  0  0  0  0  0  0  0  0  0
    2.7467    1.3674    6.9260 N   0  0  0  0  0  0  0  0  0  0  0  0
    1.5693    1.8449    6.5490 N   0  0  0  0  0  0  0  0  0  0  0  0
    1.1811    1.7090    5.2881 N   0  0  0  0  0  0  0  0  0  0  0  0
    1.9547    1.0817    4.3164 C   0  0  0  0  0  0  0  0  0  0  0  0
    1.1177    1.1994    3.2043 C   0  0  0  0  0  0  0  0  0  0  0  0
   -0.0893    1.8781    3.5726 C   0  0  0  0  0  0  0  0  0  0  0  0
   -1.2142    2.2186    2.7955 C   0  0  0  0  0  0  0  0  0  0  0  0
   -2.2849    2.9141    3.4053 C   0  0  0  0  0  0  0  0  0  0  0  0
   -3.6772    3.3456    2.4808 Cl  0  0  0  0  0  0  0  0  0  0  0  0
   -2.2308    3.2448    4.7792 C   0  0  0  0  0  0  0  0  0  0  0  0
   -1.1128    2.8998    5.5660 C   0  0  0  0  0  0  0  0  0  0  0  0
   -0.0451    2.2170    4.9468 C   0  0  0  0  0  0  0  0  0  0  0  0
    1.4545    0.7069    1.9334 C   0  0  0  0  0  0  0  0  0  0  0  0
    2.6612    0.0433    1.6462 C   0  0  0  0  0  0  0  0  0  0  0  0
    4.7625   -1.1921    0.8292 H   0  0  0  0  0  0  0  0  0  0  0  0
    5.0692   -1.9476    2.3953 H   0  0  0  0  0  0  0  0  0  0  0  0
    5.8260   -0.3982    1.9948 H   0  0  0  0  0  0  0  0  0  0  0  0
   -1.2423    1.9638    1.7417 H   0  0  0  0  0  0  0  0  0  0  0  0
   -3.0585    3.7550    5.2408 H   0  0  0  0  0  0  0  0  0  0  0  0
   -1.0624    3.1463    6.6135 H   0  0  0  0  0  0  0  0  0  0  0  0
    0.7480    0.8420    1.1242 H   0  0  0  0  0  0  0  0  0  0  0  0
    2.7453   -0.2685    0.6143 H   0  0  0  0  0  0  0  0  0  0  0  0
  1  2  1  0
  1 20  1  0
  1 21  1  0
  1 22  1  0
  2 19  1  0
  2  3  2  0
  3  4  1  0
  4  9  1  0
  4  5  2  0
  5  6  1  0
  6  7  2  0
  7  8  1  0
  8 17  1  0
  8  9  1  0
  9 10  2  0
 10 11  1  0
 10 18  1  0
 11 17  2  0
 11 12  1  0
 12 13  2  0
 12 23  1  0
 13 14  1  0
 13 15  1  0
 15 16  2  0
 15 24  1  0
 16 17  1  0
 16 25  1  0
 18 19  2  0
 18 26  1  0
 19 27  1  0
M  END
>  <i_m_ct_stereo_status>  (202) 
1

>  <s_m_source_file>  (202) 
/var/tmp/pbs.5076255.sched01/tmpln0nb48r/86bqtw16pk.sdf

>  <i_m_source_file_index>  (202) 
16

>  <i_lp_mmshare_version>  (202) 
48012

>  <i_f3d_flags>  (202) 
0

>  <s_epik_input>  (202) 
W0NIM11jKG4xKVtjSF1bY0hdYzJjKFtjSF1jKENsKVtjSF1bY0hdMyljM24oYzJjMTQpbm5uNA==

>  <s_epik_cmdline>  (202) 
J2VwaWtfcHl0aG9uJywgJy1waHQnLCAnMi4wJywgJy1waCcsICc3LjAnLCAnLXRuJywgJzgnLCAnLW1hJywgJzIwMCcsICctaW1hZScsICc8aW5maWxlLm1hZT4nLCAnLW9tYWUnLCAnPG91dGZpbGUubWFlPic=

>  <r_lp_tautomer_probability>  (202) 
1

>  <r_epik_Ionization_Penalty>  (202) 
1.48761e-08

>  <r_epik_Ionization_Penalty_Charging>  (202) 
0

>  <r_epik_Ionization_Penalty_Neutral>  (202) 
1.48761e-08

>  <r_epik_State_Penalty>  (202) 
-0

>  <r_epik_Charging_Adjusted_Penalty>  (202) 
0

>  <i_epik_Tot_Q>  (202) 
0

>  <i_epik_Tot_abs_Q>  (202) 
0

>  <s_lp_Force_Field>  (202) 
OPLS3e

>  <r_lp_Energy>  (202) 
24.092

>  <b_lp_Chiralities_Consistent>  (202) 
1

>  <s_lp_Variant>  (202) 
65:0-1

>  <s_i_glide_gridfile>  (202) 
pfpi4k_grid

>  <i_i_glide_lignum>  (202) 
16

>  <i_i_glide_rotatable_bonds>  (202) 
0

>  <r_i_docking_score>  (202) 
-2.89221

>  <r_i_glide_ligand_efficiency>  (202) 
-0.152222

>  <r_i_glide_ligand_efficiency_sa>  (202) 
-0.406188

>  <r_i_glide_ligand_efficiency_ln>  (202) 
-0.733237

>  <r_i_glide_gscore>  (202) 
-2.89221

>  <r_i_glide_lipo>  (202) 
-0.234028

>  <r_i_glide_hbond>  (202) 
0

>  <r_i_glide_metal>  (202) 
-0

>  <r_i_glide_rewards>  (202) 
-1.57096

>  <r_i_glide_evdw>  (202) 
-20.2209

>  <r_i_glide_ecoul>  (202) 
-0.503464

>  <r_i_glide_erotb>  (202) 
0

>  <r_i_glide_esite>  (202) 
-0.000655155

>  <r_i_glide_emodel>  (202) 
-24.7742

>  <r_i_glide_energy>  (202) 
-20.7243

>  <r_i_glide_einternal>  (202) 
0

>  <r_i_glide_intrahb_reward>  (202) 
-0

>  <i_i_glide_confnum>  (202) 
1

>  <i_i_glide_posenum>  (202) 
2

>  <r_i_glide_eff_state_penalty>  (202) 
0

>  <ligand_id>  (202) 
65

>  <original_smiles>  (202) 
CC1=Nc2nnnn3c2c(c2cc(Cl)ccc23)C=C1

>  <smiles>  (202) 
[H]C1=C([H])c2c3c([H])c(Cl)c([H])c([H])c3n3nnnc(c23)N=C1C([H])([H])[H]

$$$$
66:0:0
     RDKit          3D

 85 91  0  0  1  0  0  0  0  0999 V2000
    4.2615    3.1648    8.5702 C   0  0  0  0  0  0  0  0  0  0  0  0
    3.3272    3.7417    7.6631 O   0  0  0  0  0  0  0  0  0  0  0  0
    1.9663    3.3273    7.7748 C   0  0  2  0  0  0  0  0  0  0  0  0
    1.8516    1.8559    7.1847 C   0  0  1  0  0  0  0  0  0  0  0  0
    0.5359    1.1385    7.5352 C   0  0  0  0  0  0  0  0  0  0  0  0
   -0.4312    1.0237    6.3694 C   0  0  0  0  0  0  0  0  0  0  0  0
   -1.3975    0.2410    6.4826 O   0  0  0  0  0  0  0  0  0  0  0  0
   -0.2048    1.9006    5.1005 C   0  0  2  0  0  0  0  0  0  0  0  0
   -1.3277    1.4942    4.0991 C   0  0  0  0  0  0  0  0  0  0  0  0
    1.2707    1.5024    4.5867 C   0  0  2  0  0  0  0  0  0  0  0  0
    1.4247    0.3110    3.5050 C   0  0  0  0  0  0  0  0  0  0  0  0
    0.7118   -1.0276    3.8606 C   0  0  0  0  0  0  0  0  0  0  0  0
    0.9786    0.7555    2.0806 C   0  0  0  0  0  0  0  0  0  0  0  0
    2.9184   -0.0539    3.3116 C   0  0  0  0  0  0  0  0  0  0  0  0
    3.6061   -0.5403    4.5926 C   0  0  0  0  0  0  0  0  0  0  0  0
    2.9588    0.0086    5.8713 C   0  0  0  0  0  0  0  0  0  0  0  0
    2.3862    1.4516    5.7384 C   0  0  2  0  0  0  0  0  0  0  0  0
    3.6173    2.3115    5.3436 C   0  0  0  0  0  0  0  0  0  0  0  0
   -0.4248    3.4993    5.3961 C   0  0  1  0  0  0  0  0  0  0  0  0
   -1.3937    4.2427    4.4105 C   0  0  0  0  0  0  0  0  0  0  0  0
   -1.1623    3.6551    6.7123 C   0  0  0  0  0  0  0  0  0  0  0  0
   -0.4136    4.1052    7.6861 C   0  0  0  0  0  0  0  0  0  0  0  0
    0.9934    4.4813    7.2852 C   0  0  2  0  0  0  0  0  0  0  0  0
    0.8378    4.3526    5.7417 C   0  0  0  0  0  0  0  0  0  0  0  0
    1.5755    5.0898    4.8203 C   0  0  0  0  0  0  0  0  0  0  0  0
    1.3533    4.8409    3.3198 C   0  0  0  0  0  0  0  0  0  0  0  0
    2.6058    6.1842    5.1007 C   0  0  0  0  0  0  0  0  0  0  0  0
    3.2628    6.9361    3.9230 C   0  0  0  0  0  0  0  0  0  0  0  0
    4.0511    5.9118    4.6484 C   0  0  0  0  0  0  0  0  0  0  0  0
    2.4497    7.1229    6.3342 C   0  0  2  0  0  0  0  0  0  0  0  0
    3.3265    6.7253    7.5179 C   0  0  0  0  0  0  0  0  0  0  0  0
    4.5586    6.9111    7.5985 O   0  0  0  0  0  0  0  0  0  0  0  0
    2.5119    6.1735    8.6545 C   0  0  0  0  0  0  0  0  0  0  0  0
    1.1605    5.9314    7.9489 C   0  0  1  0  0  0  0  0  0  0  0  0
    1.0575    7.1887    7.0149 C   0  0  0  0  0  0  0  0  0  0  0  0
    0.9408    8.4965    7.8733 C   0  0  0  0  0  0  0  0  0  0  0  0
   -0.1794    7.2728    6.0867 C   0  0  0  0  0  0  0  0  0  0  0  0
    5.2117    3.6895    8.4709 H   0  0  0  0  0  0  0  0  0  0  0  0
    4.4578    2.1142    8.3591 H   0  0  0  0  0  0  0  0  0  0  0  0
    3.9332    3.2596    9.6052 H   0  0  0  0  0  0  0  0  0  0  0  0
    1.7687    3.2459    8.8461 H   0  0  0  0  0  0  0  0  0  0  0  0
    2.5240    1.3375    7.8593 H   0  0  0  0  0  0  0  0  0  0  0  0
    0.7568    0.1274    7.8728 H   0  0  0  0  0  0  0  0  0  0  0  0
    0.0426    1.6261    8.3752 H   0  0  0  0  0  0  0  0  0  0  0  0
   -1.2240    1.9704    3.1282 H   0  0  0  0  0  0  0  0  0  0  0  0
   -2.3198    1.7500    4.4731 H   0  0  0  0  0  0  0  0  0  0  0  0
   -1.3909    0.4264    3.9214 H   0  0  0  0  0  0  0  0  0  0  0  0
    1.5843    2.3532    4.0064 H   0  0  0  0  0  0  0  0  0  0  0  0
    1.3390   -1.8949    3.6558 H   0  0  0  0  0  0  0  0  0  0  0  0
   -0.1867   -1.1921    3.2778 H   0  0  0  0  0  0  0  0  0  0  0  0
    0.4325   -1.0996    4.9062 H   0  0  0  0  0  0  0  0  0  0  0  0
    1.4261    0.1331    1.3043 H   0  0  0  0  0  0  0  0  0  0  0  0
    1.2799    1.7811    1.8614 H   0  0  0  0  0  0  0  0  0  0  0  0
   -0.0904    0.6774    1.9065 H   0  0  0  0  0  0  0  0  0  0  0  0
    3.0397   -0.8222    2.5451 H   0  0  0  0  0  0  0  0  0  0  0  0
    3.4462    0.8007    2.8927 H   0  0  0  0  0  0  0  0  0  0  0  0
    3.5818   -1.6282    4.6312 H   0  0  0  0  0  0  0  0  0  0  0  0
    4.6599   -0.2672    4.5567 H   0  0  0  0  0  0  0  0  0  0  0  0
    2.1638   -0.6681    6.1773 H   0  0  0  0  0  0  0  0  0  0  0  0
    3.6966   -0.0529    6.6730 H   0  0  0  0  0  0  0  0  0  0  0  0
    4.0051    2.1386    4.3465 H   0  0  0  0  0  0  0  0  0  0  0  0
    4.4570    2.1603    6.0200 H   0  0  0  0  0  0  0  0  0  0  0  0
    3.3600    3.3557    5.3605 H   0  0  0  0  0  0  0  0  0  0  0  0
   -1.3522    5.3136    4.5758 H   0  0  0  0  0  0  0  0  0  0  0  0
   -2.4395    3.9617    4.5483 H   0  0  0  0  0  0  0  0  0  0  0  0
   -1.2110    4.1046    3.3485 H   0  0  0  0  0  0  0  0  0  0  0  0
   -2.2028    3.3674    6.8346 H   0  0  0  0  0  0  0  0  0  0  0  0
   -0.7668    4.2421    8.7058 H   0  0  0  0  0  0  0  0  0  0  0  0
    2.2946    4.6215    2.8208 H   0  0  0  0  0  0  0  0  0  0  0  0
    0.8768    5.7041    2.8569 H   0  0  0  0  0  0  0  0  0  0  0  0
    0.7668    3.9747    3.0647 H   0  0  0  0  0  0  0  0  0  0  0  0
    3.0669    6.6829    2.8875 H   0  0  0  0  0  0  0  0  0  0  0  0
    3.5413    7.9759    4.0580 H   0  0  0  0  0  0  0  0  0  0  0  0
    4.8933    6.3135    5.1894 H   0  0  0  0  0  0  0  0  0  0  0  0
    4.2290    4.9502    4.1789 H   0  0  0  0  0  0  0  0  0  0  0  0
    2.7416    8.1203    6.0266 H   0  0  0  0  0  0  0  0  0  0  0  0
    2.9475    5.3230    9.1626 H   0  0  0  0  0  0  0  0  0  0  0  0
    2.4349    6.9399    9.4230 H   0  0  0  0  0  0  0  0  0  0  0  0
    0.4214    6.0612    8.7431 H   0  0  0  0  0  0  0  0  0  0  0  0
    0.0459    8.4771    8.4994 H   0  0  0  0  0  0  0  0  0  0  0  0
    0.8694    9.3848    7.2431 H   0  0  0  0  0  0  0  0  0  0  0  0
    1.7797    8.7028    8.5374 H   0  0  0  0  0  0  0  0  0  0  0  0
   -0.9468    6.5777    6.4180 H   0  0  0  0  0  0  0  0  0  0  0  0
    0.0544    7.0948    5.0397 H   0  0  0  0  0  0  0  0  0  0  0  0
   -0.6433    8.2608    6.0940 H   0  0  0  0  0  0  0  0  0  0  0  0
  1  2  1  0
  1 38  1  0
  1 39  1  0
  1 40  1  0
  2  3  1  0
  3 23  1  0
  3  4  1  0
  3 41  1  1
  4 17  1  0
  4  5  1  0
  4 42  1  1
  5  6  1  0
  5 43  1  0
  5 44  1  0
  6  7  2  0
  6  8  1  0
  8  9  1  6
  8 10  1  0
  8 19  1  0
  9 45  1  0
  9 46  1  0
  9 47  1  0
 10 17  1  0
 10 11  1  0
 10 48  1  6
 11 12  1  0
 11 13  1  0
 11 14  1  0
 12 49  1  0
 12 50  1  0
 12 51  1  0
 13 52  1  0
 13 53  1  0
 13 54  1  0
 14 15  1  0
 14 55  1  0
 14 56  1  0
 15 16  1  0
 15 57  1  0
 15 58  1  0
 16 17  1  0
 16 59  1  0
 16 60  1  0
 17 18  1  6
 18 61  1  0
 18 62  1  0
 18 63  1  0
 19 24  1  0
 19 20  1  6
 19 21  1  0
 20 64  1  0
 20 65  1  0
 20 66  1  0
 21 22  2  0
 21 67  1  0
 23 22  1  1
 22 68  1  0
 23 34  1  0
 23 24  1  0
 24 25  2  0
 25 26  1  0
 25 27  1  0
 26 69  1  0
 26 70  1  0
 26 71  1  0
 27 29  1  0
 27 28  1  0
 27 30  1  0
 28 29  1  0
 28 72  1  0
 28 73  1  0
 29 74  1  0
 29 75  1  0
 30 35  1  0
 30 31  1  0
 30 76  1  6
 31 32  2  0
 31 33  1  0
 33 34  1  0
 33 77  1  0
 33 78  1  0
 34 35  1  0
 34 79  1  1
 35 36  1  0
 35 37  1  0
 36 80  1  0
 36 81  1  0
 36 82  1  0
 37 83  1  0
 37 84  1  0
 37 85  1  0
M  END
>  <i_m_ct_stereo_status>  (203) 
1

>  <s_m_source_file>  (203) 
/var/tmp/pbs.5076255.sched01/tmpln0nb48r/86bqtw16pk.sdf

>  <i_m_source_file_index>  (203) 
17

>  <i_lp_mmshare_version>  (203) 
48012

>  <i_f3d_flags>  (203) 
0

>  <s_epik_input>  (203) 
W0NIM11DMShbQ0gzXSlbQ0gyXVtDSDJdW0NIMl1bQ0BdKFtDSDNdKShbQ0BIXShbQ0gyXUMyPU8pW0NASF0zT1tDSDNdKVtDQEBIXTFbQ0BdMihbQ0gzXSlbQ0BAXShbQ0gzXSkoW0NIXT1bQ0hdNClDKFtDQF0zNDUpPUMoW0NIM10pQzYoW0NIMl1bQ0gyXTYpW0NAQEhdN0MoPU8pW0NIMl1bQ0BIXTVDNyhbQ0gzXSlbQ0gzXQ==

>  <s_epik_cmdline>  (203) 
J2VwaWtfcHl0aG9uJywgJy1waHQnLCAnMi4wJywgJy1waCcsICc3LjAnLCAnLXRuJywgJzgnLCAnLW1hJywgJzIwMCcsICctaW1hZScsICc8aW5maWxlLm1hZT4nLCAnLW9tYWUnLCAnPG91dGZpbGUubWFlPic=

>  <r_lp_tautomer_probability>  (203) 
1

>  <r_epik_Ionization_Penalty>  (203) 
7.18006e-12

>  <r_epik_Ionization_Penalty_Charging>  (203) 
0

>  <r_epik_Ionization_Penalty_Neutral>  (203) 
7.18006e-12

>  <r_epik_State_Penalty>  (203) 
-0

>  <r_epik_Charging_Adjusted_Penalty>  (203) 
0

>  <i_epik_Tot_Q>  (203) 
0

>  <i_epik_Tot_abs_Q>  (203) 
0

>  <s_lp_Force_Field>  (203) 
OPLS3e

>  <r_lp_Energy>  (203) 
148.843

>  <b_lp_Chiralities_Consistent>  (203) 
1

>  <s_lp_Variant>  (203) 
66:0-1

>  <s_i_glide_gridfile>  (203) 
pfpi4k_grid

>  <i_i_glide_lignum>  (203) 
17

>  <i_i_glide_rotatable_bonds>  (203) 
1

>  <r_i_docking_score>  (203) 
-1.66336

>  <r_i_glide_ligand_efficiency>  (203) 
-0.0449556

>  <r_i_glide_ligand_efficiency_sa>  (203) 
-0.149802

>  <r_i_glide_ligand_efficiency_ln>  (203) 
-0.360743

>  <r_i_glide_gscore>  (203) 
-1.66336

>  <r_i_glide_lipo>  (203) 
-0.0391951

>  <r_i_glide_hbond>  (203) 
-0.16

>  <r_i_glide_metal>  (203) 
-0

>  <r_i_glide_rewards>  (203) 
0

>  <r_i_glide_evdw>  (203) 
-20.6271

>  <r_i_glide_ecoul>  (203) 
-2.75034

>  <r_i_glide_erotb>  (203) 
0

>  <r_i_glide_esite>  (203) 
-0.0202552

>  <r_i_glide_emodel>  (203) 
-25.7876

>  <r_i_glide_energy>  (203) 
-23.3775

>  <r_i_glide_einternal>  (203) 
0.00121701

>  <r_i_glide_intrahb_reward>  (203) 
-0

>  <i_i_glide_confnum>  (203) 
1

>  <i_i_glide_posenum>  (203) 
1

>  <r_i_glide_eff_state_penalty>  (203) 
0

>  <ligand_id>  (203) 
66

>  <original_smiles>  (203) 
COC1C2CC(=O)C(C)(C3C(C)(C)CCCC23C)C2(C)C=CC13C2=C(C)C1(CC1)C1C(=O)CC3C1(C)C

>  <smiles>  (203) 
[H]C1=C([H])C2(C([H])([H])[H])C3=C(C([H])([H])[H])C4(C([H])([H])C4([H])[H])C4([H])C(=O)C([H])([H])C([H])(C13C([H])(OC([H])([H])[H])C1([H])C([H])([H])C(=O)C2(C([H])([H])[H])C2([H])C(C([H])([H])[H])(C([H])([H])[H])C([H])([H])C([H])([H])C([H])([H])C12C([H])([H])[H])C4(C([H])([H])[H])C([H])([H])[H]

$$$$
66:0:1
     RDKit          3D

 85 91  0  0  1  0  0  0  0  0999 V2000
    5.1557    2.1482    6.5830 C   0  0  0  0  0  0  0  0  0  0  0  0
    3.9932    1.5165    6.0566 O   0  0  0  0  0  0  0  0  0  0  0  0
    3.1633    2.2950    5.1964 C   0  0  2  0  0  0  0  0  0  0  0  0
    2.3058    3.2739    6.1029 C   0  0  1  0  0  0  0  0  0  0  0  0
    1.6116    4.4051    5.3198 C   0  0  0  0  0  0  0  0  0  0  0  0
    0.1055    4.2173    5.1729 C   0  0  0  0  0  0  0  0  0  0  0  0
   -0.5842    5.1927    4.8252 O   0  0  0  0  0  0  0  0  0  0  0  0
   -0.5147    2.8156    5.4606 C   0  0  2  0  0  0  0  0  0  0  0  0
   -2.0505    3.0006    5.2606 C   0  0  0  0  0  0  0  0  0  0  0  0
   -0.1156    2.5037    6.9865 C   0  0  2  0  0  0  0  0  0  0  0  0
   -1.1296    2.9488    8.1676 C   0  0  0  0  0  0  0  0  0  0  0  0
   -1.6037    4.4314    8.1420 C   0  0  0  0  0  0  0  0  0  0  0  0
   -2.3780    2.0290    8.2387 C   0  0  0  0  0  0  0  0  0  0  0  0
   -0.4584    2.7458    9.5538 C   0  0  0  0  0  0  0  0  0  0  0  0
    0.8199    3.5699    9.7474 C   0  0  0  0  0  0  0  0  0  0  0  0
    1.5307    3.8957    8.4267 C   0  0  0  0  0  0  0  0  0  0  0  0
    1.4283    2.7804    7.3404 C   0  0  2  0  0  0  0  0  0  0  0  0
    2.0687    1.5340    8.0062 C   0  0  0  0  0  0  0  0  0  0  0  0
   -0.0477    1.6818    4.3743 C   0  0  1  0  0  0  0  0  0  0  0  0
   -1.2159    0.8625    3.7076 C   0  0  0  0  0  0  0  0  0  0  0  0
    0.5377    2.3745    3.1688 C   0  0  0  0  0  0  0  0  0  0  0  0
    1.8439    2.2587    3.0713 C   0  0  0  0  0  0  0  0  0  0  0  0
    2.4655    1.3683    4.1141 C   0  0  2  0  0  0  0  0  0  0  0  0
    1.1673    0.7691    4.7431 C   0  0  0  0  0  0  0  0  0  0  0  0
    1.0777   -0.4726    5.3352 C   0  0  0  0  0  0  0  0  0  0  0  0
   -0.2658   -0.9180    5.9508 C   0  0  0  0  0  0  0  0  0  0  0  0
    2.1694   -1.5507    5.4455 C   0  0  0  0  0  0  0  0  0  0  0  0
    1.8149   -2.9128    6.0825 C   0  0  0  0  0  0  0  0  0  0  0  0
    2.6310   -1.9308    6.8568 C   0  0  0  0  0  0  0  0  0  0  0  0
    3.2297   -1.6963    4.3099 C   0  0  2  0  0  0  0  0  0  0  0  0
    4.5723   -1.0471    4.6520 C   0  0  0  0  0  0  0  0  0  0  0  0
    5.4080   -1.4941    5.4517 O   0  0  0  0  0  0  0  0  0  0  0  0
    4.8222    0.1730    3.7974 C   0  0  0  0  0  0  0  0  0  0  0  0
    3.4131    0.4196    3.2245 C   0  0  1  0  0  0  0  0  0  0  0  0
    2.9279   -1.0435    2.9347 C   0  0  0  0  0  0  0  0  0  0  0  0
    3.8183   -1.6990    1.8195 C   0  0  0  0  0  0  0  0  0  0  0  0
    1.4913   -1.2044    2.3760 C   0  0  0  0  0  0  0  0  0  0  0  0
    5.7627    1.3940    7.0832 H   0  0  0  0  0  0  0  0  0  0  0  0
    4.9215    2.9187    7.3163 H   0  0  0  0  0  0  0  0  0  0  0  0
    5.7651    2.5892    5.7951 H   0  0  0  0  0  0  0  0  0  0  0  0
    3.8377    2.9246    4.6116 H   0  0  0  0  0  0  0  0  0  0  0  0
    3.1081    3.8325    6.5716 H   0  0  0  0  0  0  0  0  0  0  0  0
    1.7610    5.3520    5.8362 H   0  0  0  0  0  0  0  0  0  0  0  0
    2.0616    4.5344    4.3365 H   0  0  0  0  0  0  0  0  0  0  0  0
   -2.5975    2.1094    5.5331 H   0  0  0  0  0  0  0  0  0  0  0  0
   -2.3050    3.2356    4.2248 H   0  0  0  0  0  0  0  0  0  0  0  0
   -2.4763    3.8218    5.8248 H   0  0  0  0  0  0  0  0  0  0  0  0
   -0.1684    1.4305    7.0538 H   0  0  0  0  0  0  0  0  0  0  0  0
   -1.5793    4.8852    9.1319 H   0  0  0  0  0  0  0  0  0  0  0  0
   -2.6364    4.5330    7.8154 H   0  0  0  0  0  0  0  0  0  0  0  0
   -0.9884    5.0633    7.5100 H   0  0  0  0  0  0  0  0  0  0  0  0
   -2.8406    2.0681    9.2248 H   0  0  0  0  0  0  0  0  0  0  0  0
   -2.1148    0.9899    8.0516 H   0  0  0  0  0  0  0  0  0  0  0  0
   -3.1706    2.3099    7.5528 H   0  0  0  0  0  0  0  0  0  0  0  0
   -1.1496    2.9923   10.3648 H   0  0  0  0  0  0  0  0  0  0  0  0
   -0.2617    1.6880    9.7113 H   0  0  0  0  0  0  0  0  0  0  0  0
    0.5798    4.5027   10.2517 H   0  0  0  0  0  0  0  0  0  0  0  0
    1.4891    3.0319   10.4150 H   0  0  0  0  0  0  0  0  0  0  0  0
    1.1297    4.8252    8.0318 H   0  0  0  0  0  0  0  0  0  0  0  0
    2.5742    4.1206    8.6579 H   0  0  0  0  0  0  0  0  0  0  0  0
    1.5027    1.1054    8.8239 H   0  0  0  0  0  0  0  0  0  0  0  0
    3.0572    1.7536    8.4032 H   0  0  0  0  0  0  0  0  0  0  0  0
    2.1657    0.7369    7.2903 H   0  0  0  0  0  0  0  0  0  0  0  0
   -0.8331    0.0351    3.1128 H   0  0  0  0  0  0  0  0  0  0  0  0
   -1.8021    1.4586    3.0002 H   0  0  0  0  0  0  0  0  0  0  0  0
   -1.9595    0.4275    4.3741 H   0  0  0  0  0  0  0  0  0  0  0  0
   -0.0616    2.9628    2.4872 H   0  0  0  0  0  0  0  0  0  0  0  0
    2.4291    2.7276    2.2931 H   0  0  0  0  0  0  0  0  0  0  0  0
   -0.1071   -1.2413    6.9710 H   0  0  0  0  0  0  0  0  0  0  0  0
   -0.6979   -1.7198    5.3613 H   0  0  0  0  0  0  0  0  0  0  0  0
   -1.0033   -0.1453    6.0484 H   0  0  0  0  0  0  0  0  0  0  0  0
    0.8295   -3.1379    6.5023 H   0  0  0  0  0  0  0  0  0  0  0  0
    2.3425   -3.7833    5.7118 H   0  0  0  0  0  0  0  0  0  0  0  0
    3.6485   -2.2390    7.0339 H   0  0  0  0  0  0  0  0  0  0  0  0
    2.1762   -1.4063    7.7002 H   0  0  0  0  0  0  0  0  0  0  0  0
    3.4066   -2.7521    4.1688 H   0  0  0  0  0  0  0  0  0  0  0  0
    5.2762    1.0051    4.3208 H   0  0  0  0  0  0  0  0  0  0  0  0
    5.5435   -0.0852    3.0259 H   0  0  0  0  0  0  0  0  0  0  0  0
    3.6020    0.8932    2.2570 H   0  0  0  0  0  0  0  0  0  0  0  0
    3.7486   -1.1367    0.8861 H   0  0  0  0  0  0  0  0  0  0  0  0
    3.4983   -2.7182    1.6020 H   0  0  0  0  0  0  0  0  0  0  0  0
    4.8778   -1.7878    2.0523 H   0  0  0  0  0  0  0  0  0  0  0  0
    1.1108   -0.2589    1.9944 H   0  0  0  0  0  0  0  0  0  0  0  0
    0.7872   -1.6177    3.0950 H   0  0  0  0  0  0  0  0  0  0  0  0
    1.4430   -1.8921    1.5294 H   0  0  0  0  0  0  0  0  0  0  0  0
  1  2  1  0
  1 38  1  0
  1 39  1  0
  1 40  1  0
  2  3  1  0
  3 23  1  0
  3  4  1  0
  3 41  1  6
  4 17  1  0
  4  5  1  0
  4 42  1  1
  5  6  1  0
  5 43  1  0
  5 44  1  0
  6  7  2  0
  6  8  1  0
  8  9  1  1
  8 10  1  0
  8 19  1  0
  9 45  1  0
  9 46  1  0
  9 47  1  0
 10 17  1  0
 10 11  1  0
 10 48  1  6
 11 12  1  0
 11 13  1  0
 11 14  1  0
 12 49  1  0
 12 50  1  0
 12 51  1  0
 13 52  1  0
 13 53  1  0
 13 54  1  0
 14 15  1  0
 14 55  1  0
 14 56  1  0
 15 16  1  0
 15 57  1  0
 15 58  1  0
 16 17  1  0
 16 59  1  0
 16 60  1  0
 17 18  1  1
 18 61  1  0
 18 62  1  0
 18 63  1  0
 19 24  1  0
 19 20  1  6
 19 21  1  0
 20 64  1  0
 20 65  1  0
 20 66  1  0
 21 22  2  0
 21 67  1  0
 23 22  1  6
 22 68  1  0
 23 34  1  0
 23 24  1  0
 24 25  2  0
 25 26  1  0
 25 27  1  0
 26 69  1  0
 26 70  1  0
 26 71  1  0
 27 29  1  0
 27 28  1  0
 27 30  1  0
 28 29  1  0
 28 72  1  0
 28 73  1  0
 29 74  1  0
 29 75  1  0
 30 35  1  0
 30 31  1  0
 30 76  1  6
 31 32  2  0
 31 33  1  0
 33 34  1  0
 33 77  1  0
 33 78  1  0
 34 35  1  0
 34 79  1  6
 35 36  1  0
 35 37  1  0
 36 80  1  0
 36 81  1  0
 36 82  1  0
 37 83  1  0
 37 84  1  0
 37 85  1  0
M  END
>  <i_m_ct_stereo_status>  (204) 
1

>  <s_m_source_file>  (204) 
/var/tmp/pbs.5076255.sched01/tmpln0nb48r/86bqtw16pk.sdf

>  <i_m_source_file_index>  (204) 
17

>  <i_lp_mmshare_version>  (204) 
48012

>  <i_f3d_flags>  (204) 
0

>  <s_epik_input>  (204) 
W0NIM11DMShbQ0gzXSlbQ0gyXVtDSDJdW0NIMl1bQ0BdKFtDSDNdKShbQ0BIXShbQ0gyXUMyPU8pW0NASF0zT1tDSDNdKVtDQEBIXTFbQ0BdMihbQ0gzXSlbQ0BAXShbQ0gzXSkoW0NIXT1bQ0hdNClDKFtDQF0zNDUpPUMoW0NIM10pQzYoW0NIMl1bQ0gyXTYpW0NAQEhdN0MoPU8pW0NIMl1bQ0BIXTVDNyhbQ0gzXSlbQ0gzXQ==

>  <s_epik_cmdline>  (204) 
J2VwaWtfcHl0aG9uJywgJy1waHQnLCAnMi4wJywgJy1waCcsICc3LjAnLCAnLXRuJywgJzgnLCAnLW1hJywgJzIwMCcsICctaW1hZScsICc8aW5maWxlLm1hZT4nLCAnLW9tYWUnLCAnPG91dGZpbGUubWFlPic=

>  <r_lp_tautomer_probability>  (204) 
1

>  <r_epik_Ionization_Penalty>  (204) 
7.18006e-12

>  <r_epik_Ionization_Penalty_Charging>  (204) 
0

>  <r_epik_Ionization_Penalty_Neutral>  (204) 
7.18006e-12

>  <r_epik_State_Penalty>  (204) 
-0

>  <r_epik_Charging_Adjusted_Penalty>  (204) 
0

>  <i_epik_Tot_Q>  (204) 
0

>  <i_epik_Tot_abs_Q>  (204) 
0

>  <s_lp_Force_Field>  (204) 
OPLS3e

>  <r_lp_Energy>  (204) 
148.843

>  <b_lp_Chiralities_Consistent>  (204) 
1

>  <s_lp_Variant>  (204) 
66:0-1

>  <s_i_glide_gridfile>  (204) 
pfpi4k_grid

>  <i_i_glide_lignum>  (204) 
17

>  <i_i_glide_rotatable_bonds>  (204) 
1

>  <r_i_docking_score>  (204) 
-1.58597

>  <r_i_glide_ligand_efficiency>  (204) 
-0.042864

>  <r_i_glide_ligand_efficiency_sa>  (204) 
-0.142832

>  <r_i_glide_ligand_efficiency_ln>  (204) 
-0.343959

>  <r_i_glide_gscore>  (204) 
-1.58597

>  <r_i_glide_lipo>  (204) 
-0.0656864

>  <r_i_glide_hbond>  (204) 
-0.00907783

>  <r_i_glide_metal>  (204) 
-0

>  <r_i_glide_rewards>  (204) 
-0.0346295

>  <r_i_glide_evdw>  (204) 
-21.8123

>  <r_i_glide_ecoul>  (204) 
-2.4506

>  <r_i_glide_erotb>  (204) 
0

>  <r_i_glide_esite>  (204) 
-0.0183671

>  <r_i_glide_emodel>  (204) 
-26.5506

>  <r_i_glide_energy>  (204) 
-24.2629

>  <r_i_glide_einternal>  (204) 
0.0355117

>  <r_i_glide_intrahb_reward>  (204) 
-0

>  <i_i_glide_confnum>  (204) 
1

>  <i_i_glide_posenum>  (204) 
3

>  <r_i_glide_eff_state_penalty>  (204) 
0

>  <ligand_id>  (204) 
66

>  <original_smiles>  (204) 
COC1C2CC(=O)C(C)(C3C(C)(C)CCCC23C)C2(C)C=CC13C2=C(C)C1(CC1)C1C(=O)CC3C1(C)C

>  <smiles>  (204) 
[H]C1=C([H])C2(C([H])([H])[H])C3=C(C([H])([H])[H])C4(C([H])([H])C4([H])[H])C4([H])C(=O)C([H])([H])C([H])(C13C([H])(OC([H])([H])[H])C1([H])C([H])([H])C(=O)C2(C([H])([H])[H])C2([H])C(C([H])([H])[H])(C([H])([H])[H])C([H])([H])C([H])([H])C([H])([H])C12C([H])([H])[H])C4(C([H])([H])[H])C([H])([H])[H]

$$$$
66:0:2
     RDKit          3D

 85 91  0  0  1  0  0  0  0  0999 V2000
    0.1612    0.1457    9.9534 C   0  0  0  0  0  0  0  0  0  0  0  0
    0.6550   -0.3211    8.7004 O   0  0  0  0  0  0  0  0  0  0  0  0
    1.7063    0.4373    8.0982 C   0  0  2  0  0  0  0  0  0  0  0  0
    1.0677    1.7451    7.4711 C   0  0  1  0  0  0  0  0  0  0  0  0
    2.0949    2.8234    7.0798 C   0  0  0  0  0  0  0  0  0  0  0  0
    2.3160    2.9497    5.5762 C   0  0  0  0  0  0  0  0  0  0  0  0
    2.9134    3.9550    5.1558 O   0  0  0  0  0  0  0  0  0  0  0  0
    1.8158    1.8129    4.6349 C   0  0  2  0  0  0  0  0  0  0  0  0
    2.1536    2.2930    3.1864 C   0  0  0  0  0  0  0  0  0  0  0  0
    0.2351    1.7289    4.9147 C   0  0  2  0  0  0  0  0  0  0  0  0
   -0.7624    2.6172    4.0067 C   0  0  0  0  0  0  0  0  0  0  0  0
   -0.4290    4.1351    3.8949 C   0  0  0  0  0  0  0  0  0  0  0  0
   -0.9267    2.0228    2.5804 C   0  0  0  0  0  0  0  0  0  0  0  0
   -2.2033    2.5487    4.5728 C   0  0  0  0  0  0  0  0  0  0  0  0
   -2.3380    3.0809    6.0042 C   0  0  0  0  0  0  0  0  0  0  0  0
   -1.0367    2.9718    6.8072 C   0  0  0  0  0  0  0  0  0  0  0  0
   -0.1707    1.7188    6.4691 C   0  0  2  0  0  0  0  0  0  0  0  0
   -1.1023    0.5202    6.7813 C   0  0  0  0  0  0  0  0  0  0  0  0
    2.6420    0.4132    4.8545 C   0  0  1  0  0  0  0  0  0  0  0  0
    3.2207   -0.2375    3.5452 C   0  0  0  0  0  0  0  0  0  0  0  0
    3.9120    0.7053    5.6202 C   0  0  0  0  0  0  0  0  0  0  0  0
    3.8858    0.2823    6.8635 C   0  0  0  0  0  0  0  0  0  0  0  0
    2.6512   -0.5020    7.2333 C   0  0  2  0  0  0  0  0  0  0  0  0
    2.0185   -0.6541    5.8106 C   0  0  0  0  0  0  0  0  0  0  0  0
    1.2112   -1.7054    5.4265 C   0  0  0  0  0  0  0  0  0  0  0  0
    0.6171   -1.7018    3.9943 C   0  0  0  0  0  0  0  0  0  0  0  0
    0.8205   -2.9510    6.2231 C   0  0  0  0  0  0  0  0  0  0  0  0
   -0.0261   -4.0574    5.5527 C   0  0  0  0  0  0  0  0  0  0  0  0
   -0.6686   -3.1458    6.5453 C   0  0  0  0  0  0  0  0  0  0  0  0
    1.8321   -3.5613    7.2544 C   0  0  2  0  0  0  0  0  0  0  0  0
    1.5220   -3.1701    8.6953 C   0  0  0  0  0  0  0  0  0  0  0  0
    0.5777   -3.6133    9.3755 O   0  0  0  0  0  0  0  0  0  0  0  0
    2.5656   -2.2319    9.2514 C   0  0  0  0  0  0  0  0  0  0  0  0
    3.2767   -1.7942    7.9536 C   0  0  1  0  0  0  0  0  0  0  0  0
    3.3218   -3.1409    7.1465 C   0  0  0  0  0  0  0  0  0  0  0  0
    4.2282   -4.1882    7.8882 C   0  0  0  0  0  0  0  0  0  0  0  0
    3.9429   -3.0849    5.7294 C   0  0  0  0  0  0  0  0  0  0  0  0
   -0.5103   -0.6075   10.3651 H   0  0  0  0  0  0  0  0  0  0  0  0
   -0.4093    1.0693    9.8619 H   0  0  0  0  0  0  0  0  0  0  0  0
    0.9653    0.3000   10.6732 H   0  0  0  0  0  0  0  0  0  0  0  0
    2.3461    0.7686    8.9187 H   0  0  0  0  0  0  0  0  0  0  0  0
    0.6598    2.1956    8.3689 H   0  0  0  0  0  0  0  0  0  0  0  0
    1.7551    3.7956    7.4338 H   0  0  0  0  0  0  0  0  0  0  0  0
    3.0487    2.6512    7.5754 H   0  0  0  0  0  0  0  0  0  0  0  0
    1.7706    1.6309    2.4190 H   0  0  0  0  0  0  0  0  0  0  0  0
    3.2291    2.3756    3.0309 H   0  0  0  0  0  0  0  0  0  0  0  0
    1.7880    3.2882    2.9566 H   0  0  0  0  0  0  0  0  0  0  0  0
   -0.0299    0.7319    4.6071 H   0  0  0  0  0  0  0  0  0  0  0  0
   -1.3179    4.7547    3.9928 H   0  0  0  0  0  0  0  0  0  0  0  0
   -0.0102    4.4016    2.9285 H   0  0  0  0  0  0  0  0  0  0  0  0
    0.2643    4.4747    4.6579 H   0  0  0  0  0  0  0  0  0  0  0  0
   -1.8561    2.3555    2.1247 H   0  0  0  0  0  0  0  0  0  0  0  0
   -0.9594    0.9331    2.5881 H   0  0  0  0  0  0  0  0  0  0  0  0
   -0.1472    2.3262    1.8927 H   0  0  0  0  0  0  0  0  0  0  0  0
   -2.9080    3.0905    3.9370 H   0  0  0  0  0  0  0  0  0  0  0  0
   -2.5368    1.5181    4.4995 H   0  0  0  0  0  0  0  0  0  0  0  0
   -2.6368    4.1246    5.9754 H   0  0  0  0  0  0  0  0  0  0  0  0
   -3.1432    2.5510    6.5089 H   0  0  0  0  0  0  0  0  0  0  0  0
   -0.4461    3.8702    6.6428 H   0  0  0  0  0  0  0  0  0  0  0  0
   -1.2925    2.9998    7.8680 H   0  0  0  0  0  0  0  0  0  0  0  0
   -1.9438    0.4004    6.1103 H   0  0  0  0  0  0  0  0  0  0  0  0
   -1.5068    0.6034    7.7855 H   0  0  0  0  0  0  0  0  0  0  0  0
   -0.5554   -0.4031    6.7054 H   0  0  0  0  0  0  0  0  0  0  0  0
    3.6204   -1.2346    3.7327 H   0  0  0  0  0  0  0  0  0  0  0  0
    4.0621    0.3246    3.1231 H   0  0  0  0  0  0  0  0  0  0  0  0
    2.5342   -0.3545    2.7060 H   0  0  0  0  0  0  0  0  0  0  0  0
    4.7349    1.2643    5.1935 H   0  0  0  0  0  0  0  0  0  0  0  0
    4.6921    0.4347    7.5660 H   0  0  0  0  0  0  0  0  0  0  0  0
   -0.4534   -1.8373    4.0513 H   0  0  0  0  0  0  0  0  0  0  0  0
    1.0724   -2.4884    3.4043 H   0  0  0  0  0  0  0  0  0  0  0  0
    0.7209   -0.7838    3.4550 H   0  0  0  0  0  0  0  0  0  0  0  0
   -0.3914   -3.9745    4.5247 H   0  0  0  0  0  0  0  0  0  0  0  0
    0.1350   -5.0750    5.8781 H   0  0  0  0  0  0  0  0  0  0  0  0
   -0.9784   -3.6352    7.4515 H   0  0  0  0  0  0  0  0  0  0  0  0
   -1.3646   -2.3789    6.1936 H   0  0  0  0  0  0  0  0  0  0  0  0
    1.7598   -4.6318    7.1786 H   0  0  0  0  0  0  0  0  0  0  0  0
    2.1757   -1.4353    9.8738 H   0  0  0  0  0  0  0  0  0  0  0  0
    3.2252   -2.7914    9.9111 H   0  0  0  0  0  0  0  0  0  0  0  0
    4.2995   -1.5802    8.2741 H   0  0  0  0  0  0  0  0  0  0  0  0
    5.2531   -3.8226    7.9783 H   0  0  0  0  0  0  0  0  0  0  0  0
    4.2727   -5.1320    7.3439 H   0  0  0  0  0  0  0  0  0  0  0  0
    3.9076   -4.4647    8.8905 H   0  0  0  0  0  0  0  0  0  0  0  0
    4.5169   -2.1712    5.5896 H   0  0  0  0  0  0  0  0  0  0  0  0
    3.2096   -3.1767    4.9306 H   0  0  0  0  0  0  0  0  0  0  0  0
    4.6426   -3.9026    5.5407 H   0  0  0  0  0  0  0  0  0  0  0  0
  1  2  1  0
  1 38  1  0
  1 39  1  0
  1 40  1  0
  2  3  1  0
  3 23  1  0
  3  4  1  0
  3 41  1  1
  4 17  1  0
  4  5  1  0
  4 42  1  1
  5  6  1  0
  5 43  1  0
  5 44  1  0
  6  7  2  0
  6  8  1  0
  8  9  1  6
  8 10  1  0
  8 19  1  0
  9 45  1  0
  9 46  1  0
  9 47  1  0
 10 17  1  0
 10 11  1  0
 10 48  1  6
 11 12  1  0
 11 13  1  0
 11 14  1  0
 12 49  1  0
 12 50  1  0
 12 51  1  0
 13 52  1  0
 13 53  1  0
 13 54  1  0
 14 15  1  0
 14 55  1  0
 14 56  1  0
 15 16  1  0
 15 57  1  0
 15 58  1  0
 16 17  1  0
 16 59  1  0
 16 60  1  0
 17 18  1  6
 18 61  1  0
 18 62  1  0
 18 63  1  0
 19 24  1  0
 19 20  1  6
 19 21  1  0
 20 64  1  0
 20 65  1  0
 20 66  1  0
 21 22  2  0
 21 67  1  0
 23 22  1  6
 22 68  1  0
 23 34  1  0
 23 24  1  0
 24 25  2  0
 25 26  1  0
 25 27  1  0
 26 69  1  0
 26 70  1  0
 26 71  1  0
 27 29  1  0
 27 28  1  0
 27 30  1  0
 28 29  1  0
 28 72  1  0
 28 73  1  0
 29 74  1  0
 29 75  1  0
 30 35  1  0
 30 31  1  0
 30 76  1  1
 31 32  2  0
 31 33  1  0
 33 34  1  0
 33 77  1  0
 33 78  1  0
 34 35  1  0
 34 79  1  1
 35 36  1  0
 35 37  1  0
 36 80  1  0
 36 81  1  0
 36 82  1  0
 37 83  1  0
 37 84  1  0
 37 85  1  0
M  END
>  <i_m_ct_stereo_status>  (205) 
1

>  <s_m_source_file>  (205) 
/var/tmp/pbs.5076255.sched01/tmpln0nb48r/86bqtw16pk.sdf

>  <i_m_source_file_index>  (205) 
17

>  <i_lp_mmshare_version>  (205) 
48012

>  <i_f3d_flags>  (205) 
0

>  <s_epik_input>  (205) 
W0NIM11DMShbQ0gzXSlbQ0gyXVtDSDJdW0NIMl1bQ0BdKFtDSDNdKShbQ0BIXShbQ0gyXUMyPU8pW0NASF0zT1tDSDNdKVtDQEBIXTFbQ0BdMihbQ0gzXSlbQ0BAXShbQ0gzXSkoW0NIXT1bQ0hdNClDKFtDQF0zNDUpPUMoW0NIM10pQzYoW0NIMl1bQ0gyXTYpW0NAQEhdN0MoPU8pW0NIMl1bQ0BIXTVDNyhbQ0gzXSlbQ0gzXQ==

>  <s_epik_cmdline>  (205) 
J2VwaWtfcHl0aG9uJywgJy1waHQnLCAnMi4wJywgJy1waCcsICc3LjAnLCAnLXRuJywgJzgnLCAnLW1hJywgJzIwMCcsICctaW1hZScsICc8aW5maWxlLm1hZT4nLCAnLW9tYWUnLCAnPG91dGZpbGUubWFlPic=

>  <r_lp_tautomer_probability>  (205) 
1

>  <r_epik_Ionization_Penalty>  (205) 
7.18006e-12

>  <r_epik_Ionization_Penalty_Charging>  (205) 
0

>  <r_epik_Ionization_Penalty_Neutral>  (205) 
7.18006e-12

>  <r_epik_State_Penalty>  (205) 
-0

>  <r_epik_Charging_Adjusted_Penalty>  (205) 
0

>  <i_epik_Tot_Q>  (205) 
0

>  <i_epik_Tot_abs_Q>  (205) 
0

>  <s_lp_Force_Field>  (205) 
OPLS3e

>  <r_lp_Energy>  (205) 
148.843

>  <b_lp_Chiralities_Consistent>  (205) 
1

>  <s_lp_Variant>  (205) 
66:0-1

>  <s_i_glide_gridfile>  (205) 
pfpi4k_grid

>  <i_i_glide_lignum>  (205) 
17

>  <i_i_glide_rotatable_bonds>  (205) 
1

>  <r_i_docking_score>  (205) 
-1.25303

>  <r_i_glide_ligand_efficiency>  (205) 
-0.0338655

>  <r_i_glide_ligand_efficiency_sa>  (205) 
-0.112848

>  <r_i_glide_ligand_efficiency_ln>  (205) 
-0.271752

>  <r_i_glide_gscore>  (205) 
-1.25303

>  <r_i_glide_lipo>  (205) 
-0.0753861

>  <r_i_glide_hbond>  (205) 
0

>  <r_i_glide_metal>  (205) 
-0

>  <r_i_glide_rewards>  (205) 
0

>  <r_i_glide_evdw>  (205) 
-19.1646

>  <r_i_glide_ecoul>  (205) 
-1.45018

>  <r_i_glide_erotb>  (205) 
0

>  <r_i_glide_esite>  (205) 
-0.00188126

>  <r_i_glide_emodel>  (205) 
-22.3706

>  <r_i_glide_energy>  (205) 
-20.6148

>  <r_i_glide_einternal>  (205) 
0.00864778

>  <r_i_glide_intrahb_reward>  (205) 
-0

>  <i_i_glide_confnum>  (205) 
1

>  <i_i_glide_posenum>  (205) 
2

>  <r_i_glide_eff_state_penalty>  (205) 
0

>  <ligand_id>  (205) 
66

>  <original_smiles>  (205) 
COC1C2CC(=O)C(C)(C3C(C)(C)CCCC23C)C2(C)C=CC13C2=C(C)C1(CC1)C1C(=O)CC3C1(C)C

>  <smiles>  (205) 
[H]C1=C([H])C2(C([H])([H])[H])C3=C(C([H])([H])[H])C4(C([H])([H])C4([H])[H])C4([H])C(=O)C([H])([H])C([H])(C13C([H])(OC([H])([H])[H])C1([H])C([H])([H])C(=O)C2(C([H])([H])[H])C2([H])C(C([H])([H])[H])(C([H])([H])[H])C([H])([H])C([H])([H])C([H])([H])C12C([H])([H])[H])C4(C([H])([H])[H])C([H])([H])[H]

$$$$
67:0:0
     RDKit          3D

 34 37  0  0  1  0  0  0  0  0999 V2000
   -0.0393   -7.4322    6.0663 C   0  0  0  0  0  0  0  0  0  0  0  0
    0.7536   -6.7350    5.0822 N   0  0  0  0  0  0  0  0  0  0  0  0
    1.7115   -5.8787    5.5308 N   0  0  0  0  0  0  0  0  0  0  0  0
    2.2835   -5.3895    4.4596 C   0  0  0  0  0  0  0  0  0  0  0  0
    1.6915   -5.9050    3.2575 C   0  0  0  0  0  0  0  0  0  0  0  0
    1.8266   -5.7797    1.8579 C   0  0  0  0  0  0  0  0  0  0  0  0
    2.7101   -4.8617    1.2822 N   0  0  0  0  0  0  0  0  0  0  0  0
    3.4770   -5.2492    0.1073 C   0  0  0  0  0  0  0  0  0  0  0  0
    4.9427   -4.8649    0.1961 C   0  0  0  0  0  0  0  0  0  0  0  0
    5.8825   -5.7590    0.7784 C   0  0  0  0  0  0  0  0  0  0  0  0
    7.2510   -5.4123    0.8885 C   0  0  0  0  0  0  0  0  0  0  0  0
    7.6400   -4.1424    0.4302 C   0  0  0  0  0  0  0  0  0  0  0  0
    6.7343   -3.2704   -0.1421 C   0  0  0  0  0  0  0  0  0  0  0  0
    5.3755   -3.6045   -0.2853 C   0  0  0  0  0  0  0  0  0  0  0  0
    7.3660   -2.1107   -0.4594 O   0  0  0  0  0  0  0  0  0  0  0  0
    8.6755   -2.2489    0.0297 C   0  0  0  0  0  0  0  0  0  0  0  0
    8.8633   -3.5614    0.4860 O   0  0  0  0  0  0  0  0  0  0  0  0
    1.0130   -6.5144    1.0594 N   0  0  0  0  0  0  0  0  0  0  0  0
    0.1192   -7.3376    1.6156 C   0  0  0  0  0  0  0  0  0  0  0  0
   -0.1656   -7.5142    2.9088 N   0  0  0  0  0  0  0  0  0  0  0  0
    0.6863   -6.7978    3.7001 C   0  0  0  0  0  0  0  0  0  0  0  0
   -0.7597   -8.0881    5.5671 H   0  0  0  0  0  0  0  0  0  0  0  0
   -0.5575   -6.6866    6.6779 H   0  0  0  0  0  0  0  0  0  0  0  0
    0.6099   -8.0427    6.7019 H   0  0  0  0  0  0  0  0  0  0  0  0
    3.0880   -4.6854    4.5629 H   0  0  0  0  0  0  0  0  0  0  0  0
    3.4115   -6.3173   -0.1065 H   0  0  0  0  0  0  0  0  0  0  0  0
    3.0285   -4.7259   -0.7325 H   0  0  0  0  0  0  0  0  0  0  0  0
    5.5520   -6.7166    1.1491 H   0  0  0  0  0  0  0  0  0  0  0  0
    7.9751   -6.0761    1.3416 H   0  0  0  0  0  0  0  0  0  0  0  0
    4.6834   -2.8991   -0.7179 H   0  0  0  0  0  0  0  0  0  0  0  0
    9.4044   -2.0095   -0.7372 H   0  0  0  0  0  0  0  0  0  0  0  0
    8.8075   -1.5574    0.8650 H   0  0  0  0  0  0  0  0  0  0  0  0
   -0.5202   -7.8503    0.9075 H   0  0  0  0  0  0  0  0  0  0  0  0
    3.1653   -4.1949    1.8929 H   0  0  0  0  0  0  0  0  0  0  0  0
  1  2  1  0
  1 22  1  0
  1 23  1  0
  1 24  1  0
  2 21  1  0
  2  3  1  0
  3  4  2  0
  4  5  1  0
  4 25  1  0
  5 21  2  0
  5  6  1  0
  6  7  1  0
  6 18  2  0
  7  8  1  0
  7 34  1  0
  8  9  1  0
  8 26  1  0
  8 27  1  0
  9 14  1  0
  9 10  2  0
 10 11  1  0
 10 28  1  0
 11 12  2  0
 11 29  1  0
 12 17  1  0
 12 13  1  0
 13 14  2  0
 13 15  1  0
 14 30  1  0
 15 16  1  0
 16 17  1  0
 16 31  1  0
 16 32  1  0
 18 19  1  0
 19 20  2  0
 19 33  1  0
 20 21  1  0
M  END
>  <i_m_ct_stereo_status>  (206) 
1

>  <s_m_source_file>  (206) 
/var/tmp/pbs.5076255.sched01/tmpln0nb48r/86bqtw16pk.sdf

>  <i_m_source_file_index>  (206) 
18

>  <i_lp_mmshare_version>  (206) 
48012

>  <i_f3d_flags>  (206) 
0

>  <s_epik_input>  (206) 
W2NIXTFubihbQ0gzXSljKGMxMiluW2NIXVtuSF1jXDI9Ti9bQ0gyXWMoW2NIXVtjSF0zKVtjSF1jKGMzNClPW0NIMl1PNA==

>  <s_epik_cmdline>  (206) 
J2VwaWtfcHl0aG9uJywgJy1waHQnLCAnMi4wJywgJy1waCcsICc3LjAnLCAnLXRuJywgJzgnLCAnLW1hJywgJzIwMCcsICctaW1hZScsICc8aW5maWxlLm1hZT4nLCAnLW9tYWUnLCAnPG91dGZpbGUubWFlPic=

>  <r_lp_tautomer_probability>  (206) 
1

>  <r_epik_Ionization_Penalty>  (206) 
0.000216561

>  <r_epik_Ionization_Penalty_Charging>  (206) 
0

>  <r_epik_Ionization_Penalty_Neutral>  (206) 
0.000216561

>  <r_epik_State_Penalty>  (206) 
-0

>  <r_epik_Charging_Adjusted_Penalty>  (206) 
0

>  <i_epik_Tot_Q>  (206) 
0

>  <i_epik_Tot_abs_Q>  (206) 
0

>  <s_epik_Chemistry_Notes>  (206) 
This compound contains an acetal/aminal-like group ( X-CH(R)-Y where X, Y are N, S, or O) that may be acid/base labile, releasing an aldehyde.

>  <s_lp_Force_Field>  (206) 
OPLS3e

>  <r_lp_Energy>  (206) 
38.9996

>  <b_lp_Chiralities_Consistent>  (206) 
1

>  <s_lp_Variant>  (206) 
67:0-1

>  <s_i_glide_gridfile>  (206) 
pfpi4k_grid

>  <i_i_glide_lignum>  (206) 
18

>  <i_i_glide_rotatable_bonds>  (206) 
3

>  <r_i_docking_score>  (206) 
-3.69292

>  <r_i_glide_ligand_efficiency>  (206) 
-0.175853

>  <r_i_glide_ligand_efficiency_sa>  (206) 
-0.485166

>  <r_i_glide_ligand_efficiency_ln>  (206) 
-0.913067

>  <r_i_glide_gscore>  (206) 
-3.69292

>  <r_i_glide_lipo>  (206) 
-0.578434

>  <r_i_glide_hbond>  (206) 
-0.258795

>  <r_i_glide_metal>  (206) 
-0

>  <r_i_glide_rewards>  (206) 
-1.4776

>  <r_i_glide_evdw>  (206) 
-21.8491

>  <r_i_glide_ecoul>  (206) 
-5.13972

>  <r_i_glide_erotb>  (206) 
0.676926

>  <r_i_glide_esite>  (206) 
-0.191605

>  <r_i_glide_emodel>  (206) 
-31.4807

>  <r_i_glide_energy>  (206) 
-26.9888

>  <r_i_glide_einternal>  (206) 
3.56726

>  <r_i_glide_intrahb_reward>  (206) 
-0

>  <i_i_glide_confnum>  (206) 
3

>  <i_i_glide_posenum>  (206) 
39

>  <r_i_glide_eff_state_penalty>  (206) 
0

>  <ligand_id>  (206) 
67

>  <original_smiles>  (206) 
Cn1ncc2c(=NCc3ccc4c(c3)OCO4)[nH]cnc21

>  <smiles>  (206) 
[H]c1nc(N([H])C([H])([H])c2c([H])c([H])c3c(c2[H])OC([H])([H])O3)c2c([H])nn(C([H])([H])[H])c2n1

$$$$
67:0:1
     RDKit          3D

 34 37  0  0  1  0  0  0  0  0999 V2000
   -2.0593   -7.9661    2.9782 C   0  0  0  0  0  0  0  0  0  0  0  0
   -0.6793   -7.9171    2.5488 N   0  0  0  0  0  0  0  0  0  0  0  0
   -0.2609   -6.8035    1.8863 N   0  0  0  0  0  0  0  0  0  0  0  0
    0.9925   -7.0203    1.5883 C   0  0  0  0  0  0  0  0  0  0  0  0
    1.4534   -8.2854    2.0721 C   0  0  0  0  0  0  0  0  0  0  0  0
    2.6234   -9.0757    2.0896 C   0  0  0  0  0  0  0  0  0  0  0  0
    3.8327   -8.6784    1.5076 N   0  0  0  0  0  0  0  0  0  0  0  0
    4.0437   -7.2762    1.1582 C   0  0  0  0  0  0  0  0  0  0  0  0
    5.4296   -6.7787    1.4498 C   0  0  0  0  0  0  0  0  0  0  0  0
    6.0460   -5.8488    0.5758 C   0  0  0  0  0  0  0  0  0  0  0  0
    7.3392   -5.3574    0.8543 C   0  0  0  0  0  0  0  0  0  0  0  0
    7.9740   -5.8289    2.0138 C   0  0  0  0  0  0  0  0  0  0  0  0
    7.3551   -6.7042    2.8827 C   0  0  0  0  0  0  0  0  0  0  0  0
    6.0693   -7.1924    2.6388 C   0  0  0  0  0  0  0  0  0  0  0  0
    8.1839   -7.0011    3.9069 O   0  0  0  0  0  0  0  0  0  0  0  0
    9.4067   -6.4055    3.5747 C   0  0  0  0  0  0  0  0  0  0  0  0
    9.2205   -5.5630    2.4663 O   0  0  0  0  0  0  0  0  0  0  0  0
    2.5938  -10.2719    2.7102 N   0  0  0  0  0  0  0  0  0  0  0  0
    1.4495  -10.7035    3.2511 C   0  0  0  0  0  0  0  0  0  0  0  0
    0.2683  -10.0872    3.2854 N   0  0  0  0  0  0  0  0  0  0  0  0
    0.3210   -8.8681    2.6926 C   0  0  0  0  0  0  0  0  0  0  0  0
   -2.2633   -8.9157    3.4875 H   0  0  0  0  0  0  0  0  0  0  0  0
   -2.6828   -7.8678    2.0863 H   0  0  0  0  0  0  0  0  0  0  0  0
   -2.2418   -7.1249    3.6534 H   0  0  0  0  0  0  0  0  0  0  0  0
    1.5569   -6.2773    1.0405 H   0  0  0  0  0  0  0  0  0  0  0  0
    3.8252   -7.1413    0.0921 H   0  0  0  0  0  0  0  0  0  0  0  0
    3.3950   -6.6257    1.7304 H   0  0  0  0  0  0  0  0  0  0  0  0
    5.5230   -5.5186   -0.3043 H   0  0  0  0  0  0  0  0  0  0  0  0
    7.8318   -4.6784    0.1798 H   0  0  0  0  0  0  0  0  0  0  0  0
    5.5930   -7.8600    3.3376 H   0  0  0  0  0  0  0  0  0  0  0  0
    9.7924   -5.8549    4.4341 H   0  0  0  0  0  0  0  0  0  0  0  0
   10.1150   -7.1913    3.2986 H   0  0  0  0  0  0  0  0  0  0  0  0
    1.4913  -11.6890    3.7013 H   0  0  0  0  0  0  0  0  0  0  0  0
    4.5831   -9.3548    1.4709 H   0  0  0  0  0  0  0  0  0  0  0  0
  1  2  1  0
  1 22  1  0
  1 23  1  0
  1 24  1  0
  2 21  1  0
  2  3  1  0
  3  4  2  0
  4  5  1  0
  4 25  1  0
  5 21  2  0
  5  6  1  0
  6  7  1  0
  6 18  2  0
  7  8  1  0
  7 34  1  0
  8  9  1  0
  8 26  1  0
  8 27  1  0
  9 14  1  0
  9 10  2  0
 10 11  1  0
 10 28  1  0
 11 12  2  0
 11 29  1  0
 12 17  1  0
 12 13  1  0
 13 14  2  0
 13 15  1  0
 14 30  1  0
 15 16  1  0
 16 17  1  0
 16 31  1  0
 16 32  1  0
 18 19  1  0
 19 20  2  0
 19 33  1  0
 20 21  1  0
M  END
>  <i_m_ct_stereo_status>  (207) 
1

>  <s_m_source_file>  (207) 
/var/tmp/pbs.5076255.sched01/tmpln0nb48r/86bqtw16pk.sdf

>  <i_m_source_file_index>  (207) 
18

>  <i_lp_mmshare_version>  (207) 
48012

>  <i_f3d_flags>  (207) 
0

>  <s_epik_input>  (207) 
W2NIXTFubihbQ0gzXSljKGMxMiluW2NIXVtuSF1jXDI9Ti9bQ0gyXWMoW2NIXVtjSF0zKVtjSF1jKGMzNClPW0NIMl1PNA==

>  <s_epik_cmdline>  (207) 
J2VwaWtfcHl0aG9uJywgJy1waHQnLCAnMi4wJywgJy1waCcsICc3LjAnLCAnLXRuJywgJzgnLCAnLW1hJywgJzIwMCcsICctaW1hZScsICc8aW5maWxlLm1hZT4nLCAnLW9tYWUnLCAnPG91dGZpbGUubWFlPic=

>  <r_lp_tautomer_probability>  (207) 
1

>  <r_epik_Ionization_Penalty>  (207) 
0.000216561

>  <r_epik_Ionization_Penalty_Charging>  (207) 
0

>  <r_epik_Ionization_Penalty_Neutral>  (207) 
0.000216561

>  <r_epik_State_Penalty>  (207) 
-0

>  <r_epik_Charging_Adjusted_Penalty>  (207) 
0

>  <i_epik_Tot_Q>  (207) 
0

>  <i_epik_Tot_abs_Q>  (207) 
0

>  <s_epik_Chemistry_Notes>  (207) 
This compound contains an acetal/aminal-like group ( X-CH(R)-Y where X, Y are N, S, or O) that may be acid/base labile, releasing an aldehyde.

>  <s_lp_Force_Field>  (207) 
OPLS3e

>  <r_lp_Energy>  (207) 
38.9996

>  <b_lp_Chiralities_Consistent>  (207) 
1

>  <s_lp_Variant>  (207) 
67:0-1

>  <s_i_glide_gridfile>  (207) 
pfpi4k_grid

>  <i_i_glide_lignum>  (207) 
18

>  <i_i_glide_rotatable_bonds>  (207) 
3

>  <r_i_docking_score>  (207) 
-3.32645

>  <r_i_glide_ligand_efficiency>  (207) 
-0.158402

>  <r_i_glide_ligand_efficiency_sa>  (207) 
-0.43702

>  <r_i_glide_ligand_efficiency_ln>  (207) 
-0.822458

>  <r_i_glide_gscore>  (207) 
-3.32645

>  <r_i_glide_lipo>  (207) 
-0.39507

>  <r_i_glide_hbond>  (207) 
-0.141582

>  <r_i_glide_metal>  (207) 
-0

>  <r_i_glide_rewards>  (207) 
-1.67433

>  <r_i_glide_evdw>  (207) 
-26.4003

>  <r_i_glide_ecoul>  (207) 
-2.15193

>  <r_i_glide_erotb>  (207) 
0.676926

>  <r_i_glide_esite>  (207) 
-0.14959

>  <r_i_glide_emodel>  (207) 
-31.847

>  <r_i_glide_energy>  (207) 
-28.5522

>  <r_i_glide_einternal>  (207) 
3.7796

>  <r_i_glide_intrahb_reward>  (207) 
-0

>  <i_i_glide_confnum>  (207) 
3

>  <i_i_glide_posenum>  (207) 
33

>  <r_i_glide_eff_state_penalty>  (207) 
0

>  <ligand_id>  (207) 
67

>  <original_smiles>  (207) 
Cn1ncc2c(=NCc3ccc4c(c3)OCO4)[nH]cnc21

>  <smiles>  (207) 
[H]c1nc(N([H])C([H])([H])c2c([H])c([H])c3c(c2[H])OC([H])([H])O3)c2c([H])nn(C([H])([H])[H])c2n1

$$$$
67:0:2
     RDKit          3D

 34 37  0  0  1  0  0  0  0  0999 V2000
   -2.7808    2.9426    5.2722 C   0  0  0  0  0  0  0  0  0  0  0  0
   -1.8282    2.1824    4.5059 N   0  0  0  0  0  0  0  0  0  0  0  0
   -1.4406    2.6786    3.3030 N   0  0  0  0  0  0  0  0  0  0  0  0
   -0.5844    1.8187    2.8069 C   0  0  0  0  0  0  0  0  0  0  0  0
   -0.3878    0.7159    3.6995 C   0  0  0  0  0  0  0  0  0  0  0  0
    0.3713   -0.4680    3.7590 C   0  0  0  0  0  0  0  0  0  0  0  0
    1.2075   -0.8436    2.7053 N   0  0  0  0  0  0  0  0  0  0  0  0
    2.2290   -1.8656    2.8568 C   0  0  0  0  0  0  0  0  0  0  0  0
    3.1549   -1.9039    1.6605 C   0  0  0  0  0  0  0  0  0  0  0  0
    3.8874   -0.7377    1.2991 C   0  0  0  0  0  0  0  0  0  0  0  0
    4.7346   -0.7386    0.1661 C   0  0  0  0  0  0  0  0  0  0  0  0
    4.8038   -1.9137   -0.5965 C   0  0  0  0  0  0  0  0  0  0  0  0
    4.1014   -3.0488   -0.2433 C   0  0  0  0  0  0  0  0  0  0  0  0
    3.2701   -3.0838    0.8861 C   0  0  0  0  0  0  0  0  0  0  0  0
    4.3357   -4.0214   -1.1565 O   0  0  0  0  0  0  0  0  0  0  0  0
    5.1134   -3.4291   -2.1636 C   0  0  0  0  0  0  0  0  0  0  0  0
    5.4917   -2.1426   -1.7465 O   0  0  0  0  0  0  0  0  0  0  0  0
    0.2604   -1.2510    4.8565 N   0  0  0  0  0  0  0  0  0  0  0  0
   -0.5761   -0.8943    5.8311 C   0  0  0  0  0  0  0  0  0  0  0  0
   -1.3820    0.1694    5.9103 N   0  0  0  0  0  0  0  0  0  0  0  0
   -1.2299    0.9666    4.8093 C   0  0  0  0  0  0  0  0  0  0  0  0
   -2.9846    2.4409    6.2131 H   0  0  0  0  0  0  0  0  0  0  0  0
   -3.7008    3.0293    4.6939 H   0  0  0  0  0  0  0  0  0  0  0  0
   -2.3772    3.9374    5.4786 H   0  0  0  0  0  0  0  0  0  0  0  0
   -0.1260    2.0127    1.8464 H   0  0  0  0  0  0  0  0  0  0  0  0
    2.8310   -1.6743    3.7485 H   0  0  0  0  0  0  0  0  0  0  0  0
    1.7420   -2.8343    2.9872 H   0  0  0  0  0  0  0  0  0  0  0  0
    3.7867    0.1686    1.8791 H   0  0  0  0  0  0  0  0  0  0  0  0
    5.2830    0.1369   -0.1231 H   0  0  0  0  0  0  0  0  0  0  0  0
    2.7087   -3.9761    1.1257 H   0  0  0  0  0  0  0  0  0  0  0  0
    5.9810   -4.0470   -2.4100 H   0  0  0  0  0  0  0  0  0  0  0  0
    4.4839   -3.3285   -3.0482 H   0  0  0  0  0  0  0  0  0  0  0  0
   -0.6150   -1.5835    6.6627 H   0  0  0  0  0  0  0  0  0  0  0  0
    1.2210   -0.2992    1.8517 H   0  0  0  0  0  0  0  0  0  0  0  0
  1  2  1  0
  1 22  1  0
  1 23  1  0
  1 24  1  0
  2 21  1  0
  2  3  1  0
  3  4  2  0
  4  5  1  0
  4 25  1  0
  5 21  2  0
  5  6  1  0
  6  7  1  0
  6 18  2  0
  7  8  1  0
  7 34  1  0
  8  9  1  0
  8 26  1  0
  8 27  1  0
  9 14  1  0
  9 10  2  0
 10 11  1  0
 10 28  1  0
 11 12  2  0
 11 29  1  0
 12 17  1  0
 12 13  1  0
 13 14  2  0
 13 15  1  0
 14 30  1  0
 15 16  1  0
 16 17  1  0
 16 31  1  0
 16 32  1  0
 18 19  1  0
 19 20  2  0
 19 33  1  0
 20 21  1  0
M  END
>  <i_m_ct_stereo_status>  (208) 
1

>  <s_m_source_file>  (208) 
/var/tmp/pbs.5076255.sched01/tmpln0nb48r/86bqtw16pk.sdf

>  <i_m_source_file_index>  (208) 
18

>  <i_lp_mmshare_version>  (208) 
48012

>  <i_f3d_flags>  (208) 
0

>  <s_epik_input>  (208) 
W2NIXTFubihbQ0gzXSljKGMxMiluW2NIXVtuSF1jXDI9Ti9bQ0gyXWMoW2NIXVtjSF0zKVtjSF1jKGMzNClPW0NIMl1PNA==

>  <s_epik_cmdline>  (208) 
J2VwaWtfcHl0aG9uJywgJy1waHQnLCAnMi4wJywgJy1waCcsICc3LjAnLCAnLXRuJywgJzgnLCAnLW1hJywgJzIwMCcsICctaW1hZScsICc8aW5maWxlLm1hZT4nLCAnLW9tYWUnLCAnPG91dGZpbGUubWFlPic=

>  <r_lp_tautomer_probability>  (208) 
1

>  <r_epik_Ionization_Penalty>  (208) 
0.000216561

>  <r_epik_Ionization_Penalty_Charging>  (208) 
0

>  <r_epik_Ionization_Penalty_Neutral>  (208) 
0.000216561

>  <r_epik_State_Penalty>  (208) 
-0

>  <r_epik_Charging_Adjusted_Penalty>  (208) 
0

>  <i_epik_Tot_Q>  (208) 
0

>  <i_epik_Tot_abs_Q>  (208) 
0

>  <s_epik_Chemistry_Notes>  (208) 
This compound contains an acetal/aminal-like group ( X-CH(R)-Y where X, Y are N, S, or O) that may be acid/base labile, releasing an aldehyde.

>  <s_lp_Force_Field>  (208) 
OPLS3e

>  <r_lp_Energy>  (208) 
38.9996

>  <b_lp_Chiralities_Consistent>  (208) 
1

>  <s_lp_Variant>  (208) 
67:0-1

>  <s_i_glide_gridfile>  (208) 
pfpi4k_grid

>  <i_i_glide_lignum>  (208) 
18

>  <i_i_glide_rotatable_bonds>  (208) 
3

>  <r_i_docking_score>  (208) 
-2.69665

>  <r_i_glide_ligand_efficiency>  (208) 
-0.128412

>  <r_i_glide_ligand_efficiency_sa>  (208) 
-0.354279

>  <r_i_glide_ligand_efficiency_ln>  (208) 
-0.666742

>  <r_i_glide_gscore>  (208) 
-2.69665

>  <r_i_glide_lipo>  (208) 
-0.0812738

>  <r_i_glide_hbond>  (208) 
-0.0176597

>  <r_i_glide_metal>  (208) 
-0

>  <r_i_glide_rewards>  (208) 
-1.66147

>  <r_i_glide_evdw>  (208) 
-25.0561

>  <r_i_glide_ecoul>  (208) 
-1.60934

>  <r_i_glide_erotb>  (208) 
0.676926

>  <r_i_glide_esite>  (208) 
-0.118968

>  <r_i_glide_emodel>  (208) 
-31.0553

>  <r_i_glide_energy>  (208) 
-26.6655

>  <r_i_glide_einternal>  (208) 
0.52553

>  <r_i_glide_intrahb_reward>  (208) 
-0

>  <i_i_glide_confnum>  (208) 
1

>  <i_i_glide_posenum>  (208) 
21

>  <r_i_glide_eff_state_penalty>  (208) 
0

>  <ligand_id>  (208) 
67

>  <original_smiles>  (208) 
Cn1ncc2c(=NCc3ccc4c(c3)OCO4)[nH]cnc21

>  <smiles>  (208) 
[H]c1nc(N([H])C([H])([H])c2c([H])c([H])c3c(c2[H])OC([H])([H])O3)c2c([H])nn(C([H])([H])[H])c2n1

$$$$
68:0:0
     RDKit          3D

 75 78  0  0  1  0  0  0  0  0999 V2000
    0.0739   -3.5685    5.5858 C   0  0  0  0  0  0  0  0  0  0  0  0
    1.4810   -4.1645    5.5814 C   0  0  0  0  0  0  0  0  0  0  0  0
    1.5812   -5.5325    4.8718 C   0  0  0  0  0  0  0  0  0  0  0  0
    2.9561   -6.0638    4.8355 N   0  0  0  0  0  0  0  0  0  0  0  0
    3.4628   -6.3190    6.1920 C   0  0  0  0  0  0  0  0  0  0  0  0
    4.6673   -7.2539    6.0802 C   0  0  1  0  0  0  0  0  0  0  0  0
    4.5936   -8.5087    6.9659 C   0  0  0  0  0  0  0  0  0  0  0  0
    5.8906   -9.3256    6.9685 C   0  0  0  0  0  0  0  0  0  0  0  0
    4.6939   -7.5679    4.5690 C   0  0  2  0  0  0  0  0  0  0  0  0
    5.6981   -6.5796    3.9591 C   0  0  0  0  0  0  0  0  0  0  0  0
    5.6727   -6.5226    2.4779 N   0  0  2  0  0  0  0  0  0  0  0  0
    6.8344   -5.7263    2.0153 C   0  0  0  0  0  0  0  0  0  0  0  0
    4.3136   -6.1710    1.9139 C   0  0  1  0  0  0  0  0  0  0  0  0
    4.3506   -6.0071    0.3435 C   0  0  0  0  0  0  0  0  0  0  0  0
    4.4908   -4.5667   -0.2100 C   0  0  0  0  0  0  0  0  0  0  0  0
    5.7693   -3.9707   -0.3683 C   0  0  0  0  0  0  0  0  0  0  0  0
    5.8639   -2.6692   -0.8867 C   0  0  0  0  0  0  0  0  0  0  0  0
    4.7432   -1.9685   -1.3599 C   0  0  0  0  0  0  0  0  0  0  0  0
    4.9946   -0.7227   -1.8890 O   0  0  0  0  0  0  0  0  0  0  0  0
    4.1730   -0.2916   -2.9423 C   0  0  0  0  0  0  0  0  0  0  0  0
    3.4606   -2.5822   -1.2775 C   0  0  0  0  0  0  0  0  0  0  0  0
    3.3249   -3.8608   -0.6815 C   0  0  0  0  0  0  0  0  0  0  0  0
    3.2294   -7.1902    2.4665 C   0  0  1  0  0  0  0  0  0  0  0  0
    1.8945   -6.7038    2.2228 O   0  0  0  0  0  0  0  0  0  0  0  0
    1.2107   -6.8439    0.9897 C   0  0  0  0  0  0  0  0  0  0  0  0
    3.4596   -8.6175    1.8620 C   0  0  0  0  0  0  0  0  0  0  0  0
    2.3991   -9.6437    2.2750 C   0  0  0  0  0  0  0  0  0  0  0  0
    1.9611   -9.5009    3.7077 C   0  0  0  0  0  0  0  0  0  0  0  0
    1.1379  -10.5254    4.0581 O   0  0  0  0  0  0  0  0  0  0  0  0
    0.7087  -10.6238    5.4088 C   0  0  0  0  0  0  0  0  0  0  0  0
    2.3428   -8.4562    4.5014 C   0  0  0  0  0  0  0  0  0  0  0  0
    3.2521   -7.3004    4.0620 C   0  0  2  0  0  0  0  0  0  0  0  0
    0.0658   -2.6245    6.1319 H   0  0  0  0  0  0  0  0  0  0  0  0
   -0.6262   -4.2428    6.0774 H   0  0  0  0  0  0  0  0  0  0  0  0
   -0.2760   -3.3687    4.5737 H   0  0  0  0  0  0  0  0  0  0  0  0
    2.1498   -3.4672    5.0792 H   0  0  0  0  0  0  0  0  0  0  0  0
    1.8057   -4.2329    6.6231 H   0  0  0  0  0  0  0  0  0  0  0  0
    0.9163   -6.2427    5.3618 H   0  0  0  0  0  0  0  0  0  0  0  0
    1.1859   -5.3872    3.8692 H   0  0  0  0  0  0  0  0  0  0  0  0
    3.7563   -5.3912    6.6783 H   0  0  0  0  0  0  0  0  0  0  0  0
    2.6985   -6.7635    6.8233 H   0  0  0  0  0  0  0  0  0  0  0  0
    5.5487   -6.6836    6.3875 H   0  0  0  0  0  0  0  0  0  0  0  0
    4.3667   -8.2046    7.9826 H   0  0  0  0  0  0  0  0  0  0  0  0
    3.7751   -9.1549    6.6620 H   0  0  0  0  0  0  0  0  0  0  0  0
    5.7767  -10.2151    7.5887 H   0  0  0  0  0  0  0  0  0  0  0  0
    6.7273   -8.7470    7.3577 H   0  0  0  0  0  0  0  0  0  0  0  0
    6.1622   -9.6674    5.9705 H   0  0  0  0  0  0  0  0  0  0  0  0
    5.0250   -8.5869    4.3528 H   0  0  0  0  0  0  0  0  0  0  0  0
    5.5507   -5.5592    4.3285 H   0  0  0  0  0  0  0  0  0  0  0  0
    6.7029   -6.8785    4.2659 H   0  0  0  0  0  0  0  0  0  0  0  0
    6.6383   -4.6563    2.1894 H   0  0  0  0  0  0  0  0  0  0  0  0
    6.9998   -5.9751    0.9874 H   0  0  0  0  0  0  0  0  0  0  0  0
    7.7482   -5.9667    2.5963 H   0  0  0  0  0  0  0  0  0  0  0  0
    4.0360   -5.1935    2.3041 H   0  0  0  0  0  0  0  0  0  0  0  0
    5.1422   -6.6363   -0.0565 H   0  0  0  0  0  0  0  0  0  0  0  0
    3.4891   -6.4759   -0.1122 H   0  0  0  0  0  0  0  0  0  0  0  0
    6.7133   -4.4439   -0.1850 H   0  0  0  0  0  0  0  0  0  0  0  0
    6.8389   -2.2321   -0.9534 H   0  0  0  0  0  0  0  0  0  0  0  0
    4.5070    0.7129   -3.2063 H   0  0  0  0  0  0  0  0  0  0  0  0
    3.1235   -0.2612   -2.6534 H   0  0  0  0  0  0  0  0  0  0  0  0
    4.3023   -0.9576   -3.7958 H   0  0  0  0  0  0  0  0  0  0  0  0
    2.5837   -2.0691   -1.6506 H   0  0  0  0  0  0  0  0  0  0  0  0
    2.3442   -4.3296   -0.6667 H   0  0  0  0  0  0  0  0  0  0  0  0
    0.1422   -6.7583    1.1451 H   0  0  0  0  0  0  0  0  0  0  0  0
    1.3524   -7.7930    0.4629 H   0  0  0  0  0  0  0  0  0  0  0  0
    1.4674   -6.0542    0.3007 H   0  0  0  0  0  0  0  0  0  0  0  0
    3.5577   -8.5881    0.7771 H   0  0  0  0  0  0  0  0  0  0  0  0
    4.4155   -9.0003    2.2110 H   0  0  0  0  0  0  0  0  0  0  0  0
    1.4942   -9.5546    1.6808 H   0  0  0  0  0  0  0  0  0  0  0  0
    2.7651  -10.6570    2.1069 H   0  0  0  0  0  0  0  0  0  0  0  0
    0.0954  -11.5164    5.5189 H   0  0  0  0  0  0  0  0  0  0  0  0
    0.1118   -9.7600    5.7102 H   0  0  0  0  0  0  0  0  0  0  0  0
    1.5702  -10.7259    6.0707 H   0  0  0  0  0  0  0  0  0  0  0  0
    1.9952   -8.4180    5.5153 H   0  0  0  0  0  0  0  0  0  0  0  0
    5.8905   -7.4579    2.1493 H   0  0  0  0  0  0  0  0  0  0  0  0
  1  2  1  0
  1 33  1  0
  1 34  1  0
  1 35  1  0
  2  3  1  0
  2 36  1  0
  2 37  1  0
  3  4  1  0
  3 38  1  0
  3 39  1  0
 32  4  1  1
  4  5  1  0
  5  6  1  0
  5 40  1  0
  5 41  1  0
  6  7  1  0
  6  9  1  0
  6 42  1  1
  7  8  1  0
  7 43  1  0
  7 44  1  0
  8 45  1  0
  8 46  1  0
  8 47  1  0
  9 32  1  0
  9 10  1  0
  9 48  1  1
 10 11  1  0
 10 49  1  0
 10 50  1  0
 11 12  1  0
 11 13  1  0
 11 75  1  6
 12 51  1  0
 12 52  1  0
 12 53  1  0
 13 14  1  0
 13 23  1  0
 13 54  1  1
 14 15  1  0
 14 55  1  0
 14 56  1  0
 15 22  1  0
 15 16  2  0
 16 17  1  0
 16 57  1  0
 17 18  2  0
 17 58  1  0
 18 19  1  0
 18 21  1  0
 19 20  1  0
 20 59  1  0
 20 60  1  0
 20 61  1  0
 21 22  2  0
 21 62  1  0
 22 63  1  0
 23 32  1  0
 23 24  1  1
 23 26  1  0
 24 25  1  0
 25 64  1  0
 25 65  1  0
 25 66  1  0
 26 27  1  0
 26 67  1  0
 26 68  1  0
 27 28  1  0
 27 69  1  0
 27 70  1  0
 28 29  1  0
 28 31  2  0
 29 30  1  0
 30 71  1  0
 30 72  1  0
 30 73  1  0
 31 32  1  0
 31 74  1  0
M  CHG  1  11   1
M  END
>  <i_m_ct_stereo_status>  (209) 
1

>  <s_m_source_file>  (209) 
/var/tmp/pbs.5076255.sched01/tmpln0nb48r/86bqtw16pk.sdf

>  <i_m_source_file_index>  (209) 
19

>  <i_lp_mmshare_version>  (209) 
48012

>  <i_f3d_flags>  (209) 
0

>  <s_epik_input>  (209) 
W0NIM11bQ0gyXVtDSDJdTjFbQ0gyXVtDQEBIXShbQ0gyXVtDSDNdKVtDQEBIXShbQ0BAXTEyMylbQ0gyXU4oW0NIM10pW0NASF0oW0NAQF0yKE9bQ0gzXSlbQ0gyXVtDSDJdQyg9W0NIXTMpT1tDSDNdKVtDSDJdYzRbY0hdW2NIXWMoT1tDSDNdKVtjSF1bY0hdNA==

>  <s_epik_cmdline>  (209) 
J2VwaWtfcHl0aG9uJywgJy1waHQnLCAnMi4wJywgJy1waCcsICc3LjAnLCAnLXRuJywgJzgnLCAnLW1hJywgJzIwMCcsICctaW1hZScsICc8aW5maWxlLm1hZT4nLCAnLW9tYWUnLCAnPG91dGZpbGUubWFlPic=

>  <r_lp_tautomer_probability>  (209) 
1

>  <r_epik_Ionization_Penalty>  (209) 
0.0615025

>  <r_epik_Ionization_Penalty_Charging>  (209) 
0.0546568

>  <r_epik_Ionization_Penalty_Neutral>  (209) 
0.00684571

>  <r_epik_State_Penalty>  (209) 
0.140073

>  <r_epik_Charging_Adjusted_Penalty>  (209) 
0.19473

>  <i_epik_Tot_Q>  (209) 
1

>  <i_epik_Tot_abs_Q>  (209) 
1

>  <s_lp_Force_Field>  (209) 
OPLS3e

>  <r_lp_Energy>  (209) 
57.3573

>  <b_lp_Chiralities_Consistent>  (209) 
1

>  <s_lp_Variant>  (209) 
68:0-1

>  <s_i_glide_gridfile>  (209) 
pfpi4k_grid

>  <i_i_glide_lignum>  (209) 
19

>  <i_i_glide_rotatable_bonds>  (209) 
8

>  <r_i_docking_score>  (209) 
-1.97502

>  <r_i_glide_ligand_efficiency>  (209) 
-0.0617193

>  <r_i_glide_ligand_efficiency_sa>  (209) 
-0.195946

>  <r_i_glide_ligand_efficiency_ln>  (209) 
-0.44226

>  <r_i_glide_gscore>  (209) 
-1.97502

>  <r_i_glide_lipo>  (209) 
-0.459321

>  <r_i_glide_hbond>  (209) 
0

>  <r_i_glide_metal>  (209) 
-0

>  <r_i_glide_rewards>  (209) 
-0.38426

>  <r_i_glide_evdw>  (209) 
-25.8266

>  <r_i_glide_ecoul>  (209) 
-0.965698

>  <r_i_glide_erotb>  (209) 
0.304749

>  <r_i_glide_esite>  (209) 
0

>  <r_i_glide_emodel>  (209) 
-25.6119

>  <r_i_glide_energy>  (209) 
-26.7923

>  <r_i_glide_einternal>  (209) 
7.63982

>  <r_i_glide_intrahb_reward>  (209) 
-0

>  <i_i_glide_confnum>  (209) 
1

>  <i_i_glide_posenum>  (209) 
8

>  <r_i_glide_eff_state_penalty>  (209) 
0

>  <ligand_id>  (209) 
68

>  <original_smiles>  (209) 
CCCN1CC(CC)C2CN(C)C(Cc3ccc(OC)cc3)C3(OC)CCC(OC)=CC213

>  <smiles>  (209) 
[H]C1=C(OC([H])([H])[H])C([H])([H])C([H])([H])C2(OC([H])([H])[H])C13N(C([H])([H])C([H])([H])C([H])([H])[H])C([H])([H])C([H])(C([H])([H])C([H])([H])[H])C3([H])C([H])([H])[N+]([H])(C([H])([H])[H])C2([H])C([H])([H])c1c([H])c([H])c(OC([H])([H])[H])c([H])c1[H]

$$$$
68:0:1
     RDKit          3D

 75 78  0  0  1  0  0  0  0  0999 V2000
    0.2050   -4.3210    6.1541 C   0  0  0  0  0  0  0  0  0  0  0  0
    1.6006   -4.9416    6.0690 C   0  0  0  0  0  0  0  0  0  0  0  0
    1.6789   -6.1986    5.1768 C   0  0  0  0  0  0  0  0  0  0  0  0
    3.0478   -6.7176    5.0285 N   0  0  0  0  0  0  0  0  0  0  0  0
    3.5991   -7.1497    6.3162 C   0  0  0  0  0  0  0  0  0  0  0  0
    4.7978   -8.0622    6.0340 C   0  0  1  0  0  0  0  0  0  0  0  0
    4.7414   -9.4209    6.7584 C   0  0  0  0  0  0  0  0  0  0  0  0
    6.0359  -10.2317    6.6216 C   0  0  0  0  0  0  0  0  0  0  0  0
    4.7800   -8.1683    4.4902 C   0  0  2  0  0  0  0  0  0  0  0  0
    5.7752   -7.1068    3.9580 C   0  0  0  0  0  0  0  0  0  0  0  0
    5.6830   -6.8673    2.4993 N   0  0  2  0  0  0  0  0  0  0  0  0
    6.7469   -5.9002    2.0968 C   0  0  0  0  0  0  0  0  0  0  0  0
    4.2970   -6.4694    2.0874 C   0  0  1  0  0  0  0  0  0  0  0  0
    4.2495   -6.1402    0.5596 C   0  0  0  0  0  0  0  0  0  0  0  0
    4.2551   -4.6597    0.1709 C   0  0  0  0  0  0  0  0  0  0  0  0
    4.7978   -4.3379   -1.0806 C   0  0  0  0  0  0  0  0  0  0  0  0
    4.7806   -3.0233   -1.5674 C   0  0  0  0  0  0  0  0  0  0  0  0
    4.2200   -1.9919   -0.7777 C   0  0  0  0  0  0  0  0  0  0  0  0
    4.1932   -0.6765   -1.1750 O   0  0  0  0  0  0  0  0  0  0  0  0
    4.3594   -0.3907   -2.5611 C   0  0  0  0  0  0  0  0  0  0  0  0
    3.6713   -2.3059    0.4836 C   0  0  0  0  0  0  0  0  0  0  0  0
    3.6665   -3.6406    0.9563 C   0  0  0  0  0  0  0  0  0  0  0  0
    3.2283   -7.5399    2.5308 C   0  0  1  0  0  0  0  0  0  0  0  0
    1.8879   -7.0296    2.3984 O   0  0  0  0  0  0  0  0  0  0  0  0
    1.2061   -6.9281    1.1560 C   0  0  0  0  0  0  0  0  0  0  0  0
    3.4337   -8.8629    1.7395 C   0  0  0  0  0  0  0  0  0  0  0  0
    2.3700   -9.9077    2.0539 C   0  0  0  0  0  0  0  0  0  0  0  0
    1.9893   -9.9557    3.5069 C   0  0  0  0  0  0  0  0  0  0  0  0
    1.1739  -11.0333    3.7452 O   0  0  0  0  0  0  0  0  0  0  0  0
    0.8277  -11.3296    5.0838 C   0  0  0  0  0  0  0  0  0  0  0  0
    2.4124   -9.0481    4.4132 C   0  0  0  0  0  0  0  0  0  0  0  0
    3.3160   -7.8392    4.0884 C   0  0  2  0  0  0  0  0  0  0  0  0
    0.2193   -3.4606    6.8258 H   0  0  0  0  0  0  0  0  0  0  0  0
   -0.5163   -5.0379    6.5477 H   0  0  0  0  0  0  0  0  0  0  0  0
   -0.1372   -3.9774    5.1783 H   0  0  0  0  0  0  0  0  0  0  0  0
    2.2874   -4.1911    5.6755 H   0  0  0  0  0  0  0  0  0  0  0  0
    1.9238   -5.1606    7.0866 H   0  0  0  0  0  0  0  0  0  0  0  0
    1.0218   -6.9676    5.5825 H   0  0  0  0  0  0  0  0  0  0  0  0
    1.2597   -5.9150    4.2154 H   0  0  0  0  0  0  0  0  0  0  0  0
    3.9140   -6.2892    6.9116 H   0  0  0  0  0  0  0  0  0  0  0  0
    2.8543   -7.6771    6.9096 H   0  0  0  0  0  0  0  0  0  0  0  0
    5.6872   -7.5391    6.3836 H   0  0  0  0  0  0  0  0  0  0  0  0
    4.5462   -9.2426    7.8160 H   0  0  0  0  0  0  0  0  0  0  0  0
    3.9113  -10.0265    6.4044 H   0  0  0  0  0  0  0  0  0  0  0  0
    5.9323  -11.1928    7.1217 H   0  0  0  0  0  0  0  0  0  0  0  0
    6.8806   -9.7083    7.0672 H   0  0  0  0  0  0  0  0  0  0  0  0
    6.2783  -10.4384    5.5803 H   0  0  0  0  0  0  0  0  0  0  0  0
    5.0810   -9.1545    4.1440 H   0  0  0  0  0  0  0  0  0  0  0  0
    5.6340   -6.1544    4.4780 H   0  0  0  0  0  0  0  0  0  0  0  0
    6.7896   -7.4402    4.1944 H   0  0  0  0  0  0  0  0  0  0  0  0
    6.6032   -4.9251    2.5708 H   0  0  0  0  0  0  0  0  0  0  0  0
    6.8090   -5.7491    1.0149 H   0  0  0  0  0  0  0  0  0  0  0  0
    7.7254   -6.2848    2.4058 H   0  0  0  0  0  0  0  0  0  0  0  0
    4.0665   -5.5856    2.6700 H   0  0  0  0  0  0  0  0  0  0  0  0
    5.0883   -6.6317    0.0647 H   0  0  0  0  0  0  0  0  0  0  0  0
    3.4148   -6.5841    0.0489 H   0  0  0  0  0  0  0  0  0  0  0  0
    5.1856   -5.0987   -1.7337 H   0  0  0  0  0  0  0  0  0  0  0  0
    5.2000   -2.8813   -2.5413 H   0  0  0  0  0  0  0  0  0  0  0  0
    4.2931    0.6800   -2.7709 H   0  0  0  0  0  0  0  0  0  0  0  0
    3.5949   -0.8916   -3.1561 H   0  0  0  0  0  0  0  0  0  0  0  0
    5.3444   -0.7101   -2.8809 H   0  0  0  0  0  0  0  0  0  0  0  0
    3.2264   -1.5194    1.0747 H   0  0  0  0  0  0  0  0  0  0  0  0
    3.1709   -3.8395    1.8977 H   0  0  0  0  0  0  0  0  0  0  0  0
    0.1347   -6.8708    1.3525 H   0  0  0  0  0  0  0  0  0  0  0  0
    1.3376   -7.7821    0.5024 H   0  0  0  0  0  0  0  0  0  0  0  0
    1.4707   -6.0098    0.6294 H   0  0  0  0  0  0  0  0  0  0  0  0
    3.4872   -8.7116    0.6628 H   0  0  0  0  0  0  0  0  0  0  0  0
    4.4015   -9.3023    1.9992 H   0  0  0  0  0  0  0  0  0  0  0  0
    1.4543   -9.7202    1.4909 H   0  0  0  0  0  0  0  0  0  0  0  0
    2.7527  -10.8842    1.7742 H   0  0  0  0  0  0  0  0  0  0  0  0
    0.2036  -12.2258    5.1042 H   0  0  0  0  0  0  0  0  0  0  0  0
    0.2657  -10.5255    5.5566 H   0  0  0  0  0  0  0  0  0  0  0  0
    1.7284  -11.5375    5.6594 H   0  0  0  0  0  0  0  0  0  0  0  0
    2.0960   -9.1447    5.4416 H   0  0  0  0  0  0  0  0  0  0  0  0
    5.8998   -7.7451    2.0394 H   0  0  0  0  0  0  0  0  0  0  0  0
  1  2  1  0
  1 33  1  0
  1 34  1  0
  1 35  1  0
  2  3  1  0
  2 36  1  0
  2 37  1  0
  3  4  1  0
  3 38  1  0
  3 39  1  0
 32  4  1  1
  4  5  1  0
  5  6  1  0
  5 40  1  0
  5 41  1  0
  6  7  1  0
  6  9  1  0
  6 42  1  6
  7  8  1  0
  7 43  1  0
  7 44  1  0
  8 45  1  0
  8 46  1  0
  8 47  1  0
  9 32  1  0
  9 10  1  0
  9 48  1  1
 10 11  1  0
 10 49  1  0
 10 50  1  0
 11 12  1  0
 11 13  1  0
 11 75  1  6
 12 51  1  0
 12 52  1  0
 12 53  1  0
 13 14  1  0
 13 23  1  0
 13 54  1  1
 14 15  1  0
 14 55  1  0
 14 56  1  0
 15 22  1  0
 15 16  2  0
 16 17  1  0
 16 57  1  0
 17 18  2  0
 17 58  1  0
 18 19  1  0
 18 21  1  0
 19 20  1  0
 20 59  1  0
 20 60  1  0
 20 61  1  0
 21 22  2  0
 21 62  1  0
 22 63  1  0
 23 32  1  0
 23 24  1  1
 23 26  1  0
 24 25  1  0
 25 64  1  0
 25 65  1  0
 25 66  1  0
 26 27  1  0
 26 67  1  0
 26 68  1  0
 27 28  1  0
 27 69  1  0
 27 70  1  0
 28 29  1  0
 28 31  2  0
 29 30  1  0
 30 71  1  0
 30 72  1  0
 30 73  1  0
 31 32  1  0
 31 74  1  0
M  CHG  1  11   1
M  END
>  <i_m_ct_stereo_status>  (210) 
1

>  <s_m_source_file>  (210) 
/var/tmp/pbs.5076255.sched01/tmpln0nb48r/86bqtw16pk.sdf

>  <i_m_source_file_index>  (210) 
19

>  <i_lp_mmshare_version>  (210) 
48012

>  <i_f3d_flags>  (210) 
0

>  <s_epik_input>  (210) 
W0NIM11bQ0gyXVtDSDJdTjFbQ0gyXVtDQEBIXShbQ0gyXVtDSDNdKVtDQEBIXShbQ0BAXTEyMylbQ0gyXU4oW0NIM10pW0NASF0oW0NAQF0yKE9bQ0gzXSlbQ0gyXVtDSDJdQyg9W0NIXTMpT1tDSDNdKVtDSDJdYzRbY0hdW2NIXWMoT1tDSDNdKVtjSF1bY0hdNA==

>  <s_epik_cmdline>  (210) 
J2VwaWtfcHl0aG9uJywgJy1waHQnLCAnMi4wJywgJy1waCcsICc3LjAnLCAnLXRuJywgJzgnLCAnLW1hJywgJzIwMCcsICctaW1hZScsICc8aW5maWxlLm1hZT4nLCAnLW9tYWUnLCAnPG91dGZpbGUubWFlPic=

>  <r_lp_tautomer_probability>  (210) 
1

>  <r_epik_Ionization_Penalty>  (210) 
0.0615025

>  <r_epik_Ionization_Penalty_Charging>  (210) 
0.0546568

>  <r_epik_Ionization_Penalty_Neutral>  (210) 
0.00684571

>  <r_epik_State_Penalty>  (210) 
0.140073

>  <r_epik_Charging_Adjusted_Penalty>  (210) 
0.19473

>  <i_epik_Tot_Q>  (210) 
1

>  <i_epik_Tot_abs_Q>  (210) 
1

>  <s_lp_Force_Field>  (210) 
OPLS3e

>  <r_lp_Energy>  (210) 
57.3573

>  <b_lp_Chiralities_Consistent>  (210) 
1

>  <s_lp_Variant>  (210) 
68:0-1

>  <s_i_glide_gridfile>  (210) 
pfpi4k_grid

>  <i_i_glide_lignum>  (210) 
19

>  <i_i_glide_rotatable_bonds>  (210) 
8

>  <r_i_docking_score>  (210) 
-1.64524

>  <r_i_glide_ligand_efficiency>  (210) 
-0.0514136

>  <r_i_glide_ligand_efficiency_sa>  (210) 
-0.163228

>  <r_i_glide_ligand_efficiency_ln>  (210) 
-0.368413

>  <r_i_glide_gscore>  (210) 
-1.64524

>  <r_i_glide_lipo>  (210) 
-0.312294

>  <r_i_glide_hbond>  (210) 
0

>  <r_i_glide_metal>  (210) 
-0

>  <r_i_glide_rewards>  (210) 
-0.38426

>  <r_i_glide_evdw>  (210) 
-23.0247

>  <r_i_glide_ecoul>  (210) 
-0.681298

>  <r_i_glide_erotb>  (210) 
0.304749

>  <r_i_glide_esite>  (210) 
0

>  <r_i_glide_emodel>  (210) 
-20.8191

>  <r_i_glide_energy>  (210) 
-23.706

>  <r_i_glide_einternal>  (210) 
10.7325

>  <r_i_glide_intrahb_reward>  (210) 
-0

>  <i_i_glide_confnum>  (210) 
3

>  <i_i_glide_posenum>  (210) 
22

>  <r_i_glide_eff_state_penalty>  (210) 
0

>  <ligand_id>  (210) 
68

>  <original_smiles>  (210) 
CCCN1CC(CC)C2CN(C)C(Cc3ccc(OC)cc3)C3(OC)CCC(OC)=CC213

>  <smiles>  (210) 
[H]C1=C(OC([H])([H])[H])C([H])([H])C([H])([H])C2(OC([H])([H])[H])C13N(C([H])([H])C([H])([H])C([H])([H])[H])C([H])([H])C([H])(C([H])([H])C([H])([H])[H])C3([H])C([H])([H])[N+]([H])(C([H])([H])[H])C2([H])C([H])([H])c1c([H])c([H])c(OC([H])([H])[H])c([H])c1[H]

$$$$
68:0:2
     RDKit          3D

 75 78  0  0  1  0  0  0  0  0999 V2000
    0.3392   -3.6153    5.6817 C   0  0  0  0  0  0  0  0  0  0  0  0
    1.7305   -4.2463    5.6879 C   0  0  0  0  0  0  0  0  0  0  0  0
    1.7953   -5.6372    5.0209 C   0  0  0  0  0  0  0  0  0  0  0  0
    3.1511   -6.2153    5.0092 N   0  0  0  0  0  0  0  0  0  0  0  0
    3.6402   -6.4509    6.3785 C   0  0  0  0  0  0  0  0  0  0  0  0
    4.8063   -7.4365    6.2921 C   0  0  1  0  0  0  0  0  0  0  0  0
    4.6757   -8.6548    7.2356 C   0  0  0  0  0  0  0  0  0  0  0  0
    5.9407   -9.5107    7.2843 C   0  0  0  0  0  0  0  0  0  0  0  0
    4.8467   -7.7848    4.7819 C   0  0  2  0  0  0  0  0  0  0  0  0
    5.8900   -6.8550    4.1407 C   0  0  0  0  0  0  0  0  0  0  0  0
    5.8546   -6.8360    2.6512 N   0  0  2  0  0  0  0  0  0  0  0  0
    6.9988   -5.9994    2.1612 C   0  0  0  0  0  0  0  0  0  0  0  0
    4.4967   -6.4717    2.0954 C   0  0  1  0  0  0  0  0  0  0  0  0
    4.5297   -6.3637    0.5496 C   0  0  0  0  0  0  0  0  0  0  0  0
    4.3587   -4.9384   -0.0352 C   0  0  0  0  0  0  0  0  0  0  0  0
    3.0408   -4.3870   -0.1957 C   0  0  0  0  0  0  0  0  0  0  0  0
    2.8745   -3.1782   -0.8840 C   0  0  0  0  0  0  0  0  0  0  0  0
    3.9681   -2.4488   -1.3554 C   0  0  0  0  0  0  0  0  0  0  0  0
    3.6269   -1.2519   -1.9479 O   0  0  0  0  0  0  0  0  0  0  0  0
    4.6226   -0.5396   -2.6348 C   0  0  0  0  0  0  0  0  0  0  0  0
    5.2791   -2.9503   -1.1704 C   0  0  0  0  0  0  0  0  0  0  0  0
    5.4579   -4.1991   -0.5151 C   0  0  0  0  0  0  0  0  0  0  0  0
    3.3888   -7.4364    2.6690 C   0  0  1  0  0  0  0  0  0  0  0  0
    2.0686   -6.9291    2.3609 O   0  0  0  0  0  0  0  0  0  0  0  0
    1.3268   -7.2605    1.1910 C   0  0  0  0  0  0  0  0  0  0  0  0
    3.5824   -8.9070    2.1397 C   0  0  0  0  0  0  0  0  0  0  0  0
    2.5028   -9.9069    2.5997 C   0  0  0  0  0  0  0  0  0  0  0  0
    2.0481   -9.6552    4.0142 C   0  0  0  0  0  0  0  0  0  0  0  0
    1.1559  -10.6181    4.3781 O   0  0  0  0  0  0  0  0  0  0  0  0
    0.6052  -10.5735    5.6821 C   0  0  0  0  0  0  0  0  0  0  0  0
    2.4530   -8.6063    4.7626 C   0  0  0  0  0  0  0  0  0  0  0  0
    3.4041   -7.4851    4.2745 C   0  0  2  0  0  0  0  0  0  0  0  0
    0.3667   -2.6533    6.1958 H   0  0  0  0  0  0  0  0  0  0  0  0
   -0.3783   -4.2506    6.2036 H   0  0  0  0  0  0  0  0  0  0  0  0
   -0.0152   -3.4421    4.6630 H   0  0  0  0  0  0  0  0  0  0  0  0
    2.4071   -3.5825    5.1601 H   0  0  0  0  0  0  0  0  0  0  0  0
    2.0549   -4.2773    6.7346 H   0  0  0  0  0  0  0  0  0  0  0  0
    1.1028   -6.3079    5.5238 H   0  0  0  0  0  0  0  0  0  0  0  0
    1.4141   -5.5023    4.0125 H   0  0  0  0  0  0  0  0  0  0  0  0
    3.9701   -5.5278    6.8471 H   0  0  0  0  0  0  0  0  0  0  0  0
    2.8576   -6.8557    7.0165 H   0  0  0  0  0  0  0  0  0  0  0  0
    5.7022   -6.8817    6.5942 H   0  0  0  0  0  0  0  0  0  0  0  0
    4.4534   -8.2841    8.2280 H   0  0  0  0  0  0  0  0  0  0  0  0
    3.8337   -9.2827    6.9505 H   0  0  0  0  0  0  0  0  0  0  0  0
    5.7837  -10.3716    7.9278 H   0  0  0  0  0  0  0  0  0  0  0  0
    6.7876   -8.9456    7.6730 H   0  0  0  0  0  0  0  0  0  0  0  0
    6.2176   -9.8972    6.3026 H   0  0  0  0  0  0  0  0  0  0  0  0
    5.1206   -8.8398    4.6202 H   0  0  0  0  0  0  0  0  0  0  0  0
    5.7598   -5.8343    4.5015 H   0  0  0  0  0  0  0  0  0  0  0  0
    6.8638   -7.1755    4.4619 H   0  0  0  0  0  0  0  0  0  0  0  0
    6.8639   -4.9554    2.4500 H   0  0  0  0  0  0  0  0  0  0  0  0
    7.1299   -6.0564    1.0947 H   0  0  0  0  0  0  0  0  0  0  0  0
    7.9215   -6.3576    2.5866 H   0  0  0  0  0  0  0  0  0  0  0  0
    4.2809   -5.4713    2.4496 H   0  0  0  0  0  0  0  0  0  0  0  0
    5.4089   -6.8372    0.1351 H   0  0  0  0  0  0  0  0  0  0  0  0
    3.7694   -6.9951    0.0901 H   0  0  0  0  0  0  0  0  0  0  0  0
    2.1108   -4.8403    0.0774 H   0  0  0  0  0  0  0  0  0  0  0  0
    1.8750   -2.8482   -1.0709 H   0  0  0  0  0  0  0  0  0  0  0  0
    4.1896    0.3983   -3.0060 H   0  0  0  0  0  0  0  0  0  0  0  0
    4.9502   -1.1614   -3.4726 H   0  0  0  0  0  0  0  0  0  0  0  0
    5.4476   -0.3022   -1.9554 H   0  0  0  0  0  0  0  0  0  0  0  0
    6.1552   -2.3987   -1.5256 H   0  0  0  0  0  0  0  0  0  0  0  0
    6.4637   -4.5991   -0.4311 H   0  0  0  0  0  0  0  0  0  0  0  0
    0.2880   -7.0526    1.4055 H   0  0  0  0  0  0  0  0  0  0  0  0
    1.3431   -8.2908    0.8895 H   0  0  0  0  0  0  0  0  0  0  0  0
    1.6762   -6.7367    0.3600 H   0  0  0  0  0  0  0  0  0  0  0  0
    3.6686   -8.9346    1.0552 H   0  0  0  0  0  0  0  0  0  0  0  0
    4.5280   -9.2975    2.4967 H   0  0  0  0  0  0  0  0  0  0  0  0
    1.5862   -9.8760    2.0362 H   0  0  0  0  0  0  0  0  0  0  0  0
    2.8533  -10.9295    2.4863 H   0  0  0  0  0  0  0  0  0  0  0  0
   -0.0344  -11.4399    5.8218 H   0  0  0  0  0  0  0  0  0  0  0  0
    0.0017   -9.6795    5.8215 H   0  0  0  0  0  0  0  0  0  0  0  0
    1.3981  -10.6075    6.4254 H   0  0  0  0  0  0  0  0  0  0  0  0
    2.0798   -8.4870    5.7634 H   0  0  0  0  0  0  0  0  0  0  0  0
    6.0595   -7.7835    2.3570 H   0  0  0  0  0  0  0  0  0  0  0  0
  1  2  1  0
  1 33  1  0
  1 34  1  0
  1 35  1  0
  2  3  1  0
  2 36  1  0
  2 37  1  0
  3  4  1  0
  3 38  1  0
  3 39  1  0
 32  4  1  1
  4  5  1  0
  5  6  1  0
  5 40  1  0
  5 41  1  0
  6  7  1  0
  6  9  1  0
  6 42  1  1
  7  8  1  0
  7 43  1  0
  7 44  1  0
  8 45  1  0
  8 46  1  0
  8 47  1  0
  9 32  1  0
  9 10  1  0
  9 48  1  1
 10 11  1  0
 10 49  1  0
 10 50  1  0
 11 12  1  0
 11 13  1  0
 11 75  1  6
 12 51  1  0
 12 52  1  0
 12 53  1  0
 13 14  1  0
 13 23  1  0
 13 54  1  1
 14 15  1  0
 14 55  1  0
 14 56  1  0
 15 22  1  0
 15 16  2  0
 16 17  1  0
 16 57  1  0
 17 18  2  0
 17 58  1  0
 18 19  1  0
 18 21  1  0
 19 20  1  0
 20 59  1  0
 20 60  1  0
 20 61  1  0
 21 22  2  0
 21 62  1  0
 22 63  1  0
 23 32  1  0
 23 24  1  1
 23 26  1  0
 24 25  1  0
 25 64  1  0
 25 65  1  0
 25 66  1  0
 26 27  1  0
 26 67  1  0
 26 68  1  0
 27 28  1  0
 27 69  1  0
 27 70  1  0
 28 29  1  0
 28 31  2  0
 29 30  1  0
 30 71  1  0
 30 72  1  0
 30 73  1  0
 31 32  1  0
 31 74  1  0
M  CHG  1  11   1
M  END
>  <i_m_ct_stereo_status>  (211) 
1

>  <s_m_source_file>  (211) 
/var/tmp/pbs.5076255.sched01/tmpln0nb48r/86bqtw16pk.sdf

>  <i_m_source_file_index>  (211) 
19

>  <i_lp_mmshare_version>  (211) 
48012

>  <i_f3d_flags>  (211) 
0

>  <s_epik_input>  (211) 
W0NIM11bQ0gyXVtDSDJdTjFbQ0gyXVtDQEBIXShbQ0gyXVtDSDNdKVtDQEBIXShbQ0BAXTEyMylbQ0gyXU4oW0NIM10pW0NASF0oW0NAQF0yKE9bQ0gzXSlbQ0gyXVtDSDJdQyg9W0NIXTMpT1tDSDNdKVtDSDJdYzRbY0hdW2NIXWMoT1tDSDNdKVtjSF1bY0hdNA==

>  <s_epik_cmdline>  (211) 
J2VwaWtfcHl0aG9uJywgJy1waHQnLCAnMi4wJywgJy1waCcsICc3LjAnLCAnLXRuJywgJzgnLCAnLW1hJywgJzIwMCcsICctaW1hZScsICc8aW5maWxlLm1hZT4nLCAnLW9tYWUnLCAnPG91dGZpbGUubWFlPic=

>  <r_lp_tautomer_probability>  (211) 
1

>  <r_epik_Ionization_Penalty>  (211) 
0.0615025

>  <r_epik_Ionization_Penalty_Charging>  (211) 
0.0546568

>  <r_epik_Ionization_Penalty_Neutral>  (211) 
0.00684571

>  <r_epik_State_Penalty>  (211) 
0.140073

>  <r_epik_Charging_Adjusted_Penalty>  (211) 
0.19473

>  <i_epik_Tot_Q>  (211) 
1

>  <i_epik_Tot_abs_Q>  (211) 
1

>  <s_lp_Force_Field>  (211) 
OPLS3e

>  <r_lp_Energy>  (211) 
57.3573

>  <b_lp_Chiralities_Consistent>  (211) 
1

>  <s_lp_Variant>  (211) 
68:0-1

>  <s_i_glide_gridfile>  (211) 
pfpi4k_grid

>  <i_i_glide_lignum>  (211) 
19

>  <i_i_glide_rotatable_bonds>  (211) 
8

>  <r_i_docking_score>  (211) 
-1.49055

>  <r_i_glide_ligand_efficiency>  (211) 
-0.0465797

>  <r_i_glide_ligand_efficiency_sa>  (211) 
-0.147881

>  <r_i_glide_ligand_efficiency_ln>  (211) 
-0.333775

>  <r_i_glide_gscore>  (211) 
-1.49055

>  <r_i_glide_lipo>  (211) 
-0.279799

>  <r_i_glide_hbond>  (211) 
0

>  <r_i_glide_metal>  (211) 
-0

>  <r_i_glide_rewards>  (211) 
-0.38426

>  <r_i_glide_evdw>  (211) 
-23.1257

>  <r_i_glide_ecoul>  (211) 
0.166968

>  <r_i_glide_erotb>  (211) 
0.304749

>  <r_i_glide_esite>  (211) 
0

>  <r_i_glide_emodel>  (211) 
-20.2012

>  <r_i_glide_energy>  (211) 
-22.9587

>  <r_i_glide_einternal>  (211) 
7.07209

>  <r_i_glide_intrahb_reward>  (211) 
-0

>  <i_i_glide_confnum>  (211) 
2

>  <i_i_glide_posenum>  (211) 
24

>  <r_i_glide_eff_state_penalty>  (211) 
0

>  <ligand_id>  (211) 
68

>  <original_smiles>  (211) 
CCCN1CC(CC)C2CN(C)C(Cc3ccc(OC)cc3)C3(OC)CCC(OC)=CC213

>  <smiles>  (211) 
[H]C1=C(OC([H])([H])[H])C([H])([H])C([H])([H])C2(OC([H])([H])[H])C13N(C([H])([H])C([H])([H])C([H])([H])[H])C([H])([H])C([H])(C([H])([H])C([H])([H])[H])C3([H])C([H])([H])[N+]([H])(C([H])([H])[H])C2([H])C([H])([H])c1c([H])c([H])c(OC([H])([H])[H])c([H])c1[H]

$$$$
68:1:0
     RDKit          3D

 75 78  0  0  1  0  0  0  0  0999 V2000
   -1.3459   -9.3490    2.7416 C   0  0  0  0  0  0  0  0  0  0  0  0
   -0.1289  -10.3262    2.6536 C   0  0  0  0  0  0  0  0  0  0  0  0
    1.2382   -9.6062    2.6572 C   0  0  0  0  0  0  0  0  0  0  0  0
    1.8620   -9.4915    3.9971 N   0  0  2  0  0  0  0  0  0  0  0  0
    0.9403   -9.1816    5.1157 C   0  0  0  0  0  0  0  0  0  0  0  0
    1.7475   -8.5434    6.2393 C   0  0  1  0  0  0  0  0  0  0  0  0
    1.4052   -9.0937    7.6373 C   0  0  0  0  0  0  0  0  0  0  0  0
    0.0066   -8.6745    8.1260 C   0  0  0  0  0  0  0  0  0  0  0  0
    3.1890   -8.6896    5.7537 C   0  0  2  0  0  0  0  0  0  0  0  0
    4.1056   -7.6312    6.3676 C   0  0  0  0  0  0  0  0  0  0  0  0
    3.8217   -6.3080    5.8312 N   0  0  0  0  0  0  0  0  0  0  0  0
    4.3962   -5.2435    6.6510 C   0  0  0  0  0  0  0  0  0  0  0  0
    4.0783   -6.2275    4.3804 C   0  0  1  0  0  0  0  0  0  0  0  0
    5.6056   -6.2609    4.0383 C   0  0  0  0  0  0  0  0  0  0  0  0
    6.0904   -5.4946    2.7965 C   0  0  0  0  0  0  0  0  0  0  0  0
    7.3290   -5.8554    2.2359 C   0  0  0  0  0  0  0  0  0  0  0  0
    7.8342   -5.1852    1.0987 C   0  0  0  0  0  0  0  0  0  0  0  0
    7.0972   -4.1318    0.5003 C   0  0  0  0  0  0  0  0  0  0  0  0
    7.4945   -3.4308   -0.6009 O   0  0  0  0  0  0  0  0  0  0  0  0
    8.8157   -3.6214   -1.0747 C   0  0  0  0  0  0  0  0  0  0  0  0
    5.8532   -3.7709    1.0722 C   0  0  0  0  0  0  0  0  0  0  0  0
    5.3675   -4.4253    2.2126 C   0  0  0  0  0  0  0  0  0  0  0  0
    3.1281   -7.2322    3.5713 C   0  0  1  0  0  0  0  0  0  0  0  0
    1.7872   -6.7686    3.7702 O   0  0  0  0  0  0  0  0  0  0  0  0
    1.3337   -5.5333    3.2292 C   0  0  0  0  0  0  0  0  0  0  0  0
    3.4125   -7.2482    2.0250 C   0  0  0  0  0  0  0  0  0  0  0  0
    4.5565   -8.1822    1.5511 C   0  0  0  0  0  0  0  0  0  0  0  0
    4.8966   -9.3324    2.4910 C   0  0  0  0  0  0  0  0  0  0  0  0
    5.9629  -10.0530    1.9951 O   0  0  0  0  0  0  0  0  0  0  0  0
    6.7639  -10.7854    2.9222 C   0  0  0  0  0  0  0  0  0  0  0  0
    4.2375   -9.5566    3.6509 C   0  0  0  0  0  0  0  0  0  0  0  0
    3.1158   -8.7076    4.1978 C   0  0  2  0  0  0  0  0  0  0  0  0
   -2.2962   -9.8752    2.6382 H   0  0  0  0  0  0  0  0  0  0  0  0
   -1.3515   -8.6442    1.8977 H   0  0  0  0  0  0  0  0  0  0  0  0
   -1.4171   -8.7865    3.6777 H   0  0  0  0  0  0  0  0  0  0  0  0
   -0.1766  -11.1067    3.4166 H   0  0  0  0  0  0  0  0  0  0  0  0
   -0.1997  -10.8532    1.7100 H   0  0  0  0  0  0  0  0  0  0  0  0
    1.9399  -10.1369    2.0143 H   0  0  0  0  0  0  0  0  0  0  0  0
    1.0321   -8.6528    2.1867 H   0  0  0  0  0  0  0  0  0  0  0  0
    0.2210   -8.4180    4.8304 H   0  0  0  0  0  0  0  0  0  0  0  0
    0.4035  -10.0795    5.4550 H   0  0  0  0  0  0  0  0  0  0  0  0
    1.4932   -7.4856    6.2309 H   0  0  0  0  0  0  0  0  0  0  0  0
    1.4818  -10.1822    7.6256 H   0  0  0  0  0  0  0  0  0  0  0  0
    2.1417   -8.7291    8.3524 H   0  0  0  0  0  0  0  0  0  0  0  0
   -0.1604   -9.0517    9.1315 H   0  0  0  0  0  0  0  0  0  0  0  0
   -0.7913   -9.0715    7.4989 H   0  0  0  0  0  0  0  0  0  0  0  0
   -0.1042   -7.5913    8.1629 H   0  0  0  0  0  0  0  0  0  0  0  0
    3.5211   -9.6634    6.1238 H   0  0  0  0  0  0  0  0  0  0  0  0
    3.9673   -7.6311    7.4553 H   0  0  0  0  0  0  0  0  0  0  0  0
    5.1495   -7.8993    6.1845 H   0  0  0  0  0  0  0  0  0  0  0  0
    4.1941   -4.2664    6.2189 H   0  0  0  0  0  0  0  0  0  0  0  0
    5.4699   -5.3628    6.7672 H   0  0  0  0  0  0  0  0  0  0  0  0
    3.9698   -5.2585    7.6542 H   0  0  0  0  0  0  0  0  0  0  0  0
    3.7792   -5.2157    4.1315 H   0  0  0  0  0  0  0  0  0  0  0  0
    6.1831   -5.8197    4.8481 H   0  0  0  0  0  0  0  0  0  0  0  0
    5.9475   -7.2924    3.9897 H   0  0  0  0  0  0  0  0  0  0  0  0
    7.9074   -6.6521    2.6672 H   0  0  0  0  0  0  0  0  0  0  0  0
    8.7821   -5.5064    0.7071 H   0  0  0  0  0  0  0  0  0  0  0  0
    8.9706   -2.9917   -1.9475 H   0  0  0  0  0  0  0  0  0  0  0  0
    9.0099   -4.6490   -1.3803 H   0  0  0  0  0  0  0  0  0  0  0  0
    9.5338   -3.3257   -0.3116 H   0  0  0  0  0  0  0  0  0  0  0  0
    5.2814   -2.9746    0.6192 H   0  0  0  0  0  0  0  0  0  0  0  0
    4.4201   -4.0885    2.6024 H   0  0  0  0  0  0  0  0  0  0  0  0
    0.2796   -5.4334    3.4951 H   0  0  0  0  0  0  0  0  0  0  0  0
    1.3958   -5.5112    2.1431 H   0  0  0  0  0  0  0  0  0  0  0  0
    1.8387   -4.6638    3.6438 H   0  0  0  0  0  0  0  0  0  0  0  0
    2.5239   -7.4957    1.4389 H   0  0  0  0  0  0  0  0  0  0  0  0
    3.6312   -6.2338    1.6771 H   0  0  0  0  0  0  0  0  0  0  0  0
    4.2719   -8.6055    0.5845 H   0  0  0  0  0  0  0  0  0  0  0  0
    5.4877   -7.6388    1.3709 H   0  0  0  0  0  0  0  0  0  0  0  0
    7.3345  -11.5476    2.3853 H   0  0  0  0  0  0  0  0  0  0  0  0
    6.2455  -11.2934    3.7392 H   0  0  0  0  0  0  0  0  0  0  0  0
    7.4638  -10.0645    3.3486 H   0  0  0  0  0  0  0  0  0  0  0  0
    4.4728  -10.3949    4.2939 H   0  0  0  0  0  0  0  0  0  0  0  0
    2.1852  -10.4345    4.2118 H   0  0  0  0  0  0  0  0  0  0  0  0
  1  2  1  0
  1 33  1  0
  1 34  1  0
  1 35  1  0
  2  3  1  0
  2 36  1  0
  2 37  1  0
  3  4  1  0
  3 38  1  0
  3 39  1  0
  4 32  1  0
  4  5  1  0
  4 75  1  1
  5  6  1  0
  5 40  1  0
  5 41  1  0
  6  7  1  0
  6  9  1  0
  6 42  1  1
  7  8  1  0
  7 43  1  0
  7 44  1  0
  8 45  1  0
  8 46  1  0
  8 47  1  0
  9 32  1  0
  9 10  1  0
  9 48  1  1
 10 11  1  0
 10 49  1  0
 10 50  1  0
 11 12  1  0
 11 13  1  0
 12 51  1  0
 12 52  1  0
 12 53  1  0
 13 14  1  0
 13 23  1  0
 13 54  1  6
 14 15  1  0
 14 55  1  0
 14 56  1  0
 15 22  1  0
 15 16  2  0
 16 17  1  0
 16 57  1  0
 17 18  2  0
 17 58  1  0
 18 19  1  0
 18 21  1  0
 19 20  1  0
 20 59  1  0
 20 60  1  0
 20 61  1  0
 21 22  2  0
 21 62  1  0
 22 63  1  0
 23 32  1  0
 23 24  1  6
 23 26  1  0
 24 25  1  0
 25 64  1  0
 25 65  1  0
 25 66  1  0
 26 27  1  0
 26 67  1  0
 26 68  1  0
 27 28  1  0
 27 69  1  0
 27 70  1  0
 28 29  1  0
 28 31  2  0
 29 30  1  0
 30 71  1  0
 30 72  1  0
 30 73  1  0
 32 31  1  6
 31 74  1  0
M  CHG  1   4   1
M  END
>  <i_m_ct_stereo_status>  (212) 
1

>  <s_m_source_file>  (212) 
/var/tmp/pbs.5076255.sched01/tmpln0nb48r/86bqtw16pk.sdf

>  <i_m_source_file_index>  (212) 
20

>  <i_lp_mmshare_version>  (212) 
48012

>  <i_f3d_flags>  (212) 
0

>  <s_epik_input>  (212) 
W0NIM11bQ0gyXVtDSDJdTjFbQ0gyXVtDQEBIXShbQ0gyXVtDSDNdKVtDQEBIXShbQ0BAXTEyMylbQ0gyXU4oW0NIM10pW0NASF0oW0NAQF0yKE9bQ0gzXSlbQ0gyXVtDSDJdQyg9W0NIXTMpT1tDSDNdKVtDSDJdYzRbY0hdW2NIXWMoT1tDSDNdKVtjSF1bY0hdNA==

>  <s_epik_cmdline>  (212) 
J2VwaWtfcHl0aG9uJywgJy1waHQnLCAnMi4wJywgJy1waCcsICc3LjAnLCAnLXRuJywgJzgnLCAnLW1hJywgJzIwMCcsICctaW1hZScsICc8aW5maWxlLm1hZT4nLCAnLW9tYWUnLCAnPG91dGZpbGUubWFlPic=

>  <r_epik_Ionization_Penalty>  (212) 
0.406755

>  <r_epik_Ionization_Penalty_Charging>  (212) 
0.382579

>  <r_epik_Ionization_Penalty_Neutral>  (212) 
0.0241762

>  <r_epik_State_Penalty>  (212) 
1.25153

>  <r_epik_Charging_Adjusted_Penalty>  (212) 
1.63411

>  <i_epik_Tot_Q>  (212) 
1

>  <i_epik_Tot_abs_Q>  (212) 
1

>  <s_lp_Force_Field>  (212) 
OPLS3e

>  <r_lp_Energy>  (212) 
62.1862

>  <b_lp_Chiralities_Consistent>  (212) 
1

>  <s_lp_Variant>  (212) 
68:0-2

>  <s_i_glide_gridfile>  (212) 
pfpi4k_grid

>  <i_i_glide_lignum>  (212) 
20

>  <i_i_glide_rotatable_bonds>  (212) 
8

>  <r_i_docking_score>  (212) 
-2.48105

>  <r_i_glide_ligand_efficiency>  (212) 
-0.0775329

>  <r_i_glide_ligand_efficiency_sa>  (212) 
-0.246152

>  <r_i_glide_ligand_efficiency_ln>  (212) 
-0.555575

>  <r_i_glide_gscore>  (212) 
-2.48105

>  <r_i_glide_lipo>  (212) 
-0.686975

>  <r_i_glide_hbond>  (212) 
0

>  <r_i_glide_metal>  (212) 
-0

>  <r_i_glide_rewards>  (212) 
-0.38426

>  <r_i_glide_evdw>  (212) 
-25.2993

>  <r_i_glide_ecoul>  (212) 
-2.91547

>  <r_i_glide_erotb>  (212) 
0.304749

>  <r_i_glide_esite>  (212) 
-0.0122789

>  <r_i_glide_emodel>  (212) 
-27.9543

>  <r_i_glide_energy>  (212) 
-28.2148

>  <r_i_glide_einternal>  (212) 
9.09258

>  <r_i_glide_intrahb_reward>  (212) 
-0

>  <i_i_glide_confnum>  (212) 
4

>  <i_i_glide_posenum>  (212) 
35

>  <r_i_glide_eff_state_penalty>  (212) 
0

>  <ligand_id>  (212) 
68

>  <original_smiles>  (212) 
CCCN1CC(CC)C2CN(C)C(Cc3ccc(OC)cc3)C3(OC)CCC(OC)=CC213

>  <smiles>  (212) 
[H]C1=C(OC([H])([H])[H])C([H])([H])C([H])([H])C2(OC([H])([H])[H])C([H])(C([H])([H])c3c([H])c([H])c(OC([H])([H])[H])c([H])c3[H])N(C([H])([H])[H])C([H])([H])C3([H])C([H])(C([H])([H])C([H])([H])[H])C([H])([H])[N+]([H])(C([H])([H])C([H])([H])C([H])([H])[H])C132

$$$$
68:1:1
     RDKit          3D

 75 78  0  0  1  0  0  0  0  0999 V2000
    0.6274  -11.7754    3.8522 C   0  0  0  0  0  0  0  0  0  0  0  0
    2.1301  -11.8440    3.4495 C   0  0  0  0  0  0  0  0  0  0  0  0
    2.8329  -10.4825    3.2198 C   0  0  0  0  0  0  0  0  0  0  0  0
    3.1083   -9.7466    4.4884 N   0  0  2  0  0  0  0  0  0  0  0  0
    1.9365   -9.4398    5.3390 C   0  0  0  0  0  0  0  0  0  0  0  0
    2.2418   -8.2139    6.1754 C   0  0  1  0  0  0  0  0  0  0  0  0
    1.8068   -8.3871    7.6461 C   0  0  0  0  0  0  0  0  0  0  0  0
    0.2840   -8.4061    7.8304 C   0  0  0  0  0  0  0  0  0  0  0  0
    3.7483   -8.0210    5.9506 C   0  0  2  0  0  0  0  0  0  0  0  0
    4.2121   -6.5931    6.2159 C   0  0  0  0  0  0  0  0  0  0  0  0
    3.6858   -5.6921    5.2074 N   0  0  0  0  0  0  0  0  0  0  0  0
    3.7723   -4.2962    5.6249 C   0  0  0  0  0  0  0  0  0  0  0  0
    4.2084   -5.9998    3.8602 C   0  0  1  0  0  0  0  0  0  0  0  0
    5.7248   -5.6528    3.6910 C   0  0  0  0  0  0  0  0  0  0  0  0
    6.0592   -4.8327    2.4478 C   0  0  0  0  0  0  0  0  0  0  0  0
    5.3215   -3.6940    2.0844 C   0  0  0  0  0  0  0  0  0  0  0  0
    5.6934   -2.9096    0.9723 C   0  0  0  0  0  0  0  0  0  0  0  0
    6.8456   -3.2532    0.2191 C   0  0  0  0  0  0  0  0  0  0  0  0
    7.1760   -2.4497   -0.8459 O   0  0  0  0  0  0  0  0  0  0  0  0
    8.4254   -2.7098   -1.4865 C   0  0  0  0  0  0  0  0  0  0  0  0
    7.5843   -4.3969    0.5979 C   0  0  0  0  0  0  0  0  0  0  0  0
    7.2041   -5.1704    1.6868 C   0  0  0  0  0  0  0  0  0  0  0  0
    3.7507   -7.4490    3.3960 C   0  0  1  0  0  0  0  0  0  0  0  0
    2.3183   -7.4244    3.2871 O   0  0  0  0  0  0  0  0  0  0  0  0
    1.6628   -6.6751    2.2698 C   0  0  0  0  0  0  0  0  0  0  0  0
    4.3418   -7.8737    2.0061 C   0  0  0  0  0  0  0  0  0  0  0  0
    5.7647   -8.4860    2.0052 C   0  0  0  0  0  0  0  0  0  0  0  0
    6.1924   -9.1212    3.3254 C   0  0  0  0  0  0  0  0  0  0  0  0
    7.4250   -9.7212    3.2448 O   0  0  0  0  0  0  0  0  0  0  0  0
    7.8288  -10.5245    4.3586 C   0  0  0  0  0  0  0  0  0  0  0  0
    5.4159   -9.1131    4.4312 C   0  0  0  0  0  0  0  0  0  0  0  0
    4.0187   -8.5517    4.5131 C   0  0  2  0  0  0  0  0  0  0  0  0
    0.2101  -12.7951    3.8326 H   0  0  0  0  0  0  0  0  0  0  0  0
    0.0787  -11.2007    3.0891 H   0  0  0  0  0  0  0  0  0  0  0  0
    0.4384  -11.3658    4.8280 H   0  0  0  0  0  0  0  0  0  0  0  0
    2.6914  -12.4481    4.1619 H   0  0  0  0  0  0  0  0  0  0  0  0
    2.2218  -12.3699    2.5006 H   0  0  0  0  0  0  0  0  0  0  0  0
    3.7896  -10.6884    2.7281 H   0  0  0  0  0  0  0  0  0  0  0  0
    2.2438   -9.8872    2.5239 H   0  0  0  0  0  0  0  0  0  0  0  0
    1.0588   -9.2297    4.7231 H   0  0  0  0  0  0  0  0  0  0  0  0
    1.7446  -10.3162    5.9723 H   0  0  0  0  0  0  0  0  0  0  0  0
    1.7102   -7.3528    5.7455 H   0  0  0  0  0  0  0  0  0  0  0  0
    2.2267   -9.3081    8.0554 H   0  0  0  0  0  0  0  0  0  0  0  0
    2.2139   -7.5712    8.2465 H   0  0  0  0  0  0  0  0  0  0  0  0
    0.0265   -8.4834    8.8836 H   0  0  0  0  0  0  0  0  0  0  0  0
   -0.1945   -9.2464    7.3228 H   0  0  0  0  0  0  0  0  0  0  0  0
   -0.1576   -7.4875    7.4540 H   0  0  0  0  0  0  0  0  0  0  0  0
    4.2454   -8.6753    6.6679 H   0  0  0  0  0  0  0  0  0  0  0  0
    3.8563   -6.3060    7.2060 H   0  0  0  0  0  0  0  0  0  0  0  0
    5.3033   -6.5585    6.2475 H   0  0  0  0  0  0  0  0  0  0  0  0
    3.3927   -3.6319    4.8527 H   0  0  0  0  0  0  0  0  0  0  0  0
    4.7926   -4.0073    5.8709 H   0  0  0  0  0  0  0  0  0  0  0  0
    3.1719   -4.1356    6.5214 H   0  0  0  0  0  0  0  0  0  0  0  0
    3.6993   -5.3160    3.1988 H   0  0  0  0  0  0  0  0  0  0  0  0
    6.0799   -5.0581    4.5280 H   0  0  0  0  0  0  0  0  0  0  0  0
    6.3472   -6.5362    3.7559 H   0  0  0  0  0  0  0  0  0  0  0  0
    4.4775   -3.3610    2.6753 H   0  0  0  0  0  0  0  0  0  0  0  0
    5.1257   -2.0336    0.7085 H   0  0  0  0  0  0  0  0  0  0  0  0
    8.6096   -2.0177   -2.3012 H   0  0  0  0  0  0  0  0  0  0  0  0
    8.4724   -3.7214   -1.8988 H   0  0  0  0  0  0  0  0  0  0  0  0
    9.2234   -2.5759   -0.7521 H   0  0  0  0  0  0  0  0  0  0  0  0
    8.4819   -4.7106    0.0842 H   0  0  0  0  0  0  0  0  0  0  0  0
    7.8228   -5.9955    1.9857 H   0  0  0  0  0  0  0  0  0  0  0  0
    0.5914   -6.8452    2.3792 H   0  0  0  0  0  0  0  0  0  0  0  0
    1.9352   -7.0000    1.2659 H   0  0  0  0  0  0  0  0  0  0  0  0
    1.8189   -5.6012    2.3620 H   0  0  0  0  0  0  0  0  0  0  0  0
    3.6847   -8.6018    1.5336 H   0  0  0  0  0  0  0  0  0  0  0  0
    4.3185   -7.0255    1.3174 H   0  0  0  0  0  0  0  0  0  0  0  0
    5.8181   -9.2479    1.2248 H   0  0  0  0  0  0  0  0  0  0  0  0
    6.5061   -7.7414    1.7249 H   0  0  0  0  0  0  0  0  0  0  0  0
    8.7424  -11.0716    4.1399 H   0  0  0  0  0  0  0  0  0  0  0  0
    7.0630  -11.2659    4.5955 H   0  0  0  0  0  0  0  0  0  0  0  0
    8.0075   -9.9078    5.2411 H   0  0  0  0  0  0  0  0  0  0  0  0
    5.7459   -9.5635    5.3563 H   0  0  0  0  0  0  0  0  0  0  0  0
    3.6211  -10.4145    5.0490 H   0  0  0  0  0  0  0  0  0  0  0  0
  1  2  1  0
  1 33  1  0
  1 34  1  0
  1 35  1  0
  2  3  1  0
  2 36  1  0
  2 37  1  0
  3  4  1  0
  3 38  1  0
  3 39  1  0
  4 32  1  0
  4  5  1  0
  4 75  1  1
  5  6  1  0
  5 40  1  0
  5 41  1  0
  6  7  1  0
  6  9  1  0
  6 42  1  6
  7  8  1  0
  7 43  1  0
  7 44  1  0
  8 45  1  0
  8 46  1  0
  8 47  1  0
  9 32  1  0
  9 10  1  0
  9 48  1  1
 10 11  1  0
 10 49  1  0
 10 50  1  0
 11 12  1  0
 11 13  1  0
 12 51  1  0
 12 52  1  0
 12 53  1  0
 13 14  1  0
 13 23  1  0
 13 54  1  6
 14 15  1  0
 14 55  1  0
 14 56  1  0
 15 22  1  0
 15 16  2  0
 16 17  1  0
 16 57  1  0
 17 18  2  0
 17 58  1  0
 18 19  1  0
 18 21  1  0
 19 20  1  0
 20 59  1  0
 20 60  1  0
 20 61  1  0
 21 22  2  0
 21 62  1  0
 22 63  1  0
 23 32  1  0
 23 24  1  6
 23 26  1  0
 24 25  1  0
 25 64  1  0
 25 65  1  0
 25 66  1  0
 26 27  1  0
 26 67  1  0
 26 68  1  0
 27 28  1  0
 27 69  1  0
 27 70  1  0
 28 29  1  0
 28 31  2  0
 29 30  1  0
 30 71  1  0
 30 72  1  0
 30 73  1  0
 32 31  1  1
 31 74  1  0
M  CHG  1   4   1
M  END
>  <i_m_ct_stereo_status>  (213) 
1

>  <s_m_source_file>  (213) 
/var/tmp/pbs.5076255.sched01/tmpln0nb48r/86bqtw16pk.sdf

>  <i_m_source_file_index>  (213) 
20

>  <i_lp_mmshare_version>  (213) 
48012

>  <i_f3d_flags>  (213) 
0

>  <s_epik_input>  (213) 
W0NIM11bQ0gyXVtDSDJdTjFbQ0gyXVtDQEBIXShbQ0gyXVtDSDNdKVtDQEBIXShbQ0BAXTEyMylbQ0gyXU4oW0NIM10pW0NASF0oW0NAQF0yKE9bQ0gzXSlbQ0gyXVtDSDJdQyg9W0NIXTMpT1tDSDNdKVtDSDJdYzRbY0hdW2NIXWMoT1tDSDNdKVtjSF1bY0hdNA==

>  <s_epik_cmdline>  (213) 
J2VwaWtfcHl0aG9uJywgJy1waHQnLCAnMi4wJywgJy1waCcsICc3LjAnLCAnLXRuJywgJzgnLCAnLW1hJywgJzIwMCcsICctaW1hZScsICc8aW5maWxlLm1hZT4nLCAnLW9tYWUnLCAnPG91dGZpbGUubWFlPic=

>  <r_epik_Ionization_Penalty>  (213) 
0.406755

>  <r_epik_Ionization_Penalty_Charging>  (213) 
0.382579

>  <r_epik_Ionization_Penalty_Neutral>  (213) 
0.0241762

>  <r_epik_State_Penalty>  (213) 
1.25153

>  <r_epik_Charging_Adjusted_Penalty>  (213) 
1.63411

>  <i_epik_Tot_Q>  (213) 
1

>  <i_epik_Tot_abs_Q>  (213) 
1

>  <s_lp_Force_Field>  (213) 
OPLS3e

>  <r_lp_Energy>  (213) 
62.1862

>  <b_lp_Chiralities_Consistent>  (213) 
1

>  <s_lp_Variant>  (213) 
68:0-2

>  <s_i_glide_gridfile>  (213) 
pfpi4k_grid

>  <i_i_glide_lignum>  (213) 
20

>  <i_i_glide_rotatable_bonds>  (213) 
8

>  <r_i_docking_score>  (213) 
-2.40444

>  <r_i_glide_ligand_efficiency>  (213) 
-0.0751388

>  <r_i_glide_ligand_efficiency_sa>  (213) 
-0.238551

>  <r_i_glide_ligand_efficiency_ln>  (213) 
-0.53842

>  <r_i_glide_gscore>  (213) 
-2.40444

>  <r_i_glide_lipo>  (213) 
-0.550168

>  <r_i_glide_hbond>  (213) 
-0.132527

>  <r_i_glide_metal>  (213) 
-0

>  <r_i_glide_rewards>  (213) 
-0.38426

>  <r_i_glide_evdw>  (213) 
-22.4391

>  <r_i_glide_ecoul>  (213) 
-3.40479

>  <r_i_glide_erotb>  (213) 
0.304749

>  <r_i_glide_esite>  (213) 
-0.00956069

>  <r_i_glide_emodel>  (213) 
-26.0786

>  <r_i_glide_energy>  (213) 
-25.8439

>  <r_i_glide_einternal>  (213) 
8.1761

>  <r_i_glide_intrahb_reward>  (213) 
-0

>  <i_i_glide_confnum>  (213) 
4

>  <i_i_glide_posenum>  (213) 
14

>  <r_i_glide_eff_state_penalty>  (213) 
0

>  <ligand_id>  (213) 
68

>  <original_smiles>  (213) 
CCCN1CC(CC)C2CN(C)C(Cc3ccc(OC)cc3)C3(OC)CCC(OC)=CC213

>  <smiles>  (213) 
[H]C1=C(OC([H])([H])[H])C([H])([H])C([H])([H])C2(OC([H])([H])[H])C([H])(C([H])([H])c3c([H])c([H])c(OC([H])([H])[H])c([H])c3[H])N(C([H])([H])[H])C([H])([H])C3([H])C([H])(C([H])([H])C([H])([H])[H])C([H])([H])[N+]([H])(C([H])([H])C([H])([H])C([H])([H])[H])C132

$$$$
68:1:2
     RDKit          3D

 75 78  0  0  1  0  0  0  0  0999 V2000
    0.9304  -11.7563    4.0884 C   0  0  0  0  0  0  0  0  0  0  0  0
    2.3658  -11.4297    3.5560 C   0  0  0  0  0  0  0  0  0  0  0  0
    2.5742   -9.9812    3.0491 C   0  0  0  0  0  0  0  0  0  0  0  0
    2.4995   -8.9350    4.1430 N   0  0  2  0  0  0  0  0  0  0  0  0
    1.2378   -8.8915    4.9270 C   0  0  0  0  0  0  0  0  0  0  0  0
    1.0546   -7.4868    5.4846 C   0  0  1  0  0  0  0  0  0  0  0  0
    0.6099   -7.5290    6.9687 C   0  0  0  0  0  0  0  0  0  0  0  0
    0.0477   -6.1980    7.5078 C   0  0  0  0  0  0  0  0  0  0  0  0
    2.4211   -6.8298    5.2097 C   0  0  2  0  0  0  0  0  0  0  0  0
    2.3790   -5.3058    5.1552 C   0  0  0  0  0  0  0  0  0  0  0  0
    1.6095   -4.8789    3.9897 N   0  0  0  0  0  0  0  0  0  0  0  0
    1.1891   -3.4903    4.1337 C   0  0  0  0  0  0  0  0  0  0  0  0
    2.2840   -5.2350    2.7213 C   0  0  1  0  0  0  0  0  0  0  0  0
    3.5949   -4.3853    2.5083 C   0  0  0  0  0  0  0  0  0  0  0  0
    3.6479   -3.5363    1.2254 C   0  0  0  0  0  0  0  0  0  0  0  0
    3.2833   -4.0968   -0.0281 C   0  0  0  0  0  0  0  0  0  0  0  0
    3.3950   -3.3168   -1.1972 C   0  0  0  0  0  0  0  0  0  0  0  0
    3.8467   -1.9798   -1.1627 C   0  0  0  0  0  0  0  0  0  0  0  0
    3.9579   -1.1712   -2.2850 O   0  0  0  0  0  0  0  0  0  0  0  0
    3.4815   -1.7083   -3.5183 C   0  0  0  0  0  0  0  0  0  0  0  0
    4.2032   -1.4304    0.0894 C   0  0  0  0  0  0  0  0  0  0  0  0
    4.1145   -2.1989    1.2827 C   0  0  0  0  0  0  0  0  0  0  0  0
    2.3840   -6.8310    2.5897 C   0  0  1  0  0  0  0  0  0  0  0  0
    1.0210   -7.3010    2.5141 O   0  0  0  0  0  0  0  0  0  0  0  0
    0.3031   -7.2600    1.2833 C   0  0  0  0  0  0  0  0  0  0  0  0
    3.1668   -7.3555    1.3416 C   0  0  0  0  0  0  0  0  0  0  0  0
    4.7184   -7.3432    1.4277 C   0  0  0  0  0  0  0  0  0  0  0  0
    5.2556   -7.5263    2.8452 C   0  0  0  0  0  0  0  0  0  0  0  0
    6.6284   -7.6645    2.8875 O   0  0  0  0  0  0  0  0  0  0  0  0
    7.1835   -8.0760    4.1287 C   0  0  0  0  0  0  0  0  0  0  0  0
    4.4653   -7.5839    3.9218 C   0  0  0  0  0  0  0  0  0  0  0  0
    2.9488   -7.5096    3.9133 C   0  0  2  0  0  0  0  0  0  0  0  0
    0.8697  -12.8375    4.3203 H   0  0  0  0  0  0  0  0  0  0  0  0
    0.2204  -11.5527    3.2530 H   0  0  0  0  0  0  0  0  0  0  0  0
    0.6816  -11.2449    4.9811 H   0  0  0  0  0  0  0  0  0  0  0  0
    3.1241  -11.6642    4.3049 H   0  0  0  0  0  0  0  0  0  0  0  0
    2.6244  -12.0672    2.7068 H   0  0  0  0  0  0  0  0  0  0  0  0
    3.5626   -9.9047    2.5936 H   0  0  0  0  0  0  0  0  0  0  0  0
    1.8486   -9.7636    2.2695 H   0  0  0  0  0  0  0  0  0  0  0  0
    0.3925   -9.1330    4.2946 H   0  0  0  0  0  0  0  0  0  0  0  0
    1.3050   -9.6331    5.7039 H   0  0  0  0  0  0  0  0  0  0  0  0
    0.2682   -7.0018    4.8921 H   0  0  0  0  0  0  0  0  0  0  0  0
   -0.1637   -8.2954    7.0785 H   0  0  0  0  0  0  0  0  0  0  0  0
    1.4312   -7.8816    7.5997 H   0  0  0  0  0  0  0  0  0  0  0  0
   -0.2854   -6.3134    8.5491 H   0  0  0  0  0  0  0  0  0  0  0  0
   -0.8063   -5.8718    6.8951 H   0  0  0  0  0  0  0  0  0  0  0  0
    0.8095   -5.4168    7.4991 H   0  0  0  0  0  0  0  0  0  0  0  0
    3.0590   -7.1388    6.0386 H   0  0  0  0  0  0  0  0  0  0  0  0
    1.9238   -4.9184    6.0719 H   0  0  0  0  0  0  0  0  0  0  0  0
    3.4116   -4.9269    5.1196 H   0  0  0  0  0  0  0  0  0  0  0  0
    0.6488   -3.1424    3.2568 H   0  0  0  0  0  0  0  0  0  0  0  0
    2.0345   -2.8264    4.3130 H   0  0  0  0  0  0  0  0  0  0  0  0
    0.5207   -3.3828    4.9904 H   0  0  0  0  0  0  0  0  0  0  0  0
    1.6002   -4.9091    1.9403 H   0  0  0  0  0  0  0  0  0  0  0  0
    3.7659   -3.7278    3.3673 H   0  0  0  0  0  0  0  0  0  0  0  0
    4.4731   -5.0207    2.5472 H   0  0  0  0  0  0  0  0  0  0  0  0
    2.9258   -5.1043   -0.1544 H   0  0  0  0  0  0  0  0  0  0  0  0
    3.1125   -3.8096   -2.1201 H   0  0  0  0  0  0  0  0  0  0  0  0
    3.6260   -0.9547   -4.2893 H   0  0  0  0  0  0  0  0  0  0  0  0
    2.4142   -1.9500   -3.4785 H   0  0  0  0  0  0  0  0  0  0  0  0
    4.0385   -2.6013   -3.8182 H   0  0  0  0  0  0  0  0  0  0  0  0
    4.5408   -0.4114    0.1308 H   0  0  0  0  0  0  0  0  0  0  0  0
    4.4055   -1.7569    2.2294 H   0  0  0  0  0  0  0  0  0  0  0  0
   -0.6721   -7.7177    1.4448 H   0  0  0  0  0  0  0  0  0  0  0  0
    0.7687   -7.8363    0.4853 H   0  0  0  0  0  0  0  0  0  0  0  0
    0.1446   -6.2421    0.9359 H   0  0  0  0  0  0  0  0  0  0  0  0
    2.8841   -8.3915    1.1176 H   0  0  0  0  0  0  0  0  0  0  0  0
    2.8372   -6.8164    0.4840 H   0  0  0  0  0  0  0  0  0  0  0  0
    5.0771   -8.1679    0.8242 H   0  0  0  0  0  0  0  0  0  0  0  0
    5.1479   -6.4390    0.9810 H   0  0  0  0  0  0  0  0  0  0  0  0
    8.2442   -8.3122    4.0238 H   0  0  0  0  0  0  0  0  0  0  0  0
    6.6972   -8.9758    4.4935 H   0  0  0  0  0  0  0  0  0  0  0  0
    7.0852   -7.3022    4.8852 H   0  0  0  0  0  0  0  0  0  0  0  0
    4.8351   -7.6858    4.9374 H   0  0  0  0  0  0  0  0  0  0  0  0
    3.1617   -9.2827    4.8275 H   0  0  0  0  0  0  0  0  0  0  0  0
  1  2  1  0
  1 33  1  0
  1 34  1  0
  1 35  1  0
  2  3  1  0
  2 36  1  0
  2 37  1  0
  3  4  1  0
  3 38  1  0
  3 39  1  0
  4 32  1  0
  4  5  1  0
  4 75  1  1
  5  6  1  0
  5 40  1  0
  5 41  1  0
  6  7  1  0
  6  9  1  0
  6 42  1  6
  7  8  1  0
  7 43  1  0
  7 44  1  0
  8 45  1  0
  8 46  1  0
  8 47  1  0
  9 32  1  0
  9 10  1  0
  9 48  1  1
 10 11  1  0
 10 49  1  0
 10 50  1  0
 11 12  1  0
 11 13  1  0
 12 51  1  0
 12 52  1  0
 12 53  1  0
 13 14  1  0
 13 23  1  0
 13 54  1  6
 14 15  1  0
 14 55  1  0
 14 56  1  0
 15 22  1  0
 15 16  2  0
 16 17  1  0
 16 57  1  0
 17 18  2  0
 17 58  1  0
 18 19  1  0
 18 21  1  0
 19 20  1  0
 20 59  1  0
 20 60  1  0
 20 61  1  0
 21 22  2  0
 21 62  1  0
 22 63  1  0
 23 32  1  0
 23 24  1  6
 23 26  1  0
 24 25  1  0
 25 64  1  0
 25 65  1  0
 25 66  1  0
 26 27  1  0
 26 67  1  0
 26 68  1  0
 27 28  1  0
 27 69  1  0
 27 70  1  0
 28 29  1  0
 28 31  2  0
 29 30  1  0
 30 71  1  0
 30 72  1  0
 30 73  1  0
 32 31  1  6
 31 74  1  0
M  CHG  1   4   1
M  END
>  <i_m_ct_stereo_status>  (214) 
1

>  <s_m_source_file>  (214) 
/var/tmp/pbs.5076255.sched01/tmpln0nb48r/86bqtw16pk.sdf

>  <i_m_source_file_index>  (214) 
20

>  <i_lp_mmshare_version>  (214) 
48012

>  <i_f3d_flags>  (214) 
0

>  <s_epik_input>  (214) 
W0NIM11bQ0gyXVtDSDJdTjFbQ0gyXVtDQEBIXShbQ0gyXVtDSDNdKVtDQEBIXShbQ0BAXTEyMylbQ0gyXU4oW0NIM10pW0NASF0oW0NAQF0yKE9bQ0gzXSlbQ0gyXVtDSDJdQyg9W0NIXTMpT1tDSDNdKVtDSDJdYzRbY0hdW2NIXWMoT1tDSDNdKVtjSF1bY0hdNA==

>  <s_epik_cmdline>  (214) 
J2VwaWtfcHl0aG9uJywgJy1waHQnLCAnMi4wJywgJy1waCcsICc3LjAnLCAnLXRuJywgJzgnLCAnLW1hJywgJzIwMCcsICctaW1hZScsICc8aW5maWxlLm1hZT4nLCAnLW9tYWUnLCAnPG91dGZpbGUubWFlPic=

>  <r_epik_Ionization_Penalty>  (214) 
0.406755

>  <r_epik_Ionization_Penalty_Charging>  (214) 
0.382579

>  <r_epik_Ionization_Penalty_Neutral>  (214) 
0.0241762

>  <r_epik_State_Penalty>  (214) 
1.25153

>  <r_epik_Charging_Adjusted_Penalty>  (214) 
1.63411

>  <i_epik_Tot_Q>  (214) 
1

>  <i_epik_Tot_abs_Q>  (214) 
1

>  <s_lp_Force_Field>  (214) 
OPLS3e

>  <r_lp_Energy>  (214) 
62.1862

>  <b_lp_Chiralities_Consistent>  (214) 
1

>  <s_lp_Variant>  (214) 
68:0-2

>  <s_i_glide_gridfile>  (214) 
pfpi4k_grid

>  <i_i_glide_lignum>  (214) 
20

>  <i_i_glide_rotatable_bonds>  (214) 
8

>  <r_i_docking_score>  (214) 
-2.26421

>  <r_i_glide_ligand_efficiency>  (214) 
-0.0707566

>  <r_i_glide_ligand_efficiency_sa>  (214) 
-0.224638

>  <r_i_glide_ligand_efficiency_ln>  (214) 
-0.507018

>  <r_i_glide_gscore>  (214) 
-2.26421

>  <r_i_glide_lipo>  (214) 
-0.498379

>  <r_i_glide_hbond>  (214) 
0

>  <r_i_glide_metal>  (214) 
-0

>  <r_i_glide_rewards>  (214) 
-0.38426

>  <r_i_glide_evdw>  (214) 
-27.5768

>  <r_i_glide_ecoul>  (214) 
-2.00503

>  <r_i_glide_erotb>  (214) 
0.304749

>  <r_i_glide_esite>  (214) 
-0.00672509

>  <r_i_glide_emodel>  (214) 
-28.2217

>  <r_i_glide_energy>  (214) 
-29.5819

>  <r_i_glide_einternal>  (214) 
6.85988

>  <r_i_glide_intrahb_reward>  (214) 
-0

>  <i_i_glide_confnum>  (214) 
4

>  <i_i_glide_posenum>  (214) 
2

>  <r_i_glide_eff_state_penalty>  (214) 
0

>  <ligand_id>  (214) 
68

>  <original_smiles>  (214) 
CCCN1CC(CC)C2CN(C)C(Cc3ccc(OC)cc3)C3(OC)CCC(OC)=CC213

>  <smiles>  (214) 
[H]C1=C(OC([H])([H])[H])C([H])([H])C([H])([H])C2(OC([H])([H])[H])C([H])(C([H])([H])c3c([H])c([H])c(OC([H])([H])[H])c([H])c3[H])N(C([H])([H])[H])C([H])([H])C3([H])C([H])(C([H])([H])C([H])([H])[H])C([H])([H])[N+]([H])(C([H])([H])C([H])([H])C([H])([H])[H])C132

$$$$
68:2:0
     RDKit          3D

 74 77  0  0  1  0  0  0  0  0999 V2000
    0.9594  -10.2450    3.9471 C   0  0  0  0  0  0  0  0  0  0  0  0
    1.8579   -9.8676    5.1325 C   0  0  0  0  0  0  0  0  0  0  0  0
    2.8368   -8.7358    4.7700 C   0  0  0  0  0  0  0  0  0  0  0  0
    2.1843   -7.4365    4.5477 N   0  0  0  0  0  0  0  0  0  0  0  0
    1.4913   -6.9364    5.7224 C   0  0  0  0  0  0  0  0  0  0  0  0
    1.3398   -5.4313    5.5441 C   0  0  1  0  0  0  0  0  0  0  0  0
    1.0060   -4.6571    6.8399 C   0  0  0  0  0  0  0  0  0  0  0  0
    2.0656   -4.7206    7.9578 C   0  0  0  0  0  0  0  0  0  0  0  0
    2.6681   -5.0977    4.8799 C   0  0  2  0  0  0  0  0  0  0  0  0
    2.7378   -3.7200    4.2333 C   0  0  0  0  0  0  0  0  0  0  0  0
    2.0433   -3.6552    2.9580 N   0  0  0  0  0  0  0  0  0  0  0  0
    1.8231   -2.2788    2.5490 C   0  0  0  0  0  0  0  0  0  0  0  0
    2.6493   -4.5587    1.9506 C   0  0  1  0  0  0  0  0  0  0  0  0
    4.0613   -4.0853    1.4531 C   0  0  0  0  0  0  0  0  0  0  0  0
    4.1470   -3.4718    0.0383 C   0  0  0  0  0  0  0  0  0  0  0  0
    5.0058   -4.0518   -0.9266 C   0  0  0  0  0  0  0  0  0  0  0  0
    5.1603   -3.4704   -2.2060 C   0  0  0  0  0  0  0  0  0  0  0  0
    4.4366   -2.3198   -2.5623 C   0  0  0  0  0  0  0  0  0  0  0  0
    4.6050   -1.8068   -3.8336 O   0  0  0  0  0  0  0  0  0  0  0  0
    3.8096   -0.6933   -4.2166 C   0  0  0  0  0  0  0  0  0  0  0  0
    3.5782   -1.7417   -1.5994 C   0  0  0  0  0  0  0  0  0  0  0  0
    3.4466   -2.3051   -0.3188 C   0  0  0  0  0  0  0  0  0  0  0  0
    2.4932   -6.0599    2.4549 C   0  0  1  0  0  0  0  0  0  0  0  0
    1.0588   -6.2362    2.5293 O   0  0  0  0  0  0  0  0  0  0  0  0
    0.3259   -6.7826    1.4401 C   0  0  0  0  0  0  0  0  0  0  0  0
    3.1169   -7.1680    1.5360 C   0  0  0  0  0  0  0  0  0  0  0  0
    4.6441   -7.4013    1.6284 C   0  0  0  0  0  0  0  0  0  0  0  0
    5.2150   -7.0606    2.9918 C   0  0  0  0  0  0  0  0  0  0  0  0
    6.5502   -7.3653    3.0860 O   0  0  0  0  0  0  0  0  0  0  0  0
    7.1440   -7.3307    4.3845 C   0  0  0  0  0  0  0  0  0  0  0  0
    4.4680   -6.5931    4.0106 C   0  0  0  0  0  0  0  0  0  0  0  0
    2.9669   -6.3132    3.9492 C   0  0  2  0  0  0  0  0  0  0  0  0
    0.2633  -11.0344    4.2295 H   0  0  0  0  0  0  0  0  0  0  0  0
    1.5500  -10.5961    3.0994 H   0  0  0  0  0  0  0  0  0  0  0  0
    0.3694   -9.3912    3.6111 H   0  0  0  0  0  0  0  0  0  0  0  0
    1.2382   -9.5924    5.9881 H   0  0  0  0  0  0  0  0  0  0  0  0
    2.4191  -10.7491    5.4550 H   0  0  0  0  0  0  0  0  0  0  0  0
    3.5827   -8.6480    5.5619 H   0  0  0  0  0  0  0  0  0  0  0  0
    3.3826   -9.0369    3.8740 H   0  0  0  0  0  0  0  0  0  0  0  0
    0.5114   -7.4028    5.8259 H   0  0  0  0  0  0  0  0  0  0  0  0
    2.0809   -7.1644    6.6119 H   0  0  0  0  0  0  0  0  0  0  0  0
    0.5355   -5.2547    4.8265 H   0  0  0  0  0  0  0  0  0  0  0  0
    0.8144   -3.6119    6.5898 H   0  0  0  0  0  0  0  0  0  0  0  0
    0.0572   -5.0370    7.2242 H   0  0  0  0  0  0  0  0  0  0  0  0
    1.7358   -4.1735    8.8408 H   0  0  0  0  0  0  0  0  0  0  0  0
    3.0061   -4.2766    7.6388 H   0  0  0  0  0  0  0  0  0  0  0  0
    2.2633   -5.7455    8.2649 H   0  0  0  0  0  0  0  0  0  0  0  0
    3.4175   -5.0822    5.6685 H   0  0  0  0  0  0  0  0  0  0  0  0
    2.3409   -2.9784    4.9267 H   0  0  0  0  0  0  0  0  0  0  0  0
    3.7815   -3.4416    4.1096 H   0  0  0  0  0  0  0  0  0  0  0  0
    1.2957   -2.2308    1.6003 H   0  0  0  0  0  0  0  0  0  0  0  0
    2.7748   -1.7647    2.4504 H   0  0  0  0  0  0  0  0  0  0  0  0
    1.2365   -1.7307    3.2902 H   0  0  0  0  0  0  0  0  0  0  0  0
    2.0210   -4.5305    1.0674 H   0  0  0  0  0  0  0  0  0  0  0  0
    4.5033   -3.3651    2.1414 H   0  0  0  0  0  0  0  0  0  0  0  0
    4.7597   -4.9034    1.4833 H   0  0  0  0  0  0  0  0  0  0  0  0
    5.5809   -4.9342   -0.6847 H   0  0  0  0  0  0  0  0  0  0  0  0
    5.8539   -3.9046   -2.9183 H   0  0  0  0  0  0  0  0  0  0  0  0
    4.0636   -0.4108   -5.2350 H   0  0  0  0  0  0  0  0  0  0  0  0
    3.9804    0.1787   -3.5870 H   0  0  0  0  0  0  0  0  0  0  0  0
    2.7508   -0.9421   -4.1988 H   0  0  0  0  0  0  0  0  0  0  0  0
    3.0189   -0.8459   -1.8079 H   0  0  0  0  0  0  0  0  0  0  0  0
    2.7996   -1.7711    0.3604 H   0  0  0  0  0  0  0  0  0  0  0  0
   -0.7379   -6.7313    1.6778 H   0  0  0  0  0  0  0  0  0  0  0  0
    0.5534   -7.8369    1.2747 H   0  0  0  0  0  0  0  0  0  0  0  0
    0.5012   -6.2267    0.5197 H   0  0  0  0  0  0  0  0  0  0  0  0
    2.6733   -8.1252    1.8278 H   0  0  0  0  0  0  0  0  0  0  0  0
    2.8411   -7.0081    0.4941 H   0  0  0  0  0  0  0  0  0  0  0  0
    4.8594   -8.4516    1.4151 H   0  0  0  0  0  0  0  0  0  0  0  0
    5.1674   -6.8471    0.8493 H   0  0  0  0  0  0  0  0  0  0  0  0
    8.1623   -7.7309    4.3681 H   0  0  0  0  0  0  0  0  0  0  0  0
    6.5732   -7.9469    5.0842 H   0  0  0  0  0  0  0  0  0  0  0  0
    7.1983   -6.3067    4.7633 H   0  0  0  0  0  0  0  0  0  0  0  0
    4.9227   -6.3913    4.9665 H   0  0  0  0  0  0  0  0  0  0  0  0
  1  2  1  0
  1 33  1  0
  1 34  1  0
  1 35  1  0
  2  3  1  0
  2 36  1  0
  2 37  1  0
  3  4  1  0
  3 38  1  0
  3 39  1  0
 32  4  1  1
  4  5  1  0
  5  6  1  0
  5 40  1  0
  5 41  1  0
  6  7  1  0
  6  9  1  0
  6 42  1  6
  7  8  1  0
  7 43  1  0
  7 44  1  0
  8 45  1  0
  8 46  1  0
  8 47  1  0
  9 32  1  0
  9 10  1  0
  9 48  1  1
 10 11  1  0
 10 49  1  0
 10 50  1  0
 11 12  1  0
 11 13  1  0
 12 51  1  0
 12 52  1  0
 12 53  1  0
 13 14  1  0
 13 23  1  0
 13 54  1  6
 14 15  1  0
 14 55  1  0
 14 56  1  0
 15 22  1  0
 15 16  2  0
 16 17  1  0
 16 57  1  0
 17 18  2  0
 17 58  1  0
 18 19  1  0
 18 21  1  0
 19 20  1  0
 20 59  1  0
 20 60  1  0
 20 61  1  0
 21 22  2  0
 21 62  1  0
 22 63  1  0
 23 32  1  0
 23 24  1  1
 23 26  1  0
 24 25  1  0
 25 64  1  0
 25 65  1  0
 25 66  1  0
 26 27  1  0
 26 67  1  0
 26 68  1  0
 27 28  1  0
 27 69  1  0
 27 70  1  0
 28 29  1  0
 28 31  2  0
 29 30  1  0
 30 71  1  0
 30 72  1  0
 30 73  1  0
 31 32  1  0
 31 74  1  0
M  END
>  <i_m_ct_stereo_status>  (215) 
1

>  <s_m_source_file>  (215) 
/var/tmp/pbs.5076255.sched01/tmpln0nb48r/86bqtw16pk.sdf

>  <i_m_source_file_index>  (215) 
21

>  <i_lp_mmshare_version>  (215) 
48012

>  <i_f3d_flags>  (215) 
0

>  <s_epik_input>  (215) 
W0NIM11bQ0gyXVtDSDJdTjFbQ0gyXVtDQEBIXShbQ0gyXVtDSDNdKVtDQEBIXShbQ0BAXTEyMylbQ0gyXU4oW0NIM10pW0NASF0oW0NAQF0yKE9bQ0gzXSlbQ0gyXVtDSDJdQyg9W0NIXTMpT1tDSDNdKVtDSDJdYzRbY0hdW2NIXWMoT1tDSDNdKVtjSF1bY0hdNA==

>  <s_epik_cmdline>  (215) 
J2VwaWtfcHl0aG9uJywgJy1waHQnLCAnMi4wJywgJy1waCcsICc3LjAnLCAnLXRuJywgJzgnLCAnLW1hJywgJzIwMCcsICctaW1hZScsICc8aW5maWxlLm1hZT4nLCAnLW9tYWUnLCAnPG91dGZpbGUubWFlPic=

>  <r_lp_tautomer_probability>  (215) 
1

>  <r_epik_Ionization_Penalty>  (215) 
1.87934

>  <r_epik_Ionization_Penalty_Charging>  (215) 
0

>  <r_epik_Ionization_Penalty_Neutral>  (215) 
1.87934

>  <r_epik_State_Penalty>  (215) 
1.46522

>  <r_epik_Charging_Adjusted_Penalty>  (215) 
1.46522

>  <i_epik_Tot_Q>  (215) 
0

>  <i_epik_Tot_abs_Q>  (215) 
0

>  <s_lp_Force_Field>  (215) 
OPLS3e

>  <r_lp_Energy>  (215) 
60.6434

>  <b_lp_Chiralities_Consistent>  (215) 
1

>  <s_lp_Variant>  (215) 
68:0-3

>  <s_i_glide_gridfile>  (215) 
pfpi4k_grid

>  <i_i_glide_lignum>  (215) 
21

>  <i_i_glide_rotatable_bonds>  (215) 
8

>  <r_i_docking_score>  (215) 
-2.05626

>  <r_i_glide_ligand_efficiency>  (215) 
-0.0642582

>  <r_i_glide_ligand_efficiency_sa>  (215) 
-0.204007

>  <r_i_glide_ligand_efficiency_ln>  (215) 
-0.460454

>  <r_i_glide_gscore>  (215) 
-2.05626

>  <r_i_glide_lipo>  (215) 
-0.615043

>  <r_i_glide_hbond>  (215) 
-0.0125635

>  <r_i_glide_metal>  (215) 
-0

>  <r_i_glide_rewards>  (215) 
-0.391132

>  <r_i_glide_evdw>  (215) 
-26.7539

>  <r_i_glide_ecoul>  (215) 
-0.0389325

>  <r_i_glide_erotb>  (215) 
0.30601

>  <r_i_glide_esite>  (215) 
0

>  <r_i_glide_emodel>  (215) 
-25.2414

>  <r_i_glide_energy>  (215) 
-26.7928

>  <r_i_glide_einternal>  (215) 
8.97902

>  <r_i_glide_intrahb_reward>  (215) 
-0

>  <i_i_glide_confnum>  (215) 
3

>  <i_i_glide_posenum>  (215) 
19

>  <r_i_glide_eff_state_penalty>  (215) 
0

>  <ligand_id>  (215) 
68

>  <original_smiles>  (215) 
CCCN1CC(CC)C2CN(C)C(Cc3ccc(OC)cc3)C3(OC)CCC(OC)=CC213

>  <smiles>  (215) 
[H]C1=C(OC([H])([H])[H])C([H])([H])C([H])([H])C2(OC([H])([H])[H])C([H])(C([H])([H])c3c([H])c([H])c(OC([H])([H])[H])c([H])c3[H])N(C([H])([H])[H])C([H])([H])C3([H])C12N(C([H])([H])C([H])([H])C([H])([H])[H])C([H])([H])C3([H])C([H])([H])C([H])([H])[H]

$$$$
68:2:1
     RDKit          3D

 74 77  0  0  1  0  0  0  0  0999 V2000
    0.6176   -9.9300    3.7775 C   0  0  0  0  0  0  0  0  0  0  0  0
    1.2806   -9.5162    5.0993 C   0  0  0  0  0  0  0  0  0  0  0  0
    2.3879   -8.4668    4.8771 C   0  0  0  0  0  0  0  0  0  0  0  0
    1.8868   -7.1189    4.5551 N   0  0  0  0  0  0  0  0  0  0  0  0
    1.2044   -6.4525    5.6572 C   0  0  0  0  0  0  0  0  0  0  0  0
    1.1850   -4.9502    5.3462 C   0  0  1  0  0  0  0  0  0  0  0  0
    0.8993   -4.0697    6.5812 C   0  0  0  0  0  0  0  0  0  0  0  0
    0.4302   -2.6318    6.2607 C   0  0  0  0  0  0  0  0  0  0  0  0
    2.5864   -4.8170    4.7326 C   0  0  2  0  0  0  0  0  0  0  0  0
    2.8734   -3.5112    3.9766 C   0  0  0  0  0  0  0  0  0  0  0  0
    2.2109   -3.4818    2.6762 N   0  0  0  0  0  0  0  0  0  0  0  0
    2.1484   -2.1367    2.1384 C   0  0  0  0  0  0  0  0  0  0  0  0
    2.7196   -4.5469    1.7824 C   0  0  1  0  0  0  0  0  0  0  0  0
    4.1868   -4.2532    1.2810 C   0  0  0  0  0  0  0  0  0  0  0  0
    4.2910   -3.5519   -0.0773 C   0  0  0  0  0  0  0  0  0  0  0  0
    3.1463   -3.1031   -0.7586 C   0  0  0  0  0  0  0  0  0  0  0  0
    3.2492   -2.4273   -1.9785 C   0  0  0  0  0  0  0  0  0  0  0  0
    4.5006   -2.2123   -2.5925 C   0  0  0  0  0  0  0  0  0  0  0  0
    4.6129   -1.5525   -3.8011 O   0  0  0  0  0  0  0  0  0  0  0  0
    3.4439   -0.9614   -4.3342 C   0  0  0  0  0  0  0  0  0  0  0  0
    5.6617   -2.7034   -1.9476 C   0  0  0  0  0  0  0  0  0  0  0  0
    5.5566   -3.3577   -0.6908 C   0  0  0  0  0  0  0  0  0  0  0  0
    2.3921   -5.9622    2.4067 C   0  0  1  0  0  0  0  0  0  0  0  0
    0.9406   -5.9891    2.4081 O   0  0  0  0  0  0  0  0  0  0  0  0
    0.1927   -6.6480    1.3875 C   0  0  0  0  0  0  0  0  0  0  0  0
    2.9393   -7.1798    1.5725 C   0  0  0  0  0  0  0  0  0  0  0  0
    4.4291   -7.5522    1.7297 C   0  0  0  0  0  0  0  0  0  0  0  0
    4.9839   -7.1645    3.0851 C   0  0  0  0  0  0  0  0  0  0  0  0
    6.2860   -7.5843    3.2348 O   0  0  0  0  0  0  0  0  0  0  0  0
    6.8374   -7.5232    4.5495 C   0  0  0  0  0  0  0  0  0  0  0  0
    4.2458   -6.5481    4.0536 C   0  0  0  0  0  0  0  0  0  0  0  0
    2.7950   -6.1342    3.9176 C   0  0  2  0  0  0  0  0  0  0  0  0
   -0.1699  -10.6592    3.9572 H   0  0  0  0  0  0  0  0  0  0  0  0
    1.3424  -10.3716    3.0896 H   0  0  0  0  0  0  0  0  0  0  0  0
    0.1646   -9.0717    3.2833 H   0  0  0  0  0  0  0  0  0  0  0  0
    0.5208   -9.1313    5.7829 H   0  0  0  0  0  0  0  0  0  0  0  0
    1.7071  -10.3980    5.5861 H   0  0  0  0  0  0  0  0  0  0  0  0
    3.0275   -8.4203    5.7614 H   0  0  0  0  0  0  0  0  0  0  0  0
    3.0204   -8.8405    4.0702 H   0  0  0  0  0  0  0  0  0  0  0  0
    0.1872   -6.8344    5.7722 H   0  0  0  0  0  0  0  0  0  0  0  0
    1.7521   -6.6393    6.5885 H   0  0  0  0  0  0  0  0  0  0  0  0
    0.4263   -4.7891    4.5792 H   0  0  0  0  0  0  0  0  0  0  0  0
    0.1184   -4.5494    7.1476 H   0  0  0  0  0  0  0  0  0  0  0  0
    1.7588   -4.0466    7.2422 H   0  0  0  0  0  0  0  0  0  0  0  0
    0.1631   -2.1042    7.1864 H   0  0  0  0  0  0  0  0  0  0  0  0
   -0.4831   -2.6591    5.6527 H   0  0  0  0  0  0  0  0  0  0  0  0
    1.1601   -2.0243    5.7345 H   0  0  0  0  0  0  0  0  0  0  0  0
    3.2639   -4.8116    5.5897 H   0  0  0  0  0  0  0  0  0  0  0  0
    2.6283   -2.6326    4.5698 H   0  0  0  0  0  0  0  0  0  0  0  0
    3.9627   -3.4509    3.8324 H   0  0  0  0  0  0  0  0  0  0  0  0
    1.6252   -2.0839    1.1920 H   0  0  0  0  0  0  0  0  0  0  0  0
    3.1477   -1.7183    2.0218 H   0  0  0  0  0  0  0  0  0  0  0  0
    1.5996   -1.4722    2.8161 H   0  0  0  0  0  0  0  0  0  0  0  0
    2.0997   -4.6175    0.9000 H   0  0  0  0  0  0  0  0  0  0  0  0
    4.7451   -3.6491    1.9909 H   0  0  0  0  0  0  0  0  0  0  0  0
    4.7999   -5.1320    1.1842 H   0  0  0  0  0  0  0  0  0  0  0  0
    2.1416   -3.2318   -0.4066 H   0  0  0  0  0  0  0  0  0  0  0  0
    2.3280   -2.0729   -2.3903 H   0  0  0  0  0  0  0  0  0  0  0  0
    3.6302   -0.4535   -5.2889 H   0  0  0  0  0  0  0  0  0  0  0  0
    3.0296   -0.2081   -3.6373 H   0  0  0  0  0  0  0  0  0  0  0  0
    2.6692   -1.7292   -4.5188 H   0  0  0  0  0  0  0  0  0  0  0  0
    6.6455   -2.5689   -2.3912 H   0  0  0  0  0  0  0  0  0  0  0  0
    6.4389   -3.7340   -0.1839 H   0  0  0  0  0  0  0  0  0  0  0  0
   -0.8691   -6.4728    1.5580 H   0  0  0  0  0  0  0  0  0  0  0  0
    0.3216   -7.7286    1.4055 H   0  0  0  0  0  0  0  0  0  0  0  0
    0.4422   -6.2710    0.3965 H   0  0  0  0  0  0  0  0  0  0  0  0
    2.3987   -8.0815    1.8782 H   0  0  0  0  0  0  0  0  0  0  0  0
    2.7178   -7.0071    0.5175 H   0  0  0  0  0  0  0  0  0  0  0  0
    4.5280   -8.6353    1.6093 H   0  0  0  0  0  0  0  0  0  0  0  0
    5.0306   -7.1417    0.9133 H   0  0  0  0  0  0  0  0  0  0  0  0
    7.8074   -8.0181    4.6010 H   0  0  0  0  0  0  0  0  0  0  0  0
    6.1798   -8.0315    5.2653 H   0  0  0  0  0  0  0  0  0  0  0  0
    6.9717   -6.4816    4.8604 H   0  0  0  0  0  0  0  0  0  0  0  0
    4.6859   -6.3096    5.0064 H   0  0  0  0  0  0  0  0  0  0  0  0
  1  2  1  0
  1 33  1  0
  1 34  1  0
  1 35  1  0
  2  3  1  0
  2 36  1  0
  2 37  1  0
  3  4  1  0
  3 38  1  0
  3 39  1  0
 32  4  1  1
  4  5  1  0
  5  6  1  0
  5 40  1  0
  5 41  1  0
  6  7  1  0
  6  9  1  0
  6 42  1  6
  7  8  1  0
  7 43  1  0
  7 44  1  0
  8 45  1  0
  8 46  1  0
  8 47  1  0
  9 32  1  0
  9 10  1  0
  9 48  1  1
 10 11  1  0
 10 49  1  0
 10 50  1  0
 11 12  1  0
 11 13  1  0
 12 51  1  0
 12 52  1  0
 12 53  1  0
 13 14  1  0
 13 23  1  0
 13 54  1  6
 14 15  1  0
 14 55  1  0
 14 56  1  0
 15 22  1  0
 15 16  2  0
 16 17  1  0
 16 57  1  0
 17 18  2  0
 17 58  1  0
 18 19  1  0
 18 21  1  0
 19 20  1  0
 20 59  1  0
 20 60  1  0
 20 61  1  0
 21 22  2  0
 21 62  1  0
 22 63  1  0
 23 32  1  0
 23 24  1  1
 23 26  1  0
 24 25  1  0
 25 64  1  0
 25 65  1  0
 25 66  1  0
 26 27  1  0
 26 67  1  0
 26 68  1  0
 27 28  1  0
 27 69  1  0
 27 70  1  0
 28 29  1  0
 28 31  2  0
 29 30  1  0
 30 71  1  0
 30 72  1  0
 30 73  1  0
 31 32  1  0
 31 74  1  0
M  END
>  <i_m_ct_stereo_status>  (216) 
1

>  <s_m_source_file>  (216) 
/var/tmp/pbs.5076255.sched01/tmpln0nb48r/86bqtw16pk.sdf

>  <i_m_source_file_index>  (216) 
21

>  <i_lp_mmshare_version>  (216) 
48012

>  <i_f3d_flags>  (216) 
0

>  <s_epik_input>  (216) 
W0NIM11bQ0gyXVtDSDJdTjFbQ0gyXVtDQEBIXShbQ0gyXVtDSDNdKVtDQEBIXShbQ0BAXTEyMylbQ0gyXU4oW0NIM10pW0NASF0oW0NAQF0yKE9bQ0gzXSlbQ0gyXVtDSDJdQyg9W0NIXTMpT1tDSDNdKVtDSDJdYzRbY0hdW2NIXWMoT1tDSDNdKVtjSF1bY0hdNA==

>  <s_epik_cmdline>  (216) 
J2VwaWtfcHl0aG9uJywgJy1waHQnLCAnMi4wJywgJy1waCcsICc3LjAnLCAnLXRuJywgJzgnLCAnLW1hJywgJzIwMCcsICctaW1hZScsICc8aW5maWxlLm1hZT4nLCAnLW9tYWUnLCAnPG91dGZpbGUubWFlPic=

>  <r_lp_tautomer_probability>  (216) 
1

>  <r_epik_Ionization_Penalty>  (216) 
1.87934

>  <r_epik_Ionization_Penalty_Charging>  (216) 
0

>  <r_epik_Ionization_Penalty_Neutral>  (216) 
1.87934

>  <r_epik_State_Penalty>  (216) 
1.46522

>  <r_epik_Charging_Adjusted_Penalty>  (216) 
1.46522

>  <i_epik_Tot_Q>  (216) 
0

>  <i_epik_Tot_abs_Q>  (216) 
0

>  <s_lp_Force_Field>  (216) 
OPLS3e

>  <r_lp_Energy>  (216) 
60.6434

>  <b_lp_Chiralities_Consistent>  (216) 
1

>  <s_lp_Variant>  (216) 
68:0-3

>  <s_i_glide_gridfile>  (216) 
pfpi4k_grid

>  <i_i_glide_lignum>  (216) 
21

>  <i_i_glide_rotatable_bonds>  (216) 
8

>  <r_i_docking_score>  (216) 
-1.82811

>  <r_i_glide_ligand_efficiency>  (216) 
-0.0571283

>  <r_i_glide_ligand_efficiency_sa>  (216) 
-0.181371

>  <r_i_glide_ligand_efficiency_ln>  (216) 
-0.409363

>  <r_i_glide_gscore>  (216) 
-1.82811

>  <r_i_glide_lipo>  (216) 
-0.394213

>  <r_i_glide_hbond>  (216) 
-0.0164617

>  <r_i_glide_metal>  (216) 
-0

>  <r_i_glide_rewards>  (216) 
-0.391132

>  <r_i_glide_evdw>  (216) 
-27.5279

>  <r_i_glide_ecoul>  (216) 
0.293907

>  <r_i_glide_erotb>  (216) 
0.30601

>  <r_i_glide_esite>  (216) 
0

>  <r_i_glide_emodel>  (216) 
-22.234

>  <r_i_glide_energy>  (216) 
-27.234

>  <r_i_glide_einternal>  (216) 
13.7833

>  <r_i_glide_intrahb_reward>  (216) 
-0

>  <i_i_glide_confnum>  (216) 
2

>  <i_i_glide_posenum>  (216) 
1

>  <r_i_glide_eff_state_penalty>  (216) 
0

>  <ligand_id>  (216) 
68

>  <original_smiles>  (216) 
CCCN1CC(CC)C2CN(C)C(Cc3ccc(OC)cc3)C3(OC)CCC(OC)=CC213

>  <smiles>  (216) 
[H]C1=C(OC([H])([H])[H])C([H])([H])C([H])([H])C2(OC([H])([H])[H])C([H])(C([H])([H])c3c([H])c([H])c(OC([H])([H])[H])c([H])c3[H])N(C([H])([H])[H])C([H])([H])C3([H])C12N(C([H])([H])C([H])([H])C([H])([H])[H])C([H])([H])C3([H])C([H])([H])C([H])([H])[H]

$$$$
68:2:2
     RDKit          3D

 74 77  0  0  1  0  0  0  0  0999 V2000
   -3.4286    5.0066    2.1980 C   0  0  0  0  0  0  0  0  0  0  0  0
   -3.4583    3.5847    2.8152 C   0  0  0  0  0  0  0  0  0  0  0  0
   -2.6484    3.4016    4.1164 C   0  0  0  0  0  0  0  0  0  0  0  0
   -1.1998    3.3950    3.8999 N   0  0  0  0  0  0  0  0  0  0  0  0
   -0.5885    4.6557    3.5433 C   0  0  0  0  0  0  0  0  0  0  0  0
    0.8971    4.5633    3.7994 C   0  0  1  0  0  0  0  0  0  0  0  0
    1.5721    5.9395    3.8910 C   0  0  0  0  0  0  0  0  0  0  0  0
    3.0987    5.9110    3.6685 C   0  0  0  0  0  0  0  0  0  0  0  0
    0.8755    3.7067    5.0751 C   0  0  2  0  0  0  0  0  0  0  0  0
    2.2110    3.0858    5.4953 C   0  0  0  0  0  0  0  0  0  0  0  0
    2.5660    1.9681    4.6317 N   0  0  0  0  0  0  0  0  0  0  0  0
    3.9789    1.6292    4.7589 C   0  0  0  0  0  0  0  0  0  0  0  0
    1.6159    0.8396    4.7174 C   0  0  1  0  0  0  0  0  0  0  0  0
    1.7178    0.1078    6.0958 C   0  0  0  0  0  0  0  0  0  0  0  0
    1.2500   -1.3291    6.1968 C   0  0  0  0  0  0  0  0  0  0  0  0
    1.1889   -1.8941    7.4853 C   0  0  0  0  0  0  0  0  0  0  0  0
    0.6932   -3.1880    7.6819 C   0  0  0  0  0  0  0  0  0  0  0  0
    0.2122   -3.9441    6.5797 C   0  0  0  0  0  0  0  0  0  0  0  0
   -0.2983   -5.2144    6.7326 O   0  0  0  0  0  0  0  0  0  0  0  0
   -0.2236   -5.7999    8.0367 C   0  0  0  0  0  0  0  0  0  0  0  0
    0.2743   -3.3892    5.2866 C   0  0  0  0  0  0  0  0  0  0  0  0
    0.8481   -2.1047    5.0787 C   0  0  0  0  0  0  0  0  0  0  0  0
    0.1813    1.3197    4.2198 C   0  0  1  0  0  0  0  0  0  0  0  0
    0.3872    1.6400    2.8346 O   0  0  0  0  0  0  0  0  0  0  0  0
    0.4506    0.6209    1.8484 C   0  0  0  0  0  0  0  0  0  0  0  0
   -1.0192    0.2922    4.3088 C   0  0  0  0  0  0  0  0  0  0  0  0
   -1.6089    0.0938    5.7460 C   0  0  0  0  0  0  0  0  0  0  0  0
   -1.5551    1.3507    6.5928 C   0  0  0  0  0  0  0  0  0  0  0  0
   -2.2095    1.2099    7.7919 O   0  0  0  0  0  0  0  0  0  0  0  0
   -2.4792    2.3916    8.5449 C   0  0  0  0  0  0  0  0  0  0  0  0
   -0.9838    2.5030    6.1856 C   0  0  0  0  0  0  0  0  0  0  0  0
   -0.2868    2.7004    4.8575 C   0  0  2  0  0  0  0  0  0  0  0  0
   -4.1178    5.0383    1.3708 H   0  0  0  0  0  0  0  0  0  0  0  0
   -2.4222    5.3516    1.9038 H   0  0  0  0  0  0  0  0  0  0  0  0
   -3.8629    5.7621    2.8026 H   0  0  0  0  0  0  0  0  0  0  0  0
   -4.4992    3.3407    3.0137 H   0  0  0  0  0  0  0  0  0  0  0  0
   -3.1247    2.8522    2.0999 H   0  0  0  0  0  0  0  0  0  0  0  0
   -2.9215    4.1356    4.8767 H   0  0  0  0  0  0  0  0  0  0  0  0
   -2.9648    2.4560    4.5396 H   0  0  0  0  0  0  0  0  0  0  0  0
   -0.7198    4.8803    2.4849 H   0  0  0  0  0  0  0  0  0  0  0  0
   -1.0134    5.4697    4.1351 H   0  0  0  0  0  0  0  0  0  0  0  0
    1.3126    3.9919    2.9729 H   0  0  0  0  0  0  0  0  0  0  0  0
    1.1385    6.5595    3.1129 H   0  0  0  0  0  0  0  0  0  0  0  0
    1.3195    6.4332    4.8294 H   0  0  0  0  0  0  0  0  0  0  0  0
    3.5054    6.9258    3.7131 H   0  0  0  0  0  0  0  0  0  0  0  0
    3.3297    5.4957    2.6792 H   0  0  0  0  0  0  0  0  0  0  0  0
    3.6211    5.3196    4.4106 H   0  0  0  0  0  0  0  0  0  0  0  0
    0.6011    4.4081    5.8707 H   0  0  0  0  0  0  0  0  0  0  0  0
    2.9828    3.8403    5.4807 H   0  0  0  0  0  0  0  0  0  0  0  0
    2.1409    2.7418    6.5424 H   0  0  0  0  0  0  0  0  0  0  0  0
    4.2424    0.7678    4.1493 H   0  0  0  0  0  0  0  0  0  0  0  0
    4.2473    1.4331    5.7967 H   0  0  0  0  0  0  0  0  0  0  0  0
    4.5969    2.4675    4.4388 H   0  0  0  0  0  0  0  0  0  0  0  0
    1.9828    0.1072    4.0057 H   0  0  0  0  0  0  0  0  0  0  0  0
    2.7580    0.0687    6.4107 H   0  0  0  0  0  0  0  0  0  0  0  0
    1.2220    0.7080    6.8589 H   0  0  0  0  0  0  0  0  0  0  0  0
    1.5104   -1.3277    8.3375 H   0  0  0  0  0  0  0  0  0  0  0  0
    0.7075   -3.5516    8.6837 H   0  0  0  0  0  0  0  0  0  0  0  0
   -0.5917   -6.8252    8.0611 H   0  0  0  0  0  0  0  0  0  0  0  0
   -0.8210   -5.2103    8.7361 H   0  0  0  0  0  0  0  0  0  0  0  0
    0.8108   -5.8239    8.3893 H   0  0  0  0  0  0  0  0  0  0  0  0
   -0.1163   -3.9322    4.4459 H   0  0  0  0  0  0  0  0  0  0  0  0
    0.9222   -1.7274    4.0716 H   0  0  0  0  0  0  0  0  0  0  0  0
    0.7280    1.0743    0.8982 H   0  0  0  0  0  0  0  0  0  0  0  0
   -0.5194    0.1526    1.6979 H   0  0  0  0  0  0  0  0  0  0  0  0
    1.1884   -0.1462    2.0739 H   0  0  0  0  0  0  0  0  0  0  0  0
   -1.8291    0.7331    3.7191 H   0  0  0  0  0  0  0  0  0  0  0  0
   -0.7880   -0.6653    3.8488 H   0  0  0  0  0  0  0  0  0  0  0  0
   -2.6449   -0.2273    5.6381 H   0  0  0  0  0  0  0  0  0  0  0  0
   -1.1345   -0.7110    6.2997 H   0  0  0  0  0  0  0  0  0  0  0  0
   -3.1458    2.1766    9.3776 H   0  0  0  0  0  0  0  0  0  0  0  0
   -2.9749    3.1363    7.9160 H   0  0  0  0  0  0  0  0  0  0  0  0
   -1.5560    2.8140    8.9482 H   0  0  0  0  0  0  0  0  0  0  0  0
   -0.9923    3.3885    6.8184 H   0  0  0  0  0  0  0  0  0  0  0  0
  1  2  1  0
  1 33  1  0
  1 34  1  0
  1 35  1  0
  2  3  1  0
  2 36  1  0
  2 37  1  0
  3  4  1  0
  3 38  1  0
  3 39  1  0
 32  4  1  6
  4  5  1  0
  5  6  1  0
  5 40  1  0
  5 41  1  0
  6  7  1  0
  6  9  1  0
  6 42  1  6
  7  8  1  0
  7 43  1  0
  7 44  1  0
  8 45  1  0
  8 46  1  0
  8 47  1  0
  9 32  1  0
  9 10  1  0
  9 48  1  1
 10 11  1  0
 10 49  1  0
 10 50  1  0
 11 12  1  0
 11 13  1  0
 12 51  1  0
 12 52  1  0
 12 53  1  0
 13 14  1  0
 13 23  1  0
 13 54  1  6
 14 15  1  0
 14 55  1  0
 14 56  1  0
 15 22  1  0
 15 16  2  0
 16 17  1  0
 16 57  1  0
 17 18  2  0
 17 58  1  0
 18 19  1  0
 18 21  1  0
 19 20  1  0
 20 59  1  0
 20 60  1  0
 20 61  1  0
 21 22  2  0
 21 62  1  0
 22 63  1  0
 23 32  1  0
 23 24  1  6
 23 26  1  0
 24 25  1  0
 25 64  1  0
 25 65  1  0
 25 66  1  0
 26 27  1  0
 26 67  1  0
 26 68  1  0
 27 28  1  0
 27 69  1  0
 27 70  1  0
 28 29  1  0
 28 31  2  0
 29 30  1  0
 30 71  1  0
 30 72  1  0
 30 73  1  0
 31 32  1  0
 31 74  1  0
M  END
>  <i_m_ct_stereo_status>  (217) 
1

>  <s_m_source_file>  (217) 
/var/tmp/pbs.5076255.sched01/tmpln0nb48r/86bqtw16pk.sdf

>  <i_m_source_file_index>  (217) 
21

>  <i_lp_mmshare_version>  (217) 
48012

>  <i_f3d_flags>  (217) 
0

>  <s_epik_input>  (217) 
W0NIM11bQ0gyXVtDSDJdTjFbQ0gyXVtDQEBIXShbQ0gyXVtDSDNdKVtDQEBIXShbQ0BAXTEyMylbQ0gyXU4oW0NIM10pW0NASF0oW0NAQF0yKE9bQ0gzXSlbQ0gyXVtDSDJdQyg9W0NIXTMpT1tDSDNdKVtDSDJdYzRbY0hdW2NIXWMoT1tDSDNdKVtjSF1bY0hdNA==

>  <s_epik_cmdline>  (217) 
J2VwaWtfcHl0aG9uJywgJy1waHQnLCAnMi4wJywgJy1waCcsICc3LjAnLCAnLXRuJywgJzgnLCAnLW1hJywgJzIwMCcsICctaW1hZScsICc8aW5maWxlLm1hZT4nLCAnLW9tYWUnLCAnPG91dGZpbGUubWFlPic=

>  <r_lp_tautomer_probability>  (217) 
1

>  <r_epik_Ionization_Penalty>  (217) 
1.87934

>  <r_epik_Ionization_Penalty_Charging>  (217) 
0

>  <r_epik_Ionization_Penalty_Neutral>  (217) 
1.87934

>  <r_epik_State_Penalty>  (217) 
1.46522

>  <r_epik_Charging_Adjusted_Penalty>  (217) 
1.46522

>  <i_epik_Tot_Q>  (217) 
0

>  <i_epik_Tot_abs_Q>  (217) 
0

>  <s_lp_Force_Field>  (217) 
OPLS3e

>  <r_lp_Energy>  (217) 
60.6434

>  <b_lp_Chiralities_Consistent>  (217) 
1

>  <s_lp_Variant>  (217) 
68:0-3

>  <s_i_glide_gridfile>  (217) 
pfpi4k_grid

>  <i_i_glide_lignum>  (217) 
21

>  <i_i_glide_rotatable_bonds>  (217) 
8

>  <r_i_docking_score>  (217) 
-1.66965

>  <r_i_glide_ligand_efficiency>  (217) 
-0.0521765

>  <r_i_glide_ligand_efficiency_sa>  (217) 
-0.16565

>  <r_i_glide_ligand_efficiency_ln>  (217) 
-0.37388

>  <r_i_glide_gscore>  (217) 
-1.66965

>  <r_i_glide_lipo>  (217) 
-0.102021

>  <r_i_glide_hbond>  (217) 
-0.129851

>  <r_i_glide_metal>  (217) 
-0

>  <r_i_glide_rewards>  (217) 
-0.391132

>  <r_i_glide_evdw>  (217) 
-23.3202

>  <r_i_glide_ecoul>  (217) 
-1.24428

>  <r_i_glide_erotb>  (217) 
0.30601

>  <r_i_glide_esite>  (217) 
0

>  <r_i_glide_emodel>  (217) 
-21.5794

>  <r_i_glide_energy>  (217) 
-24.5645

>  <r_i_glide_einternal>  (217) 
7.73011

>  <r_i_glide_intrahb_reward>  (217) 
-0

>  <i_i_glide_confnum>  (217) 
2

>  <i_i_glide_posenum>  (217) 
15

>  <r_i_glide_eff_state_penalty>  (217) 
0

>  <ligand_id>  (217) 
68

>  <original_smiles>  (217) 
CCCN1CC(CC)C2CN(C)C(Cc3ccc(OC)cc3)C3(OC)CCC(OC)=CC213

>  <smiles>  (217) 
[H]C1=C(OC([H])([H])[H])C([H])([H])C([H])([H])C2(OC([H])([H])[H])C([H])(C([H])([H])c3c([H])c([H])c(OC([H])([H])[H])c([H])c3[H])N(C([H])([H])[H])C([H])([H])C3([H])C12N(C([H])([H])C([H])([H])C([H])([H])[H])C([H])([H])C3([H])C([H])([H])C([H])([H])[H]

$$$$
70:0:0
     RDKit          3D

 20 22  0  0  1  0  0  0  0  0999 V2000
    3.8271   -1.4562   -3.8995 Cl  0  0  0  0  0  0  0  0  0  0  0  0
    4.0315   -2.8817   -2.8423 C   0  0  0  0  0  0  0  0  0  0  0  0
    4.5325   -2.4625   -1.4510 C   0  0  0  0  0  0  0  0  0  0  0  0
    4.6346   -3.6045   -0.5486 N   0  0  0  0  0  0  0  0  0  0  0  0
    3.5764   -4.3299   -0.0426 N   0  0  0  0  0  0  0  0  0  0  0  0
    4.0350   -5.2866    0.7607 N   0  0  0  0  0  0  0  0  0  0  0  0
    5.4192   -5.1647    0.7942 C   0  0  0  0  0  0  0  0  0  0  0  0
    6.3134   -5.9141    1.4819 N   0  0  0  0  0  0  0  0  0  0  0  0
    7.6218   -5.5354    1.3105 C   0  0  0  0  0  0  0  0  0  0  0  0
    7.9704   -4.4942    0.5183 N   0  0  0  0  0  0  0  0  0  0  0  0
    9.0330   -3.8119    0.0717 N   0  0  0  0  0  0  0  0  0  0  0  0
    8.1193   -3.0731   -0.6313 C   0  0  0  0  0  0  0  0  0  0  0  0
    7.0800   -3.8159   -0.1219 N   0  0  0  0  0  0  0  0  0  0  0  0
    5.7658   -4.0886   -0.0364 C   0  0  0  0  0  0  0  0  0  0  0  0
    3.0628   -3.3755   -2.7741 H   0  0  0  0  0  0  0  0  0  0  0  0
    4.7276   -3.5649   -3.3309 H   0  0  0  0  0  0  0  0  0  0  0  0
    5.4898   -1.9447   -1.5140 H   0  0  0  0  0  0  0  0  0  0  0  0
    3.8264   -1.7557   -1.0139 H   0  0  0  0  0  0  0  0  0  0  0  0
    8.3933   -6.0836    1.8285 H   0  0  0  0  0  0  0  0  0  0  0  0
    8.2103   -2.2538   -1.3281 H   0  0  0  0  0  0  0  0  0  0  0  0
  1  2  1  0
  2  3  1  0
  2 15  1  0
  2 16  1  0
  3  4  1  0
  3 17  1  0
  3 18  1  0
  4 14  1  0
  4  5  1  0
  5  6  2  0
  6  7  1  0
  7 14  2  0
  7  8  1  0
  8  9  2  0
  9 10  1  0
  9 19  1  0
 10 13  1  0
 10 11  1  0
 11 12  2  0
 12 13  1  0
 12 20  1  0
 13 14  1  0
M  END
>  <i_m_ct_stereo_status>  (218) 
1

>  <s_m_source_file>  (218) 
/var/tmp/pbs.5076255.sched01/tmpln0nb48r/86bqtw16pk.sdf

>  <i_m_source_file_index>  (218) 
23

>  <i_lp_mmshare_version>  (218) 
48012

>  <i_f3d_flags>  (218) 
0

>  <s_epik_input>  (218) 
Q2xbQ0gyXVtDSDJdbihubjEpYyhjMTIpbjNuKFtjSF1uMiluW2NIXTM=

>  <s_epik_cmdline>  (218) 
J2VwaWtfcHl0aG9uJywgJy1waHQnLCAnMi4wJywgJy1waCcsICc3LjAnLCAnLXRuJywgJzgnLCAnLW1hJywgJzIwMCcsICctaW1hZScsICc8aW5maWxlLm1hZT4nLCAnLW9tYWUnLCAnPG91dGZpbGUubWFlPic=

>  <r_lp_tautomer_probability>  (218) 
1

>  <r_epik_Ionization_Penalty>  (218) 
4.9974e-10

>  <r_epik_Ionization_Penalty_Charging>  (218) 
0

>  <r_epik_Ionization_Penalty_Neutral>  (218) 
4.9974e-10

>  <r_epik_State_Penalty>  (218) 
-0

>  <r_epik_Charging_Adjusted_Penalty>  (218) 
0

>  <i_epik_Tot_Q>  (218) 
0

>  <i_epik_Tot_abs_Q>  (218) 
0

>  <s_lp_Force_Field>  (218) 
OPLS3e

>  <r_lp_Energy>  (218) 
48.2445

>  <b_lp_Chiralities_Consistent>  (218) 
1

>  <s_lp_Variant>  (218) 
70:0-1

>  <s_i_glide_gridfile>  (218) 
pfpi4k_grid

>  <i_i_glide_lignum>  (218) 
23

>  <i_i_glide_rotatable_bonds>  (218) 
2

>  <r_i_docking_score>  (218) 
-4.51836

>  <r_i_glide_ligand_efficiency>  (218) 
-0.32274

>  <r_i_glide_ligand_efficiency_sa>  (218) 
-0.77785

>  <r_i_glide_ligand_efficiency_ln>  (218) 
-1.24163

>  <r_i_glide_gscore>  (218) 
-4.51836

>  <r_i_glide_lipo>  (218) 
-0.124668

>  <r_i_glide_hbond>  (218) 
-0.100847

>  <r_i_glide_metal>  (218) 
-0

>  <r_i_glide_rewards>  (218) 
-2.85126

>  <r_i_glide_evdw>  (218) 
-22.152

>  <r_i_glide_ecoul>  (218) 
-2.10222

>  <r_i_glide_erotb>  (218) 
0

>  <r_i_glide_esite>  (218) 
-0.0186526

>  <r_i_glide_emodel>  (218) 
-32.9697

>  <r_i_glide_energy>  (218) 
-24.2542

>  <r_i_glide_einternal>  (218) 
0.0189911

>  <r_i_glide_intrahb_reward>  (218) 
-0

>  <i_i_glide_confnum>  (218) 
1

>  <i_i_glide_posenum>  (218) 
22

>  <r_i_glide_eff_state_penalty>  (218) 
0

>  <ligand_id>  (218) 
70

>  <original_smiles>  (218) 
ClCCn1nnc2ncn3ncn3c21

>  <smiles>  (218) 
[H]c1nc2nnn(C([H])([H])C([H])([H])Cl)c2n2c([H])nn12

$$$$
70:0:1
     RDKit          3D

 20 22  0  0  1  0  0  0  0  0999 V2000
    3.6854   -0.2852   -4.5238 Cl  0  0  0  0  0  0  0  0  0  0  0  0
    3.6124   -1.0291   -2.9038 C   0  0  0  0  0  0  0  0  0  0  0  0
    3.8709   -2.5405   -2.9846 C   0  0  0  0  0  0  0  0  0  0  0  0
    3.7496   -3.1613   -1.6756 N   0  0  0  0  0  0  0  0  0  0  0  0
    2.5673   -3.4798   -1.0488 N   0  0  0  0  0  0  0  0  0  0  0  0
    2.8250   -4.0049    0.1485 N   0  0  0  0  0  0  0  0  0  0  0  0
    4.2044   -4.0043    0.3017 C   0  0  0  0  0  0  0  0  0  0  0  0
    4.9338   -4.4217    1.3630 N   0  0  0  0  0  0  0  0  0  0  0  0
    6.2897   -4.2740    1.2184 C   0  0  0  0  0  0  0  0  0  0  0  0
    6.8474   -3.7524    0.0982 N   0  0  0  0  0  0  0  0  0  0  0  0
    8.0284   -3.4507   -0.4631 N   0  0  0  0  0  0  0  0  0  0  0  0
    7.2690   -3.0474   -1.5332 C   0  0  0  0  0  0  0  0  0  0  0  0
    6.1045   -3.3822   -0.8887 N   0  0  0  0  0  0  0  0  0  0  0  0
    4.7637   -3.4694   -0.8671 C   0  0  0  0  0  0  0  0  0  0  0  0
    4.3510   -0.5333   -2.2738 H   0  0  0  0  0  0  0  0  0  0  0  0
    2.6234   -0.8272   -2.4921 H   0  0  0  0  0  0  0  0  0  0  0  0
    3.1315   -3.0012   -3.6399 H   0  0  0  0  0  0  0  0  0  0  0  0
    4.8477   -2.7617   -3.4166 H   0  0  0  0  0  0  0  0  0  0  0  0
    6.9335   -4.5906    2.0224 H   0  0  0  0  0  0  0  0  0  0  0  0
    7.4959   -2.6512   -2.5128 H   0  0  0  0  0  0  0  0  0  0  0  0
  1  2  1  0
  2  3  1  0
  2 15  1  0
  2 16  1  0
  3  4  1  0
  3 17  1  0
  3 18  1  0
  4 14  1  0
  4  5  1  0
  5  6  2  0
  6  7  1  0
  7 14  2  0
  7  8  1  0
  8  9  2  0
  9 10  1  0
  9 19  1  0
 10 13  1  0
 10 11  1  0
 11 12  2  0
 12 13  1  0
 12 20  1  0
 13 14  1  0
M  END
>  <i_m_ct_stereo_status>  (219) 
1

>  <s_m_source_file>  (219) 
/var/tmp/pbs.5076255.sched01/tmpln0nb48r/86bqtw16pk.sdf

>  <i_m_source_file_index>  (219) 
23

>  <i_lp_mmshare_version>  (219) 
48012

>  <i_f3d_flags>  (219) 
0

>  <s_epik_input>  (219) 
Q2xbQ0gyXVtDSDJdbihubjEpYyhjMTIpbjNuKFtjSF1uMiluW2NIXTM=

>  <s_epik_cmdline>  (219) 
J2VwaWtfcHl0aG9uJywgJy1waHQnLCAnMi4wJywgJy1waCcsICc3LjAnLCAnLXRuJywgJzgnLCAnLW1hJywgJzIwMCcsICctaW1hZScsICc8aW5maWxlLm1hZT4nLCAnLW9tYWUnLCAnPG91dGZpbGUubWFlPic=

>  <r_lp_tautomer_probability>  (219) 
1

>  <r_epik_Ionization_Penalty>  (219) 
4.9974e-10

>  <r_epik_Ionization_Penalty_Charging>  (219) 
0

>  <r_epik_Ionization_Penalty_Neutral>  (219) 
4.9974e-10

>  <r_epik_State_Penalty>  (219) 
-0

>  <r_epik_Charging_Adjusted_Penalty>  (219) 
0

>  <i_epik_Tot_Q>  (219) 
0

>  <i_epik_Tot_abs_Q>  (219) 
0

>  <s_lp_Force_Field>  (219) 
OPLS3e

>  <r_lp_Energy>  (219) 
48.2445

>  <b_lp_Chiralities_Consistent>  (219) 
1

>  <s_lp_Variant>  (219) 
70:0-1

>  <s_i_glide_gridfile>  (219) 
pfpi4k_grid

>  <i_i_glide_lignum>  (219) 
23

>  <i_i_glide_rotatable_bonds>  (219) 
2

>  <r_i_docking_score>  (219) 
-4.32068

>  <r_i_glide_ligand_efficiency>  (219) 
-0.30862

>  <r_i_glide_ligand_efficiency_sa>  (219) 
-0.743819

>  <r_i_glide_ligand_efficiency_ln>  (219) 
-1.18731

>  <r_i_glide_gscore>  (219) 
-4.32068

>  <r_i_glide_lipo>  (219) 
-0.41673

>  <r_i_glide_hbond>  (219) 
0

>  <r_i_glide_metal>  (219) 
-0

>  <r_i_glide_rewards>  (219) 
-2.47807

>  <r_i_glide_evdw>  (219) 
-23.5235

>  <r_i_glide_ecoul>  (219) 
-1.33258

>  <r_i_glide_erotb>  (219) 
0

>  <r_i_glide_esite>  (219) 
-0.0498178

>  <r_i_glide_emodel>  (219) 
-33.1966

>  <r_i_glide_energy>  (219) 
-24.8561

>  <r_i_glide_einternal>  (219) 
0.00715491

>  <r_i_glide_intrahb_reward>  (219) 
-0

>  <i_i_glide_confnum>  (219) 
1

>  <i_i_glide_posenum>  (219) 
18

>  <r_i_glide_eff_state_penalty>  (219) 
0

>  <ligand_id>  (219) 
70

>  <original_smiles>  (219) 
ClCCn1nnc2ncn3ncn3c21

>  <smiles>  (219) 
[H]c1nc2nnn(C([H])([H])C([H])([H])Cl)c2n2c([H])nn12

$$$$
70:0:2
     RDKit          3D

 20 22  0  0  1  0  0  0  0  0999 V2000
    2.1649  -10.0514    4.7835 Cl  0  0  0  0  0  0  0  0  0  0  0  0
    0.4647  -10.3547    4.3427 C   0  0  0  0  0  0  0  0  0  0  0  0
    0.2083  -10.1186    2.8471 C   0  0  0  0  0  0  0  0  0  0  0  0
    0.3382   -8.7266    2.4723 N   0  0  0  0  0  0  0  0  0  0  0  0
   -0.6805   -7.8045    2.4620 N   0  0  0  0  0  0  0  0  0  0  0  0
   -0.2164   -6.6514    1.9955 N   0  0  0  0  0  0  0  0  0  0  0  0
    1.1313   -6.8253    1.7074 C   0  0  0  0  0  0  0  0  0  0  0  0
    2.0144   -5.9210    1.2228 N   0  0  0  0  0  0  0  0  0  0  0  0
    3.2840   -6.4143    1.0357 C   0  0  0  0  0  0  0  0  0  0  0  0
    3.6073   -7.7021    1.3004 N   0  0  0  0  0  0  0  0  0  0  0  0
    4.6269   -8.5740    1.2697 N   0  0  0  0  0  0  0  0  0  0  0  0
    3.7083   -9.4696    1.7607 C   0  0  0  0  0  0  0  0  0  0  0  0
    2.7196   -8.5179    1.7583 N   0  0  0  0  0  0  0  0  0  0  0  0
    1.4480   -8.1540    2.0024 C   0  0  0  0  0  0  0  0  0  0  0  0
    0.2393  -11.3863    4.6178 H   0  0  0  0  0  0  0  0  0  0  0  0
   -0.1735   -9.7210    4.9560 H   0  0  0  0  0  0  0  0  0  0  0  0
    0.8528  -10.7352    2.2238 H   0  0  0  0  0  0  0  0  0  0  0  0
   -0.8121  -10.4120    2.6130 H   0  0  0  0  0  0  0  0  0  0  0  0
    4.0428   -5.7521    0.6505 H   0  0  0  0  0  0  0  0  0  0  0  0
    3.7565  -10.5112    2.0529 H   0  0  0  0  0  0  0  0  0  0  0  0
  1  2  1  0
  2  3  1  0
  2 15  1  0
  2 16  1  0
  3  4  1  0
  3 17  1  0
  3 18  1  0
  4 14  1  0
  4  5  1  0
  5  6  2  0
  6  7  1  0
  7 14  2  0
  7  8  1  0
  8  9  2  0
  9 10  1  0
  9 19  1  0
 10 13  1  0
 10 11  1  0
 11 12  2  0
 12 13  1  0
 12 20  1  0
 13 14  1  0
M  END
>  <i_m_ct_stereo_status>  (220) 
1

>  <s_m_source_file>  (220) 
/var/tmp/pbs.5076255.sched01/tmpln0nb48r/86bqtw16pk.sdf

>  <i_m_source_file_index>  (220) 
23

>  <i_lp_mmshare_version>  (220) 
48012

>  <i_f3d_flags>  (220) 
0

>  <s_epik_input>  (220) 
Q2xbQ0gyXVtDSDJdbihubjEpYyhjMTIpbjNuKFtjSF1uMiluW2NIXTM=

>  <s_epik_cmdline>  (220) 
J2VwaWtfcHl0aG9uJywgJy1waHQnLCAnMi4wJywgJy1waCcsICc3LjAnLCAnLXRuJywgJzgnLCAnLW1hJywgJzIwMCcsICctaW1hZScsICc8aW5maWxlLm1hZT4nLCAnLW9tYWUnLCAnPG91dGZpbGUubWFlPic=

>  <r_lp_tautomer_probability>  (220) 
1

>  <r_epik_Ionization_Penalty>  (220) 
4.9974e-10

>  <r_epik_Ionization_Penalty_Charging>  (220) 
0

>  <r_epik_Ionization_Penalty_Neutral>  (220) 
4.9974e-10

>  <r_epik_State_Penalty>  (220) 
-0

>  <r_epik_Charging_Adjusted_Penalty>  (220) 
0

>  <i_epik_Tot_Q>  (220) 
0

>  <i_epik_Tot_abs_Q>  (220) 
0

>  <s_lp_Force_Field>  (220) 
OPLS3e

>  <r_lp_Energy>  (220) 
48.2445

>  <b_lp_Chiralities_Consistent>  (220) 
1

>  <s_lp_Variant>  (220) 
70:0-1

>  <s_i_glide_gridfile>  (220) 
pfpi4k_grid

>  <i_i_glide_lignum>  (220) 
23

>  <i_i_glide_rotatable_bonds>  (220) 
2

>  <r_i_docking_score>  (220) 
-4.25913

>  <r_i_glide_ligand_efficiency>  (220) 
-0.304224

>  <r_i_glide_ligand_efficiency_sa>  (220) 
-0.733223

>  <r_i_glide_ligand_efficiency_ln>  (220) 
-1.17039

>  <r_i_glide_gscore>  (220) 
-4.25913

>  <r_i_glide_lipo>  (220) 
-0.0454778

>  <r_i_glide_hbond>  (220) 
0

>  <r_i_glide_metal>  (220) 
-0

>  <r_i_glide_rewards>  (220) 
-2.05273

>  <r_i_glide_evdw>  (220) 
-19.9528

>  <r_i_glide_ecoul>  (220) 
-5.28536

>  <r_i_glide_erotb>  (220) 
0

>  <r_i_glide_esite>  (220) 
-0.370478

>  <r_i_glide_emodel>  (220) 
-32.8066

>  <r_i_glide_energy>  (220) 
-25.2382

>  <r_i_glide_einternal>  (220) 
1.20542

>  <r_i_glide_intrahb_reward>  (220) 
-0

>  <i_i_glide_confnum>  (220) 
2

>  <i_i_glide_posenum>  (220) 
38

>  <r_i_glide_eff_state_penalty>  (220) 
0

>  <ligand_id>  (220) 
70

>  <original_smiles>  (220) 
ClCCn1nnc2ncn3ncn3c21

>  <smiles>  (220) 
[H]c1nc2nnn(C([H])([H])C([H])([H])Cl)c2n2c([H])nn12

$$$$
71:1:0
     RDKit          3D

 90 96  0  0  1  0  0  0  0  0999 V2000
   -0.7623   -7.1501    4.6695 C   0  0  0  0  0  0  0  0  0  0  0  0
    0.1052   -7.9409    5.6271 C   0  0  0  0  0  0  0  0  0  0  0  0
    0.0816   -9.2740    5.5932 C   0  0  0  0  0  0  0  0  0  0  0  0
    0.8711  -10.1402    6.5199 C   0  0  0  0  0  0  0  0  0  0  0  0
    2.1907   -9.5108    7.0026 C   0  0  1  0  0  0  0  0  0  0  0  0
    3.2340   -9.6845    5.8706 C   0  0  0  0  0  0  0  0  0  0  0  0
    1.9754   -8.0529    7.4916 C   0  0  2  0  0  0  0  0  0  0  0  0
    3.3481   -7.4225    7.7497 C   0  0  0  0  0  0  0  0  0  0  0  0
    0.9911   -7.9208    8.7069 C   0  0  0  0  0  0  0  0  0  0  0  0
    0.3515   -6.8564    7.8618 C   0  0  0  0  0  0  0  0  0  0  0  0
    0.2582   -5.5606    8.1028 C   0  0  0  0  0  0  0  0  0  0  0  0
   -0.1881   -4.9275    9.4164 C   0  0  0  0  0  0  0  0  0  0  0  0
    0.9441   -4.8373    6.9383 C   0  0  1  0  0  0  0  0  0  0  0  0
   -0.0637   -3.9767    6.1646 C   0  0  0  0  0  0  0  0  0  0  0  0
    0.4089   -3.5541    4.7593 C   0  0  0  0  0  0  0  0  0  0  0  0
    1.4970   -2.4629    4.6602 C   0  0  2  0  0  0  0  0  0  0  0  0
    1.0121   -1.1492    5.3160 C   0  0  0  0  0  0  0  0  0  0  0  0
    1.8088   -2.2003    3.1720 C   0  0  0  0  0  0  0  0  0  0  0  0
    3.2398   -1.6202    3.1285 C   0  0  1  0  0  0  0  0  0  0  0  0
    3.9579   -2.4299    4.2411 C   0  0  2  0  0  0  0  0  0  0  0  0
    4.9886   -1.5691    4.9932 C   0  0  0  0  0  0  0  0  0  0  0  0
    4.5958   -3.7014    3.6426 C   0  0  0  0  0  0  0  0  0  0  0  0
    5.3965   -3.4611    2.3620 C   0  0  0  0  0  0  0  0  0  0  0  0
    4.5390   -2.8712    1.2168 C   0  0  2  0  0  0  0  0  0  0  0  0
    5.3411   -2.7899   -0.1450 C   0  0  0  0  0  0  0  0  0  0  0  0
    6.1095   -4.0979   -0.4200 C   0  0  0  0  0  0  0  0  0  0  0  0
    4.4266   -2.5916   -1.3911 C   0  0  0  0  0  0  0  0  0  0  0  0
    6.3861   -1.6584   -0.0682 C   0  0  0  0  0  0  0  0  0  0  0  0
    5.7849   -0.3160    0.3581 C   0  0  0  0  0  0  0  0  0  0  0  0
    5.0186   -0.4118    1.6865 C   0  0  0  0  0  0  0  0  0  0  0  0
    3.9205   -1.5093    1.7043 C   0  0  2  0  0  0  0  0  0  0  0  0
    2.8067   -1.0372    0.7566 C   0  0  0  0  0  0  0  0  0  0  0  0
    2.8560   -2.8627    5.2108 C   0  0  0  0  0  0  0  0  0  0  0  0
    3.1360   -3.5184    6.3679 C   0  0  0  0  0  0  0  0  0  0  0  0
    2.1809   -4.0134    7.3720 C   0  0  0  0  0  0  0  0  0  0  0  0
    2.4101   -3.8258    8.5627 O   0  0  0  0  0  0  0  0  0  0  0  0
    1.4554   -5.9072    6.1029 O   0  0  0  0  0  0  0  0  0  0  0  0
    1.0215   -7.1856    6.5885 C   0  0  2  0  0  0  0  0  0  0  0  0
   -0.1397   -6.5191    4.0497 H   0  0  0  0  0  0  0  0  0  0  0  0
   -1.4862   -6.5512    5.2132 H   0  0  0  0  0  0  0  0  0  0  0  0
   -1.3212   -7.8202    4.0177 H   0  0  0  0  0  0  0  0  0  0  0  0
   -0.5745   -9.8052    4.9166 H   0  0  0  0  0  0  0  0  0  0  0  0
    0.2072  -10.3976    7.3431 H   0  0  0  0  0  0  0  0  0  0  0  0
    1.0753  -11.0444    5.9538 H   0  0  0  0  0  0  0  0  0  0  0  0
    2.5483  -10.1211    7.8332 H   0  0  0  0  0  0  0  0  0  0  0  0
    2.9623   -9.1315    4.9686 H   0  0  0  0  0  0  0  0  0  0  0  0
    3.3034  -10.7401    5.5889 H   0  0  0  0  0  0  0  0  0  0  0  0
    4.2422   -9.3904    6.1733 H   0  0  0  0  0  0  0  0  0  0  0  0
    3.2430   -6.4833    8.2980 H   0  0  0  0  0  0  0  0  0  0  0  0
    3.8391   -7.1783    6.8019 H   0  0  0  0  0  0  0  0  0  0  0  0
    4.0004   -8.0749    8.3356 H   0  0  0  0  0  0  0  0  0  0  0  0
    0.4079   -8.8136    8.9071 H   0  0  0  0  0  0  0  0  0  0  0  0
    1.4854   -7.6164    9.6274 H   0  0  0  0  0  0  0  0  0  0  0  0
   -0.8580   -4.0891    9.2356 H   0  0  0  0  0  0  0  0  0  0  0  0
    0.6408   -4.5905   10.0324 H   0  0  0  0  0  0  0  0  0  0  0  0
   -0.7404   -5.6522   10.0154 H   0  0  0  0  0  0  0  0  0  0  0  0
   -0.9777   -4.5589    6.0577 H   0  0  0  0  0  0  0  0  0  0  0  0
   -0.3590   -3.1126    6.7609 H   0  0  0  0  0  0  0  0  0  0  0  0
    0.7375   -4.4362    4.2100 H   0  0  0  0  0  0  0  0  0  0  0  0
   -0.4644   -3.1814    4.2308 H   0  0  0  0  0  0  0  0  0  0  0  0
    0.0680   -0.8185    4.8824 H   0  0  0  0  0  0  0  0  0  0  0  0
    1.7273   -0.3380    5.1847 H   0  0  0  0  0  0  0  0  0  0  0  0
    0.8645   -1.2600    6.3901 H   0  0  0  0  0  0  0  0  0  0  0  0
    1.7938   -3.1364    2.6092 H   0  0  0  0  0  0  0  0  0  0  0  0
    1.0616   -1.5523    2.7124 H   0  0  0  0  0  0  0  0  0  0  0  0
    3.1365   -0.5905    3.4710 H   0  0  0  0  0  0  0  0  0  0  0  0
    5.8085   -1.3109    4.3404 H   0  0  0  0  0  0  0  0  0  0  0  0
    5.4305   -2.0858    5.8433 H   0  0  0  0  0  0  0  0  0  0  0  0
    4.5632   -0.6322    5.3550 H   0  0  0  0  0  0  0  0  0  0  0  0
    5.2484   -4.1696    4.3805 H   0  0  0  0  0  0  0  0  0  0  0  0
    3.8196   -4.4339    3.4145 H   0  0  0  0  0  0  0  0  0  0  0  0
    6.2273   -2.7958    2.5669 H   0  0  0  0  0  0  0  0  0  0  0  0
    5.8203   -4.4233    2.0879 H   0  0  0  0  0  0  0  0  0  0  0  0
    3.7230   -3.5775    1.0520 H   0  0  0  0  0  0  0  0  0  0  0  0
    6.5316   -4.0635   -1.4202 H   0  0  0  0  0  0  0  0  0  0  0  0
    5.4627   -4.9740   -0.3457 H   0  0  0  0  0  0  0  0  0  0  0  0
    6.9583   -4.2335    0.2535 H   0  0  0  0  0  0  0  0  0  0  0  0
    4.8409   -3.0369   -2.2956 H   0  0  0  0  0  0  0  0  0  0  0  0
    4.2864   -1.5454   -1.6525 H   0  0  0  0  0  0  0  0  0  0  0  0
    3.4410   -3.0351   -1.2469 H   0  0  0  0  0  0  0  0  0  0  0  0
    7.1719   -1.9169    0.6419 H   0  0  0  0  0  0  0  0  0  0  0  0
    6.8803   -1.5634   -1.0338 H   0  0  0  0  0  0  0  0  0  0  0  0
    6.5905    0.4050    0.4561 H   0  0  0  0  0  0  0  0  0  0  0  0
    5.1312    0.0718   -0.4168 H   0  0  0  0  0  0  0  0  0  0  0  0
    5.7591   -0.5820    2.4545 H   0  0  0  0  0  0  0  0  0  0  0  0
    4.5507    0.5387    1.9085 H   0  0  0  0  0  0  0  0  0  0  0  0
    3.1516   -0.6172   -0.1791 H   0  0  0  0  0  0  0  0  0  0  0  0
    2.1656   -0.2729    1.1967 H   0  0  0  0  0  0  0  0  0  0  0  0
    2.1989   -1.8957    0.4964 H   0  0  0  0  0  0  0  0  0  0  0  0
    4.1724   -3.7116    6.5975 H   0  0  0  0  0  0  0  0  0  0  0  0
  1  2  1  0
  1 39  1  0
  1 40  1  0
  1 41  1  0
  2 38  1  0
  2  3  2  0
  3  4  1  0
  3 42  1  0
  4  5  1  0
  4 43  1  0
  4 44  1  0
  5  6  1  0
  5  7  1  0
  5 45  1  1
  6 46  1  0
  6 47  1  0
  6 48  1  0
  7 38  1  0
  7  8  1  1
  7  9  1  0
  8 49  1  0
  8 50  1  0
  8 51  1  0
  9 10  1  0
  9 52  1  0
  9 53  1  0
 10 38  1  0
 10 11  2  0
 11 12  1  0
 11 13  1  0
 12 54  1  0
 12 55  1  0
 12 56  1  0
 13 35  1  0
 13 14  1  0
 13 37  1  6
 14 15  1  0
 14 57  1  0
 14 58  1  0
 15 16  1  0
 15 59  1  0
 15 60  1  0
 16 33  1  0
 16 17  1  1
 16 18  1  0
 17 61  1  0
 17 62  1  0
 17 63  1  0
 18 19  1  0
 18 64  1  0
 18 65  1  0
 19 31  1  0
 19 20  1  0
 19 66  1  1
 20 21  1  1
 20 22  1  0
 20 33  1  0
 21 67  1  0
 21 68  1  0
 21 69  1  0
 22 23  1  0
 22 70  1  0
 22 71  1  0
 23 24  1  0
 23 72  1  0
 23 73  1  0
 24 31  1  0
 24 25  1  0
 24 74  1  6
 25 26  1  0
 25 27  1  0
 25 28  1  0
 26 75  1  0
 26 76  1  0
 26 77  1  0
 27 78  1  0
 27 79  1  0
 27 80  1  0
 28 29  1  0
 28 81  1  0
 28 82  1  0
 29 30  1  0
 29 83  1  0
 29 84  1  0
 30 31  1  0
 30 85  1  0
 30 86  1  0
 31 32  1  6
 32 87  1  0
 32 88  1  0
 32 89  1  0
 33 34  2  0
 34 35  1  0
 34 90  1  0
 35 36  2  0
 38 37  1  6
M  END
>  <i_m_ct_stereo_status>  (221) 
1

>  <s_m_source_file>  (221) 
/var/tmp/pbs.5076255.sched01/tmpln0nb48r/86bqtw16pk.sdf

>  <i_m_source_file_index>  (221) 
25

>  <i_lp_mmshare_version>  (221) 
48012

>  <i_f3d_flags>  (221) 
0

>  <s_epik_input>  (221) 
W0NIM11DMT1bQ0hdW0NIMl1bQ0BASF0oW0NIM10pW0NAXShbQ0gzXSkoW0NIMl0yKUMxKE8zKUMyPUMoW0NIM10pW0NAXTM0W0NIMl1bQ0gyXVtDQEBdNShbQ0gzXSlDKD1bQ0hdQzQ9TylbQ0BdNihbQ0gzXSlbQ0BIXShbQ0gyXTUpW0NAXTcoW0NIM10pW0NASF0oW0NIMl1bQ0gyXTYpQyhbQ0gzXSkoW0NIM10pW0NIMl1bQ0gyXVtDSDJdNw==

>  <s_epik_cmdline>  (221) 
J2VwaWtfcHl0aG9uJywgJy1waHQnLCAnMi4wJywgJy1waCcsICc3LjAnLCAnLXRuJywgJzgnLCAnLW1hJywgJzIwMCcsICctaW1hZScsICc8aW5maWxlLm1hZT4nLCAnLW9tYWUnLCAnPG91dGZpbGUubWFlPic=

>  <r_lp_tautomer_probability>  (221) 
1

>  <r_epik_Ionization_Penalty>  (221) 
4.1704e-14

>  <r_epik_Ionization_Penalty_Charging>  (221) 
0

>  <r_epik_Ionization_Penalty_Neutral>  (221) 
4.1704e-14

>  <r_epik_State_Penalty>  (221) 
-0

>  <r_epik_Charging_Adjusted_Penalty>  (221) 
0

>  <i_epik_Tot_Q>  (221) 
0

>  <i_epik_Tot_abs_Q>  (221) 
0

>  <s_lp_Force_Field>  (221) 
OPLS3e

>  <r_lp_Energy>  (221) 
118.855

>  <b_lp_Chiralities_Consistent>  (221) 
1

>  <s_lp_Variant>  (221) 
71:0-2

>  <s_i_glide_gridfile>  (221) 
pfpi4k_grid

>  <i_i_glide_lignum>  (221) 
25

>  <i_i_glide_rotatable_bonds>  (221) 
0

>  <r_i_docking_score>  (221) 
-1.52324

>  <r_i_glide_ligand_efficiency>  (221) 
-0.0400851

>  <r_i_glide_ligand_efficiency_sa>  (221) 
-0.134765

>  <r_i_glide_ligand_efficiency_ln>  (221) 
-0.328454

>  <r_i_glide_gscore>  (221) 
-1.52324

>  <r_i_glide_lipo>  (221) 
-0.47003

>  <r_i_glide_hbond>  (221) 
0

>  <r_i_glide_metal>  (221) 
-0

>  <r_i_glide_rewards>  (221) 
0

>  <r_i_glide_evdw>  (221) 
-17.8705

>  <r_i_glide_ecoul>  (221) 
-1.06453

>  <r_i_glide_erotb>  (221) 
0

>  <r_i_glide_esite>  (221) 
0

>  <r_i_glide_emodel>  (221) 
-20.4562

>  <r_i_glide_energy>  (221) 
-18.935

>  <r_i_glide_einternal>  (221) 
0

>  <r_i_glide_intrahb_reward>  (221) 
-0

>  <i_i_glide_confnum>  (221) 
2

>  <i_i_glide_posenum>  (221) 
9

>  <r_i_glide_eff_state_penalty>  (221) 
0

>  <ligand_id>  (221) 
71

>  <original_smiles>  (221) 
CC1=CCC(C)C2(C)CC3=C(C)C4(CCC5(C)CC6C(C)(CCC7C(C)(C)CCCC76C)C5=CC4=O)OC132

>  <smiles>  (221) 
[H]C1=C2C(C([H])([H])[H])(C([H])([H])C([H])([H])C3(OC45C(C([H])([H])[H])=C([H])C([H])([H])C([H])(C([H])([H])[H])C4(C([H])([H])[H])C([H])([H])C5=C3C([H])([H])[H])C1=O)C([H])([H])C1([H])C2(C([H])([H])[H])C([H])([H])C([H])([H])C2([H])C(C([H])([H])[H])(C([H])([H])[H])C([H])([H])C([H])([H])C([H])([H])C12C([H])([H])[H]

$$$$
71:1:1
     RDKit          3D

 90 96  0  0  1  0  0  0  0  0999 V2000
    0.8099   -6.9739    6.5541 C   0  0  0  0  0  0  0  0  0  0  0  0
    0.9411   -7.7564    5.2620 C   0  0  0  0  0  0  0  0  0  0  0  0
    0.0075   -8.6606    4.9000 C   0  0  0  0  0  0  0  0  0  0  0  0
    0.0629   -9.4750    3.6295 C   0  0  0  0  0  0  0  0  0  0  0  0
    0.8239   -8.7641    2.4866 C   0  0  1  0  0  0  0  0  0  0  0  0
   -0.1428   -7.7420    1.8376 C   0  0  0  0  0  0  0  0  0  0  0  0
    2.1819   -8.1724    2.9670 C   0  0  2  0  0  0  0  0  0  0  0  0
    2.7686   -7.3304    1.8329 C   0  0  0  0  0  0  0  0  0  0  0  0
    3.1884   -9.2353    3.5299 C   0  0  0  0  0  0  0  0  0  0  0  0
    3.3151   -8.2576    4.6555 C   0  0  0  0  0  0  0  0  0  0  0  0
    4.3765   -7.5775    5.0552 C   0  0  0  0  0  0  0  0  0  0  0  0
    5.7793   -8.1425    5.2485 C   0  0  0  0  0  0  0  0  0  0  0  0
    4.0024   -6.0895    4.9893 C   0  0  1  0  0  0  0  0  0  0  0  0
    4.0584   -5.4522    6.3851 C   0  0  0  0  0  0  0  0  0  0  0  0
    3.3105   -4.1092    6.4944 C   0  0  0  0  0  0  0  0  0  0  0  0
    3.9607   -2.8632    5.8449 C   0  0  2  0  0  0  0  0  0  0  0  0
    5.3503   -2.5886    6.4655 C   0  0  0  0  0  0  0  0  0  0  0  0
    3.0479   -1.6431    6.0874 C   0  0  0  0  0  0  0  0  0  0  0  0
    3.3671   -0.6269    4.9690 C   0  0  1  0  0  0  0  0  0  0  0  0
    3.6127   -1.5495    3.7378 C   0  0  2  0  0  0  0  0  0  0  0  0
    4.7133   -1.0028    2.7949 C   0  0  0  0  0  0  0  0  0  0  0  0
    2.2916   -1.7805    2.9772 C   0  0  0  0  0  0  0  0  0  0  0  0
    1.5055   -0.4973    2.6998 C   0  0  0  0  0  0  0  0  0  0  0  0
    1.0918    0.2507    3.9996 C   0  0  2  0  0  0  0  0  0  0  0  0
    0.1336    1.4728    3.6934 C   0  0  0  0  0  0  0  0  0  0  0  0
   -0.9869    1.0765    2.7009 C   0  0  0  0  0  0  0  0  0  0  0  0
   -0.6150    1.9823    4.9582 C   0  0  0  0  0  0  0  0  0  0  0  0
    0.9447    2.6197    3.0497 C   0  0  0  0  0  0  0  0  0  0  0  0
    2.1938    3.0177    3.8477 C   0  0  0  0  0  0  0  0  0  0  0  0
    3.0996    1.8087    4.1510 C   0  0  0  0  0  0  0  0  0  0  0  0
    2.3794    0.6079    4.8372 C   0  0  2  0  0  0  0  0  0  0  0  0
    2.0387    1.0516    6.2892 C   0  0  0  0  0  0  0  0  0  0  0  0
    4.0574   -2.8994    4.3237 C   0  0  0  0  0  0  0  0  0  0  0  0
    4.4403   -3.9381    3.5396 C   0  0  0  0  0  0  0  0  0  0  0  0
    4.8553   -5.2882    3.9695 C   0  0  0  0  0  0  0  0  0  0  0  0
    5.8474   -5.8052    3.4596 O   0  0  0  0  0  0  0  0  0  0  0  0
    2.6421   -6.0863    4.4719 O   0  0  0  0  0  0  0  0  0  0  0  0
    2.1330   -7.4337    4.3508 C   0  0  2  0  0  0  0  0  0  0  0  0
    0.7839   -5.9091    6.3524 H   0  0  0  0  0  0  0  0  0  0  0  0
    1.6374   -7.1922    7.2230 H   0  0  0  0  0  0  0  0  0  0  0  0
   -0.1041   -7.2343    7.0790 H   0  0  0  0  0  0  0  0  0  0  0  0
   -0.8259   -8.8783    5.5518 H   0  0  0  0  0  0  0  0  0  0  0  0
    0.5226  -10.4308    3.8788 H   0  0  0  0  0  0  0  0  0  0  0  0
   -0.9600   -9.7129    3.3304 H   0  0  0  0  0  0  0  0  0  0  0  0
    1.0194   -9.5231    1.7291 H   0  0  0  0  0  0  0  0  0  0  0  0
   -0.4079   -6.9324    2.5197 H   0  0  0  0  0  0  0  0  0  0  0  0
   -1.0718   -8.2458    1.5541 H   0  0  0  0  0  0  0  0  0  0  0  0
    0.2568   -7.3171    0.9137 H   0  0  0  0  0  0  0  0  0  0  0  0
    3.8138   -7.0837    2.0235 H   0  0  0  0  0  0  0  0  0  0  0  0
    2.2369   -6.3804    1.7265 H   0  0  0  0  0  0  0  0  0  0  0  0
    2.7439   -7.8632    0.8836 H   0  0  0  0  0  0  0  0  0  0  0  0
    2.7410  -10.1954    3.7520 H   0  0  0  0  0  0  0  0  0  0  0  0
    4.0532   -9.3877    2.8920 H   0  0  0  0  0  0  0  0  0  0  0  0
    6.2433   -7.7450    6.1515 H   0  0  0  0  0  0  0  0  0  0  0  0
    6.4421   -7.9571    4.4064 H   0  0  0  0  0  0  0  0  0  0  0  0
    5.7296   -9.2263    5.3714 H   0  0  0  0  0  0  0  0  0  0  0  0
    3.6005   -6.1479    7.0871 H   0  0  0  0  0  0  0  0  0  0  0  0
    5.0927   -5.3641    6.7231 H   0  0  0  0  0  0  0  0  0  0  0  0
    2.3017   -4.2299    6.1027 H   0  0  0  0  0  0  0  0  0  0  0  0
    3.1840   -3.9072    7.5569 H   0  0  0  0  0  0  0  0  0  0  0  0
    5.2852   -2.4935    7.5504 H   0  0  0  0  0  0  0  0  0  0  0  0
    5.7938   -1.6681    6.0871 H   0  0  0  0  0  0  0  0  0  0  0  0
    6.0618   -3.3858    6.2482 H   0  0  0  0  0  0  0  0  0  0  0  0
    1.9995   -1.9352    6.0012 H   0  0  0  0  0  0  0  0  0  0  0  0
    3.1779   -1.2387    7.0915 H   0  0  0  0  0  0  0  0  0  0  0  0
    4.3276   -0.1951    5.2504 H   0  0  0  0  0  0  0  0  0  0  0  0
    4.4052   -0.1175    2.2487 H   0  0  0  0  0  0  0  0  0  0  0  0
    4.9868   -1.7220    2.0267 H   0  0  0  0  0  0  0  0  0  0  0  0
    5.6249   -0.7646    3.3434 H   0  0  0  0  0  0  0  0  0  0  0  0
    2.4928   -2.2849    2.0300 H   0  0  0  0  0  0  0  0  0  0  0  0
    1.6470   -2.4551    3.5439 H   0  0  0  0  0  0  0  0  0  0  0  0
    2.0814    0.1495    2.0391 H   0  0  0  0  0  0  0  0  0  0  0  0
    0.6362   -0.8074    2.1254 H   0  0  0  0  0  0  0  0  0  0  0  0
    0.5110   -0.4660    4.5808 H   0  0  0  0  0  0  0  0  0  0  0  0
   -1.7377    1.8612    2.5989 H   0  0  0  0  0  0  0  0  0  0  0  0
   -1.4970    0.1687    3.0233 H   0  0  0  0  0  0  0  0  0  0  0  0
   -0.6031    0.9212    1.6905 H   0  0  0  0  0  0  0  0  0  0  0  0
   -1.5896    2.4113    4.7219 H   0  0  0  0  0  0  0  0  0  0  0  0
   -0.0803    2.7839    5.4624 H   0  0  0  0  0  0  0  0  0  0  0  0
   -0.7862    1.1850    5.6825 H   0  0  0  0  0  0  0  0  0  0  0  0
    1.2607    2.3284    2.0480 H   0  0  0  0  0  0  0  0  0  0  0  0
    0.3071    3.4935    2.9060 H   0  0  0  0  0  0  0  0  0  0  0  0
    2.7581    3.7467    3.2650 H   0  0  0  0  0  0  0  0  0  0  0  0
    1.9161    3.5377    4.7619 H   0  0  0  0  0  0  0  0  0  0  0  0
    3.5161    1.5023    3.2012 H   0  0  0  0  0  0  0  0  0  0  0  0
    3.9492    2.1364    4.7513 H   0  0  0  0  0  0  0  0  0  0  0  0
    1.6830    2.0735    6.3610 H   0  0  0  0  0  0  0  0  0  0  0  0
    2.9192    1.0274    6.9323 H   0  0  0  0  0  0  0  0  0  0  0  0
    1.2781    0.4123    6.7385 H   0  0  0  0  0  0  0  0  0  0  0  0
    4.4518   -3.7865    2.4702 H   0  0  0  0  0  0  0  0  0  0  0  0
  1  2  1  0
  1 39  1  0
  1 40  1  0
  1 41  1  0
  2 38  1  0
  2  3  2  0
  3  4  1  0
  3 42  1  0
  4  5  1  0
  4 43  1  0
  4 44  1  0
  5  6  1  0
  5  7  1  0
  5 45  1  6
  6 46  1  0
  6 47  1  0
  6 48  1  0
  7 38  1  0
  7  8  1  6
  7  9  1  0
  8 49  1  0
  8 50  1  0
  8 51  1  0
  9 10  1  0
  9 52  1  0
  9 53  1  0
 10 38  1  0
 10 11  2  0
 11 12  1  0
 11 13  1  0
 12 54  1  0
 12 55  1  0
 12 56  1  0
 13 35  1  0
 13 14  1  0
 13 37  1  6
 14 15  1  0
 14 57  1  0
 14 58  1  0
 15 16  1  0
 15 59  1  0
 15 60  1  0
 16 33  1  0
 16 17  1  1
 16 18  1  0
 17 61  1  0
 17 62  1  0
 17 63  1  0
 18 19  1  0
 18 64  1  0
 18 65  1  0
 19 31  1  0
 19 20  1  0
 19 66  1  1
 20 21  1  6
 20 22  1  0
 20 33  1  0
 21 67  1  0
 21 68  1  0
 21 69  1  0
 22 23  1  0
 22 70  1  0
 22 71  1  0
 23 24  1  0
 23 72  1  0
 23 73  1  0
 24 31  1  0
 24 25  1  0
 24 74  1  1
 25 26  1  0
 25 27  1  0
 25 28  1  0
 26 75  1  0
 26 76  1  0
 26 77  1  0
 27 78  1  0
 27 79  1  0
 27 80  1  0
 28 29  1  0
 28 81  1  0
 28 82  1  0
 29 30  1  0
 29 83  1  0
 29 84  1  0
 30 31  1  0
 30 85  1  0
 30 86  1  0
 31 32  1  1
 32 87  1  0
 32 88  1  0
 32 89  1  0
 33 34  2  0
 34 35  1  0
 34 90  1  0
 35 36  2  0
 38 37  1  6
M  END
>  <i_m_ct_stereo_status>  (222) 
1

>  <s_m_source_file>  (222) 
/var/tmp/pbs.5076255.sched01/tmpln0nb48r/86bqtw16pk.sdf

>  <i_m_source_file_index>  (222) 
25

>  <i_lp_mmshare_version>  (222) 
48012

>  <i_f3d_flags>  (222) 
0

>  <s_epik_input>  (222) 
W0NIM11DMT1bQ0hdW0NIMl1bQ0BASF0oW0NIM10pW0NAXShbQ0gzXSkoW0NIMl0yKUMxKE8zKUMyPUMoW0NIM10pW0NAXTM0W0NIMl1bQ0gyXVtDQEBdNShbQ0gzXSlDKD1bQ0hdQzQ9TylbQ0BdNihbQ0gzXSlbQ0BIXShbQ0gyXTUpW0NAXTcoW0NIM10pW0NASF0oW0NIMl1bQ0gyXTYpQyhbQ0gzXSkoW0NIM10pW0NIMl1bQ0gyXVtDSDJdNw==

>  <s_epik_cmdline>  (222) 
J2VwaWtfcHl0aG9uJywgJy1waHQnLCAnMi4wJywgJy1waCcsICc3LjAnLCAnLXRuJywgJzgnLCAnLW1hJywgJzIwMCcsICctaW1hZScsICc8aW5maWxlLm1hZT4nLCAnLW9tYWUnLCAnPG91dGZpbGUubWFlPic=

>  <r_lp_tautomer_probability>  (222) 
1

>  <r_epik_Ionization_Penalty>  (222) 
4.1704e-14

>  <r_epik_Ionization_Penalty_Charging>  (222) 
0

>  <r_epik_Ionization_Penalty_Neutral>  (222) 
4.1704e-14

>  <r_epik_State_Penalty>  (222) 
-0

>  <r_epik_Charging_Adjusted_Penalty>  (222) 
0

>  <i_epik_Tot_Q>  (222) 
0

>  <i_epik_Tot_abs_Q>  (222) 
0

>  <s_lp_Force_Field>  (222) 
OPLS3e

>  <r_lp_Energy>  (222) 
118.855

>  <b_lp_Chiralities_Consistent>  (222) 
1

>  <s_lp_Variant>  (222) 
71:0-2

>  <s_i_glide_gridfile>  (222) 
pfpi4k_grid

>  <i_i_glide_lignum>  (222) 
25

>  <i_i_glide_rotatable_bonds>  (222) 
0

>  <r_i_docking_score>  (222) 
-1.32567

>  <r_i_glide_ligand_efficiency>  (222) 
-0.0348861

>  <r_i_glide_ligand_efficiency_sa>  (222) 
-0.117286

>  <r_i_glide_ligand_efficiency_ln>  (222) 
-0.285854

>  <r_i_glide_gscore>  (222) 
-1.32567

>  <r_i_glide_lipo>  (222) 
-0.102286

>  <r_i_glide_hbond>  (222) 
0

>  <r_i_glide_metal>  (222) 
-0

>  <r_i_glide_rewards>  (222) 
-0.000381052

>  <r_i_glide_evdw>  (222) 
-23.0568

>  <r_i_glide_ecoul>  (222) 
-0.467772

>  <r_i_glide_erotb>  (222) 
0

>  <r_i_glide_esite>  (222) 
0

>  <r_i_glide_emodel>  (222) 
-25.0143

>  <r_i_glide_energy>  (222) 
-23.5246

>  <r_i_glide_einternal>  (222) 
0

>  <r_i_glide_intrahb_reward>  (222) 
-0

>  <i_i_glide_confnum>  (222) 
2

>  <i_i_glide_posenum>  (222) 
22

>  <r_i_glide_eff_state_penalty>  (222) 
0

>  <ligand_id>  (222) 
71

>  <original_smiles>  (222) 
CC1=CCC(C)C2(C)CC3=C(C)C4(CCC5(C)CC6C(C)(CCC7C(C)(C)CCCC76C)C5=CC4=O)OC132

>  <smiles>  (222) 
[H]C1=C2C(C([H])([H])[H])(C([H])([H])C([H])([H])C3(OC45C(C([H])([H])[H])=C([H])C([H])([H])C([H])(C([H])([H])[H])C4(C([H])([H])[H])C([H])([H])C5=C3C([H])([H])[H])C1=O)C([H])([H])C1([H])C2(C([H])([H])[H])C([H])([H])C([H])([H])C2([H])C(C([H])([H])[H])(C([H])([H])[H])C([H])([H])C([H])([H])C([H])([H])C12C([H])([H])[H]

$$$$
71:1:2
     RDKit          3D

 90 96  0  0  1  0  0  0  0  0999 V2000
    6.4725   -2.6535    7.6175 C   0  0  0  0  0  0  0  0  0  0  0  0
    5.9203   -1.2666    7.3889 C   0  0  0  0  0  0  0  0  0  0  0  0
    6.6640   -0.3086    6.7881 C   0  0  0  0  0  0  0  0  0  0  0  0
    6.1786    1.0902    6.5063 C   0  0  0  0  0  0  0  0  0  0  0  0
    4.6481    1.1786    6.3036 C   0  0  1  0  0  0  0  0  0  0  0  0
    4.3380    0.7344    4.8502 C   0  0  0  0  0  0  0  0  0  0  0  0
    3.8727    0.4055    7.4139 C   0  0  2  0  0  0  0  0  0  0  0  0
    2.3895    0.3920    7.0171 C   0  0  0  0  0  0  0  0  0  0  0  0
    4.1198    0.9336    8.8685 C   0  0  0  0  0  0  0  0  0  0  0  0
    4.2958   -0.5164    9.1443 C   0  0  0  0  0  0  0  0  0  0  0  0
    3.6313   -1.3217    9.9567 C   0  0  0  0  0  0  0  0  0  0  0  0
    3.1667   -0.9910   11.3678 C   0  0  0  0  0  0  0  0  0  0  0  0
    3.1198   -2.4871    9.0946 C   0  0  1  0  0  0  0  0  0  0  0  0
    3.7012   -3.8184    9.5849 C   0  0  0  0  0  0  0  0  0  0  0  0
    3.6043   -4.9633    8.5572 C   0  0  0  0  0  0  0  0  0  0  0  0
    2.2145   -5.5994    8.3138 C   0  0  2  0  0  0  0  0  0  0  0  0
    1.6526   -6.2008    9.6220 C   0  0  0  0  0  0  0  0  0  0  0  0
    2.3577   -6.7256    7.2680 C   0  0  0  0  0  0  0  0  0  0  0  0
    0.9673   -6.8969    6.6107 C   0  0  1  0  0  0  0  0  0  0  0  0
    0.4473   -5.4317    6.5453 C   0  0  2  0  0  0  0  0  0  0  0  0
   -1.0781   -5.3260    6.7740 C   0  0  0  0  0  0  0  0  0  0  0  0
    0.8552   -4.7879    5.2078 C   0  0  0  0  0  0  0  0  0  0  0  0
    0.5600   -5.6638    3.9850 C   0  0  0  0  0  0  0  0  0  0  0  0
    1.3102   -7.0221    4.0146 C   0  0  2  0  0  0  0  0  0  0  0  0
    1.1175   -7.8173    2.6627 C   0  0  0  0  0  0  0  0  0  0  0  0
    1.3342   -6.9107    1.4285 C   0  0  0  0  0  0  0  0  0  0  0  0
    2.1518   -8.9675    2.4905 C   0  0  0  0  0  0  0  0  0  0  0  0
   -0.3154   -8.3717    2.5803 C   0  0  0  0  0  0  0  0  0  0  0  0
   -0.7280   -9.1649    3.8095 C   0  0  0  0  0  0  0  0  0  0  0  0
   -0.5277   -8.3898    5.1222 C   0  0  0  0  0  0  0  0  0  0  0  0
    0.9064   -7.8096    5.3160 C   0  0  2  0  0  0  0  0  0  0  0  0
    1.8482   -9.0167    5.5929 C   0  0  0  0  0  0  0  0  0  0  0  0
    1.1823   -4.6851    7.6647 C   0  0  0  0  0  0  0  0  0  0  0  0
    0.9227   -3.3882    7.9546 C   0  0  0  0  0  0  0  0  0  0  0  0
    1.5686   -2.5490    8.9864 C   0  0  0  0  0  0  0  0  0  0  0  0
    0.8734   -1.8269    9.7007 O   0  0  0  0  0  0  0  0  0  0  0  0
    3.5959   -2.1789    7.7534 O   0  0  0  0  0  0  0  0  0  0  0  0
    4.4558   -1.0101    7.7655 C   0  0  2  0  0  0  0  0  0  0  0  0
    5.8649   -3.3983    7.1162 H   0  0  0  0  0  0  0  0  0  0  0  0
    6.5114   -2.8793    8.6806 H   0  0  0  0  0  0  0  0  0  0  0  0
    7.4858   -2.7400    7.2347 H   0  0  0  0  0  0  0  0  0  0  0  0
    7.6846   -0.5208    6.5101 H   0  0  0  0  0  0  0  0  0  0  0  0
    6.5026    1.7183    7.3352 H   0  0  0  0  0  0  0  0  0  0  0  0
    6.7133    1.4627    5.6282 H   0  0  0  0  0  0  0  0  0  0  0  0
    4.3901    2.2353    6.3569 H   0  0  0  0  0  0  0  0  0  0  0  0
    4.5635   -0.3181    4.6731 H   0  0  0  0  0  0  0  0  0  0  0  0
    4.9418    1.3139    4.1456 H   0  0  0  0  0  0  0  0  0  0  0  0
    3.2978    0.9228    4.5666 H   0  0  0  0  0  0  0  0  0  0  0  0
    1.7688    0.0614    7.8541 H   0  0  0  0  0  0  0  0  0  0  0  0
    2.2035   -0.3231    6.2057 H   0  0  0  0  0  0  0  0  0  0  0  0
    2.0206    1.3744    6.7148 H   0  0  0  0  0  0  0  0  0  0  0  0
    4.9825    1.5770    8.9563 H   0  0  0  0  0  0  0  0  0  0  0  0
    3.2531    1.4157    9.2969 H   0  0  0  0  0  0  0  0  0  0  0  0
    3.2929   -1.8459   12.0354 H   0  0  0  0  0  0  0  0  0  0  0  0
    2.1330   -0.6550   11.4240 H   0  0  0  0  0  0  0  0  0  0  0  0
    3.7780   -0.1826   11.7793 H   0  0  0  0  0  0  0  0  0  0  0  0
    4.7549   -3.6609    9.8056 H   0  0  0  0  0  0  0  0  0  0  0  0
    3.2573   -4.0982   10.5402 H   0  0  0  0  0  0  0  0  0  0  0  0
    4.0119   -4.6290    7.6052 H   0  0  0  0  0  0  0  0  0  0  0  0
    4.2753   -5.7488    8.8975 H   0  0  0  0  0  0  0  0  0  0  0  0
    2.3532   -6.9121   10.0633 H   0  0  0  0  0  0  0  0  0  0  0  0
    0.7143   -6.7309    9.4636 H   0  0  0  0  0  0  0  0  0  0  0  0
    1.4510   -5.4344   10.3733 H   0  0  0  0  0  0  0  0  0  0  0  0
    3.0669   -6.4286    6.4925 H   0  0  0  0  0  0  0  0  0  0  0  0
    2.7443   -7.6438    7.7103 H   0  0  0  0  0  0  0  0  0  0  0  0
    0.3719   -7.4223    7.3608 H   0  0  0  0  0  0  0  0  0  0  0  0
   -1.6552   -5.7489    5.9630 H   0  0  0  0  0  0  0  0  0  0  0  0
   -1.4153   -4.2981    6.8641 H   0  0  0  0  0  0  0  0  0  0  0  0
   -1.3674   -5.8324    7.6941 H   0  0  0  0  0  0  0  0  0  0  0  0
    0.3507   -3.8247    5.0866 H   0  0  0  0  0  0  0  0  0  0  0  0
    1.9221   -4.5657    5.2075 H   0  0  0  0  0  0  0  0  0  0  0  0
   -0.5142   -5.8248    3.9116 H   0  0  0  0  0  0  0  0  0  0  0  0
    0.8492   -5.0637    3.1266 H   0  0  0  0  0  0  0  0  0  0  0  0
    2.3689   -6.7749    4.0905 H   0  0  0  0  0  0  0  0  0  0  0  0
    1.3379   -7.4823    0.5038 H   0  0  0  0  0  0  0  0  0  0  0  0
    2.2719   -6.3552    1.4922 H   0  0  0  0  0  0  0  0  0  0  0  0
    0.5155   -6.2031    1.3102 H   0  0  0  0  0  0  0  0  0  0  0  0
    2.3870   -9.1771    1.4459 H   0  0  0  0  0  0  0  0  0  0  0  0
    1.7880   -9.9184    2.8765 H   0  0  0  0  0  0  0  0  0  0  0  0
    3.0980   -8.7498    2.9927 H   0  0  0  0  0  0  0  0  0  0  0  0
   -1.0272   -7.5560    2.4525 H   0  0  0  0  0  0  0  0  0  0  0  0
   -0.4320   -9.0119    1.7117 H   0  0  0  0  0  0  0  0  0  0  0  0
   -1.7838   -9.4027    3.6770 H   0  0  0  0  0  0  0  0  0  0  0  0
   -0.2183  -10.1234    3.8511 H   0  0  0  0  0  0  0  0  0  0  0  0
   -1.2589   -7.5933    5.1100 H   0  0  0  0  0  0  0  0  0  0  0  0
   -0.7959   -9.0344    5.9631 H   0  0  0  0  0  0  0  0  0  0  0  0
    1.6365   -9.8859    4.9780 H   0  0  0  0  0  0  0  0  0  0  0  0
    1.7470   -9.3877    6.6148 H   0  0  0  0  0  0  0  0  0  0  0  0
    2.8957   -8.7591    5.4321 H   0  0  0  0  0  0  0  0  0  0  0  0
    0.1534   -2.8859    7.3894 H   0  0  0  0  0  0  0  0  0  0  0  0
  1  2  1  0
  1 39  1  0
  1 40  1  0
  1 41  1  0
  2 38  1  0
  2  3  2  0
  3  4  1  0
  3 42  1  0
  4  5  1  0
  4 43  1  0
  4 44  1  0
  5  6  1  0
  5  7  1  0
  5 45  1  6
  6 46  1  0
  6 47  1  0
  6 48  1  0
  7 38  1  0
  7  8  1  6
  7  9  1  0
  8 49  1  0
  8 50  1  0
  8 51  1  0
  9 10  1  0
  9 52  1  0
  9 53  1  0
 10 38  1  0
 10 11  2  0
 11 12  1  0
 11 13  1  0
 12 54  1  0
 12 55  1  0
 12 56  1  0
 13 35  1  0
 13 14  1  0
 13 37  1  6
 14 15  1  0
 14 57  1  0
 14 58  1  0
 15 16  1  0
 15 59  1  0
 15 60  1  0
 16 33  1  0
 16 17  1  1
 16 18  1  0
 17 61  1  0
 17 62  1  0
 17 63  1  0
 18 19  1  0
 18 64  1  0
 18 65  1  0
 19 31  1  0
 19 20  1  0
 19 66  1  1
 20 21  1  1
 20 22  1  0
 20 33  1  0
 21 67  1  0
 21 68  1  0
 21 69  1  0
 22 23  1  0
 22 70  1  0
 22 71  1  0
 23 24  1  0
 23 72  1  0
 23 73  1  0
 24 31  1  0
 24 25  1  0
 24 74  1  1
 25 26  1  0
 25 27  1  0
 25 28  1  0
 26 75  1  0
 26 76  1  0
 26 77  1  0
 27 78  1  0
 27 79  1  0
 27 80  1  0
 28 29  1  0
 28 81  1  0
 28 82  1  0
 29 30  1  0
 29 83  1  0
 29 84  1  0
 30 31  1  0
 30 85  1  0
 30 86  1  0
 31 32  1  1
 32 87  1  0
 32 88  1  0
 32 89  1  0
 33 34  2  0
 34 35  1  0
 34 90  1  0
 35 36  2  0
 38 37  1  1
M  END
>  <i_m_ct_stereo_status>  (223) 
1

>  <s_m_source_file>  (223) 
/var/tmp/pbs.5076255.sched01/tmpln0nb48r/86bqtw16pk.sdf

>  <i_m_source_file_index>  (223) 
25

>  <i_lp_mmshare_version>  (223) 
48012

>  <i_f3d_flags>  (223) 
0

>  <s_epik_input>  (223) 
W0NIM11DMT1bQ0hdW0NIMl1bQ0BASF0oW0NIM10pW0NAXShbQ0gzXSkoW0NIMl0yKUMxKE8zKUMyPUMoW0NIM10pW0NAXTM0W0NIMl1bQ0gyXVtDQEBdNShbQ0gzXSlDKD1bQ0hdQzQ9TylbQ0BdNihbQ0gzXSlbQ0BIXShbQ0gyXTUpW0NAXTcoW0NIM10pW0NASF0oW0NIMl1bQ0gyXTYpQyhbQ0gzXSkoW0NIM10pW0NIMl1bQ0gyXVtDSDJdNw==

>  <s_epik_cmdline>  (223) 
J2VwaWtfcHl0aG9uJywgJy1waHQnLCAnMi4wJywgJy1waCcsICc3LjAnLCAnLXRuJywgJzgnLCAnLW1hJywgJzIwMCcsICctaW1hZScsICc8aW5maWxlLm1hZT4nLCAnLW9tYWUnLCAnPG91dGZpbGUubWFlPic=

>  <r_lp_tautomer_probability>  (223) 
1

>  <r_epik_Ionization_Penalty>  (223) 
4.1704e-14

>  <r_epik_Ionization_Penalty_Charging>  (223) 
0

>  <r_epik_Ionization_Penalty_Neutral>  (223) 
4.1704e-14

>  <r_epik_State_Penalty>  (223) 
-0

>  <r_epik_Charging_Adjusted_Penalty>  (223) 
0

>  <i_epik_Tot_Q>  (223) 
0

>  <i_epik_Tot_abs_Q>  (223) 
0

>  <s_lp_Force_Field>  (223) 
OPLS3e

>  <r_lp_Energy>  (223) 
118.855

>  <b_lp_Chiralities_Consistent>  (223) 
1

>  <s_lp_Variant>  (223) 
71:0-2

>  <s_i_glide_gridfile>  (223) 
pfpi4k_grid

>  <i_i_glide_lignum>  (223) 
25

>  <i_i_glide_rotatable_bonds>  (223) 
0

>  <r_i_docking_score>  (223) 
-1.17276

>  <r_i_glide_ligand_efficiency>  (223) 
-0.0308622

>  <r_i_glide_ligand_efficiency_sa>  (223) 
-0.103758

>  <r_i_glide_ligand_efficiency_ln>  (223) 
-0.252882

>  <r_i_glide_gscore>  (223) 
-1.17276

>  <r_i_glide_lipo>  (223) 
-0.277127

>  <r_i_glide_hbond>  (223) 
0

>  <r_i_glide_metal>  (223) 
-0

>  <r_i_glide_rewards>  (223) 
0

>  <r_i_glide_evdw>  (223) 
-18.6352

>  <r_i_glide_ecoul>  (223) 
0.26709

>  <r_i_glide_erotb>  (223) 
0

>  <r_i_glide_esite>  (223) 
-0.00393997

>  <r_i_glide_emodel>  (223) 
-19.5236

>  <r_i_glide_energy>  (223) 
-18.3681

>  <r_i_glide_einternal>  (223) 
0

>  <r_i_glide_intrahb_reward>  (223) 
-0

>  <i_i_glide_confnum>  (223) 
2

>  <i_i_glide_posenum>  (223) 
13

>  <r_i_glide_eff_state_penalty>  (223) 
0

>  <ligand_id>  (223) 
71

>  <original_smiles>  (223) 
CC1=CCC(C)C2(C)CC3=C(C)C4(CCC5(C)CC6C(C)(CCC7C(C)(C)CCCC76C)C5=CC4=O)OC132

>  <smiles>  (223) 
[H]C1=C2C(C([H])([H])[H])(C([H])([H])C([H])([H])C3(OC45C(C([H])([H])[H])=C([H])C([H])([H])C([H])(C([H])([H])[H])C4(C([H])([H])[H])C([H])([H])C5=C3C([H])([H])[H])C1=O)C([H])([H])C1([H])C2(C([H])([H])[H])C([H])([H])C([H])([H])C2([H])C(C([H])([H])[H])(C([H])([H])[H])C([H])([H])C([H])([H])C([H])([H])C12C([H])([H])[H]

$$$$
72:0:0
     RDKit          3D

 67 72  0  0  1  0  0  0  0  0999 V2000
   -1.7595   -8.1737    3.6957 C   0  0  0  0  0  0  0  0  0  0  0  0
   -0.6325   -7.5180    3.3741 C   0  0  0  0  0  0  0  0  0  0  0  0
    0.2023   -7.4514    2.1823 C   0  0  0  0  0  0  0  0  0  0  0  0
   -0.0042   -7.3282    0.9665 O   0  0  0  0  0  0  0  0  0  0  0  0
    1.3745   -7.3304    3.1797 C   0  0  1  0  0  0  0  0  0  0  0  0
    0.3242   -6.5202    4.0059 C   0  0  2  0  0  0  0  0  0  0  0  0
    0.8773   -6.1851    5.3611 C   0  0  0  0  0  0  0  0  0  0  0  0
    2.0146   -5.1106    5.0492 C   0  0  0  0  0  0  0  0  0  0  0  0
    2.6464   -5.1049    3.5732 C   0  0  1  0  0  0  0  0  0  0  0  0
    4.0876   -4.4800    3.4271 C   0  0  1  0  0  0  0  0  0  0  0  0
    4.9941   -4.6856    4.6572 C   0  0  0  0  0  0  0  0  0  0  0  0
    4.8163   -4.9764    2.1157 C   0  0  2  0  0  0  0  0  0  0  0  0
    4.8680   -6.5468    2.0906 C   0  0  0  0  0  0  0  0  0  0  0  0
    3.4321   -7.1202    1.9563 C   0  0  1  0  0  0  0  0  0  0  0  0
    3.1301   -8.6475    2.1506 C   0  0  1  0  0  0  0  0  0  0  0  0
    4.2663   -9.4349    2.4392 O   0  0  0  0  0  0  0  0  0  0  0  0
    1.9680   -8.7657    3.2150 C   0  0  1  0  0  0  0  0  0  0  0  0
    2.3981   -9.1123    4.5236 O   0  0  0  0  0  0  0  0  0  0  0  0
    2.6633   -6.5674    3.1053 C   0  0  2  0  0  0  0  0  0  0  0  0
    6.1163   -4.3160    1.9913 O   0  0  0  0  0  0  0  0  0  0  0  0
    5.5600   -3.3701    1.0189 C   0  0  1  0  0  0  0  0  0  0  0  0
    6.5112   -3.0141   -0.1749 C   0  0  2  0  0  0  0  0  0  0  0  0
    7.5482   -2.1458    0.2344 O   0  0  0  0  0  0  0  0  0  0  0  0
    5.7712   -2.4251   -1.3904 C   0  0  0  0  0  0  0  0  0  0  0  0
    5.5271   -3.2097   -2.5632 C   0  0  0  0  0  0  0  0  0  0  0  0
    4.6523   -2.7778   -3.5411 C   0  0  0  0  0  0  0  0  0  0  0  0
    4.1634   -1.4610   -3.5388 C   0  0  0  0  0  0  0  0  0  0  0  0
    3.4442   -1.0751   -4.6392 O   0  0  0  0  0  0  0  0  0  0  0  0
    3.0298    0.2711   -4.7145 C   0  0  0  0  0  0  0  0  0  0  0  0
    4.4877   -0.6377   -2.4376 C   0  0  0  0  0  0  0  0  0  0  0  0
    5.2540   -1.1152   -1.3501 C   0  0  0  0  0  0  0  0  0  0  0  0
    4.4184   -4.3695    0.7519 C   0  0  1  0  0  0  0  0  0  0  0  0
    4.5854   -5.3115   -0.4203 C   0  0  0  0  0  0  0  0  0  0  0  0
   -2.1702   -8.0772    4.6808 H   0  0  0  0  0  0  0  0  0  0  0  0
   -2.2607   -8.8414    3.0150 H   0  0  0  0  0  0  0  0  0  0  0  0
    0.0593   -5.5398    3.5855 H   0  0  0  0  0  0  0  0  0  0  0  0
    0.1194   -5.8049    6.0471 H   0  0  0  0  0  0  0  0  0  0  0  0
    1.3341   -7.0578    5.8341 H   0  0  0  0  0  0  0  0  0  0  0  0
    1.6380   -4.1119    5.2632 H   0  0  0  0  0  0  0  0  0  0  0  0
    2.7782   -5.2884    5.7979 H   0  0  0  0  0  0  0  0  0  0  0  0
    1.9938   -4.5600    2.8878 H   0  0  0  0  0  0  0  0  0  0  0  0
    3.9536   -3.4004    3.3438 H   0  0  0  0  0  0  0  0  0  0  0  0
    5.0873   -5.7316    4.9332 H   0  0  0  0  0  0  0  0  0  0  0  0
    4.6139   -4.1415    5.5118 H   0  0  0  0  0  0  0  0  0  0  0  0
    5.9992   -4.3024    4.4895 H   0  0  0  0  0  0  0  0  0  0  0  0
    5.4657   -6.9459    1.2791 H   0  0  0  0  0  0  0  0  0  0  0  0
    5.3665   -6.9304    2.9693 H   0  0  0  0  0  0  0  0  0  0  0  0
    2.9286   -6.8002    1.0457 H   0  0  0  0  0  0  0  0  0  0  0  0
    2.7367   -9.0300    1.2069 H   0  0  0  0  0  0  0  0  0  0  0  0
    4.0769  -10.3349    2.2039 H   0  0  0  0  0  0  0  0  0  0  0  0
    1.2657   -9.5489    2.9216 H   0  0  0  0  0  0  0  0  0  0  0  0
    1.6557   -9.4444    5.0117 H   0  0  0  0  0  0  0  0  0  0  0  0
    3.2715   -6.9319    3.9346 H   0  0  0  0  0  0  0  0  0  0  0  0
    5.2091   -2.4635    1.5441 H   0  0  0  0  0  0  0  0  0  0  0  0
    6.9863   -3.9491   -0.4937 H   0  0  0  0  0  0  0  0  0  0  0  0
    7.1840   -1.4665    0.7810 H   0  0  0  0  0  0  0  0  0  0  0  0
    5.9205   -4.2099   -2.6589 H   0  0  0  0  0  0  0  0  0  0  0  0
    4.3675   -3.4572   -4.3342 H   0  0  0  0  0  0  0  0  0  0  0  0
    2.4663    0.4049   -5.6417 H   0  0  0  0  0  0  0  0  0  0  0  0
    3.8841    0.9550   -4.7294 H   0  0  0  0  0  0  0  0  0  0  0  0
    2.3668    0.5239   -3.8865 H   0  0  0  0  0  0  0  0  0  0  0  0
    4.2071    0.4050   -2.4131 H   0  0  0  0  0  0  0  0  0  0  0  0
    5.4561   -0.4831   -0.5093 H   0  0  0  0  0  0  0  0  0  0  0  0
    3.4457   -3.8376    0.7714 H   0  0  0  0  0  0  0  0  0  0  0  0
    5.5516   -5.7934   -0.4415 H   0  0  0  0  0  0  0  0  0  0  0  0
    4.5089   -4.7040   -1.3074 H   0  0  0  0  0  0  0  0  0  0  0  0
    3.7573   -5.9667   -0.5996 H   0  0  0  0  0  0  0  0  0  0  0  0
  1  2  2  0
  1 34  1  0
  1 35  1  0
  2  6  1  0
  2  3  1  0
  3  4  2  0
  5  3  1  6
  5 17  1  0
  5 19  1  0
  5  6  1  0
  6  7  1  0
  6 36  1  6
  7  8  1  0
  7 37  1  0
  7 38  1  0
  8  9  1  0
  8 39  1  0
  8 40  1  0
  9 19  1  0
  9 10  1  0
  9 41  1  6
 10 11  1  0
 10 12  1  0
 10 42  1  6
 11 43  1  0
 11 44  1  0
 11 45  1  0
 12 32  1  0
 12 13  1  0
 12 20  1  1
 13 14  1  0
 13 46  1  0
 13 47  1  0
 14 15  1  0
 14 19  1  0
 14 48  1  6
 15 16  1  0
 15 17  1  0
 15 49  1  6
 16 50  1  0
 17 18  1  0
 17 51  1  6
 18 52  1  0
 19 53  1  1
 20 21  1  0
 21 22  1  0
 21 32  1  0
 21 54  1  1
 22 23  1  0
 22 24  1  0
 22 55  1  6
 23 56  1  0
 24 31  1  0
 24 25  2  0
 25 26  1  0
 25 57  1  0
 26 27  2  0
 26 58  1  0
 27 28  1  0
 27 30  1  0
 28 29  1  0
 29 59  1  0
 29 60  1  0
 29 61  1  0
 30 31  2  0
 30 62  1  0
 31 63  1  0
 32 33  1  0
 32 64  1  1
 33 65  1  0
 33 66  1  0
 33 67  1  0
M  END
>  <i_m_ct_stereo_status>  (224) 
1

>  <s_m_source_file>  (224) 
/var/tmp/pbs.5076255.sched01/tmpln0nb48r/86bqtw16pk.sdf

>  <i_m_source_file_index>  (224) 
26

>  <i_lp_mmshare_version>  (224) 
48012

>  <i_f3d_flags>  (224) 
0

>  <s_epik_input>  (224) 
Tz1DMUMoPVtDSDJdKVtDSF0oW0NAXTEyMylbQ0gyXVtDSDJdW0NAQEhdNFtDQEBIXTNbQ0BIXShbQ0BASF0oW09IXSlbQ0BIXTJbT0hdKVtDSDJdW0NAQF01KFtDQEBIXTRbQ0gzXSlPW0NASF0oW0NASF01W0NIM10pW0NASF0oW09IXSljNltjSF1bY0hdYyhPW0NIM10pW2NIXVtjSF02

>  <s_epik_cmdline>  (224) 
J2VwaWtfcHl0aG9uJywgJy1waHQnLCAnMi4wJywgJy1waCcsICc3LjAnLCAnLXRuJywgJzgnLCAnLW1hJywgJzIwMCcsICctaW1hZScsICc8aW5maWxlLm1hZT4nLCAnLW9tYWUnLCAnPG91dGZpbGUubWFlPic=

>  <r_lp_tautomer_probability>  (224) 
1

>  <r_epik_Ionization_Penalty>  (224) 
1.48505e-07

>  <r_epik_Ionization_Penalty_Charging>  (224) 
0

>  <r_epik_Ionization_Penalty_Neutral>  (224) 
1.48505e-07

>  <r_epik_State_Penalty>  (224) 
-0

>  <r_epik_Charging_Adjusted_Penalty>  (224) 
0

>  <i_epik_Tot_Q>  (224) 
0

>  <i_epik_Tot_abs_Q>  (224) 
0

>  <s_lp_Force_Field>  (224) 
OPLS3e

>  <r_lp_Energy>  (224) 
122.459

>  <b_lp_Chiralities_Consistent>  (224) 
1

>  <s_lp_Variant>  (224) 
72:0-1

>  <s_i_glide_gridfile>  (224) 
pfpi4k_grid

>  <i_i_glide_lignum>  (224) 
26

>  <i_i_glide_rotatable_bonds>  (224) 
6

>  <r_i_docking_score>  (224) 
-3.34902

>  <r_i_glide_ligand_efficiency>  (224) 
-0.101486

>  <r_i_glide_ligand_efficiency_sa>  (224) 
-0.325518

>  <r_i_glide_ligand_efficiency_ln>  (224) 
-0.744806

>  <r_i_glide_gscore>  (224) 
-3.34902

>  <r_i_glide_lipo>  (224) 
-0.796388

>  <r_i_glide_hbond>  (224) 
-0.230667

>  <r_i_glide_metal>  (224) 
-0

>  <r_i_glide_rewards>  (224) 
-0.30985

>  <r_i_glide_evdw>  (224) 
-34.6687

>  <r_i_glide_ecoul>  (224) 
-4.80757

>  <r_i_glide_erotb>  (224) 
0.194386

>  <r_i_glide_esite>  (224) 
-0.0633605

>  <r_i_glide_emodel>  (224) 
-42.3918

>  <r_i_glide_energy>  (224) 
-39.4763

>  <r_i_glide_einternal>  (224) 
3.40084

>  <r_i_glide_intrahb_reward>  (224) 
-0

>  <i_i_glide_confnum>  (224) 
2

>  <i_i_glide_posenum>  (224) 
26

>  <r_i_glide_eff_state_penalty>  (224) 
0

>  <ligand_id>  (224) 
72

>  <original_smiles>  (224) 
C=C1C(=O)C23C1CCC1C(C)C4(CC(C(O)C2O)C13)OC(C(O)c1ccc(OC)cc1)C4C

>  <smiles>  (224) 
[H]OC([H])(c1c([H])c([H])c(OC([H])([H])[H])c([H])c1[H])C1([H])OC2(C([H])([H])C3([H])C([H])(O[H])C([H])(O[H])C45C(=O)C(=C([H])[H])C4([H])C([H])([H])C([H])([H])C([H])(C2([H])C([H])([H])[H])C35[H])C1([H])C([H])([H])[H]

$$$$
72:0:1
     RDKit          3D

 67 72  0  0  1  0  0  0  0  0999 V2000
   -1.7626   -8.0105    3.7559 C   0  0  0  0  0  0  0  0  0  0  0  0
   -0.6342   -7.3804    3.4283 C   0  0  0  0  0  0  0  0  0  0  0  0
    0.1917   -7.3186    2.2102 C   0  0  0  0  0  0  0  0  0  0  0  0
   -0.0309   -7.1863    1.0114 O   0  0  0  0  0  0  0  0  0  0  0  0
    1.3793   -7.2272    3.2039 C   0  0  1  0  0  0  0  0  0  0  0  0
    0.3546   -6.4013    4.0476 C   0  0  2  0  0  0  0  0  0  0  0  0
    0.9304   -6.0844    5.3983 C   0  0  0  0  0  0  0  0  0  0  0  0
    2.0839   -5.0280    5.0769 C   0  0  0  0  0  0  0  0  0  0  0  0
    2.6959   -5.0253    3.5936 C   0  0  1  0  0  0  0  0  0  0  0  0
    4.1464   -4.4276    3.4314 C   0  0  1  0  0  0  0  0  0  0  0  0
    5.0655   -4.6581    4.6481 C   0  0  0  0  0  0  0  0  0  0  0  0
    4.8502   -4.9285    2.1081 C   0  0  2  0  0  0  0  0  0  0  0  0
    4.8679   -6.5009    2.0699 C   0  0  0  0  0  0  0  0  0  0  0  0
    3.4213   -7.0463    1.9530 C   0  0  1  0  0  0  0  0  0  0  0  0
    3.0917   -8.5716    2.1423 C   0  0  1  0  0  0  0  0  0  0  0  0
    4.2077   -9.3860    2.4329 O   0  0  0  0  0  0  0  0  0  0  0  0
    1.9449   -8.6720    3.2234 C   0  0  1  0  0  0  0  0  0  0  0  0
    2.3837   -9.0130    4.5324 O   0  0  0  0  0  0  0  0  0  0  0  0
    2.6789   -6.4859    3.1153 C   0  0  2  0  0  0  0  0  0  0  0  0
    6.1605   -4.2903    1.9645 O   0  0  0  0  0  0  0  0  0  0  0  0
    5.6060   -3.3300    1.0082 C   0  0  1  0  0  0  0  0  0  0  0  0
    6.5453   -2.9890   -0.1987 C   0  0  2  0  0  0  0  0  0  0  0  0
    7.5669   -2.1008    0.1991 O   0  0  0  0  0  0  0  0  0  0  0  0
    5.7956   -2.4125   -1.4139 C   0  0  0  0  0  0  0  0  0  0  0  0
    5.5541   -3.2136   -2.5592 C   0  0  0  0  0  0  0  0  0  0  0  0
    4.6673   -2.7852   -3.5533 C   0  0  0  0  0  0  0  0  0  0  0  0
    4.1708   -1.4785   -3.5496 C   0  0  0  0  0  0  0  0  0  0  0  0
    3.4382   -1.1024   -4.6504 O   0  0  0  0  0  0  0  0  0  0  0  0
    3.0001    0.2383   -4.7253 C   0  0  0  0  0  0  0  0  0  0  0  0
    4.4938   -0.6377   -2.4574 C   0  0  0  0  0  0  0  0  0  0  0  0
    5.2732   -1.1040   -1.3767 C   0  0  0  0  0  0  0  0  0  0  0  0
    4.4420   -4.3054    0.7521 C   0  0  1  0  0  0  0  0  0  0  0  0
    4.5768   -5.2328   -0.4437 C   0  0  0  0  0  0  0  0  0  0  0  0
   -2.1607   -7.9131    4.7499 H   0  0  0  0  0  0  0  0  0  0  0  0
   -2.2909   -8.6651    3.0807 H   0  0  0  0  0  0  0  0  0  0  0  0
    0.1004   -5.4147    3.6389 H   0  0  0  0  0  0  0  0  0  0  0  0
    0.1898   -5.6940    6.0970 H   0  0  0  0  0  0  0  0  0  0  0  0
    1.3767   -6.9687    5.8598 H   0  0  0  0  0  0  0  0  0  0  0  0
    1.7289   -4.0236    5.3035 H   0  0  0  0  0  0  0  0  0  0  0  0
    2.8527   -5.2261    5.8146 H   0  0  0  0  0  0  0  0  0  0  0  0
    2.0439   -4.4650    2.9200 H   0  0  0  0  0  0  0  0  0  0  0  0
    4.0321   -3.3447    3.3564 H   0  0  0  0  0  0  0  0  0  0  0  0
    5.1416   -5.7072    4.9166 H   0  0  0  0  0  0  0  0  0  0  0  0
    4.7066   -4.1122    5.5109 H   0  0  0  0  0  0  0  0  0  0  0  0
    6.0750   -4.2935    4.4697 H   0  0  0  0  0  0  0  0  0  0  0  0
    5.4480   -6.9050    1.2474 H   0  0  0  0  0  0  0  0  0  0  0  0
    5.3708   -6.8984    2.9402 H   0  0  0  0  0  0  0  0  0  0  0  0
    2.9105   -6.7106    1.0523 H   0  0  0  0  0  0  0  0  0  0  0  0
    2.6781   -8.9408    1.2002 H   0  0  0  0  0  0  0  0  0  0  0  0
    3.9912  -10.2845    2.2186 H   0  0  0  0  0  0  0  0  0  0  0  0
    1.2184   -9.4378    2.9408 H   0  0  0  0  0  0  0  0  0  0  0  0
    2.5957   -9.9344    4.5528 H   0  0  0  0  0  0  0  0  0  0  0  0
    3.2908   -6.8647    3.9359 H   0  0  0  0  0  0  0  0  0  0  0  0
    5.2808   -2.4174    1.5413 H   0  0  0  0  0  0  0  0  0  0  0  0
    7.0197   -3.9271   -0.5053 H   0  0  0  0  0  0  0  0  0  0  0  0
    8.0588   -2.5180    0.8894 H   0  0  0  0  0  0  0  0  0  0  0  0
    5.9402   -4.2160   -2.6467 H   0  0  0  0  0  0  0  0  0  0  0  0
    4.3812   -3.4746   -4.3315 H   0  0  0  0  0  0  0  0  0  0  0  0
    2.4323    0.3605   -5.6504 H   0  0  0  0  0  0  0  0  0  0  0  0
    3.8421    0.9369   -4.7449 H   0  0  0  0  0  0  0  0  0  0  0  0
    2.3356    0.4801   -3.8951 H   0  0  0  0  0  0  0  0  0  0  0  0
    4.1930    0.3996   -2.4402 H   0  0  0  0  0  0  0  0  0  0  0  0
    5.4728   -0.4701   -0.5364 H   0  0  0  0  0  0  0  0  0  0  0  0
    3.4807   -3.7577    0.7879 H   0  0  0  0  0  0  0  0  0  0  0  0
    5.5351   -5.7439   -0.4659 H   0  0  0  0  0  0  0  0  0  0  0  0
    4.4961   -4.6258   -1.3182 H   0  0  0  0  0  0  0  0  0  0  0  0
    3.7294   -5.8835   -0.5974 H   0  0  0  0  0  0  0  0  0  0  0  0
  1  2  2  0
  1 34  1  0
  1 35  1  0
  2  6  1  0
  2  3  1  0
  3  4  2  0
  5  3  1  6
  5 17  1  0
  5 19  1  0
  5  6  1  0
  6  7  1  0
  6 36  1  6
  7  8  1  0
  7 37  1  0
  7 38  1  0
  8  9  1  0
  8 39  1  0
  8 40  1  0
  9 19  1  0
  9 10  1  0
  9 41  1  6
 10 11  1  0
 10 12  1  0
 10 42  1  6
 11 43  1  0
 11 44  1  0
 11 45  1  0
 12 32  1  0
 12 13  1  0
 12 20  1  1
 13 14  1  0
 13 46  1  0
 13 47  1  0
 14 15  1  0
 14 19  1  0
 14 48  1  6
 15 16  1  0
 15 17  1  0
 15 49  1  6
 16 50  1  0
 17 18  1  0
 17 51  1  6
 18 52  1  0
 19 53  1  1
 20 21  1  0
 21 22  1  0
 21 32  1  0
 21 54  1  1
 22 23  1  0
 22 24  1  0
 22 55  1  6
 23 56  1  0
 24 31  1  0
 24 25  2  0
 25 26  1  0
 25 57  1  0
 26 27  2  0
 26 58  1  0
 27 28  1  0
 27 30  1  0
 28 29  1  0
 29 59  1  0
 29 60  1  0
 29 61  1  0
 30 31  2  0
 30 62  1  0
 31 63  1  0
 32 33  1  0
 32 64  1  1
 33 65  1  0
 33 66  1  0
 33 67  1  0
M  END
>  <i_m_ct_stereo_status>  (225) 
1

>  <s_m_source_file>  (225) 
/var/tmp/pbs.5076255.sched01/tmpln0nb48r/86bqtw16pk.sdf

>  <i_m_source_file_index>  (225) 
26

>  <i_lp_mmshare_version>  (225) 
48012

>  <i_f3d_flags>  (225) 
0

>  <s_epik_input>  (225) 
Tz1DMUMoPVtDSDJdKVtDSF0oW0NAXTEyMylbQ0gyXVtDSDJdW0NAQEhdNFtDQEBIXTNbQ0BIXShbQ0BASF0oW09IXSlbQ0BIXTJbT0hdKVtDSDJdW0NAQF01KFtDQEBIXTRbQ0gzXSlPW0NASF0oW0NASF01W0NIM10pW0NASF0oW09IXSljNltjSF1bY0hdYyhPW0NIM10pW2NIXVtjSF02

>  <s_epik_cmdline>  (225) 
J2VwaWtfcHl0aG9uJywgJy1waHQnLCAnMi4wJywgJy1waCcsICc3LjAnLCAnLXRuJywgJzgnLCAnLW1hJywgJzIwMCcsICctaW1hZScsICc8aW5maWxlLm1hZT4nLCAnLW9tYWUnLCAnPG91dGZpbGUubWFlPic=

>  <r_lp_tautomer_probability>  (225) 
1

>  <r_epik_Ionization_Penalty>  (225) 
1.48505e-07

>  <r_epik_Ionization_Penalty_Charging>  (225) 
0

>  <r_epik_Ionization_Penalty_Neutral>  (225) 
1.48505e-07

>  <r_epik_State_Penalty>  (225) 
-0

>  <r_epik_Charging_Adjusted_Penalty>  (225) 
0

>  <i_epik_Tot_Q>  (225) 
0

>  <i_epik_Tot_abs_Q>  (225) 
0

>  <s_lp_Force_Field>  (225) 
OPLS3e

>  <r_lp_Energy>  (225) 
122.459

>  <b_lp_Chiralities_Consistent>  (225) 
1

>  <s_lp_Variant>  (225) 
72:0-1

>  <s_i_glide_gridfile>  (225) 
pfpi4k_grid

>  <i_i_glide_lignum>  (225) 
26

>  <i_i_glide_rotatable_bonds>  (225) 
6

>  <r_i_docking_score>  (225) 
-3.30773

>  <r_i_glide_ligand_efficiency>  (225) 
-0.100234

>  <r_i_glide_ligand_efficiency_sa>  (225) 
-0.321505

>  <r_i_glide_ligand_efficiency_ln>  (225) 
-0.735623

>  <r_i_glide_gscore>  (225) 
-3.30773

>  <r_i_glide_lipo>  (225) 
-0.814614

>  <r_i_glide_hbond>  (225) 
-0.248754

>  <r_i_glide_metal>  (225) 
-0

>  <r_i_glide_rewards>  (225) 
-0.30985

>  <r_i_glide_evdw>  (225) 
-34.3998

>  <r_i_glide_ecoul>  (225) 
-4.70679

>  <r_i_glide_erotb>  (225) 
0.194386

>  <r_i_glide_esite>  (225) 
-0.0662151

>  <r_i_glide_emodel>  (225) 
-42.0314

>  <r_i_glide_energy>  (225) 
-39.1066

>  <r_i_glide_einternal>  (225) 
3.02419

>  <r_i_glide_intrahb_reward>  (225) 
-0

>  <i_i_glide_confnum>  (225) 
2

>  <i_i_glide_posenum>  (225) 
37

>  <r_i_glide_eff_state_penalty>  (225) 
0

>  <ligand_id>  (225) 
72

>  <original_smiles>  (225) 
C=C1C(=O)C23C1CCC1C(C)C4(CC(C(O)C2O)C13)OC(C(O)c1ccc(OC)cc1)C4C

>  <smiles>  (225) 
[H]OC([H])(c1c([H])c([H])c(OC([H])([H])[H])c([H])c1[H])C1([H])OC2(C([H])([H])C3([H])C([H])(O[H])C([H])(O[H])C45C(=O)C(=C([H])[H])C4([H])C([H])([H])C([H])([H])C([H])(C2([H])C([H])([H])[H])C35[H])C1([H])C([H])([H])[H]

$$$$
72:0:2
     RDKit          3D

 67 72  0  0  1  0  0  0  0  0999 V2000
   -1.7573   -8.0863    3.7290 C   0  0  0  0  0  0  0  0  0  0  0  0
   -0.6474   -7.4528    3.4125 C   0  0  0  0  0  0  0  0  0  0  0  0
    0.2011   -7.3811    2.1871 C   0  0  0  0  0  0  0  0  0  0  0  0
   -0.0152   -7.2673    0.9934 O   0  0  0  0  0  0  0  0  0  0  0  0
    1.3736   -7.2749    3.1991 C   0  0  1  0  0  0  0  0  0  0  0  0
    0.3304   -6.4542    4.0269 C   0  0  2  0  0  0  0  0  0  0  0  0
    0.8977   -6.1193    5.3794 C   0  0  0  0  0  0  0  0  0  0  0  0
    2.0381   -5.0511    5.0579 C   0  0  0  0  0  0  0  0  0  0  0  0
    2.6676   -5.0533    3.5817 C   0  0  1  0  0  0  0  0  0  0  0  0
    4.1077   -4.4412    3.4276 C   0  0  1  0  0  0  0  0  0  0  0  0
    5.0204   -4.6511    4.6523 C   0  0  0  0  0  0  0  0  0  0  0  0
    4.8231   -4.9486    2.1144 C   0  0  2  0  0  0  0  0  0  0  0  0
    4.8629   -6.5152    2.0846 C   0  0  0  0  0  0  0  0  0  0  0  0
    3.4275   -7.0766    1.9619 C   0  0  1  0  0  0  0  0  0  0  0  0
    3.1128   -8.6031    2.1616 C   0  0  1  0  0  0  0  0  0  0  0  0
    4.2444   -9.3994    2.4473 O   0  0  0  0  0  0  0  0  0  0  0  0
    1.9560   -8.7119    3.2325 C   0  0  1  0  0  0  0  0  0  0  0  0
    2.3865   -9.0572    4.5423 O   0  0  0  0  0  0  0  0  0  0  0  0
    2.6661   -6.5177    3.1137 C   0  0  2  0  0  0  0  0  0  0  0  0
    6.1419   -4.2943    1.9792 O   0  0  0  0  0  0  0  0  0  0  0  0
    5.5751   -3.3411    1.0067 C   0  0  1  0  0  0  0  0  0  0  0  0
    6.5188   -3.0035   -0.1957 C   0  0  2  0  0  0  0  0  0  0  0  0
    7.5447   -2.1202    0.2113 O   0  0  0  0  0  0  0  0  0  0  0  0
    5.7761   -2.4242   -1.4104 C   0  0  0  0  0  0  0  0  0  0  0  0
    5.5313   -3.1930   -2.5580 C   0  0  0  0  0  0  0  0  0  0  0  0
    4.6543   -2.7849   -3.5576 C   0  0  0  0  0  0  0  0  0  0  0  0
    4.1752   -1.4812   -3.5487 C   0  0  0  0  0  0  0  0  0  0  0  0
    3.4431   -1.0887   -4.6577 O   0  0  0  0  0  0  0  0  0  0  0  0
    3.0453    0.2657   -4.7500 C   0  0  0  0  0  0  0  0  0  0  0  0
    4.4909   -0.6343   -2.4553 C   0  0  0  0  0  0  0  0  0  0  0  0
    5.2616   -1.1194   -1.3727 C   0  0  0  0  0  0  0  0  0  0  0  0
    4.4225   -4.3318    0.7529 C   0  0  1  0  0  0  0  0  0  0  0  0
    4.5911   -5.2368   -0.4887 C   0  0  0  0  0  0  0  0  0  0  0  0
   -2.1699   -7.9896    4.7175 H   0  0  0  0  0  0  0  0  0  0  0  0
   -2.2754   -8.7569    3.0528 H   0  0  0  0  0  0  0  0  0  0  0  0
    0.0728   -5.4705    3.6087 H   0  0  0  0  0  0  0  0  0  0  0  0
    0.1434   -5.7323    6.0683 H   0  0  0  0  0  0  0  0  0  0  0  0
    1.3479   -6.9945    5.8518 H   0  0  0  0  0  0  0  0  0  0  0  0
    1.6709   -4.0518    5.2745 H   0  0  0  0  0  0  0  0  0  0  0  0
    2.8046   -5.2369    5.8050 H   0  0  0  0  0  0  0  0  0  0  0  0
    2.0105   -4.5069    2.8972 H   0  0  0  0  0  0  0  0  0  0  0  0
    3.9823   -3.3599    3.3417 H   0  0  0  0  0  0  0  0  0  0  0  0
    5.1060   -5.6978    4.9294 H   0  0  0  0  0  0  0  0  0  0  0  0
    4.6474   -4.1034    5.5077 H   0  0  0  0  0  0  0  0  0  0  0  0
    6.0260   -4.2764    4.4793 H   0  0  0  0  0  0  0  0  0  0  0  0
    5.4592   -6.9192    1.2714 H   0  0  0  0  0  0  0  0  0  0  0  0
    5.3667   -6.9014    2.9670 H   0  0  0  0  0  0  0  0  0  0  0  0
    2.9205   -6.7563    1.0546 H   0  0  0  0  0  0  0  0  0  0  0  0
    2.7120   -8.9852    1.2205 H   0  0  0  0  0  0  0  0  0  0  0  0
    4.0384  -10.3012    2.2397 H   0  0  0  0  0  0  0  0  0  0  0  0
    1.2461   -9.4890    2.9439 H   0  0  0  0  0  0  0  0  0  0  0  0
    1.6368   -9.3273    5.0481 H   0  0  0  0  0  0  0  0  0  0  0  0
    3.2769   -6.8854    3.9425 H   0  0  0  0  0  0  0  0  0  0  0  0
    5.2368   -2.4324    1.5309 H   0  0  0  0  0  0  0  0  0  0  0  0
    6.9953   -3.9405   -0.5019 H   0  0  0  0  0  0  0  0  0  0  0  0
    8.0437   -2.5486    0.8887 H   0  0  0  0  0  0  0  0  0  0  0  0
    5.9146   -4.2383   -2.6260 H   0  0  0  0  0  0  0  0  0  0  0  0
    4.3769   -3.4640   -4.3370 H   0  0  0  0  0  0  0  0  0  0  0  0
    2.4804    0.3888   -5.6732 H   0  0  0  0  0  0  0  0  0  0  0  0
    3.9103    0.9333   -4.7809 H   0  0  0  0  0  0  0  0  0  0  0  0
    2.3933    0.5388   -3.9188 H   0  0  0  0  0  0  0  0  0  0  0  0
    4.2094    0.4042   -2.4371 H   0  0  0  0  0  0  0  0  0  0  0  0
    5.4621   -0.4759   -0.5287 H   0  0  0  0  0  0  0  0  0  0  0  0
    3.4602   -3.7998    0.7719 H   0  0  0  0  0  0  0  0  0  0  0  0
    5.5542   -5.7798   -0.4423 H   0  0  0  0  0  0  0  0  0  0  0  0
    4.5065   -4.6851   -1.3134 H   0  0  0  0  0  0  0  0  0  0  0  0
    3.7465   -5.9257   -0.5981 H   0  0  0  0  0  0  0  0  0  0  0  0
  1  2  2  0
  1 34  1  0
  1 35  1  0
  2  6  1  0
  2  3  1  0
  3  4  2  0
  5  3  1  6
  5 17  1  0
  5 19  1  0
  5  6  1  0
  6  7  1  0
  6 36  1  6
  7  8  1  0
  7 37  1  0
  7 38  1  0
  8  9  1  0
  8 39  1  0
  8 40  1  0
  9 19  1  0
  9 10  1  0
  9 41  1  6
 10 11  1  0
 10 12  1  0
 10 42  1  6
 11 43  1  0
 11 44  1  0
 11 45  1  0
 12 32  1  0
 12 13  1  0
 12 20  1  1
 13 14  1  0
 13 46  1  0
 13 47  1  0
 14 15  1  0
 14 19  1  0
 14 48  1  6
 15 16  1  0
 15 17  1  0
 15 49  1  6
 16 50  1  0
 17 18  1  0
 17 51  1  6
 18 52  1  0
 19 53  1  1
 20 21  1  0
 21 22  1  0
 21 32  1  0
 21 54  1  1
 22 23  1  0
 22 24  1  0
 22 55  1  6
 23 56  1  0
 24 31  1  0
 24 25  2  0
 25 26  1  0
 25 57  1  0
 26 27  2  0
 26 58  1  0
 27 28  1  0
 27 30  1  0
 28 29  1  0
 29 59  1  0
 29 60  1  0
 29 61  1  0
 30 31  2  0
 30 62  1  0
 31 63  1  0
 32 33  1  0
 32 64  1  1
 33 65  1  0
 33 66  1  0
 33 67  1  0
M  END
>  <i_m_ct_stereo_status>  (226) 
1

>  <s_m_source_file>  (226) 
/var/tmp/pbs.5076255.sched01/tmpln0nb48r/86bqtw16pk.sdf

>  <i_m_source_file_index>  (226) 
26

>  <i_lp_mmshare_version>  (226) 
48012

>  <i_f3d_flags>  (226) 
0

>  <s_epik_input>  (226) 
Tz1DMUMoPVtDSDJdKVtDSF0oW0NAXTEyMylbQ0gyXVtDSDJdW0NAQEhdNFtDQEBIXTNbQ0BIXShbQ0BASF0oW09IXSlbQ0BIXTJbT0hdKVtDSDJdW0NAQF01KFtDQEBIXTRbQ0gzXSlPW0NASF0oW0NASF01W0NIM10pW0NASF0oW09IXSljNltjSF1bY0hdYyhPW0NIM10pW2NIXVtjSF02

>  <s_epik_cmdline>  (226) 
J2VwaWtfcHl0aG9uJywgJy1waHQnLCAnMi4wJywgJy1waCcsICc3LjAnLCAnLXRuJywgJzgnLCAnLW1hJywgJzIwMCcsICctaW1hZScsICc8aW5maWxlLm1hZT4nLCAnLW9tYWUnLCAnPG91dGZpbGUubWFlPic=

>  <r_lp_tautomer_probability>  (226) 
1

>  <r_epik_Ionization_Penalty>  (226) 
1.48505e-07

>  <r_epik_Ionization_Penalty_Charging>  (226) 
0

>  <r_epik_Ionization_Penalty_Neutral>  (226) 
1.48505e-07

>  <r_epik_State_Penalty>  (226) 
-0

>  <r_epik_Charging_Adjusted_Penalty>  (226) 
0

>  <i_epik_Tot_Q>  (226) 
0

>  <i_epik_Tot_abs_Q>  (226) 
0

>  <s_lp_Force_Field>  (226) 
OPLS3e

>  <r_lp_Energy>  (226) 
122.459

>  <b_lp_Chiralities_Consistent>  (226) 
1

>  <s_lp_Variant>  (226) 
72:0-1

>  <s_i_glide_gridfile>  (226) 
pfpi4k_grid

>  <i_i_glide_lignum>  (226) 
26

>  <i_i_glide_rotatable_bonds>  (226) 
6

>  <r_i_docking_score>  (226) 
-3.2082

>  <r_i_glide_ligand_efficiency>  (226) 
-0.0972181

>  <r_i_glide_ligand_efficiency_sa>  (226) 
-0.31183

>  <r_i_glide_ligand_efficiency_ln>  (226) 
-0.713487

>  <r_i_glide_gscore>  (226) 
-3.2082

>  <r_i_glide_lipo>  (226) 
-0.806182

>  <r_i_glide_hbond>  (226) 
-0.247602

>  <r_i_glide_metal>  (226) 
-0

>  <r_i_glide_rewards>  (226) 
-0.30985

>  <r_i_glide_evdw>  (226) 
-34.5631

>  <r_i_glide_ecoul>  (226) 
-4.34642

>  <r_i_glide_erotb>  (226) 
0.194386

>  <r_i_glide_esite>  (226) 
-0.0642653

>  <r_i_glide_emodel>  (226) 
-41.6131

>  <r_i_glide_energy>  (226) 
-38.9095

>  <r_i_glide_einternal>  (226) 
2.82038

>  <r_i_glide_intrahb_reward>  (226) 
-0

>  <i_i_glide_confnum>  (226) 
2

>  <i_i_glide_posenum>  (226) 
27

>  <r_i_glide_eff_state_penalty>  (226) 
0

>  <ligand_id>  (226) 
72

>  <original_smiles>  (226) 
C=C1C(=O)C23C1CCC1C(C)C4(CC(C(O)C2O)C13)OC(C(O)c1ccc(OC)cc1)C4C

>  <smiles>  (226) 
[H]OC([H])(c1c([H])c([H])c(OC([H])([H])[H])c([H])c1[H])C1([H])OC2(C([H])([H])C3([H])C([H])(O[H])C([H])(O[H])C45C(=O)C(=C([H])[H])C4([H])C([H])([H])C([H])([H])C([H])(C2([H])C([H])([H])[H])C35[H])C1([H])C([H])([H])[H]

$$$$
72:1:0
     RDKit          3D

 67 72  0  0  1  0  0  0  0  0999 V2000
   -1.7532   -7.3918    3.9444 C   0  0  0  0  0  0  0  0  0  0  0  0
   -0.4258   -7.4095    3.7557 C   0  0  0  0  0  0  0  0  0  0  0  0
    0.3613   -7.5285    2.5703 C   0  0  0  0  0  0  0  0  0  0  0  0
    0.0867   -7.3975    1.3660 O   0  0  0  0  0  0  0  0  0  0  0  0
    1.6254   -7.7463    3.4318 C   0  0  1  0  0  0  0  0  0  0  0  0
    0.7753   -7.4310    4.7062 C   0  0  1  0  0  0  0  0  0  0  0  0
    1.1118   -6.0825    5.3678 C   0  0  0  0  0  0  0  0  0  0  0  0
    1.4105   -4.9289    4.3609 C   0  0  0  0  0  0  0  0  0  0  0  0
    2.4463   -5.2625    3.2463 C   0  0  1  0  0  0  0  0  0  0  0  0
    3.8026   -4.4868    3.2701 C   0  0  1  0  0  0  0  0  0  0  0  0
    4.5406   -4.5419    4.6124 C   0  0  0  0  0  0  0  0  0  0  0  0
    4.7269   -4.9663    2.0914 C   0  0  2  0  0  0  0  0  0  0  0  0
    4.8872   -6.5313    2.0805 C   0  0  0  0  0  0  0  0  0  0  0  0
    3.5071   -7.2237    1.9750 C   0  0  1  0  0  0  0  0  0  0  0  0
    3.3303   -8.7680    2.0037 C   0  0  1  0  0  0  0  0  0  0  0  0
    4.5352   -9.5071    2.0340 O   0  0  0  0  0  0  0  0  0  0  0  0
    2.3214   -9.0861    3.1511 C   0  0  1  0  0  0  0  0  0  0  0  0
    2.9676   -9.5055    4.3474 O   0  0  0  0  0  0  0  0  0  0  0  0
    2.7458   -6.7675    3.1910 C   0  0  2  0  0  0  0  0  0  0  0  0
    6.0266   -4.2823    2.0327 O   0  0  0  0  0  0  0  0  0  0  0  0
    5.5176   -3.3603    1.0169 C   0  0  1  0  0  0  0  0  0  0  0  0
    6.4784   -3.0366   -0.1745 C   0  0  2  0  0  0  0  0  0  0  0  0
    7.5076   -2.1627    0.2460 O   0  0  0  0  0  0  0  0  0  0  0  0
    5.7469   -2.4344   -1.3904 C   0  0  0  0  0  0  0  0  0  0  0  0
    5.5182   -3.2215   -2.5404 C   0  0  0  0  0  0  0  0  0  0  0  0
    4.6488   -2.7691   -3.5673 C   0  0  0  0  0  0  0  0  0  0  0  0
    4.1857   -1.4601   -3.5545 C   0  0  0  0  0  0  0  0  0  0  0  0
    3.4884   -1.0570   -4.6653 O   0  0  0  0  0  0  0  0  0  0  0  0
    3.0638    0.2971   -4.7334 C   0  0  0  0  0  0  0  0  0  0  0  0
    4.4894   -0.6368   -2.4340 C   0  0  0  0  0  0  0  0  0  0  0  0
    5.2375   -1.1302   -1.3522 C   0  0  0  0  0  0  0  0  0  0  0  0
    4.3607   -4.3388    0.7308 C   0  0  1  0  0  0  0  0  0  0  0  0
    4.4732   -5.2425   -0.4968 C   0  0  0  0  0  0  0  0  0  0  0  0
   -2.1260   -7.3492    4.9401 H   0  0  0  0  0  0  0  0  0  0  0  0
   -2.4801   -7.4625    3.1494 H   0  0  0  0  0  0  0  0  0  0  0  0
    0.7746   -8.2603    5.4055 H   0  0  0  0  0  0  0  0  0  0  0  0
    0.3289   -5.7841    6.0645 H   0  0  0  0  0  0  0  0  0  0  0  0
    2.0047   -6.2324    5.9802 H   0  0  0  0  0  0  0  0  0  0  0  0
    0.4611   -4.6945    3.8771 H   0  0  0  0  0  0  0  0  0  0  0  0
    1.6861   -4.0110    4.8804 H   0  0  0  0  0  0  0  0  0  0  0  0
    1.9557   -4.9951    2.3078 H   0  0  0  0  0  0  0  0  0  0  0  0
    3.5746   -3.4384    3.0936 H   0  0  0  0  0  0  0  0  0  0  0  0
    4.8824   -5.5412    4.8675 H   0  0  0  0  0  0  0  0  0  0  0  0
    3.8954   -4.1944    5.4105 H   0  0  0  0  0  0  0  0  0  0  0  0
    5.4135   -3.8912    4.5984 H   0  0  0  0  0  0  0  0  0  0  0  0
    5.5222   -6.8967    1.2684 H   0  0  0  0  0  0  0  0  0  0  0  0
    5.4201   -6.8674    2.9680 H   0  0  0  0  0  0  0  0  0  0  0  0
    2.9681   -6.8770    1.0952 H   0  0  0  0  0  0  0  0  0  0  0  0
    2.8403   -9.0525    1.0720 H   0  0  0  0  0  0  0  0  0  0  0  0
    4.3470  -10.3922    1.7466 H   0  0  0  0  0  0  0  0  0  0  0  0
    1.6201   -9.8716    2.8586 H   0  0  0  0  0  0  0  0  0  0  0  0
    2.3113   -9.8222    4.9454 H   0  0  0  0  0  0  0  0  0  0  0  0
    3.4124   -6.9334    4.0353 H   0  0  0  0  0  0  0  0  0  0  0  0
    5.1782   -2.4468    1.5316 H   0  0  0  0  0  0  0  0  0  0  0  0
    6.9416   -3.9774   -0.4822 H   0  0  0  0  0  0  0  0  0  0  0  0
    7.9930   -2.5997    0.9233 H   0  0  0  0  0  0  0  0  0  0  0  0
    5.8992   -4.2334   -2.6230 H   0  0  0  0  0  0  0  0  0  0  0  0
    4.3915   -3.4400   -4.3500 H   0  0  0  0  0  0  0  0  0  0  0  0
    2.5453    0.4433   -5.6821 H   0  0  0  0  0  0  0  0  0  0  0  0
    3.9147    0.9823   -4.6987 H   0  0  0  0  0  0  0  0  0  0  0  0
    2.3693    0.5229   -3.9228 H   0  0  0  0  0  0  0  0  0  0  0  0
    4.2125    0.4062   -2.4131 H   0  0  0  0  0  0  0  0  0  0  0  0
    5.4162   -0.5032   -0.4911 H   0  0  0  0  0  0  0  0  0  0  0  0
    3.4178   -3.7819    0.7549 H   0  0  0  0  0  0  0  0  0  0  0  0
    5.4334   -5.7749   -0.4894 H   0  0  0  0  0  0  0  0  0  0  0  0
    4.3648   -4.6463   -1.3394 H   0  0  0  0  0  0  0  0  0  0  0  0
    3.6186   -5.9229   -0.5724 H   0  0  0  0  0  0  0  0  0  0  0  0
  1  2  2  0
  1 34  1  0
  1 35  1  0
  2  6  1  0
  2  3  1  0
  3  4  2  0
  5  3  1  6
  5 17  1  0
  5 19  1  0
  5  6  1  0
  6  7  1  0
  6 36  1  1
  7  8  1  0
  7 37  1  0
  7 38  1  0
  8  9  1  0
  8 39  1  0
  8 40  1  0
  9 19  1  0
  9 10  1  0
  9 41  1  6
 10 11  1  0
 10 12  1  0
 10 42  1  6
 11 43  1  0
 11 44  1  0
 11 45  1  0
 12 32  1  0
 12 13  1  0
 12 20  1  1
 13 14  1  0
 13 46  1  0
 13 47  1  0
 14 15  1  0
 14 19  1  0
 14 48  1  6
 15 16  1  0
 15 17  1  0
 15 49  1  6
 16 50  1  0
 17 18  1  0
 17 51  1  6
 18 52  1  0
 19 53  1  1
 20 21  1  0
 21 22  1  0
 21 32  1  0
 21 54  1  1
 22 23  1  0
 22 24  1  0
 22 55  1  6
 23 56  1  0
 24 31  1  0
 24 25  2  0
 25 26  1  0
 25 57  1  0
 26 27  2  0
 26 58  1  0
 27 28  1  0
 27 30  1  0
 28 29  1  0
 29 59  1  0
 29 60  1  0
 29 61  1  0
 30 31  2  0
 30 62  1  0
 31 63  1  0
 32 33  1  0
 32 64  1  1
 33 65  1  0
 33 66  1  0
 33 67  1  0
M  END
>  <i_m_ct_stereo_status>  (227) 
1

>  <s_m_source_file>  (227) 
/var/tmp/pbs.5076255.sched01/tmpln0nb48r/86bqtw16pk.sdf

>  <i_m_source_file_index>  (227) 
27

>  <i_lp_mmshare_version>  (227) 
48012

>  <i_f3d_flags>  (227) 
0

>  <s_epik_input>  (227) 
Tz1DMUMoPVtDSDJdKVtDSF0oW0NAXTEyMylbQ0gyXVtDSDJdW0NAQEhdNFtDQEBIXTNbQ0BIXShbQ0BASF0oW09IXSlbQ0BIXTJbT0hdKVtDSDJdW0NAQF01KFtDQEBIXTRbQ0gzXSlPW0NASF0oW0NASF01W0NIM10pW0NASF0oW09IXSljNltjSF1bY0hdYyhPW0NIM10pW2NIXVtjSF02

>  <s_epik_cmdline>  (227) 
J2VwaWtfcHl0aG9uJywgJy1waHQnLCAnMi4wJywgJy1waCcsICc3LjAnLCAnLXRuJywgJzgnLCAnLW1hJywgJzIwMCcsICctaW1hZScsICc8aW5maWxlLm1hZT4nLCAnLW9tYWUnLCAnPG91dGZpbGUubWFlPic=

>  <r_lp_tautomer_probability>  (227) 
1

>  <r_epik_Ionization_Penalty>  (227) 
1.48505e-07

>  <r_epik_Ionization_Penalty_Charging>  (227) 
0

>  <r_epik_Ionization_Penalty_Neutral>  (227) 
1.48505e-07

>  <r_epik_State_Penalty>  (227) 
-0

>  <r_epik_Charging_Adjusted_Penalty>  (227) 
0

>  <i_epik_Tot_Q>  (227) 
0

>  <i_epik_Tot_abs_Q>  (227) 
0

>  <s_lp_Force_Field>  (227) 
OPLS3e

>  <r_lp_Energy>  (227) 
63.2132

>  <b_lp_Chiralities_Consistent>  (227) 
1

>  <s_lp_Variant>  (227) 
72:0-2

>  <s_i_glide_gridfile>  (227) 
pfpi4k_grid

>  <i_i_glide_lignum>  (227) 
27

>  <i_i_glide_rotatable_bonds>  (227) 
6

>  <r_i_docking_score>  (227) 
-3.61895

>  <r_i_glide_ligand_efficiency>  (227) 
-0.109665

>  <r_i_glide_ligand_efficiency_sa>  (227) 
-0.351754

>  <r_i_glide_ligand_efficiency_ln>  (227) 
-0.804835

>  <r_i_glide_gscore>  (227) 
-3.61895

>  <r_i_glide_lipo>  (227) 
-0.790613

>  <r_i_glide_hbond>  (227) 
-0.248338

>  <r_i_glide_metal>  (227) 
-0

>  <r_i_glide_rewards>  (227) 
-0.30985

>  <r_i_glide_evdw>  (227) 
-33.74

>  <r_i_glide_ecoul>  (227) 
-4.86393

>  <r_i_glide_erotb>  (227) 
0.194386

>  <r_i_glide_esite>  (227) 
-0.0479442

>  <r_i_glide_emodel>  (227) 
-42.7592

>  <r_i_glide_energy>  (227) 
-38.6039

>  <r_i_glide_einternal>  (227) 
3.39774

>  <r_i_glide_intrahb_reward>  (227) 
-0

>  <i_i_glide_confnum>  (227) 
2

>  <i_i_glide_posenum>  (227) 
23

>  <r_i_glide_eff_state_penalty>  (227) 
0

>  <ligand_id>  (227) 
72

>  <original_smiles>  (227) 
C=C1C(=O)C23C1CCC1C(C)C4(CC(C(O)C2O)C13)OC(C(O)c1ccc(OC)cc1)C4C

>  <smiles>  (227) 
[H]OC([H])(c1c([H])c([H])c(OC([H])([H])[H])c([H])c1[H])C1([H])OC2(C([H])([H])C3([H])C([H])(O[H])C([H])(O[H])C45C(=O)C(=C([H])[H])C4([H])C([H])([H])C([H])([H])C([H])(C2([H])C([H])([H])[H])C35[H])C1([H])C([H])([H])[H]

$$$$
72:1:1
     RDKit          3D

 67 72  0  0  1  0  0  0  0  0999 V2000
   -1.7532   -7.3690    3.9388 C   0  0  0  0  0  0  0  0  0  0  0  0
   -0.4253   -7.3877    3.7496 C   0  0  0  0  0  0  0  0  0  0  0  0
    0.3633   -7.5132    2.5668 C   0  0  0  0  0  0  0  0  0  0  0  0
    0.0874   -7.3968    1.3594 O   0  0  0  0  0  0  0  0  0  0  0  0
    1.6266   -7.7266    3.4265 C   0  0  1  0  0  0  0  0  0  0  0  0
    0.7752   -7.4118    4.7013 C   0  0  1  0  0  0  0  0  0  0  0  0
    1.1111   -6.0641    5.3650 C   0  0  0  0  0  0  0  0  0  0  0  0
    1.4116   -4.9094    4.3597 C   0  0  0  0  0  0  0  0  0  0  0  0
    2.4479   -5.2430    3.2451 C   0  0  1  0  0  0  0  0  0  0  0  0
    3.8052   -4.4686    3.2709 C   0  0  1  0  0  0  0  0  0  0  0  0
    4.5415   -4.5255    4.6143 C   0  0  0  0  0  0  0  0  0  0  0  0
    4.7294   -4.9478    2.0928 C   0  0  2  0  0  0  0  0  0  0  0  0
    4.8890   -6.5132    2.0801 C   0  0  0  0  0  0  0  0  0  0  0  0
    3.5090   -7.2054    1.9729 C   0  0  1  0  0  0  0  0  0  0  0  0
    3.3298   -8.7511    1.9986 C   0  0  1  0  0  0  0  0  0  0  0  0
    4.5289   -9.4992    2.0521 O   0  0  0  0  0  0  0  0  0  0  0  0
    2.3202   -9.0648    3.1467 C   0  0  1  0  0  0  0  0  0  0  0  0
    2.9710   -9.4700    4.3455 O   0  0  0  0  0  0  0  0  0  0  0  0
    2.7470   -6.7482    3.1886 C   0  0  2  0  0  0  0  0  0  0  0  0
    6.0305   -4.2651    2.0358 O   0  0  0  0  0  0  0  0  0  0  0  0
    5.5229   -3.3410    1.0205 C   0  0  1  0  0  0  0  0  0  0  0  0
    6.4853   -3.0176   -0.1688 C   0  0  2  0  0  0  0  0  0  0  0  0
    7.5122   -2.1409    0.2507 O   0  0  0  0  0  0  0  0  0  0  0  0
    5.7542   -2.4187   -1.3864 C   0  0  0  0  0  0  0  0  0  0  0  0
    5.5325   -3.2082   -2.5337 C   0  0  0  0  0  0  0  0  0  0  0  0
    4.6697   -2.7588   -3.5665 C   0  0  0  0  0  0  0  0  0  0  0  0
    4.1933   -1.4548   -3.5529 C   0  0  0  0  0  0  0  0  0  0  0  0
    3.4966   -1.0556   -4.6678 O   0  0  0  0  0  0  0  0  0  0  0  0
    2.9823    0.2689   -4.6987 C   0  0  0  0  0  0  0  0  0  0  0  0
    4.4891   -0.6255   -2.4353 C   0  0  0  0  0  0  0  0  0  0  0  0
    5.2407   -1.1158   -1.3519 C   0  0  0  0  0  0  0  0  0  0  0  0
    4.3653   -4.3183    0.7334 C   0  0  1  0  0  0  0  0  0  0  0  0
    4.4786   -5.2211   -0.4950 C   0  0  0  0  0  0  0  0  0  0  0  0
   -2.1283   -7.3273    4.9342 H   0  0  0  0  0  0  0  0  0  0  0  0
   -2.4804   -7.4393    3.1432 H   0  0  0  0  0  0  0  0  0  0  0  0
    0.7749   -8.2430    5.3990 H   0  0  0  0  0  0  0  0  0  0  0  0
    0.3276   -5.7657    6.0614 H   0  0  0  0  0  0  0  0  0  0  0  0
    2.0030   -6.2156    5.9783 H   0  0  0  0  0  0  0  0  0  0  0  0
    0.4626   -4.6740    3.8755 H   0  0  0  0  0  0  0  0  0  0  0  0
    1.6871   -3.9918    4.8802 H   0  0  0  0  0  0  0  0  0  0  0  0
    1.9582   -4.9739    2.3068 H   0  0  0  0  0  0  0  0  0  0  0  0
    3.5783   -3.4195    3.0955 H   0  0  0  0  0  0  0  0  0  0  0  0
    4.8820   -5.5254    4.8691 H   0  0  0  0  0  0  0  0  0  0  0  0
    3.8958   -4.1783    5.4123 H   0  0  0  0  0  0  0  0  0  0  0  0
    5.4150   -3.8756    4.6021 H   0  0  0  0  0  0  0  0  0  0  0  0
    5.5243   -6.8781    1.2685 H   0  0  0  0  0  0  0  0  0  0  0  0
    5.4202   -6.8502    2.9681 H   0  0  0  0  0  0  0  0  0  0  0  0
    2.9705   -6.8556    1.0938 H   0  0  0  0  0  0  0  0  0  0  0  0
    2.8406   -9.0333    1.0645 H   0  0  0  0  0  0  0  0  0  0  0  0
    4.3444  -10.3793    1.7472 H   0  0  0  0  0  0  0  0  0  0  0  0
    1.6157   -9.8496    2.8584 H   0  0  0  0  0  0  0  0  0  0  0  0
    3.2741  -10.3527    4.2404 H   0  0  0  0  0  0  0  0  0  0  0  0
    3.4115   -6.9146    4.0345 H   0  0  0  0  0  0  0  0  0  0  0  0
    5.1843   -2.4280    1.5363 H   0  0  0  0  0  0  0  0  0  0  0  0
    6.9502   -3.9580   -0.4746 H   0  0  0  0  0  0  0  0  0  0  0  0
    7.9965   -2.5751    0.9309 H   0  0  0  0  0  0  0  0  0  0  0  0
    5.9117   -4.2199   -2.6146 H   0  0  0  0  0  0  0  0  0  0  0  0
    4.4058   -3.4324   -4.3454 H   0  0  0  0  0  0  0  0  0  0  0  0
    2.4749    0.4175   -5.6526 H   0  0  0  0  0  0  0  0  0  0  0  0
    3.7778    1.0140   -4.6116 H   0  0  0  0  0  0  0  0  0  0  0  0
    2.2504    0.4096   -3.9032 H   0  0  0  0  0  0  0  0  0  0  0  0
    4.1874    0.4139   -2.4165 H   0  0  0  0  0  0  0  0  0  0  0  0
    5.4176   -0.4871   -0.4915 H   0  0  0  0  0  0  0  0  0  0  0  0
    3.4230   -3.7608    0.7563 H   0  0  0  0  0  0  0  0  0  0  0  0
    5.4390   -5.7545   -0.4879 H   0  0  0  0  0  0  0  0  0  0  0  0
    4.3706   -4.6260   -1.3376 H   0  0  0  0  0  0  0  0  0  0  0  0
    3.6231   -5.8997   -0.5747 H   0  0  0  0  0  0  0  0  0  0  0  0
  1  2  2  0
  1 34  1  0
  1 35  1  0
  2  6  1  0
  2  3  1  0
  3  4  2  0
  5  3  1  6
  5 17  1  0
  5 19  1  0
  5  6  1  0
  6  7  1  0
  6 36  1  1
  7  8  1  0
  7 37  1  0
  7 38  1  0
  8  9  1  0
  8 39  1  0
  8 40  1  0
  9 19  1  0
  9 10  1  0
  9 41  1  6
 10 11  1  0
 10 12  1  0
 10 42  1  6
 11 43  1  0
 11 44  1  0
 11 45  1  0
 12 32  1  0
 12 13  1  0
 12 20  1  1
 13 14  1  0
 13 46  1  0
 13 47  1  0
 14 15  1  0
 14 19  1  0
 14 48  1  6
 15 16  1  0
 15 17  1  0
 15 49  1  6
 16 50  1  0
 17 18  1  0
 17 51  1  6
 18 52  1  0
 19 53  1  1
 20 21  1  0
 21 22  1  0
 21 32  1  0
 21 54  1  1
 22 23  1  0
 22 24  1  0
 22 55  1  6
 23 56  1  0
 24 31  1  0
 24 25  2  0
 25 26  1  0
 25 57  1  0
 26 27  2  0
 26 58  1  0
 27 28  1  0
 27 30  1  0
 28 29  1  0
 29 59  1  0
 29 60  1  0
 29 61  1  0
 30 31  2  0
 30 62  1  0
 31 63  1  0
 32 33  1  0
 32 64  1  1
 33 65  1  0
 33 66  1  0
 33 67  1  0
M  END
>  <i_m_ct_stereo_status>  (228) 
1

>  <s_m_source_file>  (228) 
/var/tmp/pbs.5076255.sched01/tmpln0nb48r/86bqtw16pk.sdf

>  <i_m_source_file_index>  (228) 
27

>  <i_lp_mmshare_version>  (228) 
48012

>  <i_f3d_flags>  (228) 
0

>  <s_epik_input>  (228) 
Tz1DMUMoPVtDSDJdKVtDSF0oW0NAXTEyMylbQ0gyXVtDSDJdW0NAQEhdNFtDQEBIXTNbQ0BIXShbQ0BASF0oW09IXSlbQ0BIXTJbT0hdKVtDSDJdW0NAQF01KFtDQEBIXTRbQ0gzXSlPW0NASF0oW0NASF01W0NIM10pW0NASF0oW09IXSljNltjSF1bY0hdYyhPW0NIM10pW2NIXVtjSF02

>  <s_epik_cmdline>  (228) 
J2VwaWtfcHl0aG9uJywgJy1waHQnLCAnMi4wJywgJy1waCcsICc3LjAnLCAnLXRuJywgJzgnLCAnLW1hJywgJzIwMCcsICctaW1hZScsICc8aW5maWxlLm1hZT4nLCAnLW9tYWUnLCAnPG91dGZpbGUubWFlPic=

>  <r_lp_tautomer_probability>  (228) 
1

>  <r_epik_Ionization_Penalty>  (228) 
1.48505e-07

>  <r_epik_Ionization_Penalty_Charging>  (228) 
0

>  <r_epik_Ionization_Penalty_Neutral>  (228) 
1.48505e-07

>  <r_epik_State_Penalty>  (228) 
-0

>  <r_epik_Charging_Adjusted_Penalty>  (228) 
0

>  <i_epik_Tot_Q>  (228) 
0

>  <i_epik_Tot_abs_Q>  (228) 
0

>  <s_lp_Force_Field>  (228) 
OPLS3e

>  <r_lp_Energy>  (228) 
63.2132

>  <b_lp_Chiralities_Consistent>  (228) 
1

>  <s_lp_Variant>  (228) 
72:0-2

>  <s_i_glide_gridfile>  (228) 
pfpi4k_grid

>  <i_i_glide_lignum>  (228) 
27

>  <i_i_glide_rotatable_bonds>  (228) 
6

>  <r_i_docking_score>  (228) 
-3.57436

>  <r_i_glide_ligand_efficiency>  (228) 
-0.108314

>  <r_i_glide_ligand_efficiency_sa>  (228) 
-0.34742

>  <r_i_glide_ligand_efficiency_ln>  (228) 
-0.794919

>  <r_i_glide_gscore>  (228) 
-3.57436

>  <r_i_glide_lipo>  (228) 
-0.771637

>  <r_i_glide_hbond>  (228) 
-0.251167

>  <r_i_glide_metal>  (228) 
-0

>  <r_i_glide_rewards>  (228) 
-0.30985

>  <r_i_glide_evdw>  (228) 
-33.3367

>  <r_i_glide_ecoul>  (228) 
-4.89962

>  <r_i_glide_erotb>  (228) 
0.194386

>  <r_i_glide_esite>  (228) 
-0.0481634

>  <r_i_glide_emodel>  (228) 
-41.948

>  <r_i_glide_energy>  (228) 
-38.2363

>  <r_i_glide_einternal>  (228) 
3.46455

>  <r_i_glide_intrahb_reward>  (228) 
-0

>  <i_i_glide_confnum>  (228) 
2

>  <i_i_glide_posenum>  (228) 
15

>  <r_i_glide_eff_state_penalty>  (228) 
0

>  <ligand_id>  (228) 
72

>  <original_smiles>  (228) 
C=C1C(=O)C23C1CCC1C(C)C4(CC(C(O)C2O)C13)OC(C(O)c1ccc(OC)cc1)C4C

>  <smiles>  (228) 
[H]OC([H])(c1c([H])c([H])c(OC([H])([H])[H])c([H])c1[H])C1([H])OC2(C([H])([H])C3([H])C([H])(O[H])C([H])(O[H])C45C(=O)C(=C([H])[H])C4([H])C([H])([H])C([H])([H])C([H])(C2([H])C([H])([H])[H])C35[H])C1([H])C([H])([H])[H]

$$$$
72:1:2
     RDKit          3D

 67 72  0  0  1  0  0  0  0  0999 V2000
   -1.7569   -7.4348    3.8595 C   0  0  0  0  0  0  0  0  0  0  0  0
   -0.4287   -7.4340    3.6845 C   0  0  0  0  0  0  0  0  0  0  0  0
    0.3797   -7.5332    2.4943 C   0  0  0  0  0  0  0  0  0  0  0  0
    0.1262   -7.4040    1.2967 O   0  0  0  0  0  0  0  0  0  0  0  0
    1.6333   -7.7437    3.3790 C   0  0  1  0  0  0  0  0  0  0  0  0
    0.7651   -7.4566    4.6437 C   0  0  1  0  0  0  0  0  0  0  0  0
    1.0857   -6.1183    5.3328 C   0  0  0  0  0  0  0  0  0  0  0  0
    1.3871   -4.9427    4.3479 C   0  0  0  0  0  0  0  0  0  0  0  0
    2.4305   -5.2461    3.2352 C   0  0  1  0  0  0  0  0  0  0  0  0
    3.7797   -4.4613    3.2882 C   0  0  1  0  0  0  0  0  0  0  0  0
    4.5008   -4.5316    4.6374 C   0  0  0  0  0  0  0  0  0  0  0  0
    4.7215   -4.9112    2.1170 C   0  0  2  0  0  0  0  0  0  0  0  0
    4.8939   -6.4754    2.0696 C   0  0  0  0  0  0  0  0  0  0  0  0
    3.5216   -7.1780    1.9449 C   0  0  1  0  0  0  0  0  0  0  0  0
    3.3623   -8.7256    1.9497 C   0  0  1  0  0  0  0  0  0  0  0  0
    4.5714   -9.4539    1.9773 O   0  0  0  0  0  0  0  0  0  0  0  0
    2.3440   -9.0697    3.0821 C   0  0  1  0  0  0  0  0  0  0  0  0
    2.9781   -9.5017    4.2792 O   0  0  0  0  0  0  0  0  0  0  0  0
    2.7467   -6.7485    3.1588 C   0  0  2  0  0  0  0  0  0  0  0  0
    6.0122   -4.2188    2.0789 O   0  0  0  0  0  0  0  0  0  0  0  0
    5.5069   -3.2777    1.0842 C   0  0  1  0  0  0  0  0  0  0  0  0
    6.4776   -2.9246   -0.0957 C   0  0  2  0  0  0  0  0  0  0  0  0
    7.4967   -2.0387    0.3282 O   0  0  0  0  0  0  0  0  0  0  0  0
    5.7493   -2.3458   -1.3275 C   0  0  0  0  0  0  0  0  0  0  0  0
    5.5327   -3.1564   -2.4687 C   0  0  0  0  0  0  0  0  0  0  0  0
    4.6764   -2.7184   -3.5196 C   0  0  0  0  0  0  0  0  0  0  0  0
    4.1977   -1.4238   -3.5156 C   0  0  0  0  0  0  0  0  0  0  0  0
    3.4955   -1.0337   -4.6378 O   0  0  0  0  0  0  0  0  0  0  0  0
    3.0612    0.3123   -4.7197 C   0  0  0  0  0  0  0  0  0  0  0  0
    4.4886   -0.5755   -2.4157 C   0  0  0  0  0  0  0  0  0  0  0  0
    5.2362   -1.0533   -1.3059 C   0  0  0  0  0  0  0  0  0  0  0  0
    4.3630   -4.2609    0.7702 C   0  0  1  0  0  0  0  0  0  0  0  0
    4.5071   -5.1496   -0.4509 C   0  0  0  0  0  0  0  0  0  0  0  0
   -2.1467   -7.4138    4.8589 H   0  0  0  0  0  0  0  0  0  0  0  0
   -2.4822   -7.4824    3.0622 H   0  0  0  0  0  0  0  0  0  0  0  0
    0.7631   -8.2945    5.3330 H   0  0  0  0  0  0  0  0  0  0  0  0
    0.2958   -5.8403    6.0261 H   0  0  0  0  0  0  0  0  0  0  0  0
    1.9731   -6.2774    5.9514 H   0  0  0  0  0  0  0  0  0  0  0  0
    0.4361   -4.7166    3.8645 H   0  0  0  0  0  0  0  0  0  0  0  0
    1.6374   -4.0242    4.8835 H   0  0  0  0  0  0  0  0  0  0  0  0
    1.9443   -4.9660    2.2962 H   0  0  0  0  0  0  0  0  0  0  0  0
    3.5497   -3.4113    3.1249 H   0  0  0  0  0  0  0  0  0  0  0  0
    4.8521   -5.5309    4.8843 H   0  0  0  0  0  0  0  0  0  0  0  0
    3.8460   -4.2035    5.4371 H   0  0  0  0  0  0  0  0  0  0  0  0
    5.3693   -3.8727    4.6490 H   0  0  0  0  0  0  0  0  0  0  0  0
    5.5458   -6.8201    1.2600 H   0  0  0  0  0  0  0  0  0  0  0  0
    5.4183   -6.8205    2.9553 H   0  0  0  0  0  0  0  0  0  0  0  0
    2.9931   -6.8197    1.0638 H   0  0  0  0  0  0  0  0  0  0  0  0
    2.8826   -8.9997    1.0087 H   0  0  0  0  0  0  0  0  0  0  0  0
    4.3934  -10.3412    1.6866 H   0  0  0  0  0  0  0  0  0  0  0  0
    1.6553   -9.8575    2.7695 H   0  0  0  0  0  0  0  0  0  0  0  0
    2.3188   -9.8512    4.8607 H   0  0  0  0  0  0  0  0  0  0  0  0
    3.4015   -6.9172    4.0128 H   0  0  0  0  0  0  0  0  0  0  0  0
    5.1613   -2.3728    1.6104 H   0  0  0  0  0  0  0  0  0  0  0  0
    6.9581   -3.8568   -0.3953 H   0  0  0  0  0  0  0  0  0  0  0  0
    7.1108   -1.3350    0.8234 H   0  0  0  0  0  0  0  0  0  0  0  0
    5.9013   -4.1624   -2.5390 H   0  0  0  0  0  0  0  0  0  0  0  0
    4.4038   -3.4153   -4.2832 H   0  0  0  0  0  0  0  0  0  0  0  0
    2.5474    0.4415   -5.6721 H   0  0  0  0  0  0  0  0  0  0  0  0
    3.9016    1.0096   -4.6875 H   0  0  0  0  0  0  0  0  0  0  0  0
    2.3588    0.5414   -3.9192 H   0  0  0  0  0  0  0  0  0  0  0  0
    4.2168    0.4698   -2.4066 H   0  0  0  0  0  0  0  0  0  0  0  0
    5.4123   -0.4023   -0.4697 H   0  0  0  0  0  0  0  0  0  0  0  0
    3.4116   -3.7134    0.7791 H   0  0  0  0  0  0  0  0  0  0  0  0
    5.4759   -5.6659   -0.4629 H   0  0  0  0  0  0  0  0  0  0  0  0
    4.3947   -4.5312   -1.2703 H   0  0  0  0  0  0  0  0  0  0  0  0
    3.6521   -5.8138   -0.6031 H   0  0  0  0  0  0  0  0  0  0  0  0
  1  2  2  0
  1 34  1  0
  1 35  1  0
  2  6  1  0
  2  3  1  0
  3  4  2  0
  5  3  1  6
  5 17  1  0
  5 19  1  0
  5  6  1  0
  6  7  1  0
  6 36  1  1
  7  8  1  0
  7 37  1  0
  7 38  1  0
  8  9  1  0
  8 39  1  0
  8 40  1  0
  9 19  1  0
  9 10  1  0
  9 41  1  6
 10 11  1  0
 10 12  1  0
 10 42  1  6
 11 43  1  0
 11 44  1  0
 11 45  1  0
 12 32  1  0
 12 13  1  0
 12 20  1  1
 13 14  1  0
 13 46  1  0
 13 47  1  0
 14 15  1  0
 14 19  1  0
 14 48  1  6
 15 16  1  0
 15 17  1  0
 15 49  1  6
 16 50  1  0
 17 18  1  0
 17 51  1  6
 18 52  1  0
 19 53  1  1
 20 21  1  0
 21 22  1  0
 21 32  1  0
 21 54  1  1
 22 23  1  0
 22 24  1  0
 22 55  1  6
 23 56  1  0
 24 31  1  0
 24 25  2  0
 25 26  1  0
 25 57  1  0
 26 27  2  0
 26 58  1  0
 27 28  1  0
 27 30  1  0
 28 29  1  0
 29 59  1  0
 29 60  1  0
 29 61  1  0
 30 31  2  0
 30 62  1  0
 31 63  1  0
 32 33  1  0
 32 64  1  1
 33 65  1  0
 33 66  1  0
 33 67  1  0
M  END
>  <i_m_ct_stereo_status>  (229) 
1

>  <s_m_source_file>  (229) 
/var/tmp/pbs.5076255.sched01/tmpln0nb48r/86bqtw16pk.sdf

>  <i_m_source_file_index>  (229) 
27

>  <i_lp_mmshare_version>  (229) 
48012

>  <i_f3d_flags>  (229) 
0

>  <s_epik_input>  (229) 
Tz1DMUMoPVtDSDJdKVtDSF0oW0NAXTEyMylbQ0gyXVtDSDJdW0NAQEhdNFtDQEBIXTNbQ0BIXShbQ0BASF0oW09IXSlbQ0BIXTJbT0hdKVtDSDJdW0NAQF01KFtDQEBIXTRbQ0gzXSlPW0NASF0oW0NASF01W0NIM10pW0NASF0oW09IXSljNltjSF1bY0hdYyhPW0NIM10pW2NIXVtjSF02

>  <s_epik_cmdline>  (229) 
J2VwaWtfcHl0aG9uJywgJy1waHQnLCAnMi4wJywgJy1waCcsICc3LjAnLCAnLXRuJywgJzgnLCAnLW1hJywgJzIwMCcsICctaW1hZScsICc8aW5maWxlLm1hZT4nLCAnLW9tYWUnLCAnPG91dGZpbGUubWFlPic=

>  <r_lp_tautomer_probability>  (229) 
1

>  <r_epik_Ionization_Penalty>  (229) 
1.48505e-07

>  <r_epik_Ionization_Penalty_Charging>  (229) 
0

>  <r_epik_Ionization_Penalty_Neutral>  (229) 
1.48505e-07

>  <r_epik_State_Penalty>  (229) 
-0

>  <r_epik_Charging_Adjusted_Penalty>  (229) 
0

>  <i_epik_Tot_Q>  (229) 
0

>  <i_epik_Tot_abs_Q>  (229) 
0

>  <s_lp_Force_Field>  (229) 
OPLS3e

>  <r_lp_Energy>  (229) 
63.2132

>  <b_lp_Chiralities_Consistent>  (229) 
1

>  <s_lp_Variant>  (229) 
72:0-2

>  <s_i_glide_gridfile>  (229) 
pfpi4k_grid

>  <i_i_glide_lignum>  (229) 
27

>  <i_i_glide_rotatable_bonds>  (229) 
6

>  <r_i_docking_score>  (229) 
-3.31372

>  <r_i_glide_ligand_efficiency>  (229) 
-0.100416

>  <r_i_glide_ligand_efficiency_sa>  (229) 
-0.322087

>  <r_i_glide_ligand_efficiency_ln>  (229) 
-0.736953

>  <r_i_glide_gscore>  (229) 
-3.31372

>  <r_i_glide_lipo>  (229) 
-0.722327

>  <r_i_glide_hbond>  (229) 
-0.222913

>  <r_i_glide_metal>  (229) 
-0

>  <r_i_glide_rewards>  (229) 
-0.30985

>  <r_i_glide_evdw>  (229) 
-34.2164

>  <r_i_glide_ecoul>  (229) 
-5.52088

>  <r_i_glide_erotb>  (229) 
0.194386

>  <r_i_glide_esite>  (229) 
-0.0487193

>  <r_i_glide_emodel>  (229) 
-41.7262

>  <r_i_glide_energy>  (229) 
-39.7372

>  <r_i_glide_einternal>  (229) 
4.66202

>  <r_i_glide_intrahb_reward>  (229) 
-0

>  <i_i_glide_confnum>  (229) 
2

>  <i_i_glide_posenum>  (229) 
37

>  <r_i_glide_eff_state_penalty>  (229) 
0

>  <ligand_id>  (229) 
72

>  <original_smiles>  (229) 
C=C1C(=O)C23C1CCC1C(C)C4(CC(C(O)C2O)C13)OC(C(O)c1ccc(OC)cc1)C4C

>  <smiles>  (229) 
[H]OC([H])(c1c([H])c([H])c(OC([H])([H])[H])c([H])c1[H])C1([H])OC2(C([H])([H])C3([H])C([H])(O[H])C([H])(O[H])C45C(=O)C(=C([H])[H])C4([H])C([H])([H])C([H])([H])C([H])(C2([H])C([H])([H])[H])C35[H])C1([H])C([H])([H])[H]

$$$$
74:0:0
     RDKit          3D

 58 62  0  0  1  0  0  0  0  0999 V2000
    5.5214   -0.2603    0.9935 C   0  0  0  0  0  0  0  0  0  0  0  0
    5.0586   -1.4555    0.1882 C   0  0  2  0  0  0  0  0  0  0  0  0
    5.1233   -1.1016   -1.3087 C   0  0  0  0  0  0  0  0  0  0  0  0
    4.5790   -2.1898   -2.2256 C   0  0  0  0  0  0  0  0  0  0  0  0
    3.1511   -2.4894   -1.8101 C   0  0  1  0  0  0  0  0  0  0  0  0
    2.3895   -3.2920   -2.8640 C   0  0  0  0  0  0  0  0  0  0  0  0
    3.0770   -2.9892   -0.3310 C   0  0  2  0  0  0  0  0  0  0  0  0
    3.6362   -1.8786    0.5860 C   0  0  1  0  0  0  0  0  0  0  0  0
    3.3191   -2.0138    2.0926 C   0  0  0  0  0  0  0  0  0  0  0  0
    4.2379   -2.8262    3.0568 C   0  0  0  0  0  0  0  0  0  0  0  0
    4.0601   -4.3705    3.1990 C   0  0  1  0  0  0  0  0  0  0  0  0
    4.3098   -4.6636    4.5635 O   0  0  0  0  0  0  0  0  0  0  0  0
    2.9883   -4.4781    5.3303 O   0  0  0  0  0  0  0  0  0  0  0  0
    1.9285   -4.4259    4.3893 C   0  0  1  0  0  0  0  0  0  0  0  0
    0.7615   -5.3118    4.8305 C   0  0  0  0  0  0  0  0  0  0  0  0
    1.3954   -3.1324    4.2143 O   0  0  0  0  0  0  0  0  0  0  0  0
    2.6532   -4.9384    3.1345 C   0  0  1  0  0  0  0  0  0  0  0  0
    2.0338   -4.7776    1.8845 O   0  0  0  0  0  0  0  0  0  0  0  0
    2.6591   -5.4134    0.7572 C   0  0  2  0  0  0  0  0  0  0  0  0
    1.4139   -5.8441   -0.0120 C   0  0  0  0  0  0  0  0  0  0  0  0
    3.4425   -6.7179    1.0589 C   0  0  0  0  0  0  0  0  0  0  0  0
    4.7003   -6.5978    1.9348 C   0  0  0  0  0  0  0  0  0  0  0  0
    5.0890   -5.1686    2.3520 C   0  0  1  0  0  0  0  0  0  0  0  0
    5.5501   -4.3313    1.3023 O   0  0  0  0  0  0  0  0  0  0  0  0
    4.9482   -4.7559   -0.0198 O   0  0  0  0  0  0  0  0  0  0  0  0
    3.5533   -4.4488   -0.0779 C   0  0  2  0  0  0  0  0  0  0  0  0
    4.8418    0.5826    0.8548 H   0  0  0  0  0  0  0  0  0  0  0  0
    6.5019    0.0266    0.6232 H   0  0  0  0  0  0  0  0  0  0  0  0
    5.6019   -0.4424    2.0646 H   0  0  0  0  0  0  0  0  0  0  0  0
    5.7739   -2.2457    0.3763 H   0  0  0  0  0  0  0  0  0  0  0  0
    4.5903   -0.1719   -1.4994 H   0  0  0  0  0  0  0  0  0  0  0  0
    6.1469   -0.9416   -1.6005 H   0  0  0  0  0  0  0  0  0  0  0  0
    4.6023   -1.8390   -3.2558 H   0  0  0  0  0  0  0  0  0  0  0  0
    5.2006   -3.0824   -2.1630 H   0  0  0  0  0  0  0  0  0  0  0  0
    2.6408   -1.5271   -1.8371 H   0  0  0  0  0  0  0  0  0  0  0  0
    2.9247   -4.1812   -3.1691 H   0  0  0  0  0  0  0  0  0  0  0  0
    2.2372   -2.7201   -3.7758 H   0  0  0  0  0  0  0  0  0  0  0  0
    1.4143   -3.5788   -2.4801 H   0  0  0  0  0  0  0  0  0  0  0  0
    2.0147   -3.0221   -0.1127 H   0  0  0  0  0  0  0  0  0  0  0  0
    3.0247   -1.0103    0.3223 H   0  0  0  0  0  0  0  0  0  0  0  0
    3.3081   -0.9992    2.4933 H   0  0  0  0  0  0  0  0  0  0  0  0
    2.2803   -2.3215    2.1488 H   0  0  0  0  0  0  0  0  0  0  0  0
    5.2865   -2.5739    2.8730 H   0  0  0  0  0  0  0  0  0  0  0  0
    4.0650   -2.4050    4.0481 H   0  0  0  0  0  0  0  0  0  0  0  0
    0.3423   -4.9492    5.7717 H   0  0  0  0  0  0  0  0  0  0  0  0
    1.0636   -6.3483    4.9808 H   0  0  0  0  0  0  0  0  0  0  0  0
   -0.0395   -5.2965    4.0907 H   0  0  0  0  0  0  0  0  0  0  0  0
    2.0900   -2.5736    3.9307 H   0  0  0  0  0  0  0  0  0  0  0  0
    2.7029   -6.0052    3.3496 H   0  0  0  0  0  0  0  0  0  0  0  0
    1.6391   -6.2518   -0.9635 H   0  0  0  0  0  0  0  0  0  0  0  0
    0.8578   -5.0205   -0.3782 H   0  0  0  0  0  0  0  0  0  0  0  0
    0.7686   -6.5196    0.5327 H   0  0  0  0  0  0  0  0  0  0  0  0
    2.7840   -7.4739    1.4864 H   0  0  0  0  0  0  0  0  0  0  0  0
    3.8011   -7.1337    0.1131 H   0  0  0  0  0  0  0  0  0  0  0  0
    4.5436   -7.1855    2.8403 H   0  0  0  0  0  0  0  0  0  0  0  0
    5.5423   -7.0759    1.4343 H   0  0  0  0  0  0  0  0  0  0  0  0
    5.9784   -5.2641    2.9829 H   0  0  0  0  0  0  0  0  0  0  0  0
    3.4655   -4.8472   -1.0814 H   0  0  0  0  0  0  0  0  0  0  0  0
  1  2  1  0
  1 27  1  0
  1 28  1  0
  1 29  1  0
  2  8  1  0
  2  3  1  0
  2 30  1  6
  3  4  1  0
  3 31  1  0
  3 32  1  0
  4  5  1  0
  4 33  1  0
  4 34  1  0
  5  6  1  0
  5  7  1  0
  5 35  1  1
  6 36  1  0
  6 37  1  0
  6 38  1  0
  7 26  1  0
  7  8  1  0
  7 39  1  1
  8  9  1  0
  8 40  1  6
  9 10  1  0
  9 41  1  0
  9 42  1  0
 10 11  1  0
 10 43  1  0
 10 44  1  0
 11 17  1  0
 11 23  1  0
 11 12  1  1
 12 13  1  0
 13 14  1  0
 14 15  1  0
 14 16  1  6
 14 17  1  0
 15 45  1  0
 15 46  1  0
 15 47  1  0
 16 48  1  0
 17 18  1  0
 17 49  1  1
 18 19  1  0
 19 26  1  0
 19 20  1  6
 19 21  1  0
 20 50  1  0
 20 51  1  0
 20 52  1  0
 21 22  1  0
 21 53  1  0
 21 54  1  0
 22 23  1  0
 22 55  1  0
 22 56  1  0
 23 24  1  0
 23 57  1  1
 24 25  1  0
 25 26  1  0
 26 58  1  6
M  END
>  <i_m_ct_stereo_status>  (230) 
1

>  <s_m_source_file>  (230) 
/var/tmp/pbs.5076255.sched01/tmpln0nb48r/86bqtw16pk.sdf

>  <i_m_source_file_index>  (230) 
29

>  <i_lp_mmshare_version>  (230) 
48012

>  <i_f3d_flags>  (230) 
0

>  <s_epik_input>  (230) 
W0NIM11bQ0BASF0xW0NIMl1bQ0gyXVtDQEBIXShbQ0gzXSlbQ0BIXShbQ0gyXVtDSDJdMilbQ0BASF0xW0NASF0oW0NAXTMoW0NIM10pT1tDQEBIXShbQ0BAXTI0NSlbQ0BdKE9PNCkoW0NIM10pW09IXSlPT1tDQEBIXTVbQ0gyXVtDSDJdMw==

>  <s_epik_cmdline>  (230) 
J2VwaWtfcHl0aG9uJywgJy1waHQnLCAnMi4wJywgJy1waCcsICc3LjAnLCAnLXRuJywgJzgnLCAnLW1hJywgJzIwMCcsICctaW1hZScsICc8aW5maWxlLm1hZT4nLCAnLW9tYWUnLCAnPG91dGZpbGUubWFlPic=

>  <r_lp_tautomer_probability>  (230) 
1

>  <r_epik_Ionization_Penalty>  (230) 
6.6566e-05

>  <r_epik_Ionization_Penalty_Charging>  (230) 
0

>  <r_epik_Ionization_Penalty_Neutral>  (230) 
6.6566e-05

>  <r_epik_State_Penalty>  (230) 
-0

>  <r_epik_Charging_Adjusted_Penalty>  (230) 
0

>  <i_epik_Tot_Q>  (230) 
0

>  <i_epik_Tot_abs_Q>  (230) 
0

>  <s_lp_Force_Field>  (230) 
OPLS3e

>  <r_lp_Energy>  (230) 
57.1456

>  <b_lp_Chiralities_Consistent>  (230) 
1

>  <s_lp_Variant>  (230) 
74:0-1

>  <s_i_glide_gridfile>  (230) 
pfpi4k_grid

>  <i_i_glide_lignum>  (230) 
29

>  <i_i_glide_rotatable_bonds>  (230) 
1

>  <r_i_docking_score>  (230) 
-2.1413

>  <r_i_glide_ligand_efficiency>  (230) 
-0.0823579

>  <r_i_glide_ligand_efficiency_sa>  (230) 
-0.243985

>  <r_i_glide_ligand_efficiency_ln>  (230) 
-0.502878

>  <r_i_glide_gscore>  (230) 
-2.1413

>  <r_i_glide_lipo>  (230) 
-0.441199

>  <r_i_glide_hbond>  (230) 
-0.00391105

>  <r_i_glide_metal>  (230) 
-0

>  <r_i_glide_rewards>  (230) 
-0.897923

>  <r_i_glide_evdw>  (230) 
-15.2411

>  <r_i_glide_ecoul>  (230) 
-0.241456

>  <r_i_glide_erotb>  (230) 
0

>  <r_i_glide_esite>  (230) 
0

>  <r_i_glide_emodel>  (230) 
-15.6526

>  <r_i_glide_energy>  (230) 
-15.4825

>  <r_i_glide_einternal>  (230) 
0.167406

>  <r_i_glide_intrahb_reward>  (230) 
-0

>  <i_i_glide_confnum>  (230) 
1

>  <i_i_glide_posenum>  (230) 
17

>  <r_i_glide_eff_state_penalty>  (230) 
0

>  <ligand_id>  (230) 
74

>  <original_smiles>  (230) 
CC1CCC(C)C2C1CCC13OOC(C)(O)C1OC1(C)CCC3OOC21

>  <smiles>  (230) 
[H]OC1(C([H])([H])[H])OOC23C([H])([H])C([H])([H])C4([H])C([H])(C([H])([H])[H])C([H])([H])C([H])([H])C([H])(C([H])([H])[H])C4([H])C4([H])OOC2([H])C([H])([H])C([H])([H])C4(C([H])([H])[H])OC13[H]

$$$$
75:0:0
     RDKit          3D

 49 53  0  0  1  0  0  0  0  0999 V2000
    7.6019   -3.0510   -1.2549 C   0  0  0  0  0  0  0  0  0  0  0  0
    6.4682   -2.3067   -0.5067 C   0  0  2  0  0  0  0  0  0  0  0  0
    6.8421   -1.8566    0.8953 C   0  0  0  0  0  0  0  0  0  0  0  0
    5.5096   -1.4218    1.5025 C   0  0  1  0  0  0  0  0  0  0  0  0
    5.2112   -0.1290    1.0204 O   0  0  0  0  0  0  0  0  0  0  0  0
    4.4719   -2.4570    1.0047 C   0  0  2  0  0  0  0  0  0  0  0  0
    3.0376   -1.8455    0.9849 C   0  0  0  0  0  0  0  0  0  0  0  0
    4.5217   -3.6861    1.9469 C   0  0  2  0  0  0  0  0  0  0  0  0
    4.3564   -4.9092    1.0561 C   0  0  2  0  0  0  0  0  0  0  0  0
    4.7083   -6.1755    1.8470 C   0  0  0  0  0  0  0  0  0  0  0  0
    3.6909   -6.4061    2.9978 C   0  0  0  0  0  0  0  0  0  0  0  0
    3.2128   -5.1219    3.6759 C   0  0  2  0  0  0  0  0  0  0  0  0
    2.2860   -4.3219    2.9067 O   0  0  0  0  0  0  0  0  0  0  0  0
    3.5787   -3.7654    3.1327 C   0  0  2  0  0  0  0  0  0  0  0  0
    5.2283   -4.5513   -0.1438 C   0  0  0  0  0  0  0  0  0  0  0  0
    5.0630   -3.0065   -0.3748 C   0  0  2  0  0  0  0  0  0  0  0  0
    4.1856   -2.7313   -1.5639 N   0  0  0  0  0  0  0  0  0  0  0  0
    4.6030   -1.8513   -2.6707 C   0  0  0  0  0  0  0  0  0  0  0  0
    3.4013   -1.6713   -3.5845 C   0  0  0  0  0  0  0  0  0  0  0  0
    2.3862   -2.7082   -3.1169 C   0  0  0  0  0  0  0  0  0  0  0  0
    2.9474   -3.2137   -1.8132 C   0  0  0  0  0  0  0  0  0  0  0  0
    2.2855   -3.9539   -1.0853 O   0  0  0  0  0  0  0  0  0  0  0  0
    8.0242   -3.8839   -0.6907 H   0  0  0  0  0  0  0  0  0  0  0  0
    8.4392   -2.3904   -1.4783 H   0  0  0  0  0  0  0  0  0  0  0  0
    7.2476   -3.4457   -2.2028 H   0  0  0  0  0  0  0  0  0  0  0  0
    6.3582   -1.3605   -1.0105 H   0  0  0  0  0  0  0  0  0  0  0  0
    7.2669   -2.6923    1.4528 H   0  0  0  0  0  0  0  0  0  0  0  0
    7.5896   -1.0614    0.8985 H   0  0  0  0  0  0  0  0  0  0  0  0
    5.5477   -1.3658    2.5902 H   0  0  0  0  0  0  0  0  0  0  0  0
    4.3250    0.0843    1.2689 H   0  0  0  0  0  0  0  0  0  0  0  0
    2.2750   -2.5949    0.7981 H   0  0  0  0  0  0  0  0  0  0  0  0
    2.9414   -1.0826    0.2128 H   0  0  0  0  0  0  0  0  0  0  0  0
    2.7923   -1.3479    1.9262 H   0  0  0  0  0  0  0  0  0  0  0  0
    5.5213   -3.7426    2.3823 H   0  0  0  0  0  0  0  0  0  0  0  0
    3.3249   -5.0015    0.7231 H   0  0  0  0  0  0  0  0  0  0  0  0
    4.7253   -7.0461    1.1906 H   0  0  0  0  0  0  0  0  0  0  0  0
    5.7128   -6.0860    2.2660 H   0  0  0  0  0  0  0  0  0  0  0  0
    2.8134   -6.9210    2.6129 H   0  0  0  0  0  0  0  0  0  0  0  0
    4.1331   -7.0595    3.7463 H   0  0  0  0  0  0  0  0  0  0  0  0
    2.9348   -5.2126    4.7280 H   0  0  0  0  0  0  0  0  0  0  0  0
    3.6036   -2.9294    3.8357 H   0  0  0  0  0  0  0  0  0  0  0  0
    6.2486   -4.8194    0.1278 H   0  0  0  0  0  0  0  0  0  0  0  0
    4.9810   -5.1455   -1.0246 H   0  0  0  0  0  0  0  0  0  0  0  0
    4.9184   -0.8675   -2.3167 H   0  0  0  0  0  0  0  0  0  0  0  0
    5.4297   -2.3110   -3.2084 H   0  0  0  0  0  0  0  0  0  0  0  0
    3.0011   -0.6657   -3.4554 H   0  0  0  0  0  0  0  0  0  0  0  0
    3.6669   -1.7952   -4.6333 H   0  0  0  0  0  0  0  0  0  0  0  0
    1.4216   -2.2576   -2.9027 H   0  0  0  0  0  0  0  0  0  0  0  0
    2.2682   -3.5263   -3.8310 H   0  0  0  0  0  0  0  0  0  0  0  0
  1  2  1  0
  1 23  1  0
  1 24  1  0
  1 25  1  0
  2 16  1  0
  2  3  1  0
  2 26  1  6
  3  4  1  0
  3 27  1  0
  3 28  1  0
  4  5  1  0
  4  6  1  0
  4 29  1  1
  5 30  1  0
  6 16  1  0
  6  7  1  6
  6  8  1  0
  7 31  1  0
  7 32  1  0
  7 33  1  0
  8 14  1  0
  8  9  1  0
  8 34  1  1
  9 10  1  0
  9 15  1  0
  9 35  1  6
 10 11  1  0
 10 36  1  0
 10 37  1  0
 11 12  1  0
 11 38  1  0
 11 39  1  0
 12 14  1  0
 12 13  1  0
 12 40  1  1
 13 14  1  0
 14 41  1  1
 15 16  1  0
 15 42  1  0
 15 43  1  0
 16 17  1  6
 17 21  1  0
 17 18  1  0
 18 19  1  0
 18 44  1  0
 18 45  1  0
 19 20  1  0
 19 46  1  0
 19 47  1  0
 20 21  1  0
 20 48  1  0
 20 49  1  0
 21 22  2  0
M  END
>  <i_m_ct_stereo_status>  (231) 
1

>  <s_m_source_file>  (231) 
/var/tmp/pbs.5076255.sched01/tmpln0nb48r/86bqtw16pk.sdf

>  <i_m_source_file_index>  (231) 
30

>  <i_lp_mmshare_version>  (231) 
48012

>  <i_f3d_flags>  (231) 
0

>  <s_epik_input>  (231) 
Tz1DMVtDSDJdW0NIMl1bQ0gyXU4xW0NAXTIoW0NASF0oW0NIM10pW0NIMl1bQ0BIXTNbT0hdKVtDSDJdW0NASF0oW0NASF00W0NAXTIzW0NIM10pW0NIMl1bQ0gyXVtDQEhdNVtDQEBIXTRPNQ==

>  <s_epik_cmdline>  (231) 
J2VwaWtfcHl0aG9uJywgJy1waHQnLCAnMi4wJywgJy1waCcsICc3LjAnLCAnLXRuJywgJzgnLCAnLW1hJywgJzIwMCcsICctaW1hZScsICc8aW5maWxlLm1hZT4nLCAnLW9tYWUnLCAnPG91dGZpbGUubWFlPic=

>  <r_lp_tautomer_probability>  (231) 
1

>  <r_epik_Ionization_Penalty>  (231) 
3.61721e-07

>  <r_epik_Ionization_Penalty_Charging>  (231) 
0

>  <r_epik_Ionization_Penalty_Neutral>  (231) 
3.61721e-07

>  <r_epik_State_Penalty>  (231) 
-0

>  <r_epik_Charging_Adjusted_Penalty>  (231) 
0

>  <i_epik_Tot_Q>  (231) 
0

>  <i_epik_Tot_abs_Q>  (231) 
0

>  <s_lp_Force_Field>  (231) 
OPLS3e

>  <r_lp_Energy>  (231) 
31.1039

>  <b_lp_Chiralities_Consistent>  (231) 
1

>  <s_lp_Variant>  (231) 
75:0-1

>  <s_i_glide_gridfile>  (231) 
pfpi4k_grid

>  <i_i_glide_lignum>  (231) 
30

>  <i_i_glide_rotatable_bonds>  (231) 
2

>  <r_i_docking_score>  (231) 
-3.1829

>  <r_i_glide_ligand_efficiency>  (231) 
-0.144677

>  <r_i_glide_ligand_efficiency_sa>  (231) 
-0.405392

>  <r_i_glide_ligand_efficiency_ln>  (231) 
-0.778018

>  <r_i_glide_gscore>  (231) 
-3.1829

>  <r_i_glide_lipo>  (231) 
-0.658382

>  <r_i_glide_hbond>  (231) 
-0.119884

>  <r_i_glide_metal>  (231) 
-0

>  <r_i_glide_rewards>  (231) 
-1.39821

>  <r_i_glide_evdw>  (231) 
-26.9562

>  <r_i_glide_ecoul>  (231) 
1.09595

>  <r_i_glide_erotb>  (231) 
0.197872

>  <r_i_glide_esite>  (231) 
-0.0208846

>  <r_i_glide_emodel>  (231) 
-30.1861

>  <r_i_glide_energy>  (231) 
-25.8602

>  <r_i_glide_einternal>  (231) 
1.76878

>  <r_i_glide_intrahb_reward>  (231) 
-0

>  <i_i_glide_confnum>  (231) 
3

>  <i_i_glide_posenum>  (231) 
1

>  <r_i_glide_eff_state_penalty>  (231) 
0

>  <ligand_id>  (231) 
75

>  <original_smiles>  (231) 
CC1CC(O)C2(C)C3C(CCC4OC43)CC12N1CCCC1=O

>  <smiles>  (231) 
[H]OC1([H])C([H])([H])C([H])(C([H])([H])[H])C2(N3C(=O)C([H])([H])C([H])([H])C3([H])[H])C([H])([H])C3([H])C([H])([H])C([H])([H])C4([H])OC4([H])C3([H])C12C([H])([H])[H]

$$$$
75:0:1
     RDKit          3D

 49 53  0  0  1  0  0  0  0  0999 V2000
    5.4225   -0.2886    2.4138 C   0  0  0  0  0  0  0  0  0  0  0  0
    5.8178   -1.5982    1.7099 C   0  0  2  0  0  0  0  0  0  0  0  0
    7.0136   -1.5097    0.7588 C   0  0  0  0  0  0  0  0  0  0  0  0
    6.9892   -2.8507    0.0024 C   0  0  1  0  0  0  0  0  0  0  0  0
    7.6056   -3.8423    0.8015 O   0  0  0  0  0  0  0  0  0  0  0  0
    5.4787   -3.1375   -0.2317 C   0  0  2  0  0  0  0  0  0  0  0  0
    5.1560   -4.6525   -0.4067 C   0  0  0  0  0  0  0  0  0  0  0  0
    5.0618   -2.3737   -1.5175 C   0  0  2  0  0  0  0  0  0  0  0  0
    3.6584   -1.8657   -1.2616 C   0  0  2  0  0  0  0  0  0  0  0  0
    3.2950   -0.8577   -2.3666 C   0  0  0  0  0  0  0  0  0  0  0  0
    3.1824   -1.5221   -3.7397 C   0  0  0  0  0  0  0  0  0  0  0  0
    4.2119   -2.6154   -3.9513 C   0  0  2  0  0  0  0  0  0  0  0  0
    4.0048   -3.8479   -3.2487 O   0  0  0  0  0  0  0  0  0  0  0  0
    5.1336   -3.0751   -2.8581 C   0  0  2  0  0  0  0  0  0  0  0  0
    3.7740   -1.3484    0.1605 C   0  0  0  0  0  0  0  0  0  0  0  0
    4.7067   -2.3673    0.9256 C   0  0  2  0  0  0  0  0  0  0  0  0
    3.9756   -3.2765    1.8505 N   0  0  0  0  0  0  0  0  0  0  0  0
    2.5383   -3.1939    2.0580 C   0  0  0  0  0  0  0  0  0  0  0  0
    2.1928   -4.2015    3.1553 C   0  0  0  0  0  0  0  0  0  0  0  0
    3.4564   -5.0324    3.3562 C   0  0  0  0  0  0  0  0  0  0  0  0
    4.5115   -4.2642    2.6101 C   0  0  0  0  0  0  0  0  0  0  0  0
    5.7093   -4.5542    2.6764 O   0  0  0  0  0  0  0  0  0  0  0  0
    5.2732    0.5260    1.7097 H   0  0  0  0  0  0  0  0  0  0  0  0
    6.2132    0.0227    3.0978 H   0  0  0  0  0  0  0  0  0  0  0  0
    4.5148   -0.4078    3.0019 H   0  0  0  0  0  0  0  0  0  0  0  0
    6.1850   -2.2100    2.5246 H   0  0  0  0  0  0  0  0  0  0  0  0
    6.8656   -0.6665    0.0812 H   0  0  0  0  0  0  0  0  0  0  0  0
    7.9509   -1.3192    1.2753 H   0  0  0  0  0  0  0  0  0  0  0  0
    7.5575   -2.7911   -0.9315 H   0  0  0  0  0  0  0  0  0  0  0  0
    7.0587   -3.9947    1.5694 H   0  0  0  0  0  0  0  0  0  0  0  0
    4.1115   -4.8070   -0.6950 H   0  0  0  0  0  0  0  0  0  0  0  0
    5.3842   -5.2575    0.4672 H   0  0  0  0  0  0  0  0  0  0  0  0
    5.7426   -5.0409   -1.2373 H   0  0  0  0  0  0  0  0  0  0  0  0
    5.6981   -1.4922   -1.6319 H   0  0  0  0  0  0  0  0  0  0  0  0
    2.9385   -2.6887   -1.2731 H   0  0  0  0  0  0  0  0  0  0  0  0
    2.3382   -0.3699   -2.1807 H   0  0  0  0  0  0  0  0  0  0  0  0
    4.0505   -0.0677   -2.3982 H   0  0  0  0  0  0  0  0  0  0  0  0
    2.1941   -1.9634   -3.8594 H   0  0  0  0  0  0  0  0  0  0  0  0
    3.2698   -0.7526   -4.5099 H   0  0  0  0  0  0  0  0  0  0  0  0
    4.5050   -2.7592   -4.9764 H   0  0  0  0  0  0  0  0  0  0  0  0
    6.1009   -3.4800   -3.1587 H   0  0  0  0  0  0  0  0  0  0  0  0
    4.2259   -0.3568    0.0745 H   0  0  0  0  0  0  0  0  0  0  0  0
    2.7850   -1.1774    0.5750 H   0  0  0  0  0  0  0  0  0  0  0  0
    2.2299   -2.1934    2.3710 H   0  0  0  0  0  0  0  0  0  0  0  0
    2.0308   -3.4311    1.1208 H   0  0  0  0  0  0  0  0  0  0  0  0
    1.9560   -3.6721    4.0779 H   0  0  0  0  0  0  0  0  0  0  0  0
    1.3303   -4.8121    2.8876 H   0  0  0  0  0  0  0  0  0  0  0  0
    3.7288   -5.1371    4.4084 H   0  0  0  0  0  0  0  0  0  0  0  0
    3.3598   -6.0218    2.9072 H   0  0  0  0  0  0  0  0  0  0  0  0
  1  2  1  0
  1 23  1  0
  1 24  1  0
  1 25  1  0
  2 16  1  0
  2  3  1  0
  2 26  1  1
  3  4  1  0
  3 27  1  0
  3 28  1  0
  4  5  1  0
  4  6  1  0
  4 29  1  6
  5 30  1  0
  6 16  1  0
  6  7  1  6
  6  8  1  0
  7 31  1  0
  7 32  1  0
  7 33  1  0
  8 14  1  0
  8  9  1  0
  8 34  1  6
  9 10  1  0
  9 15  1  0
  9 35  1  1
 10 11  1  0
 10 36  1  0
 10 37  1  0
 11 12  1  0
 11 38  1  0
 11 39  1  0
 12 14  1  0
 12 13  1  0
 12 40  1  6
 13 14  1  0
 14 41  1  6
 15 16  1  0
 15 42  1  0
 15 43  1  0
 16 17  1  1
 17 21  1  0
 17 18  1  0
 18 19  1  0
 18 44  1  0
 18 45  1  0
 19 20  1  0
 19 46  1  0
 19 47  1  0
 20 21  1  0
 20 48  1  0
 20 49  1  0
 21 22  2  0
M  END
>  <i_m_ct_stereo_status>  (232) 
1

>  <s_m_source_file>  (232) 
/var/tmp/pbs.5076255.sched01/tmpln0nb48r/86bqtw16pk.sdf

>  <i_m_source_file_index>  (232) 
30

>  <i_lp_mmshare_version>  (232) 
48012

>  <i_f3d_flags>  (232) 
0

>  <s_epik_input>  (232) 
Tz1DMVtDSDJdW0NIMl1bQ0gyXU4xW0NAXTIoW0NASF0oW0NIM10pW0NIMl1bQ0BIXTNbT0hdKVtDSDJdW0NASF0oW0NASF00W0NAXTIzW0NIM10pW0NIMl1bQ0gyXVtDQEhdNVtDQEBIXTRPNQ==

>  <s_epik_cmdline>  (232) 
J2VwaWtfcHl0aG9uJywgJy1waHQnLCAnMi4wJywgJy1waCcsICc3LjAnLCAnLXRuJywgJzgnLCAnLW1hJywgJzIwMCcsICctaW1hZScsICc8aW5maWxlLm1hZT4nLCAnLW9tYWUnLCAnPG91dGZpbGUubWFlPic=

>  <r_lp_tautomer_probability>  (232) 
1

>  <r_epik_Ionization_Penalty>  (232) 
3.61721e-07

>  <r_epik_Ionization_Penalty_Charging>  (232) 
0

>  <r_epik_Ionization_Penalty_Neutral>  (232) 
3.61721e-07

>  <r_epik_State_Penalty>  (232) 
-0

>  <r_epik_Charging_Adjusted_Penalty>  (232) 
0

>  <i_epik_Tot_Q>  (232) 
0

>  <i_epik_Tot_abs_Q>  (232) 
0

>  <s_lp_Force_Field>  (232) 
OPLS3e

>  <r_lp_Energy>  (232) 
31.1039

>  <b_lp_Chiralities_Consistent>  (232) 
1

>  <s_lp_Variant>  (232) 
75:0-1

>  <s_i_glide_gridfile>  (232) 
pfpi4k_grid

>  <i_i_glide_lignum>  (232) 
30

>  <i_i_glide_rotatable_bonds>  (232) 
2

>  <r_i_docking_score>  (232) 
-2.98626

>  <r_i_glide_ligand_efficiency>  (232) 
-0.135739

>  <r_i_glide_ligand_efficiency_sa>  (232) 
-0.380346

>  <r_i_glide_ligand_efficiency_ln>  (232) 
-0.72995

>  <r_i_glide_gscore>  (232) 
-2.98626

>  <r_i_glide_lipo>  (232) 
-0.804008

>  <r_i_glide_hbond>  (232) 
0

>  <r_i_glide_metal>  (232) 
-0

>  <r_i_glide_rewards>  (232) 
-1.84717

>  <r_i_glide_evdw>  (232) 
-18.5614

>  <r_i_glide_ecoul>  (232) 
2.63415

>  <r_i_glide_erotb>  (232) 
0.197872

>  <r_i_glide_esite>  (232) 
0

>  <r_i_glide_emodel>  (232) 
-25.3092

>  <r_i_glide_energy>  (232) 
-15.9273

>  <r_i_glide_einternal>  (232) 
0.273673

>  <r_i_glide_intrahb_reward>  (232) 
-0.5

>  <i_i_glide_confnum>  (232) 
2

>  <i_i_glide_posenum>  (232) 
2

>  <r_i_glide_eff_state_penalty>  (232) 
0

>  <ligand_id>  (232) 
75

>  <original_smiles>  (232) 
CC1CC(O)C2(C)C3C(CCC4OC43)CC12N1CCCC1=O

>  <smiles>  (232) 
[H]OC1([H])C([H])([H])C([H])(C([H])([H])[H])C2(N3C(=O)C([H])([H])C([H])([H])C3([H])[H])C([H])([H])C3([H])C([H])([H])C([H])([H])C4([H])OC4([H])C3([H])C12C([H])([H])[H]

$$$$
75:0:2
     RDKit          3D

 49 53  0  0  1  0  0  0  0  0999 V2000
    7.3843   -3.6265    1.0092 C   0  0  0  0  0  0  0  0  0  0  0  0
    5.9001   -3.9896    1.0328 C   0  0  2  0  0  0  0  0  0  0  0  0
    5.5485   -5.2334    0.2418 C   0  0  0  0  0  0  0  0  0  0  0  0
    4.0269   -5.1859    0.1314 C   0  0  1  0  0  0  0  0  0  0  0  0
    3.4388   -5.7530    1.2731 O   0  0  0  0  0  0  0  0  0  0  0  0
    3.6943   -3.6789   -0.0760 C   0  0  2  0  0  0  0  0  0  0  0  0
    2.2682   -3.3409    0.3904 C   0  0  0  0  0  0  0  0  0  0  0  0
    3.8363   -3.3406   -1.5967 C   0  0  2  0  0  0  0  0  0  0  0  0
    4.3840   -1.9364   -1.6348 C   0  0  2  0  0  0  0  0  0  0  0  0
    4.8179   -1.6200   -3.0698 C   0  0  0  0  0  0  0  0  0  0  0  0
    3.6612   -1.5749   -4.1072 C   0  0  0  0  0  0  0  0  0  0  0  0
    2.6555   -2.6364   -3.8412 C   0  0  2  0  0  0  0  0  0  0  0  0
    1.9187   -2.2494   -2.6959 O   0  0  0  0  0  0  0  0  0  0  0  0
    2.6308   -3.4527   -2.5204 C   0  0  2  0  0  0  0  0  0  0  0  0
    5.4729   -2.0021   -0.5783 C   0  0  0  0  0  0  0  0  0  0  0  0
    4.8899   -2.8763    0.6009 C   0  0  2  0  0  0  0  0  0  0  0  0
    4.4688   -2.0658    1.7887 N   0  0  0  0  0  0  0  0  0  0  0  0
    4.6289   -0.6173    1.8378 C   0  0  0  0  0  0  0  0  0  0  0  0
    4.2220   -0.1849    3.2425 C   0  0  0  0  0  0  0  0  0  0  0  0
    3.5660   -1.3982    3.8783 C   0  0  0  0  0  0  0  0  0  0  0  0
    3.9169   -2.5430    2.9508 C   0  0  0  0  0  0  0  0  0  0  0  0
    3.7477   -3.6810    3.2772 O   0  0  0  0  0  0  0  0  0  0  0  0
    7.8371   -3.5428    0.0181 H   0  0  0  0  0  0  0  0  0  0  0  0
    7.9735   -4.3554    1.5789 H   0  0  0  0  0  0  0  0  0  0  0  0
    7.4314   -2.6630    1.4990 H   0  0  0  0  0  0  0  0  0  0  0  0
    5.7136   -4.2689    2.0616 H   0  0  0  0  0  0  0  0  0  0  0  0
    5.9973   -5.1099   -0.7342 H   0  0  0  0  0  0  0  0  0  0  0  0
    5.9413   -6.1582    0.6796 H   0  0  0  0  0  0  0  0  0  0  0  0
    3.7069   -5.7982   -0.7104 H   0  0  0  0  0  0  0  0  0  0  0  0
    3.8087   -6.6305    1.3666 H   0  0  0  0  0  0  0  0  0  0  0  0
    2.0607   -2.2849    0.1922 H   0  0  0  0  0  0  0  0  0  0  0  0
    2.0713   -3.5266    1.4405 H   0  0  0  0  0  0  0  0  0  0  0  0
    1.5850   -3.9623   -0.2107 H   0  0  0  0  0  0  0  0  0  0  0  0
    4.5881   -4.0222   -2.0303 H   0  0  0  0  0  0  0  0  0  0  0  0
    3.6333   -1.1982   -1.3131 H   0  0  0  0  0  0  0  0  0  0  0  0
    5.3228   -0.6814   -3.0524 H   0  0  0  0  0  0  0  0  0  0  0  0
    5.4985   -2.4081   -3.3971 H   0  0  0  0  0  0  0  0  0  0  0  0
    3.1423   -0.6182   -4.0203 H   0  0  0  0  0  0  0  0  0  0  0  0
    4.0224   -1.6762   -5.1298 H   0  0  0  0  0  0  0  0  0  0  0  0
    1.9900   -2.9622   -4.6326 H   0  0  0  0  0  0  0  0  0  0  0  0
    1.9251   -4.2587   -2.3708 H   0  0  0  0  0  0  0  0  0  0  0  0
    6.3218   -2.4864   -1.0747 H   0  0  0  0  0  0  0  0  0  0  0  0
    5.8164   -0.9950   -0.3492 H   0  0  0  0  0  0  0  0  0  0  0  0
    5.6618   -0.3090    1.6706 H   0  0  0  0  0  0  0  0  0  0  0  0
    3.9995   -0.1434    1.0820 H   0  0  0  0  0  0  0  0  0  0  0  0
    5.1070    0.0835    3.8250 H   0  0  0  0  0  0  0  0  0  0  0  0
    3.5463    0.6766    3.2296 H   0  0  0  0  0  0  0  0  0  0  0  0
    3.9487   -1.6338    4.8718 H   0  0  0  0  0  0  0  0  0  0  0  0
    2.4836   -1.3234    3.9054 H   0  0  0  0  0  0  0  0  0  0  0  0
  1  2  1  0
  1 23  1  0
  1 24  1  0
  1 25  1  0
  2 16  1  0
  2  3  1  0
  2 26  1  1
  3  4  1  0
  3 27  1  0
  3 28  1  0
  4  5  1  0
  4  6  1  0
  4 29  1  6
  5 30  1  0
  6 16  1  0
  6  7  1  1
  6  8  1  0
  7 31  1  0
  7 32  1  0
  7 33  1  0
  8 14  1  0
  8  9  1  0
  8 34  1  6
  9 10  1  0
  9 15  1  0
  9 35  1  1
 10 11  1  0
 10 36  1  0
 10 37  1  0
 11 12  1  0
 11 38  1  0
 11 39  1  0
 12 14  1  0
 12 13  1  0
 12 40  1  6
 13 14  1  0
 14 41  1  6
 15 16  1  0
 15 42  1  0
 15 43  1  0
 16 17  1  1
 17 21  1  0
 17 18  1  0
 18 19  1  0
 18 44  1  0
 18 45  1  0
 19 20  1  0
 19 46  1  0
 19 47  1  0
 20 21  1  0
 20 48  1  0
 20 49  1  0
 21 22  2  0
M  END
>  <i_m_ct_stereo_status>  (233) 
1

>  <s_m_source_file>  (233) 
/var/tmp/pbs.5076255.sched01/tmpln0nb48r/86bqtw16pk.sdf

>  <i_m_source_file_index>  (233) 
30

>  <i_lp_mmshare_version>  (233) 
48012

>  <i_f3d_flags>  (233) 
0

>  <s_epik_input>  (233) 
Tz1DMVtDSDJdW0NIMl1bQ0gyXU4xW0NAXTIoW0NASF0oW0NIM10pW0NIMl1bQ0BIXTNbT0hdKVtDSDJdW0NASF0oW0NASF00W0NAXTIzW0NIM10pW0NIMl1bQ0gyXVtDQEhdNVtDQEBIXTRPNQ==

>  <s_epik_cmdline>  (233) 
J2VwaWtfcHl0aG9uJywgJy1waHQnLCAnMi4wJywgJy1waCcsICc3LjAnLCAnLXRuJywgJzgnLCAnLW1hJywgJzIwMCcsICctaW1hZScsICc8aW5maWxlLm1hZT4nLCAnLW9tYWUnLCAnPG91dGZpbGUubWFlPic=

>  <r_lp_tautomer_probability>  (233) 
1

>  <r_epik_Ionization_Penalty>  (233) 
3.61721e-07

>  <r_epik_Ionization_Penalty_Charging>  (233) 
0

>  <r_epik_Ionization_Penalty_Neutral>  (233) 
3.61721e-07

>  <r_epik_State_Penalty>  (233) 
-0

>  <r_epik_Charging_Adjusted_Penalty>  (233) 
0

>  <i_epik_Tot_Q>  (233) 
0

>  <i_epik_Tot_abs_Q>  (233) 
0

>  <s_lp_Force_Field>  (233) 
OPLS3e

>  <r_lp_Energy>  (233) 
31.1039

>  <b_lp_Chiralities_Consistent>  (233) 
1

>  <s_lp_Variant>  (233) 
75:0-1

>  <s_i_glide_gridfile>  (233) 
pfpi4k_grid

>  <i_i_glide_lignum>  (233) 
30

>  <i_i_glide_rotatable_bonds>  (233) 
2

>  <r_i_docking_score>  (233) 
-2.31671

>  <r_i_glide_ligand_efficiency>  (233) 
-0.105305

>  <r_i_glide_ligand_efficiency_sa>  (233) 
-0.295069

>  <r_i_glide_ligand_efficiency_ln>  (233) 
-0.566289

>  <r_i_glide_gscore>  (233) 
-2.31671

>  <r_i_glide_lipo>  (233) 
-0.672853

>  <r_i_glide_hbond>  (233) 
0

>  <r_i_glide_metal>  (233) 
-0

>  <r_i_glide_rewards>  (233) 
-1.35441

>  <r_i_glide_evdw>  (233) 
-9.30124

>  <r_i_glide_ecoul>  (233) 
-0.1484

>  <r_i_glide_erotb>  (233) 
0.197872

>  <r_i_glide_esite>  (233) 
0

>  <r_i_glide_emodel>  (233) 
-11.7276

>  <r_i_glide_energy>  (233) 
-9.44964

>  <r_i_glide_einternal>  (233) 
0.527179

>  <r_i_glide_intrahb_reward>  (233) 
-0

>  <i_i_glide_confnum>  (233) 
2

>  <i_i_glide_posenum>  (233) 
10

>  <r_i_glide_eff_state_penalty>  (233) 
0

>  <ligand_id>  (233) 
75

>  <original_smiles>  (233) 
CC1CC(O)C2(C)C3C(CCC4OC43)CC12N1CCCC1=O

>  <smiles>  (233) 
[H]OC1([H])C([H])([H])C([H])(C([H])([H])[H])C2(N3C(=O)C([H])([H])C([H])([H])C3([H])[H])C([H])([H])C3([H])C([H])([H])C([H])([H])C4([H])OC4([H])C3([H])C12C([H])([H])[H]

$$$$
76:0:0
     RDKit          3D

 20 22  0  0  1  0  0  0  0  0999 V2000
    3.8237   -0.9329   -3.2692 C   0  0  0  0  0  0  0  0  0  0  0  0
    3.0059   -1.9999   -3.5695 C   0  0  0  0  0  0  0  0  0  0  0  0
    3.4489   -3.0523   -2.7856 N   0  0  0  0  0  0  0  0  0  0  0  0
    4.4935   -2.6015   -2.0771 C   0  0  0  0  0  0  0  0  0  0  0  0
    5.1694   -3.4344   -1.1590 N   0  0  0  0  0  0  0  0  0  0  0  0
    4.6727   -4.5215   -0.5310 C   0  0  0  0  0  0  0  0  0  0  0  0
    5.4700   -5.1635    0.3190 N   0  0  0  0  0  0  0  0  0  0  0  0
    6.6236   -4.4104    0.2245 C   0  0  0  0  0  0  0  0  0  0  0  0
    7.8921   -4.5463    0.8318 C   0  0  0  0  0  0  0  0  0  0  0  0
    8.8640   -3.6628    0.5064 N   0  0  0  0  0  0  0  0  0  0  0  0
    8.5837   -2.6628   -0.3349 C   0  0  0  0  0  0  0  0  0  0  0  0
    7.4389   -2.3951   -0.9761 N   0  0  0  0  0  0  0  0  0  0  0  0
    6.4736   -3.3186   -0.6774 C   0  0  0  0  0  0  0  0  0  0  0  0
    4.7754   -1.3263   -2.3287 N   0  0  0  0  0  0  0  0  0  0  0  0
    3.0547   -3.9832   -2.7464 H   0  0  0  0  0  0  0  0  0  0  0  0
    3.8089    0.0789   -3.6536 H   0  0  0  0  0  0  0  0  0  0  0  0
    2.1624   -2.0868   -4.2415 H   0  0  0  0  0  0  0  0  0  0  0  0
    3.6588   -4.8523   -0.6957 H   0  0  0  0  0  0  0  0  0  0  0  0
    8.1195   -5.3405    1.5311 H   0  0  0  0  0  0  0  0  0  0  0  0
    9.4024   -1.9801   -0.5055 H   0  0  0  0  0  0  0  0  0  0  0  0
  1 14  1  0
  1  2  2  0
  1 16  1  0
  2  3  1  0
  2 17  1  0
  3 15  1  0
  3  4  1  0
  4  5  1  0
  4 14  2  0
  5 13  1  0
  5  6  1  0
  6  7  2  0
  6 18  1  0
  7  8  1  0
  8 13  2  0
  8  9  1  0
  9 10  2  0
  9 19  1  0
 10 11  1  0
 11 12  2  0
 11 20  1  0
 12 13  1  0
M  END
>  <i_m_ct_stereo_status>  (234) 
1

>  <s_m_source_file>  (234) 
/var/tmp/pbs.5076255.sched01/tmpln0nb48r/86bqtw16pk.sdf

>  <i_m_source_file_index>  (234) 
31

>  <i_lp_mmshare_version>  (234) 
48012

>  <i_f3d_flags>  (234) 
0

>  <s_epik_input>  (234) 
bjFbY0hdW2NIXVtuSF1jMS1uKFtjSF1uMiljKGMyMyluW2NIXW5bY0hdMw==

>  <s_epik_cmdline>  (234) 
J2VwaWtfcHl0aG9uJywgJy1waHQnLCAnMi4wJywgJy1waCcsICc3LjAnLCAnLXRuJywgJzgnLCAnLW1hJywgJzIwMCcsICctaW1hZScsICc8aW5maWxlLm1hZT4nLCAnLW9tYWUnLCAnPG91dGZpbGUubWFlPic=

>  <r_lp_tautomer_probability>  (234) 
1

>  <r_epik_Ionization_Penalty>  (234) 
0.00802711

>  <r_epik_Ionization_Penalty_Charging>  (234) 
5.00469e-06

>  <r_epik_Ionization_Penalty_Neutral>  (234) 
0.00802211

>  <r_epik_State_Penalty>  (234) 
0.00601556

>  <r_epik_Charging_Adjusted_Penalty>  (234) 
0.00602056

>  <i_epik_Tot_Q>  (234) 
0

>  <i_epik_Tot_abs_Q>  (234) 
0

>  <s_lp_Force_Field>  (234) 
OPLS3e

>  <r_lp_Energy>  (234) 
19.9697

>  <b_lp_Chiralities_Consistent>  (234) 
1

>  <s_lp_Variant>  (234) 
76:0-1

>  <s_i_glide_gridfile>  (234) 
pfpi4k_grid

>  <i_i_glide_lignum>  (234) 
31

>  <i_i_glide_rotatable_bonds>  (234) 
1

>  <r_i_docking_score>  (234) 
-5.56803

>  <r_i_glide_ligand_efficiency>  (234) 
-0.397717

>  <r_i_glide_ligand_efficiency_sa>  (234) 
-0.958554

>  <r_i_glide_ligand_efficiency_ln>  (234) 
-1.53008

>  <r_i_glide_gscore>  (234) 
-5.56803

>  <r_i_glide_lipo>  (234) 
-0.619051

>  <r_i_glide_hbond>  (234) 
-0.416043

>  <r_i_glide_metal>  (234) 
-0

>  <r_i_glide_rewards>  (234) 
-2.41076

>  <r_i_glide_evdw>  (234) 
-22.6929

>  <r_i_glide_ecoul>  (234) 
-9.19519

>  <r_i_glide_erotb>  (234) 
0.459853

>  <r_i_glide_esite>  (234) 
-0.0681036

>  <r_i_glide_emodel>  (234) 
-43.6204

>  <r_i_glide_energy>  (234) 
-31.8881

>  <r_i_glide_einternal>  (234) 
0.480028

>  <r_i_glide_intrahb_reward>  (234) 
-0

>  <i_i_glide_confnum>  (234) 
2

>  <i_i_glide_posenum>  (234) 
13

>  <r_i_glide_eff_state_penalty>  (234) 
0

>  <ligand_id>  (234) 
76

>  <original_smiles>  (234) 
c1c[nH]c(-n2cnc3cncnc32)n1

>  <smiles>  (234) 
[H]c1nc([H])c2nc([H])n(-c3nc([H])c([H])n3[H])c2n1

$$$$
76:0:1
     RDKit          3D

 20 22  0  0  1  0  0  0  0  0999 V2000
    3.7486   -1.2930   -4.3219 C   0  0  0  0  0  0  0  0  0  0  0  0
    3.8176   -0.2614   -3.4188 C   0  0  0  0  0  0  0  0  0  0  0  0
    4.3603   -0.8042   -2.2655 N   0  0  0  0  0  0  0  0  0  0  0  0
    4.5686   -2.1043   -2.5021 C   0  0  0  0  0  0  0  0  0  0  0  0
    5.0520   -2.9690   -1.5011 N   0  0  0  0  0  0  0  0  0  0  0  0
    4.3674   -3.9773   -0.9219 C   0  0  0  0  0  0  0  0  0  0  0  0
    5.0046   -4.7209   -0.0199 N   0  0  0  0  0  0  0  0  0  0  0  0
    6.2520   -4.1272   -0.0154 C   0  0  0  0  0  0  0  0  0  0  0  0
    7.4392   -4.4195    0.6886 C   0  0  0  0  0  0  0  0  0  0  0  0
    8.5373   -3.6660    0.4409 N   0  0  0  0  0  0  0  0  0  0  0  0
    8.4615   -2.6631   -0.4384 C   0  0  0  0  0  0  0  0  0  0  0  0
    7.4095   -2.2574   -1.1605 N   0  0  0  0  0  0  0  0  0  0  0  0
    6.3160   -3.0316   -0.9249 C   0  0  0  0  0  0  0  0  0  0  0  0
    4.2148   -2.4673   -3.7309 N   0  0  0  0  0  0  0  0  0  0  0  0
    4.5214   -0.3281   -1.3886 H   0  0  0  0  0  0  0  0  0  0  0  0
    3.4132   -1.2702   -5.3484 H   0  0  0  0  0  0  0  0  0  0  0  0
    3.5455    0.7813   -3.5138 H   0  0  0  0  0  0  0  0  0  0  0  0
    3.3470   -4.1802   -1.1994 H   0  0  0  0  0  0  0  0  0  0  0  0
    7.5144   -5.2210    1.4098 H   0  0  0  0  0  0  0  0  0  0  0  0
    9.3733   -2.0990   -0.5603 H   0  0  0  0  0  0  0  0  0  0  0  0
  1 14  1  0
  1  2  2  0
  1 16  1  0
  2  3  1  0
  2 17  1  0
  3 15  1  0
  3  4  1  0
  4  5  1  0
  4 14  2  0
  5 13  1  0
  5  6  1  0
  6  7  2  0
  6 18  1  0
  7  8  1  0
  8 13  2  0
  8  9  1  0
  9 10  2  0
  9 19  1  0
 10 11  1  0
 11 12  2  0
 11 20  1  0
 12 13  1  0
M  END
>  <i_m_ct_stereo_status>  (235) 
1

>  <s_m_source_file>  (235) 
/var/tmp/pbs.5076255.sched01/tmpln0nb48r/86bqtw16pk.sdf

>  <i_m_source_file_index>  (235) 
31

>  <i_lp_mmshare_version>  (235) 
48012

>  <i_f3d_flags>  (235) 
0

>  <s_epik_input>  (235) 
bjFbY0hdW2NIXVtuSF1jMS1uKFtjSF1uMiljKGMyMyluW2NIXW5bY0hdMw==

>  <s_epik_cmdline>  (235) 
J2VwaWtfcHl0aG9uJywgJy1waHQnLCAnMi4wJywgJy1waCcsICc3LjAnLCAnLXRuJywgJzgnLCAnLW1hJywgJzIwMCcsICctaW1hZScsICc8aW5maWxlLm1hZT4nLCAnLW9tYWUnLCAnPG91dGZpbGUubWFlPic=

>  <r_lp_tautomer_probability>  (235) 
1

>  <r_epik_Ionization_Penalty>  (235) 
0.00802711

>  <r_epik_Ionization_Penalty_Charging>  (235) 
5.00469e-06

>  <r_epik_Ionization_Penalty_Neutral>  (235) 
0.00802211

>  <r_epik_State_Penalty>  (235) 
0.00601556

>  <r_epik_Charging_Adjusted_Penalty>  (235) 
0.00602056

>  <i_epik_Tot_Q>  (235) 
0

>  <i_epik_Tot_abs_Q>  (235) 
0

>  <s_lp_Force_Field>  (235) 
OPLS3e

>  <r_lp_Energy>  (235) 
19.9697

>  <b_lp_Chiralities_Consistent>  (235) 
1

>  <s_lp_Variant>  (235) 
76:0-1

>  <s_i_glide_gridfile>  (235) 
pfpi4k_grid

>  <i_i_glide_lignum>  (235) 
31

>  <i_i_glide_rotatable_bonds>  (235) 
1

>  <r_i_docking_score>  (235) 
-4.73694

>  <r_i_glide_ligand_efficiency>  (235) 
-0.338353

>  <r_i_glide_ligand_efficiency_sa>  (235) 
-0.815479

>  <r_i_glide_ligand_efficiency_ln>  (235) 
-1.30169

>  <r_i_glide_gscore>  (235) 
-4.73694

>  <r_i_glide_lipo>  (235) 
-0.403354

>  <r_i_glide_hbond>  (235) 
-0.181745

>  <r_i_glide_metal>  (235) 
-0

>  <r_i_glide_rewards>  (235) 
-2.30575

>  <r_i_glide_evdw>  (235) 
-22.2767

>  <r_i_glide_ecoul>  (235) 
-7.47288

>  <r_i_glide_erotb>  (235) 
0.459853

>  <r_i_glide_esite>  (235) 
-0.0711814

>  <r_i_glide_emodel>  (235) 
-38.3593

>  <r_i_glide_energy>  (235) 
-29.7496

>  <r_i_glide_einternal>  (235) 
2.92161

>  <r_i_glide_intrahb_reward>  (235) 
-0

>  <i_i_glide_confnum>  (235) 
2

>  <i_i_glide_posenum>  (235) 
1

>  <r_i_glide_eff_state_penalty>  (235) 
0

>  <ligand_id>  (235) 
76

>  <original_smiles>  (235) 
c1c[nH]c(-n2cnc3cncnc32)n1

>  <smiles>  (235) 
[H]c1nc([H])c2nc([H])n(-c3nc([H])c([H])n3[H])c2n1

$$$$
76:0:2
     RDKit          3D

 20 22  0  0  1  0  0  0  0  0999 V2000
    1.4030   -6.6455    1.1340 C   0  0  0  0  0  0  0  0  0  0  0  0
    2.4765   -6.3900    1.9588 C   0  0  0  0  0  0  0  0  0  0  0  0
    3.1440   -5.3142    1.3879 N   0  0  0  0  0  0  0  0  0  0  0  0
    2.4730   -4.9584    0.2871 C   0  0  0  0  0  0  0  0  0  0  0  0
    2.8592   -3.8658   -0.5344 N   0  0  0  0  0  0  0  0  0  0  0  0
    2.2528   -3.4581   -1.6734 C   0  0  0  0  0  0  0  0  0  0  0  0
    2.8137   -2.4814   -2.3809 N   0  0  0  0  0  0  0  0  0  0  0  0
    3.8672   -2.1490   -1.5588 C   0  0  0  0  0  0  0  0  0  0  0  0
    4.8537   -1.1487   -1.6648 C   0  0  0  0  0  0  0  0  0  0  0  0
    5.8163   -1.0912   -0.7139 N   0  0  0  0  0  0  0  0  0  0  0  0
    5.7833   -1.9556    0.3068 C   0  0  0  0  0  0  0  0  0  0  0  0
    4.9066   -2.9351    0.5513 N   0  0  0  0  0  0  0  0  0  0  0  0
    3.9443   -2.9969   -0.4157 C   0  0  0  0  0  0  0  0  0  0  0  0
    1.4154   -5.7369    0.0785 N   0  0  0  0  0  0  0  0  0  0  0  0
    3.9820   -4.8579    1.7312 H   0  0  0  0  0  0  0  0  0  0  0  0
    0.6250   -7.4004    1.2052 H   0  0  0  0  0  0  0  0  0  0  0  0
    2.8034   -6.8791    2.8651 H   0  0  0  0  0  0  0  0  0  0  0  0
    1.3823   -3.9832   -2.0370 H   0  0  0  0  0  0  0  0  0  0  0  0
    4.8635   -0.4403   -2.4837 H   0  0  0  0  0  0  0  0  0  0  0  0
    6.5704   -1.8370    1.0352 H   0  0  0  0  0  0  0  0  0  0  0  0
  1 14  1  0
  1  2  2  0
  1 16  1  0
  2  3  1  0
  2 17  1  0
  3 15  1  0
  3  4  1  0
  4  5  1  0
  4 14  2  0
  5 13  1  0
  5  6  1  0
  6  7  2  0
  6 18  1  0
  7  8  1  0
  8 13  2  0
  8  9  1  0
  9 10  2  0
  9 19  1  0
 10 11  1  0
 11 12  2  0
 11 20  1  0
 12 13  1  0
M  END
>  <i_m_ct_stereo_status>  (236) 
1

>  <s_m_source_file>  (236) 
/var/tmp/pbs.5076255.sched01/tmpln0nb48r/86bqtw16pk.sdf

>  <i_m_source_file_index>  (236) 
31

>  <i_lp_mmshare_version>  (236) 
48012

>  <i_f3d_flags>  (236) 
0

>  <s_epik_input>  (236) 
bjFbY0hdW2NIXVtuSF1jMS1uKFtjSF1uMiljKGMyMyluW2NIXW5bY0hdMw==

>  <s_epik_cmdline>  (236) 
J2VwaWtfcHl0aG9uJywgJy1waHQnLCAnMi4wJywgJy1waCcsICc3LjAnLCAnLXRuJywgJzgnLCAnLW1hJywgJzIwMCcsICctaW1hZScsICc8aW5maWxlLm1hZT4nLCAnLW9tYWUnLCAnPG91dGZpbGUubWFlPic=

>  <r_lp_tautomer_probability>  (236) 
1

>  <r_epik_Ionization_Penalty>  (236) 
0.00802711

>  <r_epik_Ionization_Penalty_Charging>  (236) 
5.00469e-06

>  <r_epik_Ionization_Penalty_Neutral>  (236) 
0.00802211

>  <r_epik_State_Penalty>  (236) 
0.00601556

>  <r_epik_Charging_Adjusted_Penalty>  (236) 
0.00602056

>  <i_epik_Tot_Q>  (236) 
0

>  <i_epik_Tot_abs_Q>  (236) 
0

>  <s_lp_Force_Field>  (236) 
OPLS3e

>  <r_lp_Energy>  (236) 
19.9697

>  <b_lp_Chiralities_Consistent>  (236) 
1

>  <s_lp_Variant>  (236) 
76:0-1

>  <s_i_glide_gridfile>  (236) 
pfpi4k_grid

>  <i_i_glide_lignum>  (236) 
31

>  <i_i_glide_rotatable_bonds>  (236) 
1

>  <r_i_docking_score>  (236) 
-4.38567

>  <r_i_glide_ligand_efficiency>  (236) 
-0.313262

>  <r_i_glide_ligand_efficiency_sa>  (236) 
-0.755007

>  <r_i_glide_ligand_efficiency_ln>  (236) 
-1.20517

>  <r_i_glide_gscore>  (236) 
-4.38567

>  <r_i_glide_lipo>  (236) 
0

>  <r_i_glide_hbond>  (236) 
-0.235513

>  <r_i_glide_metal>  (236) 
-0

>  <r_i_glide_rewards>  (236) 
-2.90215

>  <r_i_glide_evdw>  (236) 
-16.4946

>  <r_i_glide_ecoul>  (236) 
-5.34458

>  <r_i_glide_erotb>  (236) 
0.459853

>  <r_i_glide_esite>  (236) 
-0.0814414

>  <r_i_glide_emodel>  (236) 
-36.2219

>  <r_i_glide_energy>  (236) 
-21.8392

>  <r_i_glide_einternal>  (236) 
0.00140634

>  <r_i_glide_intrahb_reward>  (236) 
-0.5

>  <i_i_glide_confnum>  (236) 
3

>  <i_i_glide_posenum>  (236) 
19

>  <r_i_glide_eff_state_penalty>  (236) 
0

>  <ligand_id>  (236) 
76

>  <original_smiles>  (236) 
c1c[nH]c(-n2cnc3cncnc32)n1

>  <smiles>  (236) 
[H]c1nc([H])c2nc([H])n(-c3nc([H])c([H])n3[H])c2n1

$$$$
76:1:0
     RDKit          3D

 19 21  0  0  1  0  0  0  0  0999 V2000
   -2.5905    2.1428    7.8682 C   0  0  0  0  0  0  0  0  0  0  0  0
   -2.5679    3.2070    6.9279 C   0  0  0  0  0  0  0  0  0  0  0  0
   -1.9428    2.7368    5.8438 N   0  0  0  0  0  0  0  0  0  0  0  0
   -1.6074    1.4536    6.0771 C   0  0  0  0  0  0  0  0  0  0  0  0
   -0.9068    0.6617    5.1526 N   0  0  0  0  0  0  0  0  0  0  0  0
   -0.4954    1.0424    3.9259 C   0  0  0  0  0  0  0  0  0  0  0  0
    0.1646    0.1443    3.1971 N   0  0  0  0  0  0  0  0  0  0  0  0
    0.1821   -0.9394    4.0539 C   0  0  0  0  0  0  0  0  0  0  0  0
    0.7051   -2.2457    3.9222 C   0  0  0  0  0  0  0  0  0  0  0  0
    0.5509   -3.1220    4.9437 N   0  0  0  0  0  0  0  0  0  0  0  0
   -0.0759   -2.7202    6.0554 C   0  0  0  0  0  0  0  0  0  0  0  0
   -0.6235   -1.5335    6.3216 N   0  0  0  0  0  0  0  0  0  0  0  0
   -0.4738   -0.6541    5.2813 C   0  0  0  0  0  0  0  0  0  0  0  0
   -2.0361    1.0620    7.2871 N   0  0  0  0  0  0  0  0  0  0  0  0
   -3.0265    2.1423    8.8607 H   0  0  0  0  0  0  0  0  0  0  0  0
   -2.9558    4.2103    6.9492 H   0  0  0  0  0  0  0  0  0  0  0  0
   -0.6905    2.0355    3.5530 H   0  0  0  0  0  0  0  0  0  0  0  0
    1.2055   -2.5691    3.0197 H   0  0  0  0  0  0  0  0  0  0  0  0
   -0.1567   -3.4578    6.8379 H   0  0  0  0  0  0  0  0  0  0  0  0
  1 14  1  0
  1  2  2  0
  1 15  1  0
  2  3  1  0
  2 16  1  0
  3  4  1  0
  4  5  1  0
  4 14  2  0
  5 13  1  0
  5  6  1  0
  6  7  2  0
  6 17  1  0
  7  8  1  0
  8 13  2  0
  8  9  1  0
  9 10  2  0
  9 18  1  0
 10 11  1  0
 11 12  2  0
 11 19  1  0
 12 13  1  0
M  CHG  1   3  -1
M  END
>  <i_m_ct_stereo_status>  (237) 
1

>  <s_m_source_file>  (237) 
/var/tmp/pbs.5076255.sched01/tmpln0nb48r/86bqtw16pk.sdf

>  <i_m_source_file_index>  (237) 
32

>  <i_lp_mmshare_version>  (237) 
48012

>  <i_f3d_flags>  (237) 
0

>  <s_epik_input>  (237) 
bjFbY0hdW2NIXVtuSF1jMS1uKFtjSF1uMiljKGMyMyluW2NIXW5bY0hdMw==

>  <s_epik_cmdline>  (237) 
J2VwaWtfcHl0aG9uJywgJy1waHQnLCAnMi4wJywgJy1waCcsICc3LjAnLCAnLXRuJywgJzgnLCAnLW1hJywgJzIwMCcsICctaW1hZScsICc8aW5maWxlLm1hZT4nLCAnLW9tYWUnLCAnPG91dGZpbGUubWFlPic=

>  <r_lp_tautomer_probability>  (237) 
1

>  <r_epik_Ionization_Penalty>  (237) 
2.55376

>  <r_epik_Ionization_Penalty_Charging>  (237) 
2.55373

>  <r_epik_Ionization_Penalty_Neutral>  (237) 
3.29912e-05

>  <r_epik_State_Penalty>  (237) 
2.7225

>  <r_epik_Charging_Adjusted_Penalty>  (237) 
5.27623

>  <i_epik_Tot_Q>  (237) 
-1

>  <i_epik_Tot_abs_Q>  (237) 
1

>  <s_lp_Force_Field>  (237) 
OPLS3e

>  <r_lp_Energy>  (237) 
18.6015

>  <b_lp_Chiralities_Consistent>  (237) 
1

>  <s_lp_Variant>  (237) 
76:0-2

>  <s_i_glide_gridfile>  (237) 
pfpi4k_grid

>  <i_i_glide_lignum>  (237) 
32

>  <i_i_glide_rotatable_bonds>  (237) 
1

>  <r_i_docking_score>  (237) 
-3.89484

>  <r_i_glide_ligand_efficiency>  (237) 
-0.278203

>  <r_i_glide_ligand_efficiency_sa>  (237) 
-0.670509

>  <r_i_glide_ligand_efficiency_ln>  (237) 
-1.07029

>  <r_i_glide_gscore>  (237) 
-3.89484

>  <r_i_glide_lipo>  (237) 
-0.162292

>  <r_i_glide_hbond>  (237) 
-0.16

>  <r_i_glide_metal>  (237) 
-0

>  <r_i_glide_rewards>  (237) 
-2.1466

>  <r_i_glide_evdw>  (237) 
-11.5762

>  <r_i_glide_ecoul>  (237) 
-7.94787

>  <r_i_glide_erotb>  (237) 
0.46399

>  <r_i_glide_esite>  (237) 
-0.118953

>  <r_i_glide_emodel>  (237) 
-27.2643

>  <r_i_glide_energy>  (237) 
-19.5241

>  <r_i_glide_einternal>  (237) 
0.00771339

>  <r_i_glide_intrahb_reward>  (237) 
-0

>  <i_i_glide_confnum>  (237) 
2

>  <i_i_glide_posenum>  (237) 
17

>  <r_i_glide_eff_state_penalty>  (237) 
0

>  <ligand_id>  (237) 
76

>  <original_smiles>  (237) 
c1c[nH]c(-n2cnc3cncnc32)n1

>  <smiles>  (237) 
[H]c1nc([H])c2nc([H])n(-c3nc([H])c([H])[n-]3)c2n1

$$$$
76:1:1
     RDKit          3D

 19 21  0  0  1  0  0  0  0  0999 V2000
   -1.8188    0.0712    5.4809 C   0  0  0  0  0  0  0  0  0  0  0  0
   -0.9858    0.1587    4.3303 C   0  0  0  0  0  0  0  0  0  0  0  0
   -0.3063   -0.9930    4.2962 N   0  0  0  0  0  0  0  0  0  0  0  0
   -0.6787   -1.7571    5.3383 C   0  0  0  0  0  0  0  0  0  0  0  0
   -0.1430   -3.0353    5.5873 N   0  0  0  0  0  0  0  0  0  0  0  0
    0.6417   -3.7460    4.7499 C   0  0  0  0  0  0  0  0  0  0  0  0
    1.0320   -4.9525    5.1466 N   0  0  0  0  0  0  0  0  0  0  0  0
    0.4553   -5.0230    6.4034 C   0  0  0  0  0  0  0  0  0  0  0  0
    0.4670   -6.0218    7.4009 C   0  0  0  0  0  0  0  0  0  0  0  0
   -0.2117   -5.8060    8.5552 N   0  0  0  0  0  0  0  0  0  0  0  0
   -0.8740   -4.6546    8.7149 C   0  0  0  0  0  0  0  0  0  0  0  0
   -0.9756   -3.6242    7.8711 N   0  0  0  0  0  0  0  0  0  0  0  0
   -0.2857   -3.8467    6.7097 C   0  0  0  0  0  0  0  0  0  0  0  0
   -1.6202   -1.1280    6.0582 N   0  0  0  0  0  0  0  0  0  0  0  0
   -2.5267    0.7929    5.8730 H   0  0  0  0  0  0  0  0  0  0  0  0
   -0.8394    0.9173    3.5730 H   0  0  0  0  0  0  0  0  0  0  0  0
    0.9175   -3.3486    3.7846 H   0  0  0  0  0  0  0  0  0  0  0  0
    1.0054   -6.9529    7.2745 H   0  0  0  0  0  0  0  0  0  0  0  0
   -1.4059   -4.5460    9.6477 H   0  0  0  0  0  0  0  0  0  0  0  0
  1 14  1  0
  1  2  2  0
  1 15  1  0
  2  3  1  0
  2 16  1  0
  3  4  1  0
  4  5  1  0
  4 14  2  0
  5 13  1  0
  5  6  1  0
  6  7  2  0
  6 17  1  0
  7  8  1  0
  8 13  2  0
  8  9  1  0
  9 10  2  0
  9 18  1  0
 10 11  1  0
 11 12  2  0
 11 19  1  0
 12 13  1  0
M  CHG  1   3  -1
M  END
>  <i_m_ct_stereo_status>  (238) 
1

>  <s_m_source_file>  (238) 
/var/tmp/pbs.5076255.sched01/tmpln0nb48r/86bqtw16pk.sdf

>  <i_m_source_file_index>  (238) 
32

>  <i_lp_mmshare_version>  (238) 
48012

>  <i_f3d_flags>  (238) 
0

>  <s_epik_input>  (238) 
bjFbY0hdW2NIXVtuSF1jMS1uKFtjSF1uMiljKGMyMyluW2NIXW5bY0hdMw==

>  <s_epik_cmdline>  (238) 
J2VwaWtfcHl0aG9uJywgJy1waHQnLCAnMi4wJywgJy1waCcsICc3LjAnLCAnLXRuJywgJzgnLCAnLW1hJywgJzIwMCcsICctaW1hZScsICc8aW5maWxlLm1hZT4nLCAnLW9tYWUnLCAnPG91dGZpbGUubWFlPic=

>  <r_lp_tautomer_probability>  (238) 
1

>  <r_epik_Ionization_Penalty>  (238) 
2.55376

>  <r_epik_Ionization_Penalty_Charging>  (238) 
2.55373

>  <r_epik_Ionization_Penalty_Neutral>  (238) 
3.29912e-05

>  <r_epik_State_Penalty>  (238) 
2.7225

>  <r_epik_Charging_Adjusted_Penalty>  (238) 
5.27623

>  <i_epik_Tot_Q>  (238) 
-1

>  <i_epik_Tot_abs_Q>  (238) 
1

>  <s_lp_Force_Field>  (238) 
OPLS3e

>  <r_lp_Energy>  (238) 
18.6015

>  <b_lp_Chiralities_Consistent>  (238) 
1

>  <s_lp_Variant>  (238) 
76:0-2

>  <s_i_glide_gridfile>  (238) 
pfpi4k_grid

>  <i_i_glide_lignum>  (238) 
32

>  <i_i_glide_rotatable_bonds>  (238) 
1

>  <r_i_docking_score>  (238) 
-3.76943

>  <r_i_glide_ligand_efficiency>  (238) 
-0.269245

>  <r_i_glide_ligand_efficiency_sa>  (238) 
-0.648919

>  <r_i_glide_ligand_efficiency_ln>  (238) 
-1.03583

>  <r_i_glide_gscore>  (238) 
-3.76943

>  <r_i_glide_lipo>  (238) 
0

>  <r_i_glide_hbond>  (238) 
-0.125088

>  <r_i_glide_metal>  (238) 
-0

>  <r_i_glide_rewards>  (238) 
-2.15244

>  <r_i_glide_evdw>  (238) 
-10.1048

>  <r_i_glide_ecoul>  (238) 
-9.20316

>  <r_i_glide_erotb>  (238) 
0.46399

>  <r_i_glide_esite>  (238) 
-0.0701802

>  <r_i_glide_emodel>  (238) 
-26.7356

>  <r_i_glide_energy>  (238) 
-19.3079

>  <r_i_glide_einternal>  (238) 
0.0730663

>  <r_i_glide_intrahb_reward>  (238) 
-0

>  <i_i_glide_confnum>  (238) 
4

>  <i_i_glide_posenum>  (238) 
24

>  <r_i_glide_eff_state_penalty>  (238) 
0

>  <ligand_id>  (238) 
76

>  <original_smiles>  (238) 
c1c[nH]c(-n2cnc3cncnc32)n1

>  <smiles>  (238) 
[H]c1nc([H])c2nc([H])n(-c3nc([H])c([H])[n-]3)c2n1

$$$$
76:1:2
     RDKit          3D

 19 21  0  0  1  0  0  0  0  0999 V2000
   -1.0493   -3.9367    6.8459 C   0  0  0  0  0  0  0  0  0  0  0  0
    0.1248   -4.2998    6.1184 C   0  0  0  0  0  0  0  0  0  0  0  0
    0.4309   -3.2352    5.3668 N   0  0  0  0  0  0  0  0  0  0  0  0
   -0.4677   -2.2614    5.6044 C   0  0  0  0  0  0  0  0  0  0  0  0
   -0.4320   -0.9973    4.9812 N   0  0  0  0  0  0  0  0  0  0  0  0
    0.2194   -0.6889    3.8433 C   0  0  0  0  0  0  0  0  0  0  0  0
    0.1292    0.5608    3.3978 N   0  0  0  0  0  0  0  0  0  0  0  0
   -0.6630    1.1394    4.3718 C   0  0  0  0  0  0  0  0  0  0  0  0
   -1.1517    2.4531    4.5461 C   0  0  0  0  0  0  0  0  0  0  0  0
   -1.9085    2.7366    5.6364 N   0  0  0  0  0  0  0  0  0  0  0  0
   -2.1760    1.7590    6.5105 C   0  0  0  0  0  0  0  0  0  0  0  0
   -1.8021    0.4750    6.4778 N   0  0  0  0  0  0  0  0  0  0  0  0
   -1.0317    0.1978    5.3754 C   0  0  0  0  0  0  0  0  0  0  0  0
   -1.3950   -2.6891    6.4768 N   0  0  0  0  0  0  0  0  0  0  0  0
   -1.6229   -4.5250    7.5515 H   0  0  0  0  0  0  0  0  0  0  0  0
    0.7345   -5.1936    6.0710 H   0  0  0  0  0  0  0  0  0  0  0  0
    0.7716   -1.4457    3.3095 H   0  0  0  0  0  0  0  0  0  0  0  0
   -0.9279    3.2420    3.8392 H   0  0  0  0  0  0  0  0  0  0  0  0
   -2.7907    2.0381    7.3544 H   0  0  0  0  0  0  0  0  0  0  0  0
  1 14  1  0
  1  2  2  0
  1 15  1  0
  2  3  1  0
  2 16  1  0
  3  4  1  0
  4  5  1  0
  4 14  2  0
  5 13  1  0
  5  6  1  0
  6  7  2  0
  6 17  1  0
  7  8  1  0
  8 13  2  0
  8  9  1  0
  9 10  2  0
  9 18  1  0
 10 11  1  0
 11 12  2  0
 11 19  1  0
 12 13  1  0
M  CHG  1   3  -1
M  END
>  <i_m_ct_stereo_status>  (239) 
1

>  <s_m_source_file>  (239) 
/var/tmp/pbs.5076255.sched01/tmpln0nb48r/86bqtw16pk.sdf

>  <i_m_source_file_index>  (239) 
32

>  <i_lp_mmshare_version>  (239) 
48012

>  <i_f3d_flags>  (239) 
0

>  <s_epik_input>  (239) 
bjFbY0hdW2NIXVtuSF1jMS1uKFtjSF1uMiljKGMyMyluW2NIXW5bY0hdMw==

>  <s_epik_cmdline>  (239) 
J2VwaWtfcHl0aG9uJywgJy1waHQnLCAnMi4wJywgJy1waCcsICc3LjAnLCAnLXRuJywgJzgnLCAnLW1hJywgJzIwMCcsICctaW1hZScsICc8aW5maWxlLm1hZT4nLCAnLW9tYWUnLCAnPG91dGZpbGUubWFlPic=

>  <r_lp_tautomer_probability>  (239) 
1

>  <r_epik_Ionization_Penalty>  (239) 
2.55376

>  <r_epik_Ionization_Penalty_Charging>  (239) 
2.55373

>  <r_epik_Ionization_Penalty_Neutral>  (239) 
3.29912e-05

>  <r_epik_State_Penalty>  (239) 
2.7225

>  <r_epik_Charging_Adjusted_Penalty>  (239) 
5.27623

>  <i_epik_Tot_Q>  (239) 
-1

>  <i_epik_Tot_abs_Q>  (239) 
1

>  <s_lp_Force_Field>  (239) 
OPLS3e

>  <r_lp_Energy>  (239) 
18.6015

>  <b_lp_Chiralities_Consistent>  (239) 
1

>  <s_lp_Variant>  (239) 
76:0-2

>  <s_i_glide_gridfile>  (239) 
pfpi4k_grid

>  <i_i_glide_lignum>  (239) 
32

>  <i_i_glide_rotatable_bonds>  (239) 
1

>  <r_i_docking_score>  (239) 
-3.7535

>  <r_i_glide_ligand_efficiency>  (239) 
-0.268107

>  <r_i_glide_ligand_efficiency_sa>  (239) 
-0.646177

>  <r_i_glide_ligand_efficiency_ln>  (239) 
-1.03145

>  <r_i_glide_gscore>  (239) 
-3.7535

>  <r_i_glide_lipo>  (239) 
0

>  <r_i_glide_hbond>  (239) 
-0.16

>  <r_i_glide_metal>  (239) 
-0

>  <r_i_glide_rewards>  (239) 
-2.1466

>  <r_i_glide_evdw>  (239) 
-12.6373

>  <r_i_glide_ecoul>  (239) 
-7.78904

>  <r_i_glide_erotb>  (239) 
0.46399

>  <r_i_glide_esite>  (239) 
-0.110674

>  <r_i_glide_emodel>  (239) 
-27.7023

>  <r_i_glide_energy>  (239) 
-20.4263

>  <r_i_glide_einternal>  (239) 
0.280078

>  <r_i_glide_intrahb_reward>  (239) 
-0

>  <i_i_glide_confnum>  (239) 
4

>  <i_i_glide_posenum>  (239) 
21

>  <r_i_glide_eff_state_penalty>  (239) 
0

>  <ligand_id>  (239) 
76

>  <original_smiles>  (239) 
c1c[nH]c(-n2cnc3cncnc32)n1

>  <smiles>  (239) 
[H]c1nc([H])c2nc([H])n(-c3nc([H])c([H])[n-]3)c2n1

$$$$
77:0:0
     RDKit          3D

 43 47  0  0  1  0  0  0  0  0999 V2000
   -1.6238    4.0251    3.2456 C   0  0  0  0  0  0  0  0  0  0  0  0
   -1.1571    2.8598    4.1221 C   0  0  0  0  0  0  0  0  0  0  0  0
    0.0251    2.1167    3.5250 C   0  0  0  0  0  0  0  0  0  0  0  0
    1.2969    2.1894    4.1371 C   0  0  0  0  0  0  0  0  0  0  0  0
    2.3939    1.4985    3.5871 C   0  0  0  0  0  0  0  0  0  0  0  0
    2.2461    0.7369    2.4150 C   0  0  0  0  0  0  0  0  0  0  0  0
    3.4063    0.0109    1.8768 C   0  0  0  0  0  0  0  0  0  0  0  0
    4.6265   -0.2681    2.4386 C   0  0  0  0  0  0  0  0  0  0  0  0
    5.3331   -0.9627    1.4674 N   0  0  0  0  0  0  0  0  0  0  0  0
    6.5632   -1.4117    1.6502 N   0  0  0  0  0  0  0  0  0  0  0  0
    7.0411   -2.0530    0.5550 C   0  0  0  0  0  0  0  0  0  0  0  0
    6.4209   -2.2572   -0.6316 N   0  0  0  0  0  0  0  0  0  0  0  0
    5.1554   -1.7884   -0.7386 C   0  0  0  0  0  0  0  0  0  0  0  0
    4.4802   -2.0254   -1.9414 N   0  0  0  0  0  0  0  0  0  0  0  0
    4.8913   -2.9530   -2.9670 C   0  0  0  0  0  0  0  0  0  0  0  0
    3.7787   -2.7298   -3.9969 C   0  0  1  0  0  0  0  0  0  0  0  0
    2.5554   -2.5175   -3.1418 C   0  0  0  0  0  0  0  0  0  0  0  0
    3.2588   -1.3930   -2.4096 C   0  0  2  0  0  0  0  0  0  0  0  0
    3.6216   -0.4803   -3.5696 C   0  0  0  0  0  0  0  0  0  0  0  0
    3.9730   -1.4371   -4.5693 O   0  0  0  0  0  0  0  0  0  0  0  0
    4.5355   -1.0886    0.3332 C   0  0  0  0  0  0  0  0  0  0  0  0
    3.3666   -0.5228    0.5885 N   0  0  0  0  0  0  0  0  0  0  0  0
    0.9785    0.6902    1.7971 C   0  0  0  0  0  0  0  0  0  0  0  0
   -0.1339    1.3556    2.3491 C   0  0  0  0  0  0  0  0  0  0  0  0
   -2.4721    4.5347    3.6971 H   0  0  0  0  0  0  0  0  0  0  0  0
   -1.9335    3.6751    2.2610 H   0  0  0  0  0  0  0  0  0  0  0  0
   -0.8232    4.7503    3.0909 H   0  0  0  0  0  0  0  0  0  0  0  0
   -0.8777    3.2348    5.1065 H   0  0  0  0  0  0  0  0  0  0  0  0
   -1.9705    2.1490    4.2661 H   0  0  0  0  0  0  0  0  0  0  0  0
    1.4390    2.7765    5.0349 H   0  0  0  0  0  0  0  0  0  0  0  0
    3.3666    1.5627    4.0613 H   0  0  0  0  0  0  0  0  0  0  0  0
    5.0694   -0.0586    3.4051 H   0  0  0  0  0  0  0  0  0  0  0  0
    8.0422   -2.4425    0.6439 H   0  0  0  0  0  0  0  0  0  0  0  0
    5.8911   -2.7607   -3.3565 H   0  0  0  0  0  0  0  0  0  0  0  0
    4.8361   -3.9654   -2.5691 H   0  0  0  0  0  0  0  0  0  0  0  0
    3.6845   -3.5112   -4.7336 H   0  0  0  0  0  0  0  0  0  0  0  0
    1.6851   -2.2348   -3.7341 H   0  0  0  0  0  0  0  0  0  0  0  0
    2.3035   -3.3586   -2.4901 H   0  0  0  0  0  0  0  0  0  0  0  0
    2.6292   -0.9118   -1.6787 H   0  0  0  0  0  0  0  0  0  0  0  0
    2.7620    0.0990   -3.8955 H   0  0  0  0  0  0  0  0  0  0  0  0
    4.4377    0.1982   -3.3355 H   0  0  0  0  0  0  0  0  0  0  0  0
    0.8374    0.1515    0.8848 H   0  0  0  0  0  0  0  0  0  0  0  0
   -1.0957    1.3035    1.8503 H   0  0  0  0  0  0  0  0  0  0  0  0
  1  2  1  0
  1 25  1  0
  1 26  1  0
  1 27  1  0
  2  3  1  0
  2 28  1  0
  2 29  1  0
  3 24  2  0
  3  4  1  0
  4  5  2  0
  4 30  1  0
  5  6  1  0
  5 31  1  0
  6  7  1  0
  6 23  2  0
  7 22  1  0
  7  8  2  0
  8  9  1  0
  8 32  1  0
  9 21  1  0
  9 10  1  0
 10 11  2  0
 11 12  1  0
 11 33  1  0
 12 13  2  0
 13 14  1  0
 13 21  1  0
 14 18  1  0
 14 15  1  0
 15 16  1  0
 15 34  1  0
 15 35  1  0
 16 20  1  0
 16 17  1  0
 16 36  1  6
 17 18  1  0
 17 37  1  0
 17 38  1  0
 18 19  1  0
 18 39  1  1
 19 20  1  0
 19 40  1  0
 19 41  1  0
 21 22  2  0
 23 24  1  0
 23 42  1  0
 24 43  1  0
M  END
>  <i_m_ct_stereo_status>  (240) 
1

>  <s_m_source_file>  (240) 
/var/tmp/pbs.5076255.sched01/tmpln0nb48r/86bqtw16pk.sdf

>  <i_m_source_file_index>  (240) 
33

>  <i_lp_mmshare_version>  (240) 
48012

>  <i_f3d_flags>  (240) 
0

>  <s_epik_input>  (240) 
W0NIM11bQ0gyXWMxW2NIXVtjSF1jKFtjSF1bY0hdMSktYyhbY0hdMiluYyhuMjMpYyhuW2NIXW4zKU4oW0NIMl1bQ0BASF00NSlbQ0BIXShbQ0gyXTQpW0NIMl1PNQ==

>  <s_epik_cmdline>  (240) 
J2VwaWtfcHl0aG9uJywgJy1waHQnLCAnMi4wJywgJy1waCcsICc3LjAnLCAnLXRuJywgJzgnLCAnLW1hJywgJzIwMCcsICctaW1hZScsICc8aW5maWxlLm1hZT4nLCAnLW9tYWUnLCAnPG91dGZpbGUubWFlPic=

>  <r_epik_Ionization_Penalty>  (240) 
0.00179422

>  <r_epik_Ionization_Penalty_Charging>  (240) 
3.53337e-06

>  <r_epik_Ionization_Penalty_Neutral>  (240) 
0.00179068

>  <r_epik_State_Penalty>  (240) 
0.00109649

>  <r_epik_Charging_Adjusted_Penalty>  (240) 
0.00110002

>  <i_epik_Tot_Q>  (240) 
0

>  <i_epik_Tot_abs_Q>  (240) 
0

>  <s_lp_Force_Field>  (240) 
OPLS3e

>  <r_lp_Energy>  (240) 
27.4864

>  <b_lp_Chiralities_Consistent>  (240) 
1

>  <s_lp_Variant>  (240) 
77:0-1

>  <s_i_glide_gridfile>  (240) 
pfpi4k_grid

>  <i_i_glide_lignum>  (240) 
33

>  <i_i_glide_rotatable_bonds>  (240) 
3

>  <r_i_docking_score>  (240) 
-4.05412

>  <r_i_glide_ligand_efficiency>  (240) 
-0.168922

>  <r_i_glide_ligand_efficiency_sa>  (240) 
-0.487255

>  <r_i_glide_ligand_efficiency_ln>  (240) 
-0.970338

>  <r_i_glide_gscore>  (240) 
-4.05412

>  <r_i_glide_lipo>  (240) 
-0.60178

>  <r_i_glide_hbond>  (240) 
-0.345533

>  <r_i_glide_metal>  (240) 
-0

>  <r_i_glide_rewards>  (240) 
-1.46342

>  <r_i_glide_evdw>  (240) 
-30.9219

>  <r_i_glide_ecoul>  (240) 
-2.94872

>  <r_i_glide_erotb>  (240) 
0.361836

>  <r_i_glide_esite>  (240) 
-0.0168217

>  <r_i_glide_emodel>  (240) 
-41.0111

>  <r_i_glide_energy>  (240) 
-33.8706

>  <r_i_glide_einternal>  (240) 
1.54326

>  <r_i_glide_intrahb_reward>  (240) 
-0

>  <i_i_glide_confnum>  (240) 
1

>  <i_i_glide_posenum>  (240) 
31

>  <r_i_glide_eff_state_penalty>  (240) 
0

>  <ligand_id>  (240) 
77

>  <original_smiles>  (240) 
CCc1ccc(-c2cn3ncnc(N4CC5CC4CO5)c3n2)cc1

>  <smiles>  (240) 
[H]c1nc(N2C([H])([H])C3([H])OC([H])([H])C2([H])C3([H])[H])c2nc(-c3c([H])c([H])c(C([H])([H])C([H])([H])[H])c([H])c3[H])c([H])n2n1

$$$$
77:0:1
     RDKit          3D

 43 47  0  0  1  0  0  0  0  0999 V2000
   -1.1472    3.9618    4.1503 C   0  0  0  0  0  0  0  0  0  0  0  0
   -1.3313    2.4727    4.4643 C   0  0  0  0  0  0  0  0  0  0  0  0
   -0.2205    1.6156    3.8931 C   0  0  0  0  0  0  0  0  0  0  0  0
    0.7024    0.9845    4.7536 C   0  0  0  0  0  0  0  0  0  0  0  0
    1.7339    0.1893    4.2228 C   0  0  0  0  0  0  0  0  0  0  0  0
    1.8666    0.0145    2.8299 C   0  0  0  0  0  0  0  0  0  0  0  0
    2.9548   -0.8230    2.3108 C   0  0  0  0  0  0  0  0  0  0  0  0
    3.9567   -1.4888    2.9819 C   0  0  0  0  0  0  0  0  0  0  0  0
    4.6948   -2.1331    2.0068 N   0  0  0  0  0  0  0  0  0  0  0  0
    5.7645   -2.8793    2.2710 N   0  0  0  0  0  0  0  0  0  0  0  0
    6.3239   -3.3794    1.1407 C   0  0  0  0  0  0  0  0  0  0  0  0
    5.9244   -3.2000   -0.1410 N   0  0  0  0  0  0  0  0  0  0  0  0
    4.8116   -2.4478   -0.3242 C   0  0  0  0  0  0  0  0  0  0  0  0
    4.3805   -2.2386   -1.6381 N   0  0  0  0  0  0  0  0  0  0  0  0
    3.0127   -1.9752   -2.0409 C   0  0  0  0  0  0  0  0  0  0  0  0
    3.1496   -1.9954   -3.5708 C   0  0  1  0  0  0  0  0  0  0  0  0
    4.5219   -1.3746   -3.7586 C   0  0  0  0  0  0  0  0  0  0  0  0
    5.1570   -2.4121   -2.8461 C   0  0  2  0  0  0  0  0  0  0  0  0
    4.7076   -3.6978   -3.5428 C   0  0  0  0  0  0  0  0  0  0  0  0
    3.3925   -3.3434   -3.9941 O   0  0  0  0  0  0  0  0  0  0  0  0
    4.1278   -1.8517    0.7686 C   0  0  0  0  0  0  0  0  0  0  0  0
    3.0824   -1.0472    0.9371 N   0  0  0  0  0  0  0  0  0  0  0  0
    0.9406    0.6514    1.9710 C   0  0  0  0  0  0  0  0  0  0  0  0
   -0.0985    1.4446    2.4974 C   0  0  0  0  0  0  0  0  0  0  0  0
   -1.9619    4.5435    4.5775 H   0  0  0  0  0  0  0  0  0  0  0  0
   -1.1311    4.1415    3.0743 H   0  0  0  0  0  0  0  0  0  0  0  0
   -0.2101    4.3393    4.5615 H   0  0  0  0  0  0  0  0  0  0  0  0
   -1.3761    2.3354    5.5457 H   0  0  0  0  0  0  0  0  0  0  0  0
   -2.2846    2.1216    4.0672 H   0  0  0  0  0  0  0  0  0  0  0  0
    0.6260    1.1095    5.8234 H   0  0  0  0  0  0  0  0  0  0  0  0
    2.4286   -0.2883    4.8959 H   0  0  0  0  0  0  0  0  0  0  0  0
    4.2235   -1.5783    4.0251 H   0  0  0  0  0  0  0  0  0  0  0  0
    7.1941   -3.9991    1.2856 H   0  0  0  0  0  0  0  0  0  0  0  0
    2.2884   -2.7057   -1.6703 H   0  0  0  0  0  0  0  0  0  0  0  0
    2.7193   -0.9796   -1.7116 H   0  0  0  0  0  0  0  0  0  0  0  0
    2.3368   -1.5153   -4.1088 H   0  0  0  0  0  0  0  0  0  0  0  0
    4.8472   -1.4121   -4.7932 H   0  0  0  0  0  0  0  0  0  0  0  0
    4.5931   -0.3525   -3.3740 H   0  0  0  0  0  0  0  0  0  0  0  0
    6.2328   -2.3135   -2.7024 H   0  0  0  0  0  0  0  0  0  0  0  0
    5.3407   -3.9103   -4.4031 H   0  0  0  0  0  0  0  0  0  0  0  0
    4.7126   -4.5650   -2.8816 H   0  0  0  0  0  0  0  0  0  0  0  0
    1.0152    0.5436    0.8975 H   0  0  0  0  0  0  0  0  0  0  0  0
   -0.7907    1.9318    1.8244 H   0  0  0  0  0  0  0  0  0  0  0  0
  1  2  1  0
  1 25  1  0
  1 26  1  0
  1 27  1  0
  2  3  1  0
  2 28  1  0
  2 29  1  0
  3 24  2  0
  3  4  1  0
  4  5  2  0
  4 30  1  0
  5  6  1  0
  5 31  1  0
  6  7  1  0
  6 23  2  0
  7 22  1  0
  7  8  2  0
  8  9  1  0
  8 32  1  0
  9 21  1  0
  9 10  1  0
 10 11  2  0
 11 12  1  0
 11 33  1  0
 12 13  2  0
 13 14  1  0
 13 21  1  0
 14 18  1  0
 14 15  1  0
 15 16  1  0
 15 34  1  0
 15 35  1  0
 16 20  1  0
 16 17  1  0
 16 36  1  6
 17 18  1  0
 17 37  1  0
 17 38  1  0
 18 19  1  0
 18 39  1  1
 19 20  1  0
 19 40  1  0
 19 41  1  0
 21 22  2  0
 23 24  1  0
 23 42  1  0
 24 43  1  0
M  END
>  <i_m_ct_stereo_status>  (241) 
1

>  <s_m_source_file>  (241) 
/var/tmp/pbs.5076255.sched01/tmpln0nb48r/86bqtw16pk.sdf

>  <i_m_source_file_index>  (241) 
33

>  <i_lp_mmshare_version>  (241) 
48012

>  <i_f3d_flags>  (241) 
0

>  <s_epik_input>  (241) 
W0NIM11bQ0gyXWMxW2NIXVtjSF1jKFtjSF1bY0hdMSktYyhbY0hdMiluYyhuMjMpYyhuW2NIXW4zKU4oW0NIMl1bQ0BASF00NSlbQ0BIXShbQ0gyXTQpW0NIMl1PNQ==

>  <s_epik_cmdline>  (241) 
J2VwaWtfcHl0aG9uJywgJy1waHQnLCAnMi4wJywgJy1waCcsICc3LjAnLCAnLXRuJywgJzgnLCAnLW1hJywgJzIwMCcsICctaW1hZScsICc8aW5maWxlLm1hZT4nLCAnLW9tYWUnLCAnPG91dGZpbGUubWFlPic=

>  <r_epik_Ionization_Penalty>  (241) 
0.00179422

>  <r_epik_Ionization_Penalty_Charging>  (241) 
3.53337e-06

>  <r_epik_Ionization_Penalty_Neutral>  (241) 
0.00179068

>  <r_epik_State_Penalty>  (241) 
0.00109649

>  <r_epik_Charging_Adjusted_Penalty>  (241) 
0.00110002

>  <i_epik_Tot_Q>  (241) 
0

>  <i_epik_Tot_abs_Q>  (241) 
0

>  <s_lp_Force_Field>  (241) 
OPLS3e

>  <r_lp_Energy>  (241) 
27.4864

>  <b_lp_Chiralities_Consistent>  (241) 
1

>  <s_lp_Variant>  (241) 
77:0-1

>  <s_i_glide_gridfile>  (241) 
pfpi4k_grid

>  <i_i_glide_lignum>  (241) 
33

>  <i_i_glide_rotatable_bonds>  (241) 
3

>  <r_i_docking_score>  (241) 
-2.81332

>  <r_i_glide_ligand_efficiency>  (241) 
-0.117222

>  <r_i_glide_ligand_efficiency_sa>  (241) 
-0.338125

>  <r_i_glide_ligand_efficiency_ln>  (241) 
-0.673356

>  <r_i_glide_gscore>  (241) 
-2.81332

>  <r_i_glide_lipo>  (241) 
-0.543627

>  <r_i_glide_hbond>  (241) 
0

>  <r_i_glide_metal>  (241) 
-0

>  <r_i_glide_rewards>  (241) 
-1.37969

>  <r_i_glide_evdw>  (241) 
-27.8515

>  <r_i_glide_ecoul>  (241) 
1.18653

>  <r_i_glide_erotb>  (241) 
0.361836

>  <r_i_glide_esite>  (241) 
-0.037239

>  <r_i_glide_emodel>  (241) 
-31.5268

>  <r_i_glide_energy>  (241) 
-26.665

>  <r_i_glide_einternal>  (241) 
1.27961

>  <r_i_glide_intrahb_reward>  (241) 
-0

>  <i_i_glide_confnum>  (241) 
1

>  <i_i_glide_posenum>  (241) 
6

>  <r_i_glide_eff_state_penalty>  (241) 
0

>  <ligand_id>  (241) 
77

>  <original_smiles>  (241) 
CCc1ccc(-c2cn3ncnc(N4CC5CC4CO5)c3n2)cc1

>  <smiles>  (241) 
[H]c1nc(N2C([H])([H])C3([H])OC([H])([H])C2([H])C3([H])[H])c2nc(-c3c([H])c([H])c(C([H])([H])C([H])([H])[H])c([H])c3[H])c([H])n2n1

$$$$
77:0:2
     RDKit          3D

 43 47  0  0  1  0  0  0  0  0999 V2000
    4.0157   -1.0471   -3.3975 C   0  0  0  0  0  0  0  0  0  0  0  0
    4.9938   -1.4630   -2.2923 C   0  0  0  0  0  0  0  0  0  0  0  0
    4.2897   -1.9734   -1.0544 C   0  0  0  0  0  0  0  0  0  0  0  0
    3.7964   -3.2952   -1.0140 C   0  0  0  0  0  0  0  0  0  0  0  0
    3.1433   -3.7689    0.1412 C   0  0  0  0  0  0  0  0  0  0  0  0
    2.9749   -2.9273    1.2665 C   0  0  0  0  0  0  0  0  0  0  0  0
    2.3024   -3.4124    2.4813 C   0  0  0  0  0  0  0  0  0  0  0  0
    2.0289   -2.7557    3.6604 C   0  0  0  0  0  0  0  0  0  0  0  0
    1.3768   -3.6771    4.4581 N   0  0  0  0  0  0  0  0  0  0  0  0
    0.9461   -3.4053    5.6898 N   0  0  0  0  0  0  0  0  0  0  0  0
    0.3342   -4.4772    6.2535 C   0  0  0  0  0  0  0  0  0  0  0  0
    0.1171   -5.6980    5.7101 N   0  0  0  0  0  0  0  0  0  0  0  0
    0.5936   -5.9007    4.4574 C   0  0  0  0  0  0  0  0  0  0  0  0
    0.3815   -7.1621    3.8848 N   0  0  0  0  0  0  0  0  0  0  0  0
    0.8346   -7.6035    2.5771 C   0  0  0  0  0  0  0  0  0  0  0  0
    0.2081   -9.0061    2.5131 C   0  0  1  0  0  0  0  0  0  0  0  0
    0.3252   -9.4743    3.9549 C   0  0  0  0  0  0  0  0  0  0  0  0
   -0.4124   -8.2416    4.4462 C   0  0  2  0  0  0  0  0  0  0  0  0
   -1.6984   -8.3473    3.6212 C   0  0  0  0  0  0  0  0  0  0  0  0
   -1.2086   -8.8356    2.3653 O   0  0  0  0  0  0  0  0  0  0  0  0
    1.2700   -4.8728    3.7502 C   0  0  0  0  0  0  0  0  0  0  0  0
    1.8278   -4.7275    2.5489 N   0  0  0  0  0  0  0  0  0  0  0  0
    3.4648   -1.6061    1.2150 C   0  0  0  0  0  0  0  0  0  0  0  0
    4.1207   -1.1300    0.0646 C   0  0  0  0  0  0  0  0  0  0  0  0
    4.5494   -0.6719   -4.2705 H   0  0  0  0  0  0  0  0  0  0  0  0
    3.3447   -0.2590   -3.0520 H   0  0  0  0  0  0  0  0  0  0  0  0
    3.4004   -1.8888   -3.7168 H   0  0  0  0  0  0  0  0  0  0  0  0
    5.6671   -2.2386   -2.6616 H   0  0  0  0  0  0  0  0  0  0  0  0
    5.6141   -0.6107   -2.0170 H   0  0  0  0  0  0  0  0  0  0  0  0
    3.9169   -3.9494   -1.8665 H   0  0  0  0  0  0  0  0  0  0  0  0
    2.7757   -4.7846    0.1513 H   0  0  0  0  0  0  0  0  0  0  0  0
    2.2184   -1.7550    4.0210 H   0  0  0  0  0  0  0  0  0  0  0  0
   -0.0294   -4.3419    7.2591 H   0  0  0  0  0  0  0  0  0  0  0  0
    0.5120   -6.9675    1.7491 H   0  0  0  0  0  0  0  0  0  0  0  0
    1.9235   -7.6678    2.5743 H   0  0  0  0  0  0  0  0  0  0  0  0
    0.6575   -9.6659    1.7765 H   0  0  0  0  0  0  0  0  0  0  0  0
   -0.1862  -10.4221    4.1408 H   0  0  0  0  0  0  0  0  0  0  0  0
    1.3559   -9.5317    4.3150 H   0  0  0  0  0  0  0  0  0  0  0  0
   -0.5553   -8.1970    5.5265 H   0  0  0  0  0  0  0  0  0  0  0  0
   -2.3903   -9.0553    4.0627 H   0  0  0  0  0  0  0  0  0  0  0  0
   -2.2221   -7.3965    3.5189 H   0  0  0  0  0  0  0  0  0  0  0  0
    3.3372   -0.9465    2.0592 H   0  0  0  0  0  0  0  0  0  0  0  0
    4.4844   -0.1129    0.0418 H   0  0  0  0  0  0  0  0  0  0  0  0
  1  2  1  0
  1 25  1  0
  1 26  1  0
  1 27  1  0
  2  3  1  0
  2 28  1  0
  2 29  1  0
  3 24  2  0
  3  4  1  0
  4  5  2  0
  4 30  1  0
  5  6  1  0
  5 31  1  0
  6  7  1  0
  6 23  2  0
  7 22  1  0
  7  8  2  0
  8  9  1  0
  8 32  1  0
  9 21  1  0
  9 10  1  0
 10 11  2  0
 11 12  1  0
 11 33  1  0
 12 13  2  0
 13 14  1  0
 13 21  1  0
 14 18  1  0
 14 15  1  0
 15 16  1  0
 15 34  1  0
 15 35  1  0
 16 20  1  0
 16 17  1  0
 16 36  1  6
 17 18  1  0
 17 37  1  0
 17 38  1  0
 18 19  1  0
 18 39  1  1
 19 20  1  0
 19 40  1  0
 19 41  1  0
 21 22  2  0
 23 24  1  0
 23 42  1  0
 24 43  1  0
M  END
>  <i_m_ct_stereo_status>  (242) 
1

>  <s_m_source_file>  (242) 
/var/tmp/pbs.5076255.sched01/tmpln0nb48r/86bqtw16pk.sdf

>  <i_m_source_file_index>  (242) 
33

>  <i_lp_mmshare_version>  (242) 
48012

>  <i_f3d_flags>  (242) 
0

>  <s_epik_input>  (242) 
W0NIM11bQ0gyXWMxW2NIXVtjSF1jKFtjSF1bY0hdMSktYyhbY0hdMiluYyhuMjMpYyhuW2NIXW4zKU4oW0NIMl1bQ0BASF00NSlbQ0BIXShbQ0gyXTQpW0NIMl1PNQ==

>  <s_epik_cmdline>  (242) 
J2VwaWtfcHl0aG9uJywgJy1waHQnLCAnMi4wJywgJy1waCcsICc3LjAnLCAnLXRuJywgJzgnLCAnLW1hJywgJzIwMCcsICctaW1hZScsICc8aW5maWxlLm1hZT4nLCAnLW9tYWUnLCAnPG91dGZpbGUubWFlPic=

>  <r_epik_Ionization_Penalty>  (242) 
0.00179422

>  <r_epik_Ionization_Penalty_Charging>  (242) 
3.53337e-06

>  <r_epik_Ionization_Penalty_Neutral>  (242) 
0.00179068

>  <r_epik_State_Penalty>  (242) 
0.00109649

>  <r_epik_Charging_Adjusted_Penalty>  (242) 
0.00110002

>  <i_epik_Tot_Q>  (242) 
0

>  <i_epik_Tot_abs_Q>  (242) 
0

>  <s_lp_Force_Field>  (242) 
OPLS3e

>  <r_lp_Energy>  (242) 
27.4864

>  <b_lp_Chiralities_Consistent>  (242) 
1

>  <s_lp_Variant>  (242) 
77:0-1

>  <s_i_glide_gridfile>  (242) 
pfpi4k_grid

>  <i_i_glide_lignum>  (242) 
33

>  <i_i_glide_rotatable_bonds>  (242) 
3

>  <r_i_docking_score>  (242) 
-2.44272

>  <r_i_glide_ligand_efficiency>  (242) 
-0.10178

>  <r_i_glide_ligand_efficiency_sa>  (242) 
-0.293585

>  <r_i_glide_ligand_efficiency_ln>  (242) 
-0.584656

>  <r_i_glide_gscore>  (242) 
-2.44272

>  <r_i_glide_lipo>  (242) 
-0.209445

>  <r_i_glide_hbond>  (242) 
0

>  <r_i_glide_metal>  (242) 
-0

>  <r_i_glide_rewards>  (242) 
-1.23563

>  <r_i_glide_evdw>  (242) 
-26.6274

>  <r_i_glide_ecoul>  (242) 
0.112363

>  <r_i_glide_erotb>  (242) 
0.361836

>  <r_i_glide_esite>  (242) 
-0.0449688

>  <r_i_glide_emodel>  (242) 
-31.2463

>  <r_i_glide_energy>  (242) 
-26.515

>  <r_i_glide_einternal>  (242) 
0.195948

>  <r_i_glide_intrahb_reward>  (242) 
-0

>  <i_i_glide_confnum>  (242) 
6

>  <i_i_glide_posenum>  (242) 
25

>  <r_i_glide_eff_state_penalty>  (242) 
0

>  <ligand_id>  (242) 
77

>  <original_smiles>  (242) 
CCc1ccc(-c2cn3ncnc(N4CC5CC4CO5)c3n2)cc1

>  <smiles>  (242) 
[H]c1nc(N2C([H])([H])C3([H])OC([H])([H])C2([H])C3([H])[H])c2nc(-c3c([H])c([H])c(C([H])([H])C([H])([H])[H])c([H])c3[H])c([H])n2n1

$$$$
78:0:0
     RDKit          3D

 50 53  0  0  1  0  0  0  0  0999 V2000
    9.2153   -2.9559    0.4702 C   0  0  0  0  0  0  0  0  0  0  0  0
    8.2071   -3.9765    1.0087 C   0  0  0  0  0  0  0  0  0  0  0  0
    6.8252   -3.5627    0.8034 N   0  0  0  0  0  0  0  0  0  0  0  0
    6.3880   -2.1571    0.9947 C   0  0  0  0  0  0  0  0  0  0  0  0
    4.8626   -1.8862    1.2744 C   0  0  0  0  0  0  0  0  0  0  0  0
    3.9564   -1.3807    0.0879 C   0  0  0  0  0  0  0  0  0  0  0  0
    3.3397   -2.3981   -0.9631 C   0  0  2  0  0  0  0  0  0  0  0  0
    3.8019   -3.8123   -0.6492 C   0  0  0  0  0  0  0  0  0  0  0  0
    3.1002   -4.7512    0.0993 C   0  0  0  0  0  0  0  0  0  0  0  0
    3.9140   -5.7035    0.8040 C   0  0  0  0  0  0  0  0  0  0  0  0
    3.1712   -6.8095    1.5397 C   0  0  0  0  0  0  0  0  0  0  0  0
    3.4960   -7.1518    2.9757 C   0  0  0  0  0  0  0  0  0  0  0  0
    3.8243   -8.1396    1.8570 C   0  0  0  0  0  0  0  0  0  0  0  0
    5.3443   -5.5044    0.9085 C   0  0  0  0  0  0  0  0  0  0  0  0
    6.2448   -6.2671    1.9063 C   0  0  0  0  0  0  0  0  0  0  0  0
    5.9300   -4.4408    0.1605 C   0  0  0  0  0  0  0  0  0  0  0  0
    5.1702   -3.8707   -0.8786 C   0  0  0  0  0  0  0  0  0  0  0  0
    5.8405   -3.0844   -1.9947 C   0  0  0  0  0  0  0  0  0  0  0  0
    7.0266   -3.1966   -2.2550 O   0  0  0  0  0  0  0  0  0  0  0  0
    5.0680   -2.1822   -2.6630 O   0  0  0  0  0  0  0  0  0  0  0  0
    3.6647   -2.0671   -2.4542 C   0  0  0  0  0  0  0  0  0  0  0  0
    2.9841   -3.0601   -3.4249 C   0  0  0  0  0  0  0  0  0  0  0  0
    3.2706   -0.6334   -2.8387 C   0  0  0  0  0  0  0  0  0  0  0  0
   10.2196   -3.2175    0.7863 H   0  0  0  0  0  0  0  0  0  0  0  0
    9.0280   -1.9511    0.8475 H   0  0  0  0  0  0  0  0  0  0  0  0
    9.1886   -2.9172   -0.6186 H   0  0  0  0  0  0  0  0  0  0  0  0
    8.3812   -4.9375    0.5258 H   0  0  0  0  0  0  0  0  0  0  0  0
    8.3776   -4.1517    2.0706 H   0  0  0  0  0  0  0  0  0  0  0  0
    6.9431   -1.7661    1.8455 H   0  0  0  0  0  0  0  0  0  0  0  0
    6.7187   -1.5693    0.1362 H   0  0  0  0  0  0  0  0  0  0  0  0
    4.3886   -2.7129    1.8036 H   0  0  0  0  0  0  0  0  0  0  0  0
    4.8532   -1.0698    2.0013 H   0  0  0  0  0  0  0  0  0  0  0  0
    3.1124   -0.8444    0.5246 H   0  0  0  0  0  0  0  0  0  0  0  0
    4.5118   -0.5969   -0.4173 H   0  0  0  0  0  0  0  0  0  0  0  0
    2.2572   -2.4197   -0.8344 H   0  0  0  0  0  0  0  0  0  0  0  0
    2.0263   -4.7009    0.2081 H   0  0  0  0  0  0  0  0  0  0  0  0
    2.1155   -6.8404    1.2559 H   0  0  0  0  0  0  0  0  0  0  0  0
    4.2290   -6.4730    3.4180 H   0  0  0  0  0  0  0  0  0  0  0  0
    2.6877   -7.4400    3.6347 H   0  0  0  0  0  0  0  0  0  0  0  0
    3.2123   -9.0337    1.8194 H   0  0  0  0  0  0  0  0  0  0  0  0
    4.8230   -8.2457    1.4293 H   0  0  0  0  0  0  0  0  0  0  0  0
    7.0234   -6.7775    1.3458 H   0  0  0  0  0  0  0  0  0  0  0  0
    5.7938   -7.0176    2.5165 H   0  0  0  0  0  0  0  0  0  0  0  0
    6.6689   -5.5558    2.6052 H   0  0  0  0  0  0  0  0  0  0  0  0
    1.8986   -3.0565   -3.3159 H   0  0  0  0  0  0  0  0  0  0  0  0
    3.3345   -4.0773   -3.2645 H   0  0  0  0  0  0  0  0  0  0  0  0
    3.2259   -2.8197   -4.4572 H   0  0  0  0  0  0  0  0  0  0  0  0
    2.2354   -0.4250   -2.6015 H   0  0  0  0  0  0  0  0  0  0  0  0
    3.3922   -0.4570   -3.8995 H   0  0  0  0  0  0  0  0  0  0  0  0
    3.8609    0.1235   -2.3367 H   0  0  0  0  0  0  0  0  0  0  0  0
  1  2  1  0
  1 24  1  0
  1 25  1  0
  1 26  1  0
  2  3  1  0
  2 27  1  0
  2 28  1  0
  3 16  1  0
  3  4  1  0
  4  5  1  0
  4 29  1  0
  4 30  1  0
  5  6  1  0
  5 31  1  0
  5 32  1  0
  6  7  1  0
  6 33  1  0
  6 34  1  0
  7 21  1  0
  7  8  1  0
  7 35  1  6
  8 17  2  0
  8  9  1  0
  9 10  2  0
  9 36  1  0
 10 11  1  0
 10 14  1  0
 11 13  1  0
 11 12  1  0
 11 37  1  0
 12 13  1  0
 12 38  1  0
 12 39  1  0
 13 40  1  0
 13 41  1  0
 14 15  1  0
 14 16  2  0
 15 42  1  0
 15 43  1  0
 15 44  1  0
 16 17  1  0
 17 18  1  0
 18 19  2  0
 18 20  1  0
 20 21  1  0
 21 22  1  0
 21 23  1  0
 22 45  1  0
 22 46  1  0
 22 47  1  0
 23 48  1  0
 23 49  1  0
 23 50  1  0
M  END
>  <i_m_ct_stereo_status>  (243) 
1

>  <s_m_source_file>  (243) 
/var/tmp/pbs.5076255.sched01/tmpln0nb48r/86bqtw16pk.sdf

>  <i_m_source_file_index>  (243) 
34

>  <i_lp_mmshare_version>  (243) 
48012

>  <i_f3d_flags>  (243) 
0

>  <s_epik_input>  (243) 
W0NIM11DMShbQ0gzXSlPQyg9TyljKGMyW0NASF0xMyljKE4oW0NIMl1bQ0gzXSlbQ0gyXVtDSDJdW0NIMl0zKWMoW0NIM10pYyhbY0hdMilbQ0hdNFtDSDJdW0NIMl00

>  <s_epik_cmdline>  (243) 
J2VwaWtfcHl0aG9uJywgJy1waHQnLCAnMi4wJywgJy1waCcsICc3LjAnLCAnLXRuJywgJzgnLCAnLW1hJywgJzIwMCcsICctaW1hZScsICc8aW5maWxlLm1hZT4nLCAnLW9tYWUnLCAnPG91dGZpbGUubWFlPic=

>  <r_epik_Ionization_Penalty>  (243) 
0.0353191

>  <r_epik_Ionization_Penalty_Charging>  (243) 
0

>  <r_epik_Ionization_Penalty_Neutral>  (243) 
0.0353191

>  <r_epik_State_Penalty>  (243) 
0.0294379

>  <r_epik_Charging_Adjusted_Penalty>  (243) 
0.0294379

>  <i_epik_Tot_Q>  (243) 
0

>  <i_epik_Tot_abs_Q>  (243) 
0

>  <s_epik_Chemistry_Notes>  (243) 
This compound has an ester and may undergo hydrolysis at high or low pH.

>  <s_lp_Force_Field>  (243) 
OPLS3e

>  <r_lp_Energy>  (243) 
100.907

>  <b_lp_Chiralities_Consistent>  (243) 
1

>  <s_lp_Variant>  (243) 
78:0-1

>  <s_i_glide_gridfile>  (243) 
pfpi4k_grid

>  <i_i_glide_lignum>  (243) 
34

>  <i_i_glide_rotatable_bonds>  (243) 
2

>  <r_i_docking_score>  (243) 
-3.42497

>  <r_i_glide_ligand_efficiency>  (243) 
-0.148912

>  <r_i_glide_ligand_efficiency_sa>  (243) 
-0.423485

>  <r_i_glide_ligand_efficiency_ln>  (243) 
-0.828189

>  <r_i_glide_gscore>  (243) 
-3.42497

>  <r_i_glide_lipo>  (243) 
-0.769162

>  <r_i_glide_hbond>  (243) 
0

>  <r_i_glide_metal>  (243) 
-0

>  <r_i_glide_rewards>  (243) 
-1.58032

>  <r_i_glide_evdw>  (243) 
-23.7046

>  <r_i_glide_ecoul>  (243) 
-0.528813

>  <r_i_glide_erotb>  (243) 
0.189066

>  <r_i_glide_esite>  (243) 
0

>  <r_i_glide_emodel>  (243) 
-22.2195

>  <r_i_glide_energy>  (243) 
-24.2334

>  <r_i_glide_einternal>  (243) 
9.67029

>  <r_i_glide_intrahb_reward>  (243) 
-0

>  <i_i_glide_confnum>  (243) 
6

>  <i_i_glide_posenum>  (243) 
12

>  <r_i_glide_eff_state_penalty>  (243) 
0

>  <ligand_id>  (243) 
78

>  <original_smiles>  (243) 
CCN1CCCC2c3cc(C4CC4)c(C)c1c3C(=O)OC2(C)C

>  <smiles>  (243) 
[H]c1c(C2([H])C([H])([H])C2([H])[H])c(C([H])([H])[H])c2c3c1C([H])(C([H])([H])C([H])([H])C([H])([H])N2C([H])([H])C([H])([H])[H])C(C([H])([H])[H])(C([H])([H])[H])OC3=O

$$$$
78:0:1
     RDKit          3D

 50 53  0  0  1  0  0  0  0  0999 V2000
   -0.2436    0.6979    9.8190 C   0  0  0  0  0  0  0  0  0  0  0  0
   -0.6263    1.6733    8.7094 C   0  0  0  0  0  0  0  0  0  0  0  0
    0.0824    1.4021    7.4690 N   0  0  0  0  0  0  0  0  0  0  0  0
    1.5693    1.3732    7.4123 C   0  0  0  0  0  0  0  0  0  0  0  0
    2.2604    1.6219    6.0174 C   0  0  0  0  0  0  0  0  0  0  0  0
    2.7754    0.3784    5.2027 C   0  0  0  0  0  0  0  0  0  0  0  0
    1.7997   -0.4689    4.2794 C   0  0  2  0  0  0  0  0  0  0  0  0
    0.3796    0.0717    4.3785 C   0  0  0  0  0  0  0  0  0  0  0  0
   -0.2047    0.9865    3.5152 C   0  0  0  0  0  0  0  0  0  0  0  0
   -1.1984    1.8433    4.1011 C   0  0  0  0  0  0  0  0  0  0  0  0
   -1.9346    2.7672    3.1548 C   0  0  0  0  0  0  0  0  0  0  0  0
   -2.1148    4.2434    3.4336 C   0  0  0  0  0  0  0  0  0  0  0  0
   -3.3183    3.3211    3.4451 C   0  0  0  0  0  0  0  0  0  0  0  0
   -1.3570    1.8800    5.5507 C   0  0  0  0  0  0  0  0  0  0  0  0
   -2.1654    3.0029    6.2751 C   0  0  0  0  0  0  0  0  0  0  0  0
   -0.6182    0.9371    6.3400 C   0  0  0  0  0  0  0  0  0  0  0  0
   -0.0515   -0.1661    5.6970 C   0  0  0  0  0  0  0  0  0  0  0  0
    0.3512   -1.4334    6.4583 C   0  0  0  0  0  0  0  0  0  0  0  0
   -0.1357   -1.7300    7.5453 O   0  0  0  0  0  0  0  0  0  0  0  0
    1.3032   -2.2244    5.8968 O   0  0  0  0  0  0  0  0  0  0  0  0
    1.7939   -1.9962    4.5820 C   0  0  0  0  0  0  0  0  0  0  0  0
    0.8582   -2.7629    3.6246 C   0  0  0  0  0  0  0  0  0  0  0  0
    3.2079   -2.6154    4.5297 C   0  0  0  0  0  0  0  0  0  0  0  0
   -0.6844    1.0101   10.7651 H   0  0  0  0  0  0  0  0  0  0  0  0
    0.8373    0.6492    9.9548 H   0  0  0  0  0  0  0  0  0  0  0  0
   -0.5887   -0.3108    9.5994 H   0  0  0  0  0  0  0  0  0  0  0  0
   -1.7033    1.6208    8.5427 H   0  0  0  0  0  0  0  0  0  0  0  0
   -0.4184    2.6992    9.0160 H   0  0  0  0  0  0  0  0  0  0  0  0
    1.9260    2.1396    8.1037 H   0  0  0  0  0  0  0  0  0  0  0  0
    1.9020    0.4185    7.8180 H   0  0  0  0  0  0  0  0  0  0  0  0
    1.6859    2.2964    5.3793 H   0  0  0  0  0  0  0  0  0  0  0  0
    3.1632    2.1872    6.2526 H   0  0  0  0  0  0  0  0  0  0  0  0
    3.5762    0.7259    4.5491 H   0  0  0  0  0  0  0  0  0  0  0  0
    3.2981   -0.2638    5.9026 H   0  0  0  0  0  0  0  0  0  0  0  0
    2.1060   -0.3226    3.2450 H   0  0  0  0  0  0  0  0  0  0  0  0
    0.1503    1.1166    2.4779 H   0  0  0  0  0  0  0  0  0  0  0  0
   -1.7337    2.4856    2.1199 H   0  0  0  0  0  0  0  0  0  0  0  0
   -1.5970    4.5072    4.3640 H   0  0  0  0  0  0  0  0  0  0  0  0
   -2.0568    4.9230    2.5978 H   0  0  0  0  0  0  0  0  0  0  0  0
   -4.0057    3.4344    2.6137 H   0  0  0  0  0  0  0  0  0  0  0  0
   -3.7120    2.9508    4.3944 H   0  0  0  0  0  0  0  0  0  0  0  0
   -2.9210    2.4996    6.8963 H   0  0  0  0  0  0  0  0  0  0  0  0
   -2.6353    3.7259    5.6636 H   0  0  0  0  0  0  0  0  0  0  0  0
   -1.4613    3.5139    6.9452 H   0  0  0  0  0  0  0  0  0  0  0  0
    1.1767   -2.6493    2.5856 H   0  0  0  0  0  0  0  0  0  0  0  0
   -0.1799   -2.4263    3.6960 H   0  0  0  0  0  0  0  0  0  0  0  0
    0.8588   -3.8266    3.8617 H   0  0  0  0  0  0  0  0  0  0  0  0
    3.7064   -2.4147    3.5801 H   0  0  0  0  0  0  0  0  0  0  0  0
    3.1568   -3.6957    4.6481 H   0  0  0  0  0  0  0  0  0  0  0  0
    3.8600   -2.2624    5.3251 H   0  0  0  0  0  0  0  0  0  0  0  0
  1  2  1  0
  1 24  1  0
  1 25  1  0
  1 26  1  0
  2  3  1  0
  2 27  1  0
  2 28  1  0
  3 16  1  0
  3  4  1  0
  4  5  1  0
  4 29  1  0
  4 30  1  0
  5  6  1  0
  5 31  1  0
  5 32  1  0
  6  7  1  0
  6 33  1  0
  6 34  1  0
  7 21  1  0
  7  8  1  0
  7 35  1  6
  8 17  2  0
  8  9  1  0
  9 10  2  0
  9 36  1  0
 10 11  1  0
 10 14  1  0
 11 13  1  0
 11 12  1  0
 11 37  1  0
 12 13  1  0
 12 38  1  0
 12 39  1  0
 13 40  1  0
 13 41  1  0
 14 15  1  0
 14 16  2  0
 15 42  1  0
 15 43  1  0
 15 44  1  0
 16 17  1  0
 17 18  1  0
 18 19  2  0
 18 20  1  0
 20 21  1  0
 21 22  1  0
 21 23  1  0
 22 45  1  0
 22 46  1  0
 22 47  1  0
 23 48  1  0
 23 49  1  0
 23 50  1  0
M  END
>  <i_m_ct_stereo_status>  (244) 
1

>  <s_m_source_file>  (244) 
/var/tmp/pbs.5076255.sched01/tmpln0nb48r/86bqtw16pk.sdf

>  <i_m_source_file_index>  (244) 
34

>  <i_lp_mmshare_version>  (244) 
48012

>  <i_f3d_flags>  (244) 
0

>  <s_epik_input>  (244) 
W0NIM11DMShbQ0gzXSlPQyg9TyljKGMyW0NASF0xMyljKE4oW0NIMl1bQ0gzXSlbQ0gyXVtDSDJdW0NIMl0zKWMoW0NIM10pYyhbY0hdMilbQ0hdNFtDSDJdW0NIMl00

>  <s_epik_cmdline>  (244) 
J2VwaWtfcHl0aG9uJywgJy1waHQnLCAnMi4wJywgJy1waCcsICc3LjAnLCAnLXRuJywgJzgnLCAnLW1hJywgJzIwMCcsICctaW1hZScsICc8aW5maWxlLm1hZT4nLCAnLW9tYWUnLCAnPG91dGZpbGUubWFlPic=

>  <r_epik_Ionization_Penalty>  (244) 
0.0353191

>  <r_epik_Ionization_Penalty_Charging>  (244) 
0

>  <r_epik_Ionization_Penalty_Neutral>  (244) 
0.0353191

>  <r_epik_State_Penalty>  (244) 
0.0294379

>  <r_epik_Charging_Adjusted_Penalty>  (244) 
0.0294379

>  <i_epik_Tot_Q>  (244) 
0

>  <i_epik_Tot_abs_Q>  (244) 
0

>  <s_epik_Chemistry_Notes>  (244) 
This compound has an ester and may undergo hydrolysis at high or low pH.

>  <s_lp_Force_Field>  (244) 
OPLS3e

>  <r_lp_Energy>  (244) 
100.907

>  <b_lp_Chiralities_Consistent>  (244) 
1

>  <s_lp_Variant>  (244) 
78:0-1

>  <s_i_glide_gridfile>  (244) 
pfpi4k_grid

>  <i_i_glide_lignum>  (244) 
34

>  <i_i_glide_rotatable_bonds>  (244) 
2

>  <r_i_docking_score>  (244) 
-2.52779

>  <r_i_glide_ligand_efficiency>  (244) 
-0.109904

>  <r_i_glide_ligand_efficiency_sa>  (244) 
-0.312552

>  <r_i_glide_ligand_efficiency_ln>  (244) 
-0.611241

>  <r_i_glide_gscore>  (244) 
-2.52779

>  <r_i_glide_lipo>  (244) 
-0.13327

>  <r_i_glide_hbond>  (244) 
-0.040892

>  <r_i_glide_metal>  (244) 
-0

>  <r_i_glide_rewards>  (244) 
-1.27204

>  <r_i_glide_evdw>  (244) 
-17.4072

>  <r_i_glide_ecoul>  (244) 
-2.47424

>  <r_i_glide_erotb>  (244) 
0.189066

>  <r_i_glide_esite>  (244) 
-0.0291501

>  <r_i_glide_emodel>  (244) 
-17.2634

>  <r_i_glide_energy>  (244) 
-19.8815

>  <r_i_glide_einternal>  (244) 
8.69274

>  <r_i_glide_intrahb_reward>  (244) 
-0

>  <i_i_glide_confnum>  (244) 
2

>  <i_i_glide_posenum>  (244) 
9

>  <r_i_glide_eff_state_penalty>  (244) 
0

>  <ligand_id>  (244) 
78

>  <original_smiles>  (244) 
CCN1CCCC2c3cc(C4CC4)c(C)c1c3C(=O)OC2(C)C

>  <smiles>  (244) 
[H]c1c(C2([H])C([H])([H])C2([H])[H])c(C([H])([H])[H])c2c3c1C([H])(C([H])([H])C([H])([H])C([H])([H])N2C([H])([H])C([H])([H])[H])C(C([H])([H])[H])(C([H])([H])[H])OC3=O

$$$$
78:0:2
     RDKit          3D

 50 53  0  0  1  0  0  0  0  0999 V2000
    1.7592   -0.3350    9.5273 C   0  0  0  0  0  0  0  0  0  0  0  0
    1.5758    0.9863    8.7770 C   0  0  0  0  0  0  0  0  0  0  0  0
    1.9857    0.9073    7.3810 N   0  0  0  0  0  0  0  0  0  0  0  0
    3.4029    0.7054    6.9944 C   0  0  0  0  0  0  0  0  0  0  0  0
    3.8279    1.1291    5.5365 C   0  0  0  0  0  0  0  0  0  0  0  0
    3.9906    0.0083    4.4430 C   0  0  0  0  0  0  0  0  0  0  0  0
    2.7385   -0.5464    3.6533 C   0  0  2  0  0  0  0  0  0  0  0  0
    1.4627    0.0974    4.1368 C   0  0  0  0  0  0  0  0  0  0  0  0
    0.8692    1.2181    3.5403 C   0  0  0  0  0  0  0  0  0  0  0  0
    0.1320    2.0073    4.4598 C   0  0  0  0  0  0  0  0  0  0  0  0
   -0.6809    3.1336    3.8906 C   0  0  0  0  0  0  0  0  0  0  0  0
   -2.1256    3.3559    4.2824 C   0  0  0  0  0  0  0  0  0  0  0  0
   -1.7876    2.8340    2.9134 C   0  0  0  0  0  0  0  0  0  0  0  0
    0.2875    1.8154    5.8757 C   0  0  0  0  0  0  0  0  0  0  0  0
   -0.2119    2.8816    6.8539 C   0  0  0  0  0  0  0  0  0  0  0  0
    1.0129    0.6919    6.3818 C   0  0  0  0  0  0  0  0  0  0  0  0
    1.2896   -0.3196    5.4626 C   0  0  0  0  0  0  0  0  0  0  0  0
    1.6198   -1.7248    5.9171 C   0  0  0  0  0  0  0  0  0  0  0  0
    1.2617   -2.1879    6.9972 O   0  0  0  0  0  0  0  0  0  0  0  0
    2.3240   -2.5006    5.0396 O   0  0  0  0  0  0  0  0  0  0  0  0
    2.5970   -2.0918    3.6974 C   0  0  0  0  0  0  0  0  0  0  0  0
    1.3968   -2.5819    2.8613 C   0  0  0  0  0  0  0  0  0  0  0  0
    3.8659   -2.8376    3.2275 C   0  0  0  0  0  0  0  0  0  0  0  0
    1.6040   -0.1854   10.5934 H   0  0  0  0  0  0  0  0  0  0  0  0
    2.7590   -0.7453    9.3858 H   0  0  0  0  0  0  0  0  0  0  0  0
    1.0357   -1.0773    9.1963 H   0  0  0  0  0  0  0  0  0  0  0  0
    0.5342    1.2981    8.8506 H   0  0  0  0  0  0  0  0  0  0  0  0
    2.1694    1.7691    9.2513 H   0  0  0  0  0  0  0  0  0  0  0  0
    3.9999    1.2849    7.6995 H   0  0  0  0  0  0  0  0  0  0  0  0
    3.6712   -0.3381    7.1625 H   0  0  0  0  0  0  0  0  0  0  0  0
    3.2342    1.9630    5.1573 H   0  0  0  0  0  0  0  0  0  0  0  0
    4.8274    1.5468    5.6468 H   0  0  0  0  0  0  0  0  0  0  0  0
    4.6771    0.3905    3.6893 H   0  0  0  0  0  0  0  0  0  0  0  0
    4.5544   -0.8023    4.9032 H   0  0  0  0  0  0  0  0  0  0  0  0
    2.8495   -0.2577    2.6145 H   0  0  0  0  0  0  0  0  0  0  0  0
    1.0043    1.4912    2.4868 H   0  0  0  0  0  0  0  0  0  0  0  0
   -0.0529    3.9961    3.6914 H   0  0  0  0  0  0  0  0  0  0  0  0
   -2.5497    2.6665    5.0115 H   0  0  0  0  0  0  0  0  0  0  0  0
   -2.4624    4.3862    4.3615 H   0  0  0  0  0  0  0  0  0  0  0  0
   -1.9402    3.5278    2.0886 H   0  0  0  0  0  0  0  0  0  0  0  0
   -2.0105    1.7926    2.6981 H   0  0  0  0  0  0  0  0  0  0  0  0
   -0.9649    2.4771    7.5364 H   0  0  0  0  0  0  0  0  0  0  0  0
   -0.6677    3.7484    6.3792 H   0  0  0  0  0  0  0  0  0  0  0  0
    0.6079    3.2915    7.4463 H   0  0  0  0  0  0  0  0  0  0  0  0
    1.5063   -2.3044    1.8147 H   0  0  0  0  0  0  0  0  0  0  0  0
    0.4555   -2.1638    3.2140 H   0  0  0  0  0  0  0  0  0  0  0  0
    1.2970   -3.6654    2.9186 H   0  0  0  0  0  0  0  0  0  0  0  0
    4.1798   -2.5173    2.2349 H   0  0  0  0  0  0  0  0  0  0  0  0
    3.6912   -3.9128    3.1822 H   0  0  0  0  0  0  0  0  0  0  0  0
    4.7111   -2.7020    3.9009 H   0  0  0  0  0  0  0  0  0  0  0  0
  1  2  1  0
  1 24  1  0
  1 25  1  0
  1 26  1  0
  2  3  1  0
  2 27  1  0
  2 28  1  0
  3 16  1  0
  3  4  1  0
  4  5  1  0
  4 29  1  0
  4 30  1  0
  5  6  1  0
  5 31  1  0
  5 32  1  0
  6  7  1  0
  6 33  1  0
  6 34  1  0
  7 21  1  0
  7  8  1  0
  7 35  1  6
  8 17  2  0
  8  9  1  0
  9 10  2  0
  9 36  1  0
 10 11  1  0
 10 14  1  0
 11 13  1  0
 11 12  1  0
 11 37  1  0
 12 13  1  0
 12 38  1  0
 12 39  1  0
 13 40  1  0
 13 41  1  0
 14 15  1  0
 14 16  2  0
 15 42  1  0
 15 43  1  0
 15 44  1  0
 16 17  1  0
 17 18  1  0
 18 19  2  0
 18 20  1  0
 20 21  1  0
 21 22  1  0
 21 23  1  0
 22 45  1  0
 22 46  1  0
 22 47  1  0
 23 48  1  0
 23 49  1  0
 23 50  1  0
M  END
>  <i_m_ct_stereo_status>  (245) 
1

>  <s_m_source_file>  (245) 
/var/tmp/pbs.5076255.sched01/tmpln0nb48r/86bqtw16pk.sdf

>  <i_m_source_file_index>  (245) 
34

>  <i_lp_mmshare_version>  (245) 
48012

>  <i_f3d_flags>  (245) 
0

>  <s_epik_input>  (245) 
W0NIM11DMShbQ0gzXSlPQyg9TyljKGMyW0NASF0xMyljKE4oW0NIMl1bQ0gzXSlbQ0gyXVtDSDJdW0NIMl0zKWMoW0NIM10pYyhbY0hdMilbQ0hdNFtDSDJdW0NIMl00

>  <s_epik_cmdline>  (245) 
J2VwaWtfcHl0aG9uJywgJy1waHQnLCAnMi4wJywgJy1waCcsICc3LjAnLCAnLXRuJywgJzgnLCAnLW1hJywgJzIwMCcsICctaW1hZScsICc8aW5maWxlLm1hZT4nLCAnLW9tYWUnLCAnPG91dGZpbGUubWFlPic=

>  <r_epik_Ionization_Penalty>  (245) 
0.0353191

>  <r_epik_Ionization_Penalty_Charging>  (245) 
0

>  <r_epik_Ionization_Penalty_Neutral>  (245) 
0.0353191

>  <r_epik_State_Penalty>  (245) 
0.0294379

>  <r_epik_Charging_Adjusted_Penalty>  (245) 
0.0294379

>  <i_epik_Tot_Q>  (245) 
0

>  <i_epik_Tot_abs_Q>  (245) 
0

>  <s_epik_Chemistry_Notes>  (245) 
This compound has an ester and may undergo hydrolysis at high or low pH.

>  <s_lp_Force_Field>  (245) 
OPLS3e

>  <r_lp_Energy>  (245) 
100.907

>  <b_lp_Chiralities_Consistent>  (245) 
1

>  <s_lp_Variant>  (245) 
78:0-1

>  <s_i_glide_gridfile>  (245) 
pfpi4k_grid

>  <i_i_glide_lignum>  (245) 
34

>  <i_i_glide_rotatable_bonds>  (245) 
2

>  <r_i_docking_score>  (245) 
-1.88205

>  <r_i_glide_ligand_efficiency>  (245) 
-0.0818282

>  <r_i_glide_ligand_efficiency_sa>  (245) 
-0.232709

>  <r_i_glide_ligand_efficiency_ln>  (245) 
-0.455097

>  <r_i_glide_gscore>  (245) 
-1.88205

>  <r_i_glide_lipo>  (245) 
-0.0129747

>  <r_i_glide_hbond>  (245) 
0

>  <r_i_glide_metal>  (245) 
-0

>  <r_i_glide_rewards>  (245) 
-1.27204

>  <r_i_glide_evdw>  (245) 
-12.7574

>  <r_i_glide_ecoul>  (245) 
-0.985991

>  <r_i_glide_erotb>  (245) 
0.189066

>  <r_i_glide_esite>  (245) 
-0.000331626

>  <r_i_glide_emodel>  (245) 
-15.9682

>  <r_i_glide_energy>  (245) 
-13.7434

>  <r_i_glide_einternal>  (245) 
0.1998

>  <r_i_glide_intrahb_reward>  (245) 
-0

>  <i_i_glide_confnum>  (245) 
1

>  <i_i_glide_posenum>  (245) 
23

>  <r_i_glide_eff_state_penalty>  (245) 
0

>  <ligand_id>  (245) 
78

>  <original_smiles>  (245) 
CCN1CCCC2c3cc(C4CC4)c(C)c1c3C(=O)OC2(C)C

>  <smiles>  (245) 
[H]c1c(C2([H])C([H])([H])C2([H])[H])c(C([H])([H])[H])c2c3c1C([H])(C([H])([H])C([H])([H])C([H])([H])N2C([H])([H])C([H])([H])[H])C(C([H])([H])[H])(C([H])([H])[H])OC3=O

$$$$
78:1:0
     RDKit          3D

 51 54  0  0  1  0  0  0  0  0999 V2000
    3.8224  -10.7464    8.1515 C   0  0  0  0  0  0  0  0  0  0  0  0
    3.8217  -11.5306    6.8263 C   0  0  0  0  0  0  0  0  0  0  0  0
    3.0174  -10.8374    5.7968 N   0  0  2  0  0  0  0  0  0  0  0  0
    2.7095  -11.6373    4.5630 C   0  0  0  0  0  0  0  0  0  0  0  0
    1.3044  -11.3600    3.9178 C   0  0  0  0  0  0  0  0  0  0  0  0
    1.1868  -10.3913    2.6889 C   0  0  0  0  0  0  0  0  0  0  0  0
    1.1550   -8.8365    2.8814 C   0  0  2  0  0  0  0  0  0  0  0  0
    2.4413   -8.4187    3.5361 C   0  0  0  0  0  0  0  0  0  0  0  0
    3.6117   -8.2659    2.7945 C   0  0  0  0  0  0  0  0  0  0  0  0
    4.8051   -8.5722    3.5011 C   0  0  0  0  0  0  0  0  0  0  0  0
    6.1078   -8.3503    2.7507 C   0  0  0  0  0  0  0  0  0  0  0  0
    6.2227   -7.2625    1.7079 C   0  0  0  0  0  0  0  0  0  0  0  0
    6.2372   -8.7239    1.2947 C   0  0  0  0  0  0  0  0  0  0  0  0
    4.7345   -9.2116    4.7909 C   0  0  0  0  0  0  0  0  0  0  0  0
    6.0102   -9.7556    5.4417 C   0  0  0  0  0  0  0  0  0  0  0  0
    3.4552   -9.4144    5.4256 C   0  0  0  0  0  0  0  0  0  0  0  0
    2.3685   -8.7454    4.8896 C   0  0  0  0  0  0  0  0  0  0  0  0
    1.1033   -8.6496    5.6964 C   0  0  0  0  0  0  0  0  0  0  0  0
    1.0951   -8.7394    6.9190 O   0  0  0  0  0  0  0  0  0  0  0  0
   -0.0521   -8.4855    4.9962 O   0  0  0  0  0  0  0  0  0  0  0  0
   -0.0833   -8.2313    3.5916 C   0  0  0  0  0  0  0  0  0  0  0  0
   -0.0875   -6.6962    3.4768 C   0  0  0  0  0  0  0  0  0  0  0  0
   -1.4120   -8.7902    3.0530 C   0  0  0  0  0  0  0  0  0  0  0  0
    4.4479  -11.2535    8.8825 H   0  0  0  0  0  0  0  0  0  0  0  0
    2.8126  -10.6587    8.5610 H   0  0  0  0  0  0  0  0  0  0  0  0
    4.2065   -9.7279    8.0472 H   0  0  0  0  0  0  0  0  0  0  0  0
    4.8234  -11.7712    6.4918 H   0  0  0  0  0  0  0  0  0  0  0  0
    3.4202  -12.5224    7.0120 H   0  0  0  0  0  0  0  0  0  0  0  0
    3.4971  -11.5413    3.8170 H   0  0  0  0  0  0  0  0  0  0  0  0
    2.7189  -12.6882    4.8417 H   0  0  0  0  0  0  0  0  0  0  0  0
    0.9743  -12.3161    3.5201 H   0  0  0  0  0  0  0  0  0  0  0  0
    0.5487  -11.1286    4.6663 H   0  0  0  0  0  0  0  0  0  0  0  0
    2.0137  -10.6192    2.0185 H   0  0  0  0  0  0  0  0  0  0  0  0
    0.2943  -10.6713    2.1260 H   0  0  0  0  0  0  0  0  0  0  0  0
    1.1732   -8.4206    1.8773 H   0  0  0  0  0  0  0  0  0  0  0  0
    3.5785   -8.0376    1.7247 H   0  0  0  0  0  0  0  0  0  0  0  0
    6.9965   -8.4721    3.3508 H   0  0  0  0  0  0  0  0  0  0  0  0
    5.3420   -6.6533    1.5163 H   0  0  0  0  0  0  0  0  0  0  0  0
    7.1651   -6.7258    1.6560 H   0  0  0  0  0  0  0  0  0  0  0  0
    7.1901   -9.1284    0.9693 H   0  0  0  0  0  0  0  0  0  0  0  0
    5.3599   -9.1690    0.8283 H   0  0  0  0  0  0  0  0  0  0  0  0
    5.9410   -9.8094    6.5287 H   0  0  0  0  0  0  0  0  0  0  0  0
    6.9109   -9.1518    5.2930 H   0  0  0  0  0  0  0  0  0  0  0  0
    6.2404  -10.7535    5.0580 H   0  0  0  0  0  0  0  0  0  0  0  0
   -0.1557   -6.3722    2.4403 H   0  0  0  0  0  0  0  0  0  0  0  0
    0.8198   -6.2660    3.9001 H   0  0  0  0  0  0  0  0  0  0  0  0
   -0.9256   -6.2807    4.0369 H   0  0  0  0  0  0  0  0  0  0  0  0
   -1.5094   -8.6649    1.9739 H   0  0  0  0  0  0  0  0  0  0  0  0
   -2.2623   -8.3031    3.5286 H   0  0  0  0  0  0  0  0  0  0  0  0
   -1.5100   -9.8533    3.2752 H   0  0  0  0  0  0  0  0  0  0  0  0
    2.1110  -10.8169    6.2700 H   0  0  0  0  0  0  0  0  0  0  0  0
  1  2  1  0
  1 24  1  0
  1 25  1  0
  1 26  1  0
  2  3  1  0
  2 27  1  0
  2 28  1  0
  3 16  1  0
  3  4  1  0
  3 51  1  1
  4  5  1  0
  4 29  1  0
  4 30  1  0
  5  6  1  0
  5 31  1  0
  5 32  1  0
  6  7  1  0
  6 33  1  0
  6 34  1  0
  7 21  1  0
  7  8  1  0
  7 35  1  6
  8 17  2  0
  8  9  1  0
  9 10  2  0
  9 36  1  0
 10 11  1  0
 10 14  1  0
 11 13  1  0
 11 12  1  0
 11 37  1  0
 12 13  1  0
 12 38  1  0
 12 39  1  0
 13 40  1  0
 13 41  1  0
 14 15  1  0
 14 16  2  0
 15 42  1  0
 15 43  1  0
 15 44  1  0
 16 17  1  0
 17 18  1  0
 18 19  2  0
 18 20  1  0
 20 21  1  0
 21 22  1  0
 21 23  1  0
 22 45  1  0
 22 46  1  0
 22 47  1  0
 23 48  1  0
 23 49  1  0
 23 50  1  0
M  CHG  1   3   1
M  END
>  <i_m_ct_stereo_status>  (246) 
1

>  <s_m_source_file>  (246) 
/var/tmp/pbs.5076255.sched01/tmpln0nb48r/86bqtw16pk.sdf

>  <i_m_source_file_index>  (246) 
35

>  <i_lp_mmshare_version>  (246) 
48012

>  <i_f3d_flags>  (246) 
0

>  <s_epik_input>  (246) 
W0NIM11DMShbQ0gzXSlPQyg9TyljKGMyW0NASF0xMyljKE4oW0NIMl1bQ0gzXSlbQ0gyXVtDSDJdW0NIMl0zKWMoW0NIM10pYyhbY0hdMilbQ0hdNFtDSDJdW0NIMl00

>  <s_epik_cmdline>  (246) 
J2VwaWtfcHl0aG9uJywgJy1waHQnLCAnMi4wJywgJy1waCcsICc3LjAnLCAnLXRuJywgJzgnLCAnLW1hJywgJzIwMCcsICctaW1hZScsICc8aW5maWxlLm1hZT4nLCAnLW9tYWUnLCAnPG91dGZpbGUubWFlPic=

>  <r_epik_Ionization_Penalty>  (246) 
1.68832

>  <r_epik_Ionization_Penalty_Charging>  (246) 
1.68832

>  <r_epik_Ionization_Penalty_Neutral>  (246) 
0

>  <r_epik_State_Penalty>  (246) 
1.79333

>  <r_epik_Charging_Adjusted_Penalty>  (246) 
3.48165

>  <i_epik_Tot_Q>  (246) 
1

>  <i_epik_Tot_abs_Q>  (246) 
1

>  <s_epik_Chemistry_Notes>  (246) 
This compound has an ester and may undergo hydrolysis at high or low pH.

>  <s_lp_Force_Field>  (246) 
OPLS3e

>  <r_lp_Energy>  (246) 
89.0233

>  <b_lp_Chiralities_Consistent>  (246) 
1

>  <s_lp_Variant>  (246) 
78:0-2

>  <s_i_glide_gridfile>  (246) 
pfpi4k_grid

>  <i_i_glide_lignum>  (246) 
35

>  <i_i_glide_rotatable_bonds>  (246) 
2

>  <r_i_docking_score>  (246) 
-3.49773

>  <r_i_glide_ligand_efficiency>  (246) 
-0.152075

>  <r_i_glide_ligand_efficiency_sa>  (246) 
-0.432482

>  <r_i_glide_ligand_efficiency_ln>  (246) 
-0.845783

>  <r_i_glide_gscore>  (246) 
-3.49773

>  <r_i_glide_lipo>  (246) 
-0.560357

>  <r_i_glide_hbond>  (246) 
-0.0610587

>  <r_i_glide_metal>  (246) 
-0

>  <r_i_glide_rewards>  (246) 
-1.26517

>  <r_i_glide_evdw>  (246) 
-19.2401

>  <r_i_glide_ecoul>  (246) 
-4.88288

>  <r_i_glide_erotb>  (246) 
0.188002

>  <r_i_glide_esite>  (246) 
-0.104711

>  <r_i_glide_emodel>  (246) 
-30.0961

>  <r_i_glide_energy>  (246) 
-24.123

>  <r_i_glide_einternal>  (246) 
2.59718

>  <r_i_glide_intrahb_reward>  (246) 
-0

>  <i_i_glide_confnum>  (246) 
4

>  <i_i_glide_posenum>  (246) 
10

>  <r_i_glide_eff_state_penalty>  (246) 
0

>  <ligand_id>  (246) 
78

>  <original_smiles>  (246) 
CCN1CCCC2c3cc(C4CC4)c(C)c1c3C(=O)OC2(C)C

>  <smiles>  (246) 
[H]c1c(C2([H])C([H])([H])C2([H])[H])c(C([H])([H])[H])c2c3c1C([H])(C([H])([H])C([H])([H])C([H])([H])[N+]2([H])C([H])([H])C([H])([H])[H])C(C([H])([H])[H])(C([H])([H])[H])OC3=O

$$$$
78:1:1
     RDKit          3D

 51 54  0  0  1  0  0  0  0  0999 V2000
    9.2341   -3.7315    0.7481 C   0  0  0  0  0  0  0  0  0  0  0  0
    8.1018   -3.3650   -0.2099 C   0  0  0  0  0  0  0  0  0  0  0  0
    6.7784   -3.4671    0.4450 N   0  0  2  0  0  0  0  0  0  0  0  0
    6.2536   -4.8680    0.6308 C   0  0  0  0  0  0  0  0  0  0  0  0
    5.4232   -5.0856    1.9473 C   0  0  0  0  0  0  0  0  0  0  0  0
    3.8521   -5.0687    1.8926 C   0  0  0  0  0  0  0  0  0  0  0  0
    3.0653   -3.7092    1.8790 C   0  0  2  0  0  0  0  0  0  0  0  0
    3.4728   -2.9545    0.6399 C   0  0  0  0  0  0  0  0  0  0  0  0
    2.9382   -3.2426   -0.6248 C   0  0  0  0  0  0  0  0  0  0  0  0
    3.8402   -3.0094   -1.6909 C   0  0  0  0  0  0  0  0  0  0  0  0
    3.3299   -3.1725   -3.0952 C   0  0  0  0  0  0  0  0  0  0  0  0
    3.2941   -1.9987   -4.0531 C   0  0  0  0  0  0  0  0  0  0  0  0
    2.0255   -2.5413   -3.4635 C   0  0  0  0  0  0  0  0  0  0  0  0
    5.2204   -2.7588   -1.4273 C   0  0  0  0  0  0  0  0  0  0  0  0
    6.2113   -2.7752   -2.5794 C   0  0  0  0  0  0  0  0  0  0  0  0
    5.6940   -2.5535   -0.0933 C   0  0  0  0  0  0  0  0  0  0  0  0
    4.7180   -2.3696    0.8806 C   0  0  0  0  0  0  0  0  0  0  0  0
    5.1498   -1.8264    2.2160 C   0  0  0  0  0  0  0  0  0  0  0  0
    6.1653   -1.1538    2.3436 O   0  0  0  0  0  0  0  0  0  0  0  0
    4.4045   -2.1950    3.2809 O   0  0  0  0  0  0  0  0  0  0  0  0
    3.1372   -2.8297    3.1608 C   0  0  0  0  0  0  0  0  0  0  0  0
    2.1143   -1.6757    3.0919 C   0  0  0  0  0  0  0  0  0  0  0  0
    2.9088   -3.6470    4.4465 C   0  0  0  0  0  0  0  0  0  0  0  0
   10.1770   -3.4373    0.2831 H   0  0  0  0  0  0  0  0  0  0  0  0
    9.2174   -4.7959    1.0285 H   0  0  0  0  0  0  0  0  0  0  0  0
    9.2298   -3.1833    1.6714 H   0  0  0  0  0  0  0  0  0  0  0  0
    8.2714   -2.3340   -0.5083 H   0  0  0  0  0  0  0  0  0  0  0  0
    8.1673   -3.9684   -1.1115 H   0  0  0  0  0  0  0  0  0  0  0  0
    5.6910   -5.2046   -0.2398 H   0  0  0  0  0  0  0  0  0  0  0  0
    7.0986   -5.5433    0.6856 H   0  0  0  0  0  0  0  0  0  0  0  0
    5.6754   -6.0969    2.2734 H   0  0  0  0  0  0  0  0  0  0  0  0
    5.7881   -4.4621    2.7627 H   0  0  0  0  0  0  0  0  0  0  0  0
    3.5348   -5.6638    1.0332 H   0  0  0  0  0  0  0  0  0  0  0  0
    3.4889   -5.6455    2.7395 H   0  0  0  0  0  0  0  0  0  0  0  0
    2.0200   -3.9682    1.7381 H   0  0  0  0  0  0  0  0  0  0  0  0
    1.9537   -3.6702   -0.7739 H   0  0  0  0  0  0  0  0  0  0  0  0
    3.5330   -4.1613   -3.4936 H   0  0  0  0  0  0  0  0  0  0  0  0
    3.6623   -1.0391   -3.6903 H   0  0  0  0  0  0  0  0  0  0  0  0
    3.4209   -2.1865   -5.1122 H   0  0  0  0  0  0  0  0  0  0  0  0
    1.3484   -3.0507   -4.1415 H   0  0  0  0  0  0  0  0  0  0  0  0
    1.5759   -1.9386   -2.6940 H   0  0  0  0  0  0  0  0  0  0  0  0
    7.0929   -2.1774   -2.3477 H   0  0  0  0  0  0  0  0  0  0  0  0
    5.7614   -2.3716   -3.4807 H   0  0  0  0  0  0  0  0  0  0  0  0
    6.5390   -3.7866   -2.8146 H   0  0  0  0  0  0  0  0  0  0  0  0
    1.0858   -2.0375    3.0383 H   0  0  0  0  0  0  0  0  0  0  0  0
    2.2851   -1.0410    2.2196 H   0  0  0  0  0  0  0  0  0  0  0  0
    2.2005   -1.0335    3.9707 H   0  0  0  0  0  0  0  0  0  0  0  0
    1.9663   -4.1953    4.4233 H   0  0  0  0  0  0  0  0  0  0  0  0
    2.8840   -2.9993    5.3211 H   0  0  0  0  0  0  0  0  0  0  0  0
    3.7079   -4.3669    4.6169 H   0  0  0  0  0  0  0  0  0  0  0  0
    6.9898   -3.1574    1.3829 H   0  0  0  0  0  0  0  0  0  0  0  0
  1  2  1  0
  1 24  1  0
  1 25  1  0
  1 26  1  0
  2  3  1  0
  2 27  1  0
  2 28  1  0
  3 16  1  0
  3  4  1  0
  3 51  1  1
  4  5  1  0
  4 29  1  0
  4 30  1  0
  5  6  1  0
  5 31  1  0
  5 32  1  0
  6  7  1  0
  6 33  1  0
  6 34  1  0
  7 21  1  0
  7  8  1  0
  7 35  1  6
  8 17  2  0
  8  9  1  0
  9 10  2  0
  9 36  1  0
 10 11  1  0
 10 14  1  0
 11 13  1  0
 11 12  1  0
 11 37  1  0
 12 13  1  0
 12 38  1  0
 12 39  1  0
 13 40  1  0
 13 41  1  0
 14 15  1  0
 14 16  2  0
 15 42  1  0
 15 43  1  0
 15 44  1  0
 16 17  1  0
 17 18  1  0
 18 19  2  0
 18 20  1  0
 20 21  1  0
 21 22  1  0
 21 23  1  0
 22 45  1  0
 22 46  1  0
 22 47  1  0
 23 48  1  0
 23 49  1  0
 23 50  1  0
M  CHG  1   3   1
M  END
>  <i_m_ct_stereo_status>  (247) 
1

>  <s_m_source_file>  (247) 
/var/tmp/pbs.5076255.sched01/tmpln0nb48r/86bqtw16pk.sdf

>  <i_m_source_file_index>  (247) 
35

>  <i_lp_mmshare_version>  (247) 
48012

>  <i_f3d_flags>  (247) 
0

>  <s_epik_input>  (247) 
W0NIM11DMShbQ0gzXSlPQyg9TyljKGMyW0NASF0xMyljKE4oW0NIMl1bQ0gzXSlbQ0gyXVtDSDJdW0NIMl0zKWMoW0NIM10pYyhbY0hdMilbQ0hdNFtDSDJdW0NIMl00

>  <s_epik_cmdline>  (247) 
J2VwaWtfcHl0aG9uJywgJy1waHQnLCAnMi4wJywgJy1waCcsICc3LjAnLCAnLXRuJywgJzgnLCAnLW1hJywgJzIwMCcsICctaW1hZScsICc8aW5maWxlLm1hZT4nLCAnLW9tYWUnLCAnPG91dGZpbGUubWFlPic=

>  <r_epik_Ionization_Penalty>  (247) 
1.68832

>  <r_epik_Ionization_Penalty_Charging>  (247) 
1.68832

>  <r_epik_Ionization_Penalty_Neutral>  (247) 
0

>  <r_epik_State_Penalty>  (247) 
1.79333

>  <r_epik_Charging_Adjusted_Penalty>  (247) 
3.48165

>  <i_epik_Tot_Q>  (247) 
1

>  <i_epik_Tot_abs_Q>  (247) 
1

>  <s_epik_Chemistry_Notes>  (247) 
This compound has an ester and may undergo hydrolysis at high or low pH.

>  <s_lp_Force_Field>  (247) 
OPLS3e

>  <r_lp_Energy>  (247) 
89.0233

>  <b_lp_Chiralities_Consistent>  (247) 
1

>  <s_lp_Variant>  (247) 
78:0-2

>  <s_i_glide_gridfile>  (247) 
pfpi4k_grid

>  <i_i_glide_lignum>  (247) 
35

>  <i_i_glide_rotatable_bonds>  (247) 
2

>  <r_i_docking_score>  (247) 
-2.78589

>  <r_i_glide_ligand_efficiency>  (247) 
-0.121125

>  <r_i_glide_ligand_efficiency_sa>  (247) 
-0.344465

>  <r_i_glide_ligand_efficiency_ln>  (247) 
-0.673652

>  <r_i_glide_gscore>  (247) 
-2.78589

>  <r_i_glide_lipo>  (247) 
-0.754351

>  <r_i_glide_hbond>  (247) 
0

>  <r_i_glide_metal>  (247) 
-0

>  <r_i_glide_rewards>  (247) 
-1.37715

>  <r_i_glide_evdw>  (247) 
-16.6789

>  <r_i_glide_ecoul>  (247) 
-0.0562958

>  <r_i_glide_erotb>  (247) 
0.188002

>  <r_i_glide_esite>  (247) 
0

>  <r_i_glide_emodel>  (247) 
-22.4359

>  <r_i_glide_energy>  (247) 
-16.7352

>  <r_i_glide_einternal>  (247) 
0.0269433

>  <r_i_glide_intrahb_reward>  (247) 
-0

>  <i_i_glide_confnum>  (247) 
5

>  <i_i_glide_posenum>  (247) 
4

>  <r_i_glide_eff_state_penalty>  (247) 
0

>  <ligand_id>  (247) 
78

>  <original_smiles>  (247) 
CCN1CCCC2c3cc(C4CC4)c(C)c1c3C(=O)OC2(C)C

>  <smiles>  (247) 
[H]c1c(C2([H])C([H])([H])C2([H])[H])c(C([H])([H])[H])c2c3c1C([H])(C([H])([H])C([H])([H])C([H])([H])[N+]2([H])C([H])([H])C([H])([H])[H])C(C([H])([H])[H])(C([H])([H])[H])OC3=O

$$$$
78:1:2
     RDKit          3D

 51 54  0  0  1  0  0  0  0  0999 V2000
    4.1596  -11.6263    5.3733 C   0  0  0  0  0  0  0  0  0  0  0  0
    3.2492  -11.7576    4.1116 C   0  0  0  0  0  0  0  0  0  0  0  0
    2.4002  -10.5620    3.9226 N   0  0  2  0  0  0  0  0  0  0  0  0
    1.4875  -10.5921    2.7227 C   0  0  0  0  0  0  0  0  0  0  0  0
    0.1032   -9.8502    2.8894 C   0  0  0  0  0  0  0  0  0  0  0  0
   -0.0818   -8.3821    2.3524 C   0  0  0  0  0  0  0  0  0  0  0  0
    0.4163   -7.1615    3.1935 C   0  0  2  0  0  0  0  0  0  0  0  0
    1.9067   -7.2864    3.3329 C   0  0  0  0  0  0  0  0  0  0  0  0
    2.7619   -6.8732    2.3412 C   0  0  0  0  0  0  0  0  0  0  0  0
    3.9594   -7.6554    2.2211 C   0  0  0  0  0  0  0  0  0  0  0  0
    4.9496   -7.2328    1.1598 C   0  0  0  0  0  0  0  0  0  0  0  0
    5.3865   -5.7919    1.0650 C   0  0  0  0  0  0  0  0  0  0  0  0
    4.5505   -6.4092   -0.0434 C   0  0  0  0  0  0  0  0  0  0  0  0
    4.1203   -8.8663    2.9899 C   0  0  0  0  0  0  0  0  0  0  0  0
    5.3179   -9.8180    2.7179 C   0  0  0  0  0  0  0  0  0  0  0  0
    3.1258   -9.2151    3.9793 C   0  0  0  0  0  0  0  0  0  0  0  0
    2.1887   -8.2402    4.3200 C   0  0  0  0  0  0  0  0  0  0  0  0
    1.3335   -8.4097    5.5556 C   0  0  0  0  0  0  0  0  0  0  0  0
    1.6563   -9.1387    6.4769 O   0  0  0  0  0  0  0  0  0  0  0  0
    0.1216   -7.7996    5.5452 O   0  0  0  0  0  0  0  0  0  0  0  0
   -0.2734   -6.8705    4.5405 C   0  0  0  0  0  0  0  0  0  0  0  0
    0.1476   -5.4820    5.0732 C   0  0  0  0  0  0  0  0  0  0  0  0
   -1.7913   -6.9289    4.3660 C   0  0  0  0  0  0  0  0  0  0  0  0
    4.8036  -12.5100    5.4022 H   0  0  0  0  0  0  0  0  0  0  0  0
    3.5390  -11.6351    6.2856 H   0  0  0  0  0  0  0  0  0  0  0  0
    4.8154  -10.7442    5.3910 H   0  0  0  0  0  0  0  0  0  0  0  0
    3.7754  -12.0022    3.1913 H   0  0  0  0  0  0  0  0  0  0  0  0
    2.5751  -12.5911    4.2798 H   0  0  0  0  0  0  0  0  0  0  0  0
    1.9918  -10.2209    1.8269 H   0  0  0  0  0  0  0  0  0  0  0  0
    1.2451  -11.6304    2.5174 H   0  0  0  0  0  0  0  0  0  0  0  0
   -0.5878  -10.4434    2.2826 H   0  0  0  0  0  0  0  0  0  0  0  0
   -0.2846   -9.9508    3.9027 H   0  0  0  0  0  0  0  0  0  0  0  0
    0.3403   -8.2950    1.3478 H   0  0  0  0  0  0  0  0  0  0  0  0
   -1.1412   -8.2488    2.1791 H   0  0  0  0  0  0  0  0  0  0  0  0
    0.2718   -6.2913    2.5448 H   0  0  0  0  0  0  0  0  0  0  0  0
    2.4578   -6.0973    1.6421 H   0  0  0  0  0  0  0  0  0  0  0  0
    5.7170   -7.9715    0.9578 H   0  0  0  0  0  0  0  0  0  0  0  0
    4.9190   -5.0982    1.7704 H   0  0  0  0  0  0  0  0  0  0  0  0
    6.4364   -5.5937    0.8564 H   0  0  0  0  0  0  0  0  0  0  0  0
    5.0333   -6.6489   -0.9825 H   0  0  0  0  0  0  0  0  0  0  0  0
    3.5111   -6.1308   -0.1721 H   0  0  0  0  0  0  0  0  0  0  0  0
    5.6790  -10.4374    3.5436 H   0  0  0  0  0  0  0  0  0  0  0  0
    6.2059   -9.2622    2.4089 H   0  0  0  0  0  0  0  0  0  0  0  0
    5.0594  -10.4649    1.8701 H   0  0  0  0  0  0  0  0  0  0  0  0
   -0.1462   -4.6644    4.4106 H   0  0  0  0  0  0  0  0  0  0  0  0
    1.2305   -5.4256    5.2149 H   0  0  0  0  0  0  0  0  0  0  0  0
   -0.3131   -5.3131    6.0457 H   0  0  0  0  0  0  0  0  0  0  0  0
   -2.1451   -6.2831    3.5649 H   0  0  0  0  0  0  0  0  0  0  0  0
   -2.2704   -6.5545    5.2599 H   0  0  0  0  0  0  0  0  0  0  0  0
   -2.1487   -7.9468    4.1835 H   0  0  0  0  0  0  0  0  0  0  0  0
    1.7564  -10.6454    4.6992 H   0  0  0  0  0  0  0  0  0  0  0  0
  1  2  1  0
  1 24  1  0
  1 25  1  0
  1 26  1  0
  2  3  1  0
  2 27  1  0
  2 28  1  0
  3 16  1  0
  3  4  1  0
  3 51  1  1
  4  5  1  0
  4 29  1  0
  4 30  1  0
  5  6  1  0
  5 31  1  0
  5 32  1  0
  6  7  1  0
  6 33  1  0
  6 34  1  0
  7 21  1  0
  7  8  1  0
  7 35  1  6
  8 17  2  0
  8  9  1  0
  9 10  2  0
  9 36  1  0
 10 11  1  0
 10 14  1  0
 11 13  1  0
 11 12  1  0
 11 37  1  0
 12 13  1  0
 12 38  1  0
 12 39  1  0
 13 40  1  0
 13 41  1  0
 14 15  1  0
 14 16  2  0
 15 42  1  0
 15 43  1  0
 15 44  1  0
 16 17  1  0
 17 18  1  0
 18 19  2  0
 18 20  1  0
 20 21  1  0
 21 22  1  0
 21 23  1  0
 22 45  1  0
 22 46  1  0
 22 47  1  0
 23 48  1  0
 23 49  1  0
 23 50  1  0
M  CHG  1   3   1
M  END
>  <i_m_ct_stereo_status>  (248) 
1

>  <s_m_source_file>  (248) 
/var/tmp/pbs.5076255.sched01/tmpln0nb48r/86bqtw16pk.sdf

>  <i_m_source_file_index>  (248) 
35

>  <i_lp_mmshare_version>  (248) 
48012

>  <i_f3d_flags>  (248) 
0

>  <s_epik_input>  (248) 
W0NIM11DMShbQ0gzXSlPQyg9TyljKGMyW0NASF0xMyljKE4oW0NIMl1bQ0gzXSlbQ0gyXVtDSDJdW0NIMl0zKWMoW0NIM10pYyhbY0hdMilbQ0hdNFtDSDJdW0NIMl00

>  <s_epik_cmdline>  (248) 
J2VwaWtfcHl0aG9uJywgJy1waHQnLCAnMi4wJywgJy1waCcsICc3LjAnLCAnLXRuJywgJzgnLCAnLW1hJywgJzIwMCcsICctaW1hZScsICc8aW5maWxlLm1hZT4nLCAnLW9tYWUnLCAnPG91dGZpbGUubWFlPic=

>  <r_epik_Ionization_Penalty>  (248) 
1.68832

>  <r_epik_Ionization_Penalty_Charging>  (248) 
1.68832

>  <r_epik_Ionization_Penalty_Neutral>  (248) 
0

>  <r_epik_State_Penalty>  (248) 
1.79333

>  <r_epik_Charging_Adjusted_Penalty>  (248) 
3.48165

>  <i_epik_Tot_Q>  (248) 
1

>  <i_epik_Tot_abs_Q>  (248) 
1

>  <s_epik_Chemistry_Notes>  (248) 
This compound has an ester and may undergo hydrolysis at high or low pH.

>  <s_lp_Force_Field>  (248) 
OPLS3e

>  <r_lp_Energy>  (248) 
89.0233

>  <b_lp_Chiralities_Consistent>  (248) 
1

>  <s_lp_Variant>  (248) 
78:0-2

>  <s_i_glide_gridfile>  (248) 
pfpi4k_grid

>  <i_i_glide_lignum>  (248) 
35

>  <i_i_glide_rotatable_bonds>  (248) 
2

>  <r_i_docking_score>  (248) 
-2.77402

>  <r_i_glide_ligand_efficiency>  (248) 
-0.12061

>  <r_i_glide_ligand_efficiency_sa>  (248) 
-0.342997

>  <r_i_glide_ligand_efficiency_ln>  (248) 
-0.670783

>  <r_i_glide_gscore>  (248) 
-2.77402

>  <r_i_glide_lipo>  (248) 
-0.344778

>  <r_i_glide_hbond>  (248) 
0

>  <r_i_glide_metal>  (248) 
-0

>  <r_i_glide_rewards>  (248) 
-1.26517

>  <r_i_glide_evdw>  (248) 
-17.6188

>  <r_i_glide_ecoul>  (248) 
-2.96621

>  <r_i_glide_erotb>  (248) 
0.188002

>  <r_i_glide_esite>  (248) 
-0.0262043

>  <r_i_glide_emodel>  (248) 
-23.2949

>  <r_i_glide_energy>  (248) 
-20.585

>  <r_i_glide_einternal>  (248) 
4.1215

>  <r_i_glide_intrahb_reward>  (248) 
-0

>  <i_i_glide_confnum>  (248) 
4

>  <i_i_glide_posenum>  (248) 
1

>  <r_i_glide_eff_state_penalty>  (248) 
0

>  <ligand_id>  (248) 
78

>  <original_smiles>  (248) 
CCN1CCCC2c3cc(C4CC4)c(C)c1c3C(=O)OC2(C)C

>  <smiles>  (248) 
[H]c1c(C2([H])C([H])([H])C2([H])[H])c(C([H])([H])[H])c2c3c1C([H])(C([H])([H])C([H])([H])C([H])([H])[N+]2([H])C([H])([H])C([H])([H])[H])C(C([H])([H])[H])(C([H])([H])[H])OC3=O

$$$$
79:0:0
     RDKit          3D

 31 34  0  0  1  0  0  0  0  0999 V2000
    3.9356   -2.7051    2.8138 C   0  0  0  0  0  0  0  0  0  0  0  0
    3.9040   -2.5053    1.3009 C   0  0  2  0  0  0  0  0  0  0  0  0
    3.1863   -1.3153    0.8096 C   0  0  0  0  0  0  0  0  0  0  0  0
    3.1921   -2.2391   -0.4014 C   0  0  1  0  0  0  0  0  0  0  0  0
    2.6409   -3.3585    0.3840 C   0  0  2  0  0  0  0  0  0  0  0  0
    2.0126   -3.7038   -1.1568 C   0  0  0  0  0  0  0  0  0  0  0  0
    3.0191   -3.0904   -2.2604 C   0  0  0  0  0  0  0  0  0  0  0  0
    2.8189   -2.8396   -3.5408 C   0  0  0  0  0  0  0  0  0  0  0  0
    3.5952   -1.5971   -3.9307 C   0  0  0  0  0  0  0  0  0  0  0  0
    3.7899   -0.8705   -2.5697 C   0  0  0  0  0  0  0  0  0  0  0  0
    3.9763   -2.0543   -1.6038 C   0  0  1  0  0  0  0  0  0  0  0  0
    5.4528   -2.1503   -0.9303 C   0  0  0  0  0  0  0  0  0  0  0  0
    6.4706   -1.9306   -1.5595 O   0  0  0  0  0  0  0  0  0  0  0  0
    5.4525   -2.4747    0.6678 C   0  0  1  0  0  0  0  0  0  0  0  0
    6.2748   -1.5393    1.3332 O   0  0  0  0  0  0  0  0  0  0  0  0
    4.4627   -1.8842    3.2917 H   0  0  0  0  0  0  0  0  0  0  0  0
    4.4201   -3.6365    3.1006 H   0  0  0  0  0  0  0  0  0  0  0  0
    2.9254   -2.7113    3.2079 H   0  0  0  0  0  0  0  0  0  0  0  0
    2.1934   -1.1580    1.2243 H   0  0  0  0  0  0  0  0  0  0  0  0
    3.7839   -0.4141    0.6839 H   0  0  0  0  0  0  0  0  0  0  0  0
    3.7829   -3.2724   -0.4345 H   0  0  0  0  0  0  0  0  0  0  0  0
    3.0302   -4.3449    0.7294 H   0  0  0  0  0  0  0  0  0  0  0  0
    1.8200   -4.7625   -1.2956 H   0  0  0  0  0  0  0  0  0  0  0  0
    1.0515   -3.2093   -1.2657 H   0  0  0  0  0  0  0  0  0  0  0  0
    2.0223   -3.2450   -4.1435 H   0  0  0  0  0  0  0  0  0  0  0  0
    4.5612   -1.9226   -4.3233 H   0  0  0  0  0  0  0  0  0  0  0  0
    3.0742   -0.9869   -4.6760 H   0  0  0  0  0  0  0  0  0  0  0  0
    4.6024   -0.1445   -2.5568 H   0  0  0  0  0  0  0  0  0  0  0  0
    2.8583   -0.3541   -2.3294 H   0  0  0  0  0  0  0  0  0  0  0  0
    5.9245   -3.4547    0.7832 H   0  0  0  0  0  0  0  0  0  0  0  0
    5.8889   -0.6800    1.2450 H   0  0  0  0  0  0  0  0  0  0  0  0
  2  1  1  1
  1 16  1  0
  1 17  1  0
  1 18  1  0
  2  5  1  0
  2 14  1  0
  2  3  1  0
  3  4  1  0
  3 19  1  0
  3 20  1  0
  4 11  1  0
  4  5  1  0
  4 21  1  6
  5  6  1  0
  5 22  1  1
  6  7  1  0
  6 23  1  0
  6 24  1  0
  7 11  1  0
  7  8  2  0
  8  9  1  0
  8 25  1  0
  9 10  1  0
  9 26  1  0
  9 27  1  0
 11 10  1  6
 10 28  1  0
 10 29  1  0
 11 12  1  0
 12 13  2  0
 12 14  1  0
 14 15  1  0
 14 30  1  6
 15 31  1  0
M  END
>  <i_m_ct_stereo_status>  (249) 
1

>  <s_m_source_file>  (249) 
/var/tmp/pbs.5076255.sched01/tmpln0nb48r/86bqtw16pk.sdf

>  <i_m_source_file_index>  (249) 
36

>  <i_lp_mmshare_version>  (249) 
48012

>  <i_f3d_flags>  (249) 
0

>  <s_epik_input>  (249) 
Tz1DMVtDQEBIXShbT0hdKVtDQEBdKFtDSDNdKShbQ0gyXTIpW0NASF0oW0NASF0yW0NAQF0xMzQpW0NIMl1DMz1bQ0hdW0NIMl1bQ0gyXTQ=

>  <s_epik_cmdline>  (249) 
J2VwaWtfcHl0aG9uJywgJy1waHQnLCAnMi4wJywgJy1waCcsICc3LjAnLCAnLXRuJywgJzgnLCAnLW1hJywgJzIwMCcsICctaW1hZScsICc8aW5maWxlLm1hZT4nLCAnLW9tYWUnLCAnPG91dGZpbGUubWFlPic=

>  <r_lp_tautomer_probability>  (249) 
1

>  <r_epik_Ionization_Penalty>  (249) 
4.25899e-08

>  <r_epik_Ionization_Penalty_Charging>  (249) 
0

>  <r_epik_Ionization_Penalty_Neutral>  (249) 
4.25899e-08

>  <r_epik_State_Penalty>  (249) 
-0

>  <r_epik_Charging_Adjusted_Penalty>  (249) 
0

>  <i_epik_Tot_Q>  (249) 
0

>  <i_epik_Tot_abs_Q>  (249) 
0

>  <s_lp_Force_Field>  (249) 
OPLS3e

>  <r_lp_Energy>  (249) 
339.916

>  <b_lp_Chiralities_Consistent>  (249) 
1

>  <s_lp_Variant>  (249) 
79:0-1

>  <s_i_glide_gridfile>  (249) 
pfpi4k_grid

>  <i_i_glide_lignum>  (249) 
36

>  <i_i_glide_rotatable_bonds>  (249) 
1

>  <r_i_docking_score>  (249) 
-3.84536

>  <r_i_glide_ligand_efficiency>  (249) 
-0.256357

>  <r_i_glide_ligand_efficiency_sa>  (249) 
-0.632231

>  <r_i_glide_ligand_efficiency_ln>  (249) 
-1.03703

>  <r_i_glide_gscore>  (249) 
-3.84536

>  <r_i_glide_lipo>  (249) 
-0.356143

>  <r_i_glide_hbond>  (249) 
-0.16

>  <r_i_glide_metal>  (249) 
-0

>  <r_i_glide_rewards>  (249) 
-2.01638

>  <r_i_glide_evdw>  (249) 
-17.6357

>  <r_i_glide_ecoul>  (249) 
-2.6934

>  <r_i_glide_erotb>  (249) 
0

>  <r_i_glide_esite>  (249) 
-0.0270436

>  <r_i_glide_emodel>  (249) 
-24.0261

>  <r_i_glide_energy>  (249) 
-20.3291

>  <r_i_glide_einternal>  (249) 
1.28738

>  <r_i_glide_intrahb_reward>  (249) 
-0

>  <i_i_glide_confnum>  (249) 
1

>  <i_i_glide_posenum>  (249) 
1

>  <r_i_glide_eff_state_penalty>  (249) 
0

>  <ligand_id>  (249) 
79

>  <original_smiles>  (249) 
CC12CC3C1CC1=CCCC13C(=O)C2O

>  <smiles>  (249) 
[H]OC1([H])C(=O)C23C(=C([H])C([H])([H])C2([H])[H])C([H])([H])C2([H])C3([H])C([H])([H])C12C([H])([H])[H]

$$$$
79:0:1
     RDKit          3D

 31 34  0  0  1  0  0  0  0  0999 V2000
    4.7729   -4.7750    2.0556 C   0  0  0  0  0  0  0  0  0  0  0  0
    4.4685   -4.0187    0.7678 C   0  0  2  0  0  0  0  0  0  0  0  0
    5.2817   -4.3573   -0.4144 C   0  0  0  0  0  0  0  0  0  0  0  0
    4.7778   -2.9580   -0.7424 C   0  0  1  0  0  0  0  0  0  0  0  0
    5.2304   -2.4281    0.5559 C   0  0  2  0  0  0  0  0  0  0  0  0
    5.3516   -1.0404   -0.4223 C   0  0  0  0  0  0  0  0  0  0  0  0
    4.2687   -1.1686   -1.6167 C   0  0  0  0  0  0  0  0  0  0  0  0
    4.1894   -0.5389   -2.7695 C   0  0  0  0  0  0  0  0  0  0  0  0
    3.6427   -1.4743   -3.8253 C   0  0  0  0  0  0  0  0  0  0  0  0
    3.9579   -2.8812   -3.2458 C   0  0  0  0  0  0  0  0  0  0  0  0
    3.7693   -2.6415   -1.7357 C   0  0  1  0  0  0  0  0  0  0  0  0
    2.5227   -3.4567   -1.0788 C   0  0  0  0  0  0  0  0  0  0  0  0
    1.4487   -3.5793   -1.6338 O   0  0  0  0  0  0  0  0  0  0  0  0
    2.8568   -4.1676    0.3504 C   0  0  1  0  0  0  0  0  0  0  0  0
    2.4266   -5.5090    0.3057 O   0  0  0  0  0  0  0  0  0  0  0  0
    4.5725   -5.8327    1.9213 H   0  0  0  0  0  0  0  0  0  0  0  0
    4.1829   -4.4166    2.8974 H   0  0  0  0  0  0  0  0  0  0  0  0
    5.8223   -4.6700    2.3055 H   0  0  0  0  0  0  0  0  0  0  0  0
    6.3568   -4.3912   -0.2456 H   0  0  0  0  0  0  0  0  0  0  0  0
    4.8791   -5.1430   -1.0513 H   0  0  0  0  0  0  0  0  0  0  0  0
    3.9720   -2.3849   -0.0737 H   0  0  0  0  0  0  0  0  0  0  0  0
    4.7328   -2.0421    1.4729 H   0  0  0  0  0  0  0  0  0  0  0  0
    5.2355   -0.1113    0.1322 H   0  0  0  0  0  0  0  0  0  0  0  0
    6.3510   -1.0489   -0.8449 H   0  0  0  0  0  0  0  0  0  0  0  0
    4.6635    0.3963   -3.0047 H   0  0  0  0  0  0  0  0  0  0  0  0
    2.5659   -1.3080   -3.8603 H   0  0  0  0  0  0  0  0  0  0  0  0
    4.0704   -1.2898   -4.8137 H   0  0  0  0  0  0  0  0  0  0  0  0
    3.3334   -3.6790   -3.6517 H   0  0  0  0  0  0  0  0  0  0  0  0
    5.0020   -3.1244   -3.4497 H   0  0  0  0  0  0  0  0  0  0  0  0
    2.2378   -3.6592    1.0942 H   0  0  0  0  0  0  0  0  0  0  0  0
    2.8380   -5.8979   -0.4575 H   0  0  0  0  0  0  0  0  0  0  0  0
  2  1  1  1
  1 16  1  0
  1 17  1  0
  1 18  1  0
  2  5  1  0
  2 14  1  0
  2  3  1  0
  3  4  1  0
  3 19  1  0
  3 20  1  0
  4 11  1  0
  4  5  1  0
  4 21  1  6
  5  6  1  0
  5 22  1  6
  6  7  1  0
  6 23  1  0
  6 24  1  0
  7 11  1  0
  7  8  2  0
  8  9  1  0
  8 25  1  0
  9 10  1  0
  9 26  1  0
  9 27  1  0
 11 10  1  6
 10 28  1  0
 10 29  1  0
 11 12  1  0
 12 13  2  0
 12 14  1  0
 14 15  1  0
 14 30  1  1
 15 31  1  0
M  END
>  <i_m_ct_stereo_status>  (250) 
1

>  <s_m_source_file>  (250) 
/var/tmp/pbs.5076255.sched01/tmpln0nb48r/86bqtw16pk.sdf

>  <i_m_source_file_index>  (250) 
36

>  <i_lp_mmshare_version>  (250) 
48012

>  <i_f3d_flags>  (250) 
0

>  <s_epik_input>  (250) 
Tz1DMVtDQEBIXShbT0hdKVtDQEBdKFtDSDNdKShbQ0gyXTIpW0NASF0oW0NASF0yW0NAQF0xMzQpW0NIMl1DMz1bQ0hdW0NIMl1bQ0gyXTQ=

>  <s_epik_cmdline>  (250) 
J2VwaWtfcHl0aG9uJywgJy1waHQnLCAnMi4wJywgJy1waCcsICc3LjAnLCAnLXRuJywgJzgnLCAnLW1hJywgJzIwMCcsICctaW1hZScsICc8aW5maWxlLm1hZT4nLCAnLW9tYWUnLCAnPG91dGZpbGUubWFlPic=

>  <r_lp_tautomer_probability>  (250) 
1

>  <r_epik_Ionization_Penalty>  (250) 
4.25899e-08

>  <r_epik_Ionization_Penalty_Charging>  (250) 
0

>  <r_epik_Ionization_Penalty_Neutral>  (250) 
4.25899e-08

>  <r_epik_State_Penalty>  (250) 
-0

>  <r_epik_Charging_Adjusted_Penalty>  (250) 
0

>  <i_epik_Tot_Q>  (250) 
0

>  <i_epik_Tot_abs_Q>  (250) 
0

>  <s_lp_Force_Field>  (250) 
OPLS3e

>  <r_lp_Energy>  (250) 
339.916

>  <b_lp_Chiralities_Consistent>  (250) 
1

>  <s_lp_Variant>  (250) 
79:0-1

>  <s_i_glide_gridfile>  (250) 
pfpi4k_grid

>  <i_i_glide_lignum>  (250) 
36

>  <i_i_glide_rotatable_bonds>  (250) 
1

>  <r_i_docking_score>  (250) 
-3.78886

>  <r_i_glide_ligand_efficiency>  (250) 
-0.252591

>  <r_i_glide_ligand_efficiency_sa>  (250) 
-0.622943

>  <r_i_glide_ligand_efficiency_ln>  (250) 
-1.02179

>  <r_i_glide_gscore>  (250) 
-3.78886

>  <r_i_glide_lipo>  (250) 
-0.563473

>  <r_i_glide_hbond>  (250) 
-0.0195682

>  <r_i_glide_metal>  (250) 
-0

>  <r_i_glide_rewards>  (250) 
-2.01638

>  <r_i_glide_evdw>  (250) 
-17.0763

>  <r_i_glide_ecoul>  (250) 
-2.22724

>  <r_i_glide_erotb>  (250) 
0

>  <r_i_glide_esite>  (250) 
-0.00154667

>  <r_i_glide_emodel>  (250) 
-22.8417

>  <r_i_glide_energy>  (250) 
-19.3036

>  <r_i_glide_einternal>  (250) 
1.40308

>  <r_i_glide_intrahb_reward>  (250) 
-0

>  <i_i_glide_confnum>  (250) 
1

>  <i_i_glide_posenum>  (250) 
2

>  <r_i_glide_eff_state_penalty>  (250) 
0

>  <ligand_id>  (250) 
79

>  <original_smiles>  (250) 
CC12CC3C1CC1=CCCC13C(=O)C2O

>  <smiles>  (250) 
[H]OC1([H])C(=O)C23C(=C([H])C([H])([H])C2([H])[H])C([H])([H])C2([H])C3([H])C([H])([H])C12C([H])([H])[H]

$$$$
79:0:2
     RDKit          3D

 31 34  0  0  1  0  0  0  0  0999 V2000
    3.9621   -2.9411    2.5336 C   0  0  0  0  0  0  0  0  0  0  0  0
    3.9328   -2.7070    1.0261 C   0  0  2  0  0  0  0  0  0  0  0  0
    3.3380   -1.4332    0.5755 C   0  0  0  0  0  0  0  0  0  0  0  0
    3.2235   -2.3203   -0.6552 C   0  0  1  0  0  0  0  0  0  0  0  0
    2.5726   -3.3988    0.1145 C   0  0  2  0  0  0  0  0  0  0  0  0
    1.8912   -3.6393   -1.4236 C   0  0  0  0  0  0  0  0  0  0  0  0
    2.9287   -3.0984   -2.5276 C   0  0  0  0  0  0  0  0  0  0  0  0
    2.7416   -2.8021   -3.8012 C   0  0  0  0  0  0  0  0  0  0  0  0
    3.6352   -1.6332   -4.1694 C   0  0  0  0  0  0  0  0  0  0  0  0
    3.9233   -0.9647   -2.7969 C   0  0  0  0  0  0  0  0  0  0  0  0
    4.0014   -2.1858   -1.8675 C   0  0  1  0  0  0  0  0  0  0  0  0
    5.4749   -2.4573   -1.2379 C   0  0  0  0  0  0  0  0  0  0  0  0
    6.4931   -2.3182   -1.8901 O   0  0  0  0  0  0  0  0  0  0  0  0
    5.4657   -2.8228    0.3543 C   0  0  1  0  0  0  0  0  0  0  0  0
    6.3655   -1.9548    1.0121 O   0  0  0  0  0  0  0  0  0  0  0  0
    4.5725   -2.1870    3.0260 H   0  0  0  0  0  0  0  0  0  0  0  0
    4.3485   -3.9250    2.7953 H   0  0  0  0  0  0  0  0  0  0  0  0
    2.9613   -2.8514    2.9429 H   0  0  0  0  0  0  0  0  0  0  0  0
    2.3716   -1.1806    1.0072 H   0  0  0  0  0  0  0  0  0  0  0  0
    4.0257   -0.5976    0.4632 H   0  0  0  0  0  0  0  0  0  0  0  0
    3.7022   -3.4107   -0.7265 H   0  0  0  0  0  0  0  0  0  0  0  0
    2.8632   -4.4309    0.4256 H   0  0  0  0  0  0  0  0  0  0  0  0
    1.5872   -4.6604   -1.5927 H   0  0  0  0  0  0  0  0  0  0  0  0
    0.9699   -3.0662   -1.5089 H   0  0  0  0  0  0  0  0  0  0  0  0
    1.8965   -3.1159   -4.3905 H   0  0  0  0  0  0  0  0  0  0  0  0
    4.5579   -2.0443   -4.5821 H   0  0  0  0  0  0  0  0  0  0  0  0
    3.1703   -0.9550   -4.8937 H   0  0  0  0  0  0  0  0  0  0  0  0
    4.8089   -0.3311   -2.7776 H   0  0  0  0  0  0  0  0  0  0  0  0
    3.0606   -0.3520   -2.5292 H   0  0  0  0  0  0  0  0  0  0  0  0
    5.8398   -3.8481    0.4527 H   0  0  0  0  0  0  0  0  0  0  0  0
    6.4192   -2.2110    1.9220 H   0  0  0  0  0  0  0  0  0  0  0  0
  2  1  1  1
  1 16  1  0
  1 17  1  0
  1 18  1  0
  2  5  1  0
  2 14  1  0
  2  3  1  0
  3  4  1  0
  3 19  1  0
  3 20  1  0
  4 11  1  0
  4  5  1  0
  4 21  1  6
  5  6  1  0
  5 22  1  1
  6  7  1  0
  6 23  1  0
  6 24  1  0
  7 11  1  0
  7  8  2  0
  8  9  1  0
  8 25  1  0
  9 10  1  0
  9 26  1  0
  9 27  1  0
 11 10  1  6
 10 28  1  0
 10 29  1  0
 11 12  1  0
 12 13  2  0
 12 14  1  0
 14 15  1  0
 14 30  1  6
 15 31  1  0
M  END
>  <i_m_ct_stereo_status>  (251) 
1

>  <s_m_source_file>  (251) 
/var/tmp/pbs.5076255.sched01/tmpln0nb48r/86bqtw16pk.sdf

>  <i_m_source_file_index>  (251) 
36

>  <i_lp_mmshare_version>  (251) 
48012

>  <i_f3d_flags>  (251) 
0

>  <s_epik_input>  (251) 
Tz1DMVtDQEBIXShbT0hdKVtDQEBdKFtDSDNdKShbQ0gyXTIpW0NASF0oW0NASF0yW0NAQF0xMzQpW0NIMl1DMz1bQ0hdW0NIMl1bQ0gyXTQ=

>  <s_epik_cmdline>  (251) 
J2VwaWtfcHl0aG9uJywgJy1waHQnLCAnMi4wJywgJy1waCcsICc3LjAnLCAnLXRuJywgJzgnLCAnLW1hJywgJzIwMCcsICctaW1hZScsICc8aW5maWxlLm1hZT4nLCAnLW9tYWUnLCAnPG91dGZpbGUubWFlPic=

>  <r_lp_tautomer_probability>  (251) 
1

>  <r_epik_Ionization_Penalty>  (251) 
4.25899e-08

>  <r_epik_Ionization_Penalty_Charging>  (251) 
0

>  <r_epik_Ionization_Penalty_Neutral>  (251) 
4.25899e-08

>  <r_epik_State_Penalty>  (251) 
-0

>  <r_epik_Charging_Adjusted_Penalty>  (251) 
0

>  <i_epik_Tot_Q>  (251) 
0

>  <i_epik_Tot_abs_Q>  (251) 
0

>  <s_lp_Force_Field>  (251) 
OPLS3e

>  <r_lp_Energy>  (251) 
339.916

>  <b_lp_Chiralities_Consistent>  (251) 
1

>  <s_lp_Variant>  (251) 
79:0-1

>  <s_i_glide_gridfile>  (251) 
pfpi4k_grid

>  <i_i_glide_lignum>  (251) 
36

>  <i_i_glide_rotatable_bonds>  (251) 
1

>  <r_i_docking_score>  (251) 
-3.56128

>  <r_i_glide_ligand_efficiency>  (251) 
-0.237419

>  <r_i_glide_ligand_efficiency_sa>  (251) 
-0.585525

>  <r_i_glide_ligand_efficiency_ln>  (251) 
-0.960418

>  <r_i_glide_gscore>  (251) 
-3.56128

>  <r_i_glide_lipo>  (251) 
-0.234358

>  <r_i_glide_hbond>  (251) 
-0.121752

>  <r_i_glide_metal>  (251) 
-0

>  <r_i_glide_rewards>  (251) 
-2.01638

>  <r_i_glide_evdw>  (251) 
-19.1401

>  <r_i_glide_ecoul>  (251) 
-1.41617

>  <r_i_glide_erotb>  (251) 
0

>  <r_i_glide_esite>  (251) 
-0.0193649

>  <r_i_glide_emodel>  (251) 
-24.629

>  <r_i_glide_energy>  (251) 
-20.5562

>  <r_i_glide_einternal>  (251) 
0.0063955

>  <r_i_glide_intrahb_reward>  (251) 
-0

>  <i_i_glide_confnum>  (251) 
1

>  <i_i_glide_posenum>  (251) 
15

>  <r_i_glide_eff_state_penalty>  (251) 
0

>  <ligand_id>  (251) 
79

>  <original_smiles>  (251) 
CC12CC3C1CC1=CCCC13C(=O)C2O

>  <smiles>  (251) 
[H]OC1([H])C(=O)C23C(=C([H])C([H])([H])C2([H])[H])C([H])([H])C2([H])C3([H])C([H])([H])C12C([H])([H])[H]

$$$$
83:0:0
     RDKit          3D

 87 91  0  0  1  0  0  0  0  0999 V2000
    3.5200   -0.3848    1.0920 C   0  0  0  0  0  0  0  0  0  0  0  0
    4.3215   -1.6991    1.0164 C   0  0  2  0  0  0  0  0  0  0  0  0
    3.7216   -2.7407    0.0489 C   0  0  1  0  0  0  0  0  0  0  0  0
    3.2380   -2.1741   -1.1548 O   0  0  0  0  0  0  0  0  0  0  0  0
    4.7661   -3.8247   -0.2952 C   0  0  1  0  0  0  0  0  0  0  0  0
    5.7001   -3.1704   -1.1402 O   0  0  0  0  0  0  0  0  0  0  0  0
    5.4017   -4.5594    0.9520 C   0  0  1  0  0  0  0  0  0  0  0  0
    6.9027   -4.8227    0.5844 C   0  0  0  0  0  0  0  0  0  0  0  0
    5.4098   -3.6805    2.2629 C   0  0  2  0  0  0  0  0  0  0  0  0
    5.5696   -4.5166    3.5649 C   0  0  0  0  0  0  0  0  0  0  0  0
    4.8763   -5.8880    3.6849 C   0  0  1  0  0  0  0  0  0  0  0  0
    3.5398   -5.6691    4.0769 O   0  0  0  0  0  0  0  0  0  0  0  0
    5.0583   -6.8205    2.4424 C   0  0  2  0  0  0  0  0  0  0  0  0
    6.5727   -7.2481    2.4057 C   0  0  0  0  0  0  0  0  0  0  0  0
    4.6778   -5.9731    1.1686 C   0  0  1  0  0  0  0  0  0  0  0  0
    3.1406   -5.8244    1.0684 C   0  0  0  0  0  0  0  0  0  0  0  0
    2.2970   -6.9673    1.5544 C   0  0  0  0  0  0  0  0  0  0  0  0
    2.7177   -8.0480    2.2266 C   0  0  0  0  0  0  0  0  0  0  0  0
    1.7630   -9.2179    2.6169 C   0  0  2  0  0  0  0  0  0  0  0  0
    0.2294   -8.9268    2.4824 C   0  0  1  0  0  0  0  0  0  0  0  0
   -0.4327  -10.1324    2.1510 O   0  0  0  0  0  0  0  0  0  0  0  0
   -0.4598   -8.2110    3.6802 C   0  0  0  0  0  0  0  0  0  0  0  0
   -0.1653   -6.7071    3.6709 C   0  0  0  0  0  0  0  0  0  0  0  0
   -1.9881   -8.3197    3.5502 C   0  0  0  0  0  0  0  0  0  0  0  0
   -0.0086   -8.8048    5.0343 C   0  0  0  0  0  0  0  0  0  0  0  0
    1.5051   -9.0139    5.1378 C   0  0  0  0  0  0  0  0  0  0  0  0
    2.0685   -9.8933    4.0008 C   0  0  1  0  0  0  0  0  0  0  0  0
    1.4679  -11.3256    4.1141 C   0  0  0  0  0  0  0  0  0  0  0  0
    3.5752  -10.1126    4.1550 C   0  0  0  0  0  0  0  0  0  0  0  0
    4.3991   -8.8528    3.9408 C   0  0  0  0  0  0  0  0  0  0  0  0
    4.2232   -8.2016    2.5323 C   0  0  2  0  0  0  0  0  0  0  0  0
    4.7497   -9.1926    1.4588 C   0  0  0  0  0  0  0  0  0  0  0  0
    4.5613   -2.3518    2.4035 C   0  0  0  0  0  0  0  0  0  0  0  0
    5.3631   -1.3329    3.2621 C   0  0  0  0  0  0  0  0  0  0  0  0
    3.2386   -2.5713    3.1767 C   0  0  0  0  0  0  0  0  0  0  0  0
    2.4843   -0.5170    1.3985 H   0  0  0  0  0  0  0  0  0  0  0  0
    3.5277    0.0751    0.1137 H   0  0  0  0  0  0  0  0  0  0  0  0
    3.9790    0.3616    1.7378 H   0  0  0  0  0  0  0  0  0  0  0  0
    5.2916   -1.3873    0.6233 H   0  0  0  0  0  0  0  0  0  0  0  0
    2.8508   -3.1899    0.5059 H   0  0  0  0  0  0  0  0  0  0  0  0
    2.4323   -1.6948   -0.9635 H   0  0  0  0  0  0  0  0  0  0  0  0
    4.3270   -4.5624   -0.9747 H   0  0  0  0  0  0  0  0  0  0  0  0
    5.2033   -2.9032   -1.9068 H   0  0  0  0  0  0  0  0  0  0  0  0
    7.5231   -5.1032    1.4202 H   0  0  0  0  0  0  0  0  0  0  0  0
    7.4379   -3.9512    0.2038 H   0  0  0  0  0  0  0  0  0  0  0  0
    6.9794   -5.6119   -0.1524 H   0  0  0  0  0  0  0  0  0  0  0  0
    6.3763   -3.2062    2.1776 H   0  0  0  0  0  0  0  0  0  0  0  0
    6.6201   -4.7496    3.6844 H   0  0  0  0  0  0  0  0  0  0  0  0
    5.3336   -3.9264    4.4474 H   0  0  0  0  0  0  0  0  0  0  0  0
    5.3602   -6.3613    4.5441 H   0  0  0  0  0  0  0  0  0  0  0  0
    3.1626   -6.5193    4.2654 H   0  0  0  0  0  0  0  0  0  0  0  0
    6.9112   -7.4588    1.3899 H   0  0  0  0  0  0  0  0  0  0  0  0
    6.7999   -8.1411    2.9809 H   0  0  0  0  0  0  0  0  0  0  0  0
    7.2556   -6.5307    2.8475 H   0  0  0  0  0  0  0  0  0  0  0  0
    4.9498   -6.5788    0.3053 H   0  0  0  0  0  0  0  0  0  0  0  0
    2.8048   -4.9958    1.6699 H   0  0  0  0  0  0  0  0  0  0  0  0
    2.8308   -5.6510    0.0417 H   0  0  0  0  0  0  0  0  0  0  0  0
    1.2681   -6.8266    1.2745 H   0  0  0  0  0  0  0  0  0  0  0  0
    1.9835   -9.9610    1.8566 H   0  0  0  0  0  0  0  0  0  0  0  0
    0.0091   -8.3310    1.5846 H   0  0  0  0  0  0  0  0  0  0  0  0
   -0.2987  -10.2517    1.2210 H   0  0  0  0  0  0  0  0  0  0  0  0
   -0.7087   -6.1824    4.4618 H   0  0  0  0  0  0  0  0  0  0  0  0
   -0.4720   -6.2874    2.7148 H   0  0  0  0  0  0  0  0  0  0  0  0
    0.8895   -6.4994    3.8077 H   0  0  0  0  0  0  0  0  0  0  0  0
   -2.4627   -7.7377    4.3345 H   0  0  0  0  0  0  0  0  0  0  0  0
   -2.3234   -9.3502    3.6581 H   0  0  0  0  0  0  0  0  0  0  0  0
   -2.3735   -7.9640    2.5920 H   0  0  0  0  0  0  0  0  0  0  0  0
   -0.3375   -8.1569    5.8423 H   0  0  0  0  0  0  0  0  0  0  0  0
   -0.5108   -9.7506    5.2010 H   0  0  0  0  0  0  0  0  0  0  0  0
    1.9697   -8.0360    5.1085 H   0  0  0  0  0  0  0  0  0  0  0  0
    1.7568   -9.4433    6.1114 H   0  0  0  0  0  0  0  0  0  0  0  0
    1.7543  -11.7924    5.0621 H   0  0  0  0  0  0  0  0  0  0  0  0
    1.8230  -11.9745    3.3102 H   0  0  0  0  0  0  0  0  0  0  0  0
    0.3786  -11.3686    4.0936 H   0  0  0  0  0  0  0  0  0  0  0  0
    3.7827  -10.5008    5.1516 H   0  0  0  0  0  0  0  0  0  0  0  0
    3.9037  -10.8879    3.4678 H   0  0  0  0  0  0  0  0  0  0  0  0
    4.1436   -8.1606    4.7347 H   0  0  0  0  0  0  0  0  0  0  0  0
    5.4327   -9.1315    4.1289 H   0  0  0  0  0  0  0  0  0  0  0  0
    5.7528   -9.5768    1.6589 H   0  0  0  0  0  0  0  0  0  0  0  0
    4.7524   -8.7560    0.4583 H   0  0  0  0  0  0  0  0  0  0  0  0
    4.1239  -10.0751    1.3848 H   0  0  0  0  0  0  0  0  0  0  0  0
    5.7208   -1.7577    4.2004 H   0  0  0  0  0  0  0  0  0  0  0  0
    4.7626   -0.4648    3.5504 H   0  0  0  0  0  0  0  0  0  0  0  0
    6.2310   -0.9498    2.7239 H   0  0  0  0  0  0  0  0  0  0  0  0
    3.3935   -3.0349    4.1523 H   0  0  0  0  0  0  0  0  0  0  0  0
    2.5287   -3.1882    2.6444 H   0  0  0  0  0  0  0  0  0  0  0  0
    2.7270   -1.6254    3.3847 H   0  0  0  0  0  0  0  0  0  0  0  0
  1  2  1  0
  1 36  1  0
  1 37  1  0
  1 38  1  0
  2 33  1  0
  2  3  1  0
  2 39  1  6
  3  4  1  0
  3  5  1  0
  3 40  1  1
  4 41  1  0
  5  6  1  0
  5  7  1  0
  5 42  1  6
  6 43  1  0
  7 15  1  0
  7  8  1  6
  7  9  1  0
  8 44  1  0
  8 45  1  0
  8 46  1  0
  9 10  1  0
  9 33  1  0
  9 47  1  6
 10 11  1  0
 10 48  1  0
 10 49  1  0
 11 12  1  0
 11 13  1  0
 11 50  1  1
 12 51  1  0
 13 31  1  0
 13 14  1  6
 13 15  1  0
 14 52  1  0
 14 53  1  0
 14 54  1  0
 15 16  1  0
 15 55  1  6
 16 17  1  0
 16 56  1  0
 16 57  1  0
 17 18  2  0
 17 58  1  0
 18 31  1  0
 18 19  1  0
 19 27  1  0
 19 20  1  0
 19 59  1  6
 20 21  1  0
 20 22  1  0
 20 60  1  6
 21 61  1  0
 22 23  1  0
 22 24  1  0
 22 25  1  0
 23 62  1  0
 23 63  1  0
 23 64  1  0
 24 65  1  0
 24 66  1  0
 24 67  1  0
 25 26  1  0
 25 68  1  0
 25 69  1  0
 26 27  1  0
 26 70  1  0
 26 71  1  0
 27 28  1  6
 27 29  1  0
 28 72  1  0
 28 73  1  0
 28 74  1  0
 29 30  1  0
 29 75  1  0
 29 76  1  0
 30 31  1  0
 30 77  1  0
 30 78  1  0
 31 32  1  6
 32 79  1  0
 32 80  1  0
 32 81  1  0
 33 34  1  0
 33 35  1  0
 34 82  1  0
 34 83  1  0
 34 84  1  0
 35 85  1  0
 35 86  1  0
 35 87  1  0
M  END
>  <i_m_ct_stereo_status>  (252) 
1

>  <s_m_source_file>  (252) 
/var/tmp/pbs.5076255.sched01/tmpln0nb48r/86bqtw16pk.sdf

>  <i_m_source_file_index>  (252) 
40

>  <i_lp_mmshare_version>  (252) 
48012

>  <i_f3d_flags>  (252) 
0

>  <s_epik_input>  (252) 
W09IXVtDQEBIXTFbQ0BIXShbT0hdKVtDQEBIXShbQ0gzXSlDKFtDSDNdKShbQ0gzXSlbQ0BIXShbQ0BdMTJbQ0gzXSlbQ0gyXVtDQEBIXShbT0hdKVtDQF0zKFtDSDNdKVtDQEhdMltDSDJdW0NIXT1DNFtDQEhdNVtDQEBdKFtDSDNdKShbQ0gyXVtDSDJdW0NAXTM0W0NIM10pW0NIMl1bQ0gyXUMoW0NIM10pKFtDSDNdKVtDQEBIXTVbT0hd

>  <s_epik_cmdline>  (252) 
J2VwaWtfcHl0aG9uJywgJy1waHQnLCAnMi4wJywgJy1waCcsICc3LjAnLCAnLXRuJywgJzgnLCAnLW1hJywgJzIwMCcsICctaW1hZScsICc8aW5maWxlLm1hZT4nLCAnLW9tYWUnLCAnPG91dGZpbGUubWFlPic=

>  <r_lp_tautomer_probability>  (252) 
1

>  <r_epik_Ionization_Penalty>  (252) 
4.84297e-06

>  <r_epik_Ionization_Penalty_Charging>  (252) 
0

>  <r_epik_Ionization_Penalty_Neutral>  (252) 
4.84297e-06

>  <r_epik_State_Penalty>  (252) 
-0

>  <r_epik_Charging_Adjusted_Penalty>  (252) 
0

>  <i_epik_Tot_Q>  (252) 
0

>  <i_epik_Tot_abs_Q>  (252) 
0

>  <s_lp_Force_Field>  (252) 
OPLS3e

>  <r_lp_Energy>  (252) 
119.214

>  <b_lp_Chiralities_Consistent>  (252) 
1

>  <s_lp_Variant>  (252) 
83:0-1

>  <s_i_glide_gridfile>  (252) 
pfpi4k_grid

>  <i_i_glide_lignum>  (252) 
40

>  <i_i_glide_rotatable_bonds>  (252) 
4

>  <r_i_docking_score>  (252) 
-3.74673

>  <r_i_glide_ligand_efficiency>  (252) 
-0.107049

>  <r_i_glide_ligand_efficiency_sa>  (252) 
-0.350166

>  <r_i_glide_ligand_efficiency_ln>  (252) 
-0.822491

>  <r_i_glide_gscore>  (252) 
-3.74673

>  <r_i_glide_lipo>  (252) 
-0.593947

>  <r_i_glide_hbond>  (252) 
-0.304

>  <r_i_glide_metal>  (252) 
-0

>  <r_i_glide_rewards>  (252) 
-0.0767579

>  <r_i_glide_evdw>  (252) 
-29.0874

>  <r_i_glide_ecoul>  (252) 
-8.78437

>  <r_i_glide_erotb>  (252) 
0

>  <r_i_glide_esite>  (252) 
0

>  <r_i_glide_emodel>  (252) 
-45.332

>  <r_i_glide_energy>  (252) 
-37.8718

>  <r_i_glide_einternal>  (252) 
1.58261

>  <r_i_glide_intrahb_reward>  (252) 
-0

>  <i_i_glide_confnum>  (252) 
2

>  <i_i_glide_posenum>  (252) 
2

>  <r_i_glide_eff_state_penalty>  (252) 
0

>  <ligand_id>  (252) 
83

>  <original_smiles>  (252) 
CC1C(O)C(O)C2(C)C(CC(O)C3(C)C2CC=C2C4C(O)C(C)(C)CCC4(C)CCC23C)C1(C)C

>  <smiles>  (252) 
[H]OC1([H])C([H])(O[H])C2(C([H])([H])[H])C([H])(C([H])([H])C([H])(O[H])C3(C([H])([H])[H])C2([H])C([H])([H])C([H])=C2C4([H])C([H])(O[H])C(C([H])([H])[H])(C([H])([H])[H])C([H])([H])C([H])([H])C4(C([H])([H])[H])C([H])([H])C([H])([H])C23C([H])([H])[H])C(C([H])([H])[H])(C([H])([H])[H])C1([H])C([H])([H])[H]

$$$$
83:0:1
     RDKit          3D

 87 91  0  0  1  0  0  0  0  0999 V2000
    3.6947   -2.6305   -2.3601 C   0  0  0  0  0  0  0  0  0  0  0  0
    3.9297   -3.1159   -0.9075 C   0  0  2  0  0  0  0  0  0  0  0  0
    2.6419   -3.6059   -0.2269 C   0  0  1  0  0  0  0  0  0  0  0  0
    1.7606   -4.2639   -1.1129 O   0  0  0  0  0  0  0  0  0  0  0  0
    2.9740   -4.4954    0.9937 C   0  0  1  0  0  0  0  0  0  0  0  0
    3.4898   -5.7144    0.4723 O   0  0  0  0  0  0  0  0  0  0  0  0
    3.8978   -3.8085    2.0897 C   0  0  1  0  0  0  0  0  0  0  0  0
    4.8113   -4.9502    2.6632 C   0  0  0  0  0  0  0  0  0  0  0  0
    4.8666   -2.7180    1.4732 C   0  0  2  0  0  0  0  0  0  0  0  0
    5.4135   -1.7244    2.5345 C   0  0  0  0  0  0  0  0  0  0  0  0
    4.5144   -1.2416    3.6984 C   0  0  1  0  0  0  0  0  0  0  0  0
    3.7223   -0.1736    3.2315 O   0  0  0  0  0  0  0  0  0  0  0  0
    3.7225   -2.3811    4.4299 C   0  0  2  0  0  0  0  0  0  0  0  0
    4.7801   -3.2478    5.1981 C   0  0  0  0  0  0  0  0  0  0  0  0
    3.0135   -3.2242    3.2970 C   0  0  1  0  0  0  0  0  0  0  0  0
    1.7823   -2.4617    2.7699 C   0  0  0  0  0  0  0  0  0  0  0  0
    1.0071   -1.6071    3.7303 C   0  0  0  0  0  0  0  0  0  0  0  0
    1.3582   -1.2905    4.9824 C   0  0  0  0  0  0  0  0  0  0  0  0
    0.4220   -0.4677    5.9307 C   0  0  2  0  0  0  0  0  0  0  0  0
   -0.8024    0.2441    5.2420 C   0  0  1  0  0  0  0  0  0  0  0  0
   -1.8671    0.3205    6.1709 O   0  0  0  0  0  0  0  0  0  0  0  0
   -0.5196    1.6561    4.6082 C   0  0  0  0  0  0  0  0  0  0  0  0
    0.1739    1.5023    3.2360 C   0  0  0  0  0  0  0  0  0  0  0  0
   -1.8346    2.4347    4.3513 C   0  0  0  0  0  0  0  0  0  0  0  0
    0.3714    2.5313    5.5246 C   0  0  0  0  0  0  0  0  0  0  0  0
    1.5859    1.7832    6.0942 C   0  0  0  0  0  0  0  0  0  0  0  0
    1.1802    0.5163    6.8852 C   0  0  1  0  0  0  0  0  0  0  0  0
    0.3370    0.9254    8.1230 C   0  0  0  0  0  0  0  0  0  0  0  0
    2.4133   -0.1737    7.4936 C   0  0  0  0  0  0  0  0  0  0  0  0
    3.3444   -0.7906    6.4575 C   0  0  0  0  0  0  0  0  0  0  0  0
    2.6727   -1.8688    5.5564 C   0  0  2  0  0  0  0  0  0  0  0  0
    2.2272   -3.0687    6.4494 C   0  0  0  0  0  0  0  0  0  0  0  0
    4.6484   -2.0999    0.0329 C   0  0  0  0  0  0  0  0  0  0  0  0
    6.0426   -1.8128   -0.5951 C   0  0  0  0  0  0  0  0  0  0  0  0
    3.9178   -0.7344    0.0724 C   0  0  0  0  0  0  0  0  0  0  0  0
    2.9962   -1.7964   -2.4133 H   0  0  0  0  0  0  0  0  0  0  0  0
    3.2876   -3.4332   -2.9750 H   0  0  0  0  0  0  0  0  0  0  0  0
    4.6218   -2.3395   -2.8516 H   0  0  0  0  0  0  0  0  0  0  0  0
    4.5917   -3.9739   -1.0186 H   0  0  0  0  0  0  0  0  0  0  0  0
    2.0626   -2.7507    0.0896 H   0  0  0  0  0  0  0  0  0  0  0  0
    2.2482   -4.8387   -1.7005 H   0  0  0  0  0  0  0  0  0  0  0  0
    2.0472   -4.8170    1.4680 H   0  0  0  0  0  0  0  0  0  0  0  0
    3.3823   -5.7213   -0.4662 H   0  0  0  0  0  0  0  0  0  0  0  0
    5.6537   -4.5938    3.2394 H   0  0  0  0  0  0  0  0  0  0  0  0
    5.3296   -5.5284    1.8991 H   0  0  0  0  0  0  0  0  0  0  0  0
    4.2473   -5.6592    3.2703 H   0  0  0  0  0  0  0  0  0  0  0  0
    5.7486   -3.3168    1.2465 H   0  0  0  0  0  0  0  0  0  0  0  0
    6.2208   -2.2654    2.9897 H   0  0  0  0  0  0  0  0  0  0  0  0
    5.9026   -0.8642    2.0796 H   0  0  0  0  0  0  0  0  0  0  0  0
    5.1974   -0.7871    4.4175 H   0  0  0  0  0  0  0  0  0  0  0  0
    3.1392   -0.5058    2.5626 H   0  0  0  0  0  0  0  0  0  0  0  0
    4.4558   -4.2846    5.2992 H   0  0  0  0  0  0  0  0  0  0  0  0
    4.9876   -2.9028    6.2053 H   0  0  0  0  0  0  0  0  0  0  0  0
    5.7713   -3.2453    4.7595 H   0  0  0  0  0  0  0  0  0  0  0  0
    2.5948   -4.1002    3.7931 H   0  0  0  0  0  0  0  0  0  0  0  0
    2.0419   -1.7884    1.9669 H   0  0  0  0  0  0  0  0  0  0  0  0
    1.0459   -3.1765    2.4247 H   0  0  0  0  0  0  0  0  0  0  0  0
    0.0846   -1.2769    3.2893 H   0  0  0  0  0  0  0  0  0  0  0  0
   -0.0110   -1.2372    6.5655 H   0  0  0  0  0  0  0  0  0  0  0  0
   -1.2622   -0.3864    4.4865 H   0  0  0  0  0  0  0  0  0  0  0  0
   -2.5754    0.7843    5.7428 H   0  0  0  0  0  0  0  0  0  0  0  0
    0.3266    2.4694    2.7507 H   0  0  0  0  0  0  0  0  0  0  0  0
   -0.4209    0.8922    2.5520 H   0  0  0  0  0  0  0  0  0  0  0  0
    1.1572    1.0423    3.3285 H   0  0  0  0  0  0  0  0  0  0  0  0
   -1.6379    3.3722    3.8281 H   0  0  0  0  0  0  0  0  0  0  0  0
   -2.3399    2.7006    5.2811 H   0  0  0  0  0  0  0  0  0  0  0  0
   -2.5328    1.8601    3.7406 H   0  0  0  0  0  0  0  0  0  0  0  0
    0.7255    3.3978    4.9658 H   0  0  0  0  0  0  0  0  0  0  0  0
   -0.2188    2.9484    6.3400 H   0  0  0  0  0  0  0  0  0  0  0  0
    2.2437    1.5201    5.2670 H   0  0  0  0  0  0  0  0  0  0  0  0
    2.1690    2.4573    6.7255 H   0  0  0  0  0  0  0  0  0  0  0  0
    0.9158    1.5608    8.7956 H   0  0  0  0  0  0  0  0  0  0  0  0
    0.0165    0.0524    8.6907 H   0  0  0  0  0  0  0  0  0  0  0  0
   -0.5590    1.4912    7.8864 H   0  0  0  0  0  0  0  0  0  0  0  0
    2.9825    0.5430    8.0887 H   0  0  0  0  0  0  0  0  0  0  0  0
    2.0979   -0.9456    8.1966 H   0  0  0  0  0  0  0  0  0  0  0  0
    3.7520    0.0210    5.8608 H   0  0  0  0  0  0  0  0  0  0  0  0
    4.1907   -1.1924    7.0077 H   0  0  0  0  0  0  0  0  0  0  0  0
    3.0247   -3.4525    7.0850 H   0  0  0  0  0  0  0  0  0  0  0  0
    1.8515   -3.9002    5.8532 H   0  0  0  0  0  0  0  0  0  0  0  0
    1.4218   -2.8036    7.1302 H   0  0  0  0  0  0  0  0  0  0  0  0
    6.6884   -1.2307    0.0653 H   0  0  0  0  0  0  0  0  0  0  0  0
    5.9524   -1.2379   -1.5198 H   0  0  0  0  0  0  0  0  0  0  0  0
    6.5726   -2.7363   -0.8414 H   0  0  0  0  0  0  0  0  0  0  0  0
    4.4069   -0.0005    0.7123 H   0  0  0  0  0  0  0  0  0  0  0  0
    2.8779   -0.7927    0.3754 H   0  0  0  0  0  0  0  0  0  0  0  0
    3.9139   -0.2869   -0.9212 H   0  0  0  0  0  0  0  0  0  0  0  0
  1  2  1  0
  1 36  1  0
  1 37  1  0
  1 38  1  0
  2 33  1  0
  2  3  1  0
  2 39  1  6
  3  4  1  0
  3  5  1  0
  3 40  1  1
  4 41  1  0
  5  6  1  0
  5  7  1  0
  5 42  1  1
  6 43  1  0
  7 15  1  0
  7  8  1  1
  7  9  1  0
  8 44  1  0
  8 45  1  0
  8 46  1  0
  9 10  1  0
  9 33  1  0
  9 47  1  6
 10 11  1  0
 10 48  1  0
 10 49  1  0
 11 12  1  0
 11 13  1  0
 11 50  1  1
 12 51  1  0
 13 31  1  0
 13 14  1  1
 13 15  1  0
 14 52  1  0
 14 53  1  0
 14 54  1  0
 15 16  1  0
 15 55  1  1
 16 17  1  0
 16 56  1  0
 16 57  1  0
 17 18  2  0
 17 58  1  0
 18 31  1  0
 18 19  1  0
 19 27  1  0
 19 20  1  0
 19 59  1  1
 20 21  1  0
 20 22  1  0
 20 60  1  6
 21 61  1  0
 22 23  1  0
 22 24  1  0
 22 25  1  0
 23 62  1  0
 23 63  1  0
 23 64  1  0
 24 65  1  0
 24 66  1  0
 24 67  1  0
 25 26  1  0
 25 68  1  0
 25 69  1  0
 26 27  1  0
 26 70  1  0
 26 71  1  0
 27 28  1  1
 27 29  1  0
 28 72  1  0
 28 73  1  0
 28 74  1  0
 29 30  1  0
 29 75  1  0
 29 76  1  0
 30 31  1  0
 30 77  1  0
 30 78  1  0
 31 32  1  1
 32 79  1  0
 32 80  1  0
 32 81  1  0
 33 34  1  0
 33 35  1  0
 34 82  1  0
 34 83  1  0
 34 84  1  0
 35 85  1  0
 35 86  1  0
 35 87  1  0
M  END
>  <i_m_ct_stereo_status>  (253) 
1

>  <s_m_source_file>  (253) 
/var/tmp/pbs.5076255.sched01/tmpln0nb48r/86bqtw16pk.sdf

>  <i_m_source_file_index>  (253) 
40

>  <i_lp_mmshare_version>  (253) 
48012

>  <i_f3d_flags>  (253) 
0

>  <s_epik_input>  (253) 
W09IXVtDQEBIXTFbQ0BIXShbT0hdKVtDQEBIXShbQ0gzXSlDKFtDSDNdKShbQ0gzXSlbQ0BIXShbQ0BdMTJbQ0gzXSlbQ0gyXVtDQEBIXShbT0hdKVtDQF0zKFtDSDNdKVtDQEhdMltDSDJdW0NIXT1DNFtDQEhdNVtDQEBdKFtDSDNdKShbQ0gyXVtDSDJdW0NAXTM0W0NIM10pW0NIMl1bQ0gyXUMoW0NIM10pKFtDSDNdKVtDQEBIXTVbT0hd

>  <s_epik_cmdline>  (253) 
J2VwaWtfcHl0aG9uJywgJy1waHQnLCAnMi4wJywgJy1waCcsICc3LjAnLCAnLXRuJywgJzgnLCAnLW1hJywgJzIwMCcsICctaW1hZScsICc8aW5maWxlLm1hZT4nLCAnLW9tYWUnLCAnPG91dGZpbGUubWFlPic=

>  <r_lp_tautomer_probability>  (253) 
1

>  <r_epik_Ionization_Penalty>  (253) 
4.84297e-06

>  <r_epik_Ionization_Penalty_Charging>  (253) 
0

>  <r_epik_Ionization_Penalty_Neutral>  (253) 
4.84297e-06

>  <r_epik_State_Penalty>  (253) 
-0

>  <r_epik_Charging_Adjusted_Penalty>  (253) 
0

>  <i_epik_Tot_Q>  (253) 
0

>  <i_epik_Tot_abs_Q>  (253) 
0

>  <s_lp_Force_Field>  (253) 
OPLS3e

>  <r_lp_Energy>  (253) 
119.214

>  <b_lp_Chiralities_Consistent>  (253) 
1

>  <s_lp_Variant>  (253) 
83:0-1

>  <s_i_glide_gridfile>  (253) 
pfpi4k_grid

>  <i_i_glide_lignum>  (253) 
40

>  <i_i_glide_rotatable_bonds>  (253) 
4

>  <r_i_docking_score>  (253) 
-3.46623

>  <r_i_glide_ligand_efficiency>  (253) 
-0.0990352

>  <r_i_glide_ligand_efficiency_sa>  (253) 
-0.323951

>  <r_i_glide_ligand_efficiency_ln>  (253) 
-0.760915

>  <r_i_glide_gscore>  (253) 
-3.46623

>  <r_i_glide_lipo>  (253) 
-0.17759

>  <r_i_glide_hbond>  (253) 
-0.155308

>  <r_i_glide_metal>  (253) 
-0

>  <r_i_glide_rewards>  (253) 
-0.0767579

>  <r_i_glide_evdw>  (253) 
-28.5509

>  <r_i_glide_ecoul>  (253) 
-10.8602

>  <r_i_glide_erotb>  (253) 
0

>  <r_i_glide_esite>  (253) 
0

>  <r_i_glide_emodel>  (253) 
-45.7514

>  <r_i_glide_energy>  (253) 
-39.4111

>  <r_i_glide_einternal>  (253) 
2.08522

>  <r_i_glide_intrahb_reward>  (253) 
-0

>  <i_i_glide_confnum>  (253) 
1

>  <i_i_glide_posenum>  (253) 
30

>  <r_i_glide_eff_state_penalty>  (253) 
0

>  <ligand_id>  (253) 
83

>  <original_smiles>  (253) 
CC1C(O)C(O)C2(C)C(CC(O)C3(C)C2CC=C2C4C(O)C(C)(C)CCC4(C)CCC23C)C1(C)C

>  <smiles>  (253) 
[H]OC1([H])C([H])(O[H])C2(C([H])([H])[H])C([H])(C([H])([H])C([H])(O[H])C3(C([H])([H])[H])C2([H])C([H])([H])C([H])=C2C4([H])C([H])(O[H])C(C([H])([H])[H])(C([H])([H])[H])C([H])([H])C([H])([H])C4(C([H])([H])[H])C([H])([H])C([H])([H])C23C([H])([H])[H])C(C([H])([H])[H])(C([H])([H])[H])C1([H])C([H])([H])[H]

$$$$
83:0:2
     RDKit          3D

 87 91  0  0  1  0  0  0  0  0999 V2000
    3.6719   -2.9629   -2.1942 C   0  0  0  0  0  0  0  0  0  0  0  0
    3.9576   -3.2834   -0.7056 C   0  0  2  0  0  0  0  0  0  0  0  0
    2.7045   -3.7608    0.0559 C   0  0  1  0  0  0  0  0  0  0  0  0
    1.8496   -4.5950   -0.7163 O   0  0  0  0  0  0  0  0  0  0  0  0
    3.1152   -4.4724    1.3672 C   0  0  1  0  0  0  0  0  0  0  0  0
    3.6445   -5.7337    0.9750 O   0  0  0  0  0  0  0  0  0  0  0  0
    4.0385   -3.6186    2.3431 C   0  0  1  0  0  0  0  0  0  0  0  0
    5.0118   -4.6448    3.0178 C   0  0  0  0  0  0  0  0  0  0  0  0
    4.9437   -2.5648    1.5812 C   0  0  2  0  0  0  0  0  0  0  0  0
    5.4794   -1.4240    2.4946 C   0  0  0  0  0  0  0  0  0  0  0  0
    4.5795   -0.8513    3.6283 C   0  0  1  0  0  0  0  0  0  0  0  0
    3.7061    0.1131    3.0725 O   0  0  0  0  0  0  0  0  0  0  0  0
    3.8481   -1.9327    4.5031 C   0  0  2  0  0  0  0  0  0  0  0  0
    4.9580   -2.6562    5.3429 C   0  0  0  0  0  0  0  0  0  0  0  0
    3.1501   -2.9377    3.4968 C   0  0  1  0  0  0  0  0  0  0  0  0
    1.8632   -2.3031    2.9163 C   0  0  0  0  0  0  0  0  0  0  0  0
    1.0725   -1.3817    3.8015 C   0  0  0  0  0  0  0  0  0  0  0  0
    1.4487   -0.8981    4.9996 C   0  0  0  0  0  0  0  0  0  0  0  0
    0.5066   -0.0024    5.8721 C   0  0  2  0  0  0  0  0  0  0  0  0
   -0.7654    0.5688    5.1438 C   0  0  1  0  0  0  0  0  0  0  0  0
   -1.8028    0.7016    6.0979 O   0  0  0  0  0  0  0  0  0  0  0  0
   -0.5616    1.9095    4.3465 C   0  0  0  0  0  0  0  0  0  0  0  0
    0.1013    1.6261    2.9811 C   0  0  0  0  0  0  0  0  0  0  0  0
   -1.9144    2.5963    4.0389 C   0  0  0  0  0  0  0  0  0  0  0  0
    0.3076    2.9240    5.1273 C   0  0  0  0  0  0  0  0  0  0  0  0
    1.5658    2.3023    5.7446 C   0  0  0  0  0  0  0  0  0  0  0  0
    1.2428    1.1201    6.6856 C   0  0  1  0  0  0  0  0  0  0  0  0
    0.4082    1.6348    7.8915 C   0  0  0  0  0  0  0  0  0  0  0  0
    2.5158    0.5609    7.3343 C   0  0  0  0  0  0  0  0  0  0  0  0
    3.4467   -0.1305    6.3501 C   0  0  0  0  0  0  0  0  0  0  0  0
    2.8041   -1.3380    5.5953 C   0  0  2  0  0  0  0  0  0  0  0  0
    2.4416   -2.4412    6.6385 C   0  0  0  0  0  0  0  0  0  0  0  0
    4.6637   -2.1372    0.0870 C   0  0  0  0  0  0  0  0  0  0  0  0
    6.0272   -1.8596   -0.6077 C   0  0  0  0  0  0  0  0  0  0  0  0
    3.8818   -0.8100   -0.0145 C   0  0  0  0  0  0  0  0  0  0  0  0
    2.9474   -2.1588   -2.3171 H   0  0  0  0  0  0  0  0  0  0  0  0
    3.2812   -3.8399   -2.7108 H   0  0  0  0  0  0  0  0  0  0  0  0
    4.5751   -2.6919   -2.7342 H   0  0  0  0  0  0  0  0  0  0  0  0
    4.6589   -4.1158   -0.7473 H   0  0  0  0  0  0  0  0  0  0  0  0
    2.0923   -2.8978    0.2824 H   0  0  0  0  0  0  0  0  0  0  0  0
    2.3777   -5.1292   -1.3100 H   0  0  0  0  0  0  0  0  0  0  0  0
    2.2214   -4.7672    1.9142 H   0  0  0  0  0  0  0  0  0  0  0  0
    4.3678   -5.5904    0.3855 H   0  0  0  0  0  0  0  0  0  0  0  0
    5.8398   -4.1838    3.5307 H   0  0  0  0  0  0  0  0  0  0  0  0
    5.5367   -5.2828    2.3077 H   0  0  0  0  0  0  0  0  0  0  0  0
    4.4971   -5.3000    3.7208 H   0  0  0  0  0  0  0  0  0  0  0  0
    5.8485   -3.1462    1.4047 H   0  0  0  0  0  0  0  0  0  0  0  0
    6.3649   -1.8411    2.9414 H   0  0  0  0  0  0  0  0  0  0  0  0
    5.8892   -0.5931    1.9242 H   0  0  0  0  0  0  0  0  0  0  0  0
    5.2520   -0.2876    4.2768 H   0  0  0  0  0  0  0  0  0  0  0  0
    4.2076    0.8368    2.7301 H   0  0  0  0  0  0  0  0  0  0  0  0
    4.6862   -3.6864    5.5796 H   0  0  0  0  0  0  0  0  0  0  0  0
    5.1811   -2.1839    6.2961 H   0  0  0  0  0  0  0  0  0  0  0  0
    5.9303   -2.6619    4.8686 H   0  0  0  0  0  0  0  0  0  0  0  0
    2.7912   -3.7641    4.1104 H   0  0  0  0  0  0  0  0  0  0  0  0
    2.0944   -1.6907    2.0603 H   0  0  0  0  0  0  0  0  0  0  0  0
    1.1599   -3.0713    2.6059 H   0  0  0  0  0  0  0  0  0  0  0  0
    0.1306   -1.1361    3.3532 H   0  0  0  0  0  0  0  0  0  0  0  0
    0.1260   -0.7096    6.6062 H   0  0  0  0  0  0  0  0  0  0  0  0
   -1.2168   -0.1648    4.4810 H   0  0  0  0  0  0  0  0  0  0  0  0
   -2.5357    1.1050    5.6560 H   0  0  0  0  0  0  0  0  0  0  0  0
    0.1968    2.5360    2.3858 H   0  0  0  0  0  0  0  0  0  0  0  0
   -0.4821    0.9172    2.3886 H   0  0  0  0  0  0  0  0  0  0  0  0
    1.1061    1.2198    3.0941 H   0  0  0  0  0  0  0  0  0  0  0  0
   -1.7741    3.4748    3.4042 H   0  0  0  0  0  0  0  0  0  0  0  0
   -2.4193    2.9430    4.9431 H   0  0  0  0  0  0  0  0  0  0  0  0
   -2.5872    1.9196    3.5122 H   0  0  0  0  0  0  0  0  0  0  0  0
    0.6058    3.7310    4.4559 H   0  0  0  0  0  0  0  0  0  0  0  0
   -0.2855    3.4102    5.9018 H   0  0  0  0  0  0  0  0  0  0  0  0
    2.2130    1.9719    4.9355 H   0  0  0  0  0  0  0  0  0  0  0  0
    2.1321    3.0689    6.2767 H   0  0  0  0  0  0  0  0  0  0  0  0
    0.9711    2.3702    8.4687 H   0  0  0  0  0  0  0  0  0  0  0  0
    0.1402    0.8221    8.5687 H   0  0  0  0  0  0  0  0  0  0  0  0
   -0.5210    2.1305    7.6183 H   0  0  0  0  0  0  0  0  0  0  0  0
    3.0641    1.3655    7.8242 H   0  0  0  0  0  0  0  0  0  0  0  0
    2.2510   -0.1334    8.1312 H   0  0  0  0  0  0  0  0  0  0  0  0
    3.8049    0.6207    5.6533 H   0  0  0  0  0  0  0  0  0  0  0  0
    4.3226   -0.4297    6.9185 H   0  0  0  0  0  0  0  0  0  0  0  0
    3.2698   -2.7096    7.2942 H   0  0  0  0  0  0  0  0  0  0  0  0
    2.0924   -3.3532    6.1563 H   0  0  0  0  0  0  0  0  0  0  0  0
    1.6395   -2.1335    7.3076 H   0  0  0  0  0  0  0  0  0  0  0  0
    6.6573   -1.1750   -0.0366 H   0  0  0  0  0  0  0  0  0  0  0  0
    5.8936   -1.3959   -1.5868 H   0  0  0  0  0  0  0  0  0  0  0  0
    6.5961   -2.7769   -0.7613 H   0  0  0  0  0  0  0  0  0  0  0  0
    4.3468    0.0159    0.5225 H   0  0  0  0  0  0  0  0  0  0  0  0
    2.8527   -0.8732    0.3244 H   0  0  0  0  0  0  0  0  0  0  0  0
    3.8390   -0.4901   -1.0535 H   0  0  0  0  0  0  0  0  0  0  0  0
  1  2  1  0
  1 36  1  0
  1 37  1  0
  1 38  1  0
  2 33  1  0
  2  3  1  0
  2 39  1  6
  3  4  1  0
  3  5  1  0
  3 40  1  1
  4 41  1  0
  5  6  1  0
  5  7  1  0
  5 42  1  1
  6 43  1  0
  7 15  1  0
  7  8  1  1
  7  9  1  0
  8 44  1  0
  8 45  1  0
  8 46  1  0
  9 10  1  0
  9 33  1  0
  9 47  1  6
 10 11  1  0
 10 48  1  0
 10 49  1  0
 11 12  1  0
 11 13  1  0
 11 50  1  1
 12 51  1  0
 13 31  1  0
 13 14  1  1
 13 15  1  0
 14 52  1  0
 14 53  1  0
 14 54  1  0
 15 16  1  0
 15 55  1  1
 16 17  1  0
 16 56  1  0
 16 57  1  0
 17 18  2  0
 17 58  1  0
 18 31  1  0
 18 19  1  0
 19 27  1  0
 19 20  1  0
 19 59  1  1
 20 21  1  0
 20 22  1  0
 20 60  1  6
 21 61  1  0
 22 23  1  0
 22 24  1  0
 22 25  1  0
 23 62  1  0
 23 63  1  0
 23 64  1  0
 24 65  1  0
 24 66  1  0
 24 67  1  0
 25 26  1  0
 25 68  1  0
 25 69  1  0
 26 27  1  0
 26 70  1  0
 26 71  1  0
 27 28  1  1
 27 29  1  0
 28 72  1  0
 28 73  1  0
 28 74  1  0
 29 30  1  0
 29 75  1  0
 29 76  1  0
 30 31  1  0
 30 77  1  0
 30 78  1  0
 31 32  1  1
 32 79  1  0
 32 80  1  0
 32 81  1  0
 33 34  1  0
 33 35  1  0
 34 82  1  0
 34 83  1  0
 34 84  1  0
 35 85  1  0
 35 86  1  0
 35 87  1  0
M  END
>  <i_m_ct_stereo_status>  (254) 
1

>  <s_m_source_file>  (254) 
/var/tmp/pbs.5076255.sched01/tmpln0nb48r/86bqtw16pk.sdf

>  <i_m_source_file_index>  (254) 
40

>  <i_lp_mmshare_version>  (254) 
48012

>  <i_f3d_flags>  (254) 
0

>  <s_epik_input>  (254) 
W09IXVtDQEBIXTFbQ0BIXShbT0hdKVtDQEBIXShbQ0gzXSlDKFtDSDNdKShbQ0gzXSlbQ0BIXShbQ0BdMTJbQ0gzXSlbQ0gyXVtDQEBIXShbT0hdKVtDQF0zKFtDSDNdKVtDQEhdMltDSDJdW0NIXT1DNFtDQEhdNVtDQEBdKFtDSDNdKShbQ0gyXVtDSDJdW0NAXTM0W0NIM10pW0NIMl1bQ0gyXUMoW0NIM10pKFtDSDNdKVtDQEBIXTVbT0hd

>  <s_epik_cmdline>  (254) 
J2VwaWtfcHl0aG9uJywgJy1waHQnLCAnMi4wJywgJy1waCcsICc3LjAnLCAnLXRuJywgJzgnLCAnLW1hJywgJzIwMCcsICctaW1hZScsICc8aW5maWxlLm1hZT4nLCAnLW9tYWUnLCAnPG91dGZpbGUubWFlPic=

>  <r_lp_tautomer_probability>  (254) 
1

>  <r_epik_Ionization_Penalty>  (254) 
4.84297e-06

>  <r_epik_Ionization_Penalty_Charging>  (254) 
0

>  <r_epik_Ionization_Penalty_Neutral>  (254) 
4.84297e-06

>  <r_epik_State_Penalty>  (254) 
-0

>  <r_epik_Charging_Adjusted_Penalty>  (254) 
0

>  <i_epik_Tot_Q>  (254) 
0

>  <i_epik_Tot_abs_Q>  (254) 
0

>  <s_lp_Force_Field>  (254) 
OPLS3e

>  <r_lp_Energy>  (254) 
119.214

>  <b_lp_Chiralities_Consistent>  (254) 
1

>  <s_lp_Variant>  (254) 
83:0-1

>  <s_i_glide_gridfile>  (254) 
pfpi4k_grid

>  <i_i_glide_lignum>  (254) 
40

>  <i_i_glide_rotatable_bonds>  (254) 
4

>  <r_i_docking_score>  (254) 
-3.17349

>  <r_i_glide_ligand_efficiency>  (254) 
-0.0906713

>  <r_i_glide_ligand_efficiency_sa>  (254) 
-0.296592

>  <r_i_glide_ligand_efficiency_ln>  (254) 
-0.696653

>  <r_i_glide_gscore>  (254) 
-3.17349

>  <r_i_glide_lipo>  (254) 
-0.275686

>  <r_i_glide_hbond>  (254) 
-0.13756

>  <r_i_glide_metal>  (254) 
-0

>  <r_i_glide_rewards>  (254) 
-0.0767579

>  <r_i_glide_evdw>  (254) 
-28.0533

>  <r_i_glide_ecoul>  (254) 
-8.53883

>  <r_i_glide_erotb>  (254) 
0

>  <r_i_glide_esite>  (254) 
0

>  <r_i_glide_emodel>  (254) 
-42.9225

>  <r_i_glide_energy>  (254) 
-36.5922

>  <r_i_glide_einternal>  (254) 
1.38508

>  <r_i_glide_intrahb_reward>  (254) 
-0

>  <i_i_glide_confnum>  (254) 
2

>  <i_i_glide_posenum>  (254) 
10

>  <r_i_glide_eff_state_penalty>  (254) 
0

>  <ligand_id>  (254) 
83

>  <original_smiles>  (254) 
CC1C(O)C(O)C2(C)C(CC(O)C3(C)C2CC=C2C4C(O)C(C)(C)CCC4(C)CCC23C)C1(C)C

>  <smiles>  (254) 
[H]OC1([H])C([H])(O[H])C2(C([H])([H])[H])C([H])(C([H])([H])C([H])(O[H])C3(C([H])([H])[H])C2([H])C([H])([H])C([H])=C2C4([H])C([H])(O[H])C(C([H])([H])[H])(C([H])([H])[H])C([H])([H])C([H])([H])C4(C([H])([H])[H])C([H])([H])C([H])([H])C23C([H])([H])[H])C(C([H])([H])[H])(C([H])([H])[H])C1([H])C([H])([H])[H]

$$$$
84:0:0
     RDKit          3D

 60 64  0  0  1  0  0  0  0  0999 V2000
    4.2545   -8.0574    5.5103 C   0  0  0  0  0  0  0  0  0  0  0  0
    5.3673   -7.3861    4.6807 C   0  0  2  0  0  0  0  0  0  0  0  0
    5.5362   -5.8908    5.0205 C   0  0  0  0  0  0  0  0  0  0  0  0
    4.3558   -5.0460    4.5125 C   0  0  0  0  0  0  0  0  0  0  0  0
    4.1095   -5.2373    2.9920 C   0  0  1  0  0  0  0  0  0  0  0  0
    3.9736   -6.7313    2.6457 C   0  0  0  0  0  0  0  0  0  0  0  0
    5.1610   -7.5620    3.1623 C   0  0  0  0  0  0  0  0  0  0  0  0
    2.8994   -4.6258    2.5668 O   0  0  0  0  0  0  0  0  0  0  0  0
    2.7485   -3.2576    3.1947 O   0  0  0  0  0  0  0  0  0  0  0  0
    3.2743   -2.2394    2.3434 C   0  0  2  0  0  0  0  0  0  0  0  0
    3.0274   -0.9428    3.1236 C   0  0  0  0  0  0  0  0  0  0  0  0
    2.4644   -2.1594    1.0248 C   0  0  0  0  0  0  0  0  0  0  0  0
    2.4643   -3.3266   -0.0066 C   0  0  0  0  0  0  0  0  0  0  0  0
    3.7680   -3.6415   -0.7560 C   0  0  1  0  0  0  0  0  0  0  0  0
    3.9536   -2.9129   -2.1190 C   0  0  1  0  0  0  0  0  0  0  0  0
    3.6566   -1.4017   -2.1462 C   0  0  0  0  0  0  0  0  0  0  0  0
    5.3356   -3.2117   -2.7197 C   0  0  0  0  0  0  0  0  0  0  0  0
    6.4723   -2.7360   -1.8101 C   0  0  0  0  0  0  0  0  0  0  0  0
    6.3907   -3.3835   -0.4272 C   0  0  1  0  0  0  0  0  0  0  0  0
    6.7479   -2.5873    0.8351 C   0  0  1  0  0  0  0  0  0  0  0  0
    7.6953   -1.4089    0.7196 C   0  0  0  0  0  0  0  0  0  0  0  0
    5.2495   -2.3251    0.9619 C   0  0  2  0  0  0  0  0  0  0  0  0
    4.6947   -2.2680    2.2670 O   0  0  0  0  0  0  0  0  0  0  0  0
    4.9837   -3.5944    0.1614 C   0  0  1  0  0  0  0  0  0  0  0  0
    5.0466   -4.8660    0.8298 O   0  0  0  0  0  0  0  0  0  0  0  0
    5.2623   -4.7324    2.3224 O   0  0  0  0  0  0  0  0  0  0  0  0
    3.2747   -7.6309    5.3166 H   0  0  0  0  0  0  0  0  0  0  0  0
    4.4372   -7.9524    6.5769 H   0  0  0  0  0  0  0  0  0  0  0  0
    4.1840   -9.1191    5.2866 H   0  0  0  0  0  0  0  0  0  0  0  0
    6.3111   -7.8731    4.9323 H   0  0  0  0  0  0  0  0  0  0  0  0
    5.6621   -5.7596    6.0923 H   0  0  0  0  0  0  0  0  0  0  0  0
    6.4563   -5.5120    4.5685 H   0  0  0  0  0  0  0  0  0  0  0  0
    3.4450   -5.3308    5.0525 H   0  0  0  0  0  0  0  0  0  0  0  0
    4.5382   -4.0043    4.7750 H   0  0  0  0  0  0  0  0  0  0  0  0
    3.0460   -7.1149    3.0913 H   0  0  0  0  0  0  0  0  0  0  0  0
    3.8406   -6.8984    1.5742 H   0  0  0  0  0  0  0  0  0  0  0  0
    6.0651   -7.2500    2.6307 H   0  0  0  0  0  0  0  0  0  0  0  0
    5.0281   -8.6145    2.9210 H   0  0  0  0  0  0  0  0  0  0  0  0
    3.5746   -0.9320    4.0616 H   0  0  0  0  0  0  0  0  0  0  0  0
    1.9710   -0.8155    3.3489 H   0  0  0  0  0  0  0  0  0  0  0  0
    3.3472   -0.0762    2.5451 H   0  0  0  0  0  0  0  0  0  0  0  0
    1.4270   -2.0403    1.3248 H   0  0  0  0  0  0  0  0  0  0  0  0
    2.7051   -1.2330    0.4989 H   0  0  0  0  0  0  0  0  0  0  0  0
    2.1005   -4.2435    0.4495 H   0  0  0  0  0  0  0  0  0  0  0  0
    1.7208   -3.1030   -0.7687 H   0  0  0  0  0  0  0  0  0  0  0  0
    3.6674   -4.6765   -1.0634 H   0  0  0  0  0  0  0  0  0  0  0  0
    3.2170   -3.3501   -2.7938 H   0  0  0  0  0  0  0  0  0  0  0  0
    4.2776   -0.8094   -1.4850 H   0  0  0  0  0  0  0  0  0  0  0  0
    2.6199   -1.1944   -1.8783 H   0  0  0  0  0  0  0  0  0  0  0  0
    3.7836   -0.9933   -3.1464 H   0  0  0  0  0  0  0  0  0  0  0  0
    5.4189   -4.2797   -2.8815 H   0  0  0  0  0  0  0  0  0  0  0  0
    5.4067   -2.7478   -3.7047 H   0  0  0  0  0  0  0  0  0  0  0  0
    7.4341   -2.9420   -2.2711 H   0  0  0  0  0  0  0  0  0  0  0  0
    6.4076   -1.6600   -1.7337 H   0  0  0  0  0  0  0  0  0  0  0  0
    6.9298   -4.3316   -0.3950 H   0  0  0  0  0  0  0  0  0  0  0  0
    7.0748   -3.2996    1.5914 H   0  0  0  0  0  0  0  0  0  0  0  0
    7.2953   -0.6354    0.0845 H   0  0  0  0  0  0  0  0  0  0  0  0
    8.6883   -1.6901    0.3750 H   0  0  0  0  0  0  0  0  0  0  0  0
    7.8090   -0.9418    1.6771 H   0  0  0  0  0  0  0  0  0  0  0  0
    5.0009   -1.4301    0.4106 H   0  0  0  0  0  0  0  0  0  0  0  0
  1  2  1  0
  1 27  1  0
  1 28  1  0
  1 29  1  0
  2  7  1  0
  2  3  1  0
  2 30  1  1
  3  4  1  0
  3 31  1  0
  3 32  1  0
  4  5  1  0
  4 33  1  0
  4 34  1  0
  5 26  1  6
  5  6  1  0
  5  8  1  0
  6  7  1  0
  6 35  1  0
  6 36  1  0
  7 37  1  0
  7 38  1  0
  8  9  1  0
  9 10  1  0
 10 23  1  0
 10 11  1  1
 10 12  1  0
 11 39  1  0
 11 40  1  0
 11 41  1  0
 12 13  1  0
 12 42  1  0
 12 43  1  0
 13 14  1  0
 13 44  1  0
 13 45  1  0
 14 24  1  0
 14 15  1  0
 14 46  1  6
 15 16  1  0
 15 17  1  0
 15 47  1  6
 16 48  1  0
 16 49  1  0
 16 50  1  0
 17 18  1  0
 17 51  1  0
 17 52  1  0
 18 19  1  0
 18 53  1  0
 18 54  1  0
 19 24  1  0
 19 20  1  0
 19 55  1  6
 20 21  1  0
 20 22  1  0
 20 56  1  1
 21 57  1  0
 21 58  1  0
 21 59  1  0
 22 23  1  0
 22 24  1  0
 22 60  1  6
 24 25  1  1
 25 26  1  0
M  END
>  <i_m_ct_stereo_status>  (255) 
1

>  <s_m_source_file>  (255) 
/var/tmp/pbs.5076255.sched01/tmpln0nb48r/86bqtw16pk.sdf

>  <i_m_source_file_index>  (255) 
41

>  <i_lp_mmshare_version>  (255) 
48012

>  <i_f3d_flags>  (255) 
0

>  <s_epik_input>  (255) 
W0NIMl0xW0NIMl1bQ0BIXShbQ0gzXSlbQ0gyXVtDSDJdW0NAXTEyT09bQ0BdMyhbQ0gzXSlbQ0gyXVtDSDJdW0NAQEhdNFtDQEBdNShPTzIpW0NASF0oW0NAQEhdKFtDSDNdKVtDQEBIXTVPMylbQ0gyXVtDSDJdW0NAQEhdNFtDSDNd

>  <s_epik_cmdline>  (255) 
J2VwaWtfcHl0aG9uJywgJy1waHQnLCAnMi4wJywgJy1waCcsICc3LjAnLCAnLXRuJywgJzgnLCAnLW1hJywgJzIwMCcsICctaW1hZScsICc8aW5maWxlLm1hZT4nLCAnLW9tYWUnLCAnPG91dGZpbGUubWFlPic=

>  <r_lp_tautomer_probability>  (255) 
1

>  <r_epik_Ionization_Penalty>  (255) 
1.73657e-14

>  <r_epik_Ionization_Penalty_Charging>  (255) 
0

>  <r_epik_Ionization_Penalty_Neutral>  (255) 
1.73657e-14

>  <r_epik_State_Penalty>  (255) 
-0

>  <r_epik_Charging_Adjusted_Penalty>  (255) 
0

>  <i_epik_Tot_Q>  (255) 
0

>  <i_epik_Tot_abs_Q>  (255) 
0

>  <s_lp_Force_Field>  (255) 
OPLS3e

>  <r_lp_Energy>  (255) 
56.7378

>  <b_lp_Chiralities_Consistent>  (255) 
1

>  <s_lp_Variant>  (255) 
84:0-1

>  <s_i_glide_gridfile>  (255) 
pfpi4k_grid

>  <i_i_glide_lignum>  (255) 
41

>  <i_i_glide_rotatable_bonds>  (255) 
0

>  <r_i_docking_score>  (255) 
-2.35944

>  <r_i_glide_ligand_efficiency>  (255) 
-0.0907478

>  <r_i_glide_ligand_efficiency_sa>  (255) 
-0.26884

>  <r_i_glide_ligand_efficiency_ln>  (255) 
-0.554108

>  <r_i_glide_gscore>  (255) 
-2.35944

>  <r_i_glide_lipo>  (255) 
-0.48937

>  <r_i_glide_hbond>  (255) 
0

>  <r_i_glide_metal>  (255) 
-0

>  <r_i_glide_rewards>  (255) 
-0.910284

>  <r_i_glide_evdw>  (255) 
-16.5814

>  <r_i_glide_ecoul>  (255) 
-0.865524

>  <r_i_glide_erotb>  (255) 
0

>  <r_i_glide_esite>  (255) 
-0.000892301

>  <r_i_glide_emodel>  (255) 
-19.5302

>  <r_i_glide_energy>  (255) 
-17.4469

>  <r_i_glide_einternal>  (255) 
0

>  <r_i_glide_intrahb_reward>  (255) 
-0

>  <i_i_glide_confnum>  (255) 
1

>  <i_i_glide_posenum>  (255) 
6

>  <r_i_glide_eff_state_penalty>  (255) 
0

>  <ligand_id>  (255) 
84

>  <original_smiles>  (255) 
CC1CCC2(CC1)OOC1(C)CCC3C(C)CCC4C(C)C(O1)C34OO2

>  <smiles>  (255) 
[H]C([H])([H])C12OOC3(OOC45C([H])(O1)C([H])(C([H])([H])[H])C4([H])C([H])([H])C([H])([H])C([H])(C([H])([H])[H])C5([H])C([H])([H])C2([H])[H])C([H])([H])C([H])([H])C([H])(C([H])([H])[H])C([H])([H])C3([H])[H]

$$$$
84:0:1
     RDKit          3D

 60 64  0  0  1  0  0  0  0  0999 V2000
    1.9067   -9.1890    3.1766 C   0  0  0  0  0  0  0  0  0  0  0  0
    1.5576   -7.7720    3.6965 C   0  0  2  0  0  0  0  0  0  0  0  0
    0.7814   -6.9312    2.6668 C   0  0  0  0  0  0  0  0  0  0  0  0
    1.6800   -6.4950    1.4925 C   0  0  0  0  0  0  0  0  0  0  0  0
    2.9399   -5.7315    1.9783 C   0  0  1  0  0  0  0  0  0  0  0  0
    3.7033   -6.5647    3.0283 C   0  0  0  0  0  0  0  0  0  0  0  0
    2.7933   -6.9917    4.1911 C   0  0  0  0  0  0  0  0  0  0  0  0
    3.8755   -5.4984    0.9369 O   0  0  0  0  0  0  0  0  0  0  0  0
    3.1695   -5.0514   -0.3049 O   0  0  0  0  0  0  0  0  0  0  0  0
    3.1095   -3.6375   -0.4215 C   0  0  2  0  0  0  0  0  0  0  0  0
    2.3536   -3.3933   -1.7340 C   0  0  0  0  0  0  0  0  0  0  0  0
    4.5391   -3.0625   -0.5750 C   0  0  0  0  0  0  0  0  0  0  0  0
    5.5853   -3.1924    0.5716 C   0  0  0  0  0  0  0  0  0  0  0  0
    5.3284   -2.4319    1.8890 C   0  0  1  0  0  0  0  0  0  0  0  0
    5.9247   -1.0024    1.9468 C   0  0  1  0  0  0  0  0  0  0  0  0
    5.6905   -0.1498    0.6920 C   0  0  0  0  0  0  0  0  0  0  0  0
    5.5012   -0.2632    3.2384 C   0  0  0  0  0  0  0  0  0  0  0  0
    3.9906   -0.0833    3.3350 C   0  0  0  0  0  0  0  0  0  0  0  0
    3.2788   -1.4370    3.2700 C   0  0  1  0  0  0  0  0  0  0  0  0
    1.9421   -1.5703    2.5286 C   0  0  1  0  0  0  0  0  0  0  0  0
    1.0476   -0.3446    2.3671 C   0  0  0  0  0  0  0  0  0  0  0  0
    2.7691   -2.0643    1.3472 C   0  0  2  0  0  0  0  0  0  0  0  0
    2.2330   -3.0853    0.5437 O   0  0  0  0  0  0  0  0  0  0  0  0
    3.8622   -2.4956    2.3176 C   0  0  1  0  0  0  0  0  0  0  0  0
    3.7058   -3.7284    3.0295 O   0  0  0  0  0  0  0  0  0  0  0  0
    2.4935   -4.5194    2.5908 O   0  0  0  0  0  0  0  0  0  0  0  0
    2.5681   -9.1731    2.3157 H   0  0  0  0  0  0  0  0  0  0  0  0
    1.0106   -9.7303    2.8708 H   0  0  0  0  0  0  0  0  0  0  0  0
    2.4075   -9.7750    3.9465 H   0  0  0  0  0  0  0  0  0  0  0  0
    0.8986   -7.8902    4.5562 H   0  0  0  0  0  0  0  0  0  0  0  0
   -0.0803   -7.4861    2.2952 H   0  0  0  0  0  0  0  0  0  0  0  0
    0.3811   -6.0398    3.1508 H   0  0  0  0  0  0  0  0  0  0  0  0
    1.9910   -7.3700    0.9233 H   0  0  0  0  0  0  0  0  0  0  0  0
    1.0777   -5.9033    0.7939 H   0  0  0  0  0  0  0  0  0  0  0  0
    4.1194   -7.4470    2.5425 H   0  0  0  0  0  0  0  0  0  0  0  0
    4.5798   -6.0416    3.4142 H   0  0  0  0  0  0  0  0  0  0  0  0
    2.4726   -6.1015    4.7323 H   0  0  0  0  0  0  0  0  0  0  0  0
    3.3531   -7.5901    4.9150 H   0  0  0  0  0  0  0  0  0  0  0  0
    1.3327   -3.7885   -1.7018 H   0  0  0  0  0  0  0  0  0  0  0  0
    2.8597   -3.8454   -2.5819 H   0  0  0  0  0  0  0  0  0  0  0  0
    2.2795   -2.3239   -1.9363 H   0  0  0  0  0  0  0  0  0  0  0  0
    4.9755   -3.5907   -1.4180 H   0  0  0  0  0  0  0  0  0  0  0  0
    4.4653   -2.0284   -0.8938 H   0  0  0  0  0  0  0  0  0  0  0  0
    5.7665   -4.2400    0.7961 H   0  0  0  0  0  0  0  0  0  0  0  0
    6.5422   -2.8623    0.1813 H   0  0  0  0  0  0  0  0  0  0  0  0
    5.9020   -2.9789    2.6461 H   0  0  0  0  0  0  0  0  0  0  0  0
    7.0046   -1.1071    1.9945 H   0  0  0  0  0  0  0  0  0  0  0  0
    4.6584    0.1024    0.4949 H   0  0  0  0  0  0  0  0  0  0  0  0
    6.1029   -0.5970   -0.2065 H   0  0  0  0  0  0  0  0  0  0  0  0
    6.1986    0.7972    0.7808 H   0  0  0  0  0  0  0  0  0  0  0  0
    5.8156   -0.8402    4.1025 H   0  0  0  0  0  0  0  0  0  0  0  0
    6.0159    0.6913    3.3206 H   0  0  0  0  0  0  0  0  0  0  0  0
    3.7304    0.4323    4.2497 H   0  0  0  0  0  0  0  0  0  0  0  0
    3.6677    0.5683    2.5398 H   0  0  0  0  0  0  0  0  0  0  0  0
    3.1944   -1.8843    4.2553 H   0  0  0  0  0  0  0  0  0  0  0  0
    1.4048   -2.3956    2.9792 H   0  0  0  0  0  0  0  0  0  0  0  0
    1.5542    0.4580    1.8450 H   0  0  0  0  0  0  0  0  0  0  0  0
    0.6933    0.0416    3.3219 H   0  0  0  0  0  0  0  0  0  0  0  0
    0.1974   -0.5921    1.7513 H   0  0  0  0  0  0  0  0  0  0  0  0
    3.0503   -1.2117    0.7635 H   0  0  0  0  0  0  0  0  0  0  0  0
  1  2  1  0
  1 27  1  0
  1 28  1  0
  1 29  1  0
  2  7  1  0
  2  3  1  0
  2 30  1  1
  3  4  1  0
  3 31  1  0
  3 32  1  0
  4  5  1  0
  4 33  1  0
  4 34  1  0
  5 26  1  1
  5  6  1  0
  5  8  1  0
  6  7  1  0
  6 35  1  0
  6 36  1  0
  7 37  1  0
  7 38  1  0
  8  9  1  0
  9 10  1  0
 10 23  1  0
 10 11  1  6
 10 12  1  0
 11 39  1  0
 11 40  1  0
 11 41  1  0
 12 13  1  0
 12 42  1  0
 12 43  1  0
 13 14  1  0
 13 44  1  0
 13 45  1  0
 14 24  1  0
 14 15  1  0
 14 46  1  1
 15 16  1  0
 15 17  1  0
 15 47  1  1
 16 48  1  0
 16 49  1  0
 16 50  1  0
 17 18  1  0
 17 51  1  0
 17 52  1  0
 18 19  1  0
 18 53  1  0
 18 54  1  0
 19 24  1  0
 19 20  1  0
 19 55  1  1
 20 21  1  0
 20 22  1  0
 20 56  1  1
 21 57  1  0
 21 58  1  0
 21 59  1  0
 22 23  1  0
 22 24  1  0
 22 60  1  6
 24 25  1  1
 25 26  1  0
M  END
>  <i_m_ct_stereo_status>  (256) 
1

>  <s_m_source_file>  (256) 
/var/tmp/pbs.5076255.sched01/tmpln0nb48r/86bqtw16pk.sdf

>  <i_m_source_file_index>  (256) 
41

>  <i_lp_mmshare_version>  (256) 
48012

>  <i_f3d_flags>  (256) 
0

>  <s_epik_input>  (256) 
W0NIMl0xW0NIMl1bQ0BIXShbQ0gzXSlbQ0gyXVtDSDJdW0NAXTEyT09bQ0BdMyhbQ0gzXSlbQ0gyXVtDSDJdW0NAQEhdNFtDQEBdNShPTzIpW0NASF0oW0NAQEhdKFtDSDNdKVtDQEBIXTVPMylbQ0gyXVtDSDJdW0NAQEhdNFtDSDNd

>  <s_epik_cmdline>  (256) 
J2VwaWtfcHl0aG9uJywgJy1waHQnLCAnMi4wJywgJy1waCcsICc3LjAnLCAnLXRuJywgJzgnLCAnLW1hJywgJzIwMCcsICctaW1hZScsICc8aW5maWxlLm1hZT4nLCAnLW9tYWUnLCAnPG91dGZpbGUubWFlPic=

>  <r_lp_tautomer_probability>  (256) 
1

>  <r_epik_Ionization_Penalty>  (256) 
1.73657e-14

>  <r_epik_Ionization_Penalty_Charging>  (256) 
0

>  <r_epik_Ionization_Penalty_Neutral>  (256) 
1.73657e-14

>  <r_epik_State_Penalty>  (256) 
-0

>  <r_epik_Charging_Adjusted_Penalty>  (256) 
0

>  <i_epik_Tot_Q>  (256) 
0

>  <i_epik_Tot_abs_Q>  (256) 
0

>  <s_lp_Force_Field>  (256) 
OPLS3e

>  <r_lp_Energy>  (256) 
56.7378

>  <b_lp_Chiralities_Consistent>  (256) 
1

>  <s_lp_Variant>  (256) 
84:0-1

>  <s_i_glide_gridfile>  (256) 
pfpi4k_grid

>  <i_i_glide_lignum>  (256) 
41

>  <i_i_glide_rotatable_bonds>  (256) 
0

>  <r_i_docking_score>  (256) 
-2.16835

>  <r_i_glide_ligand_efficiency>  (256) 
-0.0833979

>  <r_i_glide_ligand_efficiency_sa>  (256) 
-0.247066

>  <r_i_glide_ligand_efficiency_ln>  (256) 
-0.509229

>  <r_i_glide_gscore>  (256) 
-2.16835

>  <r_i_glide_lipo>  (256) 
-0.635472

>  <r_i_glide_hbond>  (256) 
-0.00529457

>  <r_i_glide_metal>  (256) 
-0

>  <r_i_glide_rewards>  (256) 
-0.912188

>  <r_i_glide_evdw>  (256) 
-16.1759

>  <r_i_glide_ecoul>  (256) 
1.30125

>  <r_i_glide_erotb>  (256) 
0

>  <r_i_glide_esite>  (256) 
-0.00178397

>  <r_i_glide_emodel>  (256) 
-16.7435

>  <r_i_glide_energy>  (256) 
-14.8746

>  <r_i_glide_einternal>  (256) 
0

>  <r_i_glide_intrahb_reward>  (256) 
-0

>  <i_i_glide_confnum>  (256) 
1

>  <i_i_glide_posenum>  (256) 
2

>  <r_i_glide_eff_state_penalty>  (256) 
0

>  <ligand_id>  (256) 
84

>  <original_smiles>  (256) 
CC1CCC2(CC1)OOC1(C)CCC3C(C)CCC4C(C)C(O1)C34OO2

>  <smiles>  (256) 
[H]C([H])([H])C12OOC3(OOC45C([H])(O1)C([H])(C([H])([H])[H])C4([H])C([H])([H])C([H])([H])C([H])(C([H])([H])[H])C5([H])C([H])([H])C2([H])[H])C([H])([H])C([H])([H])C([H])(C([H])([H])[H])C([H])([H])C3([H])[H]

$$$$
84:0:2
     RDKit          3D

 60 64  0  0  1  0  0  0  0  0999 V2000
    4.9176   -8.6349    6.2060 C   0  0  0  0  0  0  0  0  0  0  0  0
    4.4720   -7.1576    6.3099 C   0  0  2  0  0  0  0  0  0  0  0  0
    3.1460   -6.8932    5.5725 C   0  0  0  0  0  0  0  0  0  0  0  0
    3.3160   -6.9655    4.0429 C   0  0  0  0  0  0  0  0  0  0  0  0
    4.4138   -6.0006    3.5421 C   0  0  1  0  0  0  0  0  0  0  0  0
    5.7481   -6.2515    4.2967 C   0  0  0  0  0  0  0  0  0  0  0  0
    5.5502   -6.1781    5.8237 C   0  0  0  0  0  0  0  0  0  0  0  0
    4.7147   -6.2093    2.1622 O   0  0  0  0  0  0  0  0  0  0  0  0
    3.4531   -6.3860    1.3659 O   0  0  0  0  0  0  0  0  0  0  0  0
    3.0211   -5.1439    0.8265 C   0  0  2  0  0  0  0  0  0  0  0  0
    1.7456   -5.4977    0.0565 C   0  0  0  0  0  0  0  0  0  0  0  0
    4.0517   -4.5834   -0.2010 C   0  0  0  0  0  0  0  0  0  0  0  0
    5.4707   -4.1460    0.2352 C   0  0  0  0  0  0  0  0  0  0  0  0
    5.5986   -2.9061    1.1508 C   0  0  1  0  0  0  0  0  0  0  0  0
    5.7809   -1.5600    0.3930 C   0  0  1  0  0  0  0  0  0  0  0  0
    4.8405   -1.2889   -0.7961 C   0  0  0  0  0  0  0  0  0  0  0  0
    5.7689   -0.3779    1.3811 C   0  0  0  0  0  0  0  0  0  0  0  0
    4.4542   -0.2682    2.1540 C   0  0  0  0  0  0  0  0  0  0  0  0
    4.1584   -1.5477    2.9290 C   0  0  1  0  0  0  0  0  0  0  0  0
    2.7123   -2.0646    3.0427 C   0  0  1  0  0  0  0  0  0  0  0  0
    1.5393   -1.0862    2.9302 C   0  0  0  0  0  0  0  0  0  0  0  0
    3.0522   -2.9655    1.8540 C   0  0  2  0  0  0  0  0  0  0  0  0
    2.5052   -4.2577    1.8170 O   0  0  0  0  0  0  0  0  0  0  0  0
    4.5379   -2.8810    2.2495 C   0  0  1  0  0  0  0  0  0  0  0  0
    5.0202   -3.7025    3.3142 O   0  0  0  0  0  0  0  0  0  0  0  0
    3.9884   -4.6755    3.8165 O   0  0  0  0  0  0  0  0  0  0  0  0
    5.1178   -8.9380    5.1800 H   0  0  0  0  0  0  0  0  0  0  0  0
    4.1494   -9.3109    6.5912 H   0  0  0  0  0  0  0  0  0  0  0  0
    5.8319   -8.8129    6.7752 H   0  0  0  0  0  0  0  0  0  0  0  0
    4.2921   -6.9462    7.3643 H   0  0  0  0  0  0  0  0  0  0  0  0
    2.3811   -7.6011    5.8968 H   0  0  0  0  0  0  0  0  0  0  0  0
    2.7671   -5.9061    5.8419 H   0  0  0  0  0  0  0  0  0  0  0  0
    3.5657   -7.9782    3.7455 H   0  0  0  0  0  0  0  0  0  0  0  0
    2.3462   -6.7510    3.5777 H   0  0  0  0  0  0  0  0  0  0  0  0
    6.1240   -7.2290    4.0183 H   0  0  0  0  0  0  0  0  0  0  0  0
    6.5258   -5.5543    3.9875 H   0  0  0  0  0  0  0  0  0  0  0  0
    5.2769   -5.1625    6.0997 H   0  0  0  0  0  0  0  0  0  0  0  0
    6.4985   -6.3781    6.3316 H   0  0  0  0  0  0  0  0  0  0  0  0
    0.9629   -5.8701    0.7277 H   0  0  0  0  0  0  0  0  0  0  0  0
    1.8986   -6.2490   -0.6875 H   0  0  0  0  0  0  0  0  0  0  0  0
    1.3816   -4.6170   -0.4750 H   0  0  0  0  0  0  0  0  0  0  0  0
    4.2245   -5.3983   -0.8997 H   0  0  0  0  0  0  0  0  0  0  0  0
    3.5859   -3.7968   -0.7866 H   0  0  0  0  0  0  0  0  0  0  0  0
    5.9939   -4.9800    0.6949 H   0  0  0  0  0  0  0  0  0  0  0  0
    6.0484   -3.9528   -0.6637 H   0  0  0  0  0  0  0  0  0  0  0  0
    6.5657   -3.0390    1.6588 H   0  0  0  0  0  0  0  0  0  0  0  0
    6.7804   -1.5880   -0.0335 H   0  0  0  0  0  0  0  0  0  0  0  0
    3.7930   -1.2355   -0.5237 H   0  0  0  0  0  0  0  0  0  0  0  0
    4.9378   -2.0444   -1.5727 H   0  0  0  0  0  0  0  0  0  0  0  0
    5.0708   -0.3345   -1.2602 H   0  0  0  0  0  0  0  0  0  0  0  0
    6.5832   -0.5176    2.0951 H   0  0  0  0  0  0  0  0  0  0  0  0
    5.9579    0.5405    0.8434 H   0  0  0  0  0  0  0  0  0  0  0  0
    4.4780    0.5729    2.8394 H   0  0  0  0  0  0  0  0  0  0  0  0
    3.6601   -0.0388    1.4451 H   0  0  0  0  0  0  0  0  0  0  0  0
    4.6169   -1.5188    3.9113 H   0  0  0  0  0  0  0  0  0  0  0  0
    2.6393   -2.6446    3.9561 H   0  0  0  0  0  0  0  0  0  0  0  0
    1.5433   -0.5579    1.9734 H   0  0  0  0  0  0  0  0  0  0  0  0
    1.5593   -0.3320    3.7186 H   0  0  0  0  0  0  0  0  0  0  0  0
    0.5860   -1.6111    2.9935 H   0  0  0  0  0  0  0  0  0  0  0  0
    2.8446   -2.4283    0.9433 H   0  0  0  0  0  0  0  0  0  0  0  0
  1  2  1  0
  1 27  1  0
  1 28  1  0
  1 29  1  0
  2  7  1  0
  2  3  1  0
  2 30  1  1
  3  4  1  0
  3 31  1  0
  3 32  1  0
  4  5  1  0
  4 33  1  0
  4 34  1  0
  5 26  1  6
  5  6  1  0
  5  8  1  0
  6  7  1  0
  6 35  1  0
  6 36  1  0
  7 37  1  0
  7 38  1  0
  8  9  1  0
  9 10  1  0
 10 23  1  0
 10 11  1  6
 10 12  1  0
 11 39  1  0
 11 40  1  0
 11 41  1  0
 12 13  1  0
 12 42  1  0
 12 43  1  0
 13 14  1  0
 13 44  1  0
 13 45  1  0
 14 24  1  0
 14 15  1  0
 14 46  1  1
 15 16  1  0
 15 17  1  0
 15 47  1  6
 16 48  1  0
 16 49  1  0
 16 50  1  0
 17 18  1  0
 17 51  1  0
 17 52  1  0
 18 19  1  0
 18 53  1  0
 18 54  1  0
 19 24  1  0
 19 20  1  0
 19 55  1  1
 20 21  1  0
 20 22  1  0
 20 56  1  1
 21 57  1  0
 21 58  1  0
 21 59  1  0
 22 23  1  0
 22 24  1  0
 22 60  1  6
 24 25  1  1
 25 26  1  0
M  END
>  <i_m_ct_stereo_status>  (257) 
1

>  <s_m_source_file>  (257) 
/var/tmp/pbs.5076255.sched01/tmpln0nb48r/86bqtw16pk.sdf

>  <i_m_source_file_index>  (257) 
41

>  <i_lp_mmshare_version>  (257) 
48012

>  <i_f3d_flags>  (257) 
0

>  <s_epik_input>  (257) 
W0NIMl0xW0NIMl1bQ0BIXShbQ0gzXSlbQ0gyXVtDSDJdW0NAXTEyT09bQ0BdMyhbQ0gzXSlbQ0gyXVtDSDJdW0NAQEhdNFtDQEBdNShPTzIpW0NASF0oW0NAQEhdKFtDSDNdKVtDQEBIXTVPMylbQ0gyXVtDSDJdW0NAQEhdNFtDSDNd

>  <s_epik_cmdline>  (257) 
J2VwaWtfcHl0aG9uJywgJy1waHQnLCAnMi4wJywgJy1waCcsICc3LjAnLCAnLXRuJywgJzgnLCAnLW1hJywgJzIwMCcsICctaW1hZScsICc8aW5maWxlLm1hZT4nLCAnLW9tYWUnLCAnPG91dGZpbGUubWFlPic=

>  <r_lp_tautomer_probability>  (257) 
1

>  <r_epik_Ionization_Penalty>  (257) 
1.73657e-14

>  <r_epik_Ionization_Penalty_Charging>  (257) 
0

>  <r_epik_Ionization_Penalty_Neutral>  (257) 
1.73657e-14

>  <r_epik_State_Penalty>  (257) 
-0

>  <r_epik_Charging_Adjusted_Penalty>  (257) 
0

>  <i_epik_Tot_Q>  (257) 
0

>  <i_epik_Tot_abs_Q>  (257) 
0

>  <s_lp_Force_Field>  (257) 
OPLS3e

>  <r_lp_Energy>  (257) 
56.7378

>  <b_lp_Chiralities_Consistent>  (257) 
1

>  <s_lp_Variant>  (257) 
84:0-1

>  <s_i_glide_gridfile>  (257) 
pfpi4k_grid

>  <i_i_glide_lignum>  (257) 
41

>  <i_i_glide_rotatable_bonds>  (257) 
0

>  <r_i_docking_score>  (257) 
-2.13288

>  <r_i_glide_ligand_efficiency>  (257) 
-0.0820339

>  <r_i_glide_ligand_efficiency_sa>  (257) 
-0.243025

>  <r_i_glide_ligand_efficiency_ln>  (257) 
-0.5009

>  <r_i_glide_gscore>  (257) 
-2.13288

>  <r_i_glide_lipo>  (257) 
-0.373848

>  <r_i_glide_hbond>  (257) 
0

>  <r_i_glide_metal>  (257) 
-0

>  <r_i_glide_rewards>  (257) 
-0.910284

>  <r_i_glide_evdw>  (257) 
-14.2129

>  <r_i_glide_ecoul>  (257) 
-0.805648

>  <r_i_glide_erotb>  (257) 
0

>  <r_i_glide_esite>  (257) 
-0.0172547

>  <r_i_glide_emodel>  (257) 
-16.8685

>  <r_i_glide_energy>  (257) 
-15.0186

>  <r_i_glide_einternal>  (257) 
0

>  <r_i_glide_intrahb_reward>  (257) 
-0

>  <i_i_glide_confnum>  (257) 
2

>  <i_i_glide_posenum>  (257) 
26

>  <r_i_glide_eff_state_penalty>  (257) 
0

>  <ligand_id>  (257) 
84

>  <original_smiles>  (257) 
CC1CCC2(CC1)OOC1(C)CCC3C(C)CCC4C(C)C(O1)C34OO2

>  <smiles>  (257) 
[H]C([H])([H])C12OOC3(OOC45C([H])(O1)C([H])(C([H])([H])[H])C4([H])C([H])([H])C([H])([H])C([H])(C([H])([H])[H])C5([H])C([H])([H])C2([H])[H])C([H])([H])C([H])([H])C([H])(C([H])([H])[H])C([H])([H])C3([H])[H]

$$$$
84:1:0
     RDKit          3D

 60 64  0  0  1  0  0  0  0  0999 V2000
    2.9934   -0.4501   -4.5615 C   0  0  0  0  0  0  0  0  0  0  0  0
    4.3410   -0.8338   -3.9578 C   0  0  2  0  0  0  0  0  0  0  0  0
    4.5720   -2.3530   -3.8053 C   0  0  0  0  0  0  0  0  0  0  0  0
    3.7209   -3.0296   -2.7361 C   0  0  0  0  0  0  0  0  0  0  0  0
    3.9670   -2.3500   -1.3800 C   0  0  2  0  0  0  0  0  0  0  0  0
    3.7225   -0.8459   -1.5079 C   0  0  0  0  0  0  0  0  0  0  0  0
    4.5448   -0.1542   -2.6082 C   0  0  0  0  0  0  0  0  0  0  0  0
    5.3247   -2.6347   -1.0455 O   0  0  0  0  0  0  0  0  0  0  0  0
    5.8001   -1.7005    0.0100 O   0  0  0  0  0  0  0  0  0  0  0  0
    5.6141   -2.3067    1.2812 C   0  0  2  0  0  0  0  0  0  0  0  0
    6.1613   -1.2510    2.2409 C   0  0  0  0  0  0  0  0  0  0  0  0
    6.4716   -3.6081    1.3860 C   0  0  0  0  0  0  0  0  0  0  0  0
    6.1695   -4.8567    0.5138 C   0  0  0  0  0  0  0  0  0  0  0  0
    4.8516   -5.6261    0.7682 C   0  0  1  0  0  0  0  0  0  0  0  0
    4.9479   -6.7967    1.7977 C   0  0  1  0  0  0  0  0  0  0  0  0
    5.6937   -6.4940    3.1127 C   0  0  0  0  0  0  0  0  0  0  0  0
    3.5528   -7.4091    2.0723 C   0  0  0  0  0  0  0  0  0  0  0  0
    2.5775   -6.3783    2.6644 C   0  0  0  0  0  0  0  0  0  0  0  0
    2.4244   -5.1697    1.7433 C   0  0  1  0  0  0  0  0  0  0  0  0
    2.2868   -3.7513    2.3331 C   0  0  1  0  0  0  0  0  0  0  0  0
    1.7077   -3.5618    3.7369 C   0  0  0  0  0  0  0  0  0  0  0  0
    3.7804   -3.6248    2.1077 C   0  0  2  0  0  0  0  0  0  0  0  0
    4.2488   -2.3582    1.6934 O   0  0  0  0  0  0  0  0  0  0  0  0
    3.6711   -4.6773    0.9933 C   0  0  1  0  0  0  0  0  0  0  0  0
    3.1818   -4.3146   -0.3050 O   0  0  0  0  0  0  0  0  0  0  0  0
    3.0291   -2.8427   -0.4451 O   0  0  0  0  0  0  0  0  0  0  0  0
    2.2067   -0.9830   -4.0378 H   0  0  0  0  0  0  0  0  0  0  0  0
    3.0393   -0.7816   -5.5913 H   0  0  0  0  0  0  0  0  0  0  0  0
    2.7575    0.6290   -4.5499 H   0  0  0  0  0  0  0  0  0  0  0  0
    5.0177   -0.4468   -4.6894 H   0  0  0  0  0  0  0  0  0  0  0  0
    4.4037   -2.9122   -4.7194 H   0  0  0  0  0  0  0  0  0  0  0  0
    5.6053   -2.5076   -3.5095 H   0  0  0  0  0  0  0  0  0  0  0  0
    2.6661   -2.9838   -2.9943 H   0  0  0  0  0  0  0  0  0  0  0  0
    3.9995   -4.0772   -2.7070 H   0  0  0  0  0  0  0  0  0  0  0  0
    2.6701   -0.7571   -1.7608 H   0  0  0  0  0  0  0  0  0  0  0  0
    3.8702   -0.3225   -0.5516 H   0  0  0  0  0  0  0  0  0  0  0  0
    5.5904   -0.1839   -2.3217 H   0  0  0  0  0  0  0  0  0  0  0  0
    4.2467    0.8863   -2.7074 H   0  0  0  0  0  0  0  0  0  0  0  0
    5.6048   -0.3115    2.1861 H   0  0  0  0  0  0  0  0  0  0  0  0
    7.1934   -1.0439    1.9934 H   0  0  0  0  0  0  0  0  0  0  0  0
    6.1090   -1.6217    3.2643 H   0  0  0  0  0  0  0  0  0  0  0  0
    7.4784   -3.3130    1.1189 H   0  0  0  0  0  0  0  0  0  0  0  0
    6.5236   -3.9210    2.4264 H   0  0  0  0  0  0  0  0  0  0  0  0
    6.2200   -4.6079   -0.5391 H   0  0  0  0  0  0  0  0  0  0  0  0
    6.9831   -5.5607    0.6388 H   0  0  0  0  0  0  0  0  0  0  0  0
    4.6519   -6.1406   -0.1801 H   0  0  0  0  0  0  0  0  0  0  0  0
    5.5343   -7.5781    1.3135 H   0  0  0  0  0  0  0  0  0  0  0  0
    5.2306   -5.7179    3.7126 H   0  0  0  0  0  0  0  0  0  0  0  0
    6.7260   -6.2055    2.9316 H   0  0  0  0  0  0  0  0  0  0  0  0
    5.7200   -7.3825    3.7355 H   0  0  0  0  0  0  0  0  0  0  0  0
    3.1369   -7.7930    1.1388 H   0  0  0  0  0  0  0  0  0  0  0  0
    3.6406   -8.2645    2.7402 H   0  0  0  0  0  0  0  0  0  0  0  0
    1.6052   -6.8412    2.8517 H   0  0  0  0  0  0  0  0  0  0  0  0
    2.9495   -6.0782    3.6448 H   0  0  0  0  0  0  0  0  0  0  0  0
    1.6541   -5.3289    1.0010 H   0  0  0  0  0  0  0  0  0  0  0  0
    1.7914   -3.1138    1.6147 H   0  0  0  0  0  0  0  0  0  0  0  0
    2.2950   -4.0861    4.4977 H   0  0  0  0  0  0  0  0  0  0  0  0
    0.6794   -3.9331    3.8192 H   0  0  0  0  0  0  0  0  0  0  0  0
    1.6966   -2.5048    4.0241 H   0  0  0  0  0  0  0  0  0  0  0  0
    4.3079   -3.9861    2.9784 H   0  0  0  0  0  0  0  0  0  0  0  0
  1  2  1  0
  1 27  1  0
  1 28  1  0
  1 29  1  0
  2  7  1  0
  2  3  1  0
  2 30  1  6
  3  4  1  0
  3 31  1  0
  3 32  1  0
  4  5  1  0
  4 33  1  0
  4 34  1  0
  5 26  1  1
  5  6  1  0
  5  8  1  0
  6  7  1  0
  6 35  1  0
  6 36  1  0
  7 37  1  0
  7 38  1  0
  8  9  1  0
  9 10  1  0
 10 23  1  0
 10 11  1  1
 10 12  1  0
 11 39  1  0
 11 40  1  0
 11 41  1  0
 12 13  1  0
 12 42  1  0
 12 43  1  0
 13 14  1  0
 13 44  1  0
 13 45  1  0
 14 24  1  0
 14 15  1  0
 14 46  1  6
 15 16  1  0
 15 17  1  0
 15 47  1  6
 16 48  1  0
 16 49  1  0
 16 50  1  0
 17 18  1  0
 17 51  1  0
 17 52  1  0
 18 19  1  0
 18 53  1  0
 18 54  1  0
 19 24  1  0
 19 20  1  0
 19 55  1  6
 20 21  1  0
 20 22  1  0
 20 56  1  6
 21 57  1  0
 21 58  1  0
 21 59  1  0
 22 23  1  0
 22 24  1  0
 22 60  1  1
 24 25  1  6
 25 26  1  0
M  END
>  <i_m_ct_stereo_status>  (258) 
1

>  <s_m_source_file>  (258) 
/var/tmp/pbs.5076255.sched01/tmpln0nb48r/86bqtw16pk.sdf

>  <i_m_source_file_index>  (258) 
42

>  <i_lp_mmshare_version>  (258) 
48012

>  <i_f3d_flags>  (258) 
0

>  <s_epik_input>  (258) 
W0NIMl0xW0NIMl1bQ0BIXShbQ0gzXSlbQ0gyXVtDSDJdW0NAXTEyT09bQ0BdMyhbQ0gzXSlbQ0gyXVtDSDJdW0NAQEhdNFtDQEBdNShPTzIpW0NASF0oW0NAQEhdKFtDSDNdKVtDQEBIXTVPMylbQ0gyXVtDSDJdW0NAQEhdNFtDSDNd

>  <s_epik_cmdline>  (258) 
J2VwaWtfcHl0aG9uJywgJy1waHQnLCAnMi4wJywgJy1waCcsICc3LjAnLCAnLXRuJywgJzgnLCAnLW1hJywgJzIwMCcsICctaW1hZScsICc8aW5maWxlLm1hZT4nLCAnLW9tYWUnLCAnPG91dGZpbGUubWFlPic=

>  <r_lp_tautomer_probability>  (258) 
1

>  <r_epik_Ionization_Penalty>  (258) 
1.73657e-14

>  <r_epik_Ionization_Penalty_Charging>  (258) 
0

>  <r_epik_Ionization_Penalty_Neutral>  (258) 
1.73657e-14

>  <r_epik_State_Penalty>  (258) 
-0

>  <r_epik_Charging_Adjusted_Penalty>  (258) 
0

>  <i_epik_Tot_Q>  (258) 
0

>  <i_epik_Tot_abs_Q>  (258) 
0

>  <s_lp_Force_Field>  (258) 
OPLS3e

>  <r_lp_Energy>  (258) 
56.7867

>  <b_lp_Chiralities_Consistent>  (258) 
1

>  <s_lp_Variant>  (258) 
84:0-2

>  <s_i_glide_gridfile>  (258) 
pfpi4k_grid

>  <i_i_glide_lignum>  (258) 
42

>  <i_i_glide_rotatable_bonds>  (258) 
0

>  <r_i_docking_score>  (258) 
-2.79605

>  <r_i_glide_ligand_efficiency>  (258) 
-0.107541

>  <r_i_glide_ligand_efficiency_sa>  (258) 
-0.318589

>  <r_i_glide_ligand_efficiency_ln>  (258) 
-0.656644

>  <r_i_glide_gscore>  (258) 
-2.79605

>  <r_i_glide_lipo>  (258) 
-0.990744

>  <r_i_glide_hbond>  (258) 
0

>  <r_i_glide_metal>  (258) 
-0

>  <r_i_glide_rewards>  (258) 
-1.02148

>  <r_i_glide_evdw>  (258) 
-17.6533

>  <r_i_glide_ecoul>  (258) 
0.863594

>  <r_i_glide_erotb>  (258) 
0

>  <r_i_glide_esite>  (258) 
-0.0307028

>  <r_i_glide_emodel>  (258) 
-18.3809

>  <r_i_glide_energy>  (258) 
-16.7897

>  <r_i_glide_einternal>  (258) 
0

>  <r_i_glide_intrahb_reward>  (258) 
-0

>  <i_i_glide_confnum>  (258) 
3

>  <i_i_glide_posenum>  (258) 
6

>  <r_i_glide_eff_state_penalty>  (258) 
0

>  <ligand_id>  (258) 
84

>  <original_smiles>  (258) 
CC1CCC2(CC1)OOC1(C)CCC3C(C)CCC4C(C)C(O1)C34OO2

>  <smiles>  (258) 
[H]C([H])([H])C12OOC3(OOC45C([H])(O1)C([H])(C([H])([H])[H])C4([H])C([H])([H])C([H])([H])C([H])(C([H])([H])[H])C5([H])C([H])([H])C2([H])[H])C([H])([H])C([H])([H])C([H])(C([H])([H])[H])C([H])([H])C3([H])[H]

$$$$
84:1:1
     RDKit          3D

 60 64  0  0  1  0  0  0  0  0999 V2000
    2.3642   -0.1195   -4.7269 C   0  0  0  0  0  0  0  0  0  0  0  0
    3.1139   -1.3481   -4.1785 C   0  0  2  0  0  0  0  0  0  0  0  0
    2.2503   -2.2719   -3.3215 C   0  0  0  0  0  0  0  0  0  0  0  0
    3.0367   -3.4188   -2.7042 C   0  0  0  0  0  0  0  0  0  0  0  0
    4.2425   -2.9654   -1.8665 C   0  0  2  0  0  0  0  0  0  0  0  0
    5.1313   -2.0699   -2.7484 C   0  0  0  0  0  0  0  0  0  0  0  0
    4.3388   -0.9122   -3.3781 C   0  0  0  0  0  0  0  0  0  0  0  0
    4.9241   -4.1533   -1.4990 O   0  0  0  0  0  0  0  0  0  0  0  0
    6.3129   -3.8338   -1.0673 O   0  0  0  0  0  0  0  0  0  0  0  0
    6.3952   -3.7640    0.3382 C   0  0  2  0  0  0  0  0  0  0  0  0
    7.8935   -3.6263    0.5629 C   0  0  0  0  0  0  0  0  0  0  0  0
    5.9436   -5.0927    1.0529 C   0  0  0  0  0  0  0  0  0  0  0  0
    4.4768   -5.6085    0.9838 C   0  0  0  0  0  0  0  0  0  0  0  0
    3.3709   -4.7735    1.6707 C   0  0  1  0  0  0  0  0  0  0  0  0
    3.0556   -5.1396    3.1538 C   0  0  1  0  0  0  0  0  0  0  0  0
    4.2698   -5.3421    4.0828 C   0  0  0  0  0  0  0  0  0  0  0  0
    2.0370   -4.1572    3.7744 C   0  0  0  0  0  0  0  0  0  0  0  0
    2.5557   -2.7165    3.7813 C   0  0  0  0  0  0  0  0  0  0  0  0
    2.9156   -2.2472    2.3725 C   0  0  1  0  0  0  0  0  0  0  0  0
    4.1337   -1.3320    2.1481 C   0  0  1  0  0  0  0  0  0  0  0  0
    4.6495   -0.4256    3.2669 C   0  0  0  0  0  0  0  0  0  0  0  0
    4.8867   -2.6138    1.8029 C   0  0  2  0  0  0  0  0  0  0  0  0
    5.8815   -2.5328    0.8152 O   0  0  0  0  0  0  0  0  0  0  0  0
    3.5609   -3.2787    1.4316 C   0  0  1  0  0  0  0  0  0  0  0  0
    2.9724   -3.0176    0.1487 O   0  0  0  0  0  0  0  0  0  0  0  0
    3.8468   -2.1777   -0.7478 O   0  0  0  0  0  0  0  0  0  0  0  0
    2.0757    0.5429   -3.9193 H   0  0  0  0  0  0  0  0  0  0  0  0
    1.4355   -0.3834   -5.2208 H   0  0  0  0  0  0  0  0  0  0  0  0
    2.9681    0.4596   -5.4267 H   0  0  0  0  0  0  0  0  0  0  0  0
    3.4667   -1.9282   -5.0200 H   0  0  0  0  0  0  0  0  0  0  0  0
    1.8452   -1.7244   -2.4857 H   0  0  0  0  0  0  0  0  0  0  0  0
    1.4135   -2.6640   -3.9010 H   0  0  0  0  0  0  0  0  0  0  0  0
    2.3408   -3.9996   -2.0960 H   0  0  0  0  0  0  0  0  0  0  0  0
    3.3782   -4.0640   -3.5153 H   0  0  0  0  0  0  0  0  0  0  0  0
    5.9733   -1.6605   -2.1870 H   0  0  0  0  0  0  0  0  0  0  0  0
    5.5635   -2.6968   -3.5224 H   0  0  0  0  0  0  0  0  0  0  0  0
    4.9550   -0.3963   -4.0971 H   0  0  0  0  0  0  0  0  0  0  0  0
    4.0525   -0.1978   -2.6014 H   0  0  0  0  0  0  0  0  0  0  0  0
    8.3004   -2.7293    0.0979 H   0  0  0  0  0  0  0  0  0  0  0  0
    8.4441   -4.4857    0.1853 H   0  0  0  0  0  0  0  0  0  0  0  0
    8.1073   -3.5668    1.6352 H   0  0  0  0  0  0  0  0  0  0  0  0
    6.5402   -5.8889    0.6177 H   0  0  0  0  0  0  0  0  0  0  0  0
    6.2504   -5.0567    2.0941 H   0  0  0  0  0  0  0  0  0  0  0  0
    4.1960   -5.7964   -0.0504 H   0  0  0  0  0  0  0  0  0  0  0  0
    4.4470   -6.5939    1.4369 H   0  0  0  0  0  0  0  0  0  0  0  0
    2.4536   -5.0627    1.1459 H   0  0  0  0  0  0  0  0  0  0  0  0
    2.5709   -6.1148    3.1260 H   0  0  0  0  0  0  0  0  0  0  0  0
    4.8770   -4.4547    4.2106 H   0  0  0  0  0  0  0  0  0  0  0  0
    4.9185   -6.1416    3.7351 H   0  0  0  0  0  0  0  0  0  0  0  0
    3.9432   -5.6274    5.0819 H   0  0  0  0  0  0  0  0  0  0  0  0
    1.1119   -4.1910    3.2003 H   0  0  0  0  0  0  0  0  0  0  0  0
    1.7787   -4.4648    4.7843 H   0  0  0  0  0  0  0  0  0  0  0  0
    1.8236   -2.0489    4.2252 H   0  0  0  0  0  0  0  0  0  0  0  0
    3.4195   -2.6717    4.4328 H   0  0  0  0  0  0  0  0  0  0  0  0
    2.0550   -1.8214    1.8624 H   0  0  0  0  0  0  0  0  0  0  0  0
    3.9460   -0.7669    1.2381 H   0  0  0  0  0  0  0  0  0  0  0  0
    4.9283   -1.0068    4.1452 H   0  0  0  0  0  0  0  0  0  0  0  0
    3.8991    0.2994    3.5776 H   0  0  0  0  0  0  0  0  0  0  0  0
    5.5392    0.1172    2.9573 H   0  0  0  0  0  0  0  0  0  0  0  0
    5.2820   -3.0268    2.7182 H   0  0  0  0  0  0  0  0  0  0  0  0
  1  2  1  0
  1 27  1  0
  1 28  1  0
  1 29  1  0
  2  7  1  0
  2  3  1  0
  2 30  1  6
  3  4  1  0
  3 31  1  0
  3 32  1  0
  4  5  1  0
  4 33  1  0
  4 34  1  0
  5 26  1  1
  5  6  1  0
  5  8  1  0
  6  7  1  0
  6 35  1  0
  6 36  1  0
  7 37  1  0
  7 38  1  0
  8  9  1  0
  9 10  1  0
 10 23  1  0
 10 11  1  6
 10 12  1  0
 11 39  1  0
 11 40  1  0
 11 41  1  0
 12 13  1  0
 12 42  1  0
 12 43  1  0
 13 14  1  0
 13 44  1  0
 13 45  1  0
 14 24  1  0
 14 15  1  0
 14 46  1  6
 15 16  1  0
 15 17  1  0
 15 47  1  6
 16 48  1  0
 16 49  1  0
 16 50  1  0
 17 18  1  0
 17 51  1  0
 17 52  1  0
 18 19  1  0
 18 53  1  0
 18 54  1  0
 19 24  1  0
 19 20  1  0
 19 55  1  6
 20 21  1  0
 20 22  1  0
 20 56  1  6
 21 57  1  0
 21 58  1  0
 21 59  1  0
 22 23  1  0
 22 24  1  0
 22 60  1  1
 24 25  1  6
 25 26  1  0
M  END
>  <i_m_ct_stereo_status>  (259) 
1

>  <s_m_source_file>  (259) 
/var/tmp/pbs.5076255.sched01/tmpln0nb48r/86bqtw16pk.sdf

>  <i_m_source_file_index>  (259) 
42

>  <i_lp_mmshare_version>  (259) 
48012

>  <i_f3d_flags>  (259) 
0

>  <s_epik_input>  (259) 
W0NIMl0xW0NIMl1bQ0BIXShbQ0gzXSlbQ0gyXVtDSDJdW0NAXTEyT09bQ0BdMyhbQ0gzXSlbQ0gyXVtDSDJdW0NAQEhdNFtDQEBdNShPTzIpW0NASF0oW0NAQEhdKFtDSDNdKVtDQEBIXTVPMylbQ0gyXVtDSDJdW0NAQEhdNFtDSDNd

>  <s_epik_cmdline>  (259) 
J2VwaWtfcHl0aG9uJywgJy1waHQnLCAnMi4wJywgJy1waCcsICc3LjAnLCAnLXRuJywgJzgnLCAnLW1hJywgJzIwMCcsICctaW1hZScsICc8aW5maWxlLm1hZT4nLCAnLW9tYWUnLCAnPG91dGZpbGUubWFlPic=

>  <r_lp_tautomer_probability>  (259) 
1

>  <r_epik_Ionization_Penalty>  (259) 
1.73657e-14

>  <r_epik_Ionization_Penalty_Charging>  (259) 
0

>  <r_epik_Ionization_Penalty_Neutral>  (259) 
1.73657e-14

>  <r_epik_State_Penalty>  (259) 
-0

>  <r_epik_Charging_Adjusted_Penalty>  (259) 
0

>  <i_epik_Tot_Q>  (259) 
0

>  <i_epik_Tot_abs_Q>  (259) 
0

>  <s_lp_Force_Field>  (259) 
OPLS3e

>  <r_lp_Energy>  (259) 
56.7867

>  <b_lp_Chiralities_Consistent>  (259) 
1

>  <s_lp_Variant>  (259) 
84:0-2

>  <s_i_glide_gridfile>  (259) 
pfpi4k_grid

>  <i_i_glide_lignum>  (259) 
42

>  <i_i_glide_rotatable_bonds>  (259) 
0

>  <r_i_docking_score>  (259) 
-2.65164

>  <r_i_glide_ligand_efficiency>  (259) 
-0.101986

>  <r_i_glide_ligand_efficiency_sa>  (259) 
-0.302134

>  <r_i_glide_ligand_efficiency_ln>  (259) 
-0.62273

>  <r_i_glide_gscore>  (259) 
-2.65164

>  <r_i_glide_lipo>  (259) 
-0.830849

>  <r_i_glide_hbond>  (259) 
0

>  <r_i_glide_metal>  (259) 
-0

>  <r_i_glide_rewards>  (259) 
-1.04353

>  <r_i_glide_evdw>  (259) 
-18.2931

>  <r_i_glide_ecoul>  (259) 
1.01225

>  <r_i_glide_erotb>  (259) 
0

>  <r_i_glide_esite>  (259) 
-0.0144514

>  <r_i_glide_emodel>  (259) 
-19.1713

>  <r_i_glide_energy>  (259) 
-17.2808

>  <r_i_glide_einternal>  (259) 
0

>  <r_i_glide_intrahb_reward>  (259) 
-0

>  <i_i_glide_confnum>  (259) 
4

>  <i_i_glide_posenum>  (259) 
15

>  <r_i_glide_eff_state_penalty>  (259) 
0

>  <ligand_id>  (259) 
84

>  <original_smiles>  (259) 
CC1CCC2(CC1)OOC1(C)CCC3C(C)CCC4C(C)C(O1)C34OO2

>  <smiles>  (259) 
[H]C([H])([H])C12OOC3(OOC45C([H])(O1)C([H])(C([H])([H])[H])C4([H])C([H])([H])C([H])([H])C([H])(C([H])([H])[H])C5([H])C([H])([H])C2([H])[H])C([H])([H])C([H])([H])C([H])(C([H])([H])[H])C([H])([H])C3([H])[H]

$$$$
84:1:2
     RDKit          3D

 60 64  0  0  1  0  0  0  0  0999 V2000
    3.0658   -1.2729   -4.2657 C   0  0  0  0  0  0  0  0  0  0  0  0
    4.3880   -1.5154   -3.5632 C   0  0  2  0  0  0  0  0  0  0  0  0
    4.6274   -2.9783   -3.1664 C   0  0  0  0  0  0  0  0  0  0  0  0
    3.6966   -3.3852   -2.0187 C   0  0  0  0  0  0  0  0  0  0  0  0
    3.8434   -2.4729   -0.7940 C   0  0  2  0  0  0  0  0  0  0  0  0
    3.6924   -0.9950   -1.1967 C   0  0  0  0  0  0  0  0  0  0  0  0
    4.6194   -0.5962   -2.3584 C   0  0  0  0  0  0  0  0  0  0  0  0
    5.1596   -2.7671   -0.3191 O   0  0  0  0  0  0  0  0  0  0  0  0
    5.6244   -1.6942    0.6023 O   0  0  0  0  0  0  0  0  0  0  0  0
    5.3404   -2.0675    1.9390 C   0  0  2  0  0  0  0  0  0  0  0  0
    5.9243   -0.9061    2.7469 C   0  0  0  0  0  0  0  0  0  0  0  0
    6.0873   -3.3883    2.2962 C   0  0  0  0  0  0  0  0  0  0  0  0
    5.7881   -4.7639    1.6556 C   0  0  0  0  0  0  0  0  0  0  0  0
    4.4269   -5.4086    1.9674 C   0  0  1  0  0  0  0  0  0  0  0  0
    4.4006   -6.3667    3.2011 C   0  0  1  0  0  0  0  0  0  0  0  0
    5.0907   -5.8659    4.4889 C   0  0  0  0  0  0  0  0  0  0  0  0
    2.9616   -6.8480    3.4943 C   0  0  0  0  0  0  0  0  0  0  0  0
    2.0265   -5.6825    3.8361 C   0  0  0  0  0  0  0  0  0  0  0  0
    1.9847   -4.6629    2.6951 C   0  0  1  0  0  0  0  0  0  0  0  0
    1.8789   -3.1568    3.0010 C   0  0  1  0  0  0  0  0  0  0  0  0
    1.2513   -2.6812    4.3156 C   0  0  0  0  0  0  0  0  0  0  0  0
    3.3920   -3.1391    2.8459 C   0  0  2  0  0  0  0  0  0  0  0  0
    3.9558   -1.9861    2.2607 O   0  0  0  0  0  0  0  0  0  0  0  0
    3.2941   -4.3761    1.9430 C   0  0  1  0  0  0  0  0  0  0  0  0
    2.9226   -4.2230    0.5619 O   0  0  0  0  0  0  0  0  0  0  0  0
    2.8196   -2.7810    0.1449 O   0  0  0  0  0  0  0  0  0  0  0  0
    2.2042   -1.4958   -3.6706 H   0  0  0  0  0  0  0  0  0  0  0  0
    3.0483   -1.9399   -5.1137 H   0  0  0  0  0  0  0  0  0  0  0  0
    2.9923   -0.2501   -4.6315 H   0  0  0  0  0  0  0  0  0  0  0  0
    5.0816   -1.2713   -4.3504 H   0  0  0  0  0  0  0  0  0  0  0  0
    4.5011   -3.6413   -4.0184 H   0  0  0  0  0  0  0  0  0  0  0  0
    5.6685   -3.1157   -2.8519 H   0  0  0  0  0  0  0  0  0  0  0  0
    2.6600   -3.3757   -2.3572 H   0  0  0  0  0  0  0  0  0  0  0  0
    3.9391   -4.3959   -1.7110 H   0  0  0  0  0  0  0  0  0  0  0  0
    2.6564   -0.8381   -1.5120 H   0  0  0  0  0  0  0  0  0  0  0  0
    3.8411   -0.3295   -0.3411 H   0  0  0  0  0  0  0  0  0  0  0  0
    5.6562   -0.6439   -2.0202 H   0  0  0  0  0  0  0  0  0  0  0  0
    4.4490    0.4388   -2.6539 H   0  0  0  0  0  0  0  0  0  0  0  0
    5.4236    0.0340    2.5202 H   0  0  0  0  0  0  0  0  0  0  0  0
    6.9797   -0.7659    2.5170 H   0  0  0  0  0  0  0  0  0  0  0  0
    5.8053   -1.0830    3.8142 H   0  0  0  0  0  0  0  0  0  0  0  0
    7.1068   -3.2143    1.9914 H   0  0  0  0  0  0  0  0  0  0  0  0
    6.0617   -3.5180    3.3717 H   0  0  0  0  0  0  0  0  0  0  0  0
    5.9410   -4.7271    0.5796 H   0  0  0  0  0  0  0  0  0  0  0  0
    6.5561   -5.4544    1.9921 H   0  0  0  0  0  0  0  0  0  0  0  0
    4.2504   -6.0845    1.1229 H   0  0  0  0  0  0  0  0  0  0  0  0
    4.9689   -7.2492    2.9103 H   0  0  0  0  0  0  0  0  0  0  0  0
    4.6431   -4.9712    4.9108 H   0  0  0  0  0  0  0  0  0  0  0  0
    6.1497   -5.6635    4.3314 H   0  0  0  0  0  0  0  0  0  0  0  0
    5.0323   -6.6272    5.2656 H   0  0  0  0  0  0  0  0  0  0  0  0
    2.5807   -7.3696    2.6176 H   0  0  0  0  0  0  0  0  0  0  0  0
    2.9610   -7.5758    4.3063 H   0  0  0  0  0  0  0  0  0  0  0  0
    1.0240   -6.0531    4.0344 H   0  0  0  0  0  0  0  0  0  0  0  0
    2.3590   -5.2261    4.7620 H   0  0  0  0  0  0  0  0  0  0  0  0
    1.2493   -4.9526    1.9608 H   0  0  0  0  0  0  0  0  0  0  0  0
    1.4222   -2.6614    2.1494 H   0  0  0  0  0  0  0  0  0  0  0  0
    1.7720   -3.0874    5.1817 H   0  0  0  0  0  0  0  0  0  0  0  0
    0.2050   -2.9825    4.3938 H   0  0  0  0  0  0  0  0  0  0  0  0
    1.2924   -1.5961    4.4060 H   0  0  0  0  0  0  0  0  0  0  0  0
    3.8484   -3.3551    3.8002 H   0  0  0  0  0  0  0  0  0  0  0  0
  1  2  1  0
  1 27  1  0
  1 28  1  0
  1 29  1  0
  2  7  1  0
  2  3  1  0
  2 30  1  6
  3  4  1  0
  3 31  1  0
  3 32  1  0
  4  5  1  0
  4 33  1  0
  4 34  1  0
  5 26  1  1
  5  6  1  0
  5  8  1  0
  6  7  1  0
  6 35  1  0
  6 36  1  0
  7 37  1  0
  7 38  1  0
  8  9  1  0
  9 10  1  0
 10 23  1  0
 10 11  1  1
 10 12  1  0
 11 39  1  0
 11 40  1  0
 11 41  1  0
 12 13  1  0
 12 42  1  0
 12 43  1  0
 13 14  1  0
 13 44  1  0
 13 45  1  0
 14 24  1  0
 14 15  1  0
 14 46  1  6
 15 16  1  0
 15 17  1  0
 15 47  1  6
 16 48  1  0
 16 49  1  0
 16 50  1  0
 17 18  1  0
 17 51  1  0
 17 52  1  0
 18 19  1  0
 18 53  1  0
 18 54  1  0
 19 24  1  0
 19 20  1  0
 19 55  1  6
 20 21  1  0
 20 22  1  0
 20 56  1  6
 21 57  1  0
 21 58  1  0
 21 59  1  0
 22 23  1  0
 22 24  1  0
 22 60  1  1
 24 25  1  6
 25 26  1  0
M  END
>  <i_m_ct_stereo_status>  (260) 
1

>  <s_m_source_file>  (260) 
/var/tmp/pbs.5076255.sched01/tmpln0nb48r/86bqtw16pk.sdf

>  <i_m_source_file_index>  (260) 
42

>  <i_lp_mmshare_version>  (260) 
48012

>  <i_f3d_flags>  (260) 
0

>  <s_epik_input>  (260) 
W0NIMl0xW0NIMl1bQ0BIXShbQ0gzXSlbQ0gyXVtDSDJdW0NAXTEyT09bQ0BdMyhbQ0gzXSlbQ0gyXVtDSDJdW0NAQEhdNFtDQEBdNShPTzIpW0NASF0oW0NAQEhdKFtDSDNdKVtDQEBIXTVPMylbQ0gyXVtDSDJdW0NAQEhdNFtDSDNd

>  <s_epik_cmdline>  (260) 
J2VwaWtfcHl0aG9uJywgJy1waHQnLCAnMi4wJywgJy1waCcsICc3LjAnLCAnLXRuJywgJzgnLCAnLW1hJywgJzIwMCcsICctaW1hZScsICc8aW5maWxlLm1hZT4nLCAnLW9tYWUnLCAnPG91dGZpbGUubWFlPic=

>  <r_lp_tautomer_probability>  (260) 
1

>  <r_epik_Ionization_Penalty>  (260) 
1.73657e-14

>  <r_epik_Ionization_Penalty_Charging>  (260) 
0

>  <r_epik_Ionization_Penalty_Neutral>  (260) 
1.73657e-14

>  <r_epik_State_Penalty>  (260) 
-0

>  <r_epik_Charging_Adjusted_Penalty>  (260) 
0

>  <i_epik_Tot_Q>  (260) 
0

>  <i_epik_Tot_abs_Q>  (260) 
0

>  <s_lp_Force_Field>  (260) 
OPLS3e

>  <r_lp_Energy>  (260) 
56.7867

>  <b_lp_Chiralities_Consistent>  (260) 
1

>  <s_lp_Variant>  (260) 
84:0-2

>  <s_i_glide_gridfile>  (260) 
pfpi4k_grid

>  <i_i_glide_lignum>  (260) 
42

>  <i_i_glide_rotatable_bonds>  (260) 
0

>  <r_i_docking_score>  (260) 
-2.09148

>  <r_i_glide_ligand_efficiency>  (260) 
-0.0804417

>  <r_i_glide_ligand_efficiency_sa>  (260) 
-0.238308

>  <r_i_glide_ligand_efficiency_ln>  (260) 
-0.491178

>  <r_i_glide_gscore>  (260) 
-2.09148

>  <r_i_glide_lipo>  (260) 
-0.462333

>  <r_i_glide_hbond>  (260) 
0

>  <r_i_glide_metal>  (260) 
-0

>  <r_i_glide_rewards>  (260) 
-1.00845

>  <r_i_glide_evdw>  (260) 
-13.7576

>  <r_i_glide_ecoul>  (260) 
0.659322

>  <r_i_glide_erotb>  (260) 
0

>  <r_i_glide_esite>  (260) 
-0.0317166

>  <r_i_glide_emodel>  (260) 
-14.1731

>  <r_i_glide_energy>  (260) 
-13.0982

>  <r_i_glide_einternal>  (260) 
0

>  <r_i_glide_intrahb_reward>  (260) 
-0

>  <i_i_glide_confnum>  (260) 
1

>  <i_i_glide_posenum>  (260) 
7

>  <r_i_glide_eff_state_penalty>  (260) 
0

>  <ligand_id>  (260) 
84

>  <original_smiles>  (260) 
CC1CCC2(CC1)OOC1(C)CCC3C(C)CCC4C(C)C(O1)C34OO2

>  <smiles>  (260) 
[H]C([H])([H])C12OOC3(OOC45C([H])(O1)C([H])(C([H])([H])[H])C4([H])C([H])([H])C([H])([H])C([H])(C([H])([H])[H])C5([H])C([H])([H])C2([H])[H])C([H])([H])C([H])([H])C([H])(C([H])([H])[H])C([H])([H])C3([H])[H]

$$$$
85:0:0
     RDKit          3D

 26 28  0  0  1  0  0  0  0  0999 V2000
   -8.1704   -8.8669   -6.8948 C   0  0  0  0  0  0  0  0  0  0  0  0
   -6.9422   -9.1134   -6.3994 C   0  0  0  0  0  0  0  0  0  0  0  0
   -5.8297   -8.0718   -6.5743 C   0  0  2  0  0  0  0  0  0  0  0  0
   -5.4460   -8.3726   -8.0689 C   0  0  0  0  0  0  0  0  0  0  0  0
   -6.5640   -8.3373   -9.0840 N   0  0  0  0  0  0  0  0  0  0  0  0
   -7.7345   -7.4281   -8.9131 C   0  0  0  0  0  0  0  0  0  0  0  0
   -8.4000   -7.4987   -7.5171 C   0  0  2  0  0  0  0  0  0  0  0  0
   -7.7896   -6.4854   -6.5504 C   0  0  0  0  0  0  0  0  0  0  0  0
   -8.4483   -5.3266   -6.0957 C   0  0  0  0  0  0  0  0  0  0  0  0
   -7.7910   -4.5308   -5.1384 C   0  0  0  0  0  0  0  0  0  0  0  0
   -6.5166   -4.9169   -4.6864 C   0  0  0  0  0  0  0  0  0  0  0  0
   -5.8695   -6.0245   -5.1191 N   0  0  0  0  0  0  0  0  0  0  0  0
   -6.5102   -6.7972   -6.0338 C   0  0  0  0  0  0  0  0  0  0  0  0
   -8.9960   -9.5566   -6.7885 H   0  0  0  0  0  0  0  0  0  0  0  0
   -6.7014  -10.0319   -5.8826 H   0  0  0  0  0  0  0  0  0  0  0  0
   -5.7337   -7.1559   -7.1534 H   0  0  0  0  0  0  0  0  0  0  0  0
   -4.5824   -7.8151   -8.4574 H   0  0  0  0  0  0  0  0  0  0  0  0
   -5.0784   -9.4035   -8.0983 H   0  0  0  0  0  0  0  0  0  0  0  0
   -6.1467   -8.1391   -9.9859 H   0  0  0  0  0  0  0  0  0  0  0  0
   -7.4604   -6.3978   -9.1569 H   0  0  0  0  0  0  0  0  0  0  0  0
   -8.4707   -7.7396   -9.6616 H   0  0  0  0  0  0  0  0  0  0  0  0
   -9.4687   -7.3046   -7.5892 H   0  0  0  0  0  0  0  0  0  0  0  0
   -9.4400   -5.0737   -6.4321 H   0  0  0  0  0  0  0  0  0  0  0  0
   -8.2674   -3.6490   -4.7386 H   0  0  0  0  0  0  0  0  0  0  0  0
   -6.0053   -4.3228   -3.9434 H   0  0  0  0  0  0  0  0  0  0  0  0
   -6.9428   -9.2730   -9.1268 H   0  0  0  0  0  0  0  0  0  0  0  0
  1  7  1  0
  1  2  2  0
  1 14  1  0
  2  3  1  0
  2 15  1  0
  3 13  1  0
  3  4  1  0
  3 16  1  1
  4  5  1  0
  4 17  1  0
  4 18  1  0
  5  6  1  0
  5 19  1  0
  5 26  1  0
  6  7  1  0
  6 20  1  0
  6 21  1  0
  7  8  1  0
  7 22  1  6
  8 13  2  0
  8  9  1  0
  9 10  2  0
  9 23  1  0
 10 11  1  0
 10 24  1  0
 11 12  2  0
 11 25  1  0
 12 13  1  0
M  CHG  1   5   1
M  END
>  <i_m_ct_stereo_status>  (261) 
1

>  <s_m_source_file>  (261) 
/var/tmp/pbs.5076255.sched01/tmpln0nb48r/86bqtw16pk.sdf

>  <i_m_source_file_index>  (261) 
43

>  <i_lp_mmshare_version>  (261) 
48012

>  <i_f3d_flags>  (261) 
1

>  <s_epik_input>  (261) 
W0NIMl0xW05IXVtDSDJdW0NAQEhdKFtDSF09W0NIXTIpYyhjM1tDQEBIXTEyKVtjSF1bY0hdW2NIXW4z

>  <s_epik_cmdline>  (261) 
J2VwaWtfcHl0aG9uJywgJy1waHQnLCAnMi4wJywgJy1waCcsICc3LjAnLCAnLXRuJywgJzgnLCAnLW1hJywgJzIwMCcsICctaW1hZScsICc8aW5maWxlLm1hZT4nLCAnLW9tYWUnLCAnPG91dGZpbGUubWFlPic=

>  <r_epik_Ionization_Penalty>  (261) 
0.00614335

>  <r_epik_Ionization_Penalty_Charging>  (261) 
0.00605616

>  <r_epik_Ionization_Penalty_Neutral>  (261) 
8.71922e-05

>  <r_epik_State_Penalty>  (261) 
0.00207188

>  <r_epik_Charging_Adjusted_Penalty>  (261) 
0.00812804

>  <i_epik_Tot_Q>  (261) 
1

>  <i_epik_Tot_abs_Q>  (261) 
1

>  <s_lp_Force_Field>  (261) 
OPLS3e

>  <r_lp_Energy>  (261) 
112.854

>  <b_lp_Chiralities_Consistent>  (261) 
1

>  <s_lp_Variant>  (261) 
85:0-1

>  <s_i_glide_gridfile>  (261) 
pfpi4k_grid

>  <i_i_glide_lignum>  (261) 
43

>  <i_i_glide_rotatable_bonds>  (261) 
0

>  <r_i_docking_score>  (261) 
-6.43385

>  <r_i_glide_ligand_efficiency>  (261) 
-0.494912

>  <r_i_glide_ligand_efficiency_sa>  (261) 
-1.1637

>  <r_i_glide_ligand_efficiency_ln>  (261) 
-1.80475

>  <r_i_glide_gscore>  (261) 
-6.43385

>  <r_i_glide_lipo>  (261) 
-2.4002

>  <r_i_glide_hbond>  (261) 
0

>  <r_i_glide_metal>  (261) 
-0

>  <r_i_glide_rewards>  (261) 
-2.91961

>  <r_i_glide_evdw>  (261) 
-16.6953

>  <r_i_glide_ecoul>  (261) 
-1.86182

>  <r_i_glide_erotb>  (261) 
0

>  <r_i_glide_esite>  (261) 
0

>  <r_i_glide_emodel>  (261) 
-27.6764

>  <r_i_glide_energy>  (261) 
-18.5572

>  <r_i_glide_einternal>  (261) 
0

>  <r_i_glide_intrahb_reward>  (261) 
-0

>  <i_i_glide_confnum>  (261) 
1

>  <i_i_glide_posenum>  (261) 
3

>  <r_i_glide_eff_state_penalty>  (261) 
0

>  <ligand_id>  (261) 
85

>  <original_smiles>  (261) 
C1=CC2CNCC1c1cccnc12

>  <smiles>  (261) 
[H]C1=C([H])C2([H])c3c(nc([H])c([H])c3[H])C1([H])C([H])([H])[N+]([H])([H])C2([H])[H]

$$$$
85:0:1
     RDKit          3D

 26 28  0  0  1  0  0  0  0  0999 V2000
   -8.6671   -9.4741   -7.1573 C   0  0  0  0  0  0  0  0  0  0  0  0
   -7.7759   -9.9273   -6.2574 C   0  0  0  0  0  0  0  0  0  0  0  0
   -6.3833   -9.2828   -6.1606 C   0  0  2  0  0  0  0  0  0  0  0  0
   -5.6804  -10.0198   -7.3537 C   0  0  0  0  0  0  0  0  0  0  0  0
   -6.3919   -9.9270   -8.6778 N   0  0  0  0  0  0  0  0  0  0  0  0
   -7.1920   -8.7154   -9.0450 C   0  0  0  0  0  0  0  0  0  0  0  0
   -8.2451   -8.2804   -7.9942 C   0  0  2  0  0  0  0  0  0  0  0  0
   -7.6573   -7.2726   -7.0139 C   0  0  0  0  0  0  0  0  0  0  0  0
   -8.0170   -5.9131   -6.9621 C   0  0  0  0  0  0  0  0  0  0  0  0
   -7.4510   -5.1226   -5.9428 C   0  0  0  0  0  0  0  0  0  0  0  0
   -6.5579   -5.7221   -5.0333 C   0  0  0  0  0  0  0  0  0  0  0  0
   -6.1844   -7.0202   -5.0897 N   0  0  0  0  0  0  0  0  0  0  0  0
   -6.7377   -7.7819   -6.0635 C   0  0  0  0  0  0  0  0  0  0  0  0
   -9.6626   -9.8788   -7.2708 H   0  0  0  0  0  0  0  0  0  0  0  0
   -8.0094  -10.7383   -5.5864 H   0  0  0  0  0  0  0  0  0  0  0  0
   -5.8283   -8.5835   -6.7841 H   0  0  0  0  0  0  0  0  0  0  0  0
   -4.6079   -9.7988   -7.4795 H   0  0  0  0  0  0  0  0  0  0  0  0
   -5.6760  -11.0884   -7.1132 H   0  0  0  0  0  0  0  0  0  0  0  0
   -5.6978  -10.0275   -9.4030 H   0  0  0  0  0  0  0  0  0  0  0  0
   -6.5356   -7.8810   -9.3045 H   0  0  0  0  0  0  0  0  0  0  0  0
   -7.7244   -8.9790   -9.9612 H   0  0  0  0  0  0  0  0  0  0  0  0
   -9.1184   -7.8348   -8.4705 H   0  0  0  0  0  0  0  0  0  0  0  0
   -8.7199   -5.4925   -7.6624 H   0  0  0  0  0  0  0  0  0  0  0  0
   -7.7050   -4.0788   -5.8495 H   0  0  0  0  0  0  0  0  0  0  0  0
   -6.1292   -5.1378   -4.2334 H   0  0  0  0  0  0  0  0  0  0  0  0
   -7.0222  -10.7160   -8.7329 H   0  0  0  0  0  0  0  0  0  0  0  0
  1  7  1  0
  1  2  2  0
  1 14  1  0
  2  3  1  0
  2 15  1  0
  3 13  1  0
  3  4  1  0
  3 16  1  1
  4  5  1  0
  4 17  1  0
  4 18  1  0
  5  6  1  0
  5 19  1  0
  5 26  1  0
  6  7  1  0
  6 20  1  0
  6 21  1  0
  7  8  1  0
  7 22  1  6
  8 13  2  0
  8  9  1  0
  9 10  2  0
  9 23  1  0
 10 11  1  0
 10 24  1  0
 11 12  2  0
 11 25  1  0
 12 13  1  0
M  CHG  1   5   1
M  END
>  <i_m_ct_stereo_status>  (262) 
1

>  <s_m_source_file>  (262) 
/var/tmp/pbs.5076255.sched01/tmpln0nb48r/86bqtw16pk.sdf

>  <i_m_source_file_index>  (262) 
43

>  <i_lp_mmshare_version>  (262) 
48012

>  <i_f3d_flags>  (262) 
1

>  <s_epik_input>  (262) 
W0NIMl0xW05IXVtDSDJdW0NAQEhdKFtDSF09W0NIXTIpYyhjM1tDQEBIXTEyKVtjSF1bY0hdW2NIXW4z

>  <s_epik_cmdline>  (262) 
J2VwaWtfcHl0aG9uJywgJy1waHQnLCAnMi4wJywgJy1waCcsICc3LjAnLCAnLXRuJywgJzgnLCAnLW1hJywgJzIwMCcsICctaW1hZScsICc8aW5maWxlLm1hZT4nLCAnLW9tYWUnLCAnPG91dGZpbGUubWFlPic=

>  <r_epik_Ionization_Penalty>  (262) 
0.00614335

>  <r_epik_Ionization_Penalty_Charging>  (262) 
0.00605616

>  <r_epik_Ionization_Penalty_Neutral>  (262) 
8.71922e-05

>  <r_epik_State_Penalty>  (262) 
0.00207188

>  <r_epik_Charging_Adjusted_Penalty>  (262) 
0.00812804

>  <i_epik_Tot_Q>  (262) 
1

>  <i_epik_Tot_abs_Q>  (262) 
1

>  <s_lp_Force_Field>  (262) 
OPLS3e

>  <r_lp_Energy>  (262) 
112.854

>  <b_lp_Chiralities_Consistent>  (262) 
1

>  <s_lp_Variant>  (262) 
85:0-1

>  <s_i_glide_gridfile>  (262) 
pfpi4k_grid

>  <i_i_glide_lignum>  (262) 
43

>  <i_i_glide_rotatable_bonds>  (262) 
0

>  <r_i_docking_score>  (262) 
-5.80961

>  <r_i_glide_ligand_efficiency>  (262) 
-0.446893

>  <r_i_glide_ligand_efficiency_sa>  (262) 
-1.0508

>  <r_i_glide_ligand_efficiency_ln>  (262) 
-1.62965

>  <r_i_glide_gscore>  (262) 
-5.80961

>  <r_i_glide_lipo>  (262) 
-2.10007

>  <r_i_glide_hbond>  (262) 
0

>  <r_i_glide_metal>  (262) 
-0

>  <r_i_glide_rewards>  (262) 
-2.76961

>  <r_i_glide_evdw>  (262) 
-17.2257

>  <r_i_glide_ecoul>  (262) 
-0.524269

>  <r_i_glide_erotb>  (262) 
0

>  <r_i_glide_esite>  (262) 
0

>  <r_i_glide_emodel>  (262) 
-26.0052

>  <r_i_glide_energy>  (262) 
-17.75

>  <r_i_glide_einternal>  (262) 
0

>  <r_i_glide_intrahb_reward>  (262) 
-0

>  <i_i_glide_confnum>  (262) 
1

>  <i_i_glide_posenum>  (262) 
12

>  <r_i_glide_eff_state_penalty>  (262) 
0

>  <ligand_id>  (262) 
85

>  <original_smiles>  (262) 
C1=CC2CNCC1c1cccnc12

>  <smiles>  (262) 
[H]C1=C([H])C2([H])c3c(nc([H])c([H])c3[H])C1([H])C([H])([H])[N+]([H])([H])C2([H])[H]

$$$$
85:0:2
     RDKit          3D

 26 28  0  0  1  0  0  0  0  0999 V2000
    4.7852   -2.4630   -0.0675 C   0  0  0  0  0  0  0  0  0  0  0  0
    3.4493   -2.2884   -0.0687 C   0  0  0  0  0  0  0  0  0  0  0  0
    2.5381   -3.3784   -0.6530 C   0  0  2  0  0  0  0  0  0  0  0  0
    2.6423   -3.0528   -2.1828 C   0  0  0  0  0  0  0  0  0  0  0  0
    4.0407   -2.9852   -2.7337 N   0  0  0  0  0  0  0  0  0  0  0  0
    5.1283   -3.8411   -2.1567 C   0  0  0  0  0  0  0  0  0  0  0  0
    5.2909   -3.7880   -0.6088 C   0  0  2  0  0  0  0  0  0  0  0  0
    4.4479   -4.8557    0.0745 C   0  0  0  0  0  0  0  0  0  0  0  0
    4.9673   -6.0001    0.7042 C   0  0  0  0  0  0  0  0  0  0  0  0
    4.0557   -6.8608    1.3448 C   0  0  0  0  0  0  0  0  0  0  0  0
    2.6817   -6.5482    1.3167 C   0  0  0  0  0  0  0  0  0  0  0  0
    2.1634   -5.4649    0.6930 N   0  0  0  0  0  0  0  0  0  0  0  0
    3.0454   -4.6370    0.0792 C   0  0  0  0  0  0  0  0  0  0  0  0
    5.4889   -1.7440    0.3283 H   0  0  0  0  0  0  0  0  0  0  0  0
    2.9764   -1.3998    0.3202 H   0  0  0  0  0  0  0  0  0  0  0  0
    2.7316   -4.2646   -1.2469 H   0  0  0  0  0  0  0  0  0  0  0  0
    2.0098   -3.6581   -2.8516 H   0  0  0  0  0  0  0  0  0  0  0  0
    2.2512   -2.0404   -2.3201 H   0  0  0  0  0  0  0  0  0  0  0  0
    3.9841   -3.1958   -3.7195 H   0  0  0  0  0  0  0  0  0  0  0  0
    5.0153   -4.8731   -2.4959 H   0  0  0  0  0  0  0  0  0  0  0  0
    6.0632   -3.4837   -2.5997 H   0  0  0  0  0  0  0  0  0  0  0  0
    6.3292   -3.9368   -0.3208 H   0  0  0  0  0  0  0  0  0  0  0  0
    6.0265   -6.1978    0.7235 H   0  0  0  0  0  0  0  0  0  0  0  0
    4.4028   -7.7381    1.8632 H   0  0  0  0  0  0  0  0  0  0  0  0
    1.9729   -7.1860    1.8207 H   0  0  0  0  0  0  0  0  0  0  0  0
    4.3459   -2.0253   -2.6266 H   0  0  0  0  0  0  0  0  0  0  0  0
  1  7  1  0
  1  2  2  0
  1 14  1  0
  2  3  1  0
  2 15  1  0
  3 13  1  0
  3  4  1  0
  3 16  1  1
  4  5  1  0
  4 17  1  0
  4 18  1  0
  5  6  1  0
  5 19  1  0
  5 26  1  0
  6  7  1  0
  6 20  1  0
  6 21  1  0
  7  8  1  0
  7 22  1  6
  8 13  2  0
  8  9  1  0
  9 10  2  0
  9 23  1  0
 10 11  1  0
 10 24  1  0
 11 12  2  0
 11 25  1  0
 12 13  1  0
M  CHG  1   5   1
M  END
>  <i_m_ct_stereo_status>  (263) 
1

>  <s_m_source_file>  (263) 
/var/tmp/pbs.5076255.sched01/tmpln0nb48r/86bqtw16pk.sdf

>  <i_m_source_file_index>  (263) 
43

>  <i_lp_mmshare_version>  (263) 
48012

>  <i_f3d_flags>  (263) 
1

>  <s_epik_input>  (263) 
W0NIMl0xW05IXVtDSDJdW0NAQEhdKFtDSF09W0NIXTIpYyhjM1tDQEBIXTEyKVtjSF1bY0hdW2NIXW4z

>  <s_epik_cmdline>  (263) 
J2VwaWtfcHl0aG9uJywgJy1waHQnLCAnMi4wJywgJy1waCcsICc3LjAnLCAnLXRuJywgJzgnLCAnLW1hJywgJzIwMCcsICctaW1hZScsICc8aW5maWxlLm1hZT4nLCAnLW9tYWUnLCAnPG91dGZpbGUubWFlPic=

>  <r_epik_Ionization_Penalty>  (263) 
0.00614335

>  <r_epik_Ionization_Penalty_Charging>  (263) 
0.00605616

>  <r_epik_Ionization_Penalty_Neutral>  (263) 
8.71922e-05

>  <r_epik_State_Penalty>  (263) 
0.00207188

>  <r_epik_Charging_Adjusted_Penalty>  (263) 
0.00812804

>  <i_epik_Tot_Q>  (263) 
1

>  <i_epik_Tot_abs_Q>  (263) 
1

>  <s_lp_Force_Field>  (263) 
OPLS3e

>  <r_lp_Energy>  (263) 
112.854

>  <b_lp_Chiralities_Consistent>  (263) 
1

>  <s_lp_Variant>  (263) 
85:0-1

>  <s_i_glide_gridfile>  (263) 
pfpi4k_grid

>  <i_i_glide_lignum>  (263) 
43

>  <i_i_glide_rotatable_bonds>  (263) 
0

>  <r_i_docking_score>  (263) 
-3.92474

>  <r_i_glide_ligand_efficiency>  (263) 
-0.301903

>  <r_i_glide_ligand_efficiency_sa>  (263) 
-0.709876

>  <r_i_glide_ligand_efficiency_ln>  (263) 
-1.10093

>  <r_i_glide_gscore>  (263) 
-3.92474

>  <r_i_glide_lipo>  (263) 
-0.267382

>  <r_i_glide_hbond>  (263) 
-0.0151184

>  <r_i_glide_metal>  (263) 
-0

>  <r_i_glide_rewards>  (263) 
-2.22795

>  <r_i_glide_evdw>  (263) 
-15.3116

>  <r_i_glide_ecoul>  (263) 
-4.28694

>  <r_i_glide_erotb>  (263) 
0

>  <r_i_glide_esite>  (263) 
-0.0056723

>  <r_i_glide_emodel>  (263) 
-25.1542

>  <r_i_glide_energy>  (263) 
-19.5986

>  <r_i_glide_einternal>  (263) 
0

>  <r_i_glide_intrahb_reward>  (263) 
-0

>  <i_i_glide_confnum>  (263) 
1

>  <i_i_glide_posenum>  (263) 
1

>  <r_i_glide_eff_state_penalty>  (263) 
0

>  <ligand_id>  (263) 
85

>  <original_smiles>  (263) 
C1=CC2CNCC1c1cccnc12

>  <smiles>  (263) 
[H]C1=C([H])C2([H])c3c(nc([H])c([H])c3[H])C1([H])C([H])([H])[N+]([H])([H])C2([H])[H]

$$$$
87:0:0
     RDKit          3D

 58 65  0  0  1  0  0  0  0  0999 V2000
    5.5463   -4.1658    3.4201 C   0  0  0  0  0  0  0  0  0  0  0  0
    5.6250   -2.7731    3.1582 O   0  0  0  0  0  0  0  0  0  0  0  0
    4.5570   -1.8964    3.5604 C   0  0  2  0  0  0  0  0  0  0  0  0
    4.2130   -1.9165    5.0817 C   0  0  1  0  0  0  0  0  0  0  0  0
    4.5115   -0.5275    5.6277 C   0  0  0  0  0  0  0  0  0  0  0  0
    4.3258    0.3594    4.4013 C   0  0  2  0  0  0  0  0  0  0  0  0
    2.9691    0.7091    4.1307 O   0  0  0  0  0  0  0  0  0  0  0  0
    1.9565   -0.1686    3.8464 C   0  0  0  0  0  0  0  0  0  0  0  0
    0.8353    0.2439    3.5338 O   0  0  0  0  0  0  0  0  0  0  0  0
    2.2133   -1.7041    3.9186 C   0  0  2  0  0  0  0  0  0  0  0  0
    0.8703   -2.4624    3.8676 C   0  0  0  0  0  0  0  0  0  0  0  0
    2.8002   -2.0631    5.1687 O   0  0  0  0  0  0  0  0  0  0  0  0
    3.2323   -2.2689    2.9055 C   0  0  1  0  0  0  0  0  0  0  0  0
    3.0850   -1.8771    1.4294 C   0  0  2  0  0  0  0  0  0  0  0  0
    2.2469   -2.8297    0.6876 O   0  0  0  0  0  0  0  0  0  0  0  0
    3.3255   -3.4910   -0.0606 C   0  0  1  0  0  0  0  0  0  0  0  0
    3.5746   -4.9006    0.4201 C   0  0  0  0  0  0  0  0  0  0  0  0
    3.5520   -3.2893   -1.5555 C   0  0  2  0  0  0  0  0  0  0  0  0
    5.0446   -3.6216   -1.9014 C   0  0  1  0  0  0  0  0  0  0  0  0
    5.2890   -2.8929   -3.2184 C   0  0  0  0  0  0  0  0  0  0  0  0
    4.4050   -1.6276   -3.1467 C   0  0  1  0  0  0  0  0  0  0  0  0
    3.5149   -1.4813   -4.3794 C   0  0  0  0  0  0  0  0  0  0  0  0
    3.5868   -1.8113   -1.8687 C   0  0  2  0  0  0  0  0  0  0  0  0
    4.3041   -1.3238   -0.6276 C   0  0  2  0  0  0  0  0  0  0  0  0
    5.4994   -2.0160   -0.1217 C   0  0  2  0  0  0  0  0  0  0  0  0
    6.3972   -1.2719    0.6810 O   0  0  0  0  0  0  0  0  0  0  0  0
    6.0071   -3.0819   -0.9564 O   0  0  0  0  0  0  0  0  0  0  0  0
    4.1446   -2.3826    0.4779 C   0  0  2  0  0  0  0  0  0  0  0  0
    4.9077   -0.4230    3.2499 C   0  0  1  0  0  0  0  0  0  0  0  0
    6.2828   -0.2422    3.3935 O   0  0  0  0  0  0  0  0  0  0  0  0
    6.5220   -4.6540    3.4286 H   0  0  0  0  0  0  0  0  0  0  0  0
    5.0079   -4.6039    2.5842 H   0  0  0  0  0  0  0  0  0  0  0  0
    5.0258   -4.4195    4.3337 H   0  0  0  0  0  0  0  0  0  0  0  0
    4.7101   -2.7029    5.6505 H   0  0  0  0  0  0  0  0  0  0  0  0
    3.8704   -0.2497    6.4646 H   0  0  0  0  0  0  0  0  0  0  0  0
    5.5484   -0.4999    5.9753 H   0  0  0  0  0  0  0  0  0  0  0  0
    4.9062    1.2732    4.5482 H   0  0  0  0  0  0  0  0  0  0  0  0
    0.3664   -2.2958    2.9111 H   0  0  0  0  0  0  0  0  0  0  0  0
    0.2051   -2.1154    4.6635 H   0  0  0  0  0  0  0  0  0  0  0  0
    1.0029   -3.5401    3.9987 H   0  0  0  0  0  0  0  0  0  0  0  0
    3.1153   -3.3466    2.9706 H   0  0  0  0  0  0  0  0  0  0  0  0
    2.7632   -0.8561    1.2260 H   0  0  0  0  0  0  0  0  0  0  0  0
    4.6431   -5.1489    0.4401 H   0  0  0  0  0  0  0  0  0  0  0  0
    3.0886   -5.6220   -0.2474 H   0  0  0  0  0  0  0  0  0  0  0  0
    3.1506   -5.0180    1.4143 H   0  0  0  0  0  0  0  0  0  0  0  0
    2.8534   -3.8157   -2.2008 H   0  0  0  0  0  0  0  0  0  0  0  0
    5.2212   -4.6879   -2.0071 H   0  0  0  0  0  0  0  0  0  0  0  0
    6.3541   -2.6848   -3.3602 H   0  0  0  0  0  0  0  0  0  0  0  0
    4.9673   -3.5577   -4.0244 H   0  0  0  0  0  0  0  0  0  0  0  0
    4.9935   -0.7155   -3.0521 H   0  0  0  0  0  0  0  0  0  0  0  0
    2.8723   -2.3543   -4.5042 H   0  0  0  0  0  0  0  0  0  0  0  0
    4.1314   -1.3582   -5.2639 H   0  0  0  0  0  0  0  0  0  0  0  0
    2.8826   -0.5980   -4.3147 H   0  0  0  0  0  0  0  0  0  0  0  0
    2.6115   -1.3353   -1.9446 H   0  0  0  0  0  0  0  0  0  0  0  0
    4.2011   -0.2736   -0.3901 H   0  0  0  0  0  0  0  0  0  0  0  0
    6.5483   -1.7973    1.4574 H   0  0  0  0  0  0  0  0  0  0  0  0
    4.5824   -0.0326    2.2780 H   0  0  0  0  0  0  0  0  0  0  0  0
    6.6612    0.0493    2.5721 H   0  0  0  0  0  0  0  0  0  0  0  0
  1  2  1  0
  1 31  1  0
  1 32  1  0
  1 33  1  0
  3  2  1  1
  3 13  1  0
  3 29  1  0
  3  4  1  0
  4 12  1  0
  4  5  1  0
  4 34  1  1
  5  6  1  0
  5 35  1  0
  5 36  1  0
  6  7  1  0
  6 29  1  0
  6 37  1  1
  7  8  1  0
  8  9  2  0
  8 10  1  0
 10 11  1  6
 10 12  1  0
 10 13  1  0
 11 38  1  0
 11 39  1  0
 11 40  1  0
 13 14  1  0
 13 41  1  6
 14 28  1  0
 14 15  1  0
 14 42  1  1
 15 16  1  0
 16 28  1  0
 16 17  1  1
 16 18  1  0
 17 43  1  0
 17 44  1  0
 17 45  1  0
 18 23  1  0
 18 19  1  0
 18 46  1  6
 19 27  1  0
 19 20  1  0
 19 47  1  6
 20 21  1  0
 20 48  1  0
 20 49  1  0
 21 22  1  0
 21 23  1  0
 21 50  1  1
 22 51  1  0
 22 52  1  0
 22 53  1  0
 23 24  1  0
 23 54  1  6
 24 28  1  0
 24 25  1  0
 24 55  1  1
 25 26  1  1
 25 27  1  0
 28 25  1  1
 26 56  1  0
 29 30  1  0
 29 57  1  6
 30 58  1  0
M  END
>  <i_m_ct_stereo_status>  (264) 
1

>  <s_m_source_file>  (264) 
/var/tmp/pbs.5076255.sched01/tmpg3p38p3m/129jed2w9rh.sdf

>  <i_m_source_file_index>  (264) 
2

>  <i_lp_mmshare_version>  (264) 
48012

>  <i_f3d_flags>  (264) 
2

>  <s_epik_input>  (264) 
W0NIM11PW0NAXTEyW0NASF0zW0NIMl1bQ0BASF0oW0NASF0yW09IXSlPQyg9TylbQ0BAXShPMykoW0NIM10pW0NASF0xW0NAQEhdNE9bQ0BAXShbQ0BAXTQ1NikoW0NIM10pW0NAQEhdN1tDQEhdOFtDSDJdW0NAQEhdKFtDSDNdKVtDQEBIXTdbQ0BIXTVDNihPOClbT0hd

>  <s_epik_cmdline>  (264) 
J2VwaWtfcHl0aG9uJywgJy1waHQnLCAnMi4wJywgJy1waCcsICc3LjAnLCAnLXRuJywgJzgnLCAnLW1hJywgJzIwMCcsICctaW1hZScsICc8aW5maWxlLm1hZT4nLCAnLW9tYWUnLCAnPG91dGZpbGUubWFlPic=

>  <r_lp_tautomer_probability>  (264) 
1

>  <r_epik_Ionization_Penalty>  (264) 
6.39476e-05

>  <r_epik_Ionization_Penalty_Charging>  (264) 
0

>  <r_epik_Ionization_Penalty_Neutral>  (264) 
6.39476e-05

>  <r_epik_State_Penalty>  (264) 
-0

>  <r_epik_Charging_Adjusted_Penalty>  (264) 
0

>  <i_epik_Tot_Q>  (264) 
0

>  <i_epik_Tot_abs_Q>  (264) 
0

>  <s_epik_Chemistry_Notes>  (264) 
This compound has an ester and may undergo hydrolysis at high or low pH.

>  <s_lp_Force_Field>  (264) 
OPLS3e

>  <r_lp_Energy>  (264) 
84.1881

>  <b_lp_Chiralities_Consistent>  (264) 
0

>  <s_lp_Variant>  (264) 
87:0-1

>  <s_i_glide_gridfile>  (264) 
pfpi4k_grid

>  <i_i_glide_lignum>  (264) 
2

>  <i_i_glide_rotatable_bonds>  (264) 
4

>  <r_i_docking_score>  (264) 
-2.68017

>  <r_i_glide_ligand_efficiency>  (264) 
-0.089339

>  <r_i_glide_ligand_efficiency_sa>  (264) 
-0.277597

>  <r_i_glide_ligand_efficiency_ln>  (264) 
-0.608964

>  <r_i_glide_gscore>  (264) 
-2.68017

>  <r_i_glide_lipo>  (264) 
-0.505862

>  <r_i_glide_hbond>  (264) 
-0.00611487

>  <r_i_glide_metal>  (264) 
-0

>  <r_i_glide_rewards>  (264) 
-1.04237

>  <r_i_glide_evdw>  (264) 
-19.1223

>  <r_i_glide_ecoul>  (264) 
-1.82697

>  <r_i_glide_erotb>  (264) 
0.111961

>  <r_i_glide_esite>  (264) 
-0.00762927

>  <r_i_glide_emodel>  (264) 
-27.8522

>  <r_i_glide_energy>  (264) 
-20.9493

>  <r_i_glide_einternal>  (264) 
2.57244

>  <r_i_glide_intrahb_reward>  (264) 
-0.5

>  <i_i_glide_confnum>  (264) 
1

>  <i_i_glide_posenum>  (264) 
23

>  <r_i_glide_eff_state_penalty>  (264) 
0

>  <ligand_id>  (264) 
87

>  <original_smiles>  (264) 
COC12C3CC(OC(=O)C(C)(O3)C1C1OC3(C)C4C5CC(C)C4C4C(O)(O5)C143)C2O

>  <smiles>  (264) 
[H]OC1([H])C2([H])OC(=O)C3(C([H])([H])[H])OC([H])(C2([H])[H])C1(OC([H])([H])[H])C3([H])C1([H])OC2(C([H])([H])[H])C3([H])C4([H])OC5(O[H])C([H])(C3([H])C([H])(C([H])([H])[H])C4([H])[H])C152

$$$$
87:0:1
     RDKit          3D

 58 65  0  0  1  0  0  0  0  0999 V2000
    2.9182    1.9820    4.4957 C   0  0  0  0  0  0  0  0  0  0  0  0
    1.6674    1.7810    3.8443 O   0  0  0  0  0  0  0  0  0  0  0  0
    0.4666    2.2711    4.4587 C   0  0  2  0  0  0  0  0  0  0  0  0
    0.4340    3.8052    4.7109 C   0  0  1  0  0  0  0  0  0  0  0  0
   -0.6908    4.3860    3.8725 C   0  0  0  0  0  0  0  0  0  0  0  0
   -1.6473    3.2100    3.7397 C   0  0  2  0  0  0  0  0  0  0  0  0
   -2.4985    3.0544    4.8785 O   0  0  0  0  0  0  0  0  0  0  0  0
   -2.1206    2.8057    6.1768 C   0  0  0  0  0  0  0  0  0  0  0  0
   -2.9580    2.5685    7.0440 O   0  0  0  0  0  0  0  0  0  0  0  0
   -0.6044    2.8040    6.5468 C   0  0  2  0  0  0  0  0  0  0  0  0
   -0.4249    2.8304    8.0838 C   0  0  0  0  0  0  0  0  0  0  0  0
    0.0354    3.9791    6.0678 O   0  0  0  0  0  0  0  0  0  0  0  0
    0.2354    1.7013    5.8735 C   0  0  1  0  0  0  0  0  0  0  0  0
   -0.3143    0.2530    5.9758 C   0  0  2  0  0  0  0  0  0  0  0  0
   -0.1803   -0.3331    7.3223 O   0  0  0  0  0  0  0  0  0  0  0  0
    0.9793   -1.1850    7.0255 C   0  0  1  0  0  0  0  0  0  0  0  0
    2.2794   -0.6290    7.6025 C   0  0  0  0  0  0  0  0  0  0  0  0
    0.8874   -2.7132    6.9567 C   0  0  2  0  0  0  0  0  0  0  0  0
    2.0739   -3.2674    6.1036 C   0  0  1  0  0  0  0  0  0  0  0  0
    1.5914   -4.6542    5.6725 C   0  0  0  0  0  0  0  0  0  0  0  0
    0.0702   -4.5106    5.4968 C   0  0  1  0  0  0  0  0  0  0  0  0
   -0.7084   -5.6044    6.2439 C   0  0  0  0  0  0  0  0  0  0  0  0
   -0.2560   -3.0987    6.0268 C   0  0  2  0  0  0  0  0  0  0  0  0
   -0.1075   -2.0003    4.9996 C   0  0  2  0  0  0  0  0  0  0  0  0
    1.2428   -1.6175    4.4790 C   0  0  2  0  0  0  0  0  0  0  0  0
    1.3054   -0.9509    3.2368 O   0  0  0  0  0  0  0  0  0  0  0  0
    2.3180   -2.4797    4.9037 O   0  0  0  0  0  0  0  0  0  0  0  0
    0.6590   -0.8317    5.6359 C   0  0  2  0  0  0  0  0  0  0  0  0
   -0.7419    1.9966    3.5244 C   0  0  1  0  0  0  0  0  0  0  0  0
   -0.3886    1.9332    2.1544 O   0  0  0  0  0  0  0  0  0  0  0  0
    3.7207    1.8062    3.7769 H   0  0  0  0  0  0  0  0  0  0  0  0
    3.0563    1.2694    5.3084 H   0  0  0  0  0  0  0  0  0  0  0  0
    3.0542    2.9893    4.8860 H   0  0  0  0  0  0  0  0  0  0  0  0
    1.3697    4.3312    4.5219 H   0  0  0  0  0  0  0  0  0  0  0  0
   -1.1310    5.2732    4.3243 H   0  0  0  0  0  0  0  0  0  0  0  0
   -0.3079    4.6708    2.8922 H   0  0  0  0  0  0  0  0  0  0  0  0
   -2.2965    3.3562    2.8742 H   0  0  0  0  0  0  0  0  0  0  0  0
   -0.8362    1.9384    8.5628 H   0  0  0  0  0  0  0  0  0  0  0  0
   -0.9287    3.6936    8.5228 H   0  0  0  0  0  0  0  0  0  0  0  0
    0.6264    2.9006    8.3691 H   0  0  0  0  0  0  0  0  0  0  0  0
    1.1875    1.7354    6.3937 H   0  0  0  0  0  0  0  0  0  0  0  0
   -1.3335    0.1033    5.6113 H   0  0  0  0  0  0  0  0  0  0  0  0
    3.1447   -0.8741    6.9811 H   0  0  0  0  0  0  0  0  0  0  0  0
    2.4586   -1.0443    8.5922 H   0  0  0  0  0  0  0  0  0  0  0  0
    2.2539    0.4518    7.7152 H   0  0  0  0  0  0  0  0  0  0  0  0
    0.8140   -3.1955    7.9295 H   0  0  0  0  0  0  0  0  0  0  0  0
    2.9966   -3.3392    6.6758 H   0  0  0  0  0  0  0  0  0  0  0  0
    2.0912   -5.0038    4.7665 H   0  0  0  0  0  0  0  0  0  0  0  0
    1.8184   -5.3715    6.4602 H   0  0  0  0  0  0  0  0  0  0  0  0
   -0.1781   -4.5729    4.4382 H   0  0  0  0  0  0  0  0  0  0  0  0
   -0.5135   -5.5701    7.3148 H   0  0  0  0  0  0  0  0  0  0  0  0
   -0.4385   -6.5984    5.8865 H   0  0  0  0  0  0  0  0  0  0  0  0
   -1.7817   -5.4846    6.1049 H   0  0  0  0  0  0  0  0  0  0  0  0
   -1.2415   -3.0260    6.4928 H   0  0  0  0  0  0  0  0  0  0  0  0
   -0.9367   -1.8334    4.3259 H   0  0  0  0  0  0  0  0  0  0  0  0
    1.9423   -0.2532    3.3061 H   0  0  0  0  0  0  0  0  0  0  0  0
   -1.2669    1.0668    3.7203 H   0  0  0  0  0  0  0  0  0  0  0  0
   -0.1557    2.7943    1.8226 H   0  0  0  0  0  0  0  0  0  0  0  0
  1  2  1  0
  1 31  1  0
  1 32  1  0
  1 33  1  0
  3  2  1  6
  3 13  1  0
  3 29  1  0
  3  4  1  0
  4 12  1  0
  4  5  1  0
  4 34  1  1
  5  6  1  0
  5 35  1  0
  5 36  1  0
  6  7  1  0
  6 29  1  0
  6 37  1  6
  7  8  1  0
  8  9  2  0
  8 10  1  0
 10 11  1  1
 10 12  1  0
 10 13  1  0
 11 38  1  0
 11 39  1  0
 11 40  1  0
 13 14  1  0
 13 41  1  1
 14 28  1  0
 14 15  1  0
 14 42  1  6
 15 16  1  0
 16 28  1  0
 16 17  1  1
 16 18  1  0
 17 43  1  0
 17 44  1  0
 17 45  1  0
 18 23  1  0
 18 19  1  0
 18 46  1  1
 19 27  1  0
 19 20  1  0
 19 47  1  1
 20 21  1  0
 20 48  1  0
 20 49  1  0
 21 22  1  0
 21 23  1  0
 21 50  1  6
 22 51  1  0
 22 52  1  0
 22 53  1  0
 23 24  1  0
 23 54  1  1
 24 28  1  0
 24 25  1  0
 24 55  1  6
 25 26  1  6
 25 27  1  0
 28 25  1  6
 26 56  1  0
 29 30  1  0
 29 57  1  1
 30 58  1  0
M  END
>  <i_m_ct_stereo_status>  (265) 
1

>  <s_m_source_file>  (265) 
/var/tmp/pbs.5076255.sched01/tmpg3p38p3m/129jed2w9rh.sdf

>  <i_m_source_file_index>  (265) 
2

>  <i_lp_mmshare_version>  (265) 
48012

>  <i_f3d_flags>  (265) 
2

>  <s_epik_input>  (265) 
W0NIM11PW0NAXTEyW0NASF0zW0NIMl1bQ0BASF0oW0NASF0yW09IXSlPQyg9TylbQ0BAXShPMykoW0NIM10pW0NASF0xW0NAQEhdNE9bQ0BAXShbQ0BAXTQ1NikoW0NIM10pW0NAQEhdN1tDQEhdOFtDSDJdW0NAQEhdKFtDSDNdKVtDQEBIXTdbQ0BIXTVDNihPOClbT0hd

>  <s_epik_cmdline>  (265) 
J2VwaWtfcHl0aG9uJywgJy1waHQnLCAnMi4wJywgJy1waCcsICc3LjAnLCAnLXRuJywgJzgnLCAnLW1hJywgJzIwMCcsICctaW1hZScsICc8aW5maWxlLm1hZT4nLCAnLW9tYWUnLCAnPG91dGZpbGUubWFlPic=

>  <r_lp_tautomer_probability>  (265) 
1

>  <r_epik_Ionization_Penalty>  (265) 
6.39476e-05

>  <r_epik_Ionization_Penalty_Charging>  (265) 
0

>  <r_epik_Ionization_Penalty_Neutral>  (265) 
6.39476e-05

>  <r_epik_State_Penalty>  (265) 
-0

>  <r_epik_Charging_Adjusted_Penalty>  (265) 
0

>  <i_epik_Tot_Q>  (265) 
0

>  <i_epik_Tot_abs_Q>  (265) 
0

>  <s_epik_Chemistry_Notes>  (265) 
This compound has an ester and may undergo hydrolysis at high or low pH.

>  <s_lp_Force_Field>  (265) 
OPLS3e

>  <r_lp_Energy>  (265) 
84.1881

>  <b_lp_Chiralities_Consistent>  (265) 
0

>  <s_lp_Variant>  (265) 
87:0-1

>  <s_i_glide_gridfile>  (265) 
pfpi4k_grid

>  <i_i_glide_lignum>  (265) 
2

>  <i_i_glide_rotatable_bonds>  (265) 
4

>  <r_i_docking_score>  (265) 
-2.57041

>  <r_i_glide_ligand_efficiency>  (265) 
-0.0856804

>  <r_i_glide_ligand_efficiency_sa>  (265) 
-0.266229

>  <r_i_glide_ligand_efficiency_ln>  (265) 
-0.584026

>  <r_i_glide_gscore>  (265) 
-2.57041

>  <r_i_glide_lipo>  (265) 
-0.0554326

>  <r_i_glide_hbond>  (265) 
0

>  <r_i_glide_metal>  (265) 
-0

>  <r_i_glide_rewards>  (265) 
-1.15848

>  <r_i_glide_evdw>  (265) 
-19.0748

>  <r_i_glide_ecoul>  (265) 
-3.43152

>  <r_i_glide_erotb>  (265) 
0.111961

>  <r_i_glide_esite>  (265) 
0

>  <r_i_glide_emodel>  (265) 
-31.3867

>  <r_i_glide_energy>  (265) 
-22.5063

>  <r_i_glide_einternal>  (265) 
0.250511

>  <r_i_glide_intrahb_reward>  (265) 
-0.5

>  <i_i_glide_confnum>  (265) 
3

>  <i_i_glide_posenum>  (265) 
8

>  <r_i_glide_eff_state_penalty>  (265) 
0

>  <ligand_id>  (265) 
87

>  <original_smiles>  (265) 
COC12C3CC(OC(=O)C(C)(O3)C1C1OC3(C)C4C5CC(C)C4C4C(O)(O5)C143)C2O

>  <smiles>  (265) 
[H]OC1([H])C2([H])OC(=O)C3(C([H])([H])[H])OC([H])(C2([H])[H])C1(OC([H])([H])[H])C3([H])C1([H])OC2(C([H])([H])[H])C3([H])C4([H])OC5(O[H])C([H])(C3([H])C([H])(C([H])([H])[H])C4([H])[H])C152

$$$$
87:0:2
     RDKit          3D

 58 65  0  0  1  0  0  0  0  0999 V2000
    5.3748   -3.7622    4.8243 C   0  0  0  0  0  0  0  0  0  0  0  0
    5.2728   -2.3820    4.4837 O   0  0  0  0  0  0  0  0  0  0  0  0
    4.0031   -1.7189    4.6296 C   0  0  2  0  0  0  0  0  0  0  0  0
    3.3889   -1.7653    6.0596 C   0  0  1  0  0  0  0  0  0  0  0  0
    3.3079   -0.3393    6.5699 C   0  0  0  0  0  0  0  0  0  0  0  0
    3.1949    0.4666    5.2848 C   0  0  2  0  0  0  0  0  0  0  0  0
    1.8726    0.5185    4.7549 O   0  0  0  0  0  0  0  0  0  0  0  0
    1.0944   -0.5406    4.3613 C   0  0  0  0  0  0  0  0  0  0  0  0
   -0.0048   -0.3606    3.8489 O   0  0  0  0  0  0  0  0  0  0  0  0
    1.6259   -1.9932    4.5612 C   0  0  2  0  0  0  0  0  0  0  0  0
    0.4868   -3.0078    4.3282 C   0  0  0  0  0  0  0  0  0  0  0  0
    2.0448   -2.2015    5.9016 O   0  0  0  0  0  0  0  0  0  0  0  0
    2.8981   -2.3512    3.7748 C   0  0  1  0  0  0  0  0  0  0  0  0
    2.9005   -2.0192    2.2613 C   0  0  2  0  0  0  0  0  0  0  0  0
    2.3269   -3.1058    1.4475 O   0  0  0  0  0  0  0  0  0  0  0  0
    3.5960   -3.6290    0.9164 C   0  0  1  0  0  0  0  0  0  0  0  0
    3.9869   -4.9425    1.5722 C   0  0  0  0  0  0  0  0  0  0  0  0
    4.0323   -3.4610   -0.5454 C   0  0  2  0  0  0  0  0  0  0  0  0
    5.5894   -3.6000   -0.6356 C   0  0  1  0  0  0  0  0  0  0  0  0
    5.9433   -2.9055   -1.9522 C   0  0  0  0  0  0  0  0  0  0  0  0
    4.9177   -1.7645   -2.0918 C   0  0  1  0  0  0  0  0  0  0  0  0
    4.2204   -1.7716   -3.4614 C   0  0  0  0  0  0  0  0  0  0  0  0
    3.9203   -1.9987   -0.9388 C   0  0  2  0  0  0  0  0  0  0  0  0
    4.3325   -1.3713    0.3741 C   0  0  2  0  0  0  0  0  0  0  0  0
    5.5177   -1.8967    1.1268 C   0  0  2  0  0  0  0  0  0  0  0  0
    6.1461   -1.0465    2.0437 O   0  0  0  0  0  0  0  0  0  0  0  0
    6.2877   -2.8963    0.4273 O   0  0  0  0  0  0  0  0  0  0  0  0
    4.1342   -2.3953    1.5015 C   0  0  2  0  0  0  0  0  0  0  0  0
    4.1636   -0.2087    4.3237 C   0  0  1  0  0  0  0  0  0  0  0  0
    5.4421    0.2750    4.6724 O   0  0  0  0  0  0  0  0  0  0  0  0
    6.4157   -4.0474    4.9533 H   0  0  0  0  0  0  0  0  0  0  0  0
    4.9924   -4.3841    4.0245 H   0  0  0  0  0  0  0  0  0  0  0  0
    4.8630   -4.0388    5.7440 H   0  0  0  0  0  0  0  0  0  0  0  0
    3.9096   -2.4039    6.7717 H   0  0  0  0  0  0  0  0  0  0  0  0
    2.4835   -0.1767    7.2648 H   0  0  0  0  0  0  0  0  0  0  0  0
    4.2351   -0.0941    7.0872 H   0  0  0  0  0  0  0  0  0  0  0  0
    3.5121    1.4950    5.4746 H   0  0  0  0  0  0  0  0  0  0  0  0
    0.1474   -2.9670    3.2921 H   0  0  0  0  0  0  0  0  0  0  0  0
   -0.3691   -2.7989    4.9750 H   0  0  0  0  0  0  0  0  0  0  0  0
    0.7976   -4.0356    4.5349 H   0  0  0  0  0  0  0  0  0  0  0  0
    2.9819   -3.4312    3.8725 H   0  0  0  0  0  0  0  0  0  0  0  0
    2.4566   -1.0548    1.9789 H   0  0  0  0  0  0  0  0  0  0  0  0
    5.0715   -5.0402    1.6801 H   0  0  0  0  0  0  0  0  0  0  0  0
    3.6358   -5.7826    0.9777 H   0  0  0  0  0  0  0  0  0  0  0  0
    3.5321   -5.0516    2.5519 H   0  0  0  0  0  0  0  0  0  0  0  0
    3.5185   -4.1214   -1.2356 H   0  0  0  0  0  0  0  0  0  0  0  0
    5.9106   -4.6381   -0.6360 H   0  0  0  0  0  0  0  0  0  0  0  0
    6.9792   -2.5579   -1.9752 H   0  0  0  0  0  0  0  0  0  0  0  0
    5.8304   -3.6234   -2.7647 H   0  0  0  0  0  0  0  0  0  0  0  0
    5.4069   -0.8011   -1.9565 H   0  0  0  0  0  0  0  0  0  0  0  0
    3.6824   -2.7052   -3.6247 H   0  0  0  0  0  0  0  0  0  0  0  0
    4.9331   -1.6432   -4.2702 H   0  0  0  0  0  0  0  0  0  0  0  0
    3.4971   -0.9601   -3.5337 H   0  0  0  0  0  0  0  0  0  0  0  0
    2.9015   -1.6929   -1.1819 H   0  0  0  0  0  0  0  0  0  0  0  0
    4.1017   -0.3278    0.5128 H   0  0  0  0  0  0  0  0  0  0  0  0
    6.3484   -1.5432    2.8245 H   0  0  0  0  0  0  0  0  0  0  0  0
    3.9695    0.0731    3.2857 H   0  0  0  0  0  0  0  0  0  0  0  0
    5.5244    1.1431    4.3180 H   0  0  0  0  0  0  0  0  0  0  0  0
  1  2  1  0
  1 31  1  0
  1 32  1  0
  1 33  1  0
  3  2  1  1
  3 13  1  0
  3 29  1  0
  3  4  1  0
  4 12  1  0
  4  5  1  0
  4 34  1  1
  5  6  1  0
  5 35  1  0
  5 36  1  0
  6  7  1  0
  6 29  1  0
  6 37  1  1
  7  8  1  0
  8  9  2  0
  8 10  1  0
 10 11  1  6
 10 12  1  0
 10 13  1  0
 11 38  1  0
 11 39  1  0
 11 40  1  0
 13 14  1  0
 13 41  1  6
 14 28  1  0
 14 15  1  0
 14 42  1  1
 15 16  1  0
 16 28  1  0
 16 17  1  1
 16 18  1  0
 17 43  1  0
 17 44  1  0
 17 45  1  0
 18 23  1  0
 18 19  1  0
 18 46  1  6
 19 27  1  0
 19 20  1  0
 19 47  1  6
 20 21  1  0
 20 48  1  0
 20 49  1  0
 21 22  1  0
 21 23  1  0
 21 50  1  1
 22 51  1  0
 22 52  1  0
 22 53  1  0
 23 24  1  0
 23 54  1  6
 24 28  1  0
 24 25  1  0
 24 55  1  1
 25 26  1  1
 25 27  1  0
 28 25  1  1
 26 56  1  0
 29 30  1  0
 29 57  1  6
 30 58  1  0
M  END
>  <i_m_ct_stereo_status>  (266) 
1

>  <s_m_source_file>  (266) 
/var/tmp/pbs.5076255.sched01/tmpg3p38p3m/129jed2w9rh.sdf

>  <i_m_source_file_index>  (266) 
2

>  <i_lp_mmshare_version>  (266) 
48012

>  <i_f3d_flags>  (266) 
2

>  <s_epik_input>  (266) 
W0NIM11PW0NAXTEyW0NASF0zW0NIMl1bQ0BASF0oW0NASF0yW09IXSlPQyg9TylbQ0BAXShPMykoW0NIM10pW0NASF0xW0NAQEhdNE9bQ0BAXShbQ0BAXTQ1NikoW0NIM10pW0NAQEhdN1tDQEhdOFtDSDJdW0NAQEhdKFtDSDNdKVtDQEBIXTdbQ0BIXTVDNihPOClbT0hd

>  <s_epik_cmdline>  (266) 
J2VwaWtfcHl0aG9uJywgJy1waHQnLCAnMi4wJywgJy1waCcsICc3LjAnLCAnLXRuJywgJzgnLCAnLW1hJywgJzIwMCcsICctaW1hZScsICc8aW5maWxlLm1hZT4nLCAnLW9tYWUnLCAnPG91dGZpbGUubWFlPic=

>  <r_lp_tautomer_probability>  (266) 
1

>  <r_epik_Ionization_Penalty>  (266) 
6.39476e-05

>  <r_epik_Ionization_Penalty_Charging>  (266) 
0

>  <r_epik_Ionization_Penalty_Neutral>  (266) 
6.39476e-05

>  <r_epik_State_Penalty>  (266) 
-0

>  <r_epik_Charging_Adjusted_Penalty>  (266) 
0

>  <i_epik_Tot_Q>  (266) 
0

>  <i_epik_Tot_abs_Q>  (266) 
0

>  <s_epik_Chemistry_Notes>  (266) 
This compound has an ester and may undergo hydrolysis at high or low pH.

>  <s_lp_Force_Field>  (266) 
OPLS3e

>  <r_lp_Energy>  (266) 
84.1881

>  <b_lp_Chiralities_Consistent>  (266) 
0

>  <s_lp_Variant>  (266) 
87:0-1

>  <s_i_glide_gridfile>  (266) 
pfpi4k_grid

>  <i_i_glide_lignum>  (266) 
2

>  <i_i_glide_rotatable_bonds>  (266) 
4

>  <r_i_docking_score>  (266) 
-2.35624

>  <r_i_glide_ligand_efficiency>  (266) 
-0.0785413

>  <r_i_glide_ligand_efficiency_sa>  (266) 
-0.244046

>  <r_i_glide_ligand_efficiency_ln>  (266) 
-0.535363

>  <r_i_glide_gscore>  (266) 
-2.35624

>  <r_i_glide_lipo>  (266) 
-0.400895

>  <r_i_glide_hbond>  (266) 
0

>  <r_i_glide_metal>  (266) 
-0

>  <r_i_glide_rewards>  (266) 
-1.16956

>  <r_i_glide_evdw>  (266) 
-19.8468

>  <r_i_glide_ecoul>  (266) 
0.638598

>  <r_i_glide_erotb>  (266) 
0.111961

>  <r_i_glide_esite>  (266) 
-0.00119115

>  <r_i_glide_emodel>  (266) 
-27.2463

>  <r_i_glide_energy>  (266) 
-19.2082

>  <r_i_glide_einternal>  (266) 
0.896283

>  <r_i_glide_intrahb_reward>  (266) 
-0.5

>  <i_i_glide_confnum>  (266) 
3

>  <i_i_glide_posenum>  (266) 
32

>  <r_i_glide_eff_state_penalty>  (266) 
0

>  <ligand_id>  (266) 
87

>  <original_smiles>  (266) 
COC12C3CC(OC(=O)C(C)(O3)C1C1OC3(C)C4C5CC(C)C4C4C(O)(O5)C143)C2O

>  <smiles>  (266) 
[H]OC1([H])C2([H])OC(=O)C3(C([H])([H])[H])OC([H])(C2([H])[H])C1(OC([H])([H])[H])C3([H])C1([H])OC2(C([H])([H])[H])C3([H])C4([H])OC5(O[H])C([H])(C3([H])C([H])(C([H])([H])[H])C4([H])[H])C152

$$$$
88:0:0
     RDKit          3D

 66 70  0  0  1  0  0  0  0  0999 V2000
    5.9203   -9.4025    1.4534 C   0  0  0  0  0  0  0  0  0  0  0  0
    5.0826   -8.1576    1.8147 C   0  0  2  0  0  0  0  0  0  0  0  0
    5.9913   -7.1328    2.4961 C   0  0  0  0  0  0  0  0  0  0  0  0
    5.2367   -5.8277    2.6896 C   0  0  0  0  0  0  0  0  0  0  0  0
    4.0327   -6.0177    3.6253 C   0  0  1  0  0  0  0  0  0  0  0  0
    3.2049   -4.7335    3.8237 C   0  0  1  0  0  0  0  0  0  0  0  0
    3.9653   -3.5444    4.4471 C   0  0  0  0  0  0  0  0  0  0  0  0
    2.5234   -4.3263    2.4875 C   0  0  1  0  0  0  0  0  0  0  0  0
    3.3944   -3.5534    1.7372 O   0  0  0  0  0  0  0  0  0  0  0  0
    2.7886   -2.9248    0.6206 C   0  0  0  0  0  0  0  0  0  0  0  0
    3.9330   -2.4565   -0.2737 C   0  0  0  0  0  0  0  0  0  0  0  0
    3.4480   -1.9436   -1.5767 N   0  0  0  0  0  0  0  0  0  0  0  0
    3.4149   -3.0052   -2.6255 C   0  0  0  0  0  0  0  0  0  0  0  0
    2.8378   -2.4939   -3.9547 C   0  0  0  0  0  0  0  0  0  0  0  0
    3.5982   -1.2510   -4.4491 C   0  0  0  0  0  0  0  0  0  0  0  0
    3.6423   -0.1963   -3.3453 C   0  0  0  0  0  0  0  0  0  0  0  0
    4.2308   -0.7662   -2.0460 C   0  0  0  0  0  0  0  0  0  0  0  0
    2.0657   -5.4288    1.7398 O   0  0  0  0  0  0  0  0  0  0  0  0
    1.9701   -6.6657    2.3178 C   0  0  0  0  0  0  0  0  0  0  0  0
    0.8387   -7.3778    2.2106 C   0  0  0  0  0  0  0  0  0  0  0  0
    0.7142   -8.6048    3.0574 C   0  0  1  0  0  0  0  0  0  0  0  0
   -0.7786   -8.9532    3.2181 C   0  0  0  0  0  0  0  0  0  0  0  0
    1.5198   -9.7844    2.4915 C   0  0  0  0  0  0  0  0  0  0  0  0
    2.8829   -9.4162    1.8718 C   0  0  0  0  0  0  0  0  0  0  0  0
    3.8169   -8.4672    2.6728 C   0  0  2  0  0  0  0  0  0  0  0  0
    3.0803   -7.1799    3.2216 C   0  0  1  0  0  0  0  0  0  0  0  0
    2.5151   -7.5926    4.4693 O   0  0  0  0  0  0  0  0  0  0  0  0
    1.1790   -8.3418    4.3803 O   0  0  0  0  0  0  0  0  0  0  0  0
    6.2126   -9.9624    2.3429 H   0  0  0  0  0  0  0  0  0  0  0  0
    6.8352   -9.1177    0.9292 H   0  0  0  0  0  0  0  0  0  0  0  0
    5.3842  -10.0810    0.7915 H   0  0  0  0  0  0  0  0  0  0  0  0
    4.7540   -7.7139    0.8729 H   0  0  0  0  0  0  0  0  0  0  0  0
    6.3511   -7.5082    3.4552 H   0  0  0  0  0  0  0  0  0  0  0  0
    6.8722   -6.9397    1.8815 H   0  0  0  0  0  0  0  0  0  0  0  0
    5.9160   -5.0868    3.1059 H   0  0  0  0  0  0  0  0  0  0  0  0
    4.9208   -5.4675    1.7111 H   0  0  0  0  0  0  0  0  0  0  0  0
    4.4490   -6.2811    4.5958 H   0  0  0  0  0  0  0  0  0  0  0  0
    2.3980   -4.9832    4.5133 H   0  0  0  0  0  0  0  0  0  0  0  0
    4.7773   -3.1939    3.8083 H   0  0  0  0  0  0  0  0  0  0  0  0
    4.3954   -3.8235    5.4100 H   0  0  0  0  0  0  0  0  0  0  0  0
    3.2990   -2.6979    4.6179 H   0  0  0  0  0  0  0  0  0  0  0  0
    1.6621   -3.7059    2.7285 H   0  0  0  0  0  0  0  0  0  0  0  0
    2.1517   -3.6179    0.0692 H   0  0  0  0  0  0  0  0  0  0  0  0
    2.1727   -2.0794    0.9361 H   0  0  0  0  0  0  0  0  0  0  0  0
    4.4915   -1.7098    0.2965 H   0  0  0  0  0  0  0  0  0  0  0  0
    4.6427   -3.2814   -0.4076 H   0  0  0  0  0  0  0  0  0  0  0  0
    4.4304   -3.3717   -2.8129 H   0  0  0  0  0  0  0  0  0  0  0  0
    2.8273   -3.8594   -2.2820 H   0  0  0  0  0  0  0  0  0  0  0  0
    2.8746   -3.2860   -4.7067 H   0  0  0  0  0  0  0  0  0  0  0  0
    1.7828   -2.2591   -3.8196 H   0  0  0  0  0  0  0  0  0  0  0  0
    4.6137   -1.5216   -4.7202 H   0  0  0  0  0  0  0  0  0  0  0  0
    3.1291   -0.8260   -5.3338 H   0  0  0  0  0  0  0  0  0  0  0  0
    4.2057    0.6810   -3.6778 H   0  0  0  0  0  0  0  0  0  0  0  0
    2.6212    0.1407   -3.1640 H   0  0  0  0  0  0  0  0  0  0  0  0
    4.2316    0.0035   -1.2773 H   0  0  0  0  0  0  0  0  0  0  0  0
    5.2719   -1.0506   -2.1971 H   0  0  0  0  0  0  0  0  0  0  0  0
   -0.0041   -7.0574    1.6225 H   0  0  0  0  0  0  0  0  0  0  0  0
   -1.2554   -9.1490    2.2579 H   0  0  0  0  0  0  0  0  0  0  0  0
   -1.3125   -8.1358    3.6989 H   0  0  0  0  0  0  0  0  0  0  0  0
   -0.8956   -9.8358    3.8349 H   0  0  0  0  0  0  0  0  0  0  0  0
    1.6361  -10.5463    3.2614 H   0  0  0  0  0  0  0  0  0  0  0  0
    0.9281  -10.2443    1.7006 H   0  0  0  0  0  0  0  0  0  0  0  0
    3.3920  -10.3579    1.6864 H   0  0  0  0  0  0  0  0  0  0  0  0
    2.7065   -8.9923    0.8819 H   0  0  0  0  0  0  0  0  0  0  0  0
    4.1620   -9.0190    3.5483 H   0  0  0  0  0  0  0  0  0  0  0  0
    2.4925   -1.6062   -1.4452 H   0  0  0  0  0  0  0  0  0  0  0  0
  1  2  1  0
  1 29  1  0
  1 30  1  0
  1 31  1  0
  2 25  1  0
  2  3  1  0
  2 32  1  6
  3  4  1  0
  3 33  1  0
  3 34  1  0
  4  5  1  0
  4 35  1  0
  4 36  1  0
  5 26  1  0
  5  6  1  0
  5 37  1  1
  6  7  1  0
  6  8  1  0
  6 38  1  1
  7 39  1  0
  7 40  1  0
  7 41  1  0
  8  9  1  0
  8 18  1  0
  8 42  1  1
  9 10  1  0
 10 11  1  0
 10 43  1  0
 10 44  1  0
 11 12  1  0
 11 45  1  0
 11 46  1  0
 12 17  1  0
 12 13  1  0
 12 66  1  0
 13 14  1  0
 13 47  1  0
 13 48  1  0
 14 15  1  0
 14 49  1  0
 14 50  1  0
 15 16  1  0
 15 51  1  0
 15 52  1  0
 16 17  1  0
 16 53  1  0
 16 54  1  0
 17 55  1  0
 17 56  1  0
 18 19  1  0
 19 26  1  0
 19 20  2  0
 20 21  1  0
 20 57  1  0
 21 28  1  0
 21 22  1  1
 21 23  1  0
 22 58  1  0
 22 59  1  0
 22 60  1  0
 23 24  1  0
 23 61  1  0
 23 62  1  0
 24 25  1  0
 24 63  1  0
 24 64  1  0
 25 26  1  0
 25 65  1  1
 26 27  1  1
 27 28  1  0
M  CHG  1  12   1
M  END
>  <i_m_ct_stereo_status>  (267) 
1

>  <s_m_source_file>  (267) 
/var/tmp/pbs.5076255.sched01/tmpg3p38p3m/129jed2w9rh.sdf

>  <i_m_source_file_index>  (267) 
3

>  <i_lp_mmshare_version>  (267) 
48012

>  <i_f3d_flags>  (267) 
0

>  <s_epik_input>  (267) 
W0NAXTEyM1tDQEhdNFtDSDJdW0NIMl1bQ0BASF0oW0NIM10pW0NAQEhdMltDSDJdW0NIMl1bQ0BAXShbQ0gzXSkoT08zKVtDSF09QzFPW0NAQEhdKFtDQEBIXTRbQ0gzXSlPW0NIMl1bQ0gyXU41W0NIMl1bQ0gyXVtDSDJdW0NIMl1bQ0gyXTU=

>  <s_epik_cmdline>  (267) 
J2VwaWtfcHl0aG9uJywgJy1waHQnLCAnMi4wJywgJy1waCcsICc3LjAnLCAnLXRuJywgJzgnLCAnLW1hJywgJzIwMCcsICctaW1hZScsICc8aW5maWxlLm1hZT4nLCAnLW9tYWUnLCAnPG91dGZpbGUubWFlPic=

>  <r_epik_Ionization_Penalty>  (267) 
0.00535952

>  <r_epik_Ionization_Penalty_Charging>  (267) 
0.00535952

>  <r_epik_Ionization_Penalty_Neutral>  (267) 
5.26233e-16

>  <r_epik_State_Penalty>  (267) 
0.00391476

>  <r_epik_Charging_Adjusted_Penalty>  (267) 
0.00927428

>  <i_epik_Tot_Q>  (267) 
1

>  <i_epik_Tot_abs_Q>  (267) 
1

>  <s_epik_Chemistry_Notes>  (267) 
This compound contains an acetal/aminal-like group ( X-CH(R)-Y where X, Y are N, S, or O) that may be acid/base labile, releasing an aldehyde.

>  <s_lp_Force_Field>  (267) 
OPLS3e

>  <r_lp_Energy>  (267) 
58.5421

>  <b_lp_Chiralities_Consistent>  (267) 
1

>  <s_lp_Variant>  (267) 
88:0-1

>  <s_i_glide_gridfile>  (267) 
pfpi4k_grid

>  <i_i_glide_lignum>  (267) 
3

>  <i_i_glide_rotatable_bonds>  (267) 
4

>  <r_i_docking_score>  (267) 
-3.31407

>  <r_i_glide_ligand_efficiency>  (267) 
-0.11836

>  <r_i_glide_ligand_efficiency_sa>  (267) 
-0.359409

>  <r_i_glide_ligand_efficiency_ln>  (267) 
-0.764984

>  <r_i_glide_gscore>  (267) 
-3.31407

>  <r_i_glide_lipo>  (267) 
-0.449235

>  <r_i_glide_hbond>  (267) 
-0.2

>  <r_i_glide_metal>  (267) 
-0

>  <r_i_glide_rewards>  (267) 
-0.732599

>  <r_i_glide_evdw>  (267) 
-25.9515

>  <r_i_glide_ecoul>  (267) 
-6.22845

>  <r_i_glide_erotb>  (267) 
0.380135

>  <r_i_glide_esite>  (267) 
-0.0805271

>  <r_i_glide_emodel>  (267) 
-37.3282

>  <r_i_glide_energy>  (267) 
-32.1799

>  <r_i_glide_einternal>  (267) 
3.12689

>  <r_i_glide_intrahb_reward>  (267) 
-0

>  <i_i_glide_confnum>  (267) 
5

>  <i_i_glide_posenum>  (267) 
7

>  <r_i_glide_eff_state_penalty>  (267) 
0

>  <ligand_id>  (267) 
88

>  <original_smiles>  (267) 
CC1CCC2C(C)C(OCCN3CCCCC3)OC3=CC4(C)CCC1C32OO4

>  <smiles>  (267) 
[H]C1=C2OC([H])(OC([H])([H])C([H])([H])[N+]3([H])C([H])([H])C([H])([H])C([H])([H])C([H])([H])C3([H])[H])C([H])(C([H])([H])[H])C3([H])C([H])([H])C([H])([H])C([H])(C([H])([H])[H])C4([H])C([H])([H])C([H])([H])C1(C([H])([H])[H])OOC234

$$$$
88:0:1
     RDKit          3D

 66 70  0  0  1  0  0  0  0  0999 V2000
    4.6569  -10.1991    2.8801 C   0  0  0  0  0  0  0  0  0  0  0  0
    3.9736   -8.8291    3.0360 C   0  0  2  0  0  0  0  0  0  0  0  0
    4.8554   -7.9293    3.8995 C   0  0  0  0  0  0  0  0  0  0  0  0
    4.2966   -6.5162    3.9101 C   0  0  0  0  0  0  0  0  0  0  0  0
    2.8979   -6.4801    4.5566 C   0  0  1  0  0  0  0  0  0  0  0  0
    2.2585   -5.0804    4.5558 C   0  0  1  0  0  0  0  0  0  0  0  0
    3.0431   -3.9941    5.3254 C   0  0  0  0  0  0  0  0  0  0  0  0
    1.9711   -4.6377    3.0937 C   0  0  1  0  0  0  0  0  0  0  0  0
    3.1148   -4.0818    2.5539 O   0  0  0  0  0  0  0  0  0  0  0  0
    2.9094   -3.5060    1.2812 C   0  0  0  0  0  0  0  0  0  0  0  0
    4.2666   -3.4681    0.5757 C   0  0  0  0  0  0  0  0  0  0  0  0
    4.1599   -3.1373   -0.8769 N   0  0  0  0  0  0  0  0  0  0  0  0
    5.4706   -3.2747   -1.5627 C   0  0  0  0  0  0  0  0  0  0  0  0
    5.3240   -3.0496   -3.0746 C   0  0  0  0  0  0  0  0  0  0  0  0
    4.6678   -1.6889   -3.3744 C   0  0  0  0  0  0  0  0  0  0  0  0
    3.3481   -1.5417   -2.6188 C   0  0  0  0  0  0  0  0  0  0  0  0
    3.5767   -1.7940   -1.1217 C   0  0  0  0  0  0  0  0  0  0  0  0
    1.5069   -5.6848    2.2781 O   0  0  0  0  0  0  0  0  0  0  0  0
    1.0918   -6.8650    2.8198 C   0  0  0  0  0  0  0  0  0  0  0  0
   -0.0686   -7.3945    2.4622 C   0  0  0  0  0  0  0  0  0  0  0  0
   -0.5812   -8.5593    3.2629 C   0  0  1  0  0  0  0  0  0  0  0  0
   -2.1016   -8.6485    3.0844 C   0  0  0  0  0  0  0  0  0  0  0  0
    0.1345   -9.8713    2.9032 C   0  0  0  0  0  0  0  0  0  0  0  0
    1.6421   -9.7388    2.5960 C   0  0  0  0  0  0  0  0  0  0  0  0
    2.5134   -8.9063    3.5885 C   0  0  2  0  0  0  0  0  0  0  0  0
    1.8907   -7.4995    3.9550 C   0  0  1  0  0  0  0  0  0  0  0  0
    0.9993   -7.7688    5.0471 O   0  0  0  0  0  0  0  0  0  0  0  0
   -0.3940   -8.3037    4.6510 O   0  0  0  0  0  0  0  0  0  0  0  0
    4.6465  -10.7676    3.8115 H   0  0  0  0  0  0  0  0  0  0  0  0
    5.6974  -10.0835    2.5732 H   0  0  0  0  0  0  0  0  0  0  0  0
    4.1781  -10.7960    2.1066 H   0  0  0  0  0  0  0  0  0  0  0  0
    3.9327   -8.3796    2.0422 H   0  0  0  0  0  0  0  0  0  0  0  0
    4.9331   -8.3149    4.9160 H   0  0  0  0  0  0  0  0  0  0  0  0
    5.8684   -7.8986    3.4968 H   0  0  0  0  0  0  0  0  0  0  0  0
    4.9743   -5.8713    4.4591 H   0  0  0  0  0  0  0  0  0  0  0  0
    4.2674   -6.1599    2.8828 H   0  0  0  0  0  0  0  0  0  0  0  0
    3.0453   -6.7681    5.5965 H   0  0  0  0  0  0  0  0  0  0  0  0
    1.2881   -5.1714    5.0475 H   0  0  0  0  0  0  0  0  0  0  0  0
    4.0231   -3.8017    4.8828 H   0  0  0  0  0  0  0  0  0  0  0  0
    3.2035   -4.2970    6.3606 H   0  0  0  0  0  0  0  0  0  0  0  0
    2.5004   -3.0483    5.3348 H   0  0  0  0  0  0  0  0  0  0  0  0
    1.1975   -3.8722    3.1158 H   0  0  0  0  0  0  0  0  0  0  0  0
    2.2178   -4.0863    0.6655 H   0  0  0  0  0  0  0  0  0  0  0  0
    2.4729   -2.5149    1.4166 H   0  0  0  0  0  0  0  0  0  0  0  0
    4.9209   -2.7616    1.0851 H   0  0  0  0  0  0  0  0  0  0  0  0
    4.7255   -4.4493    0.6814 H   0  0  0  0  0  0  0  0  0  0  0  0
    6.1762   -2.5569   -1.1456 H   0  0  0  0  0  0  0  0  0  0  0  0
    5.8868   -4.2630   -1.3830 H   0  0  0  0  0  0  0  0  0  0  0  0
    6.3178   -3.1044   -3.5226 H   0  0  0  0  0  0  0  0  0  0  0  0
    4.7369   -3.8566   -3.5187 H   0  0  0  0  0  0  0  0  0  0  0  0
    5.3133   -0.8892   -3.0201 H   0  0  0  0  0  0  0  0  0  0  0  0
    4.5161   -1.5499   -4.4469 H   0  0  0  0  0  0  0  0  0  0  0  0
    2.9428   -0.5371   -2.7621 H   0  0  0  0  0  0  0  0  0  0  0  0
    2.6060   -2.2354   -3.0122 H   0  0  0  0  0  0  0  0  0  0  0  0
    2.6243   -1.7091   -0.6353 H   0  0  0  0  0  0  0  0  0  0  0  0
    4.2182   -1.0172   -0.6942 H   0  0  0  0  0  0  0  0  0  0  0  0
   -0.6946   -6.9792    1.6909 H   0  0  0  0  0  0  0  0  0  0  0  0
   -2.3875   -8.8182    2.0460 H   0  0  0  0  0  0  0  0  0  0  0  0
   -2.5806   -7.7341    3.4256 H   0  0  0  0  0  0  0  0  0  0  0  0
   -2.5143   -9.4577    3.6794 H   0  0  0  0  0  0  0  0  0  0  0  0
   -0.0415  -10.6028    3.6951 H   0  0  0  0  0  0  0  0  0  0  0  0
   -0.3468  -10.2931    2.0173 H   0  0  0  0  0  0  0  0  0  0  0  0
    2.0267  -10.7542    2.5318 H   0  0  0  0  0  0  0  0  0  0  0  0
    1.7584   -9.3251    1.5909 H   0  0  0  0  0  0  0  0  0  0  0  0
    2.5647   -9.4737    4.5207 H   0  0  0  0  0  0  0  0  0  0  0  0
    3.5470   -3.8163   -1.3053 H   0  0  0  0  0  0  0  0  0  0  0  0
  1  2  1  0
  1 29  1  0
  1 30  1  0
  1 31  1  0
  2 25  1  0
  2  3  1  0
  2 32  1  6
  3  4  1  0
  3 33  1  0
  3 34  1  0
  4  5  1  0
  4 35  1  0
  4 36  1  0
  5 26  1  0
  5  6  1  0
  5 37  1  1
  6  7  1  0
  6  8  1  0
  6 38  1  1
  7 39  1  0
  7 40  1  0
  7 41  1  0
  8  9  1  0
  8 18  1  0
  8 42  1  1
  9 10  1  0
 10 11  1  0
 10 43  1  0
 10 44  1  0
 11 12  1  0
 11 45  1  0
 11 46  1  0
 12 17  1  0
 12 13  1  0
 12 66  1  0
 13 14  1  0
 13 47  1  0
 13 48  1  0
 14 15  1  0
 14 49  1  0
 14 50  1  0
 15 16  1  0
 15 51  1  0
 15 52  1  0
 16 17  1  0
 16 53  1  0
 16 54  1  0
 17 55  1  0
 17 56  1  0
 18 19  1  0
 19 26  1  0
 19 20  2  0
 20 21  1  0
 20 57  1  0
 21 28  1  0
 21 22  1  1
 21 23  1  0
 22 58  1  0
 22 59  1  0
 22 60  1  0
 23 24  1  0
 23 61  1  0
 23 62  1  0
 24 25  1  0
 24 63  1  0
 24 64  1  0
 25 26  1  0
 25 65  1  1
 26 27  1  1
 27 28  1  0
M  CHG  1  12   1
M  END
>  <i_m_ct_stereo_status>  (268) 
1

>  <s_m_source_file>  (268) 
/var/tmp/pbs.5076255.sched01/tmpg3p38p3m/129jed2w9rh.sdf

>  <i_m_source_file_index>  (268) 
3

>  <i_lp_mmshare_version>  (268) 
48012

>  <i_f3d_flags>  (268) 
0

>  <s_epik_input>  (268) 
W0NAXTEyM1tDQEhdNFtDSDJdW0NIMl1bQ0BASF0oW0NIM10pW0NAQEhdMltDSDJdW0NIMl1bQ0BAXShbQ0gzXSkoT08zKVtDSF09QzFPW0NAQEhdKFtDQEBIXTRbQ0gzXSlPW0NIMl1bQ0gyXU41W0NIMl1bQ0gyXVtDSDJdW0NIMl1bQ0gyXTU=

>  <s_epik_cmdline>  (268) 
J2VwaWtfcHl0aG9uJywgJy1waHQnLCAnMi4wJywgJy1waCcsICc3LjAnLCAnLXRuJywgJzgnLCAnLW1hJywgJzIwMCcsICctaW1hZScsICc8aW5maWxlLm1hZT4nLCAnLW9tYWUnLCAnPG91dGZpbGUubWFlPic=

>  <r_epik_Ionization_Penalty>  (268) 
0.00535952

>  <r_epik_Ionization_Penalty_Charging>  (268) 
0.00535952

>  <r_epik_Ionization_Penalty_Neutral>  (268) 
5.26233e-16

>  <r_epik_State_Penalty>  (268) 
0.00391476

>  <r_epik_Charging_Adjusted_Penalty>  (268) 
0.00927428

>  <i_epik_Tot_Q>  (268) 
1

>  <i_epik_Tot_abs_Q>  (268) 
1

>  <s_epik_Chemistry_Notes>  (268) 
This compound contains an acetal/aminal-like group ( X-CH(R)-Y where X, Y are N, S, or O) that may be acid/base labile, releasing an aldehyde.

>  <s_lp_Force_Field>  (268) 
OPLS3e

>  <r_lp_Energy>  (268) 
58.5421

>  <b_lp_Chiralities_Consistent>  (268) 
1

>  <s_lp_Variant>  (268) 
88:0-1

>  <s_i_glide_gridfile>  (268) 
pfpi4k_grid

>  <i_i_glide_lignum>  (268) 
3

>  <i_i_glide_rotatable_bonds>  (268) 
4

>  <r_i_docking_score>  (268) 
-2.68765

>  <r_i_glide_ligand_efficiency>  (268) 
-0.0959876

>  <r_i_glide_ligand_efficiency_sa>  (268) 
-0.291475

>  <r_i_glide_ligand_efficiency_ln>  (268) 
-0.620389

>  <r_i_glide_gscore>  (268) 
-2.68765

>  <r_i_glide_lipo>  (268) 
-0.431839

>  <r_i_glide_hbond>  (268) 
0

>  <r_i_glide_metal>  (268) 
-0

>  <r_i_glide_rewards>  (268) 
-0.732599

>  <r_i_glide_evdw>  (268) 
-23.5607

>  <r_i_glide_ecoul>  (268) 
-4.79597

>  <r_i_glide_erotb>  (268) 
0.380135

>  <r_i_glide_esite>  (268) 
-0.00592006

>  <r_i_glide_emodel>  (268) 
-32.8781

>  <r_i_glide_energy>  (268) 
-28.3566

>  <r_i_glide_einternal>  (268) 
1.70599

>  <r_i_glide_intrahb_reward>  (268) 
-0

>  <i_i_glide_confnum>  (268) 
1

>  <i_i_glide_posenum>  (268) 
25

>  <r_i_glide_eff_state_penalty>  (268) 
0

>  <ligand_id>  (268) 
88

>  <original_smiles>  (268) 
CC1CCC2C(C)C(OCCN3CCCCC3)OC3=CC4(C)CCC1C32OO4

>  <smiles>  (268) 
[H]C1=C2OC([H])(OC([H])([H])C([H])([H])[N+]3([H])C([H])([H])C([H])([H])C([H])([H])C([H])([H])C3([H])[H])C([H])(C([H])([H])[H])C3([H])C([H])([H])C([H])([H])C([H])(C([H])([H])[H])C4([H])C([H])([H])C([H])([H])C1(C([H])([H])[H])OOC234

$$$$
88:0:2
     RDKit          3D

 66 70  0  0  1  0  0  0  0  0999 V2000
    4.4708  -10.4037    2.7636 C   0  0  0  0  0  0  0  0  0  0  0  0
    3.8983   -8.9769    2.8579 C   0  0  2  0  0  0  0  0  0  0  0  0
    4.9280   -8.0802    3.5470 C   0  0  0  0  0  0  0  0  0  0  0  0
    4.4683   -6.6338    3.4856 C   0  0  0  0  0  0  0  0  0  0  0  0
    3.1499   -6.4448    4.2594 C   0  0  1  0  0  0  0  0  0  0  0  0
    2.6131   -5.0009    4.1974 C   0  0  1  0  0  0  0  0  0  0  0  0
    3.5438   -3.9206    4.7886 C   0  0  0  0  0  0  0  0  0  0  0  0
    2.1997   -4.6508    2.7468 C   0  0  1  0  0  0  0  0  0  0  0  0
    3.3101   -4.2082    2.0449 O   0  0  0  0  0  0  0  0  0  0  0  0
    2.9879   -3.5468    0.8413 C   0  0  0  0  0  0  0  0  0  0  0  0
    4.1311   -3.7982   -0.1457 C   0  0  0  0  0  0  0  0  0  0  0  0
    3.7945   -3.4081   -1.5380 N   0  0  0  0  0  0  0  0  0  0  0  0
    4.8337   -3.8551   -2.5055 C   0  0  0  0  0  0  0  0  0  0  0  0
    4.4101   -3.5535   -3.9527 C   0  0  0  0  0  0  0  0  0  0  0  0
    4.0924   -2.0574   -4.1295 C   0  0  0  0  0  0  0  0  0  0  0  0
    3.0605   -1.6033   -3.1009 C   0  0  0  0  0  0  0  0  0  0  0  0
    3.5171   -1.9503   -1.6841 C   0  0  0  0  0  0  0  0  0  0  0  0
    1.5891   -5.7176    2.0651 O   0  0  0  0  0  0  0  0  0  0  0  0
    1.1515   -6.8259    2.7468 C   0  0  0  0  0  0  0  0  0  0  0  0
   -0.0773   -7.2926    2.5523 C   0  0  0  0  0  0  0  0  0  0  0  0
   -0.5829   -8.3450    3.4979 C   0  0  1  0  0  0  0  0  0  0  0  0
   -2.1180   -8.3316    3.4851 C   0  0  0  0  0  0  0  0  0  0  0  0
    0.0046   -9.7316    3.1828 C   0  0  0  0  0  0  0  0  0  0  0  0
    1.4799   -9.7408    2.7282 C   0  0  0  0  0  0  0  0  0  0  0  0
    2.5014   -8.8996    3.5528 C   0  0  2  0  0  0  0  0  0  0  0  0
    2.0158   -7.4240    3.8475 C   0  0  1  0  0  0  0  0  0  0  0  0
    1.2284   -7.5328    5.0412 O   0  0  0  0  0  0  0  0  0  0  0  0
   -0.2267   -8.0021    4.8378 O   0  0  0  0  0  0  0  0  0  0  0  0
    4.5261  -10.8884    3.7397 H   0  0  0  0  0  0  0  0  0  0  0  0
    5.4767  -10.3942    2.3383 H   0  0  0  0  0  0  0  0  0  0  0  0
    3.8695  -11.0295    2.1068 H   0  0  0  0  0  0  0  0  0  0  0  0
    3.7880   -8.6110    1.8352 H   0  0  0  0  0  0  0  0  0  0  0  0
    5.0844   -8.3893    4.5810 H   0  0  0  0  0  0  0  0  0  0  0  0
    5.8929   -8.1611    3.0450 H   0  0  0  0  0  0  0  0  0  0  0  0
    5.2439   -5.9971    3.9071 H   0  0  0  0  0  0  0  0  0  0  0  0
    4.3559   -6.3574    2.4379 H   0  0  0  0  0  0  0  0  0  0  0  0
    3.3886   -6.6528    5.3041 H   0  0  0  0  0  0  0  0  0  0  0  0
    1.6963   -4.9772    4.7902 H   0  0  0  0  0  0  0  0  0  0  0  0
    4.4834   -3.8363    4.2355 H   0  0  0  0  0  0  0  0  0  0  0  0
    3.7900   -4.1460    5.8288 H   0  0  0  0  0  0  0  0  0  0  0  0
    3.0682   -2.9362    4.7664 H   0  0  0  0  0  0  0  0  0  0  0  0
    1.4793   -3.8346    2.7922 H   0  0  0  0  0  0  0  0  0  0  0  0
    2.0578   -3.9111    0.4056 H   0  0  0  0  0  0  0  0  0  0  0  0
    2.8580   -2.4868    1.0574 H   0  0  0  0  0  0  0  0  0  0  0  0
    5.0307   -3.2797    0.1942 H   0  0  0  0  0  0  0  0  0  0  0  0
    4.3611   -4.8665   -0.1242 H   0  0  0  0  0  0  0  0  0  0  0  0
    5.7788   -3.3543   -2.2791 H   0  0  0  0  0  0  0  0  0  0  0  0
    5.0125   -4.9246   -2.3961 H   0  0  0  0  0  0  0  0  0  0  0  0
    5.2030   -3.8683   -4.6321 H   0  0  0  0  0  0  0  0  0  0  0  0
    3.5396   -4.1593   -4.2108 H   0  0  0  0  0  0  0  0  0  0  0  0
    5.0018   -1.4695   -4.0183 H   0  0  0  0  0  0  0  0  0  0  0  0
    3.6969   -1.8417   -5.1189 H   0  0  0  0  0  0  0  0  0  0  0  0
    2.8920   -0.5285   -3.1849 H   0  0  0  0  0  0  0  0  0  0  0  0
    2.1028   -2.0816   -3.3037 H   0  0  0  0  0  0  0  0  0  0  0  0
    2.7365   -1.6262   -1.0034 H   0  0  0  0  0  0  0  0  0  0  0  0
    4.4125   -1.3796   -1.4278 H   0  0  0  0  0  0  0  0  0  0  0  0
   -0.7438   -6.8933    1.8106 H   0  0  0  0  0  0  0  0  0  0  0  0
   -2.5138   -8.5645    2.4986 H   0  0  0  0  0  0  0  0  0  0  0  0
   -2.4995   -7.3577    3.7819 H   0  0  0  0  0  0  0  0  0  0  0  0
   -2.5216   -9.0490    4.1876 H   0  0  0  0  0  0  0  0  0  0  0  0
   -0.1373  -10.3839    4.0458 H   0  0  0  0  0  0  0  0  0  0  0  0
   -0.5828  -10.1799    2.3787 H   0  0  0  0  0  0  0  0  0  0  0  0
    1.7845  -10.7867    2.7193 H   0  0  0  0  0  0  0  0  0  0  0  0
    1.5203   -9.4213    1.6839 H   0  0  0  0  0  0  0  0  0  0  0  0
    2.6141   -9.3909    4.5224 H   0  0  0  0  0  0  0  0  0  0  0  0
    2.9563   -3.9171   -1.8032 H   0  0  0  0  0  0  0  0  0  0  0  0
  1  2  1  0
  1 29  1  0
  1 30  1  0
  1 31  1  0
  2 25  1  0
  2  3  1  0
  2 32  1  6
  3  4  1  0
  3 33  1  0
  3 34  1  0
  4  5  1  0
  4 35  1  0
  4 36  1  0
  5 26  1  0
  5  6  1  0
  5 37  1  1
  6  7  1  0
  6  8  1  0
  6 38  1  1
  7 39  1  0
  7 40  1  0
  7 41  1  0
  8  9  1  0
  8 18  1  0
  8 42  1  1
  9 10  1  0
 10 11  1  0
 10 43  1  0
 10 44  1  0
 11 12  1  0
 11 45  1  0
 11 46  1  0
 12 17  1  0
 12 13  1  0
 12 66  1  0
 13 14  1  0
 13 47  1  0
 13 48  1  0
 14 15  1  0
 14 49  1  0
 14 50  1  0
 15 16  1  0
 15 51  1  0
 15 52  1  0
 16 17  1  0
 16 53  1  0
 16 54  1  0
 17 55  1  0
 17 56  1  0
 18 19  1  0
 19 26  1  0
 19 20  2  0
 20 21  1  0
 20 57  1  0
 21 28  1  0
 21 22  1  1
 21 23  1  0
 22 58  1  0
 22 59  1  0
 22 60  1  0
 23 24  1  0
 23 61  1  0
 23 62  1  0
 24 25  1  0
 24 63  1  0
 24 64  1  0
 25 26  1  0
 25 65  1  1
 26 27  1  1
 27 28  1  0
M  CHG  1  12   1
M  END
>  <i_m_ct_stereo_status>  (269) 
1

>  <s_m_source_file>  (269) 
/var/tmp/pbs.5076255.sched01/tmpg3p38p3m/129jed2w9rh.sdf

>  <i_m_source_file_index>  (269) 
3

>  <i_lp_mmshare_version>  (269) 
48012

>  <i_f3d_flags>  (269) 
0

>  <s_epik_input>  (269) 
W0NAXTEyM1tDQEhdNFtDSDJdW0NIMl1bQ0BASF0oW0NIM10pW0NAQEhdMltDSDJdW0NIMl1bQ0BAXShbQ0gzXSkoT08zKVtDSF09QzFPW0NAQEhdKFtDQEBIXTRbQ0gzXSlPW0NIMl1bQ0gyXU41W0NIMl1bQ0gyXVtDSDJdW0NIMl1bQ0gyXTU=

>  <s_epik_cmdline>  (269) 
J2VwaWtfcHl0aG9uJywgJy1waHQnLCAnMi4wJywgJy1waCcsICc3LjAnLCAnLXRuJywgJzgnLCAnLW1hJywgJzIwMCcsICctaW1hZScsICc8aW5maWxlLm1hZT4nLCAnLW9tYWUnLCAnPG91dGZpbGUubWFlPic=

>  <r_epik_Ionization_Penalty>  (269) 
0.00535952

>  <r_epik_Ionization_Penalty_Charging>  (269) 
0.00535952

>  <r_epik_Ionization_Penalty_Neutral>  (269) 
5.26233e-16

>  <r_epik_State_Penalty>  (269) 
0.00391476

>  <r_epik_Charging_Adjusted_Penalty>  (269) 
0.00927428

>  <i_epik_Tot_Q>  (269) 
1

>  <i_epik_Tot_abs_Q>  (269) 
1

>  <s_epik_Chemistry_Notes>  (269) 
This compound contains an acetal/aminal-like group ( X-CH(R)-Y where X, Y are N, S, or O) that may be acid/base labile, releasing an aldehyde.

>  <s_lp_Force_Field>  (269) 
OPLS3e

>  <r_lp_Energy>  (269) 
58.5421

>  <b_lp_Chiralities_Consistent>  (269) 
1

>  <s_lp_Variant>  (269) 
88:0-1

>  <s_i_glide_gridfile>  (269) 
pfpi4k_grid

>  <i_i_glide_lignum>  (269) 
3

>  <i_i_glide_rotatable_bonds>  (269) 
4

>  <r_i_docking_score>  (269) 
-2.51236

>  <r_i_glide_ligand_efficiency>  (269) 
-0.0897272

>  <r_i_glide_ligand_efficiency_sa>  (269) 
-0.272465

>  <r_i_glide_ligand_efficiency_ln>  (269) 
-0.579927

>  <r_i_glide_gscore>  (269) 
-2.51236

>  <r_i_glide_lipo>  (269) 
-0.117162

>  <r_i_glide_hbond>  (269) 
-0.0129296

>  <r_i_glide_metal>  (269) 
-0

>  <r_i_glide_rewards>  (269) 
-0.732599

>  <r_i_glide_evdw>  (269) 
-25.2554

>  <r_i_glide_ecoul>  (269) 
-5.04423

>  <r_i_glide_erotb>  (269) 
0.380135

>  <r_i_glide_esite>  (269) 
-0.0104

>  <r_i_glide_emodel>  (269) 
-34.2725

>  <r_i_glide_energy>  (269) 
-30.2997

>  <r_i_glide_einternal>  (269) 
2.11663

>  <r_i_glide_intrahb_reward>  (269) 
-0

>  <i_i_glide_confnum>  (269) 
5

>  <i_i_glide_posenum>  (269) 
33

>  <r_i_glide_eff_state_penalty>  (269) 
0

>  <ligand_id>  (269) 
88

>  <original_smiles>  (269) 
CC1CCC2C(C)C(OCCN3CCCCC3)OC3=CC4(C)CCC1C32OO4

>  <smiles>  (269) 
[H]C1=C2OC([H])(OC([H])([H])C([H])([H])[N+]3([H])C([H])([H])C([H])([H])C([H])([H])C([H])([H])C3([H])[H])C([H])(C([H])([H])[H])C3([H])C([H])([H])C([H])([H])C([H])(C([H])([H])[H])C4([H])C([H])([H])C([H])([H])C1(C([H])([H])[H])OOC234

$$$$
89:0:0
     RDKit          3D

 61 66  0  0  1  0  0  0  0  0999 V2000
    3.7957   -1.3881   -3.9876 C   0  0  0  0  0  0  0  0  0  0  0  0
    4.1776   -2.7671   -3.4242 C   0  0  0  0  0  0  0  0  0  0  0  0
    4.5776   -2.7318   -1.9415 C   0  0  0  0  0  0  0  0  0  0  0  0
    3.5111   -2.0795   -1.0409 C   0  0  0  0  0  0  0  0  0  0  0  0
    3.7732   -2.2809    0.4584 C   0  0  2  0  0  0  0  0  0  0  0  0
    2.5961   -1.9239    1.3828 C   0  0  0  0  0  0  0  0  0  0  0  0
    3.1910   -1.3732    2.7140 C   0  0  1  0  0  0  0  0  0  0  0  0
    2.9024   -2.3379    3.7155 O   0  0  0  0  0  0  0  0  0  0  0  0
    4.7417   -1.3873    2.5392 C   0  0  2  0  0  0  0  0  0  0  0  0
    5.5157   -0.3093    3.0738 O   0  0  0  0  0  0  0  0  0  0  0  0
    4.9571    0.3304    4.1503 C   0  0  0  0  0  0  0  0  0  0  0  0
    5.7066    0.8546    5.2328 C   0  0  0  0  0  0  0  0  0  0  0  0
    7.0611    0.7209    5.2200 O   0  0  0  0  0  0  0  0  0  0  0  0
    5.0747    1.5218    6.3113 C   0  0  0  0  0  0  0  0  0  0  0  0
    3.6733    1.6836    6.3611 C   0  0  0  0  0  0  0  0  0  0  0  0
    2.9206    1.1444    5.3004 C   0  0  0  0  0  0  0  0  0  0  0  0
    3.5863    0.5270    4.2487 C   0  0  0  0  0  0  0  0  0  0  0  0
    2.6688    0.0346    3.1519 C   0  0  1  0  0  0  0  0  0  0  0  0
    2.5939    1.0652    1.9941 C   0  0  0  0  0  0  0  0  0  0  0  0
    1.1107    1.4109    1.7797 C   0  0  0  0  0  0  0  0  0  0  0  0
    0.3434    0.5723    2.7271 N   0  0  2  0  0  0  0  0  0  0  0  0
   -1.0129    1.0399    3.1305 C   0  0  0  0  0  0  0  0  0  0  0  0
   -1.1001    2.5185    3.5286 C   0  0  0  0  0  0  0  0  0  0  0  0
   -1.2864    2.8934    4.9873 C   0  0  0  0  0  0  0  0  0  0  0  0
   -2.3924    3.1575    3.9980 C   0  0  0  0  0  0  0  0  0  0  0  0
    1.2717    0.1422    3.7940 C   0  0  2  0  0  0  0  0  0  0  0  0
    1.4545    1.1457    4.9644 C   0  0  0  0  0  0  0  0  0  0  0  0
    4.9017   -1.4456    1.0357 C   0  0  0  0  0  0  0  0  0  0  0  0
    5.7687   -0.8601    0.3904 O   0  0  0  0  0  0  0  0  0  0  0  0
    3.5234   -1.4482   -5.0400 H   0  0  0  0  0  0  0  0  0  0  0  0
    4.6126   -0.6740   -3.8811 H   0  0  0  0  0  0  0  0  0  0  0  0
    2.9331   -0.9717   -3.4673 H   0  0  0  0  0  0  0  0  0  0  0  0
    3.3424   -3.4577   -3.5583 H   0  0  0  0  0  0  0  0  0  0  0  0
    5.0089   -3.1849   -3.9955 H   0  0  0  0  0  0  0  0  0  0  0  0
    4.7584   -3.7582   -1.6131 H   0  0  0  0  0  0  0  0  0  0  0  0
    5.5311   -2.2128   -1.8396 H   0  0  0  0  0  0  0  0  0  0  0  0
    3.4477   -1.0117   -1.2502 H   0  0  0  0  0  0  0  0  0  0  0  0
    2.5394   -2.5024   -1.2917 H   0  0  0  0  0  0  0  0  0  0  0  0
    4.0427   -3.3219    0.6369 H   0  0  0  0  0  0  0  0  0  0  0  0
    1.9515   -1.1962    0.8933 H   0  0  0  0  0  0  0  0  0  0  0  0
    1.9740   -2.8037    1.5521 H   0  0  0  0  0  0  0  0  0  0  0  0
    1.9711   -2.3569    3.8684 H   0  0  0  0  0  0  0  0  0  0  0  0
    5.1456   -2.3261    2.9156 H   0  0  0  0  0  0  0  0  0  0  0  0
    7.3736    0.3336    4.4140 H   0  0  0  0  0  0  0  0  0  0  0  0
    5.6852    1.9242    7.0981 H   0  0  0  0  0  0  0  0  0  0  0  0
    3.1961    2.2081    7.1724 H   0  0  0  0  0  0  0  0  0  0  0  0
    3.0817    1.9921    2.3025 H   0  0  0  0  0  0  0  0  0  0  0  0
    3.0835    0.7516    1.0728 H   0  0  0  0  0  0  0  0  0  0  0  0
    1.0611    2.4781    1.9774 H   0  0  0  0  0  0  0  0  0  0  0  0
    0.7407    1.2378    0.7638 H   0  0  0  0  0  0  0  0  0  0  0  0
   -1.6967    0.8795    2.3019 H   0  0  0  0  0  0  0  0  0  0  0  0
   -1.3908    0.4101    3.9336 H   0  0  0  0  0  0  0  0  0  0  0  0
   -0.5602    3.2126    2.8824 H   0  0  0  0  0  0  0  0  0  0  0  0
   -1.3962    2.0681    5.6968 H   0  0  0  0  0  0  0  0  0  0  0  0
   -0.6454    3.7106    5.3141 H   0  0  0  0  0  0  0  0  0  0  0  0
   -2.5279    4.1792    3.6516 H   0  0  0  0  0  0  0  0  0  0  0  0
   -3.2935    2.5399    4.0010 H   0  0  0  0  0  0  0  0  0  0  0  0
    0.9397   -0.8057    4.2134 H   0  0  0  0  0  0  0  0  0  0  0  0
    0.8398    0.8778    5.8272 H   0  0  0  0  0  0  0  0  0  0  0  0
    1.2328    2.1683    4.6622 H   0  0  0  0  0  0  0  0  0  0  0  0
    0.1785   -0.2764    2.2061 H   0  0  0  0  0  0  0  0  0  0  0  0
  1  2  1  0
  1 30  1  0
  1 31  1  0
  1 32  1  0
  2  3  1  0
  2 33  1  0
  2 34  1  0
  3  4  1  0
  3 35  1  0
  3 36  1  0
  4  5  1  0
  4 37  1  0
  4 38  1  0
  5 28  1  0
  5  6  1  0
  5 39  1  6
  6  7  1  0
  6 40  1  0
  6 41  1  0
  7 18  1  0
  7  8  1  1
  7  9  1  0
  8 42  1  0
  9 10  1  0
  9 28  1  0
  9 43  1  1
 10 11  1  0
 11 17  2  0
 11 12  1  0
 12 13  1  0
 12 14  2  0
 13 44  1  0
 14 15  1  0
 14 45  1  0
 15 16  2  0
 15 46  1  0
 16 27  1  0
 16 17  1  0
 17 18  1  0
 18 26  1  0
 18 19  1  6
 19 20  1  0
 19 47  1  0
 19 48  1  0
 20 21  1  0
 20 49  1  0
 20 50  1  0
 21 22  1  0
 21 26  1  0
 21 61  1  6
 22 23  1  0
 22 51  1  0
 22 52  1  0
 23 25  1  0
 23 24  1  0
 23 53  1  0
 24 25  1  0
 24 54  1  0
 24 55  1  0
 25 56  1  0
 25 57  1  0
 26 27  1  0
 26 58  1  1
 27 59  1  0
 27 60  1  0
 28 29  2  0
M  CHG  1  21   1
M  END
>  <i_m_ct_stereo_status>  (270) 
1

>  <s_m_source_file>  (270) 
/var/tmp/pbs.5076255.sched01/tmpg3p38p3m/129jed2w9rh.sdf

>  <i_m_source_file_index>  (270) 
4

>  <i_lp_mmshare_version>  (270) 
48012

>  <i_f3d_flags>  (270) 
0

>  <s_epik_input>  (270) 
W0NIM11bQ0gyXVtDSDJdW0NIMl1bQ0BIXShbQ0gyXTEpQyg9TylbQ0BIXShbQ0BdMShbQ0BAXTIzNClbT0hdKU9jNWMyYyhbY0hdW2NIXWM1W09IXSlbQ0gyXVtDQEhdNE4oW0NIMl1bQ0gyXTMpW0NIMl1bQ0hdNltDSDJdW0NIMl02

>  <s_epik_cmdline>  (270) 
J2VwaWtfcHl0aG9uJywgJy1waHQnLCAnMi4wJywgJy1waCcsICc3LjAnLCAnLXRuJywgJzgnLCAnLW1hJywgJzIwMCcsICctaW1hZScsICc8aW5maWxlLm1hZT4nLCAnLW9tYWUnLCAnPG91dGZpbGUubWFlPic=

>  <r_lp_tautomer_probability>  (270) 
1

>  <r_epik_Ionization_Penalty>  (270) 
0.00881771

>  <r_epik_Ionization_Penalty_Charging>  (270) 
0.00261858

>  <r_epik_Ionization_Penalty_Neutral>  (270) 
0.00619913

>  <r_epik_State_Penalty>  (270) 
0.00457094

>  <r_epik_Charging_Adjusted_Penalty>  (270) 
0.00718952

>  <i_epik_Tot_Q>  (270) 
1

>  <i_epik_Tot_abs_Q>  (270) 
1

>  <s_lp_Force_Field>  (270) 
OPLS3e

>  <r_lp_Energy>  (270) 
49.2746

>  <b_lp_Chiralities_Consistent>  (270) 
1

>  <s_lp_Variant>  (270) 
89:0-1

>  <s_i_glide_gridfile>  (270) 
pfpi4k_grid

>  <i_i_glide_lignum>  (270) 
4

>  <i_i_glide_rotatable_bonds>  (270) 
7

>  <r_i_docking_score>  (270) 
-3.00369

>  <r_i_glide_ligand_efficiency>  (270) 
-0.103576

>  <r_i_glide_ligand_efficiency_sa>  (270) 
-0.318217

>  <r_i_glide_ligand_efficiency_ln>  (270) 
-0.687769

>  <r_i_glide_gscore>  (270) 
-3.00369

>  <r_i_glide_lipo>  (270) 
-0.475724

>  <r_i_glide_hbond>  (270) 
-0.00516541

>  <r_i_glide_metal>  (270) 
-0

>  <r_i_glide_rewards>  (270) 
-0.761903

>  <r_i_glide_evdw>  (270) 
-27.1583

>  <r_i_glide_ecoul>  (270) 
-5.71392

>  <r_i_glide_erotb>  (270) 
0.493291

>  <r_i_glide_esite>  (270) 
-0.0391872

>  <r_i_glide_emodel>  (270) 
-35.5848

>  <r_i_glide_energy>  (270) 
-32.8722

>  <r_i_glide_einternal>  (270) 
7.50527

>  <r_i_glide_intrahb_reward>  (270) 
-0

>  <i_i_glide_confnum>  (270) 
4

>  <i_i_glide_posenum>  (270) 
2

>  <r_i_glide_eff_state_penalty>  (270) 
0

>  <ligand_id>  (270) 
89

>  <original_smiles>  (270) 
CCCCC1CC2(O)C(Oc3c(O)ccc4c3C23CCN(CC2CC2)C3C4)C1=O

>  <smiles>  (270) 
[H]Oc1c([H])c([H])c2c3c1OC1([H])C(=O)C([H])(C([H])([H])C([H])([H])C([H])([H])C([H])([H])[H])C([H])([H])C1(O[H])C31C([H])([H])C([H])([H])[N+]([H])(C([H])([H])C3([H])C([H])([H])C3([H])[H])C1([H])C2([H])[H]

$$$$
89:0:1
     RDKit          3D

 61 66  0  0  1  0  0  0  0  0999 V2000
    7.3941   -2.5233   -0.3775 C   0  0  0  0  0  0  0  0  0  0  0  0
    6.3353   -3.5677   -0.0005 C   0  0  0  0  0  0  0  0  0  0  0  0
    6.3474   -3.9191    1.4963 C   0  0  0  0  0  0  0  0  0  0  0  0
    5.3326   -5.0201    1.8675 C   0  0  0  0  0  0  0  0  0  0  0  0
    5.8366   -6.4419    1.5425 C   0  0  2  0  0  0  0  0  0  0  0  0
    4.7496   -7.5323    1.4687 C   0  0  0  0  0  0  0  0  0  0  0  0
    5.3768   -8.8645    1.9896 C   0  0  1  0  0  0  0  0  0  0  0  0
    5.5072   -9.7324    0.8826 O   0  0  0  0  0  0  0  0  0  0  0  0
    6.8518   -8.5260    2.3811 C   0  0  2  0  0  0  0  0  0  0  0  0
    7.4163   -9.1458    3.5405 O   0  0  0  0  0  0  0  0  0  0  0  0
    6.8759  -10.3567    3.8857 C   0  0  0  0  0  0  0  0  0  0  0  0
    7.6215  -11.4207    4.4353 C   0  0  0  0  0  0  0  0  0  0  0  0
    8.9616  -11.2517    4.6359 O   0  0  0  0  0  0  0  0  0  0  0  0
    7.0111  -12.6580    4.7664 C   0  0  0  0  0  0  0  0  0  0  0  0
    5.6294  -12.8794    4.5459 C   0  0  0  0  0  0  0  0  0  0  0  0
    4.8777  -11.8356    3.9867 C   0  0  0  0  0  0  0  0  0  0  0  0
    5.5160  -10.6335    3.7044 C   0  0  0  0  0  0  0  0  0  0  0  0
    4.6003   -9.5882    3.1404 C   0  0  1  0  0  0  0  0  0  0  0  0
    4.1025   -8.6551    4.2747 C   0  0  0  0  0  0  0  0  0  0  0  0
    2.5659   -8.6707    4.2318 C   0  0  0  0  0  0  0  0  0  0  0  0
    2.1772   -9.4745    3.0555 N   0  0  2  0  0  0  0  0  0  0  0  0
    0.8208  -10.0854    3.1144 C   0  0  0  0  0  0  0  0  0  0  0  0
   -0.2532   -9.0327    3.3582 C   0  0  0  0  0  0  0  0  0  0  0  0
   -1.6387   -9.1715    2.7648 C   0  0  0  0  0  0  0  0  0  0  0  0
   -0.7107   -8.1022    2.2555 C   0  0  0  0  0  0  0  0  0  0  0  0
    3.3225  -10.3729    2.7750 C   0  0  2  0  0  0  0  0  0  0  0  0
    3.4113  -11.6637    3.6362 C   0  0  0  0  0  0  0  0  0  0  0  0
    6.8060   -7.0270    2.5500 C   0  0  0  0  0  0  0  0  0  0  0  0
    7.4017   -6.3911    3.4227 O   0  0  0  0  0  0  0  0  0  0  0  0
    7.3532   -2.3061   -1.4454 H   0  0  0  0  0  0  0  0  0  0  0  0
    8.4002   -2.8802   -0.1525 H   0  0  0  0  0  0  0  0  0  0  0  0
    7.2379   -1.5922    0.1688 H   0  0  0  0  0  0  0  0  0  0  0  0
    5.3482   -3.1977   -0.2812 H   0  0  0  0  0  0  0  0  0  0  0  0
    6.4990   -4.4655   -0.5933 H   0  0  0  0  0  0  0  0  0  0  0  0
    7.3544   -4.2198    1.7900 H   0  0  0  0  0  0  0  0  0  0  0  0
    6.1235   -3.0179    2.0674 H   0  0  0  0  0  0  0  0  0  0  0  0
    5.1032   -4.9492    2.9322 H   0  0  0  0  0  0  0  0  0  0  0  0
    4.3909   -4.8328    1.3510 H   0  0  0  0  0  0  0  0  0  0  0  0
    6.3762   -6.4256    0.5951 H   0  0  0  0  0  0  0  0  0  0  0  0
    3.8787   -7.2288    2.0474 H   0  0  0  0  0  0  0  0  0  0  0  0
    4.4080   -7.6284    0.4365 H   0  0  0  0  0  0  0  0  0  0  0  0
    4.8564  -10.4347    0.8762 H   0  0  0  0  0  0  0  0  0  0  0  0
    7.5212   -8.6955    1.5324 H   0  0  0  0  0  0  0  0  0  0  0  0
    9.2522  -10.3865    4.3847 H   0  0  0  0  0  0  0  0  0  0  0  0
    7.6141  -13.4342    5.1999 H   0  0  0  0  0  0  0  0  0  0  0  0
    5.1657  -13.8198    4.8142 H   0  0  0  0  0  0  0  0  0  0  0  0
    4.4163   -9.0290    5.2536 H   0  0  0  0  0  0  0  0  0  0  0  0
    4.4872   -7.6378    4.1973 H   0  0  0  0  0  0  0  0  0  0  0  0
    2.1819   -9.1485    5.1350 H   0  0  0  0  0  0  0  0  0  0  0  0
    2.1418   -7.6660    4.1745 H   0  0  0  0  0  0  0  0  0  0  0  0
    0.6145  -10.5874    2.1698 H   0  0  0  0  0  0  0  0  0  0  0  0
    0.7498  -10.8356    3.9057 H   0  0  0  0  0  0  0  0  0  0  0  0
   -0.2306   -8.6089    4.3626 H   0  0  0  0  0  0  0  0  0  0  0  0
   -1.8343  -10.0261    2.1202 H   0  0  0  0  0  0  0  0  0  0  0  0
   -2.4784   -8.8451    3.3762 H   0  0  0  0  0  0  0  0  0  0  0  0
   -0.9292   -7.0731    2.5356 H   0  0  0  0  0  0  0  0  0  0  0  0
   -0.2673   -8.2389    1.2725 H   0  0  0  0  0  0  0  0  0  0  0  0
    3.2923  -10.6493    1.7232 H   0  0  0  0  0  0  0  0  0  0  0  0
    3.0309  -12.5278    3.0909 H   0  0  0  0  0  0  0  0  0  0  0  0
    2.8585  -11.5743    4.5752 H   0  0  0  0  0  0  0  0  0  0  0  0
    2.1506   -8.8302    2.2758 H   0  0  0  0  0  0  0  0  0  0  0  0
  1  2  1  0
  1 30  1  0
  1 31  1  0
  1 32  1  0
  2  3  1  0
  2 33  1  0
  2 34  1  0
  3  4  1  0
  3 35  1  0
  3 36  1  0
  4  5  1  0
  4 37  1  0
  4 38  1  0
  5 28  1  0
  5  6  1  0
  5 39  1  6
  6  7  1  0
  6 40  1  0
  6 41  1  0
  7 18  1  0
  7  8  1  6
  7  9  1  0
  8 42  1  0
  9 10  1  0
  9 28  1  0
  9 43  1  6
 10 11  1  0
 11 17  2  0
 11 12  1  0
 12 13  1  0
 12 14  2  0
 13 44  1  0
 14 15  1  0
 14 45  1  0
 15 16  2  0
 15 46  1  0
 16 27  1  0
 16 17  1  0
 17 18  1  0
 18 26  1  0
 18 19  1  1
 19 20  1  0
 19 47  1  0
 19 48  1  0
 20 21  1  0
 20 49  1  0
 20 50  1  0
 21 22  1  0
 21 26  1  0
 21 61  1  6
 22 23  1  0
 22 51  1  0
 22 52  1  0
 23 25  1  0
 23 24  1  0
 23 53  1  0
 24 25  1  0
 24 54  1  0
 24 55  1  0
 25 56  1  0
 25 57  1  0
 26 27  1  0
 26 58  1  6
 27 59  1  0
 27 60  1  0
 28 29  2  0
M  CHG  1  21   1
M  END
>  <i_m_ct_stereo_status>  (271) 
1

>  <s_m_source_file>  (271) 
/var/tmp/pbs.5076255.sched01/tmpg3p38p3m/129jed2w9rh.sdf

>  <i_m_source_file_index>  (271) 
4

>  <i_lp_mmshare_version>  (271) 
48012

>  <i_f3d_flags>  (271) 
0

>  <s_epik_input>  (271) 
W0NIM11bQ0gyXVtDSDJdW0NIMl1bQ0BIXShbQ0gyXTEpQyg9TylbQ0BIXShbQ0BdMShbQ0BAXTIzNClbT0hdKU9jNWMyYyhbY0hdW2NIXWM1W09IXSlbQ0gyXVtDQEhdNE4oW0NIMl1bQ0gyXTMpW0NIMl1bQ0hdNltDSDJdW0NIMl02

>  <s_epik_cmdline>  (271) 
J2VwaWtfcHl0aG9uJywgJy1waHQnLCAnMi4wJywgJy1waCcsICc3LjAnLCAnLXRuJywgJzgnLCAnLW1hJywgJzIwMCcsICctaW1hZScsICc8aW5maWxlLm1hZT4nLCAnLW9tYWUnLCAnPG91dGZpbGUubWFlPic=

>  <r_lp_tautomer_probability>  (271) 
1

>  <r_epik_Ionization_Penalty>  (271) 
0.00881771

>  <r_epik_Ionization_Penalty_Charging>  (271) 
0.00261858

>  <r_epik_Ionization_Penalty_Neutral>  (271) 
0.00619913

>  <r_epik_State_Penalty>  (271) 
0.00457094

>  <r_epik_Charging_Adjusted_Penalty>  (271) 
0.00718952

>  <i_epik_Tot_Q>  (271) 
1

>  <i_epik_Tot_abs_Q>  (271) 
1

>  <s_lp_Force_Field>  (271) 
OPLS3e

>  <r_lp_Energy>  (271) 
49.2746

>  <b_lp_Chiralities_Consistent>  (271) 
1

>  <s_lp_Variant>  (271) 
89:0-1

>  <s_i_glide_gridfile>  (271) 
pfpi4k_grid

>  <i_i_glide_lignum>  (271) 
4

>  <i_i_glide_rotatable_bonds>  (271) 
7

>  <r_i_docking_score>  (271) 
-2.91895

>  <r_i_glide_ligand_efficiency>  (271) 
-0.100653

>  <r_i_glide_ligand_efficiency_sa>  (271) 
-0.309239

>  <r_i_glide_ligand_efficiency_ln>  (271) 
-0.668366

>  <r_i_glide_gscore>  (271) 
-2.91895

>  <r_i_glide_lipo>  (271) 
-0.530671

>  <r_i_glide_hbond>  (271) 
0

>  <r_i_glide_metal>  (271) 
-0

>  <r_i_glide_rewards>  (271) 
-0.717059

>  <r_i_glide_evdw>  (271) 
-23.3042

>  <r_i_glide_ecoul>  (271) 
-6.66202

>  <r_i_glide_erotb>  (271) 
0.493291

>  <r_i_glide_esite>  (271) 
0

>  <r_i_glide_emodel>  (271) 
-34.5236

>  <r_i_glide_energy>  (271) 
-29.9662

>  <r_i_glide_einternal>  (271) 
3.70678

>  <r_i_glide_intrahb_reward>  (271) 
-0

>  <i_i_glide_confnum>  (271) 
2

>  <i_i_glide_posenum>  (271) 
16

>  <r_i_glide_eff_state_penalty>  (271) 
0

>  <ligand_id>  (271) 
89

>  <original_smiles>  (271) 
CCCCC1CC2(O)C(Oc3c(O)ccc4c3C23CCN(CC2CC2)C3C4)C1=O

>  <smiles>  (271) 
[H]Oc1c([H])c([H])c2c3c1OC1([H])C(=O)C([H])(C([H])([H])C([H])([H])C([H])([H])C([H])([H])[H])C([H])([H])C1(O[H])C31C([H])([H])C([H])([H])[N+]([H])(C([H])([H])C3([H])C([H])([H])C3([H])[H])C1([H])C2([H])[H]

$$$$
89:0:2
     RDKit          3D

 61 66  0  0  1  0  0  0  0  0999 V2000
    4.6140   -2.9287   -0.6702 C   0  0  0  0  0  0  0  0  0  0  0  0
    5.8947   -3.5815   -0.1324 C   0  0  0  0  0  0  0  0  0  0  0  0
    5.8678   -3.8059    1.3937 C   0  0  0  0  0  0  0  0  0  0  0  0
    4.7999   -4.8200    1.8685 C   0  0  0  0  0  0  0  0  0  0  0  0
    5.0412   -6.2559    1.3541 C   0  0  2  0  0  0  0  0  0  0  0  0
    3.8490   -7.2182    1.4792 C   0  0  0  0  0  0  0  0  0  0  0  0
    4.4176   -8.6545    1.7366 C   0  0  1  0  0  0  0  0  0  0  0  0
    4.1052   -9.4449    0.5931 O   0  0  0  0  0  0  0  0  0  0  0  0
    5.9759   -8.4947    1.7773 C   0  0  2  0  0  0  0  0  0  0  0  0
    6.7195   -9.2583    2.7274 O   0  0  0  0  0  0  0  0  0  0  0  0
    6.1317  -10.4274    3.1275 C   0  0  0  0  0  0  0  0  0  0  0  0
    6.8529  -11.6050    3.4191 C   0  0  0  0  0  0  0  0  0  0  0  0
    8.2105  -11.5908    3.3240 O   0  0  0  0  0  0  0  0  0  0  0  0
    6.1978  -12.8010    3.8065 C   0  0  0  0  0  0  0  0  0  0  0  0
    4.7887  -12.8634    3.9193 C   0  0  0  0  0  0  0  0  0  0  0  0
    4.0572  -11.7027    3.6318 C   0  0  0  0  0  0  0  0  0  0  0  0
    4.7466  -10.5523    3.2712 C   0  0  0  0  0  0  0  0  0  0  0  0
    3.8572   -9.3797    3.0022 C   0  0  1  0  0  0  0  0  0  0  0  0
    3.7484   -8.4969    4.2767 C   0  0  0  0  0  0  0  0  0  0  0  0
    2.2513   -8.3661    4.6025 C   0  0  0  0  0  0  0  0  0  0  0  0
    1.5182   -9.0260    3.5060 N   0  0  2  0  0  0  0  0  0  0  0  0
    0.1493   -9.4791    3.8622 C   0  0  0  0  0  0  0  0  0  0  0  0
   -0.7508   -9.4964    2.6481 C   0  0  0  0  0  0  0  0  0  0  0  0
   -1.1529   -8.1957    1.9864 C   0  0  0  0  0  0  0  0  0  0  0  0
   -2.1772   -8.9928    2.7390 C   0  0  0  0  0  0  0  0  0  0  0  0
    2.4509  -10.0060    2.9081 C   0  0  2  0  0  0  0  0  0  0  0  0
    2.5840  -11.3583    3.6542 C   0  0  0  0  0  0  0  0  0  0  0  0
    6.1466   -7.0178    2.0495 C   0  0  0  0  0  0  0  0  0  0  0  0
    7.0070   -6.5207    2.7800 O   0  0  0  0  0  0  0  0  0  0  0  0
    4.6718   -2.7939   -1.7500 H   0  0  0  0  0  0  0  0  0  0  0  0
    4.4508   -1.9531   -0.2101 H   0  0  0  0  0  0  0  0  0  0  0  0
    3.7332   -3.5416   -0.4777 H   0  0  0  0  0  0  0  0  0  0  0  0
    6.0709   -4.5168   -0.6635 H   0  0  0  0  0  0  0  0  0  0  0  0
    6.7501   -2.9519   -0.3834 H   0  0  0  0  0  0  0  0  0  0  0  0
    6.8577   -4.1310    1.7148 H   0  0  0  0  0  0  0  0  0  0  0  0
    5.7067   -2.8491    1.8923 H   0  0  0  0  0  0  0  0  0  0  0  0
    4.7647   -4.8181    2.9605 H   0  0  0  0  0  0  0  0  0  0  0  0
    3.8113   -4.4830    1.5568 H   0  0  0  0  0  0  0  0  0  0  0  0
    5.3192   -6.2357    0.3004 H   0  0  0  0  0  0  0  0  0  0  0  0
    3.1764   -6.8731    2.2649 H   0  0  0  0  0  0  0  0  0  0  0  0
    3.2758   -7.1693    0.5543 H   0  0  0  0  0  0  0  0  0  0  0  0
    4.2487  -10.3797    0.7639 H   0  0  0  0  0  0  0  0  0  0  0  0
    6.3998   -8.6643    0.7858 H   0  0  0  0  0  0  0  0  0  0  0  0
    8.5310  -10.7345    3.0771 H   0  0  0  0  0  0  0  0  0  0  0  0
    6.7963  -13.6636    4.0266 H   0  0  0  0  0  0  0  0  0  0  0  0
    4.2954  -13.7737    4.2316 H   0  0  0  0  0  0  0  0  0  0  0  0
    4.2428   -8.9797    5.1237 H   0  0  0  0  0  0  0  0  0  0  0  0
    4.2188   -7.5195    4.1664 H   0  0  0  0  0  0  0  0  0  0  0  0
    2.0399   -8.8742    5.5459 H   0  0  0  0  0  0  0  0  0  0  0  0
    1.9403   -7.3250    4.7107 H   0  0  0  0  0  0  0  0  0  0  0  0
    0.1277  -10.4549    4.3457 H   0  0  0  0  0  0  0  0  0  0  0  0
   -0.2809   -8.7747    4.5747 H   0  0  0  0  0  0  0  0  0  0  0  0
   -0.5970  -10.3562    1.9940 H   0  0  0  0  0  0  0  0  0  0  0  0
   -0.7920   -7.2689    2.4309 H   0  0  0  0  0  0  0  0  0  0  0  0
   -1.2075   -8.2097    0.8992 H   0  0  0  0  0  0  0  0  0  0  0  0
   -2.9351   -9.4859    2.1319 H   0  0  0  0  0  0  0  0  0  0  0  0
   -2.5232   -8.5996    3.6949 H   0  0  0  0  0  0  0  0  0  0  0  0
    2.1533  -10.2043    1.8781 H   0  0  0  0  0  0  0  0  0  0  0  0
    1.9902  -12.1359    3.1754 H   0  0  0  0  0  0  0  0  0  0  0  0
    2.2850  -11.2861    4.7037 H   0  0  0  0  0  0  0  0  0  0  0  0
    1.3940   -8.3081    2.8015 H   0  0  0  0  0  0  0  0  0  0  0  0
  1  2  1  0
  1 30  1  0
  1 31  1  0
  1 32  1  0
  2  3  1  0
  2 33  1  0
  2 34  1  0
  3  4  1  0
  3 35  1  0
  3 36  1  0
  4  5  1  0
  4 37  1  0
  4 38  1  0
  5 28  1  0
  5  6  1  0
  5 39  1  6
  6  7  1  0
  6 40  1  0
  6 41  1  0
  7 18  1  0
  7  8  1  6
  7  9  1  0
  8 42  1  0
  9 10  1  0
  9 28  1  0
  9 43  1  6
 10 11  1  0
 11 17  2  0
 11 12  1  0
 12 13  1  0
 12 14  2  0
 13 44  1  0
 14 15  1  0
 14 45  1  0
 15 16  2  0
 15 46  1  0
 16 27  1  0
 16 17  1  0
 17 18  1  0
 18 26  1  0
 18 19  1  1
 19 20  1  0
 19 47  1  0
 19 48  1  0
 20 21  1  0
 20 49  1  0
 20 50  1  0
 21 22  1  0
 21 26  1  0
 21 61  1  6
 22 23  1  0
 22 51  1  0
 22 52  1  0
 23 25  1  0
 23 24  1  0
 23 53  1  0
 24 25  1  0
 24 54  1  0
 24 55  1  0
 25 56  1  0
 25 57  1  0
 26 27  1  0
 26 58  1  6
 27 59  1  0
 27 60  1  0
 28 29  2  0
M  CHG  1  21   1
M  END
>  <i_m_ct_stereo_status>  (272) 
1

>  <s_m_source_file>  (272) 
/var/tmp/pbs.5076255.sched01/tmpg3p38p3m/129jed2w9rh.sdf

>  <i_m_source_file_index>  (272) 
4

>  <i_lp_mmshare_version>  (272) 
48012

>  <i_f3d_flags>  (272) 
0

>  <s_epik_input>  (272) 
W0NIM11bQ0gyXVtDSDJdW0NIMl1bQ0BIXShbQ0gyXTEpQyg9TylbQ0BIXShbQ0BdMShbQ0BAXTIzNClbT0hdKU9jNWMyYyhbY0hdW2NIXWM1W09IXSlbQ0gyXVtDQEhdNE4oW0NIMl1bQ0gyXTMpW0NIMl1bQ0hdNltDSDJdW0NIMl02

>  <s_epik_cmdline>  (272) 
J2VwaWtfcHl0aG9uJywgJy1waHQnLCAnMi4wJywgJy1waCcsICc3LjAnLCAnLXRuJywgJzgnLCAnLW1hJywgJzIwMCcsICctaW1hZScsICc8aW5maWxlLm1hZT4nLCAnLW9tYWUnLCAnPG91dGZpbGUubWFlPic=

>  <r_lp_tautomer_probability>  (272) 
1

>  <r_epik_Ionization_Penalty>  (272) 
0.00881771

>  <r_epik_Ionization_Penalty_Charging>  (272) 
0.00261858

>  <r_epik_Ionization_Penalty_Neutral>  (272) 
0.00619913

>  <r_epik_State_Penalty>  (272) 
0.00457094

>  <r_epik_Charging_Adjusted_Penalty>  (272) 
0.00718952

>  <i_epik_Tot_Q>  (272) 
1

>  <i_epik_Tot_abs_Q>  (272) 
1

>  <s_lp_Force_Field>  (272) 
OPLS3e

>  <r_lp_Energy>  (272) 
49.2746

>  <b_lp_Chiralities_Consistent>  (272) 
1

>  <s_lp_Variant>  (272) 
89:0-1

>  <s_i_glide_gridfile>  (272) 
pfpi4k_grid

>  <i_i_glide_lignum>  (272) 
4

>  <i_i_glide_rotatable_bonds>  (272) 
7

>  <r_i_docking_score>  (272) 
-2.91563

>  <r_i_glide_ligand_efficiency>  (272) 
-0.100539

>  <r_i_glide_ligand_efficiency_sa>  (272) 
-0.308887

>  <r_i_glide_ligand_efficiency_ln>  (272) 
-0.667605

>  <r_i_glide_gscore>  (272) 
-2.91563

>  <r_i_glide_lipo>  (272) 
-0.508343

>  <r_i_glide_hbond>  (272) 
0

>  <r_i_glide_metal>  (272) 
-0

>  <r_i_glide_rewards>  (272) 
-0.76067

>  <r_i_glide_evdw>  (272) 
-23.5901

>  <r_i_glide_ecoul>  (272) 
-6.32088

>  <r_i_glide_erotb>  (272) 
0.493291

>  <r_i_glide_esite>  (272) 
-0.0122695

>  <r_i_glide_emodel>  (272) 
-34.4777

>  <r_i_glide_energy>  (272) 
-29.911

>  <r_i_glide_einternal>  (272) 
3.92991

>  <r_i_glide_intrahb_reward>  (272) 
-0

>  <i_i_glide_confnum>  (272) 
2

>  <i_i_glide_posenum>  (272) 
11

>  <r_i_glide_eff_state_penalty>  (272) 
0

>  <ligand_id>  (272) 
89

>  <original_smiles>  (272) 
CCCCC1CC2(O)C(Oc3c(O)ccc4c3C23CCN(CC2CC2)C3C4)C1=O

>  <smiles>  (272) 
[H]Oc1c([H])c([H])c2c3c1OC1([H])C(=O)C([H])(C([H])([H])C([H])([H])C([H])([H])C([H])([H])[H])C([H])([H])C1(O[H])C31C([H])([H])C([H])([H])[N+]([H])(C([H])([H])C3([H])C([H])([H])C3([H])[H])C1([H])C2([H])[H]

$$$$
93:0:0
     RDKit          3D

 40 42  0  0  1  0  0  0  0  0999 V2000
   -2.1684   -9.0032    2.4101 C   0  0  0  0  0  0  0  0  0  0  0  0
   -1.0659   -8.3065    2.1348 C   0  0  0  0  0  0  0  0  0  0  0  0
    0.0547   -8.0949    3.1417 C   0  0  0  0  0  0  0  0  0  0  0  0
    1.3980   -8.1538    2.5105 N   0  0  0  0  0  0  0  0  0  0  0  0
    2.0163   -9.3644    2.4220 C   0  0  0  0  0  0  0  0  0  0  0  0
    1.5180  -10.4022    2.8737 O   0  0  0  0  0  0  0  0  0  0  0  0
    3.2098   -9.4111    1.7992 N   0  0  0  0  0  0  0  0  0  0  0  0
    3.9000   -8.3661    1.2919 C   0  0  0  0  0  0  0  0  0  0  0  0
    4.9945   -8.5665    0.7730 O   0  0  0  0  0  0  0  0  0  0  0  0
    3.2692   -7.0290    1.4123 C   0  0  0  0  0  0  0  0  0  0  0  0
    3.9510   -5.9331    0.9805 C   0  0  0  0  0  0  0  0  0  0  0  0
    3.7256   -4.5039    1.0192 C   0  0  0  0  0  0  0  0  0  0  0  0
    4.1781   -3.4540    0.2678 C   0  0  0  0  0  0  0  0  0  0  0  0
    3.5069   -2.2804    0.7461 C   0  0  0  0  0  0  0  0  0  0  0  0
    2.7126   -2.7010    1.7782 C   0  0  0  0  0  0  0  0  0  0  0  0
    1.7443   -2.0448    2.6582 C   0  0  0  0  0  0  0  0  0  0  0  0
    1.4197   -0.6771    2.4761 C   0  0  0  0  0  0  0  0  0  0  0  0
    0.4927   -0.0390    3.3284 C   0  0  0  0  0  0  0  0  0  0  0  0
   -0.1485   -0.7527    4.3718 C   0  0  0  0  0  0  0  0  0  0  0  0
   -1.1449   -0.0684    5.2768 C   0  0  0  0  0  0  0  0  0  0  0  0
   -1.2897    1.1706    5.2217 O   0  0  0  0  0  0  0  0  0  0  0  0
   -1.8119   -0.7651    6.0753 O   0  0  0  0  0  0  0  0  0  0  0  0
    0.1587   -2.1255    4.5351 C   0  0  0  0  0  0  0  0  0  0  0  0
    1.0860   -2.7649    3.6874 C   0  0  0  0  0  0  0  0  0  0  0  0
    2.8927   -4.0347    1.9860 O   0  0  0  0  0  0  0  0  0  0  0  0
    1.8929   -6.9968    1.9751 C   0  0  0  0  0  0  0  0  0  0  0  0
    1.1766   -5.9897    1.9480 O   0  0  0  0  0  0  0  0  0  0  0  0
   -2.3059   -9.4551    3.3835 H   0  0  0  0  0  0  0  0  0  0  0  0
   -2.9505   -9.1360    1.6781 H   0  0  0  0  0  0  0  0  0  0  0  0
   -0.9613   -7.8586    1.1536 H   0  0  0  0  0  0  0  0  0  0  0  0
   -0.1420   -7.1456    3.6402 H   0  0  0  0  0  0  0  0  0  0  0  0
   -0.0438   -8.8027    3.9668 H   0  0  0  0  0  0  0  0  0  0  0  0
    3.6327  -10.3261    1.6997 H   0  0  0  0  0  0  0  0  0  0  0  0
    4.9261   -6.1270    0.5599 H   0  0  0  0  0  0  0  0  0  0  0  0
    4.9005   -3.5381   -0.5459 H   0  0  0  0  0  0  0  0  0  0  0  0
    3.5748   -1.2517    0.3863 H   0  0  0  0  0  0  0  0  0  0  0  0
    1.8674   -0.1180    1.6617 H   0  0  0  0  0  0  0  0  0  0  0  0
    0.2568    1.0017    3.1728 H   0  0  0  0  0  0  0  0  0  0  0  0
   -0.3219   -2.6869    5.3226 H   0  0  0  0  0  0  0  0  0  0  0  0
    1.2829   -3.8212    3.8404 H   0  0  0  0  0  0  0  0  0  0  0  0
  1  2  2  0
  1 28  1  0
  1 29  1  0
  2  3  1  0
  2 30  1  0
  3  4  1  0
  3 31  1  0
  3 32  1  0
  4 26  1  0
  4  5  1  0
  5  6  2  0
  5  7  1  0
  7  8  1  0
  7 33  1  0
  8  9  2  0
  8 10  1  0
 10 11  2  3
 10 26  1  0
 11 12  1  0
 11 34  1  0
 12 25  1  0
 12 13  2  0
 13 14  1  0
 13 35  1  0
 14 15  2  0
 14 36  1  0
 15 16  1  0
 15 25  1  0
 16 24  1  0
 16 17  2  0
 17 18  1  0
 17 37  1  0
 18 19  2  0
 18 38  1  0
 19 20  1  0
 19 23  1  0
 20 21  2  0
 20 22  1  0
 23 24  2  0
 23 39  1  0
 24 40  1  0
 26 27  2  0
M  CHG  1  22  -1
M  END
>  <i_m_ct_stereo_status>  (273) 
1

>  <s_m_source_file>  (273) 
/var/tmp/pbs.5076255.sched01/tmpg3p38p3m/129jed2w9rh.sdf

>  <i_m_source_file_index>  (273) 
9

>  <i_lp_mmshare_version>  (273) 
48012

>  <i_f3d_flags>  (273) 
0

>  <s_epik_input>  (273) 
W0NIMl09W0NIXVtDSDJdTjFDKD1PKVtOSF1DKD1PKS9DKEMxPU8pPVtDSF0vYzJbY0hdW2NIXWMobzIpLWMzW2NIXVtjSF1jKEMoPU8pW09IXSlbY0hdW2NIXTM=

>  <s_epik_cmdline>  (273) 
J2VwaWtfcHl0aG9uJywgJy1waHQnLCAnMi4wJywgJy1waCcsICc3LjAnLCAnLXRuJywgJzgnLCAnLW1hJywgJzIwMCcsICctaW1hZScsICc8aW5maWxlLm1hZT4nLCAnLW9tYWUnLCAnPG91dGZpbGUubWFlPic=

>  <r_epik_Ionization_Penalty>  (273) 
0.409872

>  <r_epik_Ionization_Penalty_Charging>  (273) 
0.000798703

>  <r_epik_Ionization_Penalty_Neutral>  (273) 
0.409073

>  <r_epik_State_Penalty>  (273) 
0.409477

>  <r_epik_Charging_Adjusted_Penalty>  (273) 
0.410276

>  <i_epik_Tot_Q>  (273) 
-1

>  <i_epik_Tot_abs_Q>  (273) 
1

>  <s_lp_Force_Field>  (273) 
OPLS3e

>  <r_lp_Energy>  (273) 
39.5148

>  <b_lp_Chiralities_Consistent>  (273) 
1

>  <s_lp_Variant>  (273) 
93:0-1

>  <s_i_glide_gridfile>  (273) 
pfpi4k_grid

>  <i_i_glide_lignum>  (273) 
9

>  <i_i_glide_rotatable_bonds>  (273) 
5

>  <r_i_docking_score>  (273) 
-3.30297

>  <r_i_glide_ligand_efficiency>  (273) 
-0.122332

>  <r_i_glide_ligand_efficiency_sa>  (273) 
-0.366996

>  <r_i_glide_ligand_efficiency_ln>  (273) 
-0.768876

>  <r_i_glide_gscore>  (273) 
-3.30297

>  <r_i_glide_lipo>  (273) 
-0.460429

>  <r_i_glide_hbond>  (273) 
-0.240231

>  <r_i_glide_metal>  (273) 
-0

>  <r_i_glide_rewards>  (273) 
-1.00831

>  <r_i_glide_evdw>  (273) 
-29.2016

>  <r_i_glide_ecoul>  (273) 
-3.7467

>  <r_i_glide_erotb>  (273) 
0.576512

>  <r_i_glide_esite>  (273) 
-0.14843

>  <r_i_glide_emodel>  (273) 
-42.1979

>  <r_i_glide_energy>  (273) 
-32.9483

>  <r_i_glide_einternal>  (273) 
1.41935

>  <r_i_glide_intrahb_reward>  (273) 
-0

>  <i_i_glide_confnum>  (273) 
3

>  <i_i_glide_posenum>  (273) 
36

>  <r_i_glide_eff_state_penalty>  (273) 
0

>  <ligand_id>  (273) 
93

>  <original_smiles>  (273) 
C=CCN1C(=O)NC(=O)C(=Cc2ccc(-c3ccc(C(=O)O)cc3)o2)C1=O

>  <smiles>  (273) 
[H]C([H])=C([H])C([H])([H])N1C(=O)C(=C([H])c2oc(-c3c([H])c([H])c(C(=O)[O-])c([H])c3[H])c([H])c2[H])C(=O)N([H])C1=O

$$$$
93:0:1
     RDKit          3D

 40 42  0  0  1  0  0  0  0  0999 V2000
    9.0147   -4.0604   -0.7169 C   0  0  0  0  0  0  0  0  0  0  0  0
    8.5698   -5.0678    0.0502 C   0  0  0  0  0  0  0  0  0  0  0  0
    7.9931   -4.9040    1.4371 C   0  0  0  0  0  0  0  0  0  0  0  0
    6.5302   -5.1775    1.4715 N   0  0  0  0  0  0  0  0  0  0  0  0
    6.1232   -6.4717    1.4268 C   0  0  0  0  0  0  0  0  0  0  0  0
    6.9125   -7.4100    1.3243 O   0  0  0  0  0  0  0  0  0  0  0  0
    4.8069   -6.7298    1.5156 N   0  0  0  0  0  0  0  0  0  0  0  0
    3.8180   -5.8281    1.6263 C   0  0  0  0  0  0  0  0  0  0  0  0
    2.6512   -6.2206    1.7041 O   0  0  0  0  0  0  0  0  0  0  0  0
    4.2090   -4.4070    1.6197 C   0  0  0  0  0  0  0  0  0  0  0  0
    3.2514   -3.4475    1.6687 C   0  0  0  0  0  0  0  0  0  0  0  0
    3.2609   -2.0078    1.5552 C   0  0  0  0  0  0  0  0  0  0  0  0
    4.1078   -1.0793    1.0211 C   0  0  0  0  0  0  0  0  0  0  0  0
    3.5770    0.1980    1.3322 C   0  0  0  0  0  0  0  0  0  0  0  0
    2.4253   -0.0307    2.0169 C   0  0  0  0  0  0  0  0  0  0  0  0
    1.4370    0.8671    2.5934 C   0  0  0  0  0  0  0  0  0  0  0  0
    1.7133    2.2466    2.7459 C   0  0  0  0  0  0  0  0  0  0  0  0
    0.7375    3.1089    3.2887 C   0  0  0  0  0  0  0  0  0  0  0  0
   -0.5300    2.6237    3.6848 C   0  0  0  0  0  0  0  0  0  0  0  0
   -1.5646    3.5588    4.2483 C   0  0  0  0  0  0  0  0  0  0  0  0
   -2.5909    3.0895    4.7887 O   0  0  0  0  0  0  0  0  0  0  0  0
   -1.3818    4.7969    4.1843 O   0  0  0  0  0  0  0  0  0  0  0  0
   -0.8021    1.2434    3.5333 C   0  0  0  0  0  0  0  0  0  0  0  0
    0.1760    0.3783    2.9980 C   0  0  0  0  0  0  0  0  0  0  0  0
    2.2292   -1.3707    2.1717 O   0  0  0  0  0  0  0  0  0  0  0  0
    5.6672   -4.1339    1.6008 C   0  0  0  0  0  0  0  0  0  0  0  0
    6.1239   -2.9993    1.7164 O   0  0  0  0  0  0  0  0  0  0  0  0
    8.9946   -3.0302   -0.3849 H   0  0  0  0  0  0  0  0  0  0  0  0
    9.4042   -4.2507   -1.7067 H   0  0  0  0  0  0  0  0  0  0  0  0
    8.6131   -6.0784   -0.3232 H   0  0  0  0  0  0  0  0  0  0  0  0
    8.5199   -5.5534    2.1379 H   0  0  0  0  0  0  0  0  0  0  0  0
    8.2869   -3.9020    1.7425 H   0  0  0  0  0  0  0  0  0  0  0  0
    4.5393   -7.7062    1.5041 H   0  0  0  0  0  0  0  0  0  0  0  0
    2.2356   -3.8083    1.7057 H   0  0  0  0  0  0  0  0  0  0  0  0
    5.0104   -1.2695    0.4621 H   0  0  0  0  0  0  0  0  0  0  0  0
    3.9919    1.1556    1.0714 H   0  0  0  0  0  0  0  0  0  0  0  0
    2.6666    2.6643    2.4403 H   0  0  0  0  0  0  0  0  0  0  0  0
    0.9482    4.1666    3.3782 H   0  0  0  0  0  0  0  0  0  0  0  0
   -1.7735    0.8536    3.8125 H   0  0  0  0  0  0  0  0  0  0  0  0
   -0.0621   -0.6705    2.8826 H   0  0  0  0  0  0  0  0  0  0  0  0
  1  2  2  0
  1 28  1  0
  1 29  1  0
  2  3  1  0
  2 30  1  0
  3  4  1  0
  3 31  1  0
  3 32  1  0
  4 26  1  0
  4  5  1  0
  5  6  2  0
  5  7  1  0
  7  8  1  0
  7 33  1  0
  8  9  2  0
  8 10  1  0
 10 11  2  3
 10 26  1  0
 11 12  1  0
 11 34  1  0
 12 25  1  0
 12 13  2  0
 13 14  1  0
 13 35  1  0
 14 15  2  0
 14 36  1  0
 15 16  1  0
 15 25  1  0
 16 24  1  0
 16 17  2  0
 17 18  1  0
 17 37  1  0
 18 19  2  0
 18 38  1  0
 19 20  1  0
 19 23  1  0
 20 21  2  0
 20 22  1  0
 23 24  2  0
 23 39  1  0
 24 40  1  0
 26 27  2  0
M  CHG  1  22  -1
M  END
>  <i_m_ct_stereo_status>  (274) 
1

>  <s_m_source_file>  (274) 
/var/tmp/pbs.5076255.sched01/tmpg3p38p3m/129jed2w9rh.sdf

>  <i_m_source_file_index>  (274) 
9

>  <i_lp_mmshare_version>  (274) 
48012

>  <i_f3d_flags>  (274) 
0

>  <s_epik_input>  (274) 
W0NIMl09W0NIXVtDSDJdTjFDKD1PKVtOSF1DKD1PKS9DKEMxPU8pPVtDSF0vYzJbY0hdW2NIXWMobzIpLWMzW2NIXVtjSF1jKEMoPU8pW09IXSlbY0hdW2NIXTM=

>  <s_epik_cmdline>  (274) 
J2VwaWtfcHl0aG9uJywgJy1waHQnLCAnMi4wJywgJy1waCcsICc3LjAnLCAnLXRuJywgJzgnLCAnLW1hJywgJzIwMCcsICctaW1hZScsICc8aW5maWxlLm1hZT4nLCAnLW9tYWUnLCAnPG91dGZpbGUubWFlPic=

>  <r_epik_Ionization_Penalty>  (274) 
0.409872

>  <r_epik_Ionization_Penalty_Charging>  (274) 
0.000798703

>  <r_epik_Ionization_Penalty_Neutral>  (274) 
0.409073

>  <r_epik_State_Penalty>  (274) 
0.409477

>  <r_epik_Charging_Adjusted_Penalty>  (274) 
0.410276

>  <i_epik_Tot_Q>  (274) 
-1

>  <i_epik_Tot_abs_Q>  (274) 
1

>  <s_lp_Force_Field>  (274) 
OPLS3e

>  <r_lp_Energy>  (274) 
39.5148

>  <b_lp_Chiralities_Consistent>  (274) 
1

>  <s_lp_Variant>  (274) 
93:0-1

>  <s_i_glide_gridfile>  (274) 
pfpi4k_grid

>  <i_i_glide_lignum>  (274) 
9

>  <i_i_glide_rotatable_bonds>  (274) 
5

>  <r_i_docking_score>  (274) 
-3.14435

>  <r_i_glide_ligand_efficiency>  (274) 
-0.116458

>  <r_i_glide_ligand_efficiency_sa>  (274) 
-0.349373

>  <r_i_glide_ligand_efficiency_ln>  (274) 
-0.731954

>  <r_i_glide_gscore>  (274) 
-3.14435

>  <r_i_glide_lipo>  (274) 
-0.171209

>  <r_i_glide_hbond>  (274) 
-0.147464

>  <r_i_glide_metal>  (274) 
-0

>  <r_i_glide_rewards>  (274) 
-1.28029

>  <r_i_glide_evdw>  (274) 
-26.4483

>  <r_i_glide_ecoul>  (274) 
-5.02135

>  <r_i_glide_erotb>  (274) 
0.576512

>  <r_i_glide_esite>  (274) 
-0.0462927

>  <r_i_glide_emodel>  (274) 
-39.4183

>  <r_i_glide_energy>  (274) 
-31.4696

>  <r_i_glide_einternal>  (274) 
2.83931

>  <r_i_glide_intrahb_reward>  (274) 
-0

>  <i_i_glide_confnum>  (274) 
4

>  <i_i_glide_posenum>  (274) 
23

>  <r_i_glide_eff_state_penalty>  (274) 
0

>  <ligand_id>  (274) 
93

>  <original_smiles>  (274) 
C=CCN1C(=O)NC(=O)C(=Cc2ccc(-c3ccc(C(=O)O)cc3)o2)C1=O

>  <smiles>  (274) 
[H]C([H])=C([H])C([H])([H])N1C(=O)C(=C([H])c2oc(-c3c([H])c([H])c(C(=O)[O-])c([H])c3[H])c([H])c2[H])C(=O)N([H])C1=O

$$$$
93:0:2
     RDKit          3D

 40 42  0  0  1  0  0  0  0  0999 V2000
   -1.1130   -6.8232    4.6210 C   0  0  0  0  0  0  0  0  0  0  0  0
   -0.3030   -7.7800    4.1445 C   0  0  0  0  0  0  0  0  0  0  0  0
   -0.2024   -8.1754    2.6833 C   0  0  0  0  0  0  0  0  0  0  0  0
    1.2122   -8.2129    2.2299 N   0  0  0  0  0  0  0  0  0  0  0  0
    1.8494   -9.4166    2.2193 C   0  0  0  0  0  0  0  0  0  0  0  0
    1.3156  -10.4464    2.6192 O   0  0  0  0  0  0  0  0  0  0  0  0
    3.0989   -9.4541    1.7245 N   0  0  0  0  0  0  0  0  0  0  0  0
    3.8349   -8.4179    1.2990 C   0  0  0  0  0  0  0  0  0  0  0  0
    4.9751   -8.6198    0.8809 O   0  0  0  0  0  0  0  0  0  0  0  0
    3.2023   -7.0820    1.3774 C   0  0  0  0  0  0  0  0  0  0  0  0
    3.9230   -5.9880    1.0171 C   0  0  0  0  0  0  0  0  0  0  0  0
    3.6774   -4.5718    1.0562 C   0  0  0  0  0  0  0  0  0  0  0  0
    4.1274   -3.5302    0.2955 C   0  0  0  0  0  0  0  0  0  0  0  0
    3.4536   -2.3590    0.7708 C   0  0  0  0  0  0  0  0  0  0  0  0
    2.6605   -2.7683    1.8060 C   0  0  0  0  0  0  0  0  0  0  0  0
    1.7137   -2.0877    2.6822 C   0  0  0  0  0  0  0  0  0  0  0  0
    1.0516   -2.7761    3.7293 C   0  0  0  0  0  0  0  0  0  0  0  0
    0.1386   -2.1010    4.5681 C   0  0  0  0  0  0  0  0  0  0  0  0
   -0.1490   -0.7253    4.3781 C   0  0  0  0  0  0  0  0  0  0  0  0
   -1.1285   -0.0055    5.2662 C   0  0  0  0  0  0  0  0  0  0  0  0
   -1.2369    1.2323    5.1911 O   0  0  0  0  0  0  0  0  0  0  0  0
   -1.8163   -0.6711    6.0787 O   0  0  0  0  0  0  0  0  0  0  0  0
    0.5036   -0.0446    3.3184 C   0  0  0  0  0  0  0  0  0  0  0  0
    1.4167   -0.7180    2.4763 C   0  0  0  0  0  0  0  0  0  0  0  0
    2.8332   -4.1017    2.0138 O   0  0  0  0  0  0  0  0  0  0  0  0
    1.7777   -7.0497    1.8050 C   0  0  0  0  0  0  0  0  0  0  0  0
    1.0774   -6.0328    1.7645 O   0  0  0  0  0  0  0  0  0  0  0  0
   -1.7683   -6.2657    3.9710 H   0  0  0  0  0  0  0  0  0  0  0  0
   -1.1336   -6.5872    5.6738 H   0  0  0  0  0  0  0  0  0  0  0  0
    0.3269   -8.3251    4.8323 H   0  0  0  0  0  0  0  0  0  0  0  0
   -0.7241   -9.1235    2.5533 H   0  0  0  0  0  0  0  0  0  0  0  0
   -0.7990   -7.4958    2.0725 H   0  0  0  0  0  0  0  0  0  0  0  0
    3.5207  -10.3779    1.6557 H   0  0  0  0  0  0  0  0  0  0  0  0
    4.9387   -6.1798    0.7010 H   0  0  0  0  0  0  0  0  0  0  0  0
    4.8392   -3.6087   -0.5167 H   0  0  0  0  0  0  0  0  0  0  0  0
    3.5264   -1.3431    0.4030 H   0  0  0  0  0  0  0  0  0  0  0  0
    1.2345   -3.8303    3.8999 H   0  0  0  0  0  0  0  0  0  0  0  0
   -0.3476   -2.6386    5.3700 H   0  0  0  0  0  0  0  0  0  0  0  0
    0.2864    0.9992    3.1387 H   0  0  0  0  0  0  0  0  0  0  0  0
    1.8664   -0.1783    1.6538 H   0  0  0  0  0  0  0  0  0  0  0  0
  1  2  2  0
  1 28  1  0
  1 29  1  0
  2  3  1  0
  2 30  1  0
  3  4  1  0
  3 31  1  0
  3 32  1  0
  4 26  1  0
  4  5  1  0
  5  6  2  0
  5  7  1  0
  7  8  1  0
  7 33  1  0
  8  9  2  0
  8 10  1  0
 10 11  2  3
 10 26  1  0
 11 12  1  0
 11 34  1  0
 12 25  1  0
 12 13  2  0
 13 14  1  0
 13 35  1  0
 14 15  2  0
 14 36  1  0
 15 16  1  0
 15 25  1  0
 16 24  1  0
 16 17  2  0
 17 18  1  0
 17 37  1  0
 18 19  2  0
 18 38  1  0
 19 20  1  0
 19 23  1  0
 20 21  2  0
 20 22  1  0
 23 24  2  0
 23 39  1  0
 24 40  1  0
 26 27  2  0
M  CHG  1  22  -1
M  END
>  <i_m_ct_stereo_status>  (275) 
1

>  <s_m_source_file>  (275) 
/var/tmp/pbs.5076255.sched01/tmpg3p38p3m/129jed2w9rh.sdf

>  <i_m_source_file_index>  (275) 
9

>  <i_lp_mmshare_version>  (275) 
48012

>  <i_f3d_flags>  (275) 
0

>  <s_epik_input>  (275) 
W0NIMl09W0NIXVtDSDJdTjFDKD1PKVtOSF1DKD1PKS9DKEMxPU8pPVtDSF0vYzJbY0hdW2NIXWMobzIpLWMzW2NIXVtjSF1jKEMoPU8pW09IXSlbY0hdW2NIXTM=

>  <s_epik_cmdline>  (275) 
J2VwaWtfcHl0aG9uJywgJy1waHQnLCAnMi4wJywgJy1waCcsICc3LjAnLCAnLXRuJywgJzgnLCAnLW1hJywgJzIwMCcsICctaW1hZScsICc8aW5maWxlLm1hZT4nLCAnLW9tYWUnLCAnPG91dGZpbGUubWFlPic=

>  <r_epik_Ionization_Penalty>  (275) 
0.409872

>  <r_epik_Ionization_Penalty_Charging>  (275) 
0.000798703

>  <r_epik_Ionization_Penalty_Neutral>  (275) 
0.409073

>  <r_epik_State_Penalty>  (275) 
0.409477

>  <r_epik_Charging_Adjusted_Penalty>  (275) 
0.410276

>  <i_epik_Tot_Q>  (275) 
-1

>  <i_epik_Tot_abs_Q>  (275) 
1

>  <s_lp_Force_Field>  (275) 
OPLS3e

>  <r_lp_Energy>  (275) 
39.5148

>  <b_lp_Chiralities_Consistent>  (275) 
1

>  <s_lp_Variant>  (275) 
93:0-1

>  <s_i_glide_gridfile>  (275) 
pfpi4k_grid

>  <i_i_glide_lignum>  (275) 
9

>  <i_i_glide_rotatable_bonds>  (275) 
5

>  <r_i_docking_score>  (275) 
-3.12036

>  <r_i_glide_ligand_efficiency>  (275) 
-0.115569

>  <r_i_glide_ligand_efficiency_sa>  (275) 
-0.346707

>  <r_i_glide_ligand_efficiency_ln>  (275) 
-0.726369

>  <r_i_glide_gscore>  (275) 
-3.12036

>  <r_i_glide_lipo>  (275) 
-0.239671

>  <r_i_glide_hbond>  (275) 
-0.317558

>  <r_i_glide_metal>  (275) 
-0

>  <r_i_glide_rewards>  (275) 
-1.02624

>  <r_i_glide_evdw>  (275) 
-27.2127

>  <r_i_glide_ecoul>  (275) 
-3.9102

>  <r_i_glide_erotb>  (275) 
0.576512

>  <r_i_glide_esite>  (275) 
-0.166243

>  <r_i_glide_emodel>  (275) 
-39.7673

>  <r_i_glide_energy>  (275) 
-31.1229

>  <r_i_glide_einternal>  (275) 
1.59995

>  <r_i_glide_intrahb_reward>  (275) 
-0

>  <i_i_glide_confnum>  (275) 
3

>  <i_i_glide_posenum>  (275) 
13

>  <r_i_glide_eff_state_penalty>  (275) 
0

>  <ligand_id>  (275) 
93

>  <original_smiles>  (275) 
C=CCN1C(=O)NC(=O)C(=Cc2ccc(-c3ccc(C(=O)O)cc3)o2)C1=O

>  <smiles>  (275) 
[H]C([H])=C([H])C([H])([H])N1C(=O)C(=C([H])c2oc(-c3c([H])c([H])c(C(=O)[O-])c([H])c3[H])c([H])c2[H])C(=O)N([H])C1=O

$$$$
93:1:0
     RDKit          3D

 40 42  0  0  1  0  0  0  0  0999 V2000
    0.7967   -9.5989    3.3149 C   0  0  0  0  0  0  0  0  0  0  0  0
    1.9426   -9.1187    2.8172 C   0  0  0  0  0  0  0  0  0  0  0  0
    2.0561   -8.4575    1.4613 C   0  0  0  0  0  0  0  0  0  0  0  0
    2.8027   -7.1869    1.5442 N   0  0  0  0  0  0  0  0  0  0  0  0
    4.1260   -7.2490    1.2296 C   0  0  0  0  0  0  0  0  0  0  0  0
    4.7172   -8.2730    0.9069 O   0  0  0  0  0  0  0  0  0  0  0  0
    4.8013   -6.0948    1.2796 N   0  0  0  0  0  0  0  0  0  0  0  0
    4.3659   -4.8873    1.6373 C   0  0  0  0  0  0  0  0  0  0  0  0
    5.2172   -4.0070    1.7006 O   0  0  0  0  0  0  0  0  0  0  0  0
    2.9169   -4.7693    1.9372 C   0  0  0  0  0  0  0  0  0  0  0  0
    2.2878   -3.5909    2.2327 C   0  0  0  0  0  0  0  0  0  0  0  0
    2.6929   -2.2042    2.3054 C   0  0  0  0  0  0  0  0  0  0  0  0
    3.8541   -1.4942    2.0779 C   0  0  0  0  0  0  0  0  0  0  0  0
    3.5941   -0.1395    2.3601 C   0  0  0  0  0  0  0  0  0  0  0  0
    2.2815   -0.0651    2.7008 C   0  0  0  0  0  0  0  0  0  0  0  0
    1.4697    1.0700    3.0696 C   0  0  0  0  0  0  0  0  0  0  0  0
    2.0775    2.2412    3.5836 C   0  0  0  0  0  0  0  0  0  0  0  0
    1.2680    3.3424    3.9386 C   0  0  0  0  0  0  0  0  0  0  0  0
   -0.1311    3.2947    3.7615 C   0  0  0  0  0  0  0  0  0  0  0  0
   -0.9950    4.4686    4.1186 C   0  0  0  0  0  0  0  0  0  0  0  0
   -2.1654    4.5322    3.6779 O   0  0  0  0  0  0  0  0  0  0  0  0
   -0.5408    5.3525    4.8834 O   0  0  0  0  0  0  0  0  0  0  0  0
   -0.7215    2.1252    3.2334 C   0  0  0  0  0  0  0  0  0  0  0  0
    0.0729    1.0150    2.8911 C   0  0  0  0  0  0  0  0  0  0  0  0
    1.7168   -1.3156    2.6792 O   0  0  0  0  0  0  0  0  0  0  0  0
    2.1283   -6.0406    1.8887 C   0  0  0  0  0  0  0  0  0  0  0  0
    0.9147   -6.0633    2.1123 O   0  0  0  0  0  0  0  0  0  0  0  0
   -0.1242   -9.5333    2.7558 H   0  0  0  0  0  0  0  0  0  0  0  0
    0.7700  -10.0666    4.2858 H   0  0  0  0  0  0  0  0  0  0  0  0
    2.8546   -9.2007    3.3917 H   0  0  0  0  0  0  0  0  0  0  0  0
    2.5216   -9.1907    0.7968 H   0  0  0  0  0  0  0  0  0  0  0  0
    1.0749   -8.2767    1.0185 H   0  0  0  0  0  0  0  0  0  0  0  0
    5.7807   -6.1290    1.0722 H   0  0  0  0  0  0  0  0  0  0  0  0
    1.2399   -3.6786    2.4711 H   0  0  0  0  0  0  0  0  0  0  0  0
    4.8309   -1.8149    1.7526 H   0  0  0  0  0  0  0  0  0  0  0  0
    4.3094    0.6623    2.2908 H   0  0  0  0  0  0  0  0  0  0  0  0
    3.1572    2.3023    3.7068 H   0  0  0  0  0  0  0  0  0  0  0  0
    1.7297    4.2354    4.3295 H   0  0  0  0  0  0  0  0  0  0  0  0
   -1.7859    2.0703    3.0834 H   0  0  0  0  0  0  0  0  0  0  0  0
   -0.3823    0.1259    2.4715 H   0  0  0  0  0  0  0  0  0  0  0  0
  1  2  2  0
  1 28  1  0
  1 29  1  0
  2  3  1  0
  2 30  1  0
  3  4  1  0
  3 31  1  0
  3 32  1  0
  4 26  1  0
  4  5  1  0
  5  6  2  0
  5  7  1  0
  7  8  1  0
  7 33  1  0
  8  9  2  0
  8 10  1  0
 10 11  2  3
 10 26  1  0
 11 12  1  0
 11 34  1  0
 12 25  1  0
 12 13  2  0
 13 14  1  0
 13 35  1  0
 14 15  2  0
 14 36  1  0
 15 16  1  0
 15 25  1  0
 16 24  1  0
 16 17  2  0
 17 18  1  0
 17 37  1  0
 18 19  2  0
 18 38  1  0
 19 20  1  0
 19 23  1  0
 20 21  2  0
 20 22  1  0
 23 24  2  0
 23 39  1  0
 24 40  1  0
 26 27  2  0
M  CHG  1  22  -1
M  END
>  <i_m_ct_stereo_status>  (276) 
1

>  <s_m_source_file>  (276) 
/var/tmp/pbs.5076255.sched01/tmpg3p38p3m/129jed2w9rh.sdf

>  <i_m_source_file_index>  (276) 
10

>  <i_lp_mmshare_version>  (276) 
48012

>  <i_f3d_flags>  (276) 
0

>  <s_epik_input>  (276) 
W0NIMl09W0NIXVtDSDJdTjFDKD1PKVtOSF1DKD1PKS9DKEMxPU8pPVtDSF0vYzJbY0hdW2NIXWMobzIpLWMzW2NIXVtjSF1jKEMoPU8pW09IXSlbY0hdW2NIXTM=

>  <s_epik_cmdline>  (276) 
J2VwaWtfcHl0aG9uJywgJy1waHQnLCAnMi4wJywgJy1waCcsICc3LjAnLCAnLXRuJywgJzgnLCAnLW1hJywgJzIwMCcsICctaW1hZScsICc8aW5maWxlLm1hZT4nLCAnLW9tYWUnLCAnPG91dGZpbGUubWFlPic=

>  <r_epik_Ionization_Penalty>  (276) 
0.409872

>  <r_epik_Ionization_Penalty_Charging>  (276) 
0.000798703

>  <r_epik_Ionization_Penalty_Neutral>  (276) 
0.409073

>  <r_epik_State_Penalty>  (276) 
0.409477

>  <r_epik_Charging_Adjusted_Penalty>  (276) 
0.410276

>  <i_epik_Tot_Q>  (276) 
-1

>  <i_epik_Tot_abs_Q>  (276) 
1

>  <s_lp_Force_Field>  (276) 
OPLS3e

>  <r_lp_Energy>  (276) 
39.2425

>  <b_lp_Chiralities_Consistent>  (276) 
1

>  <s_lp_Variant>  (276) 
93:0-2

>  <s_i_glide_gridfile>  (276) 
pfpi4k_grid

>  <i_i_glide_lignum>  (276) 
10

>  <i_i_glide_rotatable_bonds>  (276) 
5

>  <r_i_docking_score>  (276) 
-3.11097

>  <r_i_glide_ligand_efficiency>  (276) 
-0.115221

>  <r_i_glide_ligand_efficiency_sa>  (276) 
-0.345663

>  <r_i_glide_ligand_efficiency_ln>  (276) 
-0.724182

>  <r_i_glide_gscore>  (276) 
-3.11097

>  <r_i_glide_lipo>  (276) 
-0.0298528

>  <r_i_glide_hbond>  (276) 
-0.278536

>  <r_i_glide_metal>  (276) 
-0

>  <r_i_glide_rewards>  (276) 
-1.11297

>  <r_i_glide_evdw>  (276) 
-24.5696

>  <r_i_glide_ecoul>  (276) 
-6.16762

>  <r_i_glide_erotb>  (276) 
0.576512

>  <r_i_glide_esite>  (276) 
-0.112498

>  <r_i_glide_emodel>  (276) 
-37.3532

>  <r_i_glide_energy>  (276) 
-30.7372

>  <r_i_glide_einternal>  (276) 
1.19659

>  <r_i_glide_intrahb_reward>  (276) 
-0

>  <i_i_glide_confnum>  (276) 
2

>  <i_i_glide_posenum>  (276) 
13

>  <r_i_glide_eff_state_penalty>  (276) 
0

>  <ligand_id>  (276) 
93

>  <original_smiles>  (276) 
C=CCN1C(=O)NC(=O)C(=Cc2ccc(-c3ccc(C(=O)O)cc3)o2)C1=O

>  <smiles>  (276) 
[H]C([H])=C([H])C([H])([H])N1C(=O)C(=C([H])c2oc(-c3c([H])c([H])c(C(=O)[O-])c([H])c3[H])c([H])c2[H])C(=O)N([H])C1=O

$$$$
93:1:1
     RDKit          3D

 40 42  0  0  1  0  0  0  0  0999 V2000
   -1.8761   -7.7581    4.1511 C   0  0  0  0  0  0  0  0  0  0  0  0
   -0.9884   -8.7403    4.3692 C   0  0  0  0  0  0  0  0  0  0  0  0
   -0.3637   -9.5857    3.2659 C   0  0  0  0  0  0  0  0  0  0  0  0
    0.9405   -9.0443    2.7867 N   0  0  0  0  0  0  0  0  0  0  0  0
    2.0152   -9.8857    2.8524 C   0  0  0  0  0  0  0  0  0  0  0  0
    1.9648  -11.0465    3.2850 O   0  0  0  0  0  0  0  0  0  0  0  0
    3.1924   -9.4363    2.3861 N   0  0  0  0  0  0  0  0  0  0  0  0
    3.4607   -8.2483    1.8292 C   0  0  0  0  0  0  0  0  0  0  0  0
    4.6156   -8.0472    1.4258 O   0  0  0  0  0  0  0  0  0  0  0  0
    2.3210   -7.3075    1.7349 C   0  0  0  0  0  0  0  0  0  0  0  0
    2.3787   -6.0744    1.1967 C   0  0  0  0  0  0  0  0  0  0  0  0
    3.4193   -5.2538    0.6462 C   0  0  0  0  0  0  0  0  0  0  0  0
    4.7596   -5.1818    0.8291 C   0  0  0  0  0  0  0  0  0  0  0  0
    5.2532   -4.2661   -0.1303 C   0  0  0  0  0  0  0  0  0  0  0  0
    4.1609   -3.8052   -0.8023 C   0  0  0  0  0  0  0  0  0  0  0  0
    4.0395   -2.8259   -1.8678 C   0  0  0  0  0  0  0  0  0  0  0  0
    3.5416   -3.1936   -3.1307 C   0  0  0  0  0  0  0  0  0  0  0  0
    3.4138   -2.2288   -4.1402 C   0  0  0  0  0  0  0  0  0  0  0  0
    3.7664   -0.8820   -3.9075 C   0  0  0  0  0  0  0  0  0  0  0  0
    3.6197    0.1638   -4.9711 C   0  0  0  0  0  0  0  0  0  0  0  0
    3.7854    1.3606   -4.6821 O   0  0  0  0  0  0  0  0  0  0  0  0
    3.4130   -0.1796   -6.1536 O   0  0  0  0  0  0  0  0  0  0  0  0
    4.2928   -0.5439   -2.6474 C   0  0  0  0  0  0  0  0  0  0  0  0
    4.4395   -1.5003   -1.6280 C   0  0  0  0  0  0  0  0  0  0  0  0
    3.0201   -4.3710   -0.3195 O   0  0  0  0  0  0  0  0  0  0  0  0
    0.9945   -7.8037    2.1888 C   0  0  0  0  0  0  0  0  0  0  0  0
   -0.0329   -7.1190    2.0122 O   0  0  0  0  0  0  0  0  0  0  0  0
   -2.2462   -7.5537    3.1546 H   0  0  0  0  0  0  0  0  0  0  0  0
   -2.2415   -7.1379    4.9489 H   0  0  0  0  0  0  0  0  0  0  0  0
   -0.6850   -8.9863    5.3782 H   0  0  0  0  0  0  0  0  0  0  0  0
   -0.3205  -10.5904    3.7054 H   0  0  0  0  0  0  0  0  0  0  0  0
   -1.0396   -9.7174    2.4212 H   0  0  0  0  0  0  0  0  0  0  0  0
    3.9632  -10.0768    2.4110 H   0  0  0  0  0  0  0  0  0  0  0  0
    1.4636   -5.5071    1.1624 H   0  0  0  0  0  0  0  0  0  0  0  0
    5.3393   -5.7354    1.5534 H   0  0  0  0  0  0  0  0  0  0  0  0
    6.2743   -3.9729   -0.3042 H   0  0  0  0  0  0  0  0  0  0  0  0
    3.2349   -4.2087   -3.3512 H   0  0  0  0  0  0  0  0  0  0  0  0
    3.0202   -2.5321   -5.0954 H   0  0  0  0  0  0  0  0  0  0  0  0
    4.5715    0.4828   -2.4789 H   0  0  0  0  0  0  0  0  0  0  0  0
    4.8215   -1.2005   -0.6583 H   0  0  0  0  0  0  0  0  0  0  0  0
  1  2  2  0
  1 28  1  0
  1 29  1  0
  2  3  1  0
  2 30  1  0
  3  4  1  0
  3 31  1  0
  3 32  1  0
  4 26  1  0
  4  5  1  0
  5  6  2  0
  5  7  1  0
  7  8  1  0
  7 33  1  0
  8  9  2  0
  8 10  1  0
 10 11  2  3
 10 26  1  0
 11 12  1  0
 11 34  1  0
 12 25  1  0
 12 13  2  0
 13 14  1  0
 13 35  1  0
 14 15  2  0
 14 36  1  0
 15 16  1  0
 15 25  1  0
 16 24  1  0
 16 17  2  0
 17 18  1  0
 17 37  1  0
 18 19  2  0
 18 38  1  0
 19 20  1  0
 19 23  1  0
 20 21  2  0
 20 22  1  0
 23 24  2  0
 23 39  1  0
 24 40  1  0
 26 27  2  0
M  CHG  1  22  -1
M  END
>  <i_m_ct_stereo_status>  (277) 
1

>  <s_m_source_file>  (277) 
/var/tmp/pbs.5076255.sched01/tmpg3p38p3m/129jed2w9rh.sdf

>  <i_m_source_file_index>  (277) 
10

>  <i_lp_mmshare_version>  (277) 
48012

>  <i_f3d_flags>  (277) 
0

>  <s_epik_input>  (277) 
W0NIMl09W0NIXVtDSDJdTjFDKD1PKVtOSF1DKD1PKS9DKEMxPU8pPVtDSF0vYzJbY0hdW2NIXWMobzIpLWMzW2NIXVtjSF1jKEMoPU8pW09IXSlbY0hdW2NIXTM=

>  <s_epik_cmdline>  (277) 
J2VwaWtfcHl0aG9uJywgJy1waHQnLCAnMi4wJywgJy1waCcsICc3LjAnLCAnLXRuJywgJzgnLCAnLW1hJywgJzIwMCcsICctaW1hZScsICc8aW5maWxlLm1hZT4nLCAnLW9tYWUnLCAnPG91dGZpbGUubWFlPic=

>  <r_epik_Ionization_Penalty>  (277) 
0.409872

>  <r_epik_Ionization_Penalty_Charging>  (277) 
0.000798703

>  <r_epik_Ionization_Penalty_Neutral>  (277) 
0.409073

>  <r_epik_State_Penalty>  (277) 
0.409477

>  <r_epik_Charging_Adjusted_Penalty>  (277) 
0.410276

>  <i_epik_Tot_Q>  (277) 
-1

>  <i_epik_Tot_abs_Q>  (277) 
1

>  <s_lp_Force_Field>  (277) 
OPLS3e

>  <r_lp_Energy>  (277) 
39.2425

>  <b_lp_Chiralities_Consistent>  (277) 
1

>  <s_lp_Variant>  (277) 
93:0-2

>  <s_i_glide_gridfile>  (277) 
pfpi4k_grid

>  <i_i_glide_lignum>  (277) 
10

>  <i_i_glide_rotatable_bonds>  (277) 
5

>  <r_i_docking_score>  (277) 
-3.04905

>  <r_i_glide_ligand_efficiency>  (277) 
-0.112928

>  <r_i_glide_ligand_efficiency_sa>  (277) 
-0.338784

>  <r_i_glide_ligand_efficiency_ln>  (277) 
-0.709769

>  <r_i_glide_gscore>  (277) 
-3.04905

>  <r_i_glide_lipo>  (277) 
-0.466325

>  <r_i_glide_hbond>  (277) 
-0.0159742

>  <r_i_glide_metal>  (277) 
-0

>  <r_i_glide_rewards>  (277) 
-1.18208

>  <r_i_glide_evdw>  (277) 
-32.727

>  <r_i_glide_ecoul>  (277) 
-1.6075

>  <r_i_glide_erotb>  (277) 
0.576512

>  <r_i_glide_esite>  (277) 
-0.0837134

>  <r_i_glide_emodel>  (277) 
-35.6826

>  <r_i_glide_energy>  (277) 
-34.3345

>  <r_i_glide_einternal>  (277) 
9.36227

>  <r_i_glide_intrahb_reward>  (277) 
-0

>  <i_i_glide_confnum>  (277) 
1

>  <i_i_glide_posenum>  (277) 
14

>  <r_i_glide_eff_state_penalty>  (277) 
0

>  <ligand_id>  (277) 
93

>  <original_smiles>  (277) 
C=CCN1C(=O)NC(=O)C(=Cc2ccc(-c3ccc(C(=O)O)cc3)o2)C1=O

>  <smiles>  (277) 
[H]C([H])=C([H])C([H])([H])N1C(=O)C(=C([H])c2oc(-c3c([H])c([H])c(C(=O)[O-])c([H])c3[H])c([H])c2[H])C(=O)N([H])C1=O

$$$$
93:1:2
     RDKit          3D

 40 42  0  0  1  0  0  0  0  0999 V2000
    4.2856   -7.8039    1.5561 C   0  0  0  0  0  0  0  0  0  0  0  0
    5.0422   -6.7451    1.2311 C   0  0  0  0  0  0  0  0  0  0  0  0
    4.7265   -5.7908    0.0958 C   0  0  0  0  0  0  0  0  0  0  0  0
    4.8210   -4.3706    0.5047 N   0  0  0  0  0  0  0  0  0  0  0  0
    6.0479   -3.7800    0.4419 C   0  0  0  0  0  0  0  0  0  0  0  0
    7.0726   -4.3584    0.0796 O   0  0  0  0  0  0  0  0  0  0  0  0
    6.1322   -2.4942    0.8120 N   0  0  0  0  0  0  0  0  0  0  0  0
    5.1453   -1.7100    1.2605 C   0  0  0  0  0  0  0  0  0  0  0  0
    5.4445   -0.5729    1.6147 O   0  0  0  0  0  0  0  0  0  0  0  0
    3.7992   -2.3089    1.3058 C   0  0  0  0  0  0  0  0  0  0  0  0
    2.6919   -1.6312    1.7112 C   0  0  0  0  0  0  0  0  0  0  0  0
    2.4469   -0.2582    2.0554 C   0  0  0  0  0  0  0  0  0  0  0  0
    2.9973    0.9379    1.6849 C   0  0  0  0  0  0  0  0  0  0  0  0
    2.3476    1.9471    2.4439 C   0  0  0  0  0  0  0  0  0  0  0  0
    1.4301    1.3049    3.2262 C   0  0  0  0  0  0  0  0  0  0  0  0
    0.4708    1.7816    4.2176 C   0  0  0  0  0  0  0  0  0  0  0  0
   -0.5899    0.9568    4.6556 C   0  0  0  0  0  0  0  0  0  0  0  0
   -1.5162    1.4310    5.6048 C   0  0  0  0  0  0  0  0  0  0  0  0
   -1.3977    2.7319    6.1418 C   0  0  0  0  0  0  0  0  0  0  0  0
   -2.3806    3.2336    7.1624 C   0  0  0  0  0  0  0  0  0  0  0  0
   -2.1747    4.3378    7.7090 O   0  0  0  0  0  0  0  0  0  0  0  0
   -3.3823    2.5338    7.4303 O   0  0  0  0  0  0  0  0  0  0  0  0
   -0.3347    3.5535    5.7070 C   0  0  0  0  0  0  0  0  0  0  0  0
    0.5887    3.0848    4.7528 C   0  0  0  0  0  0  0  0  0  0  0  0
    1.4870   -0.0402    2.9977 O   0  0  0  0  0  0  0  0  0  0  0  0
    3.6857   -3.7362    0.9297 C   0  0  0  0  0  0  0  0  0  0  0  0
    2.6122   -4.3429    0.9855 O   0  0  0  0  0  0  0  0  0  0  0  0
    3.3834   -8.0418    1.0108 H   0  0  0  0  0  0  0  0  0  0  0  0
    4.5611   -8.4548    2.3738 H   0  0  0  0  0  0  0  0  0  0  0  0
    5.9430   -6.5489    1.7950 H   0  0  0  0  0  0  0  0  0  0  0  0
    5.4113   -6.0053   -0.7217 H   0  0  0  0  0  0  0  0  0  0  0  0
    3.7508   -6.0416   -0.3199 H   0  0  0  0  0  0  0  0  0  0  0  0
    7.0507   -2.0795    0.7901 H   0  0  0  0  0  0  0  0  0  0  0  0
    1.7688   -2.1900    1.7244 H   0  0  0  0  0  0  0  0  0  0  0  0
    3.7819    1.0682    0.9558 H   0  0  0  0  0  0  0  0  0  0  0  0
    2.5299    3.0117    2.4175 H   0  0  0  0  0  0  0  0  0  0  0  0
   -0.7074   -0.0425    4.2583 H   0  0  0  0  0  0  0  0  0  0  0  0
   -2.3257    0.7891    5.9213 H   0  0  0  0  0  0  0  0  0  0  0  0
   -0.2273    4.5503    6.1086 H   0  0  0  0  0  0  0  0  0  0  0  0
    1.3914    3.7377    4.4390 H   0  0  0  0  0  0  0  0  0  0  0  0
  1  2  2  0
  1 28  1  0
  1 29  1  0
  2  3  1  0
  2 30  1  0
  3  4  1  0
  3 31  1  0
  3 32  1  0
  4 26  1  0
  4  5  1  0
  5  6  2  0
  5  7  1  0
  7  8  1  0
  7 33  1  0
  8  9  2  0
  8 10  1  0
 10 11  2  3
 10 26  1  0
 11 12  1  0
 11 34  1  0
 12 25  1  0
 12 13  2  0
 13 14  1  0
 13 35  1  0
 14 15  2  0
 14 36  1  0
 15 16  1  0
 15 25  1  0
 16 24  1  0
 16 17  2  0
 17 18  1  0
 17 37  1  0
 18 19  2  0
 18 38  1  0
 19 20  1  0
 19 23  1  0
 20 21  2  0
 20 22  1  0
 23 24  2  0
 23 39  1  0
 24 40  1  0
 26 27  2  0
M  CHG  1  22  -1
M  END
>  <i_m_ct_stereo_status>  (278) 
1

>  <s_m_source_file>  (278) 
/var/tmp/pbs.5076255.sched01/tmpg3p38p3m/129jed2w9rh.sdf

>  <i_m_source_file_index>  (278) 
10

>  <i_lp_mmshare_version>  (278) 
48012

>  <i_f3d_flags>  (278) 
0

>  <s_epik_input>  (278) 
W0NIMl09W0NIXVtDSDJdTjFDKD1PKVtOSF1DKD1PKS9DKEMxPU8pPVtDSF0vYzJbY0hdW2NIXWMobzIpLWMzW2NIXVtjSF1jKEMoPU8pW09IXSlbY0hdW2NIXTM=

>  <s_epik_cmdline>  (278) 
J2VwaWtfcHl0aG9uJywgJy1waHQnLCAnMi4wJywgJy1waCcsICc3LjAnLCAnLXRuJywgJzgnLCAnLW1hJywgJzIwMCcsICctaW1hZScsICc8aW5maWxlLm1hZT4nLCAnLW9tYWUnLCAnPG91dGZpbGUubWFlPic=

>  <r_epik_Ionization_Penalty>  (278) 
0.409872

>  <r_epik_Ionization_Penalty_Charging>  (278) 
0.000798703

>  <r_epik_Ionization_Penalty_Neutral>  (278) 
0.409073

>  <r_epik_State_Penalty>  (278) 
0.409477

>  <r_epik_Charging_Adjusted_Penalty>  (278) 
0.410276

>  <i_epik_Tot_Q>  (278) 
-1

>  <i_epik_Tot_abs_Q>  (278) 
1

>  <s_lp_Force_Field>  (278) 
OPLS3e

>  <r_lp_Energy>  (278) 
39.2425

>  <b_lp_Chiralities_Consistent>  (278) 
1

>  <s_lp_Variant>  (278) 
93:0-2

>  <s_i_glide_gridfile>  (278) 
pfpi4k_grid

>  <i_i_glide_lignum>  (278) 
10

>  <i_i_glide_rotatable_bonds>  (278) 
5

>  <r_i_docking_score>  (278) 
-2.80336

>  <r_i_glide_ligand_efficiency>  (278) 
-0.103828

>  <r_i_glide_ligand_efficiency_sa>  (278) 
-0.311485

>  <r_i_glide_ligand_efficiency_ln>  (278) 
-0.652577

>  <r_i_glide_gscore>  (278) 
-2.80336

>  <r_i_glide_lipo>  (278) 
-0.287422

>  <r_i_glide_hbond>  (278) 
-0.0141341

>  <r_i_glide_metal>  (278) 
-0

>  <r_i_glide_rewards>  (278) 
-1.33553

>  <r_i_glide_evdw>  (278) 
-25.9927

>  <r_i_glide_ecoul>  (278) 
-2.9544

>  <r_i_glide_erotb>  (278) 
0.576512

>  <r_i_glide_esite>  (278) 
0

>  <r_i_glide_emodel>  (278) 
-34.6862

>  <r_i_glide_energy>  (278) 
-28.9471

>  <r_i_glide_einternal>  (278) 
2.42093

>  <r_i_glide_intrahb_reward>  (278) 
-0

>  <i_i_glide_confnum>  (278) 
1

>  <i_i_glide_posenum>  (278) 
16

>  <r_i_glide_eff_state_penalty>  (278) 
0

>  <ligand_id>  (278) 
93

>  <original_smiles>  (278) 
C=CCN1C(=O)NC(=O)C(=Cc2ccc(-c3ccc(C(=O)O)cc3)o2)C1=O

>  <smiles>  (278) 
[H]C([H])=C([H])C([H])([H])N1C(=O)C(=C([H])c2oc(-c3c([H])c([H])c(C(=O)[O-])c([H])c3[H])c([H])c2[H])C(=O)N([H])C1=O

$$$$
93:2:0
     RDKit          3D

 39 41  0  0  1  0  0  0  0  0999 V2000
    3.0016    4.1445    3.4707 C   0  0  0  0  0  0  0  0  0  0  0  0
    1.7696    4.1295    4.0010 C   0  0  0  0  0  0  0  0  0  0  0  0
    0.5620    3.5127    3.3197 C   0  0  0  0  0  0  0  0  0  0  0  0
   -0.2588    2.6912    4.2443 N   0  0  0  0  0  0  0  0  0  0  0  0
   -1.3594    3.2250    4.8503 C   0  0  0  0  0  0  0  0  0  0  0  0
   -1.6995    4.3827    4.5767 O   0  0  0  0  0  0  0  0  0  0  0  0
   -2.0490    2.4835    5.7646 N   0  0  0  0  0  0  0  0  0  0  0  0
   -1.7504    1.1840    6.0248 C   0  0  0  0  0  0  0  0  0  0  0  0
   -2.3930    0.5472    6.8702 O   0  0  0  0  0  0  0  0  0  0  0  0
   -0.6767    0.5087    5.2764 C   0  0  0  0  0  0  0  0  0  0  0  0
   -0.5466   -0.8467    5.3465 C   0  0  0  0  0  0  0  0  0  0  0  0
    0.2677   -1.8343    4.6990 C   0  0  0  0  0  0  0  0  0  0  0  0
    0.3522   -3.1947    4.8301 C   0  0  0  0  0  0  0  0  0  0  0  0
    1.3455   -3.6318    3.9001 C   0  0  0  0  0  0  0  0  0  0  0  0
    1.7969   -2.5123    3.2595 C   0  0  0  0  0  0  0  0  0  0  0  0
    2.8034   -2.2659    2.2355 C   0  0  0  0  0  0  0  0  0  0  0  0
    2.8927   -1.0165    1.5739 C   0  0  0  0  0  0  0  0  0  0  0  0
    3.8662   -0.8070    0.5713 C   0  0  0  0  0  0  0  0  0  0  0  0
    4.7791   -1.8258    0.2263 C   0  0  0  0  0  0  0  0  0  0  0  0
    5.7967   -1.6017   -0.8518 C   0  0  0  0  0  0  0  0  0  0  0  0
    5.4352   -1.0525   -1.9110 O   0  0  0  0  0  0  0  0  0  0  0  0
    6.9874   -1.9396   -0.6613 O   0  0  0  0  0  0  0  0  0  0  0  0
    4.7099   -3.0602    0.9008 C   0  0  0  0  0  0  0  0  0  0  0  0
    3.7248   -3.2807    1.8899 C   0  0  0  0  0  0  0  0  0  0  0  0
    1.1167   -1.4384    3.7212 O   0  0  0  0  0  0  0  0  0  0  0  0
    0.1886    1.4154    4.4743 C   0  0  0  0  0  0  0  0  0  0  0  0
    1.2813    1.0898    4.0338 O   0  0  0  0  0  0  0  0  0  0  0  0
    3.2058    3.6998    2.5051 H   0  0  0  0  0  0  0  0  0  0  0  0
    3.8246    4.6085    3.9927 H   0  0  0  0  0  0  0  0  0  0  0  0
    1.6030    4.5883    4.9654 H   0  0  0  0  0  0  0  0  0  0  0  0
   -0.0113    4.3224    2.8791 H   0  0  0  0  0  0  0  0  0  0  0  0
    0.8869    2.9257    2.4590 H   0  0  0  0  0  0  0  0  0  0  0  0
   -1.2477   -1.3379    6.0061 H   0  0  0  0  0  0  0  0  0  0  0  0
   -0.2391   -3.7998    5.5096 H   0  0  0  0  0  0  0  0  0  0  0  0
    1.6924   -4.6413    3.7096 H   0  0  0  0  0  0  0  0  0  0  0  0
    2.2096   -0.2050    1.8024 H   0  0  0  0  0  0  0  0  0  0  0  0
    3.9267    0.1486    0.0730 H   0  0  0  0  0  0  0  0  0  0  0  0
    5.4023   -3.8478    0.6321 H   0  0  0  0  0  0  0  0  0  0  0  0
    3.6867   -4.2431    2.3819 H   0  0  0  0  0  0  0  0  0  0  0  0
  1  2  2  0
  1 28  1  0
  1 29  1  0
  2  3  1  0
  2 30  1  0
  3  4  1  0
  3 31  1  0
  3 32  1  0
  4 26  1  0
  4  5  1  0
  5  6  2  0
  5  7  1  0
  7  8  1  0
  8  9  2  0
  8 10  1  0
 10 11  2  3
 10 26  1  0
 11 12  1  0
 11 33  1  0
 12 25  1  0
 12 13  2  0
 13 14  1  0
 13 34  1  0
 14 15  2  0
 14 35  1  0
 15 16  1  0
 15 25  1  0
 16 24  1  0
 16 17  2  0
 17 18  1  0
 17 36  1  0
 18 19  2  0
 18 37  1  0
 19 20  1  0
 19 23  1  0
 20 21  2  0
 20 22  1  0
 23 24  2  0
 23 38  1  0
 24 39  1  0
 26 27  2  0
M  CHG  2   7  -1  22  -1
M  END
>  <i_m_ct_stereo_status>  (279) 
1

>  <s_m_source_file>  (279) 
/var/tmp/pbs.5076255.sched01/tmpg3p38p3m/129jed2w9rh.sdf

>  <i_m_source_file_index>  (279) 
11

>  <i_lp_mmshare_version>  (279) 
48012

>  <i_f3d_flags>  (279) 
0

>  <s_epik_input>  (279) 
W0NIMl09W0NIXVtDSDJdTjFDKD1PKVtOSF1DKD1PKS9DKEMxPU8pPVtDSF0vYzJbY0hdW2NIXWMobzIpLWMzW2NIXVtjSF1jKEMoPU8pW09IXSlbY0hdW2NIXTM=

>  <s_epik_cmdline>  (279) 
J2VwaWtfcHl0aG9uJywgJy1waHQnLCAnMi4wJywgJy1waCcsICc3LjAnLCAnLXRuJywgJzgnLCAnLW1hJywgJzIwMCcsICctaW1hZScsICc8aW5maWxlLm1hZT4nLCAnLW9tYWUnLCAnPG91dGZpbGUubWFlPic=

>  <r_epik_Ionization_Penalty>  (279) 
0.413091

>  <r_epik_Ionization_Penalty_Charging>  (279) 
0.413091

>  <r_epik_Ionization_Penalty_Neutral>  (279) 
2.37726e-13

>  <r_epik_State_Penalty>  (279) 
0.412913

>  <r_epik_Charging_Adjusted_Penalty>  (279) 
0.826003

>  <i_epik_Tot_Q>  (279) 
-2

>  <i_epik_Tot_abs_Q>  (279) 
2

>  <s_lp_Force_Field>  (279) 
OPLS3e

>  <r_lp_Energy>  (279) 
52.3531

>  <b_lp_Chiralities_Consistent>  (279) 
1

>  <s_lp_Variant>  (279) 
93:0-3

>  <s_i_glide_gridfile>  (279) 
pfpi4k_grid

>  <i_i_glide_lignum>  (279) 
11

>  <i_i_glide_rotatable_bonds>  (279) 
5

>  <r_i_docking_score>  (279) 
-3.74445

>  <r_i_glide_ligand_efficiency>  (279) 
-0.138683

>  <r_i_glide_ligand_efficiency_sa>  (279) 
-0.41605

>  <r_i_glide_ligand_efficiency_ln>  (279) 
-0.871647

>  <r_i_glide_gscore>  (279) 
-3.74445

>  <r_i_glide_lipo>  (279) 
-0.0730707

>  <r_i_glide_hbond>  (279) 
-0.422777

>  <r_i_glide_metal>  (279) 
-0

>  <r_i_glide_rewards>  (279) 
-0.92517

>  <r_i_glide_evdw>  (279) 
-18.722

>  <r_i_glide_ecoul>  (279) 
-12.0305

>  <r_i_glide_erotb>  (279) 
0.579363

>  <r_i_glide_esite>  (279) 
-0.162116

>  <r_i_glide_emodel>  (279) 
-39.4248

>  <r_i_glide_energy>  (279) 
-30.7526

>  <r_i_glide_einternal>  (279) 
3.69554

>  <r_i_glide_intrahb_reward>  (279) 
-0

>  <i_i_glide_confnum>  (279) 
3

>  <i_i_glide_posenum>  (279) 
17

>  <r_i_glide_eff_state_penalty>  (279) 
0

>  <ligand_id>  (279) 
93

>  <original_smiles>  (279) 
C=CCN1C(=O)NC(=O)C(=Cc2ccc(-c3ccc(C(=O)O)cc3)o2)C1=O

>  <smiles>  (279) 
[H]C([H])=C([H])C([H])([H])N1C(=O)[N-]C(=O)C(=C([H])c2oc(-c3c([H])c([H])c(C(=O)[O-])c([H])c3[H])c([H])c2[H])C1=O

$$$$
93:2:1
     RDKit          3D

 39 41  0  0  1  0  0  0  0  0999 V2000
    2.6780    3.4507    5.2131 C   0  0  0  0  0  0  0  0  0  0  0  0
    2.2999    3.6636    3.9374 C   0  0  0  0  0  0  0  0  0  0  0  0
    0.9881    3.2170    3.2812 C   0  0  0  0  0  0  0  0  0  0  0  0
    0.0778    2.4540    4.1793 N   0  0  0  0  0  0  0  0  0  0  0  0
   -0.9786    3.0794    4.7857 C   0  0  0  0  0  0  0  0  0  0  0  0
   -1.2379    4.2596    4.5263 O   0  0  0  0  0  0  0  0  0  0  0  0
   -1.7126    2.3981    5.7106 N   0  0  0  0  0  0  0  0  0  0  0  0
   -1.4918    1.0953    6.0029 C   0  0  0  0  0  0  0  0  0  0  0  0
   -2.1705    0.5442    6.8840 O   0  0  0  0  0  0  0  0  0  0  0  0
   -0.4723    0.3301    5.2587 C   0  0  0  0  0  0  0  0  0  0  0  0
   -0.4280   -1.0283    5.3537 C   0  0  0  0  0  0  0  0  0  0  0  0
    0.3318   -2.0816    4.7298 C   0  0  0  0  0  0  0  0  0  0  0  0
    0.2889   -3.4460    4.8484 C   0  0  0  0  0  0  0  0  0  0  0  0
    1.2811   -3.9659    3.9497 C   0  0  0  0  0  0  0  0  0  0  0  0
    1.8481   -2.8816    3.3374 C   0  0  0  0  0  0  0  0  0  0  0  0
    2.9153   -2.7147    2.3585 C   0  0  0  0  0  0  0  0  0  0  0  0
    2.9088   -1.6329    1.4435 C   0  0  0  0  0  0  0  0  0  0  0  0
    3.9406   -1.4931    0.4862 C   0  0  0  0  0  0  0  0  0  0  0  0
    5.0138   -2.4127    0.4398 C   0  0  0  0  0  0  0  0  0  0  0  0
    6.1196   -2.2669   -0.5771 C   0  0  0  0  0  0  0  0  0  0  0  0
    7.1602   -2.9509   -0.4531 O   0  0  0  0  0  0  0  0  0  0  0  0
    5.9924   -1.4587   -1.5195 O   0  0  0  0  0  0  0  0  0  0  0  0
    5.0313   -3.4724    1.3749 C   0  0  0  0  0  0  0  0  0  0  0  0
    3.9937   -3.6261    2.3217 C   0  0  0  0  0  0  0  0  0  0  0  0
    1.2498   -1.7534    3.7875 O   0  0  0  0  0  0  0  0  0  0  0  0
    0.4362    1.1551    4.4245 C   0  0  0  0  0  0  0  0  0  0  0  0
    1.5137    0.7382    3.9973 O   0  0  0  0  0  0  0  0  0  0  0  0
    2.0461    2.9175    5.9059 H   0  0  0  0  0  0  0  0  0  0  0  0
    3.6285    3.7998    5.5897 H   0  0  0  0  0  0  0  0  0  0  0  0
    2.9691    4.2016    3.2822 H   0  0  0  0  0  0  0  0  0  0  0  0
    0.5207    4.1066    2.8784 H   0  0  0  0  0  0  0  0  0  0  0  0
    1.2340    2.6146    2.3987 H   0  0  0  0  0  0  0  0  0  0  0  0
   -1.1563   -1.4658    6.0245 H   0  0  0  0  0  0  0  0  0  0  0  0
   -0.3826   -4.0012    5.4963 H   0  0  0  0  0  0  0  0  0  0  0  0
    1.5481   -5.0011    3.7586 H   0  0  0  0  0  0  0  0  0  0  0  0
    2.1007   -0.9095    1.4468 H   0  0  0  0  0  0  0  0  0  0  0  0
    3.9039   -0.6755   -0.2213 H   0  0  0  0  0  0  0  0  0  0  0  0
    5.8456   -4.1827    1.3604 H   0  0  0  0  0  0  0  0  0  0  0  0
    4.0361   -4.4460    3.0286 H   0  0  0  0  0  0  0  0  0  0  0  0
  1  2  2  0
  1 28  1  0
  1 29  1  0
  2  3  1  0
  2 30  1  0
  3  4  1  0
  3 31  1  0
  3 32  1  0
  4 26  1  0
  4  5  1  0
  5  6  2  0
  5  7  1  0
  7  8  1  0
  8  9  2  0
  8 10  1  0
 10 11  2  3
 10 26  1  0
 11 12  1  0
 11 33  1  0
 12 25  1  0
 12 13  2  0
 13 14  1  0
 13 34  1  0
 14 15  2  0
 14 35  1  0
 15 16  1  0
 15 25  1  0
 16 24  1  0
 16 17  2  0
 17 18  1  0
 17 36  1  0
 18 19  2  0
 18 37  1  0
 19 20  1  0
 19 23  1  0
 20 21  2  0
 20 22  1  0
 23 24  2  0
 23 38  1  0
 24 39  1  0
 26 27  2  0
M  CHG  2   7  -1  22  -1
M  END
>  <i_m_ct_stereo_status>  (280) 
1

>  <s_m_source_file>  (280) 
/var/tmp/pbs.5076255.sched01/tmpg3p38p3m/129jed2w9rh.sdf

>  <i_m_source_file_index>  (280) 
11

>  <i_lp_mmshare_version>  (280) 
48012

>  <i_f3d_flags>  (280) 
0

>  <s_epik_input>  (280) 
W0NIMl09W0NIXVtDSDJdTjFDKD1PKVtOSF1DKD1PKS9DKEMxPU8pPVtDSF0vYzJbY0hdW2NIXWMobzIpLWMzW2NIXVtjSF1jKEMoPU8pW09IXSlbY0hdW2NIXTM=

>  <s_epik_cmdline>  (280) 
J2VwaWtfcHl0aG9uJywgJy1waHQnLCAnMi4wJywgJy1waCcsICc3LjAnLCAnLXRuJywgJzgnLCAnLW1hJywgJzIwMCcsICctaW1hZScsICc8aW5maWxlLm1hZT4nLCAnLW9tYWUnLCAnPG91dGZpbGUubWFlPic=

>  <r_epik_Ionization_Penalty>  (280) 
0.413091

>  <r_epik_Ionization_Penalty_Charging>  (280) 
0.413091

>  <r_epik_Ionization_Penalty_Neutral>  (280) 
2.37726e-13

>  <r_epik_State_Penalty>  (280) 
0.412913

>  <r_epik_Charging_Adjusted_Penalty>  (280) 
0.826003

>  <i_epik_Tot_Q>  (280) 
-2

>  <i_epik_Tot_abs_Q>  (280) 
2

>  <s_lp_Force_Field>  (280) 
OPLS3e

>  <r_lp_Energy>  (280) 
52.3531

>  <b_lp_Chiralities_Consistent>  (280) 
1

>  <s_lp_Variant>  (280) 
93:0-3

>  <s_i_glide_gridfile>  (280) 
pfpi4k_grid

>  <i_i_glide_lignum>  (280) 
11

>  <i_i_glide_rotatable_bonds>  (280) 
5

>  <r_i_docking_score>  (280) 
-3.40795

>  <r_i_glide_ligand_efficiency>  (280) 
-0.12622

>  <r_i_glide_ligand_efficiency_sa>  (280) 
-0.378661

>  <r_i_glide_ligand_efficiency_ln>  (280) 
-0.793314

>  <r_i_glide_gscore>  (280) 
-3.40795

>  <r_i_glide_lipo>  (280) 
-0.0952606

>  <r_i_glide_hbond>  (280) 
-0.289748

>  <r_i_glide_metal>  (280) 
-0

>  <r_i_glide_rewards>  (280) 
-0.92517

>  <r_i_glide_evdw>  (280) 
-19.5387

>  <r_i_glide_ecoul>  (280) 
-10.4878

>  <r_i_glide_erotb>  (280) 
0.579363

>  <r_i_glide_esite>  (280) 
-0.127027

>  <r_i_glide_emodel>  (280) 
-38.5161

>  <r_i_glide_energy>  (280) 
-30.0265

>  <r_i_glide_einternal>  (280) 
2.80765

>  <r_i_glide_intrahb_reward>  (280) 
-0

>  <i_i_glide_confnum>  (280) 
3

>  <i_i_glide_posenum>  (280) 
1

>  <r_i_glide_eff_state_penalty>  (280) 
0

>  <ligand_id>  (280) 
93

>  <original_smiles>  (280) 
C=CCN1C(=O)NC(=O)C(=Cc2ccc(-c3ccc(C(=O)O)cc3)o2)C1=O

>  <smiles>  (280) 
[H]C([H])=C([H])C([H])([H])N1C(=O)[N-]C(=O)C(=C([H])c2oc(-c3c([H])c([H])c(C(=O)[O-])c([H])c3[H])c([H])c2[H])C1=O

$$$$
93:2:2
     RDKit          3D

 39 41  0  0  1  0  0  0  0  0999 V2000
    2.6689    4.8867    3.7876 C   0  0  0  0  0  0  0  0  0  0  0  0
    2.1589    3.6526    3.8956 C   0  0  0  0  0  0  0  0  0  0  0  0
    0.8413    3.2196    3.2728 C   0  0  0  0  0  0  0  0  0  0  0  0
   -0.0368    2.4721    4.2086 N   0  0  0  0  0  0  0  0  0  0  0  0
   -1.0977    3.0895    4.8063 C   0  0  0  0  0  0  0  0  0  0  0  0
   -1.3710    4.2640    4.5285 O   0  0  0  0  0  0  0  0  0  0  0  0
   -1.8251    2.4019    5.7280 N   0  0  0  0  0  0  0  0  0  0  0  0
   -1.6048    1.0979    6.0067 C   0  0  0  0  0  0  0  0  0  0  0  0
   -2.2797    0.5427    6.8798 O   0  0  0  0  0  0  0  0  0  0  0  0
   -0.5883    0.3375    5.2657 C   0  0  0  0  0  0  0  0  0  0  0  0
   -0.5528   -1.0269    5.3606 C   0  0  0  0  0  0  0  0  0  0  0  0
    0.2011   -2.0815    4.7264 C   0  0  0  0  0  0  0  0  0  0  0  0
    0.2012   -3.4404    4.8868 C   0  0  0  0  0  0  0  0  0  0  0  0
    1.1545   -3.9602    3.9512 C   0  0  0  0  0  0  0  0  0  0  0  0
    1.6644   -2.8774    3.2858 C   0  0  0  0  0  0  0  0  0  0  0  0
    2.6676   -2.7076    2.2346 C   0  0  0  0  0  0  0  0  0  0  0  0
    3.3583   -3.8256    1.7136 C   0  0  0  0  0  0  0  0  0  0  0  0
    4.3214   -3.6628    0.6957 C   0  0  0  0  0  0  0  0  0  0  0  0
    4.6167   -2.3822    0.1743 C   0  0  0  0  0  0  0  0  0  0  0  0
    5.6412   -2.2120   -0.9189 C   0  0  0  0  0  0  0  0  0  0  0  0
    5.8166   -1.0783   -1.4204 O   0  0  0  0  0  0  0  0  0  0  0  0
    6.3158   -3.1964   -1.2949 O   0  0  0  0  0  0  0  0  0  0  0  0
    3.9307   -1.2616    0.6955 C   0  0  0  0  0  0  0  0  0  0  0  0
    2.9690   -1.4224    1.7137 C   0  0  0  0  0  0  0  0  0  0  0  0
    1.0579   -1.7501    3.7317 O   0  0  0  0  0  0  0  0  0  0  0  0
    0.3182    1.1745    4.4441 C   0  0  0  0  0  0  0  0  0  0  0  0
    1.3860    0.7571    4.0021 O   0  0  0  0  0  0  0  0  0  0  0  0
    2.1447    5.6559    3.2381 H   0  0  0  0  0  0  0  0  0  0  0  0
    3.6137    5.1368    4.2450 H   0  0  0  0  0  0  0  0  0  0  0  0
    2.7185    2.9024    4.4401 H   0  0  0  0  0  0  0  0  0  0  0  0
    0.3535    4.1036    2.8819 H   0  0  0  0  0  0  0  0  0  0  0  0
    1.0618    2.6119    2.3892 H   0  0  0  0  0  0  0  0  0  0  0  0
   -1.2792   -1.4595    6.0329 H   0  0  0  0  0  0  0  0  0  0  0  0
   -0.4212   -3.9888    5.5878 H   0  0  0  0  0  0  0  0  0  0  0  0
    1.4299   -4.9931    3.7783 H   0  0  0  0  0  0  0  0  0  0  0  0
    3.1541   -4.8202    2.0918 H   0  0  0  0  0  0  0  0  0  0  0  0
    4.8379   -4.5294    0.3062 H   0  0  0  0  0  0  0  0  0  0  0  0
    4.1401   -0.2700    0.3071 H   0  0  0  0  0  0  0  0  0  0  0  0
    2.4620   -0.5335    2.0728 H   0  0  0  0  0  0  0  0  0  0  0  0
  1  2  2  0
  1 28  1  0
  1 29  1  0
  2  3  1  0
  2 30  1  0
  3  4  1  0
  3 31  1  0
  3 32  1  0
  4 26  1  0
  4  5  1  0
  5  6  2  0
  5  7  1  0
  7  8  1  0
  8  9  2  0
  8 10  1  0
 10 11  2  3
 10 26  1  0
 11 12  1  0
 11 33  1  0
 12 25  1  0
 12 13  2  0
 13 14  1  0
 13 34  1  0
 14 15  2  0
 14 35  1  0
 15 16  1  0
 15 25  1  0
 16 24  1  0
 16 17  2  0
 17 18  1  0
 17 36  1  0
 18 19  2  0
 18 37  1  0
 19 20  1  0
 19 23  1  0
 20 21  2  0
 20 22  1  0
 23 24  2  0
 23 38  1  0
 24 39  1  0
 26 27  2  0
M  CHG  2   7  -1  22  -1
M  END
>  <i_m_ct_stereo_status>  (281) 
1

>  <s_m_source_file>  (281) 
/var/tmp/pbs.5076255.sched01/tmpg3p38p3m/129jed2w9rh.sdf

>  <i_m_source_file_index>  (281) 
11

>  <i_lp_mmshare_version>  (281) 
48012

>  <i_f3d_flags>  (281) 
0

>  <s_epik_input>  (281) 
W0NIMl09W0NIXVtDSDJdTjFDKD1PKVtOSF1DKD1PKS9DKEMxPU8pPVtDSF0vYzJbY0hdW2NIXWMobzIpLWMzW2NIXVtjSF1jKEMoPU8pW09IXSlbY0hdW2NIXTM=

>  <s_epik_cmdline>  (281) 
J2VwaWtfcHl0aG9uJywgJy1waHQnLCAnMi4wJywgJy1waCcsICc3LjAnLCAnLXRuJywgJzgnLCAnLW1hJywgJzIwMCcsICctaW1hZScsICc8aW5maWxlLm1hZT4nLCAnLW9tYWUnLCAnPG91dGZpbGUubWFlPic=

>  <r_epik_Ionization_Penalty>  (281) 
0.413091

>  <r_epik_Ionization_Penalty_Charging>  (281) 
0.413091

>  <r_epik_Ionization_Penalty_Neutral>  (281) 
2.37726e-13

>  <r_epik_State_Penalty>  (281) 
0.412913

>  <r_epik_Charging_Adjusted_Penalty>  (281) 
0.826003

>  <i_epik_Tot_Q>  (281) 
-2

>  <i_epik_Tot_abs_Q>  (281) 
2

>  <s_lp_Force_Field>  (281) 
OPLS3e

>  <r_lp_Energy>  (281) 
52.3531

>  <b_lp_Chiralities_Consistent>  (281) 
1

>  <s_lp_Variant>  (281) 
93:0-3

>  <s_i_glide_gridfile>  (281) 
pfpi4k_grid

>  <i_i_glide_lignum>  (281) 
11

>  <i_i_glide_rotatable_bonds>  (281) 
5

>  <r_i_docking_score>  (281) 
-3.25507

>  <r_i_glide_ligand_efficiency>  (281) 
-0.120558

>  <r_i_glide_ligand_efficiency_sa>  (281) 
-0.361674

>  <r_i_glide_ligand_efficiency_ln>  (281) 
-0.757726

>  <r_i_glide_gscore>  (281) 
-3.25507

>  <r_i_glide_lipo>  (281) 
-0.0775251

>  <r_i_glide_hbond>  (281) 
-0.24798

>  <r_i_glide_metal>  (281) 
-0

>  <r_i_glide_rewards>  (281) 
-0.92517

>  <r_i_glide_evdw>  (281) 
-20.2792

>  <r_i_glide_ecoul>  (281) 
-9.59593

>  <r_i_glide_erotb>  (281) 
0.579363

>  <r_i_glide_esite>  (281) 
-0.130409

>  <r_i_glide_emodel>  (281) 
-39.2482

>  <r_i_glide_energy>  (281) 
-29.8751

>  <r_i_glide_einternal>  (281) 
0.578575

>  <r_i_glide_intrahb_reward>  (281) 
-0

>  <i_i_glide_confnum>  (281) 
5

>  <i_i_glide_posenum>  (281) 
8

>  <r_i_glide_eff_state_penalty>  (281) 
0

>  <ligand_id>  (281) 
93

>  <original_smiles>  (281) 
C=CCN1C(=O)NC(=O)C(=Cc2ccc(-c3ccc(C(=O)O)cc3)o2)C1=O

>  <smiles>  (281) 
[H]C([H])=C([H])C([H])([H])N1C(=O)[N-]C(=O)C(=C([H])c2oc(-c3c([H])c([H])c(C(=O)[O-])c([H])c3[H])c([H])c2[H])C1=O

$$$$
93:3:0
     RDKit          3D

 39 41  0  0  1  0  0  0  0  0999 V2000
    2.6415   -2.7752   -3.7132 C   0  0  0  0  0  0  0  0  0  0  0  0
    3.7332   -2.4190   -3.0226 C   0  0  0  0  0  0  0  0  0  0  0  0
    4.4554   -3.3389   -2.0644 C   0  0  0  0  0  0  0  0  0  0  0  0
    4.6583   -2.7150   -0.7388 N   0  0  0  0  0  0  0  0  0  0  0  0
    5.8063   -1.9994   -0.5450 C   0  0  0  0  0  0  0  0  0  0  0  0
    6.6070   -1.8608   -1.4764 O   0  0  0  0  0  0  0  0  0  0  0  0
    6.0684   -1.4574    0.6645 N   0  0  0  0  0  0  0  0  0  0  0  0
    5.2374   -1.5876    1.7238 C   0  0  0  0  0  0  0  0  0  0  0  0
    5.5986   -1.1573    2.8166 O   0  0  0  0  0  0  0  0  0  0  0  0
    3.9273   -2.2588    1.5505 C   0  0  0  0  0  0  0  0  0  0  0  0
    2.9697   -2.3592    2.5170 C   0  0  0  0  0  0  0  0  0  0  0  0
    2.8228   -1.8067    3.8366 C   0  0  0  0  0  0  0  0  0  0  0  0
    3.2836   -0.6859    4.4702 C   0  0  0  0  0  0  0  0  0  0  0  0
    2.8250   -0.7467    5.8154 C   0  0  0  0  0  0  0  0  0  0  0  0
    2.0978   -1.8957    5.9175 C   0  0  0  0  0  0  0  0  0  0  0  0
    1.3513   -2.4899    7.0181 C   0  0  0  0  0  0  0  0  0  0  0  0
    0.9868   -3.8546    6.9834 C   0  0  0  0  0  0  0  0  0  0  0  0
    0.2822   -4.4278    8.0596 C   0  0  0  0  0  0  0  0  0  0  0  0
   -0.0844   -3.6424    9.1702 C   0  0  0  0  0  0  0  0  0  0  0  0
   -0.8398   -4.2579   10.3012 C   0  0  0  0  0  0  0  0  0  0  0  0
   -1.6867   -3.5538   10.8888 O   0  0  0  0  0  0  0  0  0  0  0  0
   -0.6114   -5.4560   10.5915 O   0  0  0  0  0  0  0  0  0  0  0  0
    0.2624   -2.2747    9.2008 C   0  0  0  0  0  0  0  0  0  0  0  0
    0.9841   -1.7025    8.1342 C   0  0  0  0  0  0  0  0  0  0  0  0
    2.0963   -2.5533    4.7217 O   0  0  0  0  0  0  0  0  0  0  0  0
    3.6939   -2.8811    0.2269 C   0  0  0  0  0  0  0  0  0  0  0  0
    2.6666   -3.5272   -0.0081 O   0  0  0  0  0  0  0  0  0  0  0  0
    2.2151   -3.7665   -3.6240 H   0  0  0  0  0  0  0  0  0  0  0  0
    2.1571   -2.0712   -4.3678 H   0  0  0  0  0  0  0  0  0  0  0  0
    4.1424   -1.4260   -3.1428 H   0  0  0  0  0  0  0  0  0  0  0  0
    3.8906   -4.2527   -1.9722 H   0  0  0  0  0  0  0  0  0  0  0  0
    5.3913   -3.6620   -2.5242 H   0  0  0  0  0  0  0  0  0  0  0  0
    2.0816   -2.9103    2.2478 H   0  0  0  0  0  0  0  0  0  0  0  0
    3.8987    0.0874    4.0282 H   0  0  0  0  0  0  0  0  0  0  0  0
    3.0113   -0.0383    6.6108 H   0  0  0  0  0  0  0  0  0  0  0  0
    1.2594   -4.4785    6.1390 H   0  0  0  0  0  0  0  0  0  0  0  0
    0.0098   -5.4745    8.0389 H   0  0  0  0  0  0  0  0  0  0  0  0
   -0.0017   -1.6790   10.0653 H   0  0  0  0  0  0  0  0  0  0  0  0
    1.2655   -0.6577    8.1876 H   0  0  0  0  0  0  0  0  0  0  0  0
  1  2  2  0
  1 28  1  0
  1 29  1  0
  2  3  1  0
  2 30  1  0
  3  4  1  0
  3 31  1  0
  3 32  1  0
  4 26  1  0
  4  5  1  0
  5  6  2  0
  5  7  1  0
  7  8  1  0
  8  9  2  0
  8 10  1  0
 10 11  2  3
 10 26  1  0
 11 12  1  0
 11 33  1  0
 12 25  1  0
 12 13  2  0
 13 14  1  0
 13 34  1  0
 14 15  2  0
 14 35  1  0
 15 16  1  0
 15 25  1  0
 16 24  1  0
 16 17  2  0
 17 18  1  0
 17 36  1  0
 18 19  2  0
 18 37  1  0
 19 20  1  0
 19 23  1  0
 20 21  2  0
 20 22  1  0
 23 24  2  0
 23 38  1  0
 24 39  1  0
 26 27  2  0
M  CHG  2   7  -1  22  -1
M  END
>  <i_m_ct_stereo_status>  (282) 
1

>  <s_m_source_file>  (282) 
/var/tmp/pbs.5076255.sched01/tmpg3p38p3m/129jed2w9rh.sdf

>  <i_m_source_file_index>  (282) 
12

>  <i_lp_mmshare_version>  (282) 
48012

>  <i_f3d_flags>  (282) 
0

>  <s_epik_input>  (282) 
W0NIMl09W0NIXVtDSDJdTjFDKD1PKVtOSF1DKD1PKS9DKEMxPU8pPVtDSF0vYzJbY0hdW2NIXWMobzIpLWMzW2NIXVtjSF1jKEMoPU8pW09IXSlbY0hdW2NIXTM=

>  <s_epik_cmdline>  (282) 
J2VwaWtfcHl0aG9uJywgJy1waHQnLCAnMi4wJywgJy1waCcsICc3LjAnLCAnLXRuJywgJzgnLCAnLW1hJywgJzIwMCcsICctaW1hZScsICc8aW5maWxlLm1hZT4nLCAnLW9tYWUnLCAnPG91dGZpbGUubWFlPic=

>  <r_epik_Ionization_Penalty>  (282) 
0.413091

>  <r_epik_Ionization_Penalty_Charging>  (282) 
0.413091

>  <r_epik_Ionization_Penalty_Neutral>  (282) 
2.37726e-13

>  <r_epik_State_Penalty>  (282) 
0.412913

>  <r_epik_Charging_Adjusted_Penalty>  (282) 
0.826003

>  <i_epik_Tot_Q>  (282) 
-2

>  <i_epik_Tot_abs_Q>  (282) 
2

>  <s_lp_Force_Field>  (282) 
OPLS3e

>  <r_lp_Energy>  (282) 
52.3286

>  <b_lp_Chiralities_Consistent>  (282) 
1

>  <s_lp_Variant>  (282) 
93:0-4

>  <s_i_glide_gridfile>  (282) 
pfpi4k_grid

>  <i_i_glide_lignum>  (282) 
12

>  <i_i_glide_rotatable_bonds>  (282) 
5

>  <r_i_docking_score>  (282) 
-3.23122

>  <r_i_glide_ligand_efficiency>  (282) 
-0.119675

>  <r_i_glide_ligand_efficiency_sa>  (282) 
-0.359025

>  <r_i_glide_ligand_efficiency_ln>  (282) 
-0.752176

>  <r_i_glide_gscore>  (282) 
-3.23122

>  <r_i_glide_lipo>  (282) 
-0.322978

>  <r_i_glide_hbond>  (282) 
-0.227586

>  <r_i_glide_metal>  (282) 
-0

>  <r_i_glide_rewards>  (282) 
-1.05246

>  <r_i_glide_evdw>  (282) 
-20.8296

>  <r_i_glide_ecoul>  (282) 
-7.3315

>  <r_i_glide_erotb>  (282) 
0.579363

>  <r_i_glide_esite>  (282) 
-0.0663581

>  <r_i_glide_emodel>  (282) 
-34.6259

>  <r_i_glide_energy>  (282) 
-28.1611

>  <r_i_glide_einternal>  (282) 
4.18583

>  <r_i_glide_intrahb_reward>  (282) 
-0

>  <i_i_glide_confnum>  (282) 
2

>  <i_i_glide_posenum>  (282) 
1

>  <r_i_glide_eff_state_penalty>  (282) 
0

>  <ligand_id>  (282) 
93

>  <original_smiles>  (282) 
C=CCN1C(=O)NC(=O)C(=Cc2ccc(-c3ccc(C(=O)O)cc3)o2)C1=O

>  <smiles>  (282) 
[H]C([H])=C([H])C([H])([H])N1C(=O)[N-]C(=O)C(=C([H])c2oc(-c3c([H])c([H])c(C(=O)[O-])c([H])c3[H])c([H])c2[H])C1=O

$$$$
93:3:1
     RDKit          3D

 39 41  0  0  1  0  0  0  0  0999 V2000
    2.2086   -3.0873   -3.7237 C   0  0  0  0  0  0  0  0  0  0  0  0
    3.0722   -2.4393   -2.9308 C   0  0  0  0  0  0  0  0  0  0  0  0
    4.1290   -3.1348   -2.0931 C   0  0  0  0  0  0  0  0  0  0  0  0
    4.2713   -2.5113   -0.7536 N   0  0  0  0  0  0  0  0  0  0  0  0
    5.1730   -1.4961   -0.6171 C   0  0  0  0  0  0  0  0  0  0  0  0
    5.8068   -1.1034   -1.5929 O   0  0  0  0  0  0  0  0  0  0  0  0
    5.3932   -0.9490    0.5948 N   0  0  0  0  0  0  0  0  0  0  0  0
    4.7559   -1.3532    1.7156 C   0  0  0  0  0  0  0  0  0  0  0  0
    5.1088   -0.8847    2.7960 O   0  0  0  0  0  0  0  0  0  0  0  0
    3.6810   -2.3649    1.6140 C   0  0  0  0  0  0  0  0  0  0  0  0
    2.8937   -2.7707    2.6472 C   0  0  0  0  0  0  0  0  0  0  0  0
    2.7246   -2.3288    4.0062 C   0  0  0  0  0  0  0  0  0  0  0  0
    2.9633   -1.1625    4.6821 C   0  0  0  0  0  0  0  0  0  0  0  0
    2.6422   -1.3932    6.0441 C   0  0  0  0  0  0  0  0  0  0  0  0
    2.1964   -2.6806    6.1153 C   0  0  0  0  0  0  0  0  0  0  0  0
    1.6890   -3.4799    7.2220 C   0  0  0  0  0  0  0  0  0  0  0  0
    1.2417   -4.8048    7.0120 C   0  0  0  0  0  0  0  0  0  0  0  0
    0.7621   -5.5719    8.0922 C   0  0  0  0  0  0  0  0  0  0  0  0
    0.7208   -5.0340    9.3982 C   0  0  0  0  0  0  0  0  0  0  0  0
    0.2150   -5.8636   10.5463 C   0  0  0  0  0  0  0  0  0  0  0  0
    0.1569   -5.3553   11.6881 O   0  0  0  0  0  0  0  0  0  0  0  0
   -0.1715   -7.0324   10.3187 O   0  0  0  0  0  0  0  0  0  0  0  0
    1.1587   -3.7072    9.6038 C   0  0  0  0  0  0  0  0  0  0  0  0
    1.6400   -2.9354    8.5270 C   0  0  0  0  0  0  0  0  0  0  0  0
    2.2500   -3.2631    4.8811 O   0  0  0  0  0  0  0  0  0  0  0  0
    3.4978   -2.9799    0.2779 C   0  0  0  0  0  0  0  0  0  0  0  0
    2.6746   -3.8915    0.0863 O   0  0  0  0  0  0  0  0  0  0  0  0
    2.2240   -4.1645   -3.8039 H   0  0  0  0  0  0  0  0  0  0  0  0
    1.4685   -2.5566   -4.3035 H   0  0  0  0  0  0  0  0  0  0  0  0
    3.0323   -1.3593   -2.8744 H   0  0  0  0  0  0  0  0  0  0  0  0
    3.9132   -4.2009   -2.0203 H   0  0  0  0  0  0  0  0  0  0  0  0
    5.0679   -3.1161   -2.6498 H   0  0  0  0  0  0  0  0  0  0  0  0
    2.1794   -3.5540    2.4225 H   0  0  0  0  0  0  0  0  0  0  0  0
    3.3379   -0.2400    4.2661 H   0  0  0  0  0  0  0  0  0  0  0  0
    2.7233   -0.6933    6.8618 H   0  0  0  0  0  0  0  0  0  0  0  0
    1.2724   -5.2489    6.0262 H   0  0  0  0  0  0  0  0  0  0  0  0
    0.4318   -6.5847    7.9145 H   0  0  0  0  0  0  0  0  0  0  0  0
    1.1338   -3.2815   10.5963 H   0  0  0  0  0  0  0  0  0  0  0  0
    1.9811   -1.9271    8.7200 H   0  0  0  0  0  0  0  0  0  0  0  0
  1  2  2  0
  1 28  1  0
  1 29  1  0
  2  3  1  0
  2 30  1  0
  3  4  1  0
  3 31  1  0
  3 32  1  0
  4 26  1  0
  4  5  1  0
  5  6  2  0
  5  7  1  0
  7  8  1  0
  8  9  2  0
  8 10  1  0
 10 11  2  3
 10 26  1  0
 11 12  1  0
 11 33  1  0
 12 25  1  0
 12 13  2  0
 13 14  1  0
 13 34  1  0
 14 15  2  0
 14 35  1  0
 15 16  1  0
 15 25  1  0
 16 24  1  0
 16 17  2  0
 17 18  1  0
 17 36  1  0
 18 19  2  0
 18 37  1  0
 19 20  1  0
 19 23  1  0
 20 21  2  0
 20 22  1  0
 23 24  2  0
 23 38  1  0
 24 39  1  0
 26 27  2  0
M  CHG  2   7  -1  22  -1
M  END
>  <i_m_ct_stereo_status>  (283) 
1

>  <s_m_source_file>  (283) 
/var/tmp/pbs.5076255.sched01/tmpg3p38p3m/129jed2w9rh.sdf

>  <i_m_source_file_index>  (283) 
12

>  <i_lp_mmshare_version>  (283) 
48012

>  <i_f3d_flags>  (283) 
0

>  <s_epik_input>  (283) 
W0NIMl09W0NIXVtDSDJdTjFDKD1PKVtOSF1DKD1PKS9DKEMxPU8pPVtDSF0vYzJbY0hdW2NIXWMobzIpLWMzW2NIXVtjSF1jKEMoPU8pW09IXSlbY0hdW2NIXTM=

>  <s_epik_cmdline>  (283) 
J2VwaWtfcHl0aG9uJywgJy1waHQnLCAnMi4wJywgJy1waCcsICc3LjAnLCAnLXRuJywgJzgnLCAnLW1hJywgJzIwMCcsICctaW1hZScsICc8aW5maWxlLm1hZT4nLCAnLW9tYWUnLCAnPG91dGZpbGUubWFlPic=

>  <r_epik_Ionization_Penalty>  (283) 
0.413091

>  <r_epik_Ionization_Penalty_Charging>  (283) 
0.413091

>  <r_epik_Ionization_Penalty_Neutral>  (283) 
2.37726e-13

>  <r_epik_State_Penalty>  (283) 
0.412913

>  <r_epik_Charging_Adjusted_Penalty>  (283) 
0.826003

>  <i_epik_Tot_Q>  (283) 
-2

>  <i_epik_Tot_abs_Q>  (283) 
2

>  <s_lp_Force_Field>  (283) 
OPLS3e

>  <r_lp_Energy>  (283) 
52.3286

>  <b_lp_Chiralities_Consistent>  (283) 
1

>  <s_lp_Variant>  (283) 
93:0-4

>  <s_i_glide_gridfile>  (283) 
pfpi4k_grid

>  <i_i_glide_lignum>  (283) 
12

>  <i_i_glide_rotatable_bonds>  (283) 
5

>  <r_i_docking_score>  (283) 
-2.98602

>  <r_i_glide_ligand_efficiency>  (283) 
-0.110593

>  <r_i_glide_ligand_efficiency_sa>  (283) 
-0.33178

>  <r_i_glide_ligand_efficiency_ln>  (283) 
-0.695096

>  <r_i_glide_gscore>  (283) 
-2.98602

>  <r_i_glide_lipo>  (283) 
-0.213617

>  <r_i_glide_hbond>  (283) 
-0.227387

>  <r_i_glide_metal>  (283) 
-0

>  <r_i_glide_rewards>  (283) 
-0.999583

>  <r_i_glide_evdw>  (283) 
-19.677

>  <r_i_glide_ecoul>  (283) 
-7.06566

>  <r_i_glide_erotb>  (283) 
0.579363

>  <r_i_glide_esite>  (283) 
-0.0810926

>  <r_i_glide_emodel>  (283) 
-34.1114

>  <r_i_glide_energy>  (283) 
-26.7427

>  <r_i_glide_einternal>  (283) 
1.73959

>  <r_i_glide_intrahb_reward>  (283) 
-0

>  <i_i_glide_confnum>  (283) 
2

>  <i_i_glide_posenum>  (283) 
38

>  <r_i_glide_eff_state_penalty>  (283) 
0

>  <ligand_id>  (283) 
93

>  <original_smiles>  (283) 
C=CCN1C(=O)NC(=O)C(=Cc2ccc(-c3ccc(C(=O)O)cc3)o2)C1=O

>  <smiles>  (283) 
[H]C([H])=C([H])C([H])([H])N1C(=O)[N-]C(=O)C(=C([H])c2oc(-c3c([H])c([H])c(C(=O)[O-])c([H])c3[H])c([H])c2[H])C1=O

$$$$
93:3:2
     RDKit          3D

 39 41  0  0  1  0  0  0  0  0999 V2000
   -2.1374   -9.1932    2.7551 C   0  0  0  0  0  0  0  0  0  0  0  0
   -0.9182   -8.8881    2.3199 C   0  0  0  0  0  0  0  0  0  0  0  0
    0.3251   -8.8820    3.1770 C   0  0  0  0  0  0  0  0  0  0  0  0
    1.2056   -7.7165    2.8399 N   0  0  0  0  0  0  0  0  0  0  0  0
    2.3214   -7.9640    2.1007 C   0  0  0  0  0  0  0  0  0  0  0  0
    2.5586   -9.0982    1.6840 O   0  0  0  0  0  0  0  0  0  0  0  0
    3.1783   -6.9318    1.8450 N   0  0  0  0  0  0  0  0  0  0  0  0
    2.9653   -5.6584    2.2543 C   0  0  0  0  0  0  0  0  0  0  0  0
    3.8209   -4.7910    1.9863 O   0  0  0  0  0  0  0  0  0  0  0  0
    1.7199   -5.3187    2.9846 C   0  0  0  0  0  0  0  0  0  0  0  0
    1.3277   -4.0520    3.3321 C   0  0  0  0  0  0  0  0  0  0  0  0
    1.8798   -2.6994    3.2006 C   0  0  0  0  0  0  0  0  0  0  0  0
    3.1050   -2.1578    2.8921 C   0  0  0  0  0  0  0  0  0  0  0  0
    2.9548   -0.7512    2.8264 C   0  0  0  0  0  0  0  0  0  0  0  0
    1.6633   -0.4949    3.1603 C   0  0  0  0  0  0  0  0  0  0  0  0
    0.9770    0.7623    3.3473 C   0  0  0  0  0  0  0  0  0  0  0  0
   -0.4178    0.8407    3.1631 C   0  0  0  0  0  0  0  0  0  0  0  0
   -1.0595    2.0791    3.3181 C   0  0  0  0  0  0  0  0  0  0  0  0
   -0.3348    3.2277    3.6772 C   0  0  0  0  0  0  0  0  0  0  0  0
   -1.0469    4.5408    3.8409 C   0  0  0  0  0  0  0  0  0  0  0  0
   -0.5269    5.4204    4.5552 O   0  0  0  0  0  0  0  0  0  0  0  0
   -2.1618    4.7254    3.2879 O   0  0  0  0  0  0  0  0  0  0  0  0
    1.0587    3.1342    3.8759 C   0  0  0  0  0  0  0  0  0  0  0  0
    1.7302    1.9088    3.6998 C   0  0  0  0  0  0  0  0  0  0  0  0
    0.9866   -1.6723    3.3748 O   0  0  0  0  0  0  0  0  0  0  0  0
    0.8239   -6.4737    3.2844 C   0  0  0  0  0  0  0  0  0  0  0  0
   -0.2491   -6.3179    3.9049 O   0  0  0  0  0  0  0  0  0  0  0  0
   -2.2773   -9.4415    3.7915 H   0  0  0  0  0  0  0  0  0  0  0  0
   -2.9811   -9.2033    2.0804 H   0  0  0  0  0  0  0  0  0  0  0  0
   -0.7831   -8.6308    1.2851 H   0  0  0  0  0  0  0  0  0  0  0  0
    0.0941   -8.8767    4.2471 H   0  0  0  0  0  0  0  0  0  0  0  0
    0.8031   -9.8502    3.0068 H   0  0  0  0  0  0  0  0  0  0  0  0
    0.3651   -3.9769    3.8183 H   0  0  0  0  0  0  0  0  0  0  0  0
    4.0576   -2.6311    2.6932 H   0  0  0  0  0  0  0  0  0  0  0  0
    3.7136   -0.0142    2.5893 H   0  0  0  0  0  0  0  0  0  0  0  0
   -0.9704   -0.0499    2.8830 H   0  0  0  0  0  0  0  0  0  0  0  0
   -2.1215    2.1371    3.1525 H   0  0  0  0  0  0  0  0  0  0  0  0
    1.6223    4.0160    4.1324 H   0  0  0  0  0  0  0  0  0  0  0  0
    2.8125    1.8512    3.8196 H   0  0  0  0  0  0  0  0  0  0  0  0
  1  2  2  0
  1 28  1  0
  1 29  1  0
  2  3  1  0
  2 30  1  0
  3  4  1  0
  3 31  1  0
  3 32  1  0
  4 26  1  0
  4  5  1  0
  5  6  2  0
  5  7  1  0
  7  8  1  0
  8  9  2  0
  8 10  1  0
 10 11  2  3
 10 26  1  0
 11 12  1  0
 11 33  1  0
 12 25  1  0
 12 13  2  0
 13 14  1  0
 13 34  1  0
 14 15  2  0
 14 35  1  0
 15 16  1  0
 15 25  1  0
 16 24  1  0
 16 17  2  0
 17 18  1  0
 17 36  1  0
 18 19  2  0
 18 37  1  0
 19 20  1  0
 19 23  1  0
 20 21  2  0
 20 22  1  0
 23 24  2  0
 23 38  1  0
 24 39  1  0
 26 27  2  0
M  CHG  2   7  -1  22  -1
M  END
>  <i_m_ct_stereo_status>  (284) 
1

>  <s_m_source_file>  (284) 
/var/tmp/pbs.5076255.sched01/tmpg3p38p3m/129jed2w9rh.sdf

>  <i_m_source_file_index>  (284) 
12

>  <i_lp_mmshare_version>  (284) 
48012

>  <i_f3d_flags>  (284) 
0

>  <s_epik_input>  (284) 
W0NIMl09W0NIXVtDSDJdTjFDKD1PKVtOSF1DKD1PKS9DKEMxPU8pPVtDSF0vYzJbY0hdW2NIXWMobzIpLWMzW2NIXVtjSF1jKEMoPU8pW09IXSlbY0hdW2NIXTM=

>  <s_epik_cmdline>  (284) 
J2VwaWtfcHl0aG9uJywgJy1waHQnLCAnMi4wJywgJy1waCcsICc3LjAnLCAnLXRuJywgJzgnLCAnLW1hJywgJzIwMCcsICctaW1hZScsICc8aW5maWxlLm1hZT4nLCAnLW9tYWUnLCAnPG91dGZpbGUubWFlPic=

>  <r_epik_Ionization_Penalty>  (284) 
0.413091

>  <r_epik_Ionization_Penalty_Charging>  (284) 
0.413091

>  <r_epik_Ionization_Penalty_Neutral>  (284) 
2.37726e-13

>  <r_epik_State_Penalty>  (284) 
0.412913

>  <r_epik_Charging_Adjusted_Penalty>  (284) 
0.826003

>  <i_epik_Tot_Q>  (284) 
-2

>  <i_epik_Tot_abs_Q>  (284) 
2

>  <s_lp_Force_Field>  (284) 
OPLS3e

>  <r_lp_Energy>  (284) 
52.3286

>  <b_lp_Chiralities_Consistent>  (284) 
1

>  <s_lp_Variant>  (284) 
93:0-4

>  <s_i_glide_gridfile>  (284) 
pfpi4k_grid

>  <i_i_glide_lignum>  (284) 
12

>  <i_i_glide_rotatable_bonds>  (284) 
5

>  <r_i_docking_score>  (284) 
-2.58997

>  <r_i_glide_ligand_efficiency>  (284) 
-0.0959246

>  <r_i_glide_ligand_efficiency_sa>  (284) 
-0.287774

>  <r_i_glide_ligand_efficiency_ln>  (284) 
-0.602901

>  <r_i_glide_gscore>  (284) 
-2.58997

>  <r_i_glide_lipo>  (284) 
-0.104149

>  <r_i_glide_hbond>  (284) 
-0.283364

>  <r_i_glide_metal>  (284) 
-0

>  <r_i_glide_rewards>  (284) 
-0.92517

>  <r_i_glide_evdw>  (284) 
-23.3862

>  <r_i_glide_ecoul>  (284) 
-3.42297

>  <r_i_glide_erotb>  (284) 
0.579363

>  <r_i_glide_esite>  (284) 
-0.173888

>  <r_i_glide_emodel>  (284) 
-31.8216

>  <r_i_glide_energy>  (284) 
-26.8092

>  <r_i_glide_einternal>  (284) 
2.73795

>  <r_i_glide_intrahb_reward>  (284) 
-0

>  <i_i_glide_confnum>  (284) 
2

>  <i_i_glide_posenum>  (284) 
25

>  <r_i_glide_eff_state_penalty>  (284) 
0

>  <ligand_id>  (284) 
93

>  <original_smiles>  (284) 
C=CCN1C(=O)NC(=O)C(=Cc2ccc(-c3ccc(C(=O)O)cc3)o2)C1=O

>  <smiles>  (284) 
[H]C([H])=C([H])C([H])([H])N1C(=O)[N-]C(=O)C(=C([H])c2oc(-c3c([H])c([H])c(C(=O)[O-])c([H])c3[H])c([H])c2[H])C1=O

$$$$
94:0:0
     RDKit          3D

 26 29  0  0  1  0  0  0  0  0999 V2000
    4.7609   -1.9967   -1.8705 C   0  0  0  0  0  0  0  0  0  0  0  0
    3.4219   -2.2887   -1.5640 C   0  0  0  0  0  0  0  0  0  0  0  0
    3.1524   -3.4425   -0.8006 C   0  0  0  0  0  0  0  0  0  0  0  0
    4.2174   -4.2687   -0.3755 C   0  0  0  0  0  0  0  0  0  0  0  0
    3.9254   -5.4337    0.3849 N   0  0  0  0  0  0  0  0  0  0  0  0
    4.9051   -6.2092    0.9355 N   0  0  0  0  0  0  0  0  0  0  0  0
    4.2237   -7.2090    1.5577 C   0  0  0  0  0  0  0  0  0  0  0  0
    2.9143   -7.0538    1.3862 N   0  0  0  0  0  0  0  0  0  0  0  0
    1.7958   -7.6596    1.7196 C   0  0  0  0  0  0  0  0  0  0  0  0
    1.5906   -8.8629    2.5164 C   0  0  0  0  0  0  0  0  0  0  0  0
    2.5418   -9.6224    3.0693 N   0  0  0  0  0  0  0  0  0  0  0  0
    2.0137  -10.7099    3.7939 C   0  0  0  0  0  0  0  0  0  0  0  0
    0.6444  -10.7390    3.7917 C   0  0  0  0  0  0  0  0  0  0  0  0
   -0.0455   -9.4263    2.8845 S   0  0  0  0  0  0  0  0  0  0  0  0
    0.8150   -6.9033    1.1754 N   0  0  0  0  0  0  0  0  0  0  0  0
    1.4466   -5.8423    0.4672 N   0  0  0  0  0  0  0  0  0  0  0  0
    2.7257   -5.9696    0.6570 C   0  0  0  0  0  0  0  0  0  0  0  0
    5.5022   -3.9768   -0.6757 N   0  0  0  0  0  0  0  0  0  0  0  0
    5.7595   -2.8766   -1.4083 C   0  0  0  0  0  0  0  0  0  0  0  0
    5.0053   -1.1169   -2.4455 H   0  0  0  0  0  0  0  0  0  0  0  0
    2.6200   -1.6491   -1.9000 H   0  0  0  0  0  0  0  0  0  0  0  0
    2.1240   -3.6555   -0.5771 H   0  0  0  0  0  0  0  0  0  0  0  0
    4.6151   -8.0418    2.1305 H   0  0  0  0  0  0  0  0  0  0  0  0
    2.6989  -11.3911    4.2863 H   0  0  0  0  0  0  0  0  0  0  0  0
   -0.0091  -11.4428    4.2861 H   0  0  0  0  0  0  0  0  0  0  0  0
    6.7989   -2.6886   -1.6197 H   0  0  0  0  0  0  0  0  0  0  0  0
  1 19  2  0
  1  2  1  0
  1 20  1  0
  2  3  2  0
  2 21  1  0
  3  4  1  0
  3 22  1  0
  4  5  1  0
  4 18  2  0
  5 17  1  0
  5  6  1  0
  6  7  2  0
  7  8  1  0
  7 23  1  0
  8 17  1  0
  8  9  1  0
  9 10  1  0
  9 15  2  0
 10 14  1  0
 10 11  2  0
 11 12  1  0
 12 13  2  0
 12 24  1  0
 13 14  1  0
 13 25  1  0
 15 16  1  0
 16 17  2  0
 18 19  1  0
 19 26  1  0
M  END
>  <i_m_ct_stereo_status>  (285) 
1

>  <s_m_source_file>  (285) 
/var/tmp/pbs.5076255.sched01/tmpg3p38p3m/129jed2w9rh.sdf

>  <i_m_source_file_index>  (285) 
13

>  <i_lp_mmshare_version>  (285) 
48012

>  <i_f3d_flags>  (285) 
0

>  <s_epik_input>  (285) 
bjFbY0hdW2NIXVtjSF1bY0hdYzEtbihuW2NIXTIpYyhuMjMpbm5jMy1jNG5bY0hdW2NIXXM0

>  <s_epik_cmdline>  (285) 
J2VwaWtfcHl0aG9uJywgJy1waHQnLCAnMi4wJywgJy1waCcsICc3LjAnLCAnLXRuJywgJzgnLCAnLW1hJywgJzIwMCcsICctaW1hZScsICc8aW5maWxlLm1hZT4nLCAnLW9tYWUnLCAnPG91dGZpbGUubWFlPic=

>  <r_epik_Ionization_Penalty>  (285) 
0.00506421

>  <r_epik_Ionization_Penalty_Charging>  (285) 
0

>  <r_epik_Ionization_Penalty_Neutral>  (285) 
0.00506421

>  <r_epik_State_Penalty>  (285) 
0.00368289

>  <r_epik_Charging_Adjusted_Penalty>  (285) 
0.00368289

>  <i_epik_Tot_Q>  (285) 
0

>  <i_epik_Tot_abs_Q>  (285) 
0

>  <s_lp_Force_Field>  (285) 
OPLS3e

>  <r_lp_Energy>  (285) 
20.3476

>  <b_lp_Chiralities_Consistent>  (285) 
1

>  <s_lp_Variant>  (285) 
94:0-1

>  <s_i_glide_gridfile>  (285) 
pfpi4k_grid

>  <i_i_glide_lignum>  (285) 
13

>  <i_i_glide_rotatable_bonds>  (285) 
2

>  <r_i_docking_score>  (285) 
-3.61198

>  <r_i_glide_ligand_efficiency>  (285) 
-0.190104

>  <r_i_glide_ligand_efficiency_sa>  (285) 
-0.507274

>  <r_i_glide_ligand_efficiency_ln>  (285) 
-0.915714

>  <r_i_glide_gscore>  (285) 
-3.61198

>  <r_i_glide_lipo>  (285) 
-0.103155

>  <r_i_glide_hbond>  (285) 
0

>  <r_i_glide_metal>  (285) 
-0

>  <r_i_glide_rewards>  (285) 
-1.75825

>  <r_i_glide_evdw>  (285) 
-27.6029

>  <r_i_glide_ecoul>  (285) 
-4.09294

>  <r_i_glide_erotb>  (285) 
0.492741

>  <r_i_glide_esite>  (285) 
-0.24923

>  <r_i_glide_emodel>  (285) 
-39.2613

>  <r_i_glide_energy>  (285) 
-31.6958

>  <r_i_glide_einternal>  (285) 
0.398288

>  <r_i_glide_intrahb_reward>  (285) 
-0

>  <i_i_glide_confnum>  (285) 
1

>  <i_i_glide_posenum>  (285) 
30

>  <r_i_glide_eff_state_penalty>  (285) 
0

>  <ligand_id>  (285) 
94

>  <original_smiles>  (285) 
c1ccc(-n2ncn3c(-c4nccs4)nnc23)nc1

>  <smiles>  (285) 
[H]c1nc(-c2nnc3n(-c4nc([H])c([H])c([H])c4[H])nc([H])n23)sc1[H]

$$$$
94:0:1
     RDKit          3D

 26 29  0  0  1  0  0  0  0  0999 V2000
    4.7835   -1.9822   -1.5045 C   0  0  0  0  0  0  0  0  0  0  0  0
    5.8826   -2.7766   -1.1217 C   0  0  0  0  0  0  0  0  0  0  0  0
    5.6415   -3.9961   -0.4537 C   0  0  0  0  0  0  0  0  0  0  0  0
    4.3084   -4.3805   -0.1966 C   0  0  0  0  0  0  0  0  0  0  0  0
    4.0336   -5.5928    0.4793 N   0  0  0  0  0  0  0  0  0  0  0  0
    4.9984   -6.4727    0.8942 N   0  0  0  0  0  0  0  0  0  0  0  0
    4.2989   -7.4753    1.4842 C   0  0  0  0  0  0  0  0  0  0  0  0
    2.9971   -7.2228    1.4247 N   0  0  0  0  0  0  0  0  0  0  0  0
    1.8547   -7.7813    1.7887 C   0  0  0  0  0  0  0  0  0  0  0  0
    1.6188   -9.0314    2.4997 C   0  0  0  0  0  0  0  0  0  0  0  0
    2.5534   -9.8948    2.9103 N   0  0  0  0  0  0  0  0  0  0  0  0
    2.0069  -11.0025    3.5823 C   0  0  0  0  0  0  0  0  0  0  0  0
    0.6388  -10.9406    3.6931 C   0  0  0  0  0  0  0  0  0  0  0  0
   -0.0209   -9.5193    2.9406 S   0  0  0  0  0  0  0  0  0  0  0  0
    0.9002   -6.9243    1.3727 N   0  0  0  0  0  0  0  0  0  0  0  0
    1.5506   -5.8406    0.7267 N   0  0  0  0  0  0  0  0  0  0  0  0
    2.8294   -6.0799    0.8091 C   0  0  0  0  0  0  0  0  0  0  0  0
    3.2616   -3.6080   -0.5629 N   0  0  0  0  0  0  0  0  0  0  0  0
    3.4951   -2.4509   -1.2053 C   0  0  0  0  0  0  0  0  0  0  0  0
    4.9085   -1.0374   -2.0100 H   0  0  0  0  0  0  0  0  0  0  0  0
    6.8947   -2.4577   -1.3314 H   0  0  0  0  0  0  0  0  0  0  0  0
    6.4692   -4.6184   -0.1516 H   0  0  0  0  0  0  0  0  0  0  0  0
    4.6895   -8.3744    1.9525 H   0  0  0  0  0  0  0  0  0  0  0  0
    2.6780  -11.7695    3.9535 H   0  0  0  0  0  0  0  0  0  0  0  0
   -0.0133  -11.6442    4.1864 H   0  0  0  0  0  0  0  0  0  0  0  0
    2.6287   -1.8782   -1.4899 H   0  0  0  0  0  0  0  0  0  0  0  0
  1 19  2  0
  1  2  1  0
  1 20  1  0
  2  3  2  0
  2 21  1  0
  3  4  1  0
  3 22  1  0
  4  5  1  0
  4 18  2  0
  5 17  1  0
  5  6  1  0
  6  7  2  0
  7  8  1  0
  7 23  1  0
  8 17  1  0
  8  9  1  0
  9 10  1  0
  9 15  2  0
 10 14  1  0
 10 11  2  0
 11 12  1  0
 12 13  2  0
 12 24  1  0
 13 14  1  0
 13 25  1  0
 15 16  1  0
 16 17  2  0
 18 19  1  0
 19 26  1  0
M  END
>  <i_m_ct_stereo_status>  (286) 
1

>  <s_m_source_file>  (286) 
/var/tmp/pbs.5076255.sched01/tmpg3p38p3m/129jed2w9rh.sdf

>  <i_m_source_file_index>  (286) 
13

>  <i_lp_mmshare_version>  (286) 
48012

>  <i_f3d_flags>  (286) 
0

>  <s_epik_input>  (286) 
bjFbY0hdW2NIXVtjSF1bY0hdYzEtbihuW2NIXTIpYyhuMjMpbm5jMy1jNG5bY0hdW2NIXXM0

>  <s_epik_cmdline>  (286) 
J2VwaWtfcHl0aG9uJywgJy1waHQnLCAnMi4wJywgJy1waCcsICc3LjAnLCAnLXRuJywgJzgnLCAnLW1hJywgJzIwMCcsICctaW1hZScsICc8aW5maWxlLm1hZT4nLCAnLW9tYWUnLCAnPG91dGZpbGUubWFlPic=

>  <r_epik_Ionization_Penalty>  (286) 
0.00506421

>  <r_epik_Ionization_Penalty_Charging>  (286) 
0

>  <r_epik_Ionization_Penalty_Neutral>  (286) 
0.00506421

>  <r_epik_State_Penalty>  (286) 
0.00368289

>  <r_epik_Charging_Adjusted_Penalty>  (286) 
0.00368289

>  <i_epik_Tot_Q>  (286) 
0

>  <i_epik_Tot_abs_Q>  (286) 
0

>  <s_lp_Force_Field>  (286) 
OPLS3e

>  <r_lp_Energy>  (286) 
20.3476

>  <b_lp_Chiralities_Consistent>  (286) 
1

>  <s_lp_Variant>  (286) 
94:0-1

>  <s_i_glide_gridfile>  (286) 
pfpi4k_grid

>  <i_i_glide_lignum>  (286) 
13

>  <i_i_glide_rotatable_bonds>  (286) 
2

>  <r_i_docking_score>  (286) 
-3.43027

>  <r_i_glide_ligand_efficiency>  (286) 
-0.18054

>  <r_i_glide_ligand_efficiency_sa>  (286) 
-0.481754

>  <r_i_glide_ligand_efficiency_ln>  (286) 
-0.869646

>  <r_i_glide_gscore>  (286) 
-3.43027

>  <r_i_glide_lipo>  (286) 
-0.166132

>  <r_i_glide_hbond>  (286) 
0

>  <r_i_glide_metal>  (286) 
-0

>  <r_i_glide_rewards>  (286) 
-1.80835

>  <r_i_glide_evdw>  (286) 
-27.6195

>  <r_i_glide_ecoul>  (286) 
-2.321

>  <r_i_glide_erotb>  (286) 
0.492741

>  <r_i_glide_esite>  (286) 
-0.219401

>  <r_i_glide_emodel>  (286) 
-37.3222

>  <r_i_glide_energy>  (286) 
-29.9405

>  <r_i_glide_einternal>  (286) 
0.0124752

>  <r_i_glide_intrahb_reward>  (286) 
-0

>  <i_i_glide_confnum>  (286) 
1

>  <i_i_glide_posenum>  (286) 
1

>  <r_i_glide_eff_state_penalty>  (286) 
0

>  <ligand_id>  (286) 
94

>  <original_smiles>  (286) 
c1ccc(-n2ncn3c(-c4nccs4)nnc23)nc1

>  <smiles>  (286) 
[H]c1nc(-c2nnc3n(-c4nc([H])c([H])c([H])c4[H])nc([H])n23)sc1[H]

$$$$
94:0:2
     RDKit          3D

 26 29  0  0  1  0  0  0  0  0999 V2000
    0.9866  -10.9854    3.6837 C   0  0  0  0  0  0  0  0  0  0  0  0
    2.3542  -11.2505    3.4872 C   0  0  0  0  0  0  0  0  0  0  0  0
    3.1545  -10.2591    2.8825 C   0  0  0  0  0  0  0  0  0  0  0  0
    2.5537   -9.0423    2.4944 C   0  0  0  0  0  0  0  0  0  0  0  0
    3.3274   -8.0393    1.8729 N   0  0  0  0  0  0  0  0  0  0  0  0
    4.6867   -8.0784    1.7526 N   0  0  0  0  0  0  0  0  0  0  0  0
    5.0016   -6.9321    1.1047 C   0  0  0  0  0  0  0  0  0  0  0  0
    3.8986   -6.2424    0.8408 N   0  0  0  0  0  0  0  0  0  0  0  0
    3.5521   -5.1111    0.2420 C   0  0  0  0  0  0  0  0  0  0  0  0
    4.3947   -4.1123   -0.4121 C   0  0  0  0  0  0  0  0  0  0  0  0
    5.7368   -4.0927   -0.4630 N   0  0  0  0  0  0  0  0  0  0  0  0
    6.2403   -3.0050   -1.1855 C   0  0  0  0  0  0  0  0  0  0  0  0
    5.2601   -2.1779   -1.6824 C   0  0  0  0  0  0  0  0  0  0  0  0
    3.6651   -2.7492   -1.2758 S   0  0  0  0  0  0  0  0  0  0  0  0
    2.2147   -5.0817    0.3388 N   0  0  0  0  0  0  0  0  0  0  0  0
    1.7861   -6.2461    1.0375 N   0  0  0  0  0  0  0  0  0  0  0  0
    2.8703   -6.9076    1.3044 C   0  0  0  0  0  0  0  0  0  0  0  0
    1.2406   -8.7929    2.6989 N   0  0  0  0  0  0  0  0  0  0  0  0
    0.4764   -9.7439    3.2686 C   0  0  0  0  0  0  0  0  0  0  0  0
    0.3345  -11.7092    4.1489 H   0  0  0  0  0  0  0  0  0  0  0  0
    2.7808  -12.2006    3.7883 H   0  0  0  0  0  0  0  0  0  0  0  0
    4.2026  -10.4499    2.7017 H   0  0  0  0  0  0  0  0  0  0  0  0
    5.9789   -6.5724    0.8086 H   0  0  0  0  0  0  0  0  0  0  0  0
    7.3208   -2.9101   -1.2836 H   0  0  0  0  0  0  0  0  0  0  0  0
    5.3604   -1.2773   -2.2631 H   0  0  0  0  0  0  0  0  0  0  0  0
   -0.5650   -9.4917    3.4012 H   0  0  0  0  0  0  0  0  0  0  0  0
  1 19  2  0
  1  2  1  0
  1 20  1  0
  2  3  2  0
  2 21  1  0
  3  4  1  0
  3 22  1  0
  4  5  1  0
  4 18  2  0
  5 17  1  0
  5  6  1  0
  6  7  2  0
  7  8  1  0
  7 23  1  0
  8 17  1  0
  8  9  1  0
  9 10  1  0
  9 15  2  0
 10 14  1  0
 10 11  2  0
 11 12  1  0
 12 13  2  0
 12 24  1  0
 13 14  1  0
 13 25  1  0
 15 16  1  0
 16 17  2  0
 18 19  1  0
 19 26  1  0
M  END
>  <i_m_ct_stereo_status>  (287) 
1

>  <s_m_source_file>  (287) 
/var/tmp/pbs.5076255.sched01/tmpg3p38p3m/129jed2w9rh.sdf

>  <i_m_source_file_index>  (287) 
13

>  <i_lp_mmshare_version>  (287) 
48012

>  <i_f3d_flags>  (287) 
0

>  <s_epik_input>  (287) 
bjFbY0hdW2NIXVtjSF1bY0hdYzEtbihuW2NIXTIpYyhuMjMpbm5jMy1jNG5bY0hdW2NIXXM0

>  <s_epik_cmdline>  (287) 
J2VwaWtfcHl0aG9uJywgJy1waHQnLCAnMi4wJywgJy1waCcsICc3LjAnLCAnLXRuJywgJzgnLCAnLW1hJywgJzIwMCcsICctaW1hZScsICc8aW5maWxlLm1hZT4nLCAnLW9tYWUnLCAnPG91dGZpbGUubWFlPic=

>  <r_epik_Ionization_Penalty>  (287) 
0.00506421

>  <r_epik_Ionization_Penalty_Charging>  (287) 
0

>  <r_epik_Ionization_Penalty_Neutral>  (287) 
0.00506421

>  <r_epik_State_Penalty>  (287) 
0.00368289

>  <r_epik_Charging_Adjusted_Penalty>  (287) 
0.00368289

>  <i_epik_Tot_Q>  (287) 
0

>  <i_epik_Tot_abs_Q>  (287) 
0

>  <s_lp_Force_Field>  (287) 
OPLS3e

>  <r_lp_Energy>  (287) 
20.3476

>  <b_lp_Chiralities_Consistent>  (287) 
1

>  <s_lp_Variant>  (287) 
94:0-1

>  <s_i_glide_gridfile>  (287) 
pfpi4k_grid

>  <i_i_glide_lignum>  (287) 
13

>  <i_i_glide_rotatable_bonds>  (287) 
2

>  <r_i_docking_score>  (287) 
-3.33266

>  <r_i_glide_ligand_efficiency>  (287) 
-0.175403

>  <r_i_glide_ligand_efficiency_sa>  (287) 
-0.468046

>  <r_i_glide_ligand_efficiency_ln>  (287) 
-0.8449

>  <r_i_glide_gscore>  (287) 
-3.33266

>  <r_i_glide_lipo>  (287) 
-0.229593

>  <r_i_glide_hbond>  (287) 
0

>  <r_i_glide_metal>  (287) 
-0

>  <r_i_glide_rewards>  (287) 
-1.8335

>  <r_i_glide_evdw>  (287) 
-27.1943

>  <r_i_glide_ecoul>  (287) 
-1.76633

>  <r_i_glide_erotb>  (287) 
0.492741

>  <r_i_glide_esite>  (287) 
-0.137643

>  <r_i_glide_emodel>  (287) 
-36.067

>  <r_i_glide_energy>  (287) 
-28.9607

>  <r_i_glide_einternal>  (287) 
0.114576

>  <r_i_glide_intrahb_reward>  (287) 
-0

>  <i_i_glide_confnum>  (287) 
1

>  <i_i_glide_posenum>  (287) 
2

>  <r_i_glide_eff_state_penalty>  (287) 
0

>  <ligand_id>  (287) 
94

>  <original_smiles>  (287) 
c1ccc(-n2ncn3c(-c4nccs4)nnc23)nc1

>  <smiles>  (287) 
[H]c1nc(-c2nnc3n(-c4nc([H])c([H])c([H])c4[H])nc([H])n23)sc1[H]

$$$$
95:0:0
     RDKit          3D

 44 48  0  0  1  0  0  0  0  0999 V2000
    1.8095   -3.1546   -3.1848 C   0  0  0  0  0  0  0  0  0  0  0  0
    3.1354   -2.6526   -3.0590 O   0  0  0  0  0  0  0  0  0  0  0  0
    3.7352   -2.8461   -1.8406 C   0  0  0  0  0  0  0  0  0  0  0  0
    3.0671   -2.8822   -0.6670 C   0  0  0  0  0  0  0  0  0  0  0  0
    3.6885   -3.1116    0.6859 C   0  0  1  0  0  0  0  0  0  0  0  0
    3.2080   -4.4352    1.3930 C   0  0  2  0  0  0  0  0  0  0  0  0
    2.5439   -5.4607    0.4547 C   0  0  0  0  0  0  0  0  0  0  0  0
    2.3002   -4.0382    2.5436 C   0  0  0  0  0  0  0  0  0  0  0  0
    2.9723   -3.9083    3.6819 C   0  0  0  0  0  0  0  0  0  0  0  0
    4.4348   -4.2488    3.5003 C   0  0  1  0  0  0  0  0  0  0  0  0
    4.3266   -5.1110    2.2186 C   0  0  0  0  0  0  0  0  0  0  0  0
    5.3936   -3.0227    3.3448 C   0  0  2  0  0  0  0  0  0  0  0  0
    4.8186   -1.6908    3.8990 C   0  0  0  0  0  0  0  0  0  0  0  0
    4.7185   -1.5980    5.1265 O   0  0  0  0  0  0  0  0  0  0  0  0
    4.3846   -0.5771    3.0260 C   0  0  0  0  0  0  0  0  0  0  0  0
    4.6949   -0.4113    1.7185 C   0  0  0  0  0  0  0  0  0  0  0  0
    5.6091   -1.2947    0.8735 C   0  0  1  0  0  0  0  0  0  0  0  0
    5.9833   -0.6350   -0.3000 O   0  0  0  0  0  0  0  0  0  0  0  0
    6.7048   -1.6857    1.6874 O   0  0  0  0  0  0  0  0  0  0  0  0
    6.0398   -2.9361    1.9461 C   0  0  2  0  0  0  0  0  0  0  0  0
    5.2049   -2.7746    0.6741 C   0  0  1  0  0  0  0  0  0  0  0  0
    5.8529   -3.4757   -0.5477 C   0  0  0  0  0  0  0  0  0  0  0  0
    5.1830   -3.1058   -1.8702 C   0  0  0  0  0  0  0  0  0  0  0  0
    5.8587   -3.0542   -2.8949 O   0  0  0  0  0  0  0  0  0  0  0  0
    1.4145   -2.8972   -4.1597 H   0  0  0  0  0  0  0  0  0  0  0  0
    1.1255   -2.7674   -2.4434 H   0  0  0  0  0  0  0  0  0  0  0  0
    1.8256   -4.2463   -3.0908 H   0  0  0  0  0  0  0  0  0  0  0  0
    2.0086   -2.7041   -0.5917 H   0  0  0  0  0  0  0  0  0  0  0  0
    3.2064   -2.3116    1.2321 H   0  0  0  0  0  0  0  0  0  0  0  0
    3.2466   -5.7687   -0.3221 H   0  0  0  0  0  0  0  0  0  0  0  0
    1.6606   -5.0611   -0.0440 H   0  0  0  0  0  0  0  0  0  0  0  0
    2.2269   -6.3578    0.9882 H   0  0  0  0  0  0  0  0  0  0  0  0
    1.2372   -3.8853    2.4568 H   0  0  0  0  0  0  0  0  0  0  0  0
    2.5366   -3.6370    4.6326 H   0  0  0  0  0  0  0  0  0  0  0  0
    4.7515   -4.8678    4.3362 H   0  0  0  0  0  0  0  0  0  0  0  0
    3.9692   -6.0961    2.5280 H   0  0  0  0  0  0  0  0  0  0  0  0
    5.2478   -5.3254    1.6810 H   0  0  0  0  0  0  0  0  0  0  0  0
    6.1948   -3.2255    4.0472 H   0  0  0  0  0  0  0  0  0  0  0  0
    3.7793    0.1840    3.4814 H   0  0  0  0  0  0  0  0  0  0  0  0
    4.3161    0.4683    1.2144 H   0  0  0  0  0  0  0  0  0  0  0  0
    5.5905    0.2363   -0.2841 H   0  0  0  0  0  0  0  0  0  0  0  0
    6.7572   -3.7548    1.8073 H   0  0  0  0  0  0  0  0  0  0  0  0
    6.9052   -3.1859   -0.6196 H   0  0  0  0  0  0  0  0  0  0  0  0
    5.8345   -4.5602   -0.4360 H   0  0  0  0  0  0  0  0  0  0  0  0
  1  2  1  0
  1 25  1  0
  1 26  1  0
  1 27  1  0
  2  3  1  0
  3 23  1  0
  3  4  2  0
  4  5  1  0
  4 28  1  0
  5 21  1  0
  5  6  1  0
  5 29  1  1
  6 11  1  0
  6  7  1  6
  6  8  1  0
  7 30  1  0
  7 31  1  0
  7 32  1  0
  8  9  2  0
  8 33  1  0
  9 10  1  0
  9 34  1  0
 10 11  1  0
 10 12  1  0
 10 35  1  1
 11 36  1  0
 11 37  1  0
 12 20  1  0
 12 13  1  0
 12 38  1  1
 13 14  2  0
 13 15  1  0
 15 16  2  0
 15 39  1  0
 16 17  1  0
 16 40  1  0
 17 21  1  0
 17 18  1  6
 17 19  1  0
 18 41  1  0
 19 20  1  0
 20 21  1  0
 20 42  1  6
 21 22  1  6
 22 23  1  0
 22 43  1  0
 22 44  1  0
 23 24  2  0
M  END
>  <i_m_ct_stereo_status>  (288) 
1

>  <s_m_source_file>  (288) 
/var/tmp/pbs.5076255.sched01/tmpg3p38p3m/129jed2w9rh.sdf

>  <i_m_source_file_index>  (288) 
14

>  <i_lp_mmshare_version>  (288) 
48012

>  <i_f3d_flags>  (288) 
0

>  <s_epik_input>  (288) 
W0NIM11PQyhDKD1PKVtDSDJdMSk9W0NIXVtDQEhdKFtDQEBdMTIzKVtDQF00KFtDSDNdKVtDSF09W0NIXVtDQEBIXShbQ0gyXTQpW0NASF01W0NAQEhdM09bQ0BdMihbT0hdKVtDSF09W0NIXUM1PU8=

>  <s_epik_cmdline>  (288) 
J2VwaWtfcHl0aG9uJywgJy1waHQnLCAnMi4wJywgJy1waCcsICc3LjAnLCAnLXRuJywgJzgnLCAnLW1hJywgJzIwMCcsICctaW1hZScsICc8aW5maWxlLm1hZT4nLCAnLW9tYWUnLCAnPG91dGZpbGUubWFlPic=

>  <r_epik_Ionization_Penalty>  (288) 
0.000572802

>  <r_epik_Ionization_Penalty_Charging>  (288) 
0

>  <r_epik_Ionization_Penalty_Neutral>  (288) 
0.000572802

>  <r_epik_State_Penalty>  (288) 
0.000359643

>  <r_epik_Charging_Adjusted_Penalty>  (288) 
0.000359643

>  <i_epik_Tot_Q>  (288) 
0

>  <i_epik_Tot_abs_Q>  (288) 
0

>  <s_lp_Force_Field>  (288) 
OPLS3e

>  <r_lp_Energy>  (288) 
45.2946

>  <b_lp_Chiralities_Consistent>  (288) 
1

>  <s_lp_Variant>  (288) 
95:0-1

>  <s_i_glide_gridfile>  (288) 
pfpi4k_grid

>  <i_i_glide_lignum>  (288) 
14

>  <i_i_glide_rotatable_bonds>  (288) 
2

>  <r_i_docking_score>  (288) 
-3.89895

>  <r_i_glide_ligand_efficiency>  (288) 
-0.162456

>  <r_i_glide_ligand_efficiency_sa>  (288) 
-0.468605

>  <r_i_glide_ligand_efficiency_ln>  (288) 
-0.933199

>  <r_i_glide_gscore>  (288) 
-3.89895

>  <r_i_glide_lipo>  (288) 
-0.547919

>  <r_i_glide_hbond>  (288) 
0

>  <r_i_glide_metal>  (288) 
-0

>  <r_i_glide_rewards>  (288) 
-1.52413

>  <r_i_glide_evdw>  (288) 
-16.606

>  <r_i_glide_ecoul>  (288) 
-6.64407

>  <r_i_glide_erotb>  (288) 
0

>  <r_i_glide_esite>  (288) 
0

>  <r_i_glide_emodel>  (288) 
-28.641

>  <r_i_glide_energy>  (288) 
-23.2501

>  <r_i_glide_einternal>  (288) 
2.78902

>  <r_i_glide_intrahb_reward>  (288) 
-0

>  <i_i_glide_confnum>  (288) 
2

>  <i_i_glide_posenum>  (288) 
8

>  <r_i_glide_eff_state_penalty>  (288) 
0

>  <ligand_id>  (288) 
95

>  <original_smiles>  (288) 
COC1=CC2C3(C)C=CC(C3)C3C(=O)C=CC4(O)OC3C24CC1=O

>  <smiles>  (288) 
[H]OC12OC3([H])C([H])(C(=O)C([H])=C1[H])C1([H])C([H])=C([H])C(C([H])([H])[H])(C1([H])[H])C1([H])C([H])=C(OC([H])([H])[H])C(=O)C([H])([H])C231

$$$$
95:0:1
     RDKit          3D

 44 48  0  0  1  0  0  0  0  0999 V2000
    2.2002   -3.0473   -3.1522 C   0  0  0  0  0  0  0  0  0  0  0  0
    3.5827   -2.8651   -2.8891 O   0  0  0  0  0  0  0  0  0  0  0  0
    3.9299   -2.9269   -1.5548 C   0  0  0  0  0  0  0  0  0  0  0  0
    3.3935   -3.7755   -0.6620 C   0  0  0  0  0  0  0  0  0  0  0  0
    3.6947   -3.8051    0.8258 C   0  0  1  0  0  0  0  0  0  0  0  0
    4.4151   -5.1327    1.2765 C   0  0  2  0  0  0  0  0  0  0  0  0
    5.0420   -5.9587    0.1325 C   0  0  0  0  0  0  0  0  0  0  0  0
    3.4093   -5.9492    2.0565 C   0  0  0  0  0  0  0  0  0  0  0  0
    3.4915   -5.6958    3.3722 C   0  0  0  0  0  0  0  0  0  0  0  0
    4.5998   -4.7063    3.6780 C   0  0  1  0  0  0  0  0  0  0  0  0
    5.4549   -4.9000    2.3973 C   0  0  0  0  0  0  0  0  0  0  0  0
    4.1417   -3.2217    3.9110 C   0  0  2  0  0  0  0  0  0  0  0  0
    2.6406   -3.0709    4.2851 C   0  0  0  0  0  0  0  0  0  0  0  0
    2.3268   -3.4730    5.4071 O   0  0  0  0  0  0  0  0  0  0  0  0
    1.6195   -2.5335    3.3699 C   0  0  0  0  0  0  0  0  0  0  0  0
    1.8775   -1.8068    2.2508 C   0  0  0  0  0  0  0  0  0  0  0  0
    3.2366   -1.3180    1.7567 C   0  0  1  0  0  0  0  0  0  0  0  0
    3.0347   -0.2398    0.8690 O   0  0  0  0  0  0  0  0  0  0  0  0
    4.0401   -0.9890    2.9056 O   0  0  0  0  0  0  0  0  0  0  0  0
    4.6474   -2.2804    2.8203 C   0  0  2  0  0  0  0  0  0  0  0  0
    4.2438   -2.4302    1.3394 C   0  0  1  0  0  0  0  0  0  0  0  0
    5.3537   -1.9853    0.3643 C   0  0  0  0  0  0  0  0  0  0  0  0
    4.9108   -1.9272   -1.1025 C   0  0  0  0  0  0  0  0  0  0  0  0
    5.3956   -1.0694   -1.8301 O   0  0  0  0  0  0  0  0  0  0  0  0
    2.0058   -2.9572   -4.2151 H   0  0  0  0  0  0  0  0  0  0  0  0
    1.6421   -2.2697   -2.6354 H   0  0  0  0  0  0  0  0  0  0  0  0
    1.8146   -4.0130   -2.8399 H   0  0  0  0  0  0  0  0  0  0  0  0
    2.6832   -4.5364   -0.9383 H   0  0  0  0  0  0  0  0  0  0  0  0
    2.6822   -3.8961    1.2035 H   0  0  0  0  0  0  0  0  0  0  0  0
    5.7934   -5.3723   -0.3990 H   0  0  0  0  0  0  0  0  0  0  0  0
    4.3050   -6.2963   -0.5973 H   0  0  0  0  0  0  0  0  0  0  0  0
    5.5344   -6.8573    0.5017 H   0  0  0  0  0  0  0  0  0  0  0  0
    2.7433   -6.6637    1.6111 H   0  0  0  0  0  0  0  0  0  0  0  0
    2.8924   -6.1633    4.1345 H   0  0  0  0  0  0  0  0  0  0  0  0
    5.1583   -5.0639    4.5485 H   0  0  0  0  0  0  0  0  0  0  0  0
    6.0187   -5.8267    2.5354 H   0  0  0  0  0  0  0  0  0  0  0  0
    6.2187   -4.1530    2.1851 H   0  0  0  0  0  0  0  0  0  0  0  0
    4.6535   -2.9129    4.8208 H   0  0  0  0  0  0  0  0  0  0  0  0
    0.5849   -2.7223    3.6112 H   0  0  0  0  0  0  0  0  0  0  0  0
    1.0371   -1.4436    1.6830 H   0  0  0  0  0  0  0  0  0  0  0  0
    2.3031   -0.4942    0.2811 H   0  0  0  0  0  0  0  0  0  0  0  0
    5.7259   -2.1493    2.8674 H   0  0  0  0  0  0  0  0  0  0  0  0
    5.7118   -0.9903    0.6362 H   0  0  0  0  0  0  0  0  0  0  0  0
    6.2173   -2.6449    0.4235 H   0  0  0  0  0  0  0  0  0  0  0  0
  1  2  1  0
  1 25  1  0
  1 26  1  0
  1 27  1  0
  2  3  1  0
  3 23  1  0
  3  4  2  0
  4  5  1  0
  4 28  1  0
  5 21  1  0
  5  6  1  0
  5 29  1  1
  6 11  1  0
  6  7  1  6
  6  8  1  0
  7 30  1  0
  7 31  1  0
  7 32  1  0
  8  9  2  0
  8 33  1  0
  9 10  1  0
  9 34  1  0
 10 11  1  0
 10 12  1  0
 10 35  1  1
 11 36  1  0
 11 37  1  0
 12 20  1  0
 12 13  1  0
 12 38  1  1
 13 14  2  0
 13 15  1  0
 15 16  2  0
 15 39  1  0
 16 17  1  0
 16 40  1  0
 17 21  1  0
 17 18  1  6
 17 19  1  0
 18 41  1  0
 19 20  1  0
 20 21  1  0
 20 42  1  6
 21 22  1  6
 22 23  1  0
 22 43  1  0
 22 44  1  0
 23 24  2  0
M  END
>  <i_m_ct_stereo_status>  (289) 
1

>  <s_m_source_file>  (289) 
/var/tmp/pbs.5076255.sched01/tmpg3p38p3m/129jed2w9rh.sdf

>  <i_m_source_file_index>  (289) 
14

>  <i_lp_mmshare_version>  (289) 
48012

>  <i_f3d_flags>  (289) 
0

>  <s_epik_input>  (289) 
W0NIM11PQyhDKD1PKVtDSDJdMSk9W0NIXVtDQEhdKFtDQEBdMTIzKVtDQF00KFtDSDNdKVtDSF09W0NIXVtDQEBIXShbQ0gyXTQpW0NASF01W0NAQEhdM09bQ0BdMihbT0hdKVtDSF09W0NIXUM1PU8=

>  <s_epik_cmdline>  (289) 
J2VwaWtfcHl0aG9uJywgJy1waHQnLCAnMi4wJywgJy1waCcsICc3LjAnLCAnLXRuJywgJzgnLCAnLW1hJywgJzIwMCcsICctaW1hZScsICc8aW5maWxlLm1hZT4nLCAnLW9tYWUnLCAnPG91dGZpbGUubWFlPic=

>  <r_epik_Ionization_Penalty>  (289) 
0.000572802

>  <r_epik_Ionization_Penalty_Charging>  (289) 
0

>  <r_epik_Ionization_Penalty_Neutral>  (289) 
0.000572802

>  <r_epik_State_Penalty>  (289) 
0.000359643

>  <r_epik_Charging_Adjusted_Penalty>  (289) 
0.000359643

>  <i_epik_Tot_Q>  (289) 
0

>  <i_epik_Tot_abs_Q>  (289) 
0

>  <s_lp_Force_Field>  (289) 
OPLS3e

>  <r_lp_Energy>  (289) 
45.2946

>  <b_lp_Chiralities_Consistent>  (289) 
1

>  <s_lp_Variant>  (289) 
95:0-1

>  <s_i_glide_gridfile>  (289) 
pfpi4k_grid

>  <i_i_glide_lignum>  (289) 
14

>  <i_i_glide_rotatable_bonds>  (289) 
2

>  <r_i_docking_score>  (289) 
-3.7516

>  <r_i_glide_ligand_efficiency>  (289) 
-0.156317

>  <r_i_glide_ligand_efficiency_sa>  (289) 
-0.450895

>  <r_i_glide_ligand_efficiency_ln>  (289) 
-0.897929

>  <r_i_glide_gscore>  (289) 
-3.7516

>  <r_i_glide_lipo>  (289) 
-0.469487

>  <r_i_glide_hbond>  (289) 
-0.00570889

>  <r_i_glide_metal>  (289) 
-0

>  <r_i_glide_rewards>  (289) 
-1.17046

>  <r_i_glide_evdw>  (289) 
-21.2035

>  <r_i_glide_ecoul>  (289) 
-6.64328

>  <r_i_glide_erotb>  (289) 
0

>  <r_i_glide_esite>  (289) 
-0.0492724

>  <r_i_glide_emodel>  (289) 
-34.0888

>  <r_i_glide_energy>  (289) 
-27.8468

>  <r_i_glide_einternal>  (289) 
0.887732

>  <r_i_glide_intrahb_reward>  (289) 
-0

>  <i_i_glide_confnum>  (289) 
2

>  <i_i_glide_posenum>  (289) 
16

>  <r_i_glide_eff_state_penalty>  (289) 
0

>  <ligand_id>  (289) 
95

>  <original_smiles>  (289) 
COC1=CC2C3(C)C=CC(C3)C3C(=O)C=CC4(O)OC3C24CC1=O

>  <smiles>  (289) 
[H]OC12OC3([H])C([H])(C(=O)C([H])=C1[H])C1([H])C([H])=C([H])C(C([H])([H])[H])(C1([H])[H])C1([H])C([H])=C(OC([H])([H])[H])C(=O)C([H])([H])C231

$$$$
95:0:2
     RDKit          3D

 44 48  0  0  1  0  0  0  0  0999 V2000
    0.2635   -1.3097    4.6977 C   0  0  0  0  0  0  0  0  0  0  0  0
    0.3319   -2.6170    4.1445 O   0  0  0  0  0  0  0  0  0  0  0  0
    1.4476   -2.8987    3.3967 C   0  0  0  0  0  0  0  0  0  0  0  0
    2.0042   -2.0298    2.5281 C   0  0  0  0  0  0  0  0  0  0  0  0
    3.2664   -2.2838    1.7262 C   0  0  1  0  0  0  0  0  0  0  0  0
    4.4481   -1.3108    2.1121 C   0  0  2  0  0  0  0  0  0  0  0  0
    4.2856   -0.5736    3.4601 C   0  0  0  0  0  0  0  0  0  0  0  0
    4.6202   -0.3358    0.9689 C   0  0  0  0  0  0  0  0  0  0  0  0
    5.5216   -0.7701    0.0873 C   0  0  0  0  0  0  0  0  0  0  0  0
    6.1486   -2.0774    0.5243 C   0  0  1  0  0  0  0  0  0  0  0  0
    5.8355   -1.9848    2.0382 C   0  0  0  0  0  0  0  0  0  0  0  0
    5.5796   -3.3648   -0.1634 C   0  0  2  0  0  0  0  0  0  0  0  0
    4.8503   -3.0939   -1.5067 C   0  0  0  0  0  0  0  0  0  0  0  0
    5.5507   -2.7623   -2.4664 O   0  0  0  0  0  0  0  0  0  0  0  0
    3.3756   -3.1794   -1.6532 C   0  0  0  0  0  0  0  0  0  0  0  0
    2.5253   -3.8060   -0.8146 C   0  0  0  0  0  0  0  0  0  0  0  0
    2.8878   -4.6165    0.4233 C   0  0  1  0  0  0  0  0  0  0  0  0
    1.8136   -5.4643    0.7677 O   0  0  0  0  0  0  0  0  0  0  0  0
    4.1138   -5.3313    0.1702 O   0  0  0  0  0  0  0  0  0  0  0  0
    4.8382   -4.2771    0.8326 C   0  0  2  0  0  0  0  0  0  0  0  0
    3.5707   -3.8176    1.5851 C   0  0  1  0  0  0  0  0  0  0  0  0
    3.4519   -4.4541    2.9889 C   0  0  0  0  0  0  0  0  0  0  0  0
    2.1051   -4.1927    3.6619 C   0  0  0  0  0  0  0  0  0  0  0  0
    1.6312   -5.0514    4.4088 O   0  0  0  0  0  0  0  0  0  0  0  0
   -0.7087   -1.1723    5.1701 H   0  0  0  0  0  0  0  0  0  0  0  0
    0.3801   -0.5117    3.9688 H   0  0  0  0  0  0  0  0  0  0  0  0
    1.0301   -1.1981    5.4642 H   0  0  0  0  0  0  0  0  0  0  0  0
    1.5457   -1.0706    2.3194 H   0  0  0  0  0  0  0  0  0  0  0  0
    2.9197   -1.9392    0.7567 H   0  0  0  0  0  0  0  0  0  0  0  0
    4.2047   -1.2834    4.2851 H   0  0  0  0  0  0  0  0  0  0  0  0
    3.4001    0.0631    3.4775 H   0  0  0  0  0  0  0  0  0  0  0  0
    5.1350    0.0772    3.6757 H   0  0  0  0  0  0  0  0  0  0  0  0
    4.0723    0.5901    0.8874 H   0  0  0  0  0  0  0  0  0  0  0  0
    5.7996   -0.2618   -0.8192 H   0  0  0  0  0  0  0  0  0  0  0  0
    7.2236   -2.0262    0.3670 H   0  0  0  0  0  0  0  0  0  0  0  0
    6.5735   -1.3001    2.4659 H   0  0  0  0  0  0  0  0  0  0  0  0
    5.9455   -2.8937    2.6263 H   0  0  0  0  0  0  0  0  0  0  0  0
    6.4497   -3.9378   -0.4767 H   0  0  0  0  0  0  0  0  0  0  0  0
    2.9483   -2.7167   -2.5292 H   0  0  0  0  0  0  0  0  0  0  0  0
    1.4744   -3.7989   -1.0702 H   0  0  0  0  0  0  0  0  0  0  0  0
    2.2030   -6.2541    1.1157 H   0  0  0  0  0  0  0  0  0  0  0  0
    5.5395   -4.7382    1.5353 H   0  0  0  0  0  0  0  0  0  0  0  0
    3.5852   -5.5340    2.9205 H   0  0  0  0  0  0  0  0  0  0  0  0
    4.2368   -4.0892    3.6482 H   0  0  0  0  0  0  0  0  0  0  0  0
  1  2  1  0
  1 25  1  0
  1 26  1  0
  1 27  1  0
  2  3  1  0
  3 23  1  0
  3  4  2  0
  4  5  1  0
  4 28  1  0
  5 21  1  0
  5  6  1  0
  5 29  1  6
  6 11  1  0
  6  7  1  1
  6  8  1  0
  7 30  1  0
  7 31  1  0
  7 32  1  0
  8  9  2  0
  8 33  1  0
  9 10  1  0
  9 34  1  0
 10 11  1  0
 10 12  1  0
 10 35  1  1
 11 36  1  0
 11 37  1  0
 12 20  1  0
 12 13  1  0
 12 38  1  6
 13 14  2  0
 13 15  1  0
 15 16  2  0
 15 39  1  0
 16 17  1  0
 16 40  1  0
 17 21  1  0
 17 18  1  1
 17 19  1  0
 18 41  1  0
 19 20  1  0
 20 21  1  0
 20 42  1  1
 21 22  1  1
 22 23  1  0
 22 43  1  0
 22 44  1  0
 23 24  2  0
M  END
>  <i_m_ct_stereo_status>  (290) 
1

>  <s_m_source_file>  (290) 
/var/tmp/pbs.5076255.sched01/tmpg3p38p3m/129jed2w9rh.sdf

>  <i_m_source_file_index>  (290) 
14

>  <i_lp_mmshare_version>  (290) 
48012

>  <i_f3d_flags>  (290) 
0

>  <s_epik_input>  (290) 
W0NIM11PQyhDKD1PKVtDSDJdMSk9W0NIXVtDQEhdKFtDQEBdMTIzKVtDQF00KFtDSDNdKVtDSF09W0NIXVtDQEBIXShbQ0gyXTQpW0NASF01W0NAQEhdM09bQ0BdMihbT0hdKVtDSF09W0NIXUM1PU8=

>  <s_epik_cmdline>  (290) 
J2VwaWtfcHl0aG9uJywgJy1waHQnLCAnMi4wJywgJy1waCcsICc3LjAnLCAnLXRuJywgJzgnLCAnLW1hJywgJzIwMCcsICctaW1hZScsICc8aW5maWxlLm1hZT4nLCAnLW9tYWUnLCAnPG91dGZpbGUubWFlPic=

>  <r_epik_Ionization_Penalty>  (290) 
0.000572802

>  <r_epik_Ionization_Penalty_Charging>  (290) 
0

>  <r_epik_Ionization_Penalty_Neutral>  (290) 
0.000572802

>  <r_epik_State_Penalty>  (290) 
0.000359643

>  <r_epik_Charging_Adjusted_Penalty>  (290) 
0.000359643

>  <i_epik_Tot_Q>  (290) 
0

>  <i_epik_Tot_abs_Q>  (290) 
0

>  <s_lp_Force_Field>  (290) 
OPLS3e

>  <r_lp_Energy>  (290) 
45.2946

>  <b_lp_Chiralities_Consistent>  (290) 
1

>  <s_lp_Variant>  (290) 
95:0-1

>  <s_i_glide_gridfile>  (290) 
pfpi4k_grid

>  <i_i_glide_lignum>  (290) 
14

>  <i_i_glide_rotatable_bonds>  (290) 
2

>  <r_i_docking_score>  (290) 
-3.17987

>  <r_i_glide_ligand_efficiency>  (290) 
-0.132495

>  <r_i_glide_ligand_efficiency_sa>  (290) 
-0.382181

>  <r_i_glide_ligand_efficiency_ln>  (290) 
-0.761089

>  <r_i_glide_gscore>  (290) 
-3.17987

>  <r_i_glide_lipo>  (290) 
-0.60507

>  <r_i_glide_hbond>  (290) 
0

>  <r_i_glide_metal>  (290) 
-0

>  <r_i_glide_rewards>  (290) 
-1.19635

>  <r_i_glide_evdw>  (290) 
-21.686

>  <r_i_glide_ecoul>  (290) 
-1.78821

>  <r_i_glide_erotb>  (290) 
0

>  <r_i_glide_esite>  (290) 
-0.0259156

>  <r_i_glide_emodel>  (290) 
-28.8185

>  <r_i_glide_energy>  (290) 
-23.4742

>  <r_i_glide_einternal>  (290) 
0.683719

>  <r_i_glide_intrahb_reward>  (290) 
-0

>  <i_i_glide_confnum>  (290) 
1

>  <i_i_glide_posenum>  (290) 
31

>  <r_i_glide_eff_state_penalty>  (290) 
0

>  <ligand_id>  (290) 
95

>  <original_smiles>  (290) 
COC1=CC2C3(C)C=CC(C3)C3C(=O)C=CC4(O)OC3C24CC1=O

>  <smiles>  (290) 
[H]OC12OC3([H])C([H])(C(=O)C([H])=C1[H])C1([H])C([H])=C([H])C(C([H])([H])[H])(C1([H])[H])C1([H])C([H])=C(OC([H])([H])[H])C(=O)C([H])([H])C231

$$$$
96:0:0
     RDKit          3D

 43 46  0  0  1  0  0  0  0  0999 V2000
    4.0148   -5.9670    4.0597 C   0  0  0  0  0  0  0  0  0  0  0  0
    4.4761   -6.2603    2.6786 N   0  0  2  0  0  0  0  0  0  0  0  0
    5.7732   -5.6350    2.3484 C   0  0  0  0  0  0  0  0  0  0  0  0
    5.4219   -4.2546    1.7865 C   0  0  1  0  0  0  0  0  0  0  0  0
    6.3323   -3.7178    0.6642 C   0  0  0  0  0  0  0  0  0  0  0  0
    5.3523   -3.2048   -0.3939 C   0  0  1  0  0  0  0  0  0  0  0  0
    5.8221   -3.1592   -1.8492 C   0  0  0  0  0  0  0  0  0  0  0  0
    4.6772   -2.7420   -2.7904 C   0  0  2  0  0  0  0  0  0  0  0  0
    4.3053   -1.2606   -2.7923 C   0  0  0  0  0  0  0  0  0  0  0  0
    2.8927   -1.2315   -3.3958 C   0  0  1  0  0  0  0  0  0  0  0  0
    2.9655   -0.6961   -4.7134 O   0  0  0  0  0  0  0  0  0  0  0  0
    2.4161   -2.7005   -3.3799 C   0  0  0  0  0  0  0  0  0  0  0  0
    3.3908   -3.4510   -2.5600 N   0  0  2  0  0  0  0  0  0  0  0  0
    3.0025   -3.5816   -1.1288 C   0  0  0  0  0  0  0  0  0  0  0  0
    4.1737   -4.1680   -0.3118 C   0  0  2  0  0  0  0  0  0  0  0  0
    3.9996   -4.3986    1.2021 C   0  0  1  0  0  0  0  0  0  0  0  0
    3.5334   -5.8065    1.6280 C   0  0  0  0  0  0  0  0  0  0  0  0
    3.8752   -4.8947    4.2134 H   0  0  0  0  0  0  0  0  0  0  0  0
    4.7412   -6.3320    4.7912 H   0  0  0  0  0  0  0  0  0  0  0  0
    3.0643   -6.4727    4.2557 H   0  0  0  0  0  0  0  0  0  0  0  0
    6.4522   -5.5876    3.2007 H   0  0  0  0  0  0  0  0  0  0  0  0
    6.2409   -6.2481    1.5753 H   0  0  0  0  0  0  0  0  0  0  0  0
    5.3739   -3.5401    2.6094 H   0  0  0  0  0  0  0  0  0  0  0  0
    6.9784   -2.9165    1.0221 H   0  0  0  0  0  0  0  0  0  0  0  0
    6.9678   -4.5030    0.2531 H   0  0  0  0  0  0  0  0  0  0  0  0
    5.0265   -2.2135   -0.0761 H   0  0  0  0  0  0  0  0  0  0  0  0
    6.6745   -2.4952   -1.9794 H   0  0  0  0  0  0  0  0  0  0  0  0
    6.1429   -4.1539   -2.1473 H   0  0  0  0  0  0  0  0  0  0  0  0
    4.9925   -2.9849   -3.8072 H   0  0  0  0  0  0  0  0  0  0  0  0
    4.2604   -0.8473   -1.7813 H   0  0  0  0  0  0  0  0  0  0  0  0
    5.0088   -0.6667   -3.3718 H   0  0  0  0  0  0  0  0  0  0  0  0
    2.2485   -0.6150   -2.7584 H   0  0  0  0  0  0  0  0  0  0  0  0
    2.2529   -1.0522   -5.2379 H   0  0  0  0  0  0  0  0  0  0  0  0
    1.3938   -2.8226   -3.0340 H   0  0  0  0  0  0  0  0  0  0  0  0
    2.4708   -3.1003   -4.3916 H   0  0  0  0  0  0  0  0  0  0  0  0
    2.7009   -2.6088   -0.7382 H   0  0  0  0  0  0  0  0  0  0  0  0
    2.1356   -4.2408   -1.0823 H   0  0  0  0  0  0  0  0  0  0  0  0
    4.4664   -5.1214   -0.7648 H   0  0  0  0  0  0  0  0  0  0  0  0
    3.3545   -3.6316    1.6425 H   0  0  0  0  0  0  0  0  0  0  0  0
    3.6188   -6.5026    0.7898 H   0  0  0  0  0  0  0  0  0  0  0  0
    2.4946   -5.8194    1.9630 H   0  0  0  0  0  0  0  0  0  0  0  0
    3.4420   -4.4117   -2.9002 H   0  0  0  0  0  0  0  0  0  0  0  0
    4.5803   -7.2681    2.6115 H   0  0  0  0  0  0  0  0  0  0  0  0
  1  2  1  0
  1 18  1  0
  1 19  1  0
  1 20  1  0
  2 17  1  0
  2  3  1  0
  2 43  1  1
  3  4  1  0
  3 21  1  0
  3 22  1  0
  4 16  1  0
  4  5  1  0
  4 23  1  1
  5  6  1  0
  5 24  1  0
  5 25  1  0
  6 15  1  0
  6  7  1  0
  6 26  1  1
  7  8  1  0
  7 27  1  0
  7 28  1  0
  8 13  1  0
  8  9  1  0
  8 29  1  6
  9 10  1  0
  9 30  1  0
  9 31  1  0
 10 11  1  0
 10 12  1  0
 10 32  1  1
 11 33  1  0
 12 13  1  0
 12 34  1  0
 12 35  1  0
 13 14  1  0
 13 42  1  6
 14 15  1  0
 14 36  1  0
 14 37  1  0
 15 16  1  0
 15 38  1  6
 16 17  1  0
 16 39  1  1
 17 40  1  0
 17 41  1  0
M  CHG  2   2   1  13   1
M  END
>  <i_m_ct_stereo_status>  (291) 
1

>  <s_m_source_file>  (291) 
/var/tmp/pbs.5076255.sched01/tmpg3p38p3m/129jed2w9rh.sdf

>  <i_m_source_file_index>  (291) 
15

>  <i_lp_mmshare_version>  (291) 
48012

>  <i_f3d_flags>  (291) 
0

>  <s_epik_input>  (291) 
W0NIM11OKFtDSDJdMSlbQ0gyXVtDQEBIXShbQ0BASF0xMilbQ0BASF0zW0NAQEhdKFtDSDJdMilbQ0gyXVtDQEhdNE4oW0NIMl0zKVtDSDJdW0NAQEhdKFtDSDJdNClbT0hd

>  <s_epik_cmdline>  (291) 
J2VwaWtfcHl0aG9uJywgJy1waHQnLCAnMi4wJywgJy1waCcsICc3LjAnLCAnLXRuJywgJzgnLCAnLW1hJywgJzIwMCcsICctaW1hZScsICc8aW5maWxlLm1hZT4nLCAnLW9tYWUnLCAnPG91dGZpbGUubWFlPic=

>  <r_lp_tautomer_probability>  (291) 
1

>  <r_epik_Ionization_Penalty>  (291) 
0.00197828

>  <r_epik_Ionization_Penalty_Charging>  (291) 
0.00197828

>  <r_epik_Ionization_Penalty_Neutral>  (291) 
6.01046e-09

>  <r_epik_State_Penalty>  (291) 
-0

>  <r_epik_Charging_Adjusted_Penalty>  (291) 
0.00197828

>  <i_epik_Tot_Q>  (291) 
2

>  <i_epik_Tot_abs_Q>  (291) 
2

>  <s_lp_Force_Field>  (291) 
OPLS3e

>  <r_lp_Energy>  (291) 
32.8627

>  <b_lp_Chiralities_Consistent>  (291) 
1

>  <s_lp_Variant>  (291) 
96:0-1

>  <s_i_glide_gridfile>  (291) 
pfpi4k_grid

>  <i_i_glide_lignum>  (291) 
15

>  <i_i_glide_rotatable_bonds>  (291) 
1

>  <r_i_docking_score>  (291) 
-5.26724

>  <r_i_glide_ligand_efficiency>  (291) 
-0.309837

>  <r_i_glide_ligand_efficiency_sa>  (291) 
-0.796679

>  <r_i_glide_ligand_efficiency_ln>  (291) 
-1.3741

>  <r_i_glide_gscore>  (291) 
-5.26724

>  <r_i_glide_lipo>  (291) 
-0.811969

>  <r_i_glide_hbond>  (291) 
-0.302817

>  <r_i_glide_metal>  (291) 
-0

>  <r_i_glide_rewards>  (291) 
-1.78385

>  <r_i_glide_evdw>  (291) 
-15.3837

>  <r_i_glide_ecoul>  (291) 
-10.4186

>  <r_i_glide_erotb>  (291) 
0

>  <r_i_glide_esite>  (291) 
-0.0366252

>  <r_i_glide_emodel>  (291) 
-36.9841

>  <r_i_glide_energy>  (291) 
-25.8023

>  <r_i_glide_einternal>  (291) 
1.09271

>  <r_i_glide_intrahb_reward>  (291) 
-0

>  <i_i_glide_confnum>  (291) 
2

>  <i_i_glide_posenum>  (291) 
26

>  <r_i_glide_eff_state_penalty>  (291) 
0

>  <ligand_id>  (291) 
96

>  <original_smiles>  (291) 
CN1CC2CC3CC4CC(O)CN4CC3C2C1

>  <smiles>  (291) 
[H]OC1([H])C([H])([H])C2([H])C([H])([H])C3([H])C([H])([H])C4([H])C([H])(C3([H])C([H])([H])[N+]2([H])C1([H])[H])C([H])([H])[N+]([H])(C([H])([H])[H])C4([H])[H]

$$$$
96:0:1
     RDKit          3D

 43 46  0  0  1  0  0  0  0  0999 V2000
    3.9631   -7.0319    3.1745 C   0  0  0  0  0  0  0  0  0  0  0  0
    4.5291   -6.9716    1.8058 N   0  0  2  0  0  0  0  0  0  0  0  0
    5.8020   -6.2293    1.7280 C   0  0  0  0  0  0  0  0  0  0  0  0
    5.3991   -4.7672    1.4766 C   0  0  1  0  0  0  0  0  0  0  0  0
    6.3471   -3.9399    0.5808 C   0  0  0  0  0  0  0  0  0  0  0  0
    5.4058   -3.2443   -0.4067 C   0  0  1  0  0  0  0  0  0  0  0  0
    5.9660   -2.8403   -1.7737 C   0  0  0  0  0  0  0  0  0  0  0  0
    4.8527   -2.2565   -2.6745 C   0  0  2  0  0  0  0  0  0  0  0  0
    4.3845   -0.8259   -2.3687 C   0  0  0  0  0  0  0  0  0  0  0  0
    3.0137   -0.7360   -3.0470 C   0  0  1  0  0  0  0  0  0  0  0  0
    3.0648    0.1131   -4.1803 O   0  0  0  0  0  0  0  0  0  0  0  0
    2.6381   -2.1872   -3.4151 C   0  0  0  0  0  0  0  0  0  0  0  0
    3.6063   -3.0610   -2.7165 N   0  0  2  0  0  0  0  0  0  0  0  0
    3.1310   -3.5401   -1.3828 C   0  0  0  0  0  0  0  0  0  0  0  0
    4.2834   -4.2473   -0.6359 C   0  0  2  0  0  0  0  0  0  0  0  0
    4.0330   -4.8349    0.7688 C   0  0  1  0  0  0  0  0  0  0  0  0
    3.6330   -6.3257    0.8198 C   0  0  0  0  0  0  0  0  0  0  0  0
    3.7474   -6.0331    3.5617 H   0  0  0  0  0  0  0  0  0  0  0  0
    4.6608   -7.5213    3.8577 H   0  0  0  0  0  0  0  0  0  0  0  0
    3.0365   -7.6096    3.1792 H   0  0  0  0  0  0  0  0  0  0  0  0
    6.4238   -6.3506    2.6163 H   0  0  0  0  0  0  0  0  0  0  0  0
    6.3596   -6.6199    0.8748 H   0  0  0  0  0  0  0  0  0  0  0  0
    5.2612   -4.2675    2.4358 H   0  0  0  0  0  0  0  0  0  0  0  0
    6.9164   -3.2137    1.1636 H   0  0  0  0  0  0  0  0  0  0  0  0
    7.0596   -4.5760    0.0553 H   0  0  0  0  0  0  0  0  0  0  0  0
    5.0033   -2.3632    0.0995 H   0  0  0  0  0  0  0  0  0  0  0  0
    6.7864   -2.1317   -1.6732 H   0  0  0  0  0  0  0  0  0  0  0  0
    6.3797   -3.7232   -2.2633 H   0  0  0  0  0  0  0  0  0  0  0  0
    5.2388   -2.2525   -3.6922 H   0  0  0  0  0  0  0  0  0  0  0  0
    4.2567   -0.6747   -1.2949 H   0  0  0  0  0  0  0  0  0  0  0  0
    5.0723   -0.0616   -2.7214 H   0  0  0  0  0  0  0  0  0  0  0  0
    2.2783   -0.3229   -2.3556 H   0  0  0  0  0  0  0  0  0  0  0  0
    2.8122    0.9849   -3.8864 H   0  0  0  0  0  0  0  0  0  0  0  0
    1.6009   -2.4382   -3.1980 H   0  0  0  0  0  0  0  0  0  0  0  0
    2.7916   -2.3295   -4.4836 H   0  0  0  0  0  0  0  0  0  0  0  0
    2.7477   -2.6990   -0.7999 H   0  0  0  0  0  0  0  0  0  0  0  0
    2.2986   -4.2276   -1.5322 H   0  0  0  0  0  0  0  0  0  0  0  0
    4.6650   -5.0500   -1.2708 H   0  0  0  0  0  0  0  0  0  0  0  0
    3.3157   -4.2244    1.3217 H   0  0  0  0  0  0  0  0  0  0  0  0
    3.8236   -6.7951   -0.1474 H   0  0  0  0  0  0  0  0  0  0  0  0
    2.5761   -6.4704    1.0513 H   0  0  0  0  0  0  0  0  0  0  0  0
    3.7562   -3.8927   -3.2680 H   0  0  0  0  0  0  0  0  0  0  0  0
    4.6945   -7.9267    1.5205 H   0  0  0  0  0  0  0  0  0  0  0  0
  1  2  1  0
  1 18  1  0
  1 19  1  0
  1 20  1  0
  2 17  1  0
  2  3  1  0
  2 43  1  6
  3  4  1  0
  3 21  1  0
  3 22  1  0
  4 16  1  0
  4  5  1  0
  4 23  1  1
  5  6  1  0
  5 24  1  0
  5 25  1  0
  6 15  1  0
  6  7  1  0
  6 26  1  1
  7  8  1  0
  7 27  1  0
  7 28  1  0
  8 13  1  0
  8  9  1  0
  8 29  1  6
  9 10  1  0
  9 30  1  0
  9 31  1  0
 10 11  1  0
 10 12  1  0
 10 32  1  1
 11 33  1  0
 12 13  1  0
 12 34  1  0
 12 35  1  0
 13 14  1  0
 13 42  1  6
 14 15  1  0
 14 36  1  0
 14 37  1  0
 15 16  1  0
 15 38  1  6
 16 17  1  0
 16 39  1  1
 17 40  1  0
 17 41  1  0
M  CHG  2   2   1  13   1
M  END
>  <i_m_ct_stereo_status>  (292) 
1

>  <s_m_source_file>  (292) 
/var/tmp/pbs.5076255.sched01/tmpg3p38p3m/129jed2w9rh.sdf

>  <i_m_source_file_index>  (292) 
15

>  <i_lp_mmshare_version>  (292) 
48012

>  <i_f3d_flags>  (292) 
0

>  <s_epik_input>  (292) 
W0NIM11OKFtDSDJdMSlbQ0gyXVtDQEBIXShbQ0BASF0xMilbQ0BASF0zW0NAQEhdKFtDSDJdMilbQ0gyXVtDQEhdNE4oW0NIMl0zKVtDSDJdW0NAQEhdKFtDSDJdNClbT0hd

>  <s_epik_cmdline>  (292) 
J2VwaWtfcHl0aG9uJywgJy1waHQnLCAnMi4wJywgJy1waCcsICc3LjAnLCAnLXRuJywgJzgnLCAnLW1hJywgJzIwMCcsICctaW1hZScsICc8aW5maWxlLm1hZT4nLCAnLW9tYWUnLCAnPG91dGZpbGUubWFlPic=

>  <r_lp_tautomer_probability>  (292) 
1

>  <r_epik_Ionization_Penalty>  (292) 
0.00197828

>  <r_epik_Ionization_Penalty_Charging>  (292) 
0.00197828

>  <r_epik_Ionization_Penalty_Neutral>  (292) 
6.01046e-09

>  <r_epik_State_Penalty>  (292) 
-0

>  <r_epik_Charging_Adjusted_Penalty>  (292) 
0.00197828

>  <i_epik_Tot_Q>  (292) 
2

>  <i_epik_Tot_abs_Q>  (292) 
2

>  <s_lp_Force_Field>  (292) 
OPLS3e

>  <r_lp_Energy>  (292) 
32.8627

>  <b_lp_Chiralities_Consistent>  (292) 
1

>  <s_lp_Variant>  (292) 
96:0-1

>  <s_i_glide_gridfile>  (292) 
pfpi4k_grid

>  <i_i_glide_lignum>  (292) 
15

>  <i_i_glide_rotatable_bonds>  (292) 
1

>  <r_i_docking_score>  (292) 
-4.94637

>  <r_i_glide_ligand_efficiency>  (292) 
-0.290963

>  <r_i_glide_ligand_efficiency_sa>  (292) 
-0.748148

>  <r_i_glide_ligand_efficiency_ln>  (292) 
-1.2904

>  <r_i_glide_gscore>  (292) 
-4.94637

>  <r_i_glide_lipo>  (292) 
-0.733895

>  <r_i_glide_hbond>  (292) 
-0.32

>  <r_i_glide_metal>  (292) 
-0

>  <r_i_glide_rewards>  (292) 
-1.78385

>  <r_i_glide_evdw>  (292) 
-17.0845

>  <r_i_glide_ecoul>  (292) 
-8.22283

>  <r_i_glide_erotb>  (292) 
0

>  <r_i_glide_esite>  (292) 
-0.0209814

>  <r_i_glide_emodel>  (292) 
-35.6848

>  <r_i_glide_energy>  (292) 
-25.3073

>  <r_i_glide_einternal>  (292) 
0.903727

>  <r_i_glide_intrahb_reward>  (292) 
-0

>  <i_i_glide_confnum>  (292) 
2

>  <i_i_glide_posenum>  (292) 
8

>  <r_i_glide_eff_state_penalty>  (292) 
0

>  <ligand_id>  (292) 
96

>  <original_smiles>  (292) 
CN1CC2CC3CC4CC(O)CN4CC3C2C1

>  <smiles>  (292) 
[H]OC1([H])C([H])([H])C2([H])C([H])([H])C3([H])C([H])([H])C4([H])C([H])(C3([H])C([H])([H])[N+]2([H])C1([H])[H])C([H])([H])[N+]([H])(C([H])([H])[H])C4([H])[H]

$$$$
96:0:2
     RDKit          3D

 43 46  0  0  1  0  0  0  0  0999 V2000
    2.8840  -11.2150    3.6075 C   0  0  0  0  0  0  0  0  0  0  0  0
    3.6568  -10.6315    2.4847 N   0  0  2  0  0  0  0  0  0  0  0  0
    4.9585  -10.0630    2.8930 C   0  0  0  0  0  0  0  0  0  0  0  0
    4.6685   -8.5997    3.2548 C   0  0  1  0  0  0  0  0  0  0  0  0
    5.7748   -7.5741    2.9389 C   0  0  0  0  0  0  0  0  0  0  0  0
    5.0331   -6.4276    2.2533 C   0  0  1  0  0  0  0  0  0  0  0  0
    5.8183   -5.5399    1.2826 C   0  0  0  0  0  0  0  0  0  0  0  0
    4.8885   -4.5081    0.5999 C   0  0  2  0  0  0  0  0  0  0  0  0
    4.4426   -3.2993    1.4339 C   0  0  0  0  0  0  0  0  0  0  0  0
    3.1875   -2.7850    0.7051 C   0  0  1  0  0  0  0  0  0  0  0  0
    3.4197   -1.5687    0.0184 O   0  0  0  0  0  0  0  0  0  0  0  0
    2.8188   -3.8955   -0.2939 C   0  0  0  0  0  0  0  0  0  0  0  0
    3.6287   -5.0788    0.0642 N   0  0  2  0  0  0  0  0  0  0  0  0
    2.9340   -6.0381    0.9797 C   0  0  0  0  0  0  0  0  0  0  0  0
    3.9209   -7.1153    1.4724 C   0  0  2  0  0  0  0  0  0  0  0  0
    3.4251   -8.2153    2.4315 C   0  0  1  0  0  0  0  0  0  0  0  0
    2.9514   -9.5342    1.7830 C   0  0  0  0  0  0  0  0  0  0  0  0
    2.6552  -10.4583    4.3638 H   0  0  0  0  0  0  0  0  0  0  0  0
    3.4460  -12.0189    4.0923 H   0  0  0  0  0  0  0  0  0  0  0  0
    1.9406  -11.6362    3.2504 H   0  0  0  0  0  0  0  0  0  0  0  0
    5.4289  -10.6230    3.7058 H   0  0  0  0  0  0  0  0  0  0  0  0
    5.6156  -10.1117    2.0231 H   0  0  0  0  0  0  0  0  0  0  0  0
    4.4048   -8.5495    4.3102 H   0  0  0  0  0  0  0  0  0  0  0  0
    6.2764   -7.2311    3.8431 H   0  0  0  0  0  0  0  0  0  0  0  0
    6.5341   -7.9913    2.2787 H   0  0  0  0  0  0  0  0  0  0  0  0
    4.5982   -5.8079    3.0386 H   0  0  0  0  0  0  0  0  0  0  0  0
    6.6384   -5.0271    1.7800 H   0  0  0  0  0  0  0  0  0  0  0  0
    6.2627   -6.1686    0.5072 H   0  0  0  0  0  0  0  0  0  0  0  0
    5.4307   -4.1017   -0.2570 H   0  0  0  0  0  0  0  0  0  0  0  0
    4.1552   -3.6163    2.4380 H   0  0  0  0  0  0  0  0  0  0  0  0
    5.2190   -2.5402    1.5308 H   0  0  0  0  0  0  0  0  0  0  0  0
    2.3790   -2.6289    1.4195 H   0  0  0  0  0  0  0  0  0  0  0  0
    2.5743   -1.2366   -0.2817 H   0  0  0  0  0  0  0  0  0  0  0  0
    1.7537   -4.0977   -0.3540 H   0  0  0  0  0  0  0  0  0  0  0  0
    3.1303   -3.5863   -1.2935 H   0  0  0  0  0  0  0  0  0  0  0  0
    2.4995   -5.4977    1.8230 H   0  0  0  0  0  0  0  0  0  0  0  0
    2.1061   -6.4964    0.4432 H   0  0  0  0  0  0  0  0  0  0  0  0
    4.3580   -7.6049    0.5974 H   0  0  0  0  0  0  0  0  0  0  0  0
    2.6598   -7.8277    3.1084 H   0  0  0  0  0  0  0  0  0  0  0  0
    3.2586   -9.5740    0.7374 H   0  0  0  0  0  0  0  0  0  0  0  0
    1.8673   -9.6513    1.8038 H   0  0  0  0  0  0  0  0  0  0  0  0
    3.8223   -5.5695   -0.8045 H   0  0  0  0  0  0  0  0  0  0  0  0
    3.8154  -11.3707    1.7897 H   0  0  0  0  0  0  0  0  0  0  0  0
  1  2  1  0
  1 18  1  0
  1 19  1  0
  1 20  1  0
  2 17  1  0
  2  3  1  0
  2 43  1  6
  3  4  1  0
  3 21  1  0
  3 22  1  0
  4 16  1  0
  4  5  1  0
  4 23  1  1
  5  6  1  0
  5 24  1  0
  5 25  1  0
  6 15  1  0
  6  7  1  0
  6 26  1  1
  7  8  1  0
  7 27  1  0
  7 28  1  0
  8 13  1  0
  8  9  1  0
  8 29  1  6
  9 10  1  0
  9 30  1  0
  9 31  1  0
 10 11  1  0
 10 12  1  0
 10 32  1  1
 11 33  1  0
 12 13  1  0
 12 34  1  0
 12 35  1  0
 13 14  1  0
 13 42  1  6
 14 15  1  0
 14 36  1  0
 14 37  1  0
 15 16  1  0
 15 38  1  6
 16 17  1  0
 16 39  1  1
 17 40  1  0
 17 41  1  0
M  CHG  2   2   1  13   1
M  END
>  <i_m_ct_stereo_status>  (293) 
1

>  <s_m_source_file>  (293) 
/var/tmp/pbs.5076255.sched01/tmpg3p38p3m/129jed2w9rh.sdf

>  <i_m_source_file_index>  (293) 
15

>  <i_lp_mmshare_version>  (293) 
48012

>  <i_f3d_flags>  (293) 
0

>  <s_epik_input>  (293) 
W0NIM11OKFtDSDJdMSlbQ0gyXVtDQEBIXShbQ0BASF0xMilbQ0BASF0zW0NAQEhdKFtDSDJdMilbQ0gyXVtDQEhdNE4oW0NIMl0zKVtDSDJdW0NAQEhdKFtDSDJdNClbT0hd

>  <s_epik_cmdline>  (293) 
J2VwaWtfcHl0aG9uJywgJy1waHQnLCAnMi4wJywgJy1waCcsICc3LjAnLCAnLXRuJywgJzgnLCAnLW1hJywgJzIwMCcsICctaW1hZScsICc8aW5maWxlLm1hZT4nLCAnLW9tYWUnLCAnPG91dGZpbGUubWFlPic=

>  <r_lp_tautomer_probability>  (293) 
1

>  <r_epik_Ionization_Penalty>  (293) 
0.00197828

>  <r_epik_Ionization_Penalty_Charging>  (293) 
0.00197828

>  <r_epik_Ionization_Penalty_Neutral>  (293) 
6.01046e-09

>  <r_epik_State_Penalty>  (293) 
-0

>  <r_epik_Charging_Adjusted_Penalty>  (293) 
0.00197828

>  <i_epik_Tot_Q>  (293) 
2

>  <i_epik_Tot_abs_Q>  (293) 
2

>  <s_lp_Force_Field>  (293) 
OPLS3e

>  <r_lp_Energy>  (293) 
32.8627

>  <b_lp_Chiralities_Consistent>  (293) 
1

>  <s_lp_Variant>  (293) 
96:0-1

>  <s_i_glide_gridfile>  (293) 
pfpi4k_grid

>  <i_i_glide_lignum>  (293) 
15

>  <i_i_glide_rotatable_bonds>  (293) 
1

>  <r_i_docking_score>  (293) 
-4.7766

>  <r_i_glide_ligand_efficiency>  (293) 
-0.280976

>  <r_i_glide_ligand_efficiency_sa>  (293) 
-0.72247

>  <r_i_glide_ligand_efficiency_ln>  (293) 
-1.24611

>  <r_i_glide_gscore>  (293) 
-4.7766

>  <r_i_glide_lipo>  (293) 
-0.233447

>  <r_i_glide_hbond>  (293) 
-0.36

>  <r_i_glide_metal>  (293) 
-0

>  <r_i_glide_rewards>  (293) 
-1.78385

>  <r_i_glide_evdw>  (293) 
-11.9483

>  <r_i_glide_ecoul>  (293) 
-11.2621

>  <r_i_glide_erotb>  (293) 
0

>  <r_i_glide_esite>  (293) 
-0.112574

>  <r_i_glide_emodel>  (293) 
-33.8648

>  <r_i_glide_energy>  (293) 
-23.2104

>  <r_i_glide_einternal>  (293) 
0.327968

>  <r_i_glide_intrahb_reward>  (293) 
-0

>  <i_i_glide_confnum>  (293) 
1

>  <i_i_glide_posenum>  (293) 
10

>  <r_i_glide_eff_state_penalty>  (293) 
0

>  <ligand_id>  (293) 
96

>  <original_smiles>  (293) 
CN1CC2CC3CC4CC(O)CN4CC3C2C1

>  <smiles>  (293) 
[H]OC1([H])C([H])([H])C2([H])C([H])([H])C3([H])C([H])([H])C4([H])C([H])(C3([H])C([H])([H])[N+]2([H])C1([H])[H])C([H])([H])[N+]([H])(C([H])([H])[H])C4([H])[H]

$$$$
101:0:0
     RDKit          3D

 64 67  0  0  1  0  0  0  0  0999 V2000
    5.2686    6.3469    7.1280 C   0  0  0  0  0  0  0  0  0  0  0  0
    4.2949    5.6744    6.3515 O   0  0  0  0  0  0  0  0  0  0  0  0
    2.9810    5.8849    6.5377 C   0  0  0  0  0  0  0  0  0  0  0  0
    2.5377    6.6562    7.3877 O   0  0  0  0  0  0  0  0  0  0  0  0
    2.0311    5.0227    5.6161 C   0  0  1  0  0  0  0  0  0  0  0  0
    0.7946    5.9803    5.4365 C   0  0  0  0  0  0  0  0  0  0  0  0
    2.5554    4.9655    4.1568 C   0  0  0  0  0  0  0  0  0  0  0  0
    3.4174    6.1079    3.6183 C   0  0  0  0  0  0  0  0  0  0  0  0
    2.1994    4.0099    3.2687 C   0  0  0  0  0  0  0  0  0  0  0  0
    1.2950    2.8298    3.5151 C   0  0  2  0  0  0  0  0  0  0  0  0
   -0.1848    3.3479    3.7245 C   0  0  2  0  0  0  0  0  0  0  0  0
   -1.0305    3.6138    5.0051 C   0  0  2  0  0  0  0  0  0  0  0  0
   -0.8358    3.1945    6.4909 C   0  0  0  0  0  0  0  0  0  0  0  0
    0.4802    3.6050    7.2593 C   0  0  1  0  0  0  0  0  0  0  0  0
    0.5652    2.7373    8.5327 C   0  0  0  0  0  0  0  0  0  0  0  0
    1.7612    3.5647    6.3488 C   0  0  2  0  0  0  0  0  0  0  0  0
    3.0602    2.9684    6.9819 C   0  0  0  0  0  0  0  0  0  0  0  0
    4.1199    2.6639    5.8934 C   0  0  1  0  0  0  0  0  0  0  0  0
    5.4132    2.0714    6.4774 C   0  0  0  0  0  0  0  0  0  0  0  0
    3.5349    1.8347    4.7354 C   0  0  0  0  0  0  0  0  0  0  0  0
    1.9750    1.8791    4.5442 C   0  0  2  0  0  0  0  0  0  0  0  0
    1.5839    0.4057    4.3129 C   0  0  0  0  0  0  0  0  0  0  0  0
    2.0133   -0.2467    2.9912 C   0  0  0  0  0  0  0  0  0  0  0  0
    1.0833   -0.2795    5.2066 O   0  0  0  0  0  0  0  0  0  0  0  0
    1.3752    2.3387    5.7088 O   0  0  0  0  0  0  0  0  0  0  0  0
   -1.4960    2.6240    3.9358 C   0  0  0  0  0  0  0  0  0  0  0  0
   -2.6769    3.0314    3.0551 C   0  0  0  0  0  0  0  0  0  0  0  0
   -1.5894    1.1379    4.2187 C   0  0  0  0  0  0  0  0  0  0  0  0
    6.2564    5.9945    6.8304 H   0  0  0  0  0  0  0  0  0  0  0  0
    5.1520    6.1429    8.1924 H   0  0  0  0  0  0  0  0  0  0  0  0
    5.2290    7.4218    6.9610 H   0  0  0  0  0  0  0  0  0  0  0  0
    1.1150    7.0092    5.2562 H   0  0  0  0  0  0  0  0  0  0  0  0
    0.1102    6.0487    6.2753 H   0  0  0  0  0  0  0  0  0  0  0  0
    0.2193    5.7681    4.5408 H   0  0  0  0  0  0  0  0  0  0  0  0
    3.0818    7.0910    3.9624 H   0  0  0  0  0  0  0  0  0  0  0  0
    3.3908    6.1356    2.5293 H   0  0  0  0  0  0  0  0  0  0  0  0
    4.4704    5.9824    3.8941 H   0  0  0  0  0  0  0  0  0  0  0  0
    2.5653    4.0737    2.2590 H   0  0  0  0  0  0  0  0  0  0  0  0
    1.2671    2.3391    2.5403 H   0  0  0  0  0  0  0  0  0  0  0  0
   -0.3215    4.1270    2.9882 H   0  0  0  0  0  0  0  0  0  0  0  0
   -1.5622    4.5539    4.9748 H   0  0  0  0  0  0  0  0  0  0  0  0
   -1.6886    3.5913    7.0372 H   0  0  0  0  0  0  0  0  0  0  0  0
   -0.9603    2.1214    6.5934 H   0  0  0  0  0  0  0  0  0  0  0  0
    0.3700    4.6041    7.6724 H   0  0  0  0  0  0  0  0  0  0  0  0
    0.6981    1.6788    8.2981 H   0  0  0  0  0  0  0  0  0  0  0  0
   -0.3485    2.8186    9.1222 H   0  0  0  0  0  0  0  0  0  0  0  0
    1.3878    3.0473    9.1818 H   0  0  0  0  0  0  0  0  0  0  0  0
    3.4657    3.5968    7.7749 H   0  0  0  0  0  0  0  0  0  0  0  0
    2.8437    2.0260    7.4807 H   0  0  0  0  0  0  0  0  0  0  0  0
    4.4465    3.5801    5.4022 H   0  0  0  0  0  0  0  0  0  0  0  0
    5.2497    1.0937    6.9289 H   0  0  0  0  0  0  0  0  0  0  0  0
    5.8355    2.7266    7.2406 H   0  0  0  0  0  0  0  0  0  0  0  0
    6.1674    1.9599    5.7000 H   0  0  0  0  0  0  0  0  0  0  0  0
    4.0213    2.1300    3.8118 H   0  0  0  0  0  0  0  0  0  0  0  0
    3.8813    0.8084    4.9103 H   0  0  0  0  0  0  0  0  0  0  0  0
    3.0972   -0.2106    2.8921 H   0  0  0  0  0  0  0  0  0  0  0  0
    1.5782    0.2389    2.1142 H   0  0  0  0  0  0  0  0  0  0  0  0
    1.7189   -1.2940    2.9782 H   0  0  0  0  0  0  0  0  0  0  0  0
   -3.6278    2.8006    3.5409 H   0  0  0  0  0  0  0  0  0  0  0  0
   -2.6519    2.4986    2.1007 H   0  0  0  0  0  0  0  0  0  0  0  0
   -2.6605    4.0987    2.8379 H   0  0  0  0  0  0  0  0  0  0  0  0
   -2.5865    0.8987    4.5706 H   0  0  0  0  0  0  0  0  0  0  0  0
   -0.8992    0.8203    4.9943 H   0  0  0  0  0  0  0  0  0  0  0  0
   -1.4161    0.5608    3.3045 H   0  0  0  0  0  0  0  0  0  0  0  0
  1  2  1  0
  1 29  1  0
  1 30  1  0
  1 31  1  0
  2  3  1  0
  3  4  2  0
  3  5  1  0
  5 16  1  0
  5  6  1  6
  5  7  1  0
  6 32  1  0
  6 33  1  0
  6 34  1  0
  7  8  1  0
  7  9  2  0
  8 35  1  0
  8 36  1  0
  8 37  1  0
  9 10  1  0
  9 38  1  0
 10 21  1  0
 10 11  1  0
 10 39  1  6
 11 26  1  0
 11 12  1  0
 11 40  1  6
 12 13  1  0
 12 26  1  0
 12 41  1  1
 13 14  1  0
 13 42  1  0
 13 43  1  0
 14 15  1  0
 14 16  1  0
 14 44  1  1
 15 45  1  0
 15 46  1  0
 15 47  1  0
 16 25  1  0
 16 17  1  1
 17 18  1  0
 17 48  1  0
 17 49  1  0
 18 19  1  0
 18 20  1  0
 18 50  1  6
 19 51  1  0
 19 52  1  0
 19 53  1  0
 20 21  1  0
 20 54  1  0
 20 55  1  0
 21 22  1  6
 21 25  1  0
 22 23  1  0
 22 24  2  0
 23 56  1  0
 23 57  1  0
 23 58  1  0
 26 27  1  0
 26 28  1  0
 27 59  1  0
 27 60  1  0
 27 61  1  0
 28 62  1  0
 28 63  1  0
 28 64  1  0
M  END
>  <i_m_ct_stereo_status>  (294) 
1

>  <s_m_source_file>  (294) 
/var/tmp/pbs.5076255.sched01/tmpg3p38p3m/129jed2w9rh.sdf

>  <i_m_source_file_index>  (294) 
23

>  <i_lp_mmshare_version>  (294) 
48012

>  <i_f3d_flags>  (294) 
0

>  <s_epik_input>  (294) 
W0NIM11PQyg9TylbQ0BAXShbQ0BdMTIzKShbQ0gzXSlDKFtDSDNdKT1bQ0hdW0NAQEhdKFtDQEBdKE8zKShDKD1PKVtDSDNdKVtDSDJdW0NAQEhdKFtDSDJdMilbQ0gzXSlbQ0BASF00W0NAQEhdKEM0KFtDSDNdKVtDSDNdKVtDSDJdW0NASF0xW0NIM10=

>  <s_epik_cmdline>  (294) 
J2VwaWtfcHl0aG9uJywgJy1waHQnLCAnMi4wJywgJy1waCcsICc3LjAnLCAnLXRuJywgJzgnLCAnLW1hJywgJzIwMCcsICctaW1hZScsICc8aW5maWxlLm1hZT4nLCAnLW9tYWUnLCAnPG91dGZpbGUubWFlPic=

>  <r_lp_tautomer_probability>  (294) 
1

>  <r_epik_Ionization_Penalty>  (294) 
7.1469e-12

>  <r_epik_Ionization_Penalty_Charging>  (294) 
0

>  <r_epik_Ionization_Penalty_Neutral>  (294) 
7.1469e-12

>  <r_epik_State_Penalty>  (294) 
-0

>  <r_epik_Charging_Adjusted_Penalty>  (294) 
0

>  <i_epik_Tot_Q>  (294) 
0

>  <i_epik_Tot_abs_Q>  (294) 
0

>  <s_epik_Chemistry_Notes>  (294) 
This compound has an ester and may undergo hydrolysis at high or low pH.

>  <s_lp_Force_Field>  (294) 
OPLS3e

>  <r_lp_Energy>  (294) 
112.729

>  <b_lp_Chiralities_Consistent>  (294) 
1

>  <s_lp_Variant>  (294) 
101:0-1

>  <s_i_glide_gridfile>  (294) 
pfpi4k_grid

>  <i_i_glide_lignum>  (294) 
23

>  <i_i_glide_rotatable_bonds>  (294) 
3

>  <r_i_docking_score>  (294) 
-2.04066

>  <r_i_glide_ligand_efficiency>  (294) 
-0.0728806

>  <r_i_glide_ligand_efficiency_sa>  (294) 
-0.221308

>  <r_i_glide_ligand_efficiency_ln>  (294) 
-0.471044

>  <r_i_glide_gscore>  (294) 
-2.04066

>  <r_i_glide_lipo>  (294) 
-0.088765

>  <r_i_glide_hbond>  (294) 
0

>  <r_i_glide_metal>  (294) 
-0

>  <r_i_glide_rewards>  (294) 
-0.759953

>  <r_i_glide_evdw>  (294) 
-22.9962

>  <r_i_glide_ecoul>  (294) 
-1.12876

>  <r_i_glide_erotb>  (294) 
0.129071

>  <r_i_glide_esite>  (294) 
-0.0018841

>  <r_i_glide_emodel>  (294) 
-25.9905

>  <r_i_glide_energy>  (294) 
-24.125

>  <r_i_glide_einternal>  (294) 
1.41904

>  <r_i_glide_intrahb_reward>  (294) 
-0

>  <i_i_glide_confnum>  (294) 
4

>  <i_i_glide_posenum>  (294) 
1

>  <r_i_glide_eff_state_penalty>  (294) 
0

>  <ligand_id>  (294) 
101

>  <original_smiles>  (294) 
COC(=O)C1(C)C(C)=CC2C3C(CC(C)C14CC(C)CC2(C(C)=O)O4)C3(C)C

>  <smiles>  (294) 
[H]C1=C(C([H])([H])[H])C(C(=O)OC([H])([H])[H])(C([H])([H])[H])C23OC(C(=O)C([H])([H])[H])(C([H])([H])C([H])(C([H])([H])[H])C2([H])[H])C1([H])C1([H])C([H])(C([H])([H])C3([H])C([H])([H])[H])C1(C([H])([H])[H])C([H])([H])[H]

$$$$
101:0:1
     RDKit          3D

 64 67  0  0  1  0  0  0  0  0999 V2000
   -0.9471    5.7344    2.8790 C   0  0  0  0  0  0  0  0  0  0  0  0
    0.0470    4.8335    3.3477 O   0  0  0  0  0  0  0  0  0  0  0  0
    0.3049    4.6973    4.6550 C   0  0  0  0  0  0  0  0  0  0  0  0
   -0.1919    5.4057    5.5279 O   0  0  0  0  0  0  0  0  0  0  0  0
    1.1957    3.4381    4.9462 C   0  0  1  0  0  0  0  0  0  0  0  0
    2.4190    3.6505    3.9850 C   0  0  0  0  0  0  0  0  0  0  0  0
    1.9048    3.5139    6.3345 C   0  0  0  0  0  0  0  0  0  0  0  0
    2.2564    4.8827    6.9307 C   0  0  0  0  0  0  0  0  0  0  0  0
    2.3519    2.4442    6.9978 C   0  0  0  0  0  0  0  0  0  0  0  0
    2.2187    0.9944    6.5883 C   0  0  2  0  0  0  0  0  0  0  0  0
    3.1226    0.7133    5.3227 C   0  0  2  0  0  0  0  0  0  0  0  0
    2.8064    0.6420    3.8102 C   0  0  2  0  0  0  0  0  0  0  0  0
    1.4678    0.5182    3.0250 C   0  0  0  0  0  0  0  0  0  0  0  0
    0.3387    1.6011    3.2200 C   0  0  1  0  0  0  0  0  0  0  0  0
   -0.9747    1.0253    2.6534 C   0  0  0  0  0  0  0  0  0  0  0  0
    0.2354    2.1151    4.7000 C   0  0  2  0  0  0  0  0  0  0  0  0
   -1.2067    2.3125    5.2809 C   0  0  0  0  0  0  0  0  0  0  0  0
   -1.1519    2.5071    6.8113 C   0  0  1  0  0  0  0  0  0  0  0  0
   -2.5494    2.6732    7.4332 C   0  0  0  0  0  0  0  0  0  0  0  0
   -0.3293    1.3885    7.4970 C   0  0  0  0  0  0  0  0  0  0  0  0
    0.7141    0.6124    6.6064 C   0  0  2  0  0  0  0  0  0  0  0  0
    0.5060   -0.8772    6.9507 C   0  0  0  0  0  0  0  0  0  0  0  0
    1.1126   -1.4121    8.2525 C   0  0  0  0  0  0  0  0  0  0  0  0
   -0.2824   -1.5773    6.3162 O   0  0  0  0  0  0  0  0  0  0  0  0
    0.4073    0.8100    5.2690 O   0  0  0  0  0  0  0  0  0  0  0  0
    3.4368   -0.5501    4.5396 C   0  0  0  0  0  0  0  0  0  0  0  0
    4.9029   -0.8612    4.2702 C   0  0  0  0  0  0  0  0  0  0  0  0
    2.7101   -1.8744    4.6962 C   0  0  0  0  0  0  0  0  0  0  0  0
   -0.9847    5.7954    1.8048 H   0  0  0  0  0  0  0  0  0  0  0  0
   -0.8153    6.7318    3.2912 H   0  0  0  0  0  0  0  0  0  0  0  0
   -1.9094    5.3238    3.2041 H   0  0  0  0  0  0  0  0  0  0  0  0
    2.7575    4.6896    4.0087 H   0  0  0  0  0  0  0  0  0  0  0  0
    2.2504    3.4384    2.9362 H   0  0  0  0  0  0  0  0  0  0  0  0
    3.3033    3.1019    4.2948 H   0  0  0  0  0  0  0  0  0  0  0  0
    2.5976    5.5933    6.1773 H   0  0  0  0  0  0  0  0  0  0  0  0
    3.0640    4.7879    7.6534 H   0  0  0  0  0  0  0  0  0  0  0  0
    1.4051    5.3112    7.4687 H   0  0  0  0  0  0  0  0  0  0  0  0
    2.8731    2.5779    7.9340 H   0  0  0  0  0  0  0  0  0  0  0  0
    2.7352    0.4872    7.3998 H   0  0  0  0  0  0  0  0  0  0  0  0
    4.0388    1.2543    5.5118 H   0  0  0  0  0  0  0  0  0  0  0  0
    3.5119    1.1918    3.2030 H   0  0  0  0  0  0  0  0  0  0  0  0
    1.7295    0.4901    1.9696 H   0  0  0  0  0  0  0  0  0  0  0  0
    1.0299   -0.4605    3.1969 H   0  0  0  0  0  0  0  0  0  0  0  0
    0.5242    2.4386    2.5517 H   0  0  0  0  0  0  0  0  0  0  0  0
   -1.3140    0.1584    3.2239 H   0  0  0  0  0  0  0  0  0  0  0  0
   -0.8265    0.6963    1.6255 H   0  0  0  0  0  0  0  0  0  0  0  0
   -1.7769    1.7665    2.6373 H   0  0  0  0  0  0  0  0  0  0  0  0
   -1.7525    3.1279    4.8038 H   0  0  0  0  0  0  0  0  0  0  0  0
   -1.8230    1.4374    5.0873 H   0  0  0  0  0  0  0  0  0  0  0  0
   -0.6458    3.4509    7.0248 H   0  0  0  0  0  0  0  0  0  0  0  0
   -3.1682    1.7854    7.2960 H   0  0  0  0  0  0  0  0  0  0  0  0
   -3.0821    3.5135    6.9847 H   0  0  0  0  0  0  0  0  0  0  0  0
   -2.4824    2.8739    8.5034 H   0  0  0  0  0  0  0  0  0  0  0  0
    0.1547    1.7888    8.3805 H   0  0  0  0  0  0  0  0  0  0  0  0
   -1.0652    0.6827    7.9066 H   0  0  0  0  0  0  0  0  0  0  0  0
    0.7289   -0.8372    9.0952 H   0  0  0  0  0  0  0  0  0  0  0  0
    2.2052   -1.3603    8.2635 H   0  0  0  0  0  0  0  0  0  0  0  0
    0.8328   -2.4560    8.3957 H   0  0  0  0  0  0  0  0  0  0  0  0
    4.9997   -1.4840    3.3803 H   0  0  0  0  0  0  0  0  0  0  0  0
    5.3433   -1.3944    5.1154 H   0  0  0  0  0  0  0  0  0  0  0  0
    5.4692    0.0541    4.1076 H   0  0  0  0  0  0  0  0  0  0  0  0
    2.9467   -2.5308    3.8546 H   0  0  0  0  0  0  0  0  0  0  0  0
    1.6448   -1.7225    4.6951 H   0  0  0  0  0  0  0  0  0  0  0  0
    3.0076   -2.3619    5.6242 H   0  0  0  0  0  0  0  0  0  0  0  0
  1  2  1  0
  1 29  1  0
  1 30  1  0
  1 31  1  0
  2  3  1  0
  3  4  2  0
  3  5  1  0
  5 16  1  0
  5  6  1  6
  5  7  1  0
  6 32  1  0
  6 33  1  0
  6 34  1  0
  7  8  1  0
  7  9  2  0
  8 35  1  0
  8 36  1  0
  8 37  1  0
  9 10  1  0
  9 38  1  0
 10 21  1  0
 10 11  1  0
 10 39  1  1
 11 26  1  0
 11 12  1  0
 11 40  1  6
 12 13  1  0
 12 26  1  0
 12 41  1  6
 13 14  1  0
 13 42  1  0
 13 43  1  0
 14 15  1  0
 14 16  1  0
 14 44  1  6
 15 45  1  0
 15 46  1  0
 15 47  1  0
 16 25  1  0
 16 17  1  6
 17 18  1  0
 17 48  1  0
 17 49  1  0
 18 19  1  0
 18 20  1  0
 18 50  1  6
 19 51  1  0
 19 52  1  0
 19 53  1  0
 20 21  1  0
 20 54  1  0
 20 55  1  0
 21 22  1  1
 21 25  1  0
 22 23  1  0
 22 24  2  0
 23 56  1  0
 23 57  1  0
 23 58  1  0
 26 27  1  0
 26 28  1  0
 27 59  1  0
 27 60  1  0
 27 61  1  0
 28 62  1  0
 28 63  1  0
 28 64  1  0
M  END
>  <i_m_ct_stereo_status>  (295) 
1

>  <s_m_source_file>  (295) 
/var/tmp/pbs.5076255.sched01/tmpg3p38p3m/129jed2w9rh.sdf

>  <i_m_source_file_index>  (295) 
23

>  <i_lp_mmshare_version>  (295) 
48012

>  <i_f3d_flags>  (295) 
0

>  <s_epik_input>  (295) 
W0NIM11PQyg9TylbQ0BAXShbQ0BdMTIzKShbQ0gzXSlDKFtDSDNdKT1bQ0hdW0NAQEhdKFtDQEBdKE8zKShDKD1PKVtDSDNdKVtDSDJdW0NAQEhdKFtDSDJdMilbQ0gzXSlbQ0BASF00W0NAQEhdKEM0KFtDSDNdKVtDSDNdKVtDSDJdW0NASF0xW0NIM10=

>  <s_epik_cmdline>  (295) 
J2VwaWtfcHl0aG9uJywgJy1waHQnLCAnMi4wJywgJy1waCcsICc3LjAnLCAnLXRuJywgJzgnLCAnLW1hJywgJzIwMCcsICctaW1hZScsICc8aW5maWxlLm1hZT4nLCAnLW9tYWUnLCAnPG91dGZpbGUubWFlPic=

>  <r_lp_tautomer_probability>  (295) 
1

>  <r_epik_Ionization_Penalty>  (295) 
7.1469e-12

>  <r_epik_Ionization_Penalty_Charging>  (295) 
0

>  <r_epik_Ionization_Penalty_Neutral>  (295) 
7.1469e-12

>  <r_epik_State_Penalty>  (295) 
-0

>  <r_epik_Charging_Adjusted_Penalty>  (295) 
0

>  <i_epik_Tot_Q>  (295) 
0

>  <i_epik_Tot_abs_Q>  (295) 
0

>  <s_epik_Chemistry_Notes>  (295) 
This compound has an ester and may undergo hydrolysis at high or low pH.

>  <s_lp_Force_Field>  (295) 
OPLS3e

>  <r_lp_Energy>  (295) 
112.729

>  <b_lp_Chiralities_Consistent>  (295) 
1

>  <s_lp_Variant>  (295) 
101:0-1

>  <s_i_glide_gridfile>  (295) 
pfpi4k_grid

>  <i_i_glide_lignum>  (295) 
23

>  <i_i_glide_rotatable_bonds>  (295) 
3

>  <r_i_docking_score>  (295) 
-1.72945

>  <r_i_glide_ligand_efficiency>  (295) 
-0.0617661

>  <r_i_glide_ligand_efficiency_sa>  (295) 
-0.187558

>  <r_i_glide_ligand_efficiency_ln>  (295) 
-0.399208

>  <r_i_glide_gscore>  (295) 
-1.72945

>  <r_i_glide_lipo>  (295) 
-0.206054

>  <r_i_glide_hbond>  (295) 
0

>  <r_i_glide_metal>  (295) 
-0

>  <r_i_glide_rewards>  (295) 
-0.759953

>  <r_i_glide_evdw>  (295) 
-18.2237

>  <r_i_glide_ecoul>  (295) 
0.542801

>  <r_i_glide_erotb>  (295) 
0.129071

>  <r_i_glide_esite>  (295) 
-0.0627474

>  <r_i_glide_emodel>  (295) 
-19.2885

>  <r_i_glide_energy>  (295) 
-17.6809

>  <r_i_glide_einternal>  (295) 
1.51435

>  <r_i_glide_intrahb_reward>  (295) 
-0

>  <i_i_glide_confnum>  (295) 
3

>  <i_i_glide_posenum>  (295) 
2

>  <r_i_glide_eff_state_penalty>  (295) 
0

>  <ligand_id>  (295) 
101

>  <original_smiles>  (295) 
COC(=O)C1(C)C(C)=CC2C3C(CC(C)C14CC(C)CC2(C(C)=O)O4)C3(C)C

>  <smiles>  (295) 
[H]C1=C(C([H])([H])[H])C(C(=O)OC([H])([H])[H])(C([H])([H])[H])C23OC(C(=O)C([H])([H])[H])(C([H])([H])C([H])(C([H])([H])[H])C2([H])[H])C1([H])C1([H])C([H])(C([H])([H])C3([H])C([H])([H])[H])C1(C([H])([H])[H])C([H])([H])[H]

$$$$
101:0:2
     RDKit          3D

 64 67  0  0  1  0  0  0  0  0999 V2000
    3.3163   -3.2328    3.9184 C   0  0  0  0  0  0  0  0  0  0  0  0
    2.3656   -2.1933    4.0471 O   0  0  0  0  0  0  0  0  0  0  0  0
    2.1228   -1.6369    5.2533 C   0  0  0  0  0  0  0  0  0  0  0  0
    2.6982   -1.9922    6.2898 O   0  0  0  0  0  0  0  0  0  0  0  0
    1.1219   -0.4361    5.1874 C   0  0  1  0  0  0  0  0  0  0  0  0
   -0.1332   -1.0793    4.5000 C   0  0  0  0  0  0  0  0  0  0  0  0
    0.5266   -0.0549    6.5950 C   0  0  0  0  0  0  0  0  0  0  0  0
    0.3706   -1.1423    7.6586 C   0  0  0  0  0  0  0  0  0  0  0  0
   -0.0089    1.1339    6.8737 C   0  0  0  0  0  0  0  0  0  0  0  0
   -0.0717    2.3583    5.9690 C   0  0  2  0  0  0  0  0  0  0  0  0
   -1.1126    2.0808    4.8066 C   0  0  2  0  0  0  0  0  0  0  0  0
   -0.9068    1.6167    3.3241 C   0  0  2  0  0  0  0  0  0  0  0  0
    0.3567    1.5688    2.4119 C   0  0  0  0  0  0  0  0  0  0  0  0
    1.6140    0.7266    2.8439 C   0  0  1  0  0  0  0  0  0  0  0  0
    2.7984    1.1682    1.9783 C   0  0  0  0  0  0  0  0  0  0  0  0
    1.8939    0.7791    4.3900 C   0  0  2  0  0  0  0  0  0  0  0  0
    3.3866    0.9425    4.8423 C   0  0  0  0  0  0  0  0  0  0  0  0
    3.4692    1.3062    6.3417 C   0  0  1  0  0  0  0  0  0  0  0  0
    4.9122    1.4953    6.8368 C   0  0  0  0  0  0  0  0  0  0  0  0
    2.5551    2.5152    6.6771 C   0  0  0  0  0  0  0  0  0  0  0  0
    1.3843    2.8283    5.6713 C   0  0  2  0  0  0  0  0  0  0  0  0
    1.4311    4.3561    5.4185 C   0  0  0  0  0  0  0  0  0  0  0  0
    2.1349    4.8687    4.1629 C   0  0  0  0  0  0  0  0  0  0  0  0
    0.9499    5.1309    6.2275 O   0  0  0  0  0  0  0  0  0  0  0  0
    1.6110    2.1773    4.4661 O   0  0  0  0  0  0  0  0  0  0  0  0
   -1.6089    2.9357    3.6483 C   0  0  0  0  0  0  0  0  0  0  0  0
   -3.0973    3.0088    3.4026 C   0  0  0  0  0  0  0  0  0  0  0  0
   -1.0566    4.2923    3.3060 C   0  0  0  0  0  0  0  0  0  0  0  0
    3.3715   -3.5517    2.8773 H   0  0  0  0  0  0  0  0  0  0  0  0
    3.0452   -4.1029    4.5217 H   0  0  0  0  0  0  0  0  0  0  0  0
    4.3099   -2.8999    4.2192 H   0  0  0  0  0  0  0  0  0  0  0  0
   -0.3453   -2.0665    4.9219 H   0  0  0  0  0  0  0  0  0  0  0  0
   -0.0581   -1.2435    3.4327 H   0  0  0  0  0  0  0  0  0  0  0  0
   -1.0488   -0.5314    4.6877 H   0  0  0  0  0  0  0  0  0  0  0  0
    0.0682   -2.1049    7.2457 H   0  0  0  0  0  0  0  0  0  0  0  0
   -0.3793   -0.8585    8.3946 H   0  0  0  0  0  0  0  0  0  0  0  0
    1.3008   -1.2775    8.2225 H   0  0  0  0  0  0  0  0  0  0  0  0
   -0.4435    1.2995    7.8540 H   0  0  0  0  0  0  0  0  0  0  0  0
   -0.5602    3.0998    6.6009 H   0  0  0  0  0  0  0  0  0  0  0  0
   -1.9421    1.5525    5.2768 H   0  0  0  0  0  0  0  0  0  0  0  0
   -1.5841    0.8316    3.0124 H   0  0  0  0  0  0  0  0  0  0  0  0
    0.0225    1.1947    1.4452 H   0  0  0  0  0  0  0  0  0  0  0  0
    0.6777    2.5747    2.1842 H   0  0  0  0  0  0  0  0  0  0  0  0
    1.4862   -0.3028    2.5330 H   0  0  0  0  0  0  0  0  0  0  0  0
    3.0562    2.2145    2.1618 H   0  0  0  0  0  0  0  0  0  0  0  0
    2.5526    1.0808    0.9207 H   0  0  0  0  0  0  0  0  0  0  0  0
    3.6947    0.5563    2.1432 H   0  0  0  0  0  0  0  0  0  0  0  0
    3.9948    0.0669    4.6231 H   0  0  0  0  0  0  0  0  0  0  0  0
    3.8790    1.7431    4.2960 H   0  0  0  0  0  0  0  0  0  0  0  0
    3.0920    0.4577    6.9179 H   0  0  0  0  0  0  0  0  0  0  0  0
    5.4081    2.3340    6.3411 H   0  0  0  0  0  0  0  0  0  0  0  0
    5.5156    0.6029    6.6547 H   0  0  0  0  0  0  0  0  0  0  0  0
    4.9378    1.6864    7.9116 H   0  0  0  0  0  0  0  0  0  0  0  0
    2.1885    2.4302    7.6999 H   0  0  0  0  0  0  0  0  0  0  0  0
    3.2322    3.3858    6.7326 H   0  0  0  0  0  0  0  0  0  0  0  0
    1.7641    4.4338    3.2663 H   0  0  0  0  0  0  0  0  0  0  0  0
    3.2187    4.6876    4.2351 H   0  0  0  0  0  0  0  0  0  0  0  0
    2.0011    5.9469    4.0877 H   0  0  0  0  0  0  0  0  0  0  0  0
   -3.3423    3.2721    2.3681 H   0  0  0  0  0  0  0  0  0  0  0  0
   -3.4743    3.7372    4.0929 H   0  0  0  0  0  0  0  0  0  0  0  0
   -3.6154    2.0914    3.5999 H   0  0  0  0  0  0  0  0  0  0  0  0
   -1.4695    4.6006    2.3530 H   0  0  0  0  0  0  0  0  0  0  0  0
   -0.0392    4.2481    3.2001 H   0  0  0  0  0  0  0  0  0  0  0  0
   -1.3684    5.0198    4.0381 H   0  0  0  0  0  0  0  0  0  0  0  0
  1  2  1  0
  1 29  1  0
  1 30  1  0
  1 31  1  0
  2  3  1  0
  3  4  2  0
  3  5  1  0
  5 16  1  0
  5  6  1  6
  5  7  1  0
  6 32  1  0
  6 33  1  0
  6 34  1  0
  7  8  1  0
  7  9  2  0
  8 35  1  0
  8 36  1  0
  8 37  1  0
  9 10  1  0
  9 38  1  0
 10 21  1  0
 10 11  1  0
 10 39  1  1
 11 26  1  0
 11 12  1  0
 11 40  1  1
 12 13  1  0
 12 26  1  0
 12 41  1  1
 13 14  1  0
 13 42  1  0
 13 43  1  0
 14 15  1  0
 14 16  1  0
 14 44  1  6
 15 45  1  0
 15 46  1  0
 15 47  1  0
 16 25  1  0
 16 17  1  6
 17 18  1  0
 17 48  1  0
 17 49  1  0
 18 19  1  0
 18 20  1  0
 18 50  1  1
 19 51  1  0
 19 52  1  0
 19 53  1  0
 20 21  1  0
 20 54  1  0
 20 55  1  0
 21 22  1  6
 21 25  1  0
 22 23  1  0
 22 24  2  0
 23 56  1  0
 23 57  1  0
 23 58  1  0
 26 27  1  0
 26 28  1  0
 27 59  1  0
 27 60  1  0
 27 61  1  0
 28 62  1  0
 28 63  1  0
 28 64  1  0
M  END
>  <i_m_ct_stereo_status>  (296) 
1

>  <s_m_source_file>  (296) 
/var/tmp/pbs.5076255.sched01/tmpg3p38p3m/129jed2w9rh.sdf

>  <i_m_source_file_index>  (296) 
23

>  <i_lp_mmshare_version>  (296) 
48012

>  <i_f3d_flags>  (296) 
0

>  <s_epik_input>  (296) 
W0NIM11PQyg9TylbQ0BAXShbQ0BdMTIzKShbQ0gzXSlDKFtDSDNdKT1bQ0hdW0NAQEhdKFtDQEBdKE8zKShDKD1PKVtDSDNdKVtDSDJdW0NAQEhdKFtDSDJdMilbQ0gzXSlbQ0BASF00W0NAQEhdKEM0KFtDSDNdKVtDSDNdKVtDSDJdW0NASF0xW0NIM10=

>  <s_epik_cmdline>  (296) 
J2VwaWtfcHl0aG9uJywgJy1waHQnLCAnMi4wJywgJy1waCcsICc3LjAnLCAnLXRuJywgJzgnLCAnLW1hJywgJzIwMCcsICctaW1hZScsICc8aW5maWxlLm1hZT4nLCAnLW9tYWUnLCAnPG91dGZpbGUubWFlPic=

>  <r_lp_tautomer_probability>  (296) 
1

>  <r_epik_Ionization_Penalty>  (296) 
7.1469e-12

>  <r_epik_Ionization_Penalty_Charging>  (296) 
0

>  <r_epik_Ionization_Penalty_Neutral>  (296) 
7.1469e-12

>  <r_epik_State_Penalty>  (296) 
-0

>  <r_epik_Charging_Adjusted_Penalty>  (296) 
0

>  <i_epik_Tot_Q>  (296) 
0

>  <i_epik_Tot_abs_Q>  (296) 
0

>  <s_epik_Chemistry_Notes>  (296) 
This compound has an ester and may undergo hydrolysis at high or low pH.

>  <s_lp_Force_Field>  (296) 
OPLS3e

>  <r_lp_Energy>  (296) 
112.729

>  <b_lp_Chiralities_Consistent>  (296) 
1

>  <s_lp_Variant>  (296) 
101:0-1

>  <s_i_glide_gridfile>  (296) 
pfpi4k_grid

>  <i_i_glide_lignum>  (296) 
23

>  <i_i_glide_rotatable_bonds>  (296) 
3

>  <r_i_docking_score>  (296) 
-1.60395

>  <r_i_glide_ligand_efficiency>  (296) 
-0.057284

>  <r_i_glide_ligand_efficiency_sa>  (296) 
-0.173948

>  <r_i_glide_ligand_efficiency_ln>  (296) 
-0.370239

>  <r_i_glide_gscore>  (296) 
-1.60395

>  <r_i_glide_lipo>  (296) 
-0.0222144

>  <r_i_glide_hbond>  (296) 
0

>  <r_i_glide_metal>  (296) 
-0

>  <r_i_glide_rewards>  (296) 
-0.759953

>  <r_i_glide_evdw>  (296) 
-17.1755

>  <r_i_glide_ecoul>  (296) 
-0.602956

>  <r_i_glide_erotb>  (296) 
0.129071

>  <r_i_glide_esite>  (296) 
-0.00163531

>  <r_i_glide_emodel>  (296) 
-18.6992

>  <r_i_glide_energy>  (296) 
-17.7785

>  <r_i_glide_einternal>  (296) 
0.834107

>  <r_i_glide_intrahb_reward>  (296) 
-0

>  <i_i_glide_confnum>  (296) 
3

>  <i_i_glide_posenum>  (296) 
25

>  <r_i_glide_eff_state_penalty>  (296) 
0

>  <ligand_id>  (296) 
101

>  <original_smiles>  (296) 
COC(=O)C1(C)C(C)=CC2C3C(CC(C)C14CC(C)CC2(C(C)=O)O4)C3(C)C

>  <smiles>  (296) 
[H]C1=C(C([H])([H])[H])C(C(=O)OC([H])([H])[H])(C([H])([H])[H])C23OC(C(=O)C([H])([H])[H])(C([H])([H])C([H])(C([H])([H])[H])C2([H])[H])C1([H])C1([H])C([H])(C([H])([H])C3([H])C([H])([H])[H])C1(C([H])([H])[H])C([H])([H])[H]

$$$$
102:0:0
     RDKit          3D

 78 84  0  0  1  0  0  0  0  0999 V2000
    2.2248   -5.1994    0.0880 C   0  0  0  0  0  0  0  0  0  0  0  0
    3.3553   -4.3671    0.7342 C   0  0  0  0  0  0  0  0  0  0  0  0
    4.5569   -4.2238   -0.2303 C   0  0  0  0  0  0  0  0  0  0  0  0
    2.8879   -3.0753    1.0225 O   0  0  0  0  0  0  0  0  0  0  0  0
    2.6148   -3.1561    2.4036 C   0  0  2  0  0  0  0  0  0  0  0  0
    2.6585   -1.9433    3.3419 C   0  0  1  0  0  0  0  0  0  0  0  0
    1.3418   -1.3624    3.3655 O   0  0  0  0  0  0  0  0  0  0  0  0
    0.8530   -0.6610    4.5236 C   0  0  2  0  0  0  0  0  0  0  0  0
   -0.5878   -0.2593    4.1059 C   0  0  1  0  0  0  0  0  0  0  0  0
   -1.4253    0.0711    5.2004 O   0  0  0  0  0  0  0  0  0  0  0  0
   -0.6791    0.8343    3.0377 C   0  0  0  0  0  0  0  0  0  0  0  0
    0.1222    2.1163    3.3409 C   0  0  1  0  0  0  0  0  0  0  0  0
   -0.6130    3.3136    4.0770 C   0  0  0  0  0  0  0  0  0  0  0  0
   -1.9855    3.5924    3.4169 C   0  0  0  0  0  0  0  0  0  0  0  0
   -0.8565    3.1114    5.5908 C   0  0  0  0  0  0  0  0  0  0  0  0
    0.2491    4.5795    3.9317 C   0  0  0  0  0  0  0  0  0  0  0  0
   -0.2016    5.7068    4.1801 O   0  0  0  0  0  0  0  0  0  0  0  0
    1.7113    4.4082    3.5552 C   0  0  0  0  0  0  0  0  0  0  0  0
    2.2591    3.1351    4.2105 C   0  0  0  0  0  0  0  0  0  0  0  0
    1.6015    1.7918    3.7468 C   0  0  2  0  0  0  0  0  0  0  0  0
    2.3565    1.3777    2.4497 C   0  0  0  0  0  0  0  0  0  0  0  0
    1.7117    0.6370    4.8689 C   0  0  2  0  0  0  0  0  0  0  0  0
    3.1890    0.3519    5.3404 C   0  0  1  0  0  0  0  0  0  0  0  0
    3.7619    1.4818    5.9635 O   0  0  0  0  0  0  0  0  0  0  0  0
    3.5350   -0.8635    6.2753 C   0  0  1  0  0  0  0  0  0  0  0  0
    3.6482   -0.5114    7.6610 O   0  0  0  0  0  0  0  0  0  0  0  0
    2.6717   -2.1839    6.1443 C   0  0  2  0  0  0  0  0  0  0  0  0
    1.3908   -1.7194    6.9360 C   0  0  0  0  0  0  0  0  0  0  0  0
    0.7078   -1.7296    5.6298 C   0  0  2  0  0  0  0  0  0  0  0  0
    1.6027   -2.7504    5.3507 O   0  0  0  0  0  0  0  0  0  0  0  0
    3.2407   -2.6142    4.6824 C   0  0  1  0  0  0  0  0  0  0  0  0
    3.6308   -4.1237    4.3587 C   0  0  0  0  0  0  0  0  0  0  0  0
    4.9598   -4.5457    5.0268 C   0  0  0  0  0  0  0  0  0  0  0  0
    2.5898   -5.2256    4.6888 C   0  0  0  0  0  0  0  0  0  0  0  0
    3.8043   -3.9644    2.8342 C   0  0  1  0  0  0  0  0  0  0  0  0
    3.7554   -5.0297    1.9074 O   0  0  0  0  0  0  0  0  0  0  0  0
    1.4166   -5.3456    0.7990 H   0  0  0  0  0  0  0  0  0  0  0  0
    2.6158   -6.1826   -0.1697 H   0  0  0  0  0  0  0  0  0  0  0  0
    1.8474   -4.7105   -0.8106 H   0  0  0  0  0  0  0  0  0  0  0  0
    5.3344   -3.6112    0.2244 H   0  0  0  0  0  0  0  0  0  0  0  0
    4.2195   -3.7365   -1.1443 H   0  0  0  0  0  0  0  0  0  0  0  0
    4.9599   -5.2026   -0.4844 H   0  0  0  0  0  0  0  0  0  0  0  0
    1.6863   -3.7128    2.5472 H   0  0  0  0  0  0  0  0  0  0  0  0
    3.3735   -1.2211    2.9404 H   0  0  0  0  0  0  0  0  0  0  0  0
   -1.0565   -1.1419    3.6784 H   0  0  0  0  0  0  0  0  0  0  0  0
   -2.2219    0.4173    4.8527 H   0  0  0  0  0  0  0  0  0  0  0  0
   -0.2787    0.4053    2.1176 H   0  0  0  0  0  0  0  0  0  0  0  0
   -1.7201    1.0404    2.7939 H   0  0  0  0  0  0  0  0  0  0  0  0
    0.1974    2.5328    2.3307 H   0  0  0  0  0  0  0  0  0  0  0  0
   -2.7084    2.8000    3.5981 H   0  0  0  0  0  0  0  0  0  0  0  0
   -1.8742    3.7068    2.3338 H   0  0  0  0  0  0  0  0  0  0  0  0
   -2.4345    4.5093    3.7923 H   0  0  0  0  0  0  0  0  0  0  0  0
   -1.6559    2.4120    5.8019 H   0  0  0  0  0  0  0  0  0  0  0  0
   -1.1575    4.0482    6.0608 H   0  0  0  0  0  0  0  0  0  0  0  0
    0.0422    2.7851    6.1158 H   0  0  0  0  0  0  0  0  0  0  0  0
    1.8197    4.3902    2.4730 H   0  0  0  0  0  0  0  0  0  0  0  0
    2.2571    5.2783    3.9074 H   0  0  0  0  0  0  0  0  0  0  0  0
    3.3321    3.1226    3.9904 H   0  0  0  0  0  0  0  0  0  0  0  0
    2.1630    3.2610    5.2802 H   0  0  0  0  0  0  0  0  0  0  0  0
    3.4141    1.1850    2.6138 H   0  0  0  0  0  0  0  0  0  0  0  0
    2.3119    2.1609    1.6938 H   0  0  0  0  0  0  0  0  0  0  0  0
    1.9413    0.4919    1.9721 H   0  0  0  0  0  0  0  0  0  0  0  0
    1.2175    1.0412    5.7493 H   0  0  0  0  0  0  0  0  0  0  0  0
    3.8032    0.1996    4.4595 H   0  0  0  0  0  0  0  0  0  0  0  0
    3.7468    2.1915    5.3525 H   0  0  0  0  0  0  0  0  0  0  0  0
    4.5958   -1.0539    6.1334 H   0  0  0  0  0  0  0  0  0  0  0  0
    2.8388   -0.1617    7.9506 H   0  0  0  0  0  0  0  0  0  0  0  0
    1.0108   -2.4685    7.6194 H   0  0  0  0  0  0  0  0  0  0  0  0
    1.2930   -0.7217    7.3610 H   0  0  0  0  0  0  0  0  0  0  0  0
   -0.3050   -2.1434    5.7440 H   0  0  0  0  0  0  0  0  0  0  0  0
    4.2508   -2.2428    4.5930 H   0  0  0  0  0  0  0  0  0  0  0  0
    5.2580   -5.5443    4.6975 H   0  0  0  0  0  0  0  0  0  0  0  0
    4.8648   -4.5775    6.1142 H   0  0  0  0  0  0  0  0  0  0  0  0
    5.7853   -3.8751    4.7843 H   0  0  0  0  0  0  0  0  0  0  0  0
    2.9298   -6.1912    4.3084 H   0  0  0  0  0  0  0  0  0  0  0  0
    1.6119   -5.0423    4.2446 H   0  0  0  0  0  0  0  0  0  0  0  0
    2.4455   -5.3311    5.7645 H   0  0  0  0  0  0  0  0  0  0  0  0
    4.7254   -3.3991    2.6384 H   0  0  0  0  0  0  0  0  0  0  0  0
  1  2  1  0
  1 37  1  0
  1 38  1  0
  1 39  1  0
  2 36  1  0
  2  3  1  0
  2  4  1  0
  3 40  1  0
  3 41  1  0
  3 42  1  0
  4  5  1  0
  5 35  1  0
  5  6  1  0
  5 43  1  6
  6 31  1  0
  6  7  1  0
  6 44  1  6
  8  7  1  6
  8 22  1  0
  8 29  1  0
  8  9  1  0
  9 10  1  0
  9 11  1  0
  9 45  1  6
 10 46  1  0
 11 12  1  0
 11 47  1  0
 11 48  1  0
 12 20  1  0
 12 13  1  0
 12 49  1  6
 13 14  1  0
 13 15  1  0
 13 16  1  0
 14 50  1  0
 14 51  1  0
 14 52  1  0
 15 53  1  0
 15 54  1  0
 15 55  1  0
 16 17  2  0
 16 18  1  0
 18 19  1  0
 18 56  1  0
 18 57  1  0
 19 20  1  0
 19 58  1  0
 19 59  1  0
 20 21  1  6
 20 22  1  0
 21 60  1  0
 21 61  1  0
 21 62  1  0
 22 23  1  0
 22 63  1  1
 23 24  1  0
 23 25  1  0
 23 64  1  6
 24 65  1  0
 25 26  1  0
 25 27  1  0
 25 66  1  6
 26 67  1  0
 27 30  1  6
 27 28  1  0
 27 31  1  0
 28 29  1  0
 28 68  1  0
 28 69  1  0
 29 30  1  0
 29 70  1  1
 31 32  1  0
 31 71  1  1
 32 33  1  0
 32 34  1  0
 32 35  1  0
 33 72  1  0
 33 73  1  0
 33 74  1  0
 34 75  1  0
 34 76  1  0
 34 77  1  0
 35 36  1  0
 35 78  1  1
M  END
>  <i_m_ct_stereo_status>  (297) 
1

>  <s_m_source_file>  (297) 
/var/tmp/pbs.5076255.sched01/tmpg3p38p3m/129jed2w9rh.sdf

>  <i_m_source_file_index>  (297) 
24

>  <i_lp_mmshare_version>  (297) 
48012

>  <i_f3d_flags>  (297) 
0

>  <s_epik_input>  (297) 
W0NIM11DKE8xKShbQ0gzXSlPW0NASF0oQzIoW0NIM10pW0NIM10pW0NASF0xW0NAQEhdKE8zKVtDQEhdMltDQEBdNChbQ0gyXVtDQEBIXTVPNClbQ0BIXShbT0hdKVtDQEhdKFtPSF0pW0NASF0oW0NAQF0zNTYpW0NAQF03KFtDSDNdKVtDQEBIXShbQ0gyXVtDQEBIXTZbT0hdKUMoW0NIM10pKFtDSDNdKUMoPU8pW0NIMl1bQ0gyXTc=

>  <s_epik_cmdline>  (297) 
J2VwaWtfcHl0aG9uJywgJy1waHQnLCAnMi4wJywgJy1waCcsICc3LjAnLCAnLXRuJywgJzgnLCAnLW1hJywgJzIwMCcsICctaW1hZScsICc8aW5maWxlLm1hZT4nLCAnLW9tYWUnLCAnPG91dGZpbGUubWFlPic=

>  <r_lp_tautomer_probability>  (297) 
1

>  <r_epik_Ionization_Penalty>  (297) 
1.37194e-07

>  <r_epik_Ionization_Penalty_Charging>  (297) 
0

>  <r_epik_Ionization_Penalty_Neutral>  (297) 
1.37194e-07

>  <r_epik_State_Penalty>  (297) 
-0

>  <r_epik_Charging_Adjusted_Penalty>  (297) 
0

>  <i_epik_Tot_Q>  (297) 
0

>  <i_epik_Tot_abs_Q>  (297) 
0

>  <s_lp_Force_Field>  (297) 
OPLS3e

>  <r_lp_Energy>  (297) 
193.11

>  <b_lp_Chiralities_Consistent>  (297) 
1

>  <s_lp_Variant>  (297) 
102:0-1

>  <s_i_glide_gridfile>  (297) 
pfpi4k_grid

>  <i_i_glide_lignum>  (297) 
24

>  <i_i_glide_rotatable_bonds>  (297) 
3

>  <r_i_docking_score>  (297) 
-2.06663

>  <r_i_glide_ligand_efficiency>  (297) 
-0.0574064

>  <r_i_glide_ligand_efficiency_sa>  (297) 
-0.189552

>  <r_i_glide_ligand_efficiency_ln>  (297) 
-0.450883

>  <r_i_glide_gscore>  (297) 
-2.06663

>  <r_i_glide_lipo>  (297) 
-0.0395832

>  <r_i_glide_hbond>  (297) 
-0.0142002

>  <r_i_glide_metal>  (297) 
-0

>  <r_i_glide_rewards>  (297) 
0

>  <r_i_glide_evdw>  (297) 
-29.5691

>  <r_i_glide_ecoul>  (297) 
-2.93134

>  <r_i_glide_erotb>  (297) 
0

>  <r_i_glide_esite>  (297) 
-0.0946943

>  <r_i_glide_emodel>  (297) 
-36.1789

>  <r_i_glide_energy>  (297) 
-32.5004

>  <r_i_glide_einternal>  (297) 
0.825375

>  <r_i_glide_intrahb_reward>  (297) 
-0

>  <i_i_glide_confnum>  (297) 
1

>  <i_i_glide_posenum>  (297) 
20

>  <r_i_glide_eff_state_penalty>  (297) 
0

>  <ligand_id>  (297) 
102

>  <original_smiles>  (297) 
CC1(C)OC2C3OC45C(O)CC6C(C)(C)C(=O)CCC6(C)C4C(O)C(O)C4(CC5O4)C3C(C)(C)C2O1

>  <smiles>  (297) 
[H]OC1([H])C([H])(O[H])C23OC([H])(C2([H])[H])C2(OC4([H])C5([H])OC(C([H])([H])[H])(C([H])([H])[H])OC5([H])C(C([H])([H])[H])(C([H])([H])[H])C43[H])C([H])(O[H])C([H])([H])C3([H])C(C([H])([H])[H])(C([H])([H])[H])C(=O)C([H])([H])C([H])([H])C3(C([H])([H])[H])C12[H]

$$$$
102:0:1
     RDKit          3D

 78 84  0  0  1  0  0  0  0  0999 V2000
    2.2782   -5.4350    0.4984 C   0  0  0  0  0  0  0  0  0  0  0  0
    3.4075   -4.5284    1.0107 C   0  0  0  0  0  0  0  0  0  0  0  0
    4.5316   -4.3765   -0.0268 C   0  0  0  0  0  0  0  0  0  0  0  0
    2.9003   -3.2437    1.2841 O   0  0  0  0  0  0  0  0  0  0  0  0
    2.7216   -3.2628    2.6780 C   0  0  2  0  0  0  0  0  0  0  0  0
    2.7793   -2.0107    3.5564 C   0  0  1  0  0  0  0  0  0  0  0  0
    1.4375   -1.4843    3.6406 O   0  0  0  0  0  0  0  0  0  0  0  0
    0.9960   -0.7400    4.7922 C   0  0  2  0  0  0  0  0  0  0  0  0
   -0.4938   -0.4325    4.4620 C   0  0  1  0  0  0  0  0  0  0  0  0
   -1.2440   -0.0705    5.6061 O   0  0  0  0  0  0  0  0  0  0  0  0
   -0.6967    0.6065    3.3549 C   0  0  0  0  0  0  0  0  0  0  0  0
    0.0680    1.9363    3.5346 C   0  0  1  0  0  0  0  0  0  0  0  0
   -0.6706    3.1296    4.2656 C   0  0  0  0  0  0  0  0  0  0  0  0
   -2.0895    3.3321    3.6769 C   0  0  0  0  0  0  0  0  0  0  0  0
   -0.8019    3.0009    5.8010 C   0  0  0  0  0  0  0  0  0  0  0  0
    0.1162    4.4341    4.0126 C   0  0  0  0  0  0  0  0  0  0  0  0
   -0.3766    5.5416    4.2242 O   0  0  0  0  0  0  0  0  0  0  0  0
    1.5631    4.3083    3.5590 C   0  0  0  0  0  0  0  0  0  0  0  0
    2.2186    3.0861    4.2131 C   0  0  0  0  0  0  0  0  0  0  0  0
    1.5882    1.6985    3.8610 C   0  0  2  0  0  0  0  0  0  0  0  0
    2.2753    1.2549    2.5305 C   0  0  0  0  0  0  0  0  0  0  0  0
    1.8165    0.6054    5.0213 C   0  0  2  0  0  0  0  0  0  0  0  0
    3.3386    0.4025    5.4046 C   0  0  1  0  0  0  0  0  0  0  0  0
    3.9263    1.5822    5.9135 O   0  0  0  0  0  0  0  0  0  0  0  0
    3.7930   -0.7406    6.3718 C   0  0  1  0  0  0  0  0  0  0  0  0
    3.9612   -0.2924    7.7172 O   0  0  0  0  0  0  0  0  0  0  0  0
    3.0038   -2.1078    6.3636 C   0  0  2  0  0  0  0  0  0  0  0  0
    1.7351   -1.6546    7.2057 C   0  0  0  0  0  0  0  0  0  0  0  0
    0.9615   -1.7651    5.9628 C   0  0  2  0  0  0  0  0  0  0  0  0
    1.8890   -2.7773    5.6684 O   0  0  0  0  0  0  0  0  0  0  0  0
    3.4692   -2.5935    4.8828 C   0  0  1  0  0  0  0  0  0  0  0  0
    3.9056   -4.0986    4.6034 C   0  0  0  0  0  0  0  0  0  0  0  0
    5.2913   -4.4344    5.2039 C   0  0  0  0  0  0  0  0  0  0  0  0
    2.9344   -5.2228    5.0497 C   0  0  0  0  0  0  0  0  0  0  0  0
    3.9757   -4.0033    3.0662 C   0  0  1  0  0  0  0  0  0  0  0  0
    3.9155   -5.1035    2.1929 O   0  0  0  0  0  0  0  0  0  0  0  0
    1.5095   -5.5641    1.2605 H   0  0  0  0  0  0  0  0  0  0  0  0
    2.6947   -6.4130    0.2620 H   0  0  0  0  0  0  0  0  0  0  0  0
    1.8328   -5.0156   -0.4049 H   0  0  0  0  0  0  0  0  0  0  0  0
    5.3101   -3.7119    0.3442 H   0  0  0  0  0  0  0  0  0  0  0  0
    4.1201   -3.9488   -0.9438 H   0  0  0  0  0  0  0  0  0  0  0  0
    4.9642   -5.3493   -0.2647 H   0  0  0  0  0  0  0  0  0  0  0  0
    1.8286   -3.8486    2.9086 H   0  0  0  0  0  0  0  0  0  0  0  0
    3.4274   -1.2783    3.0780 H   0  0  0  0  0  0  0  0  0  0  0  0
   -0.9577   -1.3577    4.1103 H   0  0  0  0  0  0  0  0  0  0  0  0
   -0.9696    0.7950    5.8631 H   0  0  0  0  0  0  0  0  0  0  0  0
   -0.3396    0.1524    2.4282 H   0  0  0  0  0  0  0  0  0  0  0  0
   -1.7595    0.7634    3.1729 H   0  0  0  0  0  0  0  0  0  0  0  0
    0.0616    2.3081    2.5072 H   0  0  0  0  0  0  0  0  0  0  0  0
   -2.7675    2.5209    3.9443 H   0  0  0  0  0  0  0  0  0  0  0  0
   -2.0565    3.3989    2.5866 H   0  0  0  0  0  0  0  0  0  0  0  0
   -2.5586    4.2453    4.0432 H   0  0  0  0  0  0  0  0  0  0  0  0
   -1.5679    2.2932    6.1022 H   0  0  0  0  0  0  0  0  0  0  0  0
   -1.1091    3.9497    6.2452 H   0  0  0  0  0  0  0  0  0  0  0  0
    0.1390    2.7397    6.2826 H   0  0  0  0  0  0  0  0  0  0  0  0
    1.6001    4.2447    2.4743 H   0  0  0  0  0  0  0  0  0  0  0  0
    2.0945    5.2179    3.8311 H   0  0  0  0  0  0  0  0  0  0  0  0
    3.2697    3.1108    3.9258 H   0  0  0  0  0  0  0  0  0  0  0  0
    2.1831    3.2563    5.2892 H   0  0  0  0  0  0  0  0  0  0  0  0
    3.3492    1.1106    2.6328 H   0  0  0  0  0  0  0  0  0  0  0  0
    2.1543    2.0013    1.7438 H   0  0  0  0  0  0  0  0  0  0  0  0
    1.8681    0.3326    2.1234 H   0  0  0  0  0  0  0  0  0  0  0  0
    1.3692    1.0286    5.9155 H   0  0  0  0  0  0  0  0  0  0  0  0
    3.8930    0.2265    4.4900 H   0  0  0  0  0  0  0  0  0  0  0  0
    3.8128    2.2662    5.2712 H   0  0  0  0  0  0  0  0  0  0  0  0
    4.8540   -0.9042    6.1747 H   0  0  0  0  0  0  0  0  0  0  0  0
    4.4352   -0.9578    8.1950 H   0  0  0  0  0  0  0  0  0  0  0  0
    1.4339   -2.3781    7.9635 H   0  0  0  0  0  0  0  0  0  0  0  0
    1.6308   -0.6441    7.5945 H   0  0  0  0  0  0  0  0  0  0  0  0
   -0.0108   -2.2141    6.1570 H   0  0  0  0  0  0  0  0  0  0  0  0
    4.4588   -2.1812    4.7091 H   0  0  0  0  0  0  0  0  0  0  0  0
    5.6128   -5.4316    4.8983 H   0  0  0  0  0  0  0  0  0  0  0  0
    5.2648   -4.4187    6.2941 H   0  0  0  0  0  0  0  0  0  0  0  0
    6.0663   -3.7394    4.8808 H   0  0  0  0  0  0  0  0  0  0  0  0
    3.2904   -6.1903    4.6925 H   0  0  0  0  0  0  0  0  0  0  0  0
    1.9229   -5.1008    4.6657 H   0  0  0  0  0  0  0  0  0  0  0  0
    2.8655   -5.2814    6.1357 H   0  0  0  0  0  0  0  0  0  0  0  0
    4.8552   -3.4123    2.7831 H   0  0  0  0  0  0  0  0  0  0  0  0
  1  2  1  0
  1 37  1  0
  1 38  1  0
  1 39  1  0
  2 36  1  0
  2  3  1  0
  2  4  1  0
  3 40  1  0
  3 41  1  0
  3 42  1  0
  4  5  1  0
  5 35  1  0
  5  6  1  0
  5 43  1  6
  6 31  1  0
  6  7  1  0
  6 44  1  6
  8  7  1  6
  8 22  1  0
  8 29  1  0
  8  9  1  0
  9 10  1  0
  9 11  1  0
  9 45  1  6
 10 46  1  0
 11 12  1  0
 11 47  1  0
 11 48  1  0
 12 20  1  0
 12 13  1  0
 12 49  1  6
 13 14  1  0
 13 15  1  0
 13 16  1  0
 14 50  1  0
 14 51  1  0
 14 52  1  0
 15 53  1  0
 15 54  1  0
 15 55  1  0
 16 17  2  0
 16 18  1  0
 18 19  1  0
 18 56  1  0
 18 57  1  0
 19 20  1  0
 19 58  1  0
 19 59  1  0
 20 21  1  6
 20 22  1  0
 21 60  1  0
 21 61  1  0
 21 62  1  0
 22 23  1  0
 22 63  1  1
 23 24  1  0
 23 25  1  0
 23 64  1  6
 24 65  1  0
 25 26  1  0
 25 27  1  0
 25 66  1  6
 26 67  1  0
 27 30  1  6
 27 28  1  0
 27 31  1  0
 28 29  1  0
 28 68  1  0
 28 69  1  0
 29 30  1  0
 29 70  1  1
 31 32  1  0
 31 71  1  6
 32 33  1  0
 32 34  1  0
 32 35  1  0
 33 72  1  0
 33 73  1  0
 33 74  1  0
 34 75  1  0
 34 76  1  0
 34 77  1  0
 35 36  1  0
 35 78  1  1
M  END
>  <i_m_ct_stereo_status>  (298) 
1

>  <s_m_source_file>  (298) 
/var/tmp/pbs.5076255.sched01/tmpg3p38p3m/129jed2w9rh.sdf

>  <i_m_source_file_index>  (298) 
24

>  <i_lp_mmshare_version>  (298) 
48012

>  <i_f3d_flags>  (298) 
0

>  <s_epik_input>  (298) 
W0NIM11DKE8xKShbQ0gzXSlPW0NASF0oQzIoW0NIM10pW0NIM10pW0NASF0xW0NAQEhdKE8zKVtDQEhdMltDQEBdNChbQ0gyXVtDQEBIXTVPNClbQ0BIXShbT0hdKVtDQEhdKFtPSF0pW0NASF0oW0NAQF0zNTYpW0NAQF03KFtDSDNdKVtDQEBIXShbQ0gyXVtDQEBIXTZbT0hdKUMoW0NIM10pKFtDSDNdKUMoPU8pW0NIMl1bQ0gyXTc=

>  <s_epik_cmdline>  (298) 
J2VwaWtfcHl0aG9uJywgJy1waHQnLCAnMi4wJywgJy1waCcsICc3LjAnLCAnLXRuJywgJzgnLCAnLW1hJywgJzIwMCcsICctaW1hZScsICc8aW5maWxlLm1hZT4nLCAnLW9tYWUnLCAnPG91dGZpbGUubWFlPic=

>  <r_lp_tautomer_probability>  (298) 
1

>  <r_epik_Ionization_Penalty>  (298) 
1.37194e-07

>  <r_epik_Ionization_Penalty_Charging>  (298) 
0

>  <r_epik_Ionization_Penalty_Neutral>  (298) 
1.37194e-07

>  <r_epik_State_Penalty>  (298) 
-0

>  <r_epik_Charging_Adjusted_Penalty>  (298) 
0

>  <i_epik_Tot_Q>  (298) 
0

>  <i_epik_Tot_abs_Q>  (298) 
0

>  <s_lp_Force_Field>  (298) 
OPLS3e

>  <r_lp_Energy>  (298) 
193.11

>  <b_lp_Chiralities_Consistent>  (298) 
1

>  <s_lp_Variant>  (298) 
102:0-1

>  <s_i_glide_gridfile>  (298) 
pfpi4k_grid

>  <i_i_glide_lignum>  (298) 
24

>  <i_i_glide_rotatable_bonds>  (298) 
3

>  <r_i_docking_score>  (298) 
-2.04556

>  <r_i_glide_ligand_efficiency>  (298) 
-0.0568212

>  <r_i_glide_ligand_efficiency_sa>  (298) 
-0.18762

>  <r_i_glide_ligand_efficiency_ln>  (298) 
-0.446287

>  <r_i_glide_gscore>  (298) 
-2.04556

>  <r_i_glide_lipo>  (298) 
-0.0356159

>  <r_i_glide_hbond>  (298) 
-0.0328854

>  <r_i_glide_metal>  (298) 
-0

>  <r_i_glide_rewards>  (298) 
0

>  <r_i_glide_evdw>  (298) 
-28.7089

>  <r_i_glide_ecoul>  (298) 
-3.04198

>  <r_i_glide_erotb>  (298) 
0

>  <r_i_glide_esite>  (298) 
-0.0853216

>  <r_i_glide_emodel>  (298) 
-35.541

>  <r_i_glide_energy>  (298) 
-31.7509

>  <r_i_glide_einternal>  (298) 
0.698768

>  <r_i_glide_intrahb_reward>  (298) 
-0

>  <i_i_glide_confnum>  (298) 
2

>  <i_i_glide_posenum>  (298) 
36

>  <r_i_glide_eff_state_penalty>  (298) 
0

>  <ligand_id>  (298) 
102

>  <original_smiles>  (298) 
CC1(C)OC2C3OC45C(O)CC6C(C)(C)C(=O)CCC6(C)C4C(O)C(O)C4(CC5O4)C3C(C)(C)C2O1

>  <smiles>  (298) 
[H]OC1([H])C([H])(O[H])C23OC([H])(C2([H])[H])C2(OC4([H])C5([H])OC(C([H])([H])[H])(C([H])([H])[H])OC5([H])C(C([H])([H])[H])(C([H])([H])[H])C43[H])C([H])(O[H])C([H])([H])C3([H])C(C([H])([H])[H])(C([H])([H])[H])C(=O)C([H])([H])C([H])([H])C3(C([H])([H])[H])C12[H]

$$$$
102:0:2
     RDKit          3D

 78 84  0  0  1  0  0  0  0  0999 V2000
    2.2192   -5.3757    0.4964 C   0  0  0  0  0  0  0  0  0  0  0  0
    3.3651   -4.4957    1.0121 C   0  0  0  0  0  0  0  0  0  0  0  0
    4.4966   -4.3787   -0.0193 C   0  0  0  0  0  0  0  0  0  0  0  0
    2.8872   -3.1948    1.2715 O   0  0  0  0  0  0  0  0  0  0  0  0
    2.6961   -3.1995    2.6633 C   0  0  2  0  0  0  0  0  0  0  0  0
    2.7849   -1.9418    3.5319 C   0  0  1  0  0  0  0  0  0  0  0  0
    1.4583   -1.3756    3.6069 O   0  0  0  0  0  0  0  0  0  0  0  0
    1.0310   -0.6156    4.7529 C   0  0  2  0  0  0  0  0  0  0  0  0
   -0.4495   -0.2737    4.4130 C   0  0  1  0  0  0  0  0  0  0  0  0
   -1.1940    0.1157    5.5500 O   0  0  0  0  0  0  0  0  0  0  0  0
   -0.6222    0.7622    3.2971 C   0  0  0  0  0  0  0  0  0  0  0  0
    0.1762    2.0739    3.4734 C   0  0  1  0  0  0  0  0  0  0  0  0
   -0.5338    3.2928    4.1896 C   0  0  0  0  0  0  0  0  0  0  0  0
   -1.9431    3.5267    3.5940 C   0  0  0  0  0  0  0  0  0  0  0  0
   -0.6772    3.1785    5.7244 C   0  0  0  0  0  0  0  0  0  0  0  0
    0.2839    4.5768    3.9269 C   0  0  0  0  0  0  0  0  0  0  0  0
   -0.1860    5.6971    4.1348 O   0  0  0  0  0  0  0  0  0  0  0  0
    1.7331    4.4065    3.4793 C   0  0  0  0  0  0  0  0  0  0  0  0
    2.3518    3.1730    4.1530 C   0  0  0  0  0  0  0  0  0  0  0  0
    1.6871    1.8000    3.8100 C   0  0  2  0  0  0  0  0  0  0  0  0
    2.3659    1.3298    2.4850 C   0  0  0  0  0  0  0  0  0  0  0  0
    1.8859    0.7086    4.9777 C   0  0  2  0  0  0  0  0  0  0  0  0
    3.4026    0.4655    5.3642 C   0  0  1  0  0  0  0  0  0  0  0  0
    4.0168    1.6231    5.8942 O   0  0  0  0  0  0  0  0  0  0  0  0
    3.8189   -0.6901    6.3354 C   0  0  1  0  0  0  0  0  0  0  0  0
    4.0100   -0.2275    7.6703 O   0  0  0  0  0  0  0  0  0  0  0  0
    2.9928   -2.0299    6.3421 C   0  0  2  0  0  0  0  0  0  0  0  0
    1.7349   -1.5334    7.1757 C   0  0  0  0  0  0  0  0  0  0  0  0
    0.9638   -1.6301    5.9301 C   0  0  2  0  0  0  0  0  0  0  0  0
    1.8606   -2.6688    5.6434 O   0  0  0  0  0  0  0  0  0  0  0  0
    3.4506   -2.5350    4.8660 C   0  0  1  0  0  0  0  0  0  0  0  0
    3.8487   -4.0506    4.6019 C   0  0  0  0  0  0  0  0  0  0  0  0
    5.2229   -4.4180    5.2109 C   0  0  0  0  0  0  0  0  0  0  0  0
    2.8462   -5.1442    5.0526 C   0  0  0  0  0  0  0  0  0  0  0  0
    3.9291   -3.9688    3.0654 C   0  0  1  0  0  0  0  0  0  0  0  0
    3.8507   -5.0743    2.2018 O   0  0  0  0  0  0  0  0  0  0  0  0
    1.4398   -5.4791    1.2560 H   0  0  0  0  0  0  0  0  0  0  0  0
    2.6117   -6.3648    0.2702 H   0  0  0  0  0  0  0  0  0  0  0  0
    1.7971   -4.9479   -0.4158 H   0  0  0  0  0  0  0  0  0  0  0  0
    5.2919   -3.7314    0.3481 H   0  0  0  0  0  0  0  0  0  0  0  0
    4.0975   -3.9476   -0.9408 H   0  0  0  0  0  0  0  0  0  0  0  0
    4.9025   -5.3658   -0.2502 H   0  0  0  0  0  0  0  0  0  0  0  0
    1.7866   -3.7612    2.8929 H   0  0  0  0  0  0  0  0  0  0  0  0
    3.4560   -1.2304    3.0513 H   0  0  0  0  0  0  0  0  0  0  0  0
   -0.9361   -1.1919    4.0735 H   0  0  0  0  0  0  0  0  0  0  0  0
   -0.8971    0.9741    5.8056 H   0  0  0  0  0  0  0  0  0  0  0  0
   -0.2746    0.2933    2.3740 H   0  0  0  0  0  0  0  0  0  0  0  0
   -1.6801    0.9453    3.1102 H   0  0  0  0  0  0  0  0  0  0  0  0
    0.1859    2.4392    2.4441 H   0  0  0  0  0  0  0  0  0  0  0  0
   -2.6420    2.7348    3.8658 H   0  0  0  0  0  0  0  0  0  0  0  0
   -1.9016    3.5854    2.5031 H   0  0  0  0  0  0  0  0  0  0  0  0
   -2.3854    4.4557    3.9532 H   0  0  0  0  0  0  0  0  0  0  0  0
   -1.4642    2.4938    6.0242 H   0  0  0  0  0  0  0  0  0  0  0  0
   -0.9613    4.1392    6.1584 H   0  0  0  0  0  0  0  0  0  0  0  0
    0.2537    2.8938    6.2135 H   0  0  0  0  0  0  0  0  0  0  0  0
    1.7927    4.3308    2.3936 H   0  0  0  0  0  0  0  0  0  0  0  0
    2.2883    5.3011    3.7488 H   0  0  0  0  0  0  0  0  0  0  0  0
    3.4053    3.1635    3.8730 H   0  0  0  0  0  0  0  0  0  0  0  0
    2.3183    3.3517    5.2276 H   0  0  0  0  0  0  0  0  0  0  0  0
    3.4344    1.1575    2.5940 H   0  0  0  0  0  0  0  0  0  0  0  0
    2.2657    2.0741    1.6941 H   0  0  0  0  0  0  0  0  0  0  0  0
    1.9380    0.4153    2.0824 H   0  0  0  0  0  0  0  0  0  0  0  0
    1.4467    1.1495    5.8680 H   0  0  0  0  0  0  0  0  0  0  0  0
    3.9572    0.2766    4.4502 H   0  0  0  0  0  0  0  0  0  0  0  0
    3.9139    2.3215    5.2622 H   0  0  0  0  0  0  0  0  0  0  0  0
    4.8774   -0.8789    6.1463 H   0  0  0  0  0  0  0  0  0  0  0  0
    4.5377    0.5507    7.6056 H   0  0  0  0  0  0  0  0  0  0  0  0
    1.4126   -2.2480    7.9306 H   0  0  0  0  0  0  0  0  0  0  0  0
    1.6568   -0.5199    7.5653 H   0  0  0  0  0  0  0  0  0  0  0  0
   -0.0201   -2.0516    6.1256 H   0  0  0  0  0  0  0  0  0  0  0  0
    4.4527   -2.1521    4.6911 H   0  0  0  0  0  0  0  0  0  0  0  0
    5.5165   -5.4263    4.9129 H   0  0  0  0  0  0  0  0  0  0  0  0
    5.1933   -4.3930    6.3009 H   0  0  0  0  0  0  0  0  0  0  0  0
    6.0166   -3.7470    4.8823 H   0  0  0  0  0  0  0  0  0  0  0  0
    3.1803   -6.1221    4.7020 H   0  0  0  0  0  0  0  0  0  0  0  0
    1.8398   -4.9988    4.6621 H   0  0  0  0  0  0  0  0  0  0  0  0
    2.7713   -5.1946    6.1387 H   0  0  0  0  0  0  0  0  0  0  0  0
    4.8246   -3.4003    2.7834 H   0  0  0  0  0  0  0  0  0  0  0  0
  1  2  1  0
  1 37  1  0
  1 38  1  0
  1 39  1  0
  2 36  1  0
  2  3  1  0
  2  4  1  0
  3 40  1  0
  3 41  1  0
  3 42  1  0
  4  5  1  0
  5 35  1  0
  5  6  1  0
  5 43  1  6
  6 31  1  0
  6  7  1  0
  6 44  1  6
  8  7  1  6
  8 22  1  0
  8 29  1  0
  8  9  1  0
  9 10  1  0
  9 11  1  0
  9 45  1  6
 10 46  1  0
 11 12  1  0
 11 47  1  0
 11 48  1  0
 12 20  1  0
 12 13  1  0
 12 49  1  6
 13 14  1  0
 13 15  1  0
 13 16  1  0
 14 50  1  0
 14 51  1  0
 14 52  1  0
 15 53  1  0
 15 54  1  0
 15 55  1  0
 16 17  2  0
 16 18  1  0
 18 19  1  0
 18 56  1  0
 18 57  1  0
 19 20  1  0
 19 58  1  0
 19 59  1  0
 20 21  1  6
 20 22  1  0
 21 60  1  0
 21 61  1  0
 21 62  1  0
 22 23  1  0
 22 63  1  1
 23 24  1  0
 23 25  1  0
 23 64  1  6
 24 65  1  0
 25 26  1  0
 25 27  1  0
 25 66  1  6
 26 67  1  0
 27 30  1  6
 27 28  1  0
 27 31  1  0
 28 29  1  0
 28 68  1  0
 28 69  1  0
 29 30  1  0
 29 70  1  1
 31 32  1  0
 31 71  1  6
 32 33  1  0
 32 34  1  0
 32 35  1  0
 33 72  1  0
 33 73  1  0
 33 74  1  0
 34 75  1  0
 34 76  1  0
 34 77  1  0
 35 36  1  0
 35 78  1  1
M  END
>  <i_m_ct_stereo_status>  (299) 
1

>  <s_m_source_file>  (299) 
/var/tmp/pbs.5076255.sched01/tmpg3p38p3m/129jed2w9rh.sdf

>  <i_m_source_file_index>  (299) 
24

>  <i_lp_mmshare_version>  (299) 
48012

>  <i_f3d_flags>  (299) 
0

>  <s_epik_input>  (299) 
W0NIM11DKE8xKShbQ0gzXSlPW0NASF0oQzIoW0NIM10pW0NIM10pW0NASF0xW0NAQEhdKE8zKVtDQEhdMltDQEBdNChbQ0gyXVtDQEBIXTVPNClbQ0BIXShbT0hdKVtDQEhdKFtPSF0pW0NASF0oW0NAQF0zNTYpW0NAQF03KFtDSDNdKVtDQEBIXShbQ0gyXVtDQEBIXTZbT0hdKUMoW0NIM10pKFtDSDNdKUMoPU8pW0NIMl1bQ0gyXTc=

>  <s_epik_cmdline>  (299) 
J2VwaWtfcHl0aG9uJywgJy1waHQnLCAnMi4wJywgJy1waCcsICc3LjAnLCAnLXRuJywgJzgnLCAnLW1hJywgJzIwMCcsICctaW1hZScsICc8aW5maWxlLm1hZT4nLCAnLW9tYWUnLCAnPG91dGZpbGUubWFlPic=

>  <r_lp_tautomer_probability>  (299) 
1

>  <r_epik_Ionization_Penalty>  (299) 
1.37194e-07

>  <r_epik_Ionization_Penalty_Charging>  (299) 
0

>  <r_epik_Ionization_Penalty_Neutral>  (299) 
1.37194e-07

>  <r_epik_State_Penalty>  (299) 
-0

>  <r_epik_Charging_Adjusted_Penalty>  (299) 
0

>  <i_epik_Tot_Q>  (299) 
0

>  <i_epik_Tot_abs_Q>  (299) 
0

>  <s_lp_Force_Field>  (299) 
OPLS3e

>  <r_lp_Energy>  (299) 
193.11

>  <b_lp_Chiralities_Consistent>  (299) 
1

>  <s_lp_Variant>  (299) 
102:0-1

>  <s_i_glide_gridfile>  (299) 
pfpi4k_grid

>  <i_i_glide_lignum>  (299) 
24

>  <i_i_glide_rotatable_bonds>  (299) 
3

>  <r_i_docking_score>  (299) 
-1.99041

>  <r_i_glide_ligand_efficiency>  (299) 
-0.0552891

>  <r_i_glide_ligand_efficiency_sa>  (299) 
-0.182561

>  <r_i_glide_ligand_efficiency_ln>  (299) 
-0.434253

>  <r_i_glide_gscore>  (299) 
-1.99041

>  <r_i_glide_lipo>  (299) 
-0.0358839

>  <r_i_glide_hbond>  (299) 
-0.0131196

>  <r_i_glide_metal>  (299) 
-0

>  <r_i_glide_rewards>  (299) 
0

>  <r_i_glide_evdw>  (299) 
-29.5144

>  <r_i_glide_ecoul>  (299) 
-2.49297

>  <r_i_glide_erotb>  (299) 
0

>  <r_i_glide_esite>  (299) 
-0.0917387

>  <r_i_glide_emodel>  (299) 
-35.6063

>  <r_i_glide_energy>  (299) 
-32.0074

>  <r_i_glide_einternal>  (299) 
0.695342

>  <r_i_glide_intrahb_reward>  (299) 
-0

>  <i_i_glide_confnum>  (299) 
2

>  <i_i_glide_posenum>  (299) 
1

>  <r_i_glide_eff_state_penalty>  (299) 
0

>  <ligand_id>  (299) 
102

>  <original_smiles>  (299) 
CC1(C)OC2C3OC45C(O)CC6C(C)(C)C(=O)CCC6(C)C4C(O)C(O)C4(CC5O4)C3C(C)(C)C2O1

>  <smiles>  (299) 
[H]OC1([H])C([H])(O[H])C23OC([H])(C2([H])[H])C2(OC4([H])C5([H])OC(C([H])([H])[H])(C([H])([H])[H])OC5([H])C(C([H])([H])[H])(C([H])([H])[H])C43[H])C([H])(O[H])C([H])([H])C3([H])C(C([H])([H])[H])(C([H])([H])[H])C(=O)C([H])([H])C([H])([H])C3(C([H])([H])[H])C12[H]

$$$$
103:0:0
     RDKit          3D

 75 80  0  0  1  0  0  0  0  0999 V2000
   -0.9631   -7.4997    4.4196 C   0  0  0  0  0  0  0  0  0  0  0  0
    0.2989   -8.3674    4.6994 C   0  0  0  0  0  0  0  0  0  0  0  0
    0.0051   -9.0282    6.0694 C   0  0  0  0  0  0  0  0  0  0  0  0
    0.4367   -9.5056    3.6592 C   0  0  0  0  0  0  0  0  0  0  0  0
    1.4161   -9.1932    2.5315 C   0  0  0  0  0  0  0  0  0  0  0  0
    1.4290   -7.7121    2.1288 C   0  0  1  0  0  0  0  0  0  0  0  0
    0.1802   -7.4187    1.5244 O   0  0  0  0  0  0  0  0  0  0  0  0
    1.8812   -6.6883    3.2751 C   0  0  1  0  0  0  0  0  0  0  0  0
    3.4101   -6.4260    3.1365 C   0  0  1  0  0  0  0  0  0  0  0  0
    3.6173   -5.6949    1.7752 C   0  0  0  0  0  0  0  0  0  0  0  0
    2.2154   -5.0375    1.5458 C   0  0  0  0  0  0  0  0  0  0  0  0
    1.5144   -5.1194    2.9645 C   0  0  1  0  0  0  0  0  0  0  0  0
    1.7536   -4.0129    4.1707 C   0  0  2  0  0  0  0  0  0  0  0  0
    0.5859   -4.2416    5.1895 C   0  0  0  0  0  0  0  0  0  0  0  0
   -0.1403   -3.0577    5.8386 C   0  0  0  0  0  0  0  0  0  0  0  0
   -0.3554   -1.8981    4.8803 C   0  0  1  0  0  0  0  0  0  0  0  0
   -1.1700   -0.9283    5.5211 O   0  0  0  0  0  0  0  0  0  0  0  0
    0.9888   -1.3294    4.3669 C   0  0  0  0  0  0  0  0  0  0  0  0
    0.6466   -0.1997    3.3518 C   0  0  0  0  0  0  0  0  0  0  0  0
    1.7439   -0.6481    5.5487 C   0  0  0  0  0  0  0  0  0  0  0  0
    1.7499   -2.4961    3.5976 C   0  0  1  0  0  0  0  0  0  0  0  0
    3.2269   -2.2207    3.1566 C   0  0  1  0  0  0  0  0  0  0  0  0
    3.7201   -0.8924    3.1586 O   0  0  0  0  0  0  0  0  0  0  0  0
    4.0999   -3.1578    3.9937 C   0  0  0  0  0  0  0  0  0  0  0  0
    5.3277   -3.1057    4.0200 O   0  0  0  0  0  0  0  0  0  0  0  0
    3.2745   -4.1990    4.7654 C   0  0  1  0  0  0  0  0  0  0  0  0
    3.4677   -3.7520    6.2459 C   0  0  0  0  0  0  0  0  0  0  0  0
    3.8019   -5.6929    4.4897 C   0  0  2  0  0  0  0  0  0  0  0  0
    4.0810   -6.8837    5.4529 C   0  0  1  0  0  0  0  0  0  0  0  0
    4.3281   -6.5037    6.7973 O   0  0  0  0  0  0  0  0  0  0  0  0
    2.9296   -7.9800    5.3265 C   0  0  1  0  0  0  0  0  0  0  0  0
    2.8120   -8.6286    6.5774 O   0  0  0  0  0  0  0  0  0  0  0  0
    1.5637   -7.4204    4.6986 C   0  0  2  0  0  0  0  0  0  0  0  0
   -1.8367   -8.1119    4.1890 H   0  0  0  0  0  0  0  0  0  0  0  0
   -0.8352   -6.7895    3.6089 H   0  0  0  0  0  0  0  0  0  0  0  0
   -1.2188   -6.8930    5.2849 H   0  0  0  0  0  0  0  0  0  0  0  0
    0.6552   -9.8797    6.2803 H   0  0  0  0  0  0  0  0  0  0  0  0
   -1.0070   -9.4325    6.0918 H   0  0  0  0  0  0  0  0  0  0  0  0
    0.0952   -8.3106    6.8893 H   0  0  0  0  0  0  0  0  0  0  0  0
    0.7614  -10.4326    4.1314 H   0  0  0  0  0  0  0  0  0  0  0  0
   -0.5431   -9.7394    3.2418 H   0  0  0  0  0  0  0  0  0  0  0  0
    2.4214   -9.4885    2.8258 H   0  0  0  0  0  0  0  0  0  0  0  0
    1.1743   -9.8285    1.6792 H   0  0  0  0  0  0  0  0  0  0  0  0
    2.1290   -7.6993    1.2993 H   0  0  0  0  0  0  0  0  0  0  0  0
   -0.0438   -8.1444    0.9534 H   0  0  0  0  0  0  0  0  0  0  0  0
    3.9719   -7.3594    3.0453 H   0  0  0  0  0  0  0  0  0  0  0  0
    4.4246   -4.9606    1.8342 H   0  0  0  0  0  0  0  0  0  0  0  0
    3.8728   -6.3855    0.9695 H   0  0  0  0  0  0  0  0  0  0  0  0
    2.2812   -4.0580    1.0455 H   0  0  0  0  0  0  0  0  0  0  0  0
    1.6748   -5.6042    0.7905 H   0  0  0  0  0  0  0  0  0  0  0  0
    2.3108   -4.4671    2.8534 H   0  0  0  0  0  0  0  0  0  0  0  0
   -0.1854   -4.8224    4.6857 H   0  0  0  0  0  0  0  0  0  0  0  0
    0.9103   -4.8387    6.0338 H   0  0  0  0  0  0  0  0  0  0  0  0
   -1.1105   -3.4067    6.1920 H   0  0  0  0  0  0  0  0  0  0  0  0
    0.3733   -2.7431    6.7412 H   0  0  0  0  0  0  0  0  0  0  0  0
   -0.9316   -2.2655    4.0367 H   0  0  0  0  0  0  0  0  0  0  0  0
   -1.2896   -0.2088    4.9181 H   0  0  0  0  0  0  0  0  0  0  0  0
    1.5328    0.2613    2.9164 H   0  0  0  0  0  0  0  0  0  0  0  0
    0.0859    0.6177    3.8154 H   0  0  0  0  0  0  0  0  0  0  0  0
    0.0430   -0.5741    2.5240 H   0  0  0  0  0  0  0  0  0  0  0  0
    2.7485   -0.3194    5.2991 H   0  0  0  0  0  0  0  0  0  0  0  0
    1.8253   -1.2630    6.4390 H   0  0  0  0  0  0  0  0  0  0  0  0
    1.2151    0.2514    5.8755 H   0  0  0  0  0  0  0  0  0  0  0  0
    1.1827   -2.5606    2.6678 H   0  0  0  0  0  0  0  0  0  0  0  0
    3.3486   -2.5489    2.1258 H   0  0  0  0  0  0  0  0  0  0  0  0
    3.1978   -0.3763    2.5629 H   0  0  0  0  0  0  0  0  0  0  0  0
    2.8118   -4.2646    6.9460 H   0  0  0  0  0  0  0  0  0  0  0  0
    3.3342   -2.6861    6.3811 H   0  0  0  0  0  0  0  0  0  0  0  0
    4.4904   -3.9545    6.5666 H   0  0  0  0  0  0  0  0  0  0  0  0
    2.9496   -5.6964    5.1237 H   0  0  0  0  0  0  0  0  0  0  0  0
    5.0122   -7.3611    5.1448 H   0  0  0  0  0  0  0  0  0  0  0  0
    4.5009   -7.2976    7.2822 H   0  0  0  0  0  0  0  0  0  0  0  0
    3.3038   -8.7589    4.6594 H   0  0  0  0  0  0  0  0  0  0  0  0
    2.3425   -9.4421    6.4447 H   0  0  0  0  0  0  0  0  0  0  0  0
    1.2351   -6.7024    5.4295 H   0  0  0  0  0  0  0  0  0  0  0  0
  1  2  1  0
  1 34  1  0
  1 35  1  0
  1 36  1  0
  2 33  1  0
  2  3  1  0
  2  4  1  0
  3 37  1  0
  3 38  1  0
  3 39  1  0
  4  5  1  0
  4 40  1  0
  4 41  1  0
  5  6  1  0
  5 42  1  0
  5 43  1  0
  6  7  1  0
  8  6  1  6
  6 44  1  6
  7 45  1  0
  8 12  1  0
  8 33  1  0
  8  9  1  0
  9 28  1  0
  9 10  1  0
  9 46  1  6
 10 11  1  0
 10 47  1  0
 10 48  1  0
 11 12  1  0
 11 49  1  0
 11 50  1  0
 12 13  1  0
 12 51  1  6
 13 21  1  0
 13 26  1  0
 13 14  1  1
 14 15  1  0
 14 52  1  0
 14 53  1  0
 15 16  1  0
 15 54  1  0
 15 55  1  0
 16 17  1  0
 16 18  1  0
 16 56  1  6
 17 57  1  0
 18 19  1  0
 18 20  1  0
 18 21  1  0
 19 58  1  0
 19 59  1  0
 19 60  1  0
 20 61  1  0
 20 62  1  0
 20 63  1  0
 21 22  1  0
 21 64  1  6
 22 23  1  0
 22 24  1  0
 22 65  1  6
 23 66  1  0
 24 25  2  0
 24 26  1  0
 26 27  1  1
 26 28  1  0
 27 67  1  0
 27 68  1  0
 27 69  1  0
 28 29  1  0
 28 70  1  6
 29 30  1  0
 29 31  1  0
 29 71  1  6
 30 72  1  0
 31 32  1  0
 31 33  1  0
 31 73  1  6
 32 74  1  0
 33 75  1  1
M  END
>  <i_m_ct_stereo_status>  (300) 
1

>  <s_m_source_file>  (300) 
/var/tmp/pbs.5076255.sched01/tmpg3p38p3m/129jed2w9rh.sdf

>  <i_m_source_file_index>  (300) 
25

>  <i_lp_mmshare_version>  (300) 
48012

>  <i_f3d_flags>  (300) 
0

>  <s_epik_input>  (300) 
W09IXVtDQEBIXTFbQ0gyXVtDSDJdQyhbQ0gzXSkoW0NIM10pW0NASF0yW0NASF0oW09IXSlbQ0BIXShbT0hdKVtDQEhdKFtDQEhdM0MxMjQpW0NAXTUoW0NIM10pW0NAXTYoW0NAQEhdNFtDSDJdW0NIMl0zKVtDQEhdKFtDQEBIXShbT0hdKUM1PU8pQyhbQ0gzXSkoW0NIM10pW0NASF0oW09IXSlbQ0gyXVtDSDJdNg==

>  <s_epik_cmdline>  (300) 
J2VwaWtfcHl0aG9uJywgJy1waHQnLCAnMi4wJywgJy1waCcsICc3LjAnLCAnLXRuJywgJzgnLCAnLW1hJywgJzIwMCcsICctaW1hZScsICc8aW5maWxlLm1hZT4nLCAnLW9tYWUnLCAnPG91dGZpbGUubWFlPic=

>  <r_lp_tautomer_probability>  (300) 
1

>  <r_epik_Ionization_Penalty>  (300) 
3.86317e-06

>  <r_epik_Ionization_Penalty_Charging>  (300) 
0

>  <r_epik_Ionization_Penalty_Neutral>  (300) 
3.86317e-06

>  <r_epik_State_Penalty>  (300) 
-0

>  <r_epik_Charging_Adjusted_Penalty>  (300) 
0

>  <i_epik_Tot_Q>  (300) 
0

>  <i_epik_Tot_abs_Q>  (300) 
0

>  <s_lp_Force_Field>  (300) 
OPLS3e

>  <r_lp_Energy>  (300) 
292.93

>  <b_lp_Chiralities_Consistent>  (300) 
1

>  <s_lp_Variant>  (300) 
103:0-1

>  <s_i_glide_gridfile>  (300) 
pfpi4k_grid

>  <i_i_glide_lignum>  (300) 
25

>  <i_i_glide_rotatable_bonds>  (300) 
5

>  <r_i_docking_score>  (300) 
-3.2459

>  <r_i_glide_ligand_efficiency>  (300) 
-0.0983607

>  <r_i_glide_ligand_efficiency_sa>  (300) 
-0.315495

>  <r_i_glide_ligand_efficiency_ln>  (300) 
-0.721872

>  <r_i_glide_gscore>  (300) 
-3.2459

>  <r_i_glide_lipo>  (300) 
-0.0849117

>  <r_i_glide_hbond>  (300) 
-0.285944

>  <r_i_glide_metal>  (300) 
-0

>  <r_i_glide_rewards>  (300) 
-0.254872

>  <r_i_glide_evdw>  (300) 
-27.4005

>  <r_i_glide_ecoul>  (300) 
-8.33434

>  <r_i_glide_erotb>  (300) 
0

>  <r_i_glide_esite>  (300) 
0

>  <r_i_glide_emodel>  (300) 
-42.6481

>  <r_i_glide_energy>  (300) 
-35.7348

>  <r_i_glide_einternal>  (300) 
1.48992

>  <r_i_glide_intrahb_reward>  (300) 
-0

>  <i_i_glide_confnum>  (300) 
2

>  <i_i_glide_posenum>  (300) 
7

>  <r_i_glide_eff_state_penalty>  (300) 
0

>  <ligand_id>  (300) 
103

>  <original_smiles>  (300) 
CC1(C)CCC(O)C23C4CCC2C25CCC(O)C(C)(C)C2C(O)C(=O)C5(C)C4C(O)C(O)C13

>  <smiles>  (300) 
[H]OC1([H])C(=O)C2(C([H])([H])[H])C3([H])C([H])(O[H])C([H])(O[H])C4([H])C(C([H])([H])[H])(C([H])([H])[H])C([H])([H])C([H])([H])C([H])(O[H])C45C3([H])C([H])([H])C([H])([H])C5([H])C23C([H])([H])C([H])([H])C([H])(O[H])C(C([H])([H])[H])(C([H])([H])[H])C13[H]

$$$$
103:0:1
     RDKit          3D

 75 80  0  0  1  0  0  0  0  0999 V2000
   -0.3733   -7.3985    4.6253 C   0  0  0  0  0  0  0  0  0  0  0  0
    0.9013   -8.2841    4.7207 C   0  0  0  0  0  0  0  0  0  0  0  0
    0.8749   -8.7964    6.1822 C   0  0  0  0  0  0  0  0  0  0  0  0
    0.7969   -9.5250    3.7980 C   0  0  0  0  0  0  0  0  0  0  0  0
    1.5275   -9.3604    2.4695 C   0  0  0  0  0  0  0  0  0  0  0  0
    1.4855   -7.9267    1.9254 C   0  0  1  0  0  0  0  0  0  0  0  0
    0.1447   -7.6376    1.5712 O   0  0  0  0  0  0  0  0  0  0  0  0
    2.1884   -6.8162    2.8330 C   0  0  1  0  0  0  0  0  0  0  0  0
    3.6594   -6.6303    2.3535 C   0  0  1  0  0  0  0  0  0  0  0  0
    3.5981   -6.0461    0.9100 C   0  0  0  0  0  0  0  0  0  0  0  0
    2.1907   -5.3606    0.9047 C   0  0  0  0  0  0  0  0  0  0  0  0
    1.7969   -5.2744    2.4391 C   0  0  1  0  0  0  0  0  0  0  0  0
    2.2984   -4.0614    3.4477 C   0  0  2  0  0  0  0  0  0  0  0  0
    1.3606   -4.1467    4.7027 C   0  0  0  0  0  0  0  0  0  0  0  0
    0.8054   -2.8779    5.3570 C   0  0  0  0  0  0  0  0  0  0  0  0
    0.4141   -1.8137    4.3449 C   0  0  1  0  0  0  0  0  0  0  0  0
   -0.2234   -0.7523    5.0354 O   0  0  0  0  0  0  0  0  0  0  0  0
    1.6359   -1.3444    3.5138 C   0  0  0  0  0  0  0  0  0  0  0  0
    1.1081   -0.3042    2.4818 C   0  0  0  0  0  0  0  0  0  0  0  0
    2.6329   -0.5804    4.4394 C   0  0  0  0  0  0  0  0  0  0  0  0
    2.2034   -2.6087    2.7366 C   0  0  1  0  0  0  0  0  0  0  0  0
    3.5561   -2.4349    1.9678 C   0  0  1  0  0  0  0  0  0  0  0  0
    4.0610   -1.1334    1.7234 O   0  0  0  0  0  0  0  0  0  0  0  0
    4.5728   -3.3220    2.6933 C   0  0  0  0  0  0  0  0  0  0  0  0
    5.7761   -3.3289    2.4390 O   0  0  0  0  0  0  0  0  0  0  0  0
    3.9082   -4.2479    3.7291 C   0  0  1  0  0  0  0  0  0  0  0  0
    4.4140   -3.6645    5.0829 C   0  0  0  0  0  0  0  0  0  0  0  0
    4.3385   -5.7827    3.5117 C   0  0  2  0  0  0  0  0  0  0  0  0
    4.7890   -6.8819    4.5159 C   0  0  1  0  0  0  0  0  0  0  0  0
    5.3216   -6.3825    5.7313 O   0  0  0  0  0  0  0  0  0  0  0  0
    3.6154   -7.9384    4.7452 C   0  0  1  0  0  0  0  0  0  0  0  0
    3.7444   -8.4540    6.0529 O   0  0  0  0  0  0  0  0  0  0  0  0
    2.1590   -7.3911    4.3612 C   0  0  2  0  0  0  0  0  0  0  0  0
   -1.2863   -7.9934    4.6372 H   0  0  0  0  0  0  0  0  0  0  0  0
   -0.4049   -6.7695    3.7432 H   0  0  0  0  0  0  0  0  0  0  0  0
   -0.4298   -6.7128    5.4721 H   0  0  0  0  0  0  0  0  0  0  0  0
    1.5420   -9.6447    6.3446 H   0  0  0  0  0  0  0  0  0  0  0  0
   -0.1241   -9.1524    6.4491 H   0  0  0  0  0  0  0  0  0  0  0  0
    1.1440   -8.0056    6.8877 H   0  0  0  0  0  0  0  0  0  0  0  0
    1.2000  -10.4119    4.2869 H   0  0  0  0  0  0  0  0  0  0  0  0
   -0.2520   -9.7614    3.6191 H   0  0  0  0  0  0  0  0  0  0  0  0
    2.5648   -9.6715    2.5758 H   0  0  0  0  0  0  0  0  0  0  0  0
    1.0976  -10.0556    1.7487 H   0  0  0  0  0  0  0  0  0  0  0  0
    1.9924   -8.0209    0.9721 H   0  0  0  0  0  0  0  0  0  0  0  0
   -0.1665   -8.3556    1.0281 H   0  0  0  0  0  0  0  0  0  0  0  0
    4.1707   -7.5891    2.2456 H   0  0  0  0  0  0  0  0  0  0  0  0
    4.4049   -5.3357    0.7263 H   0  0  0  0  0  0  0  0  0  0  0  0
    3.6720   -6.8156    0.1432 H   0  0  0  0  0  0  0  0  0  0  0  0
    2.1723   -4.4410    0.2990 H   0  0  0  0  0  0  0  0  0  0  0  0
    1.4891   -5.9728    0.3456 H   0  0  0  0  0  0  0  0  0  0  0  0
    2.5602   -4.6631    2.0980 H   0  0  0  0  0  0  0  0  0  0  0  0
    0.4894   -4.7394    4.4316 H   0  0  0  0  0  0  0  0  0  0  0  0
    1.8406   -4.6682    5.5195 H   0  0  0  0  0  0  0  0  0  0  0  0
   -0.0759   -3.1492    5.9396 H   0  0  0  0  0  0  0  0  0  0  0  0
    1.5028   -2.4940    6.0964 H   0  0  0  0  0  0  0  0  0  0  0  0
   -0.3298   -2.2487    3.6765 H   0  0  0  0  0  0  0  0  0  0  0  0
   -0.4118   -0.0670    4.4096 H   0  0  0  0  0  0  0  0  0  0  0  0
    1.8905    0.0738    1.8222 H   0  0  0  0  0  0  0  0  0  0  0  0
    0.6776    0.5769    2.9638 H   0  0  0  0  0  0  0  0  0  0  0  0
    0.3314   -0.7264    1.8409 H   0  0  0  0  0  0  0  0  0  0  0  0
    3.5692   -0.3175    3.9536 H   0  0  0  0  0  0  0  0  0  0  0  0
    2.8885   -1.1078    5.3522 H   0  0  0  0  0  0  0  0  0  0  0  0
    2.2015    0.3668    4.7719 H   0  0  0  0  0  0  0  0  0  0  0  0
    1.4496   -2.7370    1.9595 H   0  0  0  0  0  0  0  0  0  0  0  0
    3.4468   -2.8677    0.9759 H   0  0  0  0  0  0  0  0  0  0  0  0
    3.4281   -0.6647    1.1975 H   0  0  0  0  0  0  0  0  0  0  0  0
    3.9077   -4.0801    5.9521 H   0  0  0  0  0  0  0  0  0  0  0  0
    4.3279   -2.5858    5.1323 H   0  0  0  0  0  0  0  0  0  0  0  0
    5.4770   -3.8744    5.2068 H   0  0  0  0  0  0  0  0  0  0  0  0
    3.6366   -5.6892    4.3029 H   0  0  0  0  0  0  0  0  0  0  0  0
    5.6251   -7.4236    4.0725 H   0  0  0  0  0  0  0  0  0  0  0  0
    5.5841   -7.1306    6.2473 H   0  0  0  0  0  0  0  0  0  0  0  0
    3.8265   -8.7941    4.1013 H   0  0  0  0  0  0  0  0  0  0  0  0
    3.2006   -9.2307    6.1124 H   0  0  0  0  0  0  0  0  0  0  0  0
    2.0048   -6.5913    5.0643 H   0  0  0  0  0  0  0  0  0  0  0  0
  1  2  1  0
  1 34  1  0
  1 35  1  0
  1 36  1  0
  2 33  1  0
  2  3  1  0
  2  4  1  0
  3 37  1  0
  3 38  1  0
  3 39  1  0
  4  5  1  0
  4 40  1  0
  4 41  1  0
  5  6  1  0
  5 42  1  0
  5 43  1  0
  6  7  1  0
  8  6  1  6
  6 44  1  6
  7 45  1  0
  8 12  1  0
  8 33  1  0
  8  9  1  0
  9 28  1  0
  9 10  1  0
  9 46  1  6
 10 11  1  0
 10 47  1  0
 10 48  1  0
 11 12  1  0
 11 49  1  0
 11 50  1  0
 12 13  1  0
 12 51  1  6
 13 21  1  0
 13 26  1  0
 13 14  1  1
 14 15  1  0
 14 52  1  0
 14 53  1  0
 15 16  1  0
 15 54  1  0
 15 55  1  0
 16 17  1  0
 16 18  1  0
 16 56  1  6
 17 57  1  0
 18 19  1  0
 18 20  1  0
 18 21  1  0
 19 58  1  0
 19 59  1  0
 19 60  1  0
 20 61  1  0
 20 62  1  0
 20 63  1  0
 21 22  1  0
 21 64  1  6
 22 23  1  0
 22 24  1  0
 22 65  1  6
 23 66  1  0
 24 25  2  0
 24 26  1  0
 26 27  1  1
 26 28  1  0
 27 67  1  0
 27 68  1  0
 27 69  1  0
 28 29  1  0
 28 70  1  6
 29 30  1  0
 29 31  1  0
 29 71  1  6
 30 72  1  0
 31 32  1  0
 31 33  1  0
 31 73  1  6
 32 74  1  0
 33 75  1  1
M  END
>  <i_m_ct_stereo_status>  (301) 
1

>  <s_m_source_file>  (301) 
/var/tmp/pbs.5076255.sched01/tmpg3p38p3m/129jed2w9rh.sdf

>  <i_m_source_file_index>  (301) 
25

>  <i_lp_mmshare_version>  (301) 
48012

>  <i_f3d_flags>  (301) 
0

>  <s_epik_input>  (301) 
W09IXVtDQEBIXTFbQ0gyXVtDSDJdQyhbQ0gzXSkoW0NIM10pW0NASF0yW0NASF0oW09IXSlbQ0BIXShbT0hdKVtDQEhdKFtDQEhdM0MxMjQpW0NAXTUoW0NIM10pW0NAXTYoW0NAQEhdNFtDSDJdW0NIMl0zKVtDQEhdKFtDQEBIXShbT0hdKUM1PU8pQyhbQ0gzXSkoW0NIM10pW0NASF0oW09IXSlbQ0gyXVtDSDJdNg==

>  <s_epik_cmdline>  (301) 
J2VwaWtfcHl0aG9uJywgJy1waHQnLCAnMi4wJywgJy1waCcsICc3LjAnLCAnLXRuJywgJzgnLCAnLW1hJywgJzIwMCcsICctaW1hZScsICc8aW5maWxlLm1hZT4nLCAnLW9tYWUnLCAnPG91dGZpbGUubWFlPic=

>  <r_lp_tautomer_probability>  (301) 
1

>  <r_epik_Ionization_Penalty>  (301) 
3.86317e-06

>  <r_epik_Ionization_Penalty_Charging>  (301) 
0

>  <r_epik_Ionization_Penalty_Neutral>  (301) 
3.86317e-06

>  <r_epik_State_Penalty>  (301) 
-0

>  <r_epik_Charging_Adjusted_Penalty>  (301) 
0

>  <i_epik_Tot_Q>  (301) 
0

>  <i_epik_Tot_abs_Q>  (301) 
0

>  <s_lp_Force_Field>  (301) 
OPLS3e

>  <r_lp_Energy>  (301) 
292.93

>  <b_lp_Chiralities_Consistent>  (301) 
1

>  <s_lp_Variant>  (301) 
103:0-1

>  <s_i_glide_gridfile>  (301) 
pfpi4k_grid

>  <i_i_glide_lignum>  (301) 
25

>  <i_i_glide_rotatable_bonds>  (301) 
5

>  <r_i_docking_score>  (301) 
-3.22698

>  <r_i_glide_ligand_efficiency>  (301) 
-0.0977872

>  <r_i_glide_ligand_efficiency_sa>  (301) 
-0.313656

>  <r_i_glide_ligand_efficiency_ln>  (301) 
-0.717663

>  <r_i_glide_gscore>  (301) 
-3.22698

>  <r_i_glide_lipo>  (301) 
-0.13078

>  <r_i_glide_hbond>  (301) 
-0.32

>  <r_i_glide_metal>  (301) 
-0

>  <r_i_glide_rewards>  (301) 
-0.28699

>  <r_i_glide_evdw>  (301) 
-27.1968

>  <r_i_glide_ecoul>  (301) 
-7.52912

>  <r_i_glide_erotb>  (301) 
0

>  <r_i_glide_esite>  (301) 
0

>  <r_i_glide_emodel>  (301) 
-41.6356

>  <r_i_glide_energy>  (301) 
-34.7259

>  <r_i_glide_einternal>  (301) 
1.4088

>  <r_i_glide_intrahb_reward>  (301) 
-0

>  <i_i_glide_confnum>  (301) 
2

>  <i_i_glide_posenum>  (301) 
24

>  <r_i_glide_eff_state_penalty>  (301) 
0

>  <ligand_id>  (301) 
103

>  <original_smiles>  (301) 
CC1(C)CCC(O)C23C4CCC2C25CCC(O)C(C)(C)C2C(O)C(=O)C5(C)C4C(O)C(O)C13

>  <smiles>  (301) 
[H]OC1([H])C(=O)C2(C([H])([H])[H])C3([H])C([H])(O[H])C([H])(O[H])C4([H])C(C([H])([H])[H])(C([H])([H])[H])C([H])([H])C([H])([H])C([H])(O[H])C45C3([H])C([H])([H])C([H])([H])C5([H])C23C([H])([H])C([H])([H])C([H])(O[H])C(C([H])([H])[H])(C([H])([H])[H])C13[H]

$$$$
103:0:2
     RDKit          3D

 75 80  0  0  1  0  0  0  0  0999 V2000
    0.1626   -6.2966    4.1550 C   0  0  0  0  0  0  0  0  0  0  0  0
    1.4791   -7.1127    4.2677 C   0  0  0  0  0  0  0  0  0  0  0  0
    1.4599   -7.6105    5.7337 C   0  0  0  0  0  0  0  0  0  0  0  0
    1.4480   -8.3623    3.3515 C   0  0  0  0  0  0  0  0  0  0  0  0
    2.1727   -8.1691    2.0222 C   0  0  0  0  0  0  0  0  0  0  0  0
    2.0558   -6.7427    1.4718 C   0  0  1  0  0  0  0  0  0  0  0  0
    0.6995   -6.5427    1.0976 O   0  0  0  0  0  0  0  0  0  0  0  0
    2.6948   -5.5927    2.3817 C   0  0  1  0  0  0  0  0  0  0  0  0
    4.1575   -5.3310    1.9135 C   0  0  1  0  0  0  0  0  0  0  0  0
    4.0732   -4.7632    0.4635 C   0  0  0  0  0  0  0  0  0  0  0  0
    2.6275   -4.1526    0.4420 C   0  0  0  0  0  0  0  0  0  0  0  0
    2.2219   -4.0795    1.9747 C   0  0  1  0  0  0  0  0  0  0  0  0
    2.6502   -2.8334    2.9688 C   0  0  2  0  0  0  0  0  0  0  0  0
    1.7022   -2.9536    4.2173 C   0  0  0  0  0  0  0  0  0  0  0  0
    1.0775   -1.7076    4.8497 C   0  0  0  0  0  0  0  0  0  0  0  0
    0.6464   -0.6772    3.8243 C   0  0  1  0  0  0  0  0  0  0  0  0
   -0.0495    0.3568    4.4951 O   0  0  0  0  0  0  0  0  0  0  0  0
    1.8469   -0.1558    2.9990 C   0  0  0  0  0  0  0  0  0  0  0  0
    1.2737    0.8429    1.9540 C   0  0  0  0  0  0  0  0  0  0  0  0
    2.7933    0.6701    3.9278 C   0  0  0  0  0  0  0  0  0  0  0  0
    2.4839   -1.3972    2.2367 C   0  0  1  0  0  0  0  0  0  0  0  0
    3.8308   -1.1690    1.4829 C   0  0  1  0  0  0  0  0  0  0  0  0
    4.2745    0.1430    1.2454 O   0  0  0  0  0  0  0  0  0  0  0  0
    4.8810   -1.9816    2.2302 C   0  0  0  0  0  0  0  0  0  0  0  0
    6.0899   -1.9112    1.9983 O   0  0  0  0  0  0  0  0  0  0  0  0
    4.2635   -2.9317    3.2727 C   0  0  1  0  0  0  0  0  0  0  0  0
    4.7222   -2.3091    4.6254 C   0  0  0  0  0  0  0  0  0  0  0  0
    4.7800   -4.4399    3.0693 C   0  0  2  0  0  0  0  0  0  0  0  0
    5.2835   -5.5037    4.0889 C   0  0  1  0  0  0  0  0  0  0  0  0
    5.7753   -4.9630    5.3051 O   0  0  0  0  0  0  0  0  0  0  0  0
    4.1659   -6.6174    4.3164 C   0  0  1  0  0  0  0  0  0  0  0  0
    4.3073   -7.1119    5.6316 O   0  0  0  0  0  0  0  0  0  0  0  0
    2.6852   -6.1544    3.9124 C   0  0  2  0  0  0  0  0  0  0  0  0
   -0.7223   -6.9336    4.1524 H   0  0  0  0  0  0  0  0  0  0  0  0
    0.1261   -5.6750    3.2687 H   0  0  0  0  0  0  0  0  0  0  0  0
    0.0564   -5.6087    4.9945 H   0  0  0  0  0  0  0  0  0  0  0  0
    2.1728   -8.4190    5.9093 H   0  0  0  0  0  0  0  0  0  0  0  0
    0.4788   -8.0158    5.9947 H   0  0  0  0  0  0  0  0  0  0  0  0
    1.6790   -6.7981    6.4327 H   0  0  0  0  0  0  0  0  0  0  0  0
    1.8917   -9.2250    3.8508 H   0  0  0  0  0  0  0  0  0  0  0  0
    0.4127   -8.6539    3.1629 H   0  0  0  0  0  0  0  0  0  0  0  0
    3.2231   -8.4170    2.1458 H   0  0  0  0  0  0  0  0  0  0  0  0
    1.7950   -8.8953    1.3029 H   0  0  0  0  0  0  0  0  0  0  0  0
    2.5847   -6.8047    0.5275 H   0  0  0  0  0  0  0  0  0  0  0  0
    0.3848   -7.3585    0.7311 H   0  0  0  0  0  0  0  0  0  0  0  0
    4.7241   -6.2613    1.8191 H   0  0  0  0  0  0  0  0  0  0  0  0
    4.8472   -4.0166    0.2782 H   0  0  0  0  0  0  0  0  0  0  0  0
    4.1877   -5.5391   -0.2962 H   0  0  0  0  0  0  0  0  0  0  0  0
    2.5564   -3.2363   -0.1663 H   0  0  0  0  0  0  0  0  0  0  0  0
    1.9665   -4.8059   -0.1211 H   0  0  0  0  0  0  0  0  0  0  0  0
    2.9580   -3.4382    1.6342 H   0  0  0  0  0  0  0  0  0  0  0  0
    0.8691   -3.5990    3.9429 H   0  0  0  0  0  0  0  0  0  0  0  0
    2.2049   -3.4405    5.0456 H   0  0  0  0  0  0  0  0  0  0  0  0
    0.2043   -2.0220    5.4238 H   0  0  0  0  0  0  0  0  0  0  0  0
    1.7428   -1.2818    5.5936 H   0  0  0  0  0  0  0  0  0  0  0  0
   -0.0705   -1.1491    3.1529 H   0  0  0  0  0  0  0  0  0  0  0  0
   -0.3280    0.9915    3.8499 H   0  0  0  0  0  0  0  0  0  0  0  0
    2.0420    1.2557    1.3017 H   0  0  0  0  0  0  0  0  0  0  0  0
    0.7876    1.7050    2.4215 H   0  0  0  0  0  0  0  0  0  0  0  0
    0.5267    0.3681    1.3115 H   0  0  0  0  0  0  0  0  0  0  0  0
    3.7181    0.9796    3.4496 H   0  0  0  0  0  0  0  0  0  0  0  0
    3.0625    0.1675    4.8492 H   0  0  0  0  0  0  0  0  0  0  0  0
    2.3066    1.5962    4.2472 H   0  0  0  0  0  0  0  0  0  0  0  0
    1.7460   -1.5801    1.4528 H   0  0  0  0  0  0  0  0  0  0  0  0
    3.7546   -1.6178    0.4936 H   0  0  0  0  0  0  0  0  0  0  0  0
    3.6034    0.5998    0.7619 H   0  0  0  0  0  0  0  0  0  0  0  0
    4.2313   -2.7414    5.4934 H   0  0  0  0  0  0  0  0  0  0  0  0
    4.5803   -1.2353    4.6627 H   0  0  0  0  0  0  0  0  0  0  0  0
    5.7951   -2.4593    4.7642 H   0  0  0  0  0  0  0  0  0  0  0  0
    4.0682   -4.3779    3.8567 H   0  0  0  0  0  0  0  0  0  0  0  0
    6.1523   -6.0028    3.6606 H   0  0  0  0  0  0  0  0  0  0  0  0
    6.0738   -5.6905    5.8321 H   0  0  0  0  0  0  0  0  0  0  0  0
    4.4289   -7.4662    3.6848 H   0  0  0  0  0  0  0  0  0  0  0  0
    3.8104   -7.9132    5.6925 H   0  0  0  0  0  0  0  0  0  0  0  0
    2.4775   -5.3585    4.6056 H   0  0  0  0  0  0  0  0  0  0  0  0
  1  2  1  0
  1 34  1  0
  1 35  1  0
  1 36  1  0
  2 33  1  0
  2  3  1  0
  2  4  1  0
  3 37  1  0
  3 38  1  0
  3 39  1  0
  4  5  1  0
  4 40  1  0
  4 41  1  0
  5  6  1  0
  5 42  1  0
  5 43  1  0
  6  7  1  0
  8  6  1  6
  6 44  1  6
  7 45  1  0
  8 12  1  0
  8 33  1  0
  8  9  1  0
  9 28  1  0
  9 10  1  0
  9 46  1  6
 10 11  1  0
 10 47  1  0
 10 48  1  0
 11 12  1  0
 11 49  1  0
 11 50  1  0
 12 13  1  0
 12 51  1  6
 13 21  1  0
 13 26  1  0
 13 14  1  1
 14 15  1  0
 14 52  1  0
 14 53  1  0
 15 16  1  0
 15 54  1  0
 15 55  1  0
 16 17  1  0
 16 18  1  0
 16 56  1  6
 17 57  1  0
 18 19  1  0
 18 20  1  0
 18 21  1  0
 19 58  1  0
 19 59  1  0
 19 60  1  0
 20 61  1  0
 20 62  1  0
 20 63  1  0
 21 22  1  0
 21 64  1  6
 22 23  1  0
 22 24  1  0
 22 65  1  6
 23 66  1  0
 24 25  2  0
 24 26  1  0
 26 27  1  1
 26 28  1  0
 27 67  1  0
 27 68  1  0
 27 69  1  0
 28 29  1  0
 28 70  1  6
 29 30  1  0
 29 31  1  0
 29 71  1  6
 30 72  1  0
 31 32  1  0
 31 33  1  0
 31 73  1  6
 32 74  1  0
 33 75  1  1
M  END
>  <i_m_ct_stereo_status>  (302) 
1

>  <s_m_source_file>  (302) 
/var/tmp/pbs.5076255.sched01/tmpg3p38p3m/129jed2w9rh.sdf

>  <i_m_source_file_index>  (302) 
25

>  <i_lp_mmshare_version>  (302) 
48012

>  <i_f3d_flags>  (302) 
0

>  <s_epik_input>  (302) 
W09IXVtDQEBIXTFbQ0gyXVtDSDJdQyhbQ0gzXSkoW0NIM10pW0NASF0yW0NASF0oW09IXSlbQ0BIXShbT0hdKVtDQEhdKFtDQEhdM0MxMjQpW0NAXTUoW0NIM10pW0NAXTYoW0NAQEhdNFtDSDJdW0NIMl0zKVtDQEhdKFtDQEBIXShbT0hdKUM1PU8pQyhbQ0gzXSkoW0NIM10pW0NASF0oW09IXSlbQ0gyXVtDSDJdNg==

>  <s_epik_cmdline>  (302) 
J2VwaWtfcHl0aG9uJywgJy1waHQnLCAnMi4wJywgJy1waCcsICc3LjAnLCAnLXRuJywgJzgnLCAnLW1hJywgJzIwMCcsICctaW1hZScsICc8aW5maWxlLm1hZT4nLCAnLW9tYWUnLCAnPG91dGZpbGUubWFlPic=

>  <r_lp_tautomer_probability>  (302) 
1

>  <r_epik_Ionization_Penalty>  (302) 
3.86317e-06

>  <r_epik_Ionization_Penalty_Charging>  (302) 
0

>  <r_epik_Ionization_Penalty_Neutral>  (302) 
3.86317e-06

>  <r_epik_State_Penalty>  (302) 
-0

>  <r_epik_Charging_Adjusted_Penalty>  (302) 
0

>  <i_epik_Tot_Q>  (302) 
0

>  <i_epik_Tot_abs_Q>  (302) 
0

>  <s_lp_Force_Field>  (302) 
OPLS3e

>  <r_lp_Energy>  (302) 
292.93

>  <b_lp_Chiralities_Consistent>  (302) 
1

>  <s_lp_Variant>  (302) 
103:0-1

>  <s_i_glide_gridfile>  (302) 
pfpi4k_grid

>  <i_i_glide_lignum>  (302) 
25

>  <i_i_glide_rotatable_bonds>  (302) 
5

>  <r_i_docking_score>  (302) 
-2.85567

>  <r_i_glide_ligand_efficiency>  (302) 
-0.0865356

>  <r_i_glide_ligand_efficiency_sa>  (302) 
-0.277566

>  <r_i_glide_ligand_efficiency_ln>  (302) 
-0.635087

>  <r_i_glide_gscore>  (302) 
-2.85567

>  <r_i_glide_lipo>  (302) 
-0.0975954

>  <r_i_glide_hbond>  (302) 
-0.141579

>  <r_i_glide_metal>  (302) 
-0

>  <r_i_glide_rewards>  (302) 
-0.334037

>  <r_i_glide_evdw>  (302) 
-27.746

>  <r_i_glide_ecoul>  (302) 
-5.96775

>  <r_i_glide_erotb>  (302) 
0

>  <r_i_glide_esite>  (302) 
0

>  <r_i_glide_emodel>  (302) 
-39.6418

>  <r_i_glide_energy>  (302) 
-33.7138

>  <r_i_glide_einternal>  (302) 
1.56188

>  <r_i_glide_intrahb_reward>  (302) 
-0

>  <i_i_glide_confnum>  (302) 
1

>  <i_i_glide_posenum>  (302) 
37

>  <r_i_glide_eff_state_penalty>  (302) 
0

>  <ligand_id>  (302) 
103

>  <original_smiles>  (302) 
CC1(C)CCC(O)C23C4CCC2C25CCC(O)C(C)(C)C2C(O)C(=O)C5(C)C4C(O)C(O)C13

>  <smiles>  (302) 
[H]OC1([H])C(=O)C2(C([H])([H])[H])C3([H])C([H])(O[H])C([H])(O[H])C4([H])C(C([H])([H])[H])(C([H])([H])[H])C([H])([H])C([H])([H])C([H])(O[H])C45C3([H])C([H])([H])C([H])([H])C5([H])C23C([H])([H])C([H])([H])C([H])(O[H])C(C([H])([H])[H])(C([H])([H])[H])C13[H]

$$$$
105:0:0
     RDKit          3D

 69 74  0  0  1  0  0  0  0  0999 V2000
    2.8333    3.9994    3.0226 C   0  0  0  0  0  0  0  0  0  0  0  0
    3.0541    2.7691    3.8905 C   0  0  0  0  0  0  0  0  0  0  0  0
    2.3100    2.8808    5.0817 O   0  0  0  0  0  0  0  0  0  0  0  0
    1.5513    1.8009    5.4323 C   0  0  0  0  0  0  0  0  0  0  0  0
    1.8402    0.4689    5.4714 C   0  0  0  0  0  0  0  0  0  0  0  0
    3.0189   -0.4676    5.2790 C   0  0  2  0  0  0  0  0  0  0  0  0
    4.2642    0.0870    4.5774 C   0  0  0  0  0  0  0  0  0  0  0  0
    5.1506   -1.0273    4.0088 C   0  0  0  0  0  0  0  0  0  0  0  0
    4.3993   -1.8603    2.9186 C   0  0  1  0  0  0  0  0  0  0  0  0
    2.8424   -1.8098    3.0786 C   0  0  1  0  0  0  0  0  0  0  0  0
    2.2488   -3.0499    2.4034 C   0  0  0  0  0  0  0  0  0  0  0  0
    2.6765   -3.1771    0.9377 C   0  0  2  0  0  0  0  0  0  0  0  0
    3.0378   -4.5724    0.6992 O   0  0  0  0  0  0  0  0  0  0  0  0
    4.4439   -4.1752    0.6280 C   0  0  0  0  0  0  0  0  0  0  0  0
    4.0741   -2.6855    0.4462 C   0  0  1  0  0  0  0  0  0  0  0  0
    4.1347   -2.2722   -1.0545 C   0  0  0  0  0  0  0  0  0  0  0  0
    3.1913   -2.9605   -2.0598 C   0  0  0  0  0  0  0  0  0  0  0  0
    4.9154   -1.4487   -1.5216 O   0  0  0  0  0  0  0  0  0  0  0  0
    4.8162   -1.6451    1.4017 C   0  0  0  0  0  0  0  0  0  0  0  0
    4.5001   -0.1662    1.0165 C   0  0  0  0  0  0  0  0  0  0  0  0
    6.3503   -1.8576    1.2899 C   0  0  0  0  0  0  0  0  0  0  0  0
    2.3940   -1.6979    4.5604 C   0  0  2  0  0  0  0  0  0  0  0  0
    0.8494   -1.5889    4.7254 C   0  0  0  0  0  0  0  0  0  0  0  0
    0.5817   -0.3555    5.6012 C   0  0  2  0  0  0  0  0  0  0  0  0
   -0.4068    0.6881    5.0859 C   0  0  1  0  0  0  0  0  0  0  0  0
   -1.9220    0.7119    5.1831 C   0  0  0  0  0  0  0  0  0  0  0  0
   -2.2254    2.1833    4.7865 C   0  0  0  0  0  0  0  0  0  0  0  0
   -0.8676    2.9147    4.8970 C   0  0  0  0  0  0  0  0  0  0  0  0
   -0.6310    4.0499    4.4891 O   0  0  0  0  0  0  0  0  0  0  0  0
    0.0751    2.0008    5.6841 C   0  0  2  0  0  0  0  0  0  0  0  0
   -0.1828    2.2077    7.1948 C   0  0  0  0  0  0  0  0  0  0  0  0
    3.3976    3.9141    2.0964 H   0  0  0  0  0  0  0  0  0  0  0  0
    3.1560    4.9134    3.5308 H   0  0  0  0  0  0  0  0  0  0  0  0
    1.7752    4.0845    2.7629 H   0  0  0  0  0  0  0  0  0  0  0  0
    2.7440    1.9087    3.3003 H   0  0  0  0  0  0  0  0  0  0  0  0
    4.1176    2.6745    4.1053 H   0  0  0  0  0  0  0  0  0  0  0  0
    3.2724   -0.8177    6.2697 H   0  0  0  0  0  0  0  0  0  0  0  0
    4.0113    0.6638    3.7228 H   0  0  0  0  0  0  0  0  0  0  0  0
    4.8396    0.6899    5.2905 H   0  0  0  0  0  0  0  0  0  0  0  0
    6.0331   -0.5472    3.6033 H   0  0  0  0  0  0  0  0  0  0  0  0
    5.5053   -1.6981    4.8087 H   0  0  0  0  0  0  0  0  0  0  0  0
    4.6807   -2.8774    3.1620 H   0  0  0  0  0  0  0  0  0  0  0  0
    2.4418   -0.9294    2.5728 H   0  0  0  0  0  0  0  0  0  0  0  0
    2.5614   -3.9352    2.9743 H   0  0  0  0  0  0  0  0  0  0  0  0
    1.1644   -3.0455    2.4737 H   0  0  0  0  0  0  0  0  0  0  0  0
    1.8729   -2.8697    0.2801 H   0  0  0  0  0  0  0  0  0  0  0  0
    4.9557   -4.4211    1.5551 H   0  0  0  0  0  0  0  0  0  0  0  0
    4.9408   -4.6393   -0.2211 H   0  0  0  0  0  0  0  0  0  0  0  0
    2.2376   -3.3014   -1.6516 H   0  0  0  0  0  0  0  0  0  0  0  0
    3.7093   -3.8067   -2.5178 H   0  0  0  0  0  0  0  0  0  0  0  0
    2.9631   -2.2422   -2.8448 H   0  0  0  0  0  0  0  0  0  0  0  0
    5.0241    0.1295    0.1086 H   0  0  0  0  0  0  0  0  0  0  0  0
    4.8114    0.5303    1.7920 H   0  0  0  0  0  0  0  0  0  0  0  0
    3.4371   -0.0090    0.8485 H   0  0  0  0  0  0  0  0  0  0  0  0
    6.6863   -1.9797    0.2618 H   0  0  0  0  0  0  0  0  0  0  0  0
    6.6617   -2.7505    1.8349 H   0  0  0  0  0  0  0  0  0  0  0  0
    6.9153   -1.0220    1.6966 H   0  0  0  0  0  0  0  0  0  0  0  0
    2.7360   -2.6094    5.0620 H   0  0  0  0  0  0  0  0  0  0  0  0
    0.3368   -1.4727    3.7646 H   0  0  0  0  0  0  0  0  0  0  0  0
    0.4392   -2.4855    5.1900 H   0  0  0  0  0  0  0  0  0  0  0  0
    0.3986   -0.6326    6.6439 H   0  0  0  0  0  0  0  0  0  0  0  0
   -0.2256    0.7138    4.0042 H   0  0  0  0  0  0  0  0  0  0  0  0
   -2.3954    0.0038    4.4954 H   0  0  0  0  0  0  0  0  0  0  0  0
   -2.2652    0.4853    6.1962 H   0  0  0  0  0  0  0  0  0  0  0  0
   -2.6218    2.2638    3.7714 H   0  0  0  0  0  0  0  0  0  0  0  0
   -2.9474    2.6367    5.4639 H   0  0  0  0  0  0  0  0  0  0  0  0
    0.2011    3.1775    7.5175 H   0  0  0  0  0  0  0  0  0  0  0  0
    0.3137    1.4444    7.7924 H   0  0  0  0  0  0  0  0  0  0  0  0
   -1.2425    2.1817    7.4376 H   0  0  0  0  0  0  0  0  0  0  0  0
  1  2  1  0
  1 32  1  0
  1 33  1  0
  1 34  1  0
  2  3  1  0
  2 35  1  0
  2 36  1  0
  3  4  1  0
  4 30  1  0
  4  5  2  0
  5 24  1  0
  5  6  1  0
  6 22  1  0
  6  7  1  0
  6 37  1  1
  7  8  1  0
  7 38  1  0
  7 39  1  0
  8  9  1  0
  8 40  1  0
  8 41  1  0
  9 19  1  0
  9 10  1  0
  9 42  1  1
 10 11  1  0
 10 22  1  0
 10 43  1  6
 11 12  1  0
 11 44  1  0
 11 45  1  0
 12 15  1  0
 12 13  1  0
 12 46  1  6
 13 14  1  0
 14 15  1  0
 14 47  1  0
 14 48  1  0
 15 16  1  6
 15 19  1  0
 16 17  1  0
 16 18  2  0
 17 49  1  0
 17 50  1  0
 17 51  1  0
 19 20  1  0
 19 21  1  0
 20 52  1  0
 20 53  1  0
 20 54  1  0
 21 55  1  0
 21 56  1  0
 21 57  1  0
 22 23  1  0
 22 58  1  1
 23 24  1  0
 23 59  1  0
 23 60  1  0
 24 25  1  0
 24 61  1  1
 25 30  1  0
 25 26  1  0
 25 62  1  6
 26 27  1  0
 26 63  1  0
 26 64  1  0
 27 28  1  0
 27 65  1  0
 27 66  1  0
 28 29  2  0
 28 30  1  0
 30 31  1  1
 31 67  1  0
 31 68  1  0
 31 69  1  0
M  END
>  <i_m_ct_stereo_status>  (303) 
1

>  <s_m_source_file>  (303) 
/var/tmp/pbs.5076255.sched01/tmpg3p38p3m/129jed2w9rh.sdf

>  <i_m_source_file_index>  (303) 
27

>  <i_lp_mmshare_version>  (303) 
48012

>  <i_f3d_flags>  (303) 
0

>  <s_epik_input>  (303) 
W0NIM11bQ0gyXU9DPTFbQ0BAXShbQ0gzXSkoQyg9TylbQ0gyXVtDSDJdMilbQ0BIXTJbQ0BASF0oW0NIMl1bQ0BIXTM0KUMxW0NAQEhdM1tDSDJdW0NIMl1bQ0BIXShDNShbQ0gzXSlbQ0gzXSlbQ0BIXTRbQ0gyXVtDQEhdKE9bQ0gyXTYpW0NAQF01NkMoPU8pW0NIM10=

>  <s_epik_cmdline>  (303) 
J2VwaWtfcHl0aG9uJywgJy1waHQnLCAnMi4wJywgJy1waCcsICc3LjAnLCAnLXRuJywgJzgnLCAnLW1hJywgJzIwMCcsICctaW1hZScsICc8aW5maWxlLm1hZT4nLCAnLW9tYWUnLCAnPG91dGZpbGUubWFlPic=

>  <r_lp_tautomer_probability>  (303) 
1

>  <r_epik_Ionization_Penalty>  (303) 
5.46677e-12

>  <r_epik_Ionization_Penalty_Charging>  (303) 
0

>  <r_epik_Ionization_Penalty_Neutral>  (303) 
5.46677e-12

>  <r_epik_State_Penalty>  (303) 
-0

>  <r_epik_Charging_Adjusted_Penalty>  (303) 
0

>  <i_epik_Tot_Q>  (303) 
0

>  <i_epik_Tot_abs_Q>  (303) 
0

>  <s_lp_Force_Field>  (303) 
OPLS3e

>  <r_lp_Energy>  (303) 
58.1126

>  <b_lp_Chiralities_Consistent>  (303) 
1

>  <s_lp_Variant>  (303) 
105:0-1

>  <s_i_glide_gridfile>  (303) 
pfpi4k_grid

>  <i_i_glide_lignum>  (303) 
27

>  <i_i_glide_rotatable_bonds>  (303) 
3

>  <r_i_docking_score>  (303) 
-2.47443

>  <r_i_glide_ligand_efficiency>  (303) 
-0.0798203

>  <r_i_glide_ligand_efficiency_sa>  (303) 
-0.250746

>  <r_i_glide_ligand_efficiency_ln>  (303) 
-0.55806

>  <r_i_glide_gscore>  (303) 
-2.47443

>  <r_i_glide_lipo>  (303) 
-0.43212

>  <r_i_glide_hbond>  (303) 
0

>  <r_i_glide_metal>  (303) 
-0

>  <r_i_glide_rewards>  (303) 
-0.500535

>  <r_i_glide_evdw>  (303) 
-24.2389

>  <r_i_glide_ecoul>  (303) 
-2.65351

>  <r_i_glide_erotb>  (303) 
0.109065

>  <r_i_glide_esite>  (303) 
-0.0408696

>  <r_i_glide_emodel>  (303) 
-27.2763

>  <r_i_glide_energy>  (303) 
-26.8924

>  <r_i_glide_einternal>  (303) 
5.05166

>  <r_i_glide_intrahb_reward>  (303) 
-0

>  <i_i_glide_confnum>  (303) 
3

>  <i_i_glide_posenum>  (303) 
39

>  <r_i_glide_eff_state_penalty>  (303) 
0

>  <ligand_id>  (303) 
105

>  <original_smiles>  (303) 
CCOC1=C2C3CCC4C(CC5OCC5(C(C)=O)C4(C)C)C3CC2C2CCC(=O)C12C

>  <smiles>  (303) 
[H]C([H])([H])C(=O)C12C([H])([H])OC1([H])C([H])([H])C1([H])C3([H])C([H])([H])C4([H])C(=C(OC([H])([H])C([H])([H])[H])C5(C([H])([H])[H])C(=O)C([H])([H])C([H])([H])C45[H])C3([H])C([H])([H])C([H])([H])C1([H])C2(C([H])([H])[H])C([H])([H])[H]

$$$$
105:0:1
     RDKit          3D

 69 74  0  0  1  0  0  0  0  0999 V2000
    0.0436    4.2264    8.3823 C   0  0  0  0  0  0  0  0  0  0  0  0
    0.9280    4.3059    7.0806 C   0  0  0  0  0  0  0  0  0  0  0  0
    1.1211    2.9559    6.5846 O   0  0  0  0  0  0  0  0  0  0  0  0
    0.0286    2.3735    5.9622 C   0  0  0  0  0  0  0  0  0  0  0  0
   -0.1588    1.0441    5.7848 C   0  0  0  0  0  0  0  0  0  0  0  0
    0.5882   -0.2434    6.1211 C   0  0  2  0  0  0  0  0  0  0  0  0
    2.0411   -0.1176    6.5622 C   0  0  0  0  0  0  0  0  0  0  0  0
    2.7726   -1.4627    6.3823 C   0  0  0  0  0  0  0  0  0  0  0  0
    2.7987   -1.9610    4.9059 C   0  0  1  0  0  0  0  0  0  0  0  0
    1.6383   -1.3713    4.0549 C   0  0  1  0  0  0  0  0  0  0  0  0
    1.3960   -2.2686    2.8344 C   0  0  0  0  0  0  0  0  0  0  0  0
    2.6625   -2.5302    2.0137 C   0  0  2  0  0  0  0  0  0  0  0  0
    2.7254   -3.9302    1.7016 O   0  0  0  0  0  0  0  0  0  0  0  0
    3.8059   -4.0900    2.6353 C   0  0  0  0  0  0  0  0  0  0  0  0
    4.0617   -2.5458    2.7044 C   0  0  1  0  0  0  0  0  0  0  0  0
    5.2107   -2.1567    1.7738 C   0  0  0  0  0  0  0  0  0  0  0  0
    5.1395   -0.8044    1.0179 C   0  0  0  0  0  0  0  0  0  0  0  0
    6.2119   -2.8451    1.5760 O   0  0  0  0  0  0  0  0  0  0  0  0
    4.1751   -1.9112    4.1482 C   0  0  0  0  0  0  0  0  0  0  0  0
    4.6247   -0.4137    4.1063 C   0  0  0  0  0  0  0  0  0  0  0  0
    5.2335   -2.6864    4.9781 C   0  0  0  0  0  0  0  0  0  0  0  0
    0.3474   -1.1447    4.8789 C   0  0  2  0  0  0  0  0  0  0  0  0
   -0.7974   -0.4680    4.0675 C   0  0  0  0  0  0  0  0  0  0  0  0
   -1.2763    0.7461    4.8612 C   0  0  2  0  0  0  0  0  0  0  0  0
   -1.3394    2.1012    4.1489 C   0  0  1  0  0  0  0  0  0  0  0  0
   -2.4453    2.6470    3.2563 C   0  0  0  0  0  0  0  0  0  0  0  0
   -2.0507    4.1471    3.1465 C   0  0  0  0  0  0  0  0  0  0  0  0
   -0.9788    4.3194    4.2478 C   0  0  0  0  0  0  0  0  0  0  0  0
   -0.2738    5.3095    4.3219 O   0  0  0  0  0  0  0  0  0  0  0  0
   -1.0936    3.1479    5.2403 C   0  0  2  0  0  0  0  0  0  0  0  0
   -2.3367    3.3744    6.1610 C   0  0  0  0  0  0  0  0  0  0  0  0
   -0.2160    5.2706    8.6350 H   0  0  0  0  0  0  0  0  0  0  0  0
    0.5930    3.7686    9.2143 H   0  0  0  0  0  0  0  0  0  0  0  0
   -0.8619    3.6943    8.2208 H   0  0  0  0  0  0  0  0  0  0  0  0
    0.5160    4.9714    6.4119 H   0  0  0  0  0  0  0  0  0  0  0  0
    1.9375    4.7242    7.3185 H   0  0  0  0  0  0  0  0  0  0  0  0
    0.0295   -0.7042    6.9350 H   0  0  0  0  0  0  0  0  0  0  0  0
    2.5481    0.6729    6.0062 H   0  0  0  0  0  0  0  0  0  0  0  0
    2.0854    0.1654    7.6156 H   0  0  0  0  0  0  0  0  0  0  0  0
    3.7733   -1.3784    6.7961 H   0  0  0  0  0  0  0  0  0  0  0  0
    2.2775   -2.2233    6.9935 H   0  0  0  0  0  0  0  0  0  0  0  0
    2.5695   -3.0254    5.0028 H   0  0  0  0  0  0  0  0  0  0  0  0
    1.9370   -0.3879    3.6877 H   0  0  0  0  0  0  0  0  0  0  0  0
    0.9903   -3.2245    3.1960 H   0  0  0  0  0  0  0  0  0  0  0  0
    0.6361   -1.8448    2.1823 H   0  0  0  0  0  0  0  0  0  0  0  0
    2.6848   -1.9451    1.0922 H   0  0  0  0  0  0  0  0  0  0  0  0
    3.4688   -4.5356    3.5735 H   0  0  0  0  0  0  0  0  0  0  0  0
    4.6232   -4.6748    2.2239 H   0  0  0  0  0  0  0  0  0  0  0  0
    4.5669   -0.0439    1.5374 H   0  0  0  0  0  0  0  0  0  0  0  0
    4.6846   -0.9422    0.0377 H   0  0  0  0  0  0  0  0  0  0  0  0
    6.1467   -0.4197    0.8854 H   0  0  0  0  0  0  0  0  0  0  0  0
    5.6619   -0.3113    3.7855 H   0  0  0  0  0  0  0  0  0  0  0  0
    4.5439    0.0694    5.0769 H   0  0  0  0  0  0  0  0  0  0  0  0
    3.9925    0.1691    3.4436 H   0  0  0  0  0  0  0  0  0  0  0  0
    6.1258   -2.9035    4.4016 H   0  0  0  0  0  0  0  0  0  0  0  0
    4.8491   -3.6473    5.3281 H   0  0  0  0  0  0  0  0  0  0  0  0
    5.5567   -2.1304    5.8545 H   0  0  0  0  0  0  0  0  0  0  0  0
    0.0084   -2.1274    5.2178 H   0  0  0  0  0  0  0  0  0  0  0  0
   -0.4507   -0.1473    3.0833 H   0  0  0  0  0  0  0  0  0  0  0  0
   -1.6151   -1.1617    3.9248 H   0  0  0  0  0  0  0  0  0  0  0  0
   -2.1933    0.5200    5.4262 H   0  0  0  0  0  0  0  0  0  0  0  0
   -0.4523    2.0769    3.4927 H   0  0  0  0  0  0  0  0  0  0  0  0
   -2.4608    2.1867    2.2667 H   0  0  0  0  0  0  0  0  0  0  0  0
   -3.4265    2.5377    3.7289 H   0  0  0  0  0  0  0  0  0  0  0  0
   -1.5775    4.4104    2.2024 H   0  0  0  0  0  0  0  0  0  0  0  0
   -2.8869    4.8182    3.3465 H   0  0  0  0  0  0  0  0  0  0  0  0
   -2.1779    4.1968    6.8318 H   0  0  0  0  0  0  0  0  0  0  0  0
   -2.5265    2.4868    6.7755 H   0  0  0  0  0  0  0  0  0  0  0  0
   -3.2573    3.5697    5.6003 H   0  0  0  0  0  0  0  0  0  0  0  0
  1  2  1  0
  1 32  1  0
  1 33  1  0
  1 34  1  0
  2  3  1  0
  2 35  1  0
  2 36  1  0
  3  4  1  0
  4 30  1  0
  4  5  2  0
  5 24  1  0
  5  6  1  0
  6 22  1  0
  6  7  1  0
  6 37  1  1
  7  8  1  0
  7 38  1  0
  7 39  1  0
  8  9  1  0
  8 40  1  0
  8 41  1  0
  9 19  1  0
  9 10  1  0
  9 42  1  1
 10 11  1  0
 10 22  1  0
 10 43  1  6
 11 12  1  0
 11 44  1  0
 11 45  1  0
 12 15  1  0
 12 13  1  0
 12 46  1  6
 13 14  1  0
 14 15  1  0
 14 47  1  0
 14 48  1  0
 15 16  1  6
 15 19  1  0
 16 17  1  0
 16 18  2  0
 17 49  1  0
 17 50  1  0
 17 51  1  0
 19 20  1  0
 19 21  1  0
 20 52  1  0
 20 53  1  0
 20 54  1  0
 21 55  1  0
 21 56  1  0
 21 57  1  0
 22 23  1  0
 22 58  1  1
 23 24  1  0
 23 59  1  0
 23 60  1  0
 24 25  1  0
 24 61  1  1
 25 30  1  0
 25 26  1  0
 25 62  1  6
 26 27  1  0
 26 63  1  0
 26 64  1  0
 27 28  1  0
 27 65  1  0
 27 66  1  0
 28 29  2  0
 28 30  1  0
 30 31  1  1
 31 67  1  0
 31 68  1  0
 31 69  1  0
M  END
>  <i_m_ct_stereo_status>  (304) 
1

>  <s_m_source_file>  (304) 
/var/tmp/pbs.5076255.sched01/tmpg3p38p3m/129jed2w9rh.sdf

>  <i_m_source_file_index>  (304) 
27

>  <i_lp_mmshare_version>  (304) 
48012

>  <i_f3d_flags>  (304) 
0

>  <s_epik_input>  (304) 
W0NIM11bQ0gyXU9DPTFbQ0BAXShbQ0gzXSkoQyg9TylbQ0gyXVtDSDJdMilbQ0BIXTJbQ0BASF0oW0NIMl1bQ0BIXTM0KUMxW0NAQEhdM1tDSDJdW0NIMl1bQ0BIXShDNShbQ0gzXSlbQ0gzXSlbQ0BIXTRbQ0gyXVtDQEhdKE9bQ0gyXTYpW0NAQF01NkMoPU8pW0NIM10=

>  <s_epik_cmdline>  (304) 
J2VwaWtfcHl0aG9uJywgJy1waHQnLCAnMi4wJywgJy1waCcsICc3LjAnLCAnLXRuJywgJzgnLCAnLW1hJywgJzIwMCcsICctaW1hZScsICc8aW5maWxlLm1hZT4nLCAnLW9tYWUnLCAnPG91dGZpbGUubWFlPic=

>  <r_lp_tautomer_probability>  (304) 
1

>  <r_epik_Ionization_Penalty>  (304) 
5.46677e-12

>  <r_epik_Ionization_Penalty_Charging>  (304) 
0

>  <r_epik_Ionization_Penalty_Neutral>  (304) 
5.46677e-12

>  <r_epik_State_Penalty>  (304) 
-0

>  <r_epik_Charging_Adjusted_Penalty>  (304) 
0

>  <i_epik_Tot_Q>  (304) 
0

>  <i_epik_Tot_abs_Q>  (304) 
0

>  <s_lp_Force_Field>  (304) 
OPLS3e

>  <r_lp_Energy>  (304) 
58.1126

>  <b_lp_Chiralities_Consistent>  (304) 
1

>  <s_lp_Variant>  (304) 
105:0-1

>  <s_i_glide_gridfile>  (304) 
pfpi4k_grid

>  <i_i_glide_lignum>  (304) 
27

>  <i_i_glide_rotatable_bonds>  (304) 
3

>  <r_i_docking_score>  (304) 
-1.89284

>  <r_i_glide_ligand_efficiency>  (304) 
-0.0610594

>  <r_i_glide_ligand_efficiency_sa>  (304) 
-0.191811

>  <r_i_glide_ligand_efficiency_ln>  (304) 
-0.426894

>  <r_i_glide_gscore>  (304) 
-1.89284

>  <r_i_glide_lipo>  (304) 
-0.295027

>  <r_i_glide_hbond>  (304) 
-0.0016407

>  <r_i_glide_metal>  (304) 
-0

>  <r_i_glide_rewards>  (304) 
-0.586045

>  <r_i_glide_evdw>  (304) 
-19.7662

>  <r_i_glide_ecoul>  (304) 
-0.365035

>  <r_i_glide_erotb>  (304) 
0.109065

>  <r_i_glide_esite>  (304) 
-0.0761295

>  <r_i_glide_emodel>  (304) 
-20.2127

>  <r_i_glide_energy>  (304) 
-20.1312

>  <r_i_glide_einternal>  (304) 
2.15474

>  <r_i_glide_intrahb_reward>  (304) 
-0

>  <i_i_glide_confnum>  (304) 
3

>  <i_i_glide_posenum>  (304) 
3

>  <r_i_glide_eff_state_penalty>  (304) 
0

>  <ligand_id>  (304) 
105

>  <original_smiles>  (304) 
CCOC1=C2C3CCC4C(CC5OCC5(C(C)=O)C4(C)C)C3CC2C2CCC(=O)C12C

>  <smiles>  (304) 
[H]C([H])([H])C(=O)C12C([H])([H])OC1([H])C([H])([H])C1([H])C3([H])C([H])([H])C4([H])C(=C(OC([H])([H])C([H])([H])[H])C5(C([H])([H])[H])C(=O)C([H])([H])C([H])([H])C45[H])C3([H])C([H])([H])C([H])([H])C1([H])C2(C([H])([H])[H])C([H])([H])[H]

$$$$
105:0:2
     RDKit          3D

 69 74  0  0  1  0  0  0  0  0999 V2000
   -1.7315   -0.8348    5.5185 C   0  0  0  0  0  0  0  0  0  0  0  0
   -0.3352   -1.1997    5.9676 C   0  0  0  0  0  0  0  0  0  0  0  0
   -0.2853   -1.5449    7.3396 O   0  0  0  0  0  0  0  0  0  0  0  0
    0.8244   -2.2398    7.7846 C   0  0  0  0  0  0  0  0  0  0  0  0
    2.1201   -2.2012    7.4508 C   0  0  0  0  0  0  0  0  0  0  0  0
    3.1017   -1.3981    6.5836 C   0  0  2  0  0  0  0  0  0  0  0  0
    2.5061   -0.4976    5.5082 C   0  0  0  0  0  0  0  0  0  0  0  0
    3.4646   -0.1203    4.4013 C   0  0  0  0  0  0  0  0  0  0  0  0
    3.9459   -1.3973    3.6318 C   0  0  1  0  0  0  0  0  0  0  0  0
    3.8313   -2.7057    4.4813 C   0  0  1  0  0  0  0  0  0  0  0  0
    4.8244   -3.7281    3.9284 C   0  0  0  0  0  0  0  0  0  0  0  0
    4.6623   -3.9676    2.4267 C   0  0  2  0  0  0  0  0  0  0  0  0
    5.9718   -3.9718    1.8151 O   0  0  0  0  0  0  0  0  0  0  0  0
    5.6718   -2.6991    1.1985 C   0  0  0  0  0  0  0  0  0  0  0  0
    4.1568   -2.8458    1.4708 C   0  0  1  0  0  0  0  0  0  0  0  0
    3.3740   -3.3988    0.2572 C   0  0  0  0  0  0  0  0  0  0  0  0
    3.4260   -2.6311   -1.0648 C   0  0  0  0  0  0  0  0  0  0  0  0
    2.7053   -4.4272    0.2878 O   0  0  0  0  0  0  0  0  0  0  0  0
    3.4154   -1.6188    2.1521 C   0  0  0  0  0  0  0  0  0  0  0  0
    1.8752   -1.8347    2.2214 C   0  0  0  0  0  0  0  0  0  0  0  0
    3.6910   -0.3179    1.3483 C   0  0  0  0  0  0  0  0  0  0  0  0
    4.0608   -2.4688    6.0011 C   0  0  2  0  0  0  0  0  0  0  0  0
    3.8719   -3.7479    6.8748 C   0  0  0  0  0  0  0  0  0  0  0  0
    2.8691   -3.4022    7.9809 C   0  0  2  0  0  0  0  0  0  0  0  0
    1.6697   -4.3328    8.1655 C   0  0  1  0  0  0  0  0  0  0  0  0
    1.5697   -5.6355    8.9409 C   0  0  0  0  0  0  0  0  0  0  0  0
    0.0215   -5.8304    9.0096 C   0  0  0  0  0  0  0  0  0  0  0  0
   -0.5524   -4.4592    8.6117 C   0  0  0  0  0  0  0  0  0  0  0  0
   -1.7413   -4.2322    8.3262 O   0  0  0  0  0  0  0  0  0  0  0  0
    0.5639   -3.4331    8.7108 C   0  0  2  0  0  0  0  0  0  0  0  0
    0.7114   -2.9807   10.1819 C   0  0  0  0  0  0  0  0  0  0  0  0
   -1.7074   -0.6047    4.4403 H   0  0  0  0  0  0  0  0  0  0  0  0
   -2.0222    0.0869    6.0348 H   0  0  0  0  0  0  0  0  0  0  0  0
   -2.4468   -1.6470    5.7092 H   0  0  0  0  0  0  0  0  0  0  0  0
    0.0265   -2.0202    5.3562 H   0  0  0  0  0  0  0  0  0  0  0  0
    0.1959   -0.2852    5.7624 H   0  0  0  0  0  0  0  0  0  0  0  0
    3.6912   -0.7780    7.2815 H   0  0  0  0  0  0  0  0  0  0  0  0
    1.7534   -1.0548    4.9864 H   0  0  0  0  0  0  0  0  0  0  0  0
    2.0873    0.3949    5.9550 H   0  0  0  0  0  0  0  0  0  0  0  0
    2.9319    0.5706    3.7389 H   0  0  0  0  0  0  0  0  0  0  0  0
    4.3194    0.4301    4.8304 H   0  0  0  0  0  0  0  0  0  0  0  0
    5.0128   -1.2007    3.5430 H   0  0  0  0  0  0  0  0  0  0  0  0
    2.8267   -3.1196    4.3786 H   0  0  0  0  0  0  0  0  0  0  0  0
    5.8155   -3.3479    4.1310 H   0  0  0  0  0  0  0  0  0  0  0  0
    4.7590   -4.6776    4.4554 H   0  0  0  0  0  0  0  0  0  0  0  0
    4.1727   -4.9192    2.2316 H   0  0  0  0  0  0  0  0  0  0  0  0
    6.1582   -1.8754    1.7330 H   0  0  0  0  0  0  0  0  0  0  0  0
    5.9686   -2.6834    0.1487 H   0  0  0  0  0  0  0  0  0  0  0  0
    4.3699   -2.1239   -1.2208 H   0  0  0  0  0  0  0  0  0  0  0  0
    2.6266   -1.9031   -1.1031 H   0  0  0  0  0  0  0  0  0  0  0  0
    3.2705   -3.3095   -1.8950 H   0  0  0  0  0  0  0  0  0  0  0  0
    1.4091   -1.7392    1.2474 H   0  0  0  0  0  0  0  0  0  0  0  0
    1.3720   -1.0955    2.8438 H   0  0  0  0  0  0  0  0  0  0  0  0
    1.6020   -2.8218    2.5971 H   0  0  0  0  0  0  0  0  0  0  0  0
    3.5821   -0.4518    0.2765 H   0  0  0  0  0  0  0  0  0  0  0  0
    4.7024    0.0521    1.5223 H   0  0  0  0  0  0  0  0  0  0  0  0
    3.0009    0.4875    1.6076 H   0  0  0  0  0  0  0  0  0  0  0  0
    5.0816   -2.0869    6.1264 H   0  0  0  0  0  0  0  0  0  0  0  0
    3.4980   -4.5836    6.2816 H   0  0  0  0  0  0  0  0  0  0  0  0
    4.8290   -4.0504    7.3021 H   0  0  0  0  0  0  0  0  0  0  0  0
    3.3621   -3.1792    8.9277 H   0  0  0  0  0  0  0  0  0  0  0  0
    1.3972   -4.6242    7.1456 H   0  0  0  0  0  0  0  0  0  0  0  0
    2.0531   -6.4619    8.4240 H   0  0  0  0  0  0  0  0  0  0  0  0
    2.0148   -5.5346    9.9288 H   0  0  0  0  0  0  0  0  0  0  0  0
   -0.3184   -6.5985    8.3151 H   0  0  0  0  0  0  0  0  0  0  0  0
   -0.2871   -6.1098   10.0200 H   0  0  0  0  0  0  0  0  0  0  0  0
   -0.1247   -2.3460   10.4821 H   0  0  0  0  0  0  0  0  0  0  0  0
    1.6266   -2.4140   10.3435 H   0  0  0  0  0  0  0  0  0  0  0  0
    0.7287   -3.8234   10.8692 H   0  0  0  0  0  0  0  0  0  0  0  0
  1  2  1  0
  1 32  1  0
  1 33  1  0
  1 34  1  0
  2  3  1  0
  2 35  1  0
  2 36  1  0
  3  4  1  0
  4 30  1  0
  4  5  2  0
  5 24  1  0
  5  6  1  0
  6 22  1  0
  6  7  1  0
  6 37  1  1
  7  8  1  0
  7 38  1  0
  7 39  1  0
  8  9  1  0
  8 40  1  0
  8 41  1  0
  9 19  1  0
  9 10  1  0
  9 42  1  6
 10 11  1  0
 10 22  1  0
 10 43  1  1
 11 12  1  0
 11 44  1  0
 11 45  1  0
 12 15  1  0
 12 13  1  0
 12 46  1  1
 13 14  1  0
 14 15  1  0
 14 47  1  0
 14 48  1  0
 15 16  1  6
 15 19  1  0
 16 17  1  0
 16 18  2  0
 17 49  1  0
 17 50  1  0
 17 51  1  0
 19 20  1  0
 19 21  1  0
 20 52  1  0
 20 53  1  0
 20 54  1  0
 21 55  1  0
 21 56  1  0
 21 57  1  0
 22 23  1  0
 22 58  1  6
 23 24  1  0
 23 59  1  0
 23 60  1  0
 24 25  1  0
 24 61  1  1
 25 30  1  0
 25 26  1  0
 25 62  1  6
 26 27  1  0
 26 63  1  0
 26 64  1  0
 27 28  1  0
 27 65  1  0
 27 66  1  0
 28 29  2  0
 28 30  1  0
 30 31  1  1
 31 67  1  0
 31 68  1  0
 31 69  1  0
M  END
>  <i_m_ct_stereo_status>  (305) 
1

>  <s_m_source_file>  (305) 
/var/tmp/pbs.5076255.sched01/tmpg3p38p3m/129jed2w9rh.sdf

>  <i_m_source_file_index>  (305) 
27

>  <i_lp_mmshare_version>  (305) 
48012

>  <i_f3d_flags>  (305) 
0

>  <s_epik_input>  (305) 
W0NIM11bQ0gyXU9DPTFbQ0BAXShbQ0gzXSkoQyg9TylbQ0gyXVtDSDJdMilbQ0BIXTJbQ0BASF0oW0NIMl1bQ0BIXTM0KUMxW0NAQEhdM1tDSDJdW0NIMl1bQ0BIXShDNShbQ0gzXSlbQ0gzXSlbQ0BIXTRbQ0gyXVtDQEhdKE9bQ0gyXTYpW0NAQF01NkMoPU8pW0NIM10=

>  <s_epik_cmdline>  (305) 
J2VwaWtfcHl0aG9uJywgJy1waHQnLCAnMi4wJywgJy1waCcsICc3LjAnLCAnLXRuJywgJzgnLCAnLW1hJywgJzIwMCcsICctaW1hZScsICc8aW5maWxlLm1hZT4nLCAnLW9tYWUnLCAnPG91dGZpbGUubWFlPic=

>  <r_lp_tautomer_probability>  (305) 
1

>  <r_epik_Ionization_Penalty>  (305) 
5.46677e-12

>  <r_epik_Ionization_Penalty_Charging>  (305) 
0

>  <r_epik_Ionization_Penalty_Neutral>  (305) 
5.46677e-12

>  <r_epik_State_Penalty>  (305) 
-0

>  <r_epik_Charging_Adjusted_Penalty>  (305) 
0

>  <i_epik_Tot_Q>  (305) 
0

>  <i_epik_Tot_abs_Q>  (305) 
0

>  <s_lp_Force_Field>  (305) 
OPLS3e

>  <r_lp_Energy>  (305) 
58.1126

>  <b_lp_Chiralities_Consistent>  (305) 
1

>  <s_lp_Variant>  (305) 
105:0-1

>  <s_i_glide_gridfile>  (305) 
pfpi4k_grid

>  <i_i_glide_lignum>  (305) 
27

>  <i_i_glide_rotatable_bonds>  (305) 
3

>  <r_i_docking_score>  (305) 
-1.79721

>  <r_i_glide_ligand_efficiency>  (305) 
-0.0579747

>  <r_i_glide_ligand_efficiency_sa>  (305) 
-0.182121

>  <r_i_glide_ligand_efficiency_ln>  (305) 
-0.405327

>  <r_i_glide_gscore>  (305) 
-1.79721

>  <r_i_glide_lipo>  (305) 
-0.13174

>  <r_i_glide_hbond>  (305) 
-0.0225313

>  <r_i_glide_metal>  (305) 
-0

>  <r_i_glide_rewards>  (305) 
-0.500535

>  <r_i_glide_evdw>  (305) 
-18.2304

>  <r_i_glide_ecoul>  (305) 
-2.14397

>  <r_i_glide_erotb>  (305) 
0.109065

>  <r_i_glide_esite>  (305) 
-0.0183598

>  <r_i_glide_emodel>  (305) 
-20.0148

>  <r_i_glide_energy>  (305) 
-20.3743

>  <r_i_glide_einternal>  (305) 
2.275

>  <r_i_glide_intrahb_reward>  (305) 
-0

>  <i_i_glide_confnum>  (305) 
2

>  <i_i_glide_posenum>  (305) 
34

>  <r_i_glide_eff_state_penalty>  (305) 
0

>  <ligand_id>  (305) 
105

>  <original_smiles>  (305) 
CCOC1=C2C3CCC4C(CC5OCC5(C(C)=O)C4(C)C)C3CC2C2CCC(=O)C12C

>  <smiles>  (305) 
[H]C([H])([H])C(=O)C12C([H])([H])OC1([H])C([H])([H])C1([H])C3([H])C([H])([H])C4([H])C(=C(OC([H])([H])C([H])([H])[H])C5(C([H])([H])[H])C(=O)C([H])([H])C([H])([H])C45[H])C3([H])C([H])([H])C([H])([H])C1([H])C2(C([H])([H])[H])C([H])([H])[H]

$$$$
106:0:0
     RDKit          3D

 70 72  0  0  1  0  0  0  0  0999 V2000
    5.5824   -0.7318    0.2303 C   0  0  0  0  0  0  0  0  0  0  0  0
    5.9917   -1.9781   -0.0765 C   0  0  0  0  0  0  0  0  0  0  0  0
    7.5027   -2.2440   -0.0903 C   0  0  0  0  0  0  0  0  0  0  0  0
    5.0716   -3.1888   -0.4151 C   0  0  1  0  0  0  0  0  0  0  0  0
    5.8959   -4.3463   -0.3098 O   0  0  0  0  0  0  0  0  0  0  0  0
    3.8382   -3.3669    0.5463 C   0  0  0  0  0  0  0  0  0  0  0  0
    2.8717   -2.4320    0.6769 C   0  0  0  0  0  0  0  0  0  0  0  0
    3.7622   -4.6775    1.3647 C   0  0  2  0  0  0  0  0  0  0  0  0
    3.5661   -5.9560    0.5023 C   0  0  0  0  0  0  0  0  0  0  0  0
    3.7905   -7.2275    1.3461 C   0  0  1  0  0  0  0  0  0  0  0  0
    5.2656   -7.4265    1.7542 C   0  0  0  0  0  0  0  0  0  0  0  0
    2.8279   -7.2599    2.5506 C   0  0  2  0  0  0  0  0  0  0  0  0
    1.5153   -7.3951    2.0253 O   0  0  0  0  0  0  0  0  0  0  0  0
    0.4942   -7.7042    2.9670 C   0  0  0  0  0  0  0  0  0  0  0  0
   -0.7877   -7.6384    2.1246 C   0  0  0  0  0  0  0  0  0  0  0  0
    0.7071   -9.1811    3.4105 C   0  0  0  0  0  0  0  0  0  0  0  0
    0.4357   -6.6091    4.1037 C   0  0  1  0  0  0  0  0  0  0  0  0
   -0.1783   -7.1714    5.4042 C   0  0  0  0  0  0  0  0  0  0  0  0
    1.0479   -7.6189    6.1607 C   0  0  0  0  0  0  0  0  0  0  0  0
    2.1585   -7.0474    5.6804 C   0  0  0  0  0  0  0  0  0  0  0  0
    3.5727   -7.2754    6.1781 C   0  0  0  0  0  0  0  0  0  0  0  0
    1.8237   -6.0614    4.5694 C   0  0  2  0  0  0  0  0  0  0  0  0
    1.6726   -4.6839    5.2674 C   0  0  0  0  0  0  0  0  0  0  0  0
    2.8562   -5.9737    3.3984 C   0  0  2  0  0  0  0  0  0  0  0  0
    2.6817   -4.7299    2.4781 C   0  0  0  0  0  0  0  0  0  0  0  0
    4.6176   -3.1027   -1.9027 C   0  0  0  0  0  0  0  0  0  0  0  0
    5.1475   -3.7893   -2.7790 O   0  0  0  0  0  0  0  0  0  0  0  0
    3.6444   -2.2053   -2.1398 O   0  0  0  0  0  0  0  0  0  0  0  0
    3.0642   -2.0720   -3.4266 C   0  0  0  0  0  0  0  0  0  0  0  0
    3.5227   -0.7525   -4.0548 C   0  0  0  0  0  0  0  0  0  0  0  0
    6.3146    0.0313    0.4685 H   0  0  0  0  0  0  0  0  0  0  0  0
    4.5471   -0.4289    0.2559 H   0  0  0  0  0  0  0  0  0  0  0  0
    7.8277   -2.5759   -1.0784 H   0  0  0  0  0  0  0  0  0  0  0  0
    7.7863   -3.0105    0.6337 H   0  0  0  0  0  0  0  0  0  0  0  0
    8.0781   -1.3555    0.1657 H   0  0  0  0  0  0  0  0  0  0  0  0
    5.3870   -5.1018   -0.5619 H   0  0  0  0  0  0  0  0  0  0  0  0
    2.8677   -1.5185    0.1039 H   0  0  0  0  0  0  0  0  0  0  0  0
    2.0458   -2.5422    1.3624 H   0  0  0  0  0  0  0  0  0  0  0  0
    4.7188   -4.7164    1.8816 H   0  0  0  0  0  0  0  0  0  0  0  0
    2.5492   -5.9617    0.0994 H   0  0  0  0  0  0  0  0  0  0  0  0
    4.2078   -6.0269   -0.3762 H   0  0  0  0  0  0  0  0  0  0  0  0
    3.5450   -8.0876    0.7205 H   0  0  0  0  0  0  0  0  0  0  0  0
    5.6169   -6.6679    2.4525 H   0  0  0  0  0  0  0  0  0  0  0  0
    5.9192   -7.3911    0.8802 H   0  0  0  0  0  0  0  0  0  0  0  0
    5.4113   -8.3971    2.2274 H   0  0  0  0  0  0  0  0  0  0  0  0
    3.0993   -8.1175    3.1643 H   0  0  0  0  0  0  0  0  0  0  0  0
   -1.6691   -7.8670    2.7244 H   0  0  0  0  0  0  0  0  0  0  0  0
   -0.7513   -8.3503    1.3008 H   0  0  0  0  0  0  0  0  0  0  0  0
   -0.9150   -6.6509    1.6840 H   0  0  0  0  0  0  0  0  0  0  0  0
   -0.1715   -9.5918    3.9057 H   0  0  0  0  0  0  0  0  0  0  0  0
    1.5474   -9.3138    4.0889 H   0  0  0  0  0  0  0  0  0  0  0  0
    0.8987   -9.8135    2.5440 H   0  0  0  0  0  0  0  0  0  0  0  0
   -0.1559   -5.7710    3.7367 H   0  0  0  0  0  0  0  0  0  0  0  0
   -0.6670   -6.3832    5.9750 H   0  0  0  0  0  0  0  0  0  0  0  0
   -0.8987   -7.9729    5.2510 H   0  0  0  0  0  0  0  0  0  0  0  0
    1.0012   -8.3135    6.9869 H   0  0  0  0  0  0  0  0  0  0  0  0
    4.0454   -6.3311    6.4442 H   0  0  0  0  0  0  0  0  0  0  0  0
    4.1636   -7.7549    5.4001 H   0  0  0  0  0  0  0  0  0  0  0  0
    3.5795   -7.9248    7.0520 H   0  0  0  0  0  0  0  0  0  0  0  0
    1.1415   -3.9638    4.6448 H   0  0  0  0  0  0  0  0  0  0  0  0
    2.6449   -4.2636    5.5241 H   0  0  0  0  0  0  0  0  0  0  0  0
    1.1096   -4.7596    6.1990 H   0  0  0  0  0  0  0  0  0  0  0  0
    3.8453   -5.8738    3.8465 H   0  0  0  0  0  0  0  0  0  0  0  0
    2.7424   -3.8179    3.0696 H   0  0  0  0  0  0  0  0  0  0  0  0
    1.6850   -4.7512    2.0361 H   0  0  0  0  0  0  0  0  0  0  0  0
    3.3064   -2.9088   -4.0851 H   0  0  0  0  0  0  0  0  0  0  0  0
    1.9776   -2.0810   -3.3216 H   0  0  0  0  0  0  0  0  0  0  0  0
    3.0794   -0.6191   -5.0410 H   0  0  0  0  0  0  0  0  0  0  0  0
    4.6064   -0.7274   -4.1633 H   0  0  0  0  0  0  0  0  0  0  0  0
    3.2228    0.0943   -3.4377 H   0  0  0  0  0  0  0  0  0  0  0  0
  1  2  2  0
  1 31  1  0
  1 32  1  0
  2  3  1  0
  2  4  1  0
  3 33  1  0
  3 34  1  0
  3 35  1  0
  4  5  1  6
  4  6  1  0
  4 26  1  0
  5 36  1  0
  6  7  2  0
  6  8  1  0
  7 37  1  0
  7 38  1  0
  8 25  1  0
  8  9  1  0
  8 39  1  1
  9 10  1  0
  9 40  1  0
  9 41  1  0
 10 11  1  0
 10 12  1  0
 10 42  1  6
 11 43  1  0
 11 44  1  0
 11 45  1  0
 12 24  1  0
 12 13  1  0
 12 46  1  1
 13 14  1  0
 14 15  1  0
 14 16  1  0
 14 17  1  0
 15 47  1  0
 15 48  1  0
 15 49  1  0
 16 50  1  0
 16 51  1  0
 16 52  1  0
 17 22  1  0
 17 18  1  0
 17 53  1  6
 18 19  1  0
 18 54  1  0
 18 55  1  0
 19 20  2  0
 19 56  1  0
 20 21  1  0
 20 22  1  0
 21 57  1  0
 21 58  1  0
 21 59  1  0
 22 23  1  1
 22 24  1  0
 23 60  1  0
 23 61  1  0
 23 62  1  0
 24 25  1  0
 24 63  1  1
 25 64  1  0
 25 65  1  0
 26 27  2  0
 26 28  1  0
 28 29  1  0
 29 30  1  0
 29 66  1  0
 29 67  1  0
 30 68  1  0
 30 69  1  0
 30 70  1  0
M  END
>  <i_m_ct_stereo_status>  (306) 
1

>  <s_m_source_file>  (306) 
/var/tmp/pbs.5076255.sched01/tmpg3p38p3m/129jed2w9rh.sdf

>  <i_m_source_file_index>  (306) 
28

>  <i_lp_mmshare_version>  (306) 
48012

>  <i_f3d_flags>  (306) 
0

>  <s_epik_input>  (306) 
W0NIM11bQ0gyXU9DKD1PKVtDQEBdKFtPSF0pKEMoPVtDSDJdKVtDSDNdKUMoPVtDSDJdKVtDQEhdKFtDSDJdW0NASF0xW0NIM10pW0NIMl1bQ0BASF0yW0NASF0xT0MoW0NIM10pKFtDSDNdKVtDQEhdKFtDQF0yM1tDSDNdKVtDSDJdW0NIXT1DM1tDSDNd

>  <s_epik_cmdline>  (306) 
J2VwaWtfcHl0aG9uJywgJy1waHQnLCAnMi4wJywgJy1waCcsICc3LjAnLCAnLXRuJywgJzgnLCAnLW1hJywgJzIwMCcsICctaW1hZScsICc8aW5maWxlLm1hZT4nLCAnLW9tYWUnLCAnPG91dGZpbGUubWFlPic=

>  <r_lp_tautomer_probability>  (306) 
1

>  <r_epik_Ionization_Penalty>  (306) 
1.09047e-06

>  <r_epik_Ionization_Penalty_Charging>  (306) 
0

>  <r_epik_Ionization_Penalty_Neutral>  (306) 
1.09047e-06

>  <r_epik_State_Penalty>  (306) 
-0

>  <r_epik_Charging_Adjusted_Penalty>  (306) 
0

>  <i_epik_Tot_Q>  (306) 
0

>  <i_epik_Tot_abs_Q>  (306) 
0

>  <s_epik_Chemistry_Notes>  (306) 
This compound has an ester and may undergo hydrolysis at high or low pH.

>  <s_lp_Force_Field>  (306) 
OPLS3e

>  <r_lp_Energy>  (306) 
53.4421

>  <b_lp_Chiralities_Consistent>  (306) 
1

>  <s_lp_Variant>  (306) 
106:0-1

>  <s_i_glide_gridfile>  (306) 
pfpi4k_grid

>  <i_i_glide_lignum>  (306) 
28

>  <i_i_glide_rotatable_bonds>  (306) 
7

>  <r_i_docking_score>  (306) 
-2.74705

>  <r_i_glide_ligand_efficiency>  (306) 
-0.0915684

>  <r_i_glide_ligand_efficiency_sa>  (306) 
-0.284524

>  <r_i_glide_ligand_efficiency_ln>  (306) 
-0.62416

>  <r_i_glide_gscore>  (306) 
-2.74705

>  <r_i_glide_lipo>  (306) 
-0.659092

>  <r_i_glide_hbond>  (306) 
0

>  <r_i_glide_metal>  (306) 
-0

>  <r_i_glide_rewards>  (306) 
-0.584619

>  <r_i_glide_evdw>  (306) 
-36.4613

>  <r_i_glide_ecoul>  (306) 
-1.66325

>  <r_i_glide_erotb>  (306) 
0.569213

>  <r_i_glide_esite>  (306) 
0

>  <r_i_glide_emodel>  (306) 
-42.15

>  <r_i_glide_energy>  (306) 
-38.1246

>  <r_i_glide_einternal>  (306) 
3.76414

>  <r_i_glide_intrahb_reward>  (306) 
-0

>  <i_i_glide_confnum>  (306) 
4

>  <i_i_glide_posenum>  (306) 
21

>  <r_i_glide_eff_state_penalty>  (306) 
0

>  <ligand_id>  (306) 
106

>  <original_smiles>  (306) 
C=C(C)C(O)(C(=C)C1CC(C)C2OC(C)(C)C3CC=C(C)C3(C)C2C1)C(=O)OCC

>  <smiles>  (306) 
[H]OC(C(=O)OC([H])([H])C([H])([H])[H])(C(=C([H])[H])C([H])([H])[H])C(=C([H])[H])C1([H])C([H])([H])C([H])(C([H])([H])[H])C2([H])OC(C([H])([H])[H])(C([H])([H])[H])C3([H])C([H])([H])C([H])=C(C([H])([H])[H])C3(C([H])([H])[H])C2([H])C1([H])[H]

$$$$
106:0:1
     RDKit          3D

 70 72  0  0  1  0  0  0  0  0999 V2000
    5.8491   -3.8375   -1.8732 C   0  0  0  0  0  0  0  0  0  0  0  0
    4.5536   -3.5662   -1.6619 C   0  0  0  0  0  0  0  0  0  0  0  0
    3.7454   -3.0503   -2.8712 C   0  0  0  0  0  0  0  0  0  0  0  0
    3.7288   -3.7393   -0.3388 C   0  0  1  0  0  0  0  0  0  0  0  0
    2.4683   -4.2669   -0.7396 O   0  0  0  0  0  0  0  0  0  0  0  0
    4.3683   -4.6841    0.7604 C   0  0  0  0  0  0  0  0  0  0  0  0
    5.6587   -4.6056    1.1310 C   0  0  0  0  0  0  0  0  0  0  0  0
    3.4404   -5.7677    1.4042 C   0  0  2  0  0  0  0  0  0  0  0  0
    2.2111   -5.1791    2.1394 C   0  0  0  0  0  0  0  0  0  0  0  0
    1.1929   -6.2444    2.5446 C   0  0  1  0  0  0  0  0  0  0  0  0
    0.4727   -6.8520    1.3207 C   0  0  0  0  0  0  0  0  0  0  0  0
    1.8587   -7.2835    3.4497 C   0  0  2  0  0  0  0  0  0  0  0  0
    2.1690   -6.6100    4.6664 O   0  0  0  0  0  0  0  0  0  0  0  0
    2.5768   -7.4463    5.7375 C   0  0  0  0  0  0  0  0  0  0  0  0
    2.9985   -6.4441    6.8244 C   0  0  0  0  0  0  0  0  0  0  0  0
    1.3021   -8.1868    6.2286 C   0  0  0  0  0  0  0  0  0  0  0  0
    3.8245   -8.3331    5.3346 C   0  0  1  0  0  0  0  0  0  0  0  0
    3.8941   -9.6318    6.1798 C   0  0  0  0  0  0  0  0  0  0  0  0
    3.1482  -10.6201    5.3144 C   0  0  0  0  0  0  0  0  0  0  0  0
    3.0507  -10.1822    4.0605 C   0  0  0  0  0  0  0  0  0  0  0  0
    2.3393  -10.8882    2.9147 C   0  0  0  0  0  0  0  0  0  0  0  0
    3.7983   -8.8787    3.8649 C   0  0  2  0  0  0  0  0  0  0  0  0
    5.2263   -9.2753    3.3974 C   0  0  0  0  0  0  0  0  0  0  0  0
    3.1650   -7.8618    2.8729 C   0  0  2  0  0  0  0  0  0  0  0  0
    4.1110   -6.7080    2.4378 C   0  0  0  0  0  0  0  0  0  0  0  0
    3.4889   -2.3382    0.3100 C   0  0  0  0  0  0  0  0  0  0  0  0
    4.0813   -1.3237   -0.0739 O   0  0  0  0  0  0  0  0  0  0  0  0
    2.5880   -2.3710    1.3342 O   0  0  0  0  0  0  0  0  0  0  0  0
    2.1993   -1.2056    2.0456 C   0  0  0  0  0  0  0  0  0  0  0  0
    3.2637   -0.8485    3.0899 C   0  0  0  0  0  0  0  0  0  0  0  0
    6.2580   -3.6548   -2.8923 H   0  0  0  0  0  0  0  0  0  0  0  0
    6.5150   -4.1773   -1.1147 H   0  0  0  0  0  0  0  0  0  0  0  0
    3.3374   -2.0503   -2.6807 H   0  0  0  0  0  0  0  0  0  0  0  0
    2.9369   -3.7117   -3.1454 H   0  0  0  0  0  0  0  0  0  0  0  0
    4.3913   -2.9728   -3.7456 H   0  0  0  0  0  0  0  0  0  0  0  0
    2.5996   -4.9319   -1.3576 H   0  0  0  0  0  0  0  0  0  0  0  0
    6.3126   -3.8138    0.7693 H   0  0  0  0  0  0  0  0  0  0  0  0
    6.1061   -5.3217    1.8054 H   0  0  0  0  0  0  0  0  0  0  0  0
    3.1135   -6.3786    0.5705 H   0  0  0  0  0  0  0  0  0  0  0  0
    2.5343   -4.5932    3.0055 H   0  0  0  0  0  0  0  0  0  0  0  0
    1.6350   -4.5124    1.5266 H   0  0  0  0  0  0  0  0  0  0  0  0
    0.4297   -5.7271    3.1281 H   0  0  0  0  0  0  0  0  0  0  0  0
    1.1464   -7.4295    0.6913 H   0  0  0  0  0  0  0  0  0  0  0  0
    0.0308   -6.0904    0.6810 H   0  0  0  0  0  0  0  0  0  0  0  0
   -0.3289   -7.5163    1.6374 H   0  0  0  0  0  0  0  0  0  0  0  0
    1.1304   -8.0738    3.6092 H   0  0  0  0  0  0  0  0  0  0  0  0
    3.3228   -6.9472    7.7333 H   0  0  0  0  0  0  0  0  0  0  0  0
    2.1715   -5.7843    7.0855 H   0  0  0  0  0  0  0  0  0  0  0  0
    3.8163   -5.8129    6.4777 H   0  0  0  0  0  0  0  0  0  0  0  0
    1.4308   -8.6331    7.2125 H   0  0  0  0  0  0  0  0  0  0  0  0
    0.9729   -8.9832    5.5611 H   0  0  0  0  0  0  0  0  0  0  0  0
    0.4679   -7.4902    6.3099 H   0  0  0  0  0  0  0  0  0  0  0  0
    4.7295   -7.7419    5.4703 H   0  0  0  0  0  0  0  0  0  0  0  0
    4.9228   -9.9783    6.2749 H   0  0  0  0  0  0  0  0  0  0  0  0
    3.4784   -9.5443    7.1827 H   0  0  0  0  0  0  0  0  0  0  0  0
    2.7442  -11.5472    5.6967 H   0  0  0  0  0  0  0  0  0  0  0  0
    3.0268  -11.0293    2.0813 H   0  0  0  0  0  0  0  0  0  0  0  0
    1.4917  -10.2999    2.5640 H   0  0  0  0  0  0  0  0  0  0  0  0
    1.9706  -11.8680    3.2172 H   0  0  0  0  0  0  0  0  0  0  0  0
    5.9428   -8.4661    3.5295 H   0  0  0  0  0  0  0  0  0  0  0  0
    5.2313   -9.5756    2.3461 H   0  0  0  0  0  0  0  0  0  0  0  0
    5.6151  -10.1225    3.9619 H   0  0  0  0  0  0  0  0  0  0  0  0
    2.9279   -8.3983    1.9527 H   0  0  0  0  0  0  0  0  0  0  0  0
    5.0077   -7.1390    2.0026 H   0  0  0  0  0  0  0  0  0  0  0  0
    4.4236   -6.1377    3.3196 H   0  0  0  0  0  0  0  0  0  0  0  0
    1.9890   -0.3712    1.3702 H   0  0  0  0  0  0  0  0  0  0  0  0
    1.2635   -1.4220    2.5606 H   0  0  0  0  0  0  0  0  0  0  0  0
    2.9821    0.0381    3.6580 H   0  0  0  0  0  0  0  0  0  0  0  0
    4.2173   -0.6458    2.6029 H   0  0  0  0  0  0  0  0  0  0  0  0
    3.4180   -1.6723    3.7922 H   0  0  0  0  0  0  0  0  0  0  0  0
  1  2  2  0
  1 31  1  0
  1 32  1  0
  2  3  1  0
  2  4  1  0
  3 33  1  0
  3 34  1  0
  3 35  1  0
  4  5  1  6
  4  6  1  0
  4 26  1  0
  5 36  1  0
  6  7  2  0
  6  8  1  0
  7 37  1  0
  7 38  1  0
  8 25  1  0
  8  9  1  0
  8 39  1  6
  9 10  1  0
  9 40  1  0
  9 41  1  0
 10 11  1  0
 10 12  1  0
 10 42  1  1
 11 43  1  0
 11 44  1  0
 11 45  1  0
 12 24  1  0
 12 13  1  0
 12 46  1  1
 13 14  1  0
 14 15  1  0
 14 16  1  0
 14 17  1  0
 15 47  1  0
 15 48  1  0
 15 49  1  0
 16 50  1  0
 16 51  1  0
 16 52  1  0
 17 22  1  0
 17 18  1  0
 17 53  1  6
 18 19  1  0
 18 54  1  0
 18 55  1  0
 19 20  2  0
 19 56  1  0
 20 21  1  0
 20 22  1  0
 21 57  1  0
 21 58  1  0
 21 59  1  0
 22 23  1  6
 22 24  1  0
 23 60  1  0
 23 61  1  0
 23 62  1  0
 24 25  1  0
 24 63  1  6
 25 64  1  0
 25 65  1  0
 26 27  2  0
 26 28  1  0
 28 29  1  0
 29 30  1  0
 29 66  1  0
 29 67  1  0
 30 68  1  0
 30 69  1  0
 30 70  1  0
M  END
>  <i_m_ct_stereo_status>  (307) 
1

>  <s_m_source_file>  (307) 
/var/tmp/pbs.5076255.sched01/tmpg3p38p3m/129jed2w9rh.sdf

>  <i_m_source_file_index>  (307) 
28

>  <i_lp_mmshare_version>  (307) 
48012

>  <i_f3d_flags>  (307) 
0

>  <s_epik_input>  (307) 
W0NIM11bQ0gyXU9DKD1PKVtDQEBdKFtPSF0pKEMoPVtDSDJdKVtDSDNdKUMoPVtDSDJdKVtDQEhdKFtDSDJdW0NASF0xW0NIM10pW0NIMl1bQ0BASF0yW0NASF0xT0MoW0NIM10pKFtDSDNdKVtDQEhdKFtDQF0yM1tDSDNdKVtDSDJdW0NIXT1DM1tDSDNd

>  <s_epik_cmdline>  (307) 
J2VwaWtfcHl0aG9uJywgJy1waHQnLCAnMi4wJywgJy1waCcsICc3LjAnLCAnLXRuJywgJzgnLCAnLW1hJywgJzIwMCcsICctaW1hZScsICc8aW5maWxlLm1hZT4nLCAnLW9tYWUnLCAnPG91dGZpbGUubWFlPic=

>  <r_lp_tautomer_probability>  (307) 
1

>  <r_epik_Ionization_Penalty>  (307) 
1.09047e-06

>  <r_epik_Ionization_Penalty_Charging>  (307) 
0

>  <r_epik_Ionization_Penalty_Neutral>  (307) 
1.09047e-06

>  <r_epik_State_Penalty>  (307) 
-0

>  <r_epik_Charging_Adjusted_Penalty>  (307) 
0

>  <i_epik_Tot_Q>  (307) 
0

>  <i_epik_Tot_abs_Q>  (307) 
0

>  <s_epik_Chemistry_Notes>  (307) 
This compound has an ester and may undergo hydrolysis at high or low pH.

>  <s_lp_Force_Field>  (307) 
OPLS3e

>  <r_lp_Energy>  (307) 
53.4421

>  <b_lp_Chiralities_Consistent>  (307) 
1

>  <s_lp_Variant>  (307) 
106:0-1

>  <s_i_glide_gridfile>  (307) 
pfpi4k_grid

>  <i_i_glide_lignum>  (307) 
28

>  <i_i_glide_rotatable_bonds>  (307) 
7

>  <r_i_docking_score>  (307) 
-2.14809

>  <r_i_glide_ligand_efficiency>  (307) 
-0.071603

>  <r_i_glide_ligand_efficiency_sa>  (307) 
-0.222487

>  <r_i_glide_ligand_efficiency_ln>  (307) 
-0.488069

>  <r_i_glide_gscore>  (307) 
-2.14809

>  <r_i_glide_lipo>  (307) 
-0.224978

>  <r_i_glide_hbond>  (307) 
0

>  <r_i_glide_metal>  (307) 
-0

>  <r_i_glide_rewards>  (307) 
-0.568681

>  <r_i_glide_evdw>  (307) 
-25.6895

>  <r_i_glide_ecoul>  (307) 
-4.01286

>  <r_i_glide_erotb>  (307) 
0.569213

>  <r_i_glide_esite>  (307) 
-0.0372379

>  <r_i_glide_emodel>  (307) 
-30.7278

>  <r_i_glide_energy>  (307) 
-29.7024

>  <r_i_glide_einternal>  (307) 
3.13417

>  <r_i_glide_intrahb_reward>  (307) 
-0

>  <i_i_glide_confnum>  (307) 
3

>  <i_i_glide_posenum>  (307) 
3

>  <r_i_glide_eff_state_penalty>  (307) 
0

>  <ligand_id>  (307) 
106

>  <original_smiles>  (307) 
C=C(C)C(O)(C(=C)C1CC(C)C2OC(C)(C)C3CC=C(C)C3(C)C2C1)C(=O)OCC

>  <smiles>  (307) 
[H]OC(C(=O)OC([H])([H])C([H])([H])[H])(C(=C([H])[H])C([H])([H])[H])C(=C([H])[H])C1([H])C([H])([H])C([H])(C([H])([H])[H])C2([H])OC(C([H])([H])[H])(C([H])([H])[H])C3([H])C([H])([H])C([H])=C(C([H])([H])[H])C3(C([H])([H])[H])C2([H])C1([H])[H]

$$$$
106:0:2
     RDKit          3D

 70 72  0  0  1  0  0  0  0  0999 V2000
    3.3746    0.0652    1.3025 C   0  0  0  0  0  0  0  0  0  0  0  0
    4.2319   -0.9453    1.0238 C   0  0  0  0  0  0  0  0  0  0  0  0
    5.6825   -0.5464    0.7372 C   0  0  0  0  0  0  0  0  0  0  0  0
    3.8762   -2.4612    0.9220 C   0  0  1  0  0  0  0  0  0  0  0  0
    5.1041   -3.1881    0.9427 O   0  0  0  0  0  0  0  0  0  0  0  0
    2.9603   -3.0236    2.0628 C   0  0  0  0  0  0  0  0  0  0  0  0
    2.1913   -2.3328    2.9054 C   0  0  0  0  0  0  0  0  0  0  0  0
    3.0336   -4.6019    2.3053 C   0  0  2  0  0  0  0  0  0  0  0  0
    2.5524   -5.4668    1.1264 C   0  0  0  0  0  0  0  0  0  0  0  0
    2.8622   -6.9464    1.3540 C   0  0  1  0  0  0  0  0  0  0  0  0
    4.3634   -7.2384    1.1716 C   0  0  0  0  0  0  0  0  0  0  0  0
    2.2662   -7.4674    2.6663 C   0  0  2  0  0  0  0  0  0  0  0  0
    0.8446   -7.4230    2.5142 O   0  0  0  0  0  0  0  0  0  0  0  0
    0.1067   -8.0980    3.5225 C   0  0  0  0  0  0  0  0  0  0  0  0
   -1.3496   -7.7523    3.1767 C   0  0  0  0  0  0  0  0  0  0  0  0
    0.3190   -9.6192    3.2905 C   0  0  0  0  0  0  0  0  0  0  0  0
    0.4684   -7.5190    4.9508 C   0  0  1  0  0  0  0  0  0  0  0  0
    0.2079   -8.5549    6.0678 C   0  0  0  0  0  0  0  0  0  0  0  0
    1.5542   -9.2251    6.2169 C   0  0  0  0  0  0  0  0  0  0  0  0
    2.5221   -8.4825    5.6757 C   0  0  0  0  0  0  0  0  0  0  0  0
    4.0016   -8.8370    5.6019 C   0  0  0  0  0  0  0  0  0  0  0  0
    1.9769   -7.1605    5.1741 C   0  0  2  0  0  0  0  0  0  0  0  0
    2.1460   -6.1521    6.3414 C   0  0  0  0  0  0  0  0  0  0  0  0
    2.6357   -6.6021    3.8853 C   0  0  2  0  0  0  0  0  0  0  0  0
    2.3088   -5.1129    3.5676 C   0  0  0  0  0  0  0  0  0  0  0  0
    3.2909   -2.6723   -0.5121 C   0  0  0  0  0  0  0  0  0  0  0  0
    2.2031   -3.2509   -0.6705 O   0  0  0  0  0  0  0  0  0  0  0  0
    4.0588   -2.2319   -1.5432 O   0  0  0  0  0  0  0  0  0  0  0  0
    3.6740   -2.4536   -2.8962 C   0  0  0  0  0  0  0  0  0  0  0  0
    4.6390   -3.4565   -3.5255 C   0  0  0  0  0  0  0  0  0  0  0  0
    3.7671    1.0580    1.4365 H   0  0  0  0  0  0  0  0  0  0  0  0
    2.3148   -0.0819    1.3838 H   0  0  0  0  0  0  0  0  0  0  0  0
    5.9161   -0.7528   -0.3126 H   0  0  0  0  0  0  0  0  0  0  0  0
    6.4208   -1.0467    1.3666 H   0  0  0  0  0  0  0  0  0  0  0  0
    5.8185    0.5238    0.8643 H   0  0  0  0  0  0  0  0  0  0  0  0
    5.5433   -3.0141    1.7575 H   0  0  0  0  0  0  0  0  0  0  0  0
    2.1442   -1.2507    2.9037 H   0  0  0  0  0  0  0  0  0  0  0  0
    1.5826   -2.8287    3.6328 H   0  0  0  0  0  0  0  0  0  0  0  0
    4.0887   -4.8213    2.4703 H   0  0  0  0  0  0  0  0  0  0  0  0
    1.4781   -5.3467    0.9925 H   0  0  0  0  0  0  0  0  0  0  0  0
    3.0484   -5.2451    0.1844 H   0  0  0  0  0  0  0  0  0  0  0  0
    2.3322   -7.4656    0.5649 H   0  0  0  0  0  0  0  0  0  0  0  0
    4.9665   -6.7841    1.9572 H   0  0  0  0  0  0  0  0  0  0  0  0
    4.7217   -6.8406    0.2213 H   0  0  0  0  0  0  0  0  0  0  0  0
    4.5567   -8.3100    1.1714 H   0  0  0  0  0  0  0  0  0  0  0  0
    2.6231   -8.4894    2.7919 H   0  0  0  0  0  0  0  0  0  0  0  0
   -2.0463   -8.2163    3.8728 H   0  0  0  0  0  0  0  0  0  0  0  0
   -1.6015   -8.0965    2.1739 H   0  0  0  0  0  0  0  0  0  0  0  0
   -1.5115   -6.6768    3.2049 H   0  0  0  0  0  0  0  0  0  0  0  0
   -0.4127  -10.2234    3.8223 H   0  0  0  0  0  0  0  0  0  0  0  0
    1.3012   -9.9793    3.5938 H   0  0  0  0  0  0  0  0  0  0  0  0
    0.2106   -9.8673    2.2346 H   0  0  0  0  0  0  0  0  0  0  0  0
   -0.1293   -6.6212    5.1176 H   0  0  0  0  0  0  0  0  0  0  0  0
   -0.0305   -8.0625    7.0091 H   0  0  0  0  0  0  0  0  0  0  0  0
   -0.5963   -9.2576    5.8496 H   0  0  0  0  0  0  0  0  0  0  0  0
    1.6770  -10.1869    6.6915 H   0  0  0  0  0  0  0  0  0  0  0  0
    4.6071   -8.0487    6.0468 H   0  0  0  0  0  0  0  0  0  0  0  0
    4.3084   -8.9620    4.5645 H   0  0  0  0  0  0  0  0  0  0  0  0
    4.2065   -9.7696    6.1260 H   0  0  0  0  0  0  0  0  0  0  0  0
    1.5218   -5.2692    6.2167 H   0  0  0  0  0  0  0  0  0  0  0  0
    3.1848   -5.8300    6.4382 H   0  0  0  0  0  0  0  0  0  0  0  0
    1.8667   -6.5961    7.2946 H   0  0  0  0  0  0  0  0  0  0  0  0
    3.7168   -6.6357    4.0062 H   0  0  0  0  0  0  0  0  0  0  0  0
    2.6054   -4.5000    4.4168 H   0  0  0  0  0  0  0  0  0  0  0  0
    1.2242   -4.9935    3.4594 H   0  0  0  0  0  0  0  0  0  0  0  0
    2.6569   -2.8278   -2.9814 H   0  0  0  0  0  0  0  0  0  0  0  0
    3.6882   -1.5061   -3.4330 H   0  0  0  0  0  0  0  0  0  0  0  0
    4.3736   -3.6506   -4.5576 H   0  0  0  0  0  0  0  0  0  0  0  0
    4.6168   -4.4090   -2.9914 H   0  0  0  0  0  0  0  0  0  0  0  0
    5.6604   -3.0805   -3.4930 H   0  0  0  0  0  0  0  0  0  0  0  0
  1  2  2  0
  1 31  1  0
  1 32  1  0
  2  3  1  0
  2  4  1  0
  3 33  1  0
  3 34  1  0
  3 35  1  0
  4  5  1  6
  4  6  1  0
  4 26  1  0
  5 36  1  0
  6  7  2  0
  6  8  1  0
  7 37  1  0
  7 38  1  0
  8 25  1  0
  8  9  1  0
  8 39  1  1
  9 10  1  0
  9 40  1  0
  9 41  1  0
 10 11  1  0
 10 12  1  0
 10 42  1  6
 11 43  1  0
 11 44  1  0
 11 45  1  0
 12 24  1  0
 12 13  1  0
 12 46  1  1
 13 14  1  0
 14 15  1  0
 14 16  1  0
 14 17  1  0
 15 47  1  0
 15 48  1  0
 15 49  1  0
 16 50  1  0
 16 51  1  0
 16 52  1  0
 17 22  1  0
 17 18  1  0
 17 53  1  1
 18 19  1  0
 18 54  1  0
 18 55  1  0
 19 20  2  0
 19 56  1  0
 20 21  1  0
 20 22  1  0
 21 57  1  0
 21 58  1  0
 21 59  1  0
 22 23  1  1
 22 24  1  0
 23 60  1  0
 23 61  1  0
 23 62  1  0
 24 25  1  0
 24 63  1  1
 25 64  1  0
 25 65  1  0
 26 27  2  0
 26 28  1  0
 28 29  1  0
 29 30  1  0
 29 66  1  0
 29 67  1  0
 30 68  1  0
 30 69  1  0
 30 70  1  0
M  END
>  <i_m_ct_stereo_status>  (308) 
1

>  <s_m_source_file>  (308) 
/var/tmp/pbs.5076255.sched01/tmpg3p38p3m/129jed2w9rh.sdf

>  <i_m_source_file_index>  (308) 
28

>  <i_lp_mmshare_version>  (308) 
48012

>  <i_f3d_flags>  (308) 
0

>  <s_epik_input>  (308) 
W0NIM11bQ0gyXU9DKD1PKVtDQEBdKFtPSF0pKEMoPVtDSDJdKVtDSDNdKUMoPVtDSDJdKVtDQEhdKFtDSDJdW0NASF0xW0NIM10pW0NIMl1bQ0BASF0yW0NASF0xT0MoW0NIM10pKFtDSDNdKVtDQEhdKFtDQF0yM1tDSDNdKVtDSDJdW0NIXT1DM1tDSDNd

>  <s_epik_cmdline>  (308) 
J2VwaWtfcHl0aG9uJywgJy1waHQnLCAnMi4wJywgJy1waCcsICc3LjAnLCAnLXRuJywgJzgnLCAnLW1hJywgJzIwMCcsICctaW1hZScsICc8aW5maWxlLm1hZT4nLCAnLW9tYWUnLCAnPG91dGZpbGUubWFlPic=

>  <r_lp_tautomer_probability>  (308) 
1

>  <r_epik_Ionization_Penalty>  (308) 
1.09047e-06

>  <r_epik_Ionization_Penalty_Charging>  (308) 
0

>  <r_epik_Ionization_Penalty_Neutral>  (308) 
1.09047e-06

>  <r_epik_State_Penalty>  (308) 
-0

>  <r_epik_Charging_Adjusted_Penalty>  (308) 
0

>  <i_epik_Tot_Q>  (308) 
0

>  <i_epik_Tot_abs_Q>  (308) 
0

>  <s_epik_Chemistry_Notes>  (308) 
This compound has an ester and may undergo hydrolysis at high or low pH.

>  <s_lp_Force_Field>  (308) 
OPLS3e

>  <r_lp_Energy>  (308) 
53.4421

>  <b_lp_Chiralities_Consistent>  (308) 
1

>  <s_lp_Variant>  (308) 
106:0-1

>  <s_i_glide_gridfile>  (308) 
pfpi4k_grid

>  <i_i_glide_lignum>  (308) 
28

>  <i_i_glide_rotatable_bonds>  (308) 
7

>  <r_i_docking_score>  (308) 
-2.14318

>  <r_i_glide_ligand_efficiency>  (308) 
-0.0714393

>  <r_i_glide_ligand_efficiency_sa>  (308) 
-0.221979

>  <r_i_glide_ligand_efficiency_ln>  (308) 
-0.486954

>  <r_i_glide_gscore>  (308) 
-2.14318

>  <r_i_glide_lipo>  (308) 
-0.56008

>  <r_i_glide_hbond>  (308) 
-0.0151115

>  <r_i_glide_metal>  (308) 
-0

>  <r_i_glide_rewards>  (308) 
-0.568681

>  <r_i_glide_evdw>  (308) 
-29.8319

>  <r_i_glide_ecoul>  (308) 
-0.240891

>  <r_i_glide_erotb>  (308) 
0.569213

>  <r_i_glide_esite>  (308) 
-0.0407916

>  <r_i_glide_emodel>  (308) 
-31.6106

>  <r_i_glide_energy>  (308) 
-30.0728

>  <r_i_glide_einternal>  (308) 
2.85661

>  <r_i_glide_intrahb_reward>  (308) 
-0

>  <i_i_glide_confnum>  (308) 
4

>  <i_i_glide_posenum>  (308) 
14

>  <r_i_glide_eff_state_penalty>  (308) 
0

>  <ligand_id>  (308) 
106

>  <original_smiles>  (308) 
C=C(C)C(O)(C(=C)C1CC(C)C2OC(C)(C)C3CC=C(C)C3(C)C2C1)C(=O)OCC

>  <smiles>  (308) 
[H]OC(C(=O)OC([H])([H])C([H])([H])[H])(C(=C([H])[H])C([H])([H])[H])C(=C([H])[H])C1([H])C([H])([H])C([H])(C([H])([H])[H])C2([H])OC(C([H])([H])[H])(C([H])([H])[H])C3([H])C([H])([H])C([H])=C(C([H])([H])[H])C3(C([H])([H])[H])C2([H])C1([H])[H]

$$$$
107:0:0
     RDKit          3D

 71 77  0  0  1  0  0  0  0  0999 V2000
    4.8716   -0.8081    0.5130 C   0  0  0  0  0  0  0  0  0  0  0  0
    4.8772   -2.1509    0.5268 C   0  0  0  0  0  0  0  0  0  0  0  0
    4.4251   -2.9554    1.7293 C   0  0  2  0  0  0  0  0  0  0  0  0
    5.5102   -3.8315    2.3629 C   0  0  0  0  0  0  0  0  0  0  0  0
    4.7412   -4.9028    3.1855 C   0  0  2  0  0  0  0  0  0  0  0  0
    4.9609   -4.6161    4.6977 C   0  0  0  0  0  0  0  0  0  0  0  0
    5.0939   -6.4049    2.9600 C   0  0  2  0  0  0  0  0  0  0  0  0
    5.8374   -6.7731    1.6604 C   0  0  1  0  0  0  0  0  0  0  0  0
    7.2309   -6.7251    1.8424 O   0  0  0  0  0  0  0  0  0  0  0  0
    5.4043   -8.0519    1.3570 O   0  0  0  0  0  0  0  0  0  0  0  0
    4.0159   -8.1168    1.6460 C   0  0  0  0  0  0  0  0  0  0  0  0
    3.8047   -7.2402    2.9053 C   0  0  1  0  0  0  0  0  0  0  0  0
    3.7840   -8.1993    4.1221 C   0  0  0  0  0  0  0  0  0  0  0  0
    2.5987   -6.2121    2.8936 C   0  0  1  0  0  0  0  0  0  0  0  0
    1.4389   -6.6014    1.9348 C   0  0  0  0  0  0  0  0  0  0  0  0
    1.9289   -6.3957    4.1514 O   0  0  0  0  0  0  0  0  0  0  0  0
    1.2661   -5.3656    4.8189 C   0  0  1  0  0  0  0  0  0  0  0  0
    1.8845   -5.1794    6.0565 O   0  0  0  0  0  0  0  0  0  0  0  0
    1.2956   -4.2158    6.9168 C   0  0  0  0  0  0  0  0  0  0  0  0
    1.2961   -2.8300    6.2600 C   0  0  1  0  0  0  0  0  0  0  0  0
    2.6007   -2.2935    6.2691 O   0  0  0  0  0  0  0  0  0  0  0  0
    0.7292   -2.8987    4.8360 C   0  0  0  0  0  0  0  0  0  0  0  0
    1.3231   -4.0568    4.0182 C   0  0  1  0  0  0  0  0  0  0  0  0
    2.6670   -3.8223    3.6961 O   0  0  0  0  0  0  0  0  0  0  0  0
    3.2423   -4.7609    2.7826 C   0  0  1  0  0  0  0  0  0  0  0  0
    3.2515   -3.9173    1.4518 C   0  0  2  0  0  0  0  0  0  0  0  0
    3.3731   -4.6685    0.0884 C   0  0  1  0  0  0  0  0  0  0  0  0
    2.1245   -4.6576   -0.5656 O   0  0  0  0  0  0  0  0  0  0  0  0
    4.4654   -4.2223   -0.8962 C   0  0  2  0  0  0  0  0  0  0  0  0
    5.2479   -2.9551   -0.6521 C   0  0  1  0  0  0  0  0  0  0  0  0
    4.3678   -3.0560   -1.8736 C   0  0  0  0  0  0  0  0  0  0  0  0
    5.0093   -3.2152   -3.2319 C   0  0  0  0  0  0  0  0  0  0  0  0
    3.1186   -2.2101   -1.9959 C   0  0  0  0  0  0  0  0  0  0  0  0
    5.1595   -0.2657   -0.3759 H   0  0  0  0  0  0  0  0  0  0  0  0
    4.5630   -0.2392    1.3808 H   0  0  0  0  0  0  0  0  0  0  0  0
    4.1078   -2.2361    2.4891 H   0  0  0  0  0  0  0  0  0  0  0  0
    6.1778   -4.2448    1.6101 H   0  0  0  0  0  0  0  0  0  0  0  0
    6.1492   -3.2117    2.9883 H   0  0  0  0  0  0  0  0  0  0  0  0
    4.3503   -5.2678    5.3251 H   0  0  0  0  0  0  0  0  0  0  0  0
    4.7269   -3.5843    4.9628 H   0  0  0  0  0  0  0  0  0  0  0  0
    6.0014   -4.7767    4.9820 H   0  0  0  0  0  0  0  0  0  0  0  0
    5.7209   -6.7667    3.7787 H   0  0  0  0  0  0  0  0  0  0  0  0
    5.6046   -6.1299    0.8165 H   0  0  0  0  0  0  0  0  0  0  0  0
    7.4470   -7.3044    2.5590 H   0  0  0  0  0  0  0  0  0  0  0  0
    3.4774   -7.7681    0.7745 H   0  0  0  0  0  0  0  0  0  0  0  0
    3.7203   -9.1578    1.7957 H   0  0  0  0  0  0  0  0  0  0  0  0
    2.8873   -8.8186    4.1326 H   0  0  0  0  0  0  0  0  0  0  0  0
    3.8426   -7.6660    5.0708 H   0  0  0  0  0  0  0  0  0  0  0  0
    4.6389   -8.8753    4.0865 H   0  0  0  0  0  0  0  0  0  0  0  0
    1.6936   -6.6216    0.8826 H   0  0  0  0  0  0  0  0  0  0  0  0
    0.5779   -5.9474    2.0311 H   0  0  0  0  0  0  0  0  0  0  0  0
    1.0858   -7.6062    2.1719 H   0  0  0  0  0  0  0  0  0  0  0  0
    0.2355   -5.6890    4.9706 H   0  0  0  0  0  0  0  0  0  0  0  0
    0.2757   -4.5225    7.1459 H   0  0  0  0  0  0  0  0  0  0  0  0
    1.8428   -4.1986    7.8584 H   0  0  0  0  0  0  0  0  0  0  0  0
    0.6783   -2.1531    6.8517 H   0  0  0  0  0  0  0  0  0  0  0  0
    3.1451   -2.8643    5.7459 H   0  0  0  0  0  0  0  0  0  0  0  0
   -0.3520   -3.0370    4.8940 H   0  0  0  0  0  0  0  0  0  0  0  0
    0.8877   -1.9545    4.3131 H   0  0  0  0  0  0  0  0  0  0  0  0
    0.7364   -4.1436    3.1067 H   0  0  0  0  0  0  0  0  0  0  0  0
    2.3531   -3.2991    1.3900 H   0  0  0  0  0  0  0  0  0  0  0  0
    3.5918   -5.7080    0.2812 H   0  0  0  0  0  0  0  0  0  0  0  0
    2.2595   -5.0893   -1.4104 H   0  0  0  0  0  0  0  0  0  0  0  0
    5.0308   -5.0675   -1.2817 H   0  0  0  0  0  0  0  0  0  0  0  0
    6.3245   -3.0051   -0.7939 H   0  0  0  0  0  0  0  0  0  0  0  0
    5.2448   -2.2362   -3.6396 H   0  0  0  0  0  0  0  0  0  0  0  0
    4.3318   -3.7276   -3.9144 H   0  0  0  0  0  0  0  0  0  0  0  0
    5.9295   -3.7938   -3.1572 H   0  0  0  0  0  0  0  0  0  0  0  0
    3.3644   -1.2179   -2.3797 H   0  0  0  0  0  0  0  0  0  0  0  0
    2.6508   -2.0930   -1.0169 H   0  0  0  0  0  0  0  0  0  0  0  0
    2.3985   -2.6866   -2.6643 H   0  0  0  0  0  0  0  0  0  0  0  0
  1  2  2  0
  1 34  1  0
  1 35  1  0
  2 30  1  0
  2  3  1  0
  3 26  1  0
  3  4  1  0
  3 36  1  1
  4  5  1  0
  4 37  1  0
  4 38  1  0
  5 25  1  0
  5  6  1  1
  5  7  1  0
  6 39  1  0
  6 40  1  0
  6 41  1  0
  7 12  1  0
  7  8  1  0
  7 42  1  1
  8  9  1  0
  8 10  1  0
  8 43  1  6
  9 44  1  0
 10 11  1  0
 11 12  1  0
 11 45  1  0
 11 46  1  0
 12 13  1  1
 12 14  1  0
 13 47  1  0
 13 48  1  0
 13 49  1  0
 14 25  1  0
 14 15  1  6
 14 16  1  0
 15 50  1  0
 15 51  1  0
 15 52  1  0
 16 17  1  0
 17 23  1  0
 17 18  1  0
 17 53  1  1
 18 19  1  0
 19 20  1  0
 19 54  1  0
 19 55  1  0
 20 21  1  0
 20 22  1  0
 20 56  1  1
 21 57  1  0
 22 23  1  0
 22 58  1  0
 22 59  1  0
 23 24  1  0
 23 60  1  6
 25 24  1  1
 25 26  1  0
 26 27  1  0
 26 61  1  6
 27 28  1  0
 27 29  1  0
 27 62  1  1
 28 63  1  0
 29 31  1  0
 29 30  1  0
 29 64  1  6
 30 31  1  0
 30 65  1  6
 31 32  1  0
 31 33  1  0
 32 66  1  0
 32 67  1  0
 32 68  1  0
 33 69  1  0
 33 70  1  0
 33 71  1  0
M  END
>  <i_m_ct_stereo_status>  (309) 
1

>  <s_m_source_file>  (309) 
/var/tmp/pbs.5076255.sched01/tmpg3p38p3m/129jed2w9rh.sdf

>  <i_m_source_file_index>  (309) 
29

>  <i_lp_mmshare_version>  (309) 
48012

>  <i_f3d_flags>  (309) 
0

>  <s_epik_input>  (309) 
W0NIMl09QzFbQ0BIXShDMihbQ0gzXSlbQ0gzXSlbQ0BIXTJbQ0BIXShbT0hdKVtDQEBIXTNbQ0BIXTFbQ0gyXVtDQF0oW0NAQF0zNDUpKFtDSDNdKVtDQEhdNltDQF0oW0NIM10pKFtDSDJdT1tDQEBIXTZbT0hdKVtDQEBdNChbQ0gzXSlPW0NAQEhdN1tDQEhdKE81KVtDSDJdW0NAQEhdKFtDSDJdTzcpW09IXQ==

>  <s_epik_cmdline>  (309) 
J2VwaWtfcHl0aG9uJywgJy1waHQnLCAnMi4wJywgJy1waCcsICc3LjAnLCAnLXRuJywgJzgnLCAnLW1hJywgJzIwMCcsICctaW1hZScsICc8aW5maWxlLm1hZT4nLCAnLW9tYWUnLCAnPG91dGZpbGUubWFlPic=

>  <r_lp_tautomer_probability>  (309) 
1

>  <r_epik_Ionization_Penalty>  (309) 
3.05098e-07

>  <r_epik_Ionization_Penalty_Charging>  (309) 
0

>  <r_epik_Ionization_Penalty_Neutral>  (309) 
3.05098e-07

>  <r_epik_State_Penalty>  (309) 
-0

>  <r_epik_Charging_Adjusted_Penalty>  (309) 
0

>  <i_epik_Tot_Q>  (309) 
0

>  <i_epik_Tot_abs_Q>  (309) 
0

>  <s_epik_Chemistry_Notes>  (309) 
This compound contains an acetal/aminal-like group ( X-CH(R)-Y where X, Y are N, S, or O) that may be acid/base labile, releasing an aldehyde.

>  <s_lp_Force_Field>  (309) 
OPLS3e

>  <r_lp_Energy>  (309) 
78.1924

>  <b_lp_Chiralities_Consistent>  (309) 
1

>  <s_lp_Variant>  (309) 
107:0-1

>  <s_i_glide_gridfile>  (309) 
pfpi4k_grid

>  <i_i_glide_lignum>  (309) 
29

>  <i_i_glide_rotatable_bonds>  (309) 
3

>  <r_i_docking_score>  (309) 
-3.75506

>  <r_i_glide_ligand_efficiency>  (309) 
-0.11379

>  <r_i_glide_ligand_efficiency_sa>  (309) 
-0.364984

>  <r_i_glide_ligand_efficiency_ln>  (309) 
-0.835106

>  <r_i_glide_gscore>  (309) 
-3.75506

>  <r_i_glide_lipo>  (309) 
-0.428078

>  <r_i_glide_hbond>  (309) 
-0.32

>  <r_i_glide_metal>  (309) 
-0

>  <r_i_glide_rewards>  (309) 
-0.858731

>  <r_i_glide_evdw>  (309) 
-26.9309

>  <r_i_glide_ecoul>  (309) 
-5.32898

>  <r_i_glide_erotb>  (309) 
0

>  <r_i_glide_esite>  (309) 
-0.00235757

>  <r_i_glide_emodel>  (309) 
-44.6726

>  <r_i_glide_energy>  (309) 
-32.2599

>  <r_i_glide_einternal>  (309) 
0.387336

>  <r_i_glide_intrahb_reward>  (309) 
-0.5

>  <i_i_glide_confnum>  (309) 
1

>  <i_i_glide_posenum>  (309) 
20

>  <r_i_glide_eff_state_penalty>  (309) 
0

>  <ligand_id>  (309) 
107

>  <original_smiles>  (309) 
C=C1C2CC3(C)C4C(O)OCC4(C)C4(C)OC5OCC(O)CC5OC34C2C(O)C2C1C2(C)C

>  <smiles>  (309) 
[H]OC1([H])OC([H])([H])C2(C([H])([H])[H])C1([H])C1(C([H])([H])[H])C([H])([H])C3([H])C(=C([H])[H])C4([H])C([H])(C([H])(O[H])C3([H])C13OC1([H])C([H])(OC([H])([H])C([H])(O[H])C1([H])[H])OC32C([H])([H])[H])C4(C([H])([H])[H])C([H])([H])[H]

$$$$
107:0:1
     RDKit          3D

 71 77  0  0  1  0  0  0  0  0999 V2000
    5.0397   -1.5657    1.6745 C   0  0  0  0  0  0  0  0  0  0  0  0
    5.0141   -2.8879    1.4375 C   0  0  0  0  0  0  0  0  0  0  0  0
    4.4547   -3.8866    2.4364 C   0  0  2  0  0  0  0  0  0  0  0  0
    5.4731   -4.9028    2.9739 C   0  0  0  0  0  0  0  0  0  0  0  0
    4.6162   -6.0808    3.5187 C   0  0  2  0  0  0  0  0  0  0  0  0
    4.7283   -6.0886    5.0698 C   0  0  0  0  0  0  0  0  0  0  0  0
    4.9498   -7.5266    3.0388 C   0  0  2  0  0  0  0  0  0  0  0  0
    5.7794   -7.6713    1.7464 C   0  0  1  0  0  0  0  0  0  0  0  0
    7.1561   -7.7074    2.0286 O   0  0  0  0  0  0  0  0  0  0  0  0
    5.3451   -8.8564    1.1831 O   0  0  0  0  0  0  0  0  0  0  0  0
    3.9375   -8.9249    1.3558 C   0  0  0  0  0  0  0  0  0  0  0  0
    3.6501   -8.2901    2.7400 C   0  0  1  0  0  0  0  0  0  0  0  0
    3.5218   -9.4568    3.7498 C   0  0  0  0  0  0  0  0  0  0  0  0
    2.4711   -7.2346    2.8418 C   0  0  1  0  0  0  0  0  0  0  0  0
    1.3721   -7.3969    1.7568 C   0  0  0  0  0  0  0  0  0  0  0  0
    1.7150   -7.6258    3.9965 O   0  0  0  0  0  0  0  0  0  0  0  0
    1.0215   -6.7180    4.7958 C   0  0  1  0  0  0  0  0  0  0  0  0
    1.5521   -6.7775    6.0856 O   0  0  0  0  0  0  0  0  0  0  0  0
    0.9219   -5.9750    7.0700 C   0  0  0  0  0  0  0  0  0  0  0  0
    1.0057   -4.4928    6.6841 C   0  0  1  0  0  0  0  0  0  0  0  0
    2.3183   -4.0168    6.8808 O   0  0  0  0  0  0  0  0  0  0  0  0
    0.5427   -4.2746    5.2388 C   0  0  0  0  0  0  0  0  0  0  0  0
    1.1629   -5.2836    4.2579 C   0  0  1  0  0  0  0  0  0  0  0  0
    2.5317   -5.0375    4.0763 O   0  0  0  0  0  0  0  0  0  0  0  0
    3.1541   -5.8120    3.0475 C   0  0  1  0  0  0  0  0  0  0  0  0
    3.2838   -4.7397    1.8983 C   0  0  2  0  0  0  0  0  0  0  0  0
    3.4819   -5.2304    0.4283 C   0  0  1  0  0  0  0  0  0  0  0  0
    2.2868   -5.0612   -0.3072 O   0  0  0  0  0  0  0  0  0  0  0  0
    4.6476   -4.6445   -0.3799 C   0  0  2  0  0  0  0  0  0  0  0  0
    5.4393   -3.4788    0.1573 C   0  0  1  0  0  0  0  0  0  0  0  0
    4.6518   -3.3088   -1.1206 C   0  0  0  0  0  0  0  0  0  0  0  0
    5.3944   -3.2296   -2.4415 C   0  0  0  0  0  0  0  0  0  0  0  0
    3.4329   -2.4094   -1.1595 C   0  0  0  0  0  0  0  0  0  0  0  0
    5.4034   -0.8681    0.9326 H   0  0  0  0  0  0  0  0  0  0  0  0
    4.6839   -1.1611    2.6122 H   0  0  0  0  0  0  0  0  0  0  0  0
    4.0978   -3.3096    3.2918 H   0  0  0  0  0  0  0  0  0  0  0  0
    6.1837   -5.1919    2.2034 H   0  0  0  0  0  0  0  0  0  0  0  0
    6.0832   -4.4600    3.7627 H   0  0  0  0  0  0  0  0  0  0  0  0
    4.0593   -6.8228    5.5205 H   0  0  0  0  0  0  0  0  0  0  0  0
    4.4986   -5.1159    5.5043 H   0  0  0  0  0  0  0  0  0  0  0  0
    5.7405   -6.3337    5.3915 H   0  0  0  0  0  0  0  0  0  0  0  0
    5.5086   -8.0559    3.8173 H   0  0  0  0  0  0  0  0  0  0  0  0
    5.6243   -6.8769    1.0231 H   0  0  0  0  0  0  0  0  0  0  0  0
    7.2985   -8.3954    2.6628 H   0  0  0  0  0  0  0  0  0  0  0  0
    3.4753   -8.4073    0.5250 H   0  0  0  0  0  0  0  0  0  0  0  0
    3.6040   -9.9597    1.2917 H   0  0  0  0  0  0  0  0  0  0  0  0
    2.6126  -10.0355    3.5825 H   0  0  0  0  0  0  0  0  0  0  0  0
    3.5227   -9.1158    4.7852 H   0  0  0  0  0  0  0  0  0  0  0  0
    4.3612  -10.1470    3.6452 H   0  0  0  0  0  0  0  0  0  0  0  0
    1.7042   -7.2191    0.7460 H   0  0  0  0  0  0  0  0  0  0  0  0
    0.5178   -6.7457    1.9117 H   0  0  0  0  0  0  0  0  0  0  0  0
    0.9854   -8.4150    1.7706 H   0  0  0  0  0  0  0  0  0  0  0  0
   -0.0243   -7.0296    4.8148 H   0  0  0  0  0  0  0  0  0  0  0  0
   -0.1188   -6.2818    7.1656 H   0  0  0  0  0  0  0  0  0  0  0  0
    1.3993   -6.1545    8.0328 H   0  0  0  0  0  0  0  0  0  0  0  0
    0.3621   -3.9152    7.3505 H   0  0  0  0  0  0  0  0  0  0  0  0
    2.8858   -4.5122    6.3107 H   0  0  0  0  0  0  0  0  0  0  0  0
   -0.5413   -4.3853    5.2098 H   0  0  0  0  0  0  0  0  0  0  0  0
    0.7573   -3.2581    4.9147 H   0  0  0  0  0  0  0  0  0  0  0  0
    0.6410   -5.1764    3.3081 H   0  0  0  0  0  0  0  0  0  0  0  0
    2.4073   -4.0918    1.8956 H   0  0  0  0  0  0  0  0  0  0  0  0
    3.6694   -6.2944    0.4459 H   0  0  0  0  0  0  0  0  0  0  0  0
    2.4716   -5.3188   -1.2164 H   0  0  0  0  0  0  0  0  0  0  0  0
    5.2280   -5.4220   -0.8704 H   0  0  0  0  0  0  0  0  0  0  0  0
    6.5224   -3.5369    0.0761 H   0  0  0  0  0  0  0  0  0  0  0  0
    5.6941   -2.2042   -2.6541 H   0  0  0  0  0  0  0  0  0  0  0  0
    4.7625   -3.5858   -3.2531 H   0  0  0  0  0  0  0  0  0  0  0  0
    6.2917   -3.8496   -2.4170 H   0  0  0  0  0  0  0  0  0  0  0  0
    3.7268   -1.3720   -1.3380 H   0  0  0  0  0  0  0  0  0  0  0  0
    2.8928   -2.4506   -0.2105 H   0  0  0  0  0  0  0  0  0  0  0  0
    2.7529   -2.7255   -1.9511 H   0  0  0  0  0  0  0  0  0  0  0  0
  1  2  2  0
  1 34  1  0
  1 35  1  0
  2 30  1  0
  2  3  1  0
  3 26  1  0
  3  4  1  0
  3 36  1  1
  4  5  1  0
  4 37  1  0
  4 38  1  0
  5 25  1  0
  5  6  1  1
  5  7  1  0
  6 39  1  0
  6 40  1  0
  6 41  1  0
  7 12  1  0
  7  8  1  0
  7 42  1  1
  8  9  1  0
  8 10  1  0
  8 43  1  6
  9 44  1  0
 10 11  1  0
 11 12  1  0
 11 45  1  0
 11 46  1  0
 12 13  1  1
 12 14  1  0
 13 47  1  0
 13 48  1  0
 13 49  1  0
 14 25  1  0
 14 15  1  6
 14 16  1  0
 15 50  1  0
 15 51  1  0
 15 52  1  0
 16 17  1  0
 17 23  1  0
 17 18  1  0
 17 53  1  1
 18 19  1  0
 19 20  1  0
 19 54  1  0
 19 55  1  0
 20 21  1  0
 20 22  1  0
 20 56  1  1
 21 57  1  0
 22 23  1  0
 22 58  1  0
 22 59  1  0
 23 24  1  0
 23 60  1  6
 25 24  1  1
 25 26  1  0
 26 27  1  0
 26 61  1  6
 27 28  1  0
 27 29  1  0
 27 62  1  1
 28 63  1  0
 29 31  1  0
 29 30  1  0
 29 64  1  6
 30 31  1  0
 30 65  1  6
 31 32  1  0
 31 33  1  0
 32 66  1  0
 32 67  1  0
 32 68  1  0
 33 69  1  0
 33 70  1  0
 33 71  1  0
M  END
>  <i_m_ct_stereo_status>  (310) 
1

>  <s_m_source_file>  (310) 
/var/tmp/pbs.5076255.sched01/tmpg3p38p3m/129jed2w9rh.sdf

>  <i_m_source_file_index>  (310) 
29

>  <i_lp_mmshare_version>  (310) 
48012

>  <i_f3d_flags>  (310) 
0

>  <s_epik_input>  (310) 
W0NIMl09QzFbQ0BIXShDMihbQ0gzXSlbQ0gzXSlbQ0BIXTJbQ0BIXShbT0hdKVtDQEBIXTNbQ0BIXTFbQ0gyXVtDQF0oW0NAQF0zNDUpKFtDSDNdKVtDQEhdNltDQF0oW0NIM10pKFtDSDJdT1tDQEBIXTZbT0hdKVtDQEBdNChbQ0gzXSlPW0NAQEhdN1tDQEhdKE81KVtDSDJdW0NAQEhdKFtDSDJdTzcpW09IXQ==

>  <s_epik_cmdline>  (310) 
J2VwaWtfcHl0aG9uJywgJy1waHQnLCAnMi4wJywgJy1waCcsICc3LjAnLCAnLXRuJywgJzgnLCAnLW1hJywgJzIwMCcsICctaW1hZScsICc8aW5maWxlLm1hZT4nLCAnLW9tYWUnLCAnPG91dGZpbGUubWFlPic=

>  <r_lp_tautomer_probability>  (310) 
1

>  <r_epik_Ionization_Penalty>  (310) 
3.05098e-07

>  <r_epik_Ionization_Penalty_Charging>  (310) 
0

>  <r_epik_Ionization_Penalty_Neutral>  (310) 
3.05098e-07

>  <r_epik_State_Penalty>  (310) 
-0

>  <r_epik_Charging_Adjusted_Penalty>  (310) 
0

>  <i_epik_Tot_Q>  (310) 
0

>  <i_epik_Tot_abs_Q>  (310) 
0

>  <s_epik_Chemistry_Notes>  (310) 
This compound contains an acetal/aminal-like group ( X-CH(R)-Y where X, Y are N, S, or O) that may be acid/base labile, releasing an aldehyde.

>  <s_lp_Force_Field>  (310) 
OPLS3e

>  <r_lp_Energy>  (310) 
78.1924

>  <b_lp_Chiralities_Consistent>  (310) 
1

>  <s_lp_Variant>  (310) 
107:0-1

>  <s_i_glide_gridfile>  (310) 
pfpi4k_grid

>  <i_i_glide_lignum>  (310) 
29

>  <i_i_glide_rotatable_bonds>  (310) 
3

>  <r_i_docking_score>  (310) 
-3.72371

>  <r_i_glide_ligand_efficiency>  (310) 
-0.11284

>  <r_i_glide_ligand_efficiency_sa>  (310) 
-0.361937

>  <r_i_glide_ligand_efficiency_ln>  (310) 
-0.828134

>  <r_i_glide_gscore>  (310) 
-3.72371

>  <r_i_glide_lipo>  (310) 
-0.425761

>  <r_i_glide_hbond>  (310) 
-0.32

>  <r_i_glide_metal>  (310) 
-0

>  <r_i_glide_rewards>  (310) 
-0.85642

>  <r_i_glide_evdw>  (310) 
-27.816

>  <r_i_glide_ecoul>  (310) 
-4.82232

>  <r_i_glide_erotb>  (310) 
0

>  <r_i_glide_esite>  (310) 
-0.00738314

>  <r_i_glide_emodel>  (310) 
-44.9843

>  <r_i_glide_energy>  (310) 
-32.6383

>  <r_i_glide_einternal>  (310) 
0.403378

>  <r_i_glide_intrahb_reward>  (310) 
-0.5

>  <i_i_glide_confnum>  (310) 
2

>  <i_i_glide_posenum>  (310) 
8

>  <r_i_glide_eff_state_penalty>  (310) 
0

>  <ligand_id>  (310) 
107

>  <original_smiles>  (310) 
C=C1C2CC3(C)C4C(O)OCC4(C)C4(C)OC5OCC(O)CC5OC34C2C(O)C2C1C2(C)C

>  <smiles>  (310) 
[H]OC1([H])OC([H])([H])C2(C([H])([H])[H])C1([H])C1(C([H])([H])[H])C([H])([H])C3([H])C(=C([H])[H])C4([H])C([H])(C([H])(O[H])C3([H])C13OC1([H])C([H])(OC([H])([H])C([H])(O[H])C1([H])[H])OC32C([H])([H])[H])C4(C([H])([H])[H])C([H])([H])[H]

$$$$
107:0:2
     RDKit          3D

 71 77  0  0  1  0  0  0  0  0999 V2000
    4.5121   -1.7948    2.4171 C   0  0  0  0  0  0  0  0  0  0  0  0
    4.6946   -3.0813    2.0794 C   0  0  0  0  0  0  0  0  0  0  0  0
    4.2769   -4.2297    2.9794 C   0  0  2  0  0  0  0  0  0  0  0  0
    5.4281   -5.1144    3.4773 C   0  0  0  0  0  0  0  0  0  0  0  0
    4.7528   -6.4489    3.9006 C   0  0  2  0  0  0  0  0  0  0  0  0
    4.8290   -6.5667    5.4478 C   0  0  0  0  0  0  0  0  0  0  0  0
    5.3229   -7.7807    3.3208 C   0  0  2  0  0  0  0  0  0  0  0  0
    6.1926   -7.6900    2.0488 C   0  0  1  0  0  0  0  0  0  0  0  0
    7.5519   -7.5294    2.3743 O   0  0  0  0  0  0  0  0  0  0  0  0
    5.9601   -8.8791    1.3838 O   0  0  0  0  0  0  0  0  0  0  0  0
    4.5740   -9.1735    1.5031 C   0  0  0  0  0  0  0  0  0  0  0  0
    4.1606   -8.7088    2.9206 C   0  0  1  0  0  0  0  0  0  0  0  0
    4.1883   -9.9615    3.8349 C   0  0  0  0  0  0  0  0  0  0  0  0
    2.8289   -7.8594    3.0614 C   0  0  1  0  0  0  0  0  0  0  0  0
    1.7936   -8.0998    1.9302 C   0  0  0  0  0  0  0  0  0  0  0  0
    2.1170   -8.4547    4.1608 O   0  0  0  0  0  0  0  0  0  0  0  0
    1.2702   -7.7281    5.0008 C   0  0  1  0  0  0  0  0  0  0  0  0
    1.7792   -7.8089    6.2998 O   0  0  0  0  0  0  0  0  0  0  0  0
    1.0083   -7.1950    7.3209 C   0  0  0  0  0  0  0  0  0  0  0  0
    0.8623   -5.6920    7.0495 C   0  0  1  0  0  0  0  0  0  0  0  0
    2.0801   -5.0354    7.3260 O   0  0  0  0  0  0  0  0  0  0  0  0
    0.4037   -5.4348    5.6085 C   0  0  0  0  0  0  0  0  0  0  0  0
    1.1972   -6.2515    4.5770 C   0  0  1  0  0  0  0  0  0  0  0  0
    2.5158   -5.7851    4.4598 O   0  0  0  0  0  0  0  0  0  0  0  0
    3.2787   -6.3708    3.3972 C   0  0  1  0  0  0  0  0  0  0  0  0
    3.2673   -5.2063    2.3353 C   0  0  2  0  0  0  0  0  0  0  0  0
    3.5692   -5.5429    0.8390 C   0  0  1  0  0  0  0  0  0  0  0  0
    2.3779   -5.4967    0.0819 O   0  0  0  0  0  0  0  0  0  0  0  0
    4.6510   -4.7258    0.1159 C   0  0  2  0  0  0  0  0  0  0  0  0
    5.2397   -3.4963    0.7734 C   0  0  1  0  0  0  0  0  0  0  0  0
    4.4653   -3.3502   -0.5128 C   0  0  0  0  0  0  0  0  0  0  0  0
    5.2153   -3.0458   -1.7978 C   0  0  0  0  0  0  0  0  0  0  0  0
    3.1208   -2.6532   -0.5227 C   0  0  0  0  0  0  0  0  0  0  0  0
    4.7808   -0.9917    1.7427 H   0  0  0  0  0  0  0  0  0  0  0  0
    4.0775   -1.5250    3.3692 H   0  0  0  0  0  0  0  0  0  0  0  0
    3.8140   -3.7836    3.8626 H   0  0  0  0  0  0  0  0  0  0  0  0
    6.1923   -5.2283    2.7104 H   0  0  0  0  0  0  0  0  0  0  0  0
    5.9475   -4.6433    4.3144 H   0  0  0  0  0  0  0  0  0  0  0  0
    4.2725   -7.4279    5.8173 H   0  0  0  0  0  0  0  0  0  0  0  0
    4.4421   -5.6787    5.9469 H   0  0  0  0  0  0  0  0  0  0  0  0
    5.8598   -6.6800    5.7843 H   0  0  0  0  0  0  0  0  0  0  0  0
    5.9406   -8.2835    4.0710 H   0  0  0  0  0  0  0  0  0  0  0  0
    5.9207   -6.8760    1.3865 H   0  0  0  0  0  0  0  0  0  0  0  0
    8.0583   -7.5537    1.5737 H   0  0  0  0  0  0  0  0  0  0  0  0
    4.0466   -8.6783    0.6969 H   0  0  0  0  0  0  0  0  0  0  0  0
    4.4140  -10.2423    1.3590 H   0  0  0  0  0  0  0  0  0  0  0  0
    3.3841  -10.6552    3.5926 H   0  0  0  0  0  0  0  0  0  0  0  0
    4.1122   -9.7083    4.8922 H   0  0  0  0  0  0  0  0  0  0  0  0
    5.1260  -10.5029    3.7087 H   0  0  0  0  0  0  0  0  0  0  0  0
    2.1152   -7.8007    0.9431 H   0  0  0  0  0  0  0  0  0  0  0  0
    0.8450   -7.6009    2.1031 H   0  0  0  0  0  0  0  0  0  0  0  0
    1.5647   -9.1636    1.8586 H   0  0  0  0  0  0  0  0  0  0  0  0
    0.2866   -8.2008    4.9613 H   0  0  0  0  0  0  0  0  0  0  0  0
    0.0271   -7.6686    7.3584 H   0  0  0  0  0  0  0  0  0  0  0  0
    1.4872   -7.3755    8.2836 H   0  0  0  0  0  0  0  0  0  0  0  0
    0.1243   -5.2757    7.7365 H   0  0  0  0  0  0  0  0  0  0  0  0
    2.7352   -5.4063    6.7532 H   0  0  0  0  0  0  0  0  0  0  0  0
   -0.6491   -5.7050    5.5288 H   0  0  0  0  0  0  0  0  0  0  0  0
    0.4684   -4.3739    5.3720 H   0  0  0  0  0  0  0  0  0  0  0  0
    0.6877   -6.1544    3.6216 H   0  0  0  0  0  0  0  0  0  0  0  0
    2.2994   -4.7021    2.3529 H   0  0  0  0  0  0  0  0  0  0  0  0
    3.9123   -6.5627    0.7781 H   0  0  0  0  0  0  0  0  0  0  0  0
    2.6086   -5.6191   -0.8398 H   0  0  0  0  0  0  0  0  0  0  0  0
    5.3587   -5.3601   -0.4110 H   0  0  0  0  0  0  0  0  0  0  0  0
    6.3190   -3.3779    0.7272 H   0  0  0  0  0  0  0  0  0  0  0  0
    5.3521   -1.9717   -1.9191 H   0  0  0  0  0  0  0  0  0  0  0  0
    4.6616   -3.4265   -2.6556 H   0  0  0  0  0  0  0  0  0  0  0  0
    6.1964   -3.5203   -1.7901 H   0  0  0  0  0  0  0  0  0  0  0  0
    3.2546   -1.5735   -0.6131 H   0  0  0  0  0  0  0  0  0  0  0  0
    2.5764   -2.8494    0.4020 H   0  0  0  0  0  0  0  0  0  0  0  0
    2.5170   -3.0012   -1.3626 H   0  0  0  0  0  0  0  0  0  0  0  0
  1  2  2  0
  1 34  1  0
  1 35  1  0
  2 30  1  0
  2  3  1  0
  3 26  1  0
  3  4  1  0
  3 36  1  1
  4  5  1  0
  4 37  1  0
  4 38  1  0
  5 25  1  0
  5  6  1  1
  5  7  1  0
  6 39  1  0
  6 40  1  0
  6 41  1  0
  7 12  1  0
  7  8  1  0
  7 42  1  1
  8  9  1  0
  8 10  1  0
  8 43  1  6
  9 44  1  0
 10 11  1  0
 11 12  1  0
 11 45  1  0
 11 46  1  0
 12 13  1  1
 12 14  1  0
 13 47  1  0
 13 48  1  0
 13 49  1  0
 14 25  1  0
 14 15  1  6
 14 16  1  0
 15 50  1  0
 15 51  1  0
 15 52  1  0
 16 17  1  0
 17 23  1  0
 17 18  1  0
 17 53  1  1
 18 19  1  0
 19 20  1  0
 19 54  1  0
 19 55  1  0
 20 21  1  0
 20 22  1  0
 20 56  1  1
 21 57  1  0
 22 23  1  0
 22 58  1  0
 22 59  1  0
 23 24  1  0
 23 60  1  6
 25 24  1  1
 25 26  1  0
 26 27  1  0
 26 61  1  6
 27 28  1  0
 27 29  1  0
 27 62  1  1
 28 63  1  0
 29 31  1  0
 29 30  1  0
 29 64  1  6
 30 31  1  0
 30 65  1  6
 31 32  1  0
 31 33  1  0
 32 66  1  0
 32 67  1  0
 32 68  1  0
 33 69  1  0
 33 70  1  0
 33 71  1  0
M  END
>  <i_m_ct_stereo_status>  (311) 
1

>  <s_m_source_file>  (311) 
/var/tmp/pbs.5076255.sched01/tmpg3p38p3m/129jed2w9rh.sdf

>  <i_m_source_file_index>  (311) 
29

>  <i_lp_mmshare_version>  (311) 
48012

>  <i_f3d_flags>  (311) 
0

>  <s_epik_input>  (311) 
W0NIMl09QzFbQ0BIXShDMihbQ0gzXSlbQ0gzXSlbQ0BIXTJbQ0BIXShbT0hdKVtDQEBIXTNbQ0BIXTFbQ0gyXVtDQF0oW0NAQF0zNDUpKFtDSDNdKVtDQEhdNltDQF0oW0NIM10pKFtDSDJdT1tDQEBIXTZbT0hdKVtDQEBdNChbQ0gzXSlPW0NAQEhdN1tDQEhdKE81KVtDSDJdW0NAQEhdKFtDSDJdTzcpW09IXQ==

>  <s_epik_cmdline>  (311) 
J2VwaWtfcHl0aG9uJywgJy1waHQnLCAnMi4wJywgJy1waCcsICc3LjAnLCAnLXRuJywgJzgnLCAnLW1hJywgJzIwMCcsICctaW1hZScsICc8aW5maWxlLm1hZT4nLCAnLW9tYWUnLCAnPG91dGZpbGUubWFlPic=

>  <r_lp_tautomer_probability>  (311) 
1

>  <r_epik_Ionization_Penalty>  (311) 
3.05098e-07

>  <r_epik_Ionization_Penalty_Charging>  (311) 
0

>  <r_epik_Ionization_Penalty_Neutral>  (311) 
3.05098e-07

>  <r_epik_State_Penalty>  (311) 
-0

>  <r_epik_Charging_Adjusted_Penalty>  (311) 
0

>  <i_epik_Tot_Q>  (311) 
0

>  <i_epik_Tot_abs_Q>  (311) 
0

>  <s_epik_Chemistry_Notes>  (311) 
This compound contains an acetal/aminal-like group ( X-CH(R)-Y where X, Y are N, S, or O) that may be acid/base labile, releasing an aldehyde.

>  <s_lp_Force_Field>  (311) 
OPLS3e

>  <r_lp_Energy>  (311) 
78.1924

>  <b_lp_Chiralities_Consistent>  (311) 
1

>  <s_lp_Variant>  (311) 
107:0-1

>  <s_i_glide_gridfile>  (311) 
pfpi4k_grid

>  <i_i_glide_lignum>  (311) 
29

>  <i_i_glide_rotatable_bonds>  (311) 
3

>  <r_i_docking_score>  (311) 
-3.41971

>  <r_i_glide_ligand_efficiency>  (311) 
-0.103628

>  <r_i_glide_ligand_efficiency_sa>  (311) 
-0.332389

>  <r_i_glide_ligand_efficiency_ln>  (311) 
-0.760526

>  <r_i_glide_gscore>  (311) 
-3.41971

>  <r_i_glide_lipo>  (311) 
-0.258433

>  <r_i_glide_hbond>  (311) 
-0.32

>  <r_i_glide_metal>  (311) 
-0

>  <r_i_glide_rewards>  (311) 
-0.834863

>  <r_i_glide_evdw>  (311) 
-27.1961

>  <r_i_glide_ecoul>  (311) 
-4.24437

>  <r_i_glide_erotb>  (311) 
0

>  <r_i_glide_esite>  (311) 
-0.00995597

>  <r_i_glide_emodel>  (311) 
-42.9815

>  <r_i_glide_energy>  (311) 
-31.4404

>  <r_i_glide_einternal>  (311) 
0.745145

>  <r_i_glide_intrahb_reward>  (311) 
-0.5

>  <i_i_glide_confnum>  (311) 
2

>  <i_i_glide_posenum>  (311) 
1

>  <r_i_glide_eff_state_penalty>  (311) 
0

>  <ligand_id>  (311) 
107

>  <original_smiles>  (311) 
C=C1C2CC3(C)C4C(O)OCC4(C)C4(C)OC5OCC(O)CC5OC34C2C(O)C2C1C2(C)C

>  <smiles>  (311) 
[H]OC1([H])OC([H])([H])C2(C([H])([H])[H])C1([H])C1(C([H])([H])[H])C([H])([H])C3([H])C(=C([H])[H])C4([H])C([H])(C([H])(O[H])C3([H])C13OC1([H])C([H])(OC([H])([H])C([H])(O[H])C1([H])[H])OC32C([H])([H])[H])C4(C([H])([H])[H])C([H])([H])[H]

$$$$
108:0:0
     RDKit          3D

 25 30  0  0  1  0  0  0  0  0999 V2000
    7.0325   -3.7983    0.1182 O   0  0  0  0  0  0  0  0  0  0  0  0
    6.6633   -3.0209   -0.7848 C   0  0  0  0  0  0  0  0  0  0  0  0
    7.4178   -2.2477   -1.4311 O   0  0  0  0  0  0  0  0  0  0  0  0
    5.1939   -2.9631   -1.2257 C   0  0  2  0  0  0  0  0  0  0  0  0
    4.8937   -3.4177   -2.6720 C   0  0  2  0  0  0  0  0  0  0  0  0
    3.5850   -3.1163   -3.6431 C   0  0  2  0  0  0  0  0  0  0  0  0
    3.3044   -1.4555   -3.7807 C   0  0  0  0  0  0  0  0  0  0  0  0
    4.1103   -0.8844   -2.4671 C   0  0  2  0  0  0  0  0  0  0  0  0
    4.3099   -2.1491   -2.9784 C   0  0  2  0  0  0  0  0  0  0  0  0
    2.8789   -3.0534   -2.4798 C   0  0  2  0  0  0  0  0  0  0  0  0
    2.8979   -3.5085   -1.0180 C   0  0  2  0  0  0  0  0  0  0  0  0
    3.4396   -2.2902   -0.3068 C   0  0  2  0  0  0  0  0  0  0  0  0
    4.5297   -1.5399   -1.0621 C   0  0  1  0  0  0  0  0  0  0  0  0
    4.2008   -3.5786   -0.3354 C   0  0  2  0  0  0  0  0  0  0  0  0
    5.7868   -3.7489   -3.2280 H   0  0  0  0  0  0  0  0  0  0  0  0
    3.1778   -3.8840   -4.2955 H   0  0  0  0  0  0  0  0  0  0  0  0
    3.6695   -1.0169   -4.7373 H   0  0  0  0  0  0  0  0  0  0  0  0
    2.2525   -1.1373   -3.7875 H   0  0  0  0  0  0  0  0  0  0  0  0
    4.8526   -0.1428   -2.7828 H   0  0  0  0  0  0  0  0  0  0  0  0
    5.3133   -2.0608   -3.5827 H   0  0  0  0  0  0  0  0  0  0  0  0
    1.8307   -2.8035   -2.7210 H   0  0  0  0  0  0  0  0  0  0  0  0
    2.0159   -3.9865   -0.5930 H   0  0  0  0  0  0  0  0  0  0  0  0
    3.0641   -1.9186    0.6330 H   0  0  0  0  0  0  0  0  0  0  0  0
    5.0914   -0.8970   -0.3781 H   0  0  0  0  0  0  0  0  0  0  0  0
    4.4221   -4.1231    0.5807 H   0  0  0  0  0  0  0  0  0  0  0  0
  1  2  2  0
  2  3  1  0
  4  2  1  1
  4 13  1  0
  4 14  1  0
  4  5  1  0
  5  9  1  0
  5  6  1  0
  5 15  1  6
  6 10  1  0
  6  7  1  0
  6 16  1  6
  7  8  1  0
  7 17  1  0
  7 18  1  0
  8 13  1  0
  8  9  1  0
  8 19  1  6
  9 10  1  0
  9 20  1  6
 10 11  1  0
 10 21  1  6
 11 14  1  0
 11 12  1  0
 11 22  1  1
 12 13  1  0
 12 14  1  0
 12 23  1  1
 13 24  1  1
 14 25  1  1
M  CHG  1   3  -1
M  END
>  <i_m_ct_stereo_status>  (312) 
1

>  <s_m_source_file>  (312) 
/var/tmp/pbs.5076255.sched01/tmpg3p38p3m/129jed2w9rh.sdf

>  <i_m_source_file_index>  (312) 
30

>  <i_lp_mmshare_version>  (312) 
48012

>  <i_f3d_flags>  (312) 
0

>  <s_epik_input>  (312) 
Tz1DKFtPSF0pW0NAXTEyW0NASF0zW0NASF00W0NIXTVbQ0BIXTNbQ0BASF0oW0NIMl00KVtDQEhdMVtDQEhdNltDQEBIXTVbQ0BASF0yNg==

>  <s_epik_cmdline>  (312) 
J2VwaWtfcHl0aG9uJywgJy1waHQnLCAnMi4wJywgJy1waCcsICc3LjAnLCAnLXRuJywgJzgnLCAnLW1hJywgJzIwMCcsICctaW1hZScsICc8aW5maWxlLm1hZT4nLCAnLW9tYWUnLCAnPG91dGZpbGUubWFlPic=

>  <r_epik_Ionization_Penalty>  (312) 
0.00844034

>  <r_epik_Ionization_Penalty_Charging>  (312) 
0.00844034

>  <r_epik_Ionization_Penalty_Neutral>  (312) 
0

>  <r_epik_State_Penalty>  (312) 
0.00636034

>  <r_epik_Charging_Adjusted_Penalty>  (312) 
0.0148007

>  <i_epik_Tot_Q>  (312) 
-1

>  <i_epik_Tot_abs_Q>  (312) 
1

>  <s_lp_Force_Field>  (312) 
OPLS3e

>  <r_lp_Energy>  (312) 
376.981

>  <b_lp_Chiralities_Consistent>  (312) 
1

>  <s_lp_Variant>  (312) 
108:0-1

>  <s_i_glide_gridfile>  (312) 
pfpi4k_grid

>  <i_i_glide_lignum>  (312) 
30

>  <i_i_glide_rotatable_bonds>  (312) 
1

>  <r_i_docking_score>  (312) 
-4.41865

>  <r_i_glide_ligand_efficiency>  (312) 
-0.315618

>  <r_i_glide_ligand_efficiency_sa>  (312) 
-0.760683

>  <r_i_glide_ligand_efficiency_ln>  (312) 
-1.21423

>  <r_i_glide_gscore>  (312) 
-4.41865

>  <r_i_glide_lipo>  (312) 
-0.695999

>  <r_i_glide_hbond>  (312) 
-0.2

>  <r_i_glide_metal>  (312) 
-0

>  <r_i_glide_rewards>  (312) 
-2.19287

>  <r_i_glide_evdw>  (312) 
-21.7096

>  <r_i_glide_ecoul>  (312) 
-1.62864

>  <r_i_glide_erotb>  (312) 
0

>  <r_i_glide_esite>  (312) 
0

>  <r_i_glide_emodel>  (312) 
-31.5504

>  <r_i_glide_energy>  (312) 
-23.3382

>  <r_i_glide_einternal>  (312) 
0.0342596

>  <r_i_glide_intrahb_reward>  (312) 
-0

>  <i_i_glide_confnum>  (312) 
1

>  <i_i_glide_posenum>  (312) 
28

>  <r_i_glide_eff_state_penalty>  (312) 
0

>  <ligand_id>  (312) 
108

>  <original_smiles>  (312) 
O=C(O)C12C3C4CC5C3C4C3C(C51)C32

>  <smiles>  (312) 
[H]C1([H])C2([H])C3([H])C4([H])C1([H])C1([H])C5([H])C3([H])C5([H])C1(C(=O)[O-])C24[H]

$$$$
108:0:1
     RDKit          3D

 25 30  0  0  1  0  0  0  0  0999 V2000
    2.2631   -4.9199    0.5842 O   0  0  0  0  0  0  0  0  0  0  0  0
    3.5005   -4.7798    0.4684 C   0  0  0  0  0  0  0  0  0  0  0  0
    4.3469   -5.5570    0.9568 O   0  0  0  0  0  0  0  0  0  0  0  0
    4.0312   -3.5229   -0.2912 C   0  0  2  0  0  0  0  0  0  0  0  0
    3.0323   -2.7145   -1.1580 C   0  0  2  0  0  0  0  0  0  0  0  0
    3.3051   -1.6234   -2.3854 C   0  0  2  0  0  0  0  0  0  0  0  0
    4.2583   -2.3057   -3.5677 C   0  0  0  0  0  0  0  0  0  0  0  0
    4.9958   -3.5396   -2.7553 C   0  0  2  0  0  0  0  0  0  0  0  0
    3.8771   -2.8835   -2.3077 C   0  0  2  0  0  0  0  0  0  0  0  0
    4.4639   -1.3305   -1.7265 C   0  0  2  0  0  0  0  0  0  0  0  0
    5.1247   -1.3834   -0.3501 C   0  0  2  0  0  0  0  0  0  0  0  0
    5.9519   -2.6544   -0.4330 C   0  0  2  0  0  0  0  0  0  0  0  0
    5.2991   -3.7901   -1.1969 C   0  0  1  0  0  0  0  0  0  0  0  0
    4.8042   -2.5601    0.5145 C   0  0  2  0  0  0  0  0  0  0  0  0
    1.9947   -3.0894   -1.1572 H   0  0  0  0  0  0  0  0  0  0  0  0
    2.6633   -0.7454   -2.5122 H   0  0  0  0  0  0  0  0  0  0  0  0
    3.7087   -2.6507   -4.4640 H   0  0  0  0  0  0  0  0  0  0  0  0
    5.0052   -1.6356   -4.0522 H   0  0  0  0  0  0  0  0  0  0  0  0
    4.7798   -4.4787   -3.2631 H   0  0  0  0  0  0  0  0  0  0  0  0
    3.0051   -3.6331   -2.5704 H   0  0  0  0  0  0  0  0  0  0  0  0
    4.9941   -0.5636   -2.3148 H   0  0  0  0  0  0  0  0  0  0  0  0
    5.6070   -0.4960    0.0615 H   0  0  0  0  0  0  0  0  0  0  0  0
    6.9570   -2.7504   -0.0294 H   0  0  0  0  0  0  0  0  0  0  0  0
    5.7966   -4.7344   -0.9695 H   0  0  0  0  0  0  0  0  0  0  0  0
    4.9804   -2.6246    1.5953 H   0  0  0  0  0  0  0  0  0  0  0  0
  1  2  2  0
  2  3  1  0
  4  2  1  1
  4 13  1  0
  4 14  1  0
  4  5  1  0
  5  9  1  0
  5  6  1  0
  5 15  1  6
  6 10  1  0
  6  7  1  0
  6 16  1  6
  7  8  1  0
  7 17  1  0
  7 18  1  0
  8 13  1  0
  8  9  1  0
  8 19  1  6
  9 10  1  0
  9 20  1  6
 10 11  1  0
 10 21  1  6
 11 14  1  0
 11 12  1  0
 11 22  1  1
 12 13  1  0
 12 14  1  0
 12 23  1  1
 13 24  1  6
 14 25  1  1
M  CHG  1   3  -1
M  END
>  <i_m_ct_stereo_status>  (313) 
1

>  <s_m_source_file>  (313) 
/var/tmp/pbs.5076255.sched01/tmpg3p38p3m/129jed2w9rh.sdf

>  <i_m_source_file_index>  (313) 
30

>  <i_lp_mmshare_version>  (313) 
48012

>  <i_f3d_flags>  (313) 
0

>  <s_epik_input>  (313) 
Tz1DKFtPSF0pW0NAXTEyW0NASF0zW0NASF00W0NIXTVbQ0BIXTNbQ0BASF0oW0NIMl00KVtDQEhdMVtDQEhdNltDQEBIXTVbQ0BASF0yNg==

>  <s_epik_cmdline>  (313) 
J2VwaWtfcHl0aG9uJywgJy1waHQnLCAnMi4wJywgJy1waCcsICc3LjAnLCAnLXRuJywgJzgnLCAnLW1hJywgJzIwMCcsICctaW1hZScsICc8aW5maWxlLm1hZT4nLCAnLW9tYWUnLCAnPG91dGZpbGUubWFlPic=

>  <r_epik_Ionization_Penalty>  (313) 
0.00844034

>  <r_epik_Ionization_Penalty_Charging>  (313) 
0.00844034

>  <r_epik_Ionization_Penalty_Neutral>  (313) 
0

>  <r_epik_State_Penalty>  (313) 
0.00636034

>  <r_epik_Charging_Adjusted_Penalty>  (313) 
0.0148007

>  <i_epik_Tot_Q>  (313) 
-1

>  <i_epik_Tot_abs_Q>  (313) 
1

>  <s_lp_Force_Field>  (313) 
OPLS3e

>  <r_lp_Energy>  (313) 
376.981

>  <b_lp_Chiralities_Consistent>  (313) 
1

>  <s_lp_Variant>  (313) 
108:0-1

>  <s_i_glide_gridfile>  (313) 
pfpi4k_grid

>  <i_i_glide_lignum>  (313) 
30

>  <i_i_glide_rotatable_bonds>  (313) 
1

>  <r_i_docking_score>  (313) 
-3.3307

>  <r_i_glide_ligand_efficiency>  (313) 
-0.237907

>  <r_i_glide_ligand_efficiency_sa>  (313) 
-0.57339

>  <r_i_glide_ligand_efficiency_ln>  (313) 
-0.915264

>  <r_i_glide_gscore>  (313) 
-3.3307

>  <r_i_glide_lipo>  (313) 
-0.358354

>  <r_i_glide_hbond>  (313) 
-0.0168974

>  <r_i_glide_metal>  (313) 
-0

>  <r_i_glide_rewards>  (313) 
-2.13263

>  <r_i_glide_evdw>  (313) 
-19.1565

>  <r_i_glide_ecoul>  (313) 
0.944958

>  <r_i_glide_erotb>  (313) 
0

>  <r_i_glide_esite>  (313) 
-0.00673503

>  <r_i_glide_emodel>  (313) 
-24.1306

>  <r_i_glide_energy>  (313) 
-18.2116

>  <r_i_glide_einternal>  (313) 
0.489509

>  <r_i_glide_intrahb_reward>  (313) 
-0

>  <i_i_glide_confnum>  (313) 
1

>  <i_i_glide_posenum>  (313) 
40

>  <r_i_glide_eff_state_penalty>  (313) 
0

>  <ligand_id>  (313) 
108

>  <original_smiles>  (313) 
O=C(O)C12C3C4CC5C3C4C3C(C51)C32

>  <smiles>  (313) 
[H]C1([H])C2([H])C3([H])C4([H])C1([H])C1([H])C5([H])C3([H])C5([H])C1(C(=O)[O-])C24[H]

$$$$
108:1:0
     RDKit          3D

 26 31  0  0  1  0  0  0  0  0999 V2000
    8.9923   -4.2875   -0.2919 O   0  0  0  0  0  0  0  0  0  0  0  0
    8.2371   -3.4048   -0.7003 C   0  0  0  0  0  0  0  0  0  0  0  0
    8.6115   -2.3581   -1.5133 O   0  0  0  0  0  0  0  0  0  0  0  0
    6.7370   -3.3666   -0.4326 C   0  0  2  0  0  0  0  0  0  0  0  0
    5.7871   -3.3549   -1.6601 C   0  0  2  0  0  0  0  0  0  0  0  0
    4.1838   -2.9405   -1.7882 C   0  0  2  0  0  0  0  0  0  0  0  0
    3.9060   -1.3965   -1.1651 C   0  0  0  0  0  0  0  0  0  0  0  0
    5.2326   -1.1923   -0.2199 C   0  0  2  0  0  0  0  0  0  0  0  0
    5.1845   -2.1438   -1.2275 C   0  0  2  0  0  0  0  0  0  0  0  0
    4.0871   -3.3570   -0.5236 C   0  0  2  0  0  0  0  0  0  0  0  0
    4.7263   -4.2829    0.5018 C   0  0  2  0  0  0  0  0  0  0  0  0
    5.5531   -3.3280    1.3294 C   0  0  2  0  0  0  0  0  0  0  0  0
    6.2221   -2.2134    0.5214 C   0  0  1  0  0  0  0  0  0  0  0  0
    6.2013   -4.3905    0.4937 C   0  0  2  0  0  0  0  0  0  0  0  0
    9.5498   -2.4179   -1.7285 H   0  0  0  0  0  0  0  0  0  0  0  0
    6.3023   -3.3632   -2.6268 H   0  0  0  0  0  0  0  0  0  0  0  0
    3.4945   -3.4782   -2.4437 H   0  0  0  0  0  0  0  0  0  0  0  0
    3.7799   -0.6215   -1.9546 H   0  0  0  0  0  0  0  0  0  0  0  0
    2.9951   -1.2394   -0.5740 H   0  0  0  0  0  0  0  0  0  0  0  0
    5.7411   -0.2637   -0.4944 H   0  0  0  0  0  0  0  0  0  0  0  0
    5.7200   -1.6760   -2.1746 H   0  0  0  0  0  0  0  0  0  0  0  0
    3.0554   -3.1862   -0.1859 H   0  0  0  0  0  0  0  0  0  0  0  0
    4.1030   -5.0063    1.0290 H   0  0  0  0  0  0  0  0  0  0  0  0
    5.6040   -3.3615    2.4137 H   0  0  0  0  0  0  0  0  0  0  0  0
    7.0396   -1.7419    1.0738 H   0  0  0  0  0  0  0  0  0  0  0  0
    6.7402   -5.2373    0.9149 H   0  0  0  0  0  0  0  0  0  0  0  0
  1  2  2  0
  2  3  1  0
  4  2  1  6
  3 15  1  0
  4 13  1  0
  4 14  1  0
  4  5  1  0
  5  9  1  0
  5  6  1  0
  5 16  1  6
  6 10  1  0
  6  7  1  0
  6 17  1  6
  7  8  1  0
  7 18  1  0
  7 19  1  0
  8 13  1  0
  8  9  1  0
  8 20  1  6
  9 10  1  0
  9 21  1  6
 10 11  1  0
 10 22  1  1
 11 14  1  0
 11 12  1  0
 11 23  1  1
 12 13  1  0
 12 14  1  0
 12 24  1  1
 13 25  1  1
 14 26  1  1
M  END
>  <i_m_ct_stereo_status>  (314) 
1

>  <s_m_source_file>  (314) 
/var/tmp/pbs.5076255.sched01/tmpg3p38p3m/129jed2w9rh.sdf

>  <i_m_source_file_index>  (314) 
31

>  <i_lp_mmshare_version>  (314) 
48012

>  <i_f3d_flags>  (314) 
0

>  <s_epik_input>  (314) 
Tz1DKFtPSF0pW0NAXTEyW0NASF0zW0NASF00W0NIXTVbQ0BIXTNbQ0BASF0oW0NIMl00KVtDQEhdMVtDQEhdNltDQEBIXTVbQ0BASF0yNg==

>  <s_epik_cmdline>  (314) 
J2VwaWtfcHl0aG9uJywgJy1waHQnLCAnMi4wJywgJy1waCcsICc3LjAnLCAnLXRuJywgJzgnLCAnLW1hJywgJzIwMCcsICctaW1hZScsICc8aW5maWxlLm1hZT4nLCAnLW9tYWUnLCAnPG91dGZpbGUubWFlPic=

>  <r_epik_Ionization_Penalty>  (314) 
2.52305

>  <r_epik_Ionization_Penalty_Charging>  (314) 
0

>  <r_epik_Ionization_Penalty_Neutral>  (314) 
2.52305

>  <r_epik_State_Penalty>  (314) 
2.68965

>  <r_epik_Charging_Adjusted_Penalty>  (314) 
2.68965

>  <i_epik_Tot_Q>  (314) 
0

>  <i_epik_Tot_abs_Q>  (314) 
0

>  <s_lp_Force_Field>  (314) 
OPLS3e

>  <r_lp_Energy>  (314) 
376.642

>  <b_lp_Chiralities_Consistent>  (314) 
1

>  <s_lp_Variant>  (314) 
108:0-2

>  <s_i_glide_gridfile>  (314) 
pfpi4k_grid

>  <i_i_glide_lignum>  (314) 
31

>  <i_i_glide_rotatable_bonds>  (314) 
2

>  <r_i_docking_score>  (314) 
-5.03935

>  <r_i_glide_ligand_efficiency>  (314) 
-0.359954

>  <r_i_glide_ligand_efficiency_sa>  (314) 
-0.86754

>  <r_i_glide_ligand_efficiency_ln>  (314) 
-1.3848

>  <r_i_glide_gscore>  (314) 
-5.03935

>  <r_i_glide_lipo>  (314) 
-0.617595

>  <r_i_glide_hbond>  (314) 
-0.103244

>  <r_i_glide_metal>  (314) 
-0

>  <r_i_glide_rewards>  (314) 
-2.29493

>  <r_i_glide_evdw>  (314) 
-16.6793

>  <r_i_glide_ecoul>  (314) 
-7.93076

>  <r_i_glide_erotb>  (314) 
0

>  <r_i_glide_esite>  (314) 
0

>  <r_i_glide_emodel>  (314) 
-33.9392

>  <r_i_glide_energy>  (314) 
-24.6101

>  <r_i_glide_einternal>  (314) 
0.0551535

>  <r_i_glide_intrahb_reward>  (314) 
-0

>  <i_i_glide_confnum>  (314) 
1

>  <i_i_glide_posenum>  (314) 
30

>  <r_i_glide_eff_state_penalty>  (314) 
0

>  <ligand_id>  (314) 
108

>  <original_smiles>  (314) 
O=C(O)C12C3C4CC5C3C4C3C(C51)C32

>  <smiles>  (314) 
[H]OC(=O)C12C3([H])C4([H])C([H])([H])C5([H])C3([H])C4([H])C3([H])C([H])(C51[H])C32[H]

$$$$
108:1:1
     RDKit          3D

 26 31  0  0  1  0  0  0  0  0999 V2000
    7.0313   -3.3150    0.4472 O   0  0  0  0  0  0  0  0  0  0  0  0
    6.7119   -3.0257   -0.7105 C   0  0  0  0  0  0  0  0  0  0  0  0
    7.5959   -2.6773   -1.6849 O   0  0  0  0  0  0  0  0  0  0  0  0
    5.2525   -2.9590   -1.2074 C   0  0  2  0  0  0  0  0  0  0  0  0
    4.9539   -3.4327   -2.6557 C   0  0  2  0  0  0  0  0  0  0  0  0
    3.6598   -3.1410   -3.6615 C   0  0  2  0  0  0  0  0  0  0  0  0
    3.3675   -1.4832   -3.8004 C   0  0  0  0  0  0  0  0  0  0  0  0
    4.1559   -0.9017   -2.4812 C   0  0  2  0  0  0  0  0  0  0  0  0
    4.3766   -2.1630   -2.9768 C   0  0  2  0  0  0  0  0  0  0  0  0
    2.9392   -3.0456   -2.5062 C   0  0  2  0  0  0  0  0  0  0  0  0
    2.9255   -3.4830   -1.0384 C   0  0  2  0  0  0  0  0  0  0  0  0
    3.4628   -2.2696   -0.3190 C   0  0  2  0  0  0  0  0  0  0  0  0
    4.5733   -1.5391   -1.0705 C   0  0  1  0  0  0  0  0  0  0  0  0
    4.2178   -3.5566   -0.3313 C   0  0  2  0  0  0  0  0  0  0  0  0
    7.1917   -2.6487   -2.5383 H   0  0  0  0  0  0  0  0  0  0  0  0
    5.8190   -3.8056   -3.2171 H   0  0  0  0  0  0  0  0  0  0  0  0
    3.2546   -3.9068   -4.3141 H   0  0  0  0  0  0  0  0  0  0  0  0
    3.7299   -1.0522   -4.7510 H   0  0  0  0  0  0  0  0  0  0  0  0
    2.3182   -1.1628   -3.8275 H   0  0  0  0  0  0  0  0  0  0  0  0
    4.8751   -0.1454   -2.7928 H   0  0  0  0  0  0  0  0  0  0  0  0
    5.3623   -2.0690   -3.6001 H   0  0  0  0  0  0  0  0  0  0  0  0
    1.8937   -2.8189   -2.7695 H   0  0  0  0  0  0  0  0  0  0  0  0
    2.0429   -3.9788   -0.6303 H   0  0  0  0  0  0  0  0  0  0  0  0
    3.0540   -1.8944    0.6100 H   0  0  0  0  0  0  0  0  0  0  0  0
    5.1077   -0.8659   -0.3993 H   0  0  0  0  0  0  0  0  0  0  0  0
    4.4142   -4.0996    0.5921 H   0  0  0  0  0  0  0  0  0  0  0  0
  1  2  2  0
  2  3  1  0
  4  2  1  1
  3 15  1  0
  4 13  1  0
  4 14  1  0
  4  5  1  0
  5  9  1  0
  5  6  1  0
  5 16  1  6
  6 10  1  0
  6  7  1  0
  6 17  1  6
  7  8  1  0
  7 18  1  0
  7 19  1  0
  8 13  1  0
  8  9  1  0
  8 20  1  6
  9 10  1  0
  9 21  1  6
 10 11  1  0
 10 22  1  6
 11 14  1  0
 11 12  1  0
 11 23  1  1
 12 13  1  0
 12 14  1  0
 12 24  1  1
 13 25  1  1
 14 26  1  1
M  END
>  <i_m_ct_stereo_status>  (315) 
1

>  <s_m_source_file>  (315) 
/var/tmp/pbs.5076255.sched01/tmpg3p38p3m/129jed2w9rh.sdf

>  <i_m_source_file_index>  (315) 
31

>  <i_lp_mmshare_version>  (315) 
48012

>  <i_f3d_flags>  (315) 
0

>  <s_epik_input>  (315) 
Tz1DKFtPSF0pW0NAXTEyW0NASF0zW0NASF00W0NIXTVbQ0BIXTNbQ0BASF0oW0NIMl00KVtDQEhdMVtDQEhdNltDQEBIXTVbQ0BASF0yNg==

>  <s_epik_cmdline>  (315) 
J2VwaWtfcHl0aG9uJywgJy1waHQnLCAnMi4wJywgJy1waCcsICc3LjAnLCAnLXRuJywgJzgnLCAnLW1hJywgJzIwMCcsICctaW1hZScsICc8aW5maWxlLm1hZT4nLCAnLW9tYWUnLCAnPG91dGZpbGUubWFlPic=

>  <r_epik_Ionization_Penalty>  (315) 
2.52305

>  <r_epik_Ionization_Penalty_Charging>  (315) 
0

>  <r_epik_Ionization_Penalty_Neutral>  (315) 
2.52305

>  <r_epik_State_Penalty>  (315) 
2.68965

>  <r_epik_Charging_Adjusted_Penalty>  (315) 
2.68965

>  <i_epik_Tot_Q>  (315) 
0

>  <i_epik_Tot_abs_Q>  (315) 
0

>  <s_lp_Force_Field>  (315) 
OPLS3e

>  <r_lp_Energy>  (315) 
376.642

>  <b_lp_Chiralities_Consistent>  (315) 
1

>  <s_lp_Variant>  (315) 
108:0-2

>  <s_i_glide_gridfile>  (315) 
pfpi4k_grid

>  <i_i_glide_lignum>  (315) 
31

>  <i_i_glide_rotatable_bonds>  (315) 
2

>  <r_i_docking_score>  (315) 
-4.21728

>  <r_i_glide_ligand_efficiency>  (315) 
-0.301234

>  <r_i_glide_ligand_efficiency_sa>  (315) 
-0.726018

>  <r_i_glide_ligand_efficiency_ln>  (315) 
-1.15889

>  <r_i_glide_gscore>  (315) 
-4.21728

>  <r_i_glide_lipo>  (315) 
-0.690755

>  <r_i_glide_hbond>  (315) 
0

>  <r_i_glide_metal>  (315) 
-0

>  <r_i_glide_rewards>  (315) 
-2.19134

>  <r_i_glide_evdw>  (315) 
-24.6085

>  <r_i_glide_ecoul>  (315) 
-0.698408

>  <r_i_glide_erotb>  (315) 
0

>  <r_i_glide_esite>  (315) 
0

>  <r_i_glide_emodel>  (315) 
-31.6544

>  <r_i_glide_energy>  (315) 
-25.3069

>  <r_i_glide_einternal>  (315) 
2.63857

>  <r_i_glide_intrahb_reward>  (315) 
-0

>  <i_i_glide_confnum>  (315) 
1

>  <i_i_glide_posenum>  (315) 
21

>  <r_i_glide_eff_state_penalty>  (315) 
0

>  <ligand_id>  (315) 
108

>  <original_smiles>  (315) 
O=C(O)C12C3C4CC5C3C4C3C(C51)C32

>  <smiles>  (315) 
[H]OC(=O)C12C3([H])C4([H])C([H])([H])C5([H])C3([H])C4([H])C3([H])C([H])(C51[H])C32[H]

$$$$
108:1:2
     RDKit          3D

 26 31  0  0  1  0  0  0  0  0999 V2000
    2.4322   -4.9904    0.4730 O   0  0  0  0  0  0  0  0  0  0  0  0
    2.6457   -3.9535   -0.1540 C   0  0  0  0  0  0  0  0  0  0  0  0
    1.8182   -3.4630   -1.1172 O   0  0  0  0  0  0  0  0  0  0  0  0
    3.8981   -3.0756    0.0438 C   0  0  2  0  0  0  0  0  0  0  0  0
    4.9326   -3.0973   -1.1057 C   0  0  2  0  0  0  0  0  0  0  0  0
    6.5361   -2.6489   -1.1372 C   0  0  2  0  0  0  0  0  0  0  0  0
    7.4059   -3.4245    0.0735 C   0  0  0  0  0  0  0  0  0  0  0  0
    6.2017   -3.8897    1.0919 C   0  0  2  0  0  0  0  0  0  0  0  0
    5.9723   -3.4952   -0.2077 C   0  0  2  0  0  0  0  0  0  0  0  0
    6.1756   -1.7445   -0.1874 C   0  0  2  0  0  0  0  0  0  0  0  0
    4.9924   -0.9722    0.3788 C   0  0  2  0  0  0  0  0  0  0  0  0
    4.6079   -1.8148    1.5778 C   0  0  2  0  0  0  0  0  0  0  0  0
    4.7277   -3.3198    1.3683 C   0  0  1  0  0  0  0  0  0  0  0  0
    3.6847   -1.6655    0.4145 C   0  0  2  0  0  0  0  0  0  0  0  0
    2.0173   -2.5662   -1.4102 H   0  0  0  0  0  0  0  0  0  0  0  0
    4.6526   -3.7571   -1.9425 H   0  0  0  0  0  0  0  0  0  0  0  0
    6.9650   -2.1730   -2.0179 H   0  0  0  0  0  0  0  0  0  0  0  0
    8.0148   -4.2746   -0.2911 H   0  0  0  0  0  0  0  0  0  0  0  0
    8.1691   -2.8334    0.6063 H   0  0  0  0  0  0  0  0  0  0  0  0
    6.2417   -4.9718    1.2248 H   0  0  0  0  0  0  0  0  0  0  0  0
    5.8299   -4.5073   -0.7880 H   0  0  0  0  0  0  0  0  0  0  0  0
    7.0822   -1.2068    0.1374 H   0  0  0  0  0  0  0  0  0  0  0  0
    5.0659    0.1070    0.5328 H   0  0  0  0  0  0  0  0  0  0  0  0
    4.2824   -1.4134    2.5310 H   0  0  0  0  0  0  0  0  0  0  0  0
    4.1528   -3.8669    2.1232 H   0  0  0  0  0  0  0  0  0  0  0  0
    2.7194   -1.1711    0.5310 H   0  0  0  0  0  0  0  0  0  0  0  0
  1  2  2  0
  2  3  1  0
  4  2  1  6
  3 15  1  0
  4 13  1  0
  4 14  1  0
  4  5  1  0
  5  9  1  0
  5  6  1  0
  5 16  1  6
  6 10  1  0
  6  7  1  0
  6 17  1  6
  7  8  1  0
  7 18  1  0
  7 19  1  0
  8 13  1  0
  8  9  1  0
  8 20  1  6
  9 10  1  0
  9 21  1  6
 10 11  1  0
 10 22  1  1
 11 14  1  0
 11 12  1  0
 11 23  1  1
 12 13  1  0
 12 14  1  0
 12 24  1  1
 13 25  1  1
 14 26  1  1
M  END
>  <i_m_ct_stereo_status>  (316) 
1

>  <s_m_source_file>  (316) 
/var/tmp/pbs.5076255.sched01/tmpg3p38p3m/129jed2w9rh.sdf

>  <i_m_source_file_index>  (316) 
31

>  <i_lp_mmshare_version>  (316) 
48012

>  <i_f3d_flags>  (316) 
0

>  <s_epik_input>  (316) 
Tz1DKFtPSF0pW0NAXTEyW0NASF0zW0NASF00W0NIXTVbQ0BIXTNbQ0BASF0oW0NIMl00KVtDQEhdMVtDQEhdNltDQEBIXTVbQ0BASF0yNg==

>  <s_epik_cmdline>  (316) 
J2VwaWtfcHl0aG9uJywgJy1waHQnLCAnMi4wJywgJy1waCcsICc3LjAnLCAnLXRuJywgJzgnLCAnLW1hJywgJzIwMCcsICctaW1hZScsICc8aW5maWxlLm1hZT4nLCAnLW9tYWUnLCAnPG91dGZpbGUubWFlPic=

>  <r_epik_Ionization_Penalty>  (316) 
2.52305

>  <r_epik_Ionization_Penalty_Charging>  (316) 
0

>  <r_epik_Ionization_Penalty_Neutral>  (316) 
2.52305

>  <r_epik_State_Penalty>  (316) 
2.68965

>  <r_epik_Charging_Adjusted_Penalty>  (316) 
2.68965

>  <i_epik_Tot_Q>  (316) 
0

>  <i_epik_Tot_abs_Q>  (316) 
0

>  <s_lp_Force_Field>  (316) 
OPLS3e

>  <r_lp_Energy>  (316) 
376.642

>  <b_lp_Chiralities_Consistent>  (316) 
1

>  <s_lp_Variant>  (316) 
108:0-2

>  <s_i_glide_gridfile>  (316) 
pfpi4k_grid

>  <i_i_glide_lignum>  (316) 
31

>  <i_i_glide_rotatable_bonds>  (316) 
2

>  <r_i_docking_score>  (316) 
-3.97408

>  <r_i_glide_ligand_efficiency>  (316) 
-0.283863

>  <r_i_glide_ligand_efficiency_sa>  (316) 
-0.68415

>  <r_i_glide_ligand_efficiency_ln>  (316) 
-1.09206

>  <r_i_glide_gscore>  (316) 
-3.97408

>  <r_i_glide_lipo>  (316) 
-0.5127

>  <r_i_glide_hbond>  (316) 
0

>  <r_i_glide_metal>  (316) 
-0

>  <r_i_glide_rewards>  (316) 
-2.12576

>  <r_i_glide_evdw>  (316) 
-16.815

>  <r_i_glide_ecoul>  (316) 
-3.0378

>  <r_i_glide_erotb>  (316) 
0

>  <r_i_glide_esite>  (316) 
-0.0392045

>  <r_i_glide_emodel>  (316) 
-26.164

>  <r_i_glide_energy>  (316) 
-19.8528

>  <r_i_glide_einternal>  (316) 
2.04297

>  <r_i_glide_intrahb_reward>  (316) 
-0

>  <i_i_glide_confnum>  (316) 
1

>  <i_i_glide_posenum>  (316) 
10

>  <r_i_glide_eff_state_penalty>  (316) 
0

>  <ligand_id>  (316) 
108

>  <original_smiles>  (316) 
O=C(O)C12C3C4CC5C3C4C3C(C51)C32

>  <smiles>  (316) 
[H]OC(=O)C12C3([H])C4([H])C([H])([H])C5([H])C3([H])C4([H])C3([H])C([H])(C51[H])C32[H]

$$$$
109:0:0
     RDKit          3D

 29 31  0  0  1  0  0  0  0  0999 V2000
    2.2980   -4.8762    0.0746 O   0  0  0  0  0  0  0  0  0  0  0  0
    3.0251   -3.9281    0.3718 C   0  0  0  0  0  0  0  0  0  0  0  0
    3.0446   -3.2132    1.7284 C   0  0  0  0  0  0  0  0  0  0  0  0
    3.9455   -1.9685    1.4886 C   0  0  0  0  0  0  0  0  0  0  0  0
    3.9355   -1.8301   -0.0376 C   0  0  1  0  0  0  0  0  0  0  0  0
    5.0103   -1.1510   -0.8683 C   0  0  0  0  0  0  0  0  0  0  0  0
    4.8283   -1.8182   -2.2678 C   0  0  2  0  0  0  0  0  0  0  0  0
    3.9974   -0.9871   -3.2631 C   0  0  0  0  0  0  0  0  0  0  0  0
    3.0091   -1.9653   -3.8917 C   0  0  0  0  0  0  0  0  0  0  0  0
    2.6776   -2.9383   -2.7623 C   0  0  0  0  0  0  0  0  0  0  0  0
    4.0230   -3.1292   -2.0425 C   0  0  1  0  0  0  0  0  0  0  0  0
    4.6954   -4.2172   -2.6295 O   0  0  0  0  0  0  0  0  0  0  0  0
    4.0463   -3.2517   -0.5178 C   0  0  2  0  0  0  0  0  0  0  0  0
    2.0281   -2.9365    2.0131 H   0  0  0  0  0  0  0  0  0  0  0  0
    3.4554   -3.8674    2.4979 H   0  0  0  0  0  0  0  0  0  0  0  0
    3.5653   -1.0735    1.9874 H   0  0  0  0  0  0  0  0  0  0  0  0
    4.9583   -2.1556    1.8540 H   0  0  0  0  0  0  0  0  0  0  0  0
    2.9775   -1.3964   -0.3358 H   0  0  0  0  0  0  0  0  0  0  0  0
    4.8690   -0.0740   -0.8797 H   0  0  0  0  0  0  0  0  0  0  0  0
    6.0001   -1.3716   -0.4623 H   0  0  0  0  0  0  0  0  0  0  0  0
    5.8050   -2.0431   -2.6973 H   0  0  0  0  0  0  0  0  0  0  0  0
    3.4438   -0.2056   -2.7413 H   0  0  0  0  0  0  0  0  0  0  0  0
    4.6122   -0.5035   -4.0186 H   0  0  0  0  0  0  0  0  0  0  0  0
    2.1325   -1.4610   -4.2967 H   0  0  0  0  0  0  0  0  0  0  0  0
    3.4778   -2.5016   -4.7149 H   0  0  0  0  0  0  0  0  0  0  0  0
    1.9379   -2.5010   -2.0960 H   0  0  0  0  0  0  0  0  0  0  0  0
    2.2415   -3.8629   -3.1365 H   0  0  0  0  0  0  0  0  0  0  0  0
    4.0971   -4.9614   -2.6113 H   0  0  0  0  0  0  0  0  0  0  0  0
    5.0218   -3.6401   -0.2215 H   0  0  0  0  0  0  0  0  0  0  0  0
  1  2  2  0
  2 13  1  0
  2  3  1  0
  3  4  1  0
  3 14  1  0
  3 15  1  0
  4  5  1  0
  4 16  1  0
  4 17  1  0
  5 13  1  0
  5  6  1  0
  5 18  1  6
  6  7  1  0
  6 19  1  0
  6 20  1  0
  7 11  1  0
  7  8  1  0
  7 21  1  6
  8  9  1  0
  8 22  1  0
  8 23  1  0
  9 10  1  0
  9 24  1  0
  9 25  1  0
 10 11  1  0
 10 26  1  0
 10 27  1  0
 11 12  1  6
 11 13  1  0
 12 28  1  0
 13 29  1  6
M  END
>  <i_m_ct_stereo_status>  (317) 
1

>  <s_m_source_file>  (317) 
/var/tmp/pbs.5076255.sched01/tmpg3p38p3m/129jed2w9rh.sdf

>  <i_m_source_file_index>  (317) 
32

>  <i_lp_mmshare_version>  (317) 
48012

>  <i_f3d_flags>  (317) 
0

>  <s_epik_input>  (317) 
W0NIMl0xW0NIMl1DKD1PKVtDQEBIXTJbQ0BASF0xW0NIMl1bQ0BASF0oW0NAQF0yM1tPSF0pW0NIMl1bQ0gyXVtDSDJdMw==

>  <s_epik_cmdline>  (317) 
J2VwaWtfcHl0aG9uJywgJy1waHQnLCAnMi4wJywgJy1waCcsICc3LjAnLCAnLXRuJywgJzgnLCAnLW1hJywgJzIwMCcsICctaW1hZScsICc8aW5maWxlLm1hZT4nLCAnLW9tYWUnLCAnPG91dGZpbGUubWFlPic=

>  <r_lp_tautomer_probability>  (317) 
1

>  <r_epik_Ionization_Penalty>  (317) 
4.94732e-07

>  <r_epik_Ionization_Penalty_Charging>  (317) 
0

>  <r_epik_Ionization_Penalty_Neutral>  (317) 
4.94732e-07

>  <r_epik_State_Penalty>  (317) 
-0

>  <r_epik_Charging_Adjusted_Penalty>  (317) 
0

>  <i_epik_Tot_Q>  (317) 
0

>  <i_epik_Tot_abs_Q>  (317) 
0

>  <s_lp_Force_Field>  (317) 
OPLS3e

>  <r_lp_Energy>  (317) 
11.9968

>  <b_lp_Chiralities_Consistent>  (317) 
1

>  <s_lp_Variant>  (317) 
109:0-1

>  <s_i_glide_gridfile>  (317) 
pfpi4k_grid

>  <i_i_glide_lignum>  (317) 
32

>  <i_i_glide_rotatable_bonds>  (317) 
1

>  <r_i_docking_score>  (317) 
-4.6555

>  <r_i_glide_ligand_efficiency>  (317) 
-0.358116

>  <r_i_glide_ligand_efficiency_sa>  (317) 
-0.84205

>  <r_i_glide_ligand_efficiency_ln>  (317) 
-1.30591

>  <r_i_glide_gscore>  (317) 
-4.6555

>  <r_i_glide_lipo>  (317) 
-0.305023

>  <r_i_glide_hbond>  (317) 
-0.32

>  <r_i_glide_metal>  (317) 
-0

>  <r_i_glide_rewards>  (317) 
-2.18016

>  <r_i_glide_evdw>  (317) 
-16.9384

>  <r_i_glide_ecoul>  (317) 
-6.58331

>  <r_i_glide_erotb>  (317) 
0

>  <r_i_glide_esite>  (317) 
-0.0159054

>  <r_i_glide_emodel>  (317) 
-30.4405

>  <r_i_glide_energy>  (317) 
-23.5217

>  <r_i_glide_einternal>  (317) 
0.174983

>  <r_i_glide_intrahb_reward>  (317) 
-0

>  <i_i_glide_confnum>  (317) 
1

>  <i_i_glide_posenum>  (317) 
24

>  <r_i_glide_eff_state_penalty>  (317) 
0

>  <ligand_id>  (317) 
109

>  <original_smiles>  (317) 
O=C1CCC2CC3CCCC3(O)C12

>  <smiles>  (317) 
[H]OC12C([H])([H])C([H])([H])C([H])([H])C1([H])C([H])([H])C1([H])C([H])([H])C([H])([H])C(=O)C12[H]

$$$$
109:0:1
     RDKit          3D

 29 31  0  0  1  0  0  0  0  0999 V2000
    7.6128   -3.7958   -0.1940 O   0  0  0  0  0  0  0  0  0  0  0  0
    6.4786   -3.9308    0.2600 C   0  0  0  0  0  0  0  0  0  0  0  0
    6.0485   -4.9694    1.3020 C   0  0  0  0  0  0  0  0  0  0  0  0
    4.4981   -4.8211    1.3591 C   0  0  0  0  0  0  0  0  0  0  0  0
    4.1706   -4.1244    0.0322 C   0  0  1  0  0  0  0  0  0  0  0  0
    2.9421   -3.2644   -0.2320 C   0  0  0  0  0  0  0  0  0  0  0  0
    3.4151   -2.3436   -1.3984 C   0  0  2  0  0  0  0  0  0  0  0  0
    2.9696   -2.8224   -2.7886 C   0  0  0  0  0  0  0  0  0  0  0  0
    4.2151   -2.7512   -3.6699 C   0  0  0  0  0  0  0  0  0  0  0  0
    5.3743   -3.0620   -2.7195 C   0  0  0  0  0  0  0  0  0  0  0  0
    4.9717   -2.3754   -1.4039 C   0  0  1  0  0  0  0  0  0  0  0  0
    5.4953   -1.0628   -1.3854 O   0  0  0  0  0  0  0  0  0  0  0  0
    5.2660   -3.0990   -0.0857 C   0  0  2  0  0  0  0  0  0  0  0  0
    6.3482   -5.9668    0.9821 H   0  0  0  0  0  0  0  0  0  0  0  0
    6.5102   -4.7600    2.2665 H   0  0  0  0  0  0  0  0  0  0  0  0
    3.9893   -5.7811    1.4615 H   0  0  0  0  0  0  0  0  0  0  0  0
    4.2101   -4.1914    2.2037 H   0  0  0  0  0  0  0  0  0  0  0  0
    4.2425   -4.8667   -0.7699 H   0  0  0  0  0  0  0  0  0  0  0  0
    2.0546   -3.8495   -0.4760 H   0  0  0  0  0  0  0  0  0  0  0  0
    2.7116   -2.6588    0.6483 H   0  0  0  0  0  0  0  0  0  0  0  0
    3.0404   -1.3317   -1.2328 H   0  0  0  0  0  0  0  0  0  0  0  0
    2.6203   -3.8546   -2.7469 H   0  0  0  0  0  0  0  0  0  0  0  0
    2.1519   -2.2220   -3.1861 H   0  0  0  0  0  0  0  0  0  0  0  0
    4.1664   -3.4479   -4.5064 H   0  0  0  0  0  0  0  0  0  0  0  0
    4.3264   -1.7424   -4.0689 H   0  0  0  0  0  0  0  0  0  0  0  0
    5.4426   -4.1424   -2.5931 H   0  0  0  0  0  0  0  0  0  0  0  0
    6.3403   -2.7261   -3.0999 H   0  0  0  0  0  0  0  0  0  0  0  0
    5.0142   -0.5540   -0.7483 H   0  0  0  0  0  0  0  0  0  0  0  0
    5.1588   -2.3791    0.7250 H   0  0  0  0  0  0  0  0  0  0  0  0
  1  2  2  0
  2 13  1  0
  2  3  1  0
  3  4  1  0
  3 14  1  0
  3 15  1  0
  4  5  1  0
  4 16  1  0
  4 17  1  0
  5 13  1  0
  5  6  1  0
  5 18  1  6
  6  7  1  0
  6 19  1  0
  6 20  1  0
  7 11  1  0
  7  8  1  0
  7 21  1  1
  8  9  1  0
  8 22  1  0
  8 23  1  0
  9 10  1  0
  9 24  1  0
  9 25  1  0
 10 11  1  0
 10 26  1  0
 10 27  1  0
 11 12  1  1
 11 13  1  0
 12 28  1  0
 13 29  1  1
M  END
>  <i_m_ct_stereo_status>  (318) 
1

>  <s_m_source_file>  (318) 
/var/tmp/pbs.5076255.sched01/tmpg3p38p3m/129jed2w9rh.sdf

>  <i_m_source_file_index>  (318) 
32

>  <i_lp_mmshare_version>  (318) 
48012

>  <i_f3d_flags>  (318) 
0

>  <s_epik_input>  (318) 
W0NIMl0xW0NIMl1DKD1PKVtDQEBIXTJbQ0BASF0xW0NIMl1bQ0BASF0oW0NAQF0yM1tPSF0pW0NIMl1bQ0gyXVtDSDJdMw==

>  <s_epik_cmdline>  (318) 
J2VwaWtfcHl0aG9uJywgJy1waHQnLCAnMi4wJywgJy1waCcsICc3LjAnLCAnLXRuJywgJzgnLCAnLW1hJywgJzIwMCcsICctaW1hZScsICc8aW5maWxlLm1hZT4nLCAnLW9tYWUnLCAnPG91dGZpbGUubWFlPic=

>  <r_lp_tautomer_probability>  (318) 
1

>  <r_epik_Ionization_Penalty>  (318) 
4.94732e-07

>  <r_epik_Ionization_Penalty_Charging>  (318) 
0

>  <r_epik_Ionization_Penalty_Neutral>  (318) 
4.94732e-07

>  <r_epik_State_Penalty>  (318) 
-0

>  <r_epik_Charging_Adjusted_Penalty>  (318) 
0

>  <i_epik_Tot_Q>  (318) 
0

>  <i_epik_Tot_abs_Q>  (318) 
0

>  <s_lp_Force_Field>  (318) 
OPLS3e

>  <r_lp_Energy>  (318) 
11.9968

>  <b_lp_Chiralities_Consistent>  (318) 
1

>  <s_lp_Variant>  (318) 
109:0-1

>  <s_i_glide_gridfile>  (318) 
pfpi4k_grid

>  <i_i_glide_lignum>  (318) 
32

>  <i_i_glide_rotatable_bonds>  (318) 
1

>  <r_i_docking_score>  (318) 
-4.30927

>  <r_i_glide_ligand_efficiency>  (318) 
-0.331482

>  <r_i_glide_ligand_efficiency_sa>  (318) 
-0.779426

>  <r_i_glide_ligand_efficiency_ln>  (318) 
-1.20879

>  <r_i_glide_gscore>  (318) 
-4.30927

>  <r_i_glide_lipo>  (318) 
-0.51709

>  <r_i_glide_hbond>  (318) 
-0.018748

>  <r_i_glide_metal>  (318) 
-0

>  <r_i_glide_rewards>  (318) 
-2.31758

>  <r_i_glide_evdw>  (318) 
-19.8914

>  <r_i_glide_ecoul>  (318) 
-3.07522

>  <r_i_glide_erotb>  (318) 
0

>  <r_i_glide_esite>  (318) 
0

>  <r_i_glide_emodel>  (318) 
-29.3568

>  <r_i_glide_energy>  (318) 
-22.9666

>  <r_i_glide_einternal>  (318) 
0.2303

>  <r_i_glide_intrahb_reward>  (318) 
-0

>  <i_i_glide_confnum>  (318) 
1

>  <i_i_glide_posenum>  (318) 
1

>  <r_i_glide_eff_state_penalty>  (318) 
0

>  <ligand_id>  (318) 
109

>  <original_smiles>  (318) 
O=C1CCC2CC3CCCC3(O)C12

>  <smiles>  (318) 
[H]OC12C([H])([H])C([H])([H])C([H])([H])C1([H])C([H])([H])C1([H])C([H])([H])C([H])([H])C(=O)C12[H]

$$$$
109:0:2
     RDKit          3D

 29 31  0  0  1  0  0  0  0  0999 V2000
    7.8210   -1.8759   -0.3221 O   0  0  0  0  0  0  0  0  0  0  0  0
    7.1115   -2.8137    0.0367 C   0  0  0  0  0  0  0  0  0  0  0  0
    7.5963   -4.2036    0.4636 C   0  0  0  0  0  0  0  0  0  0  0  0
    6.2816   -5.0336    0.5786 C   0  0  0  0  0  0  0  0  0  0  0  0
    5.2825   -4.2218   -0.2546 C   0  0  1  0  0  0  0  0  0  0  0  0
    3.7710   -4.2278   -0.0674 C   0  0  0  0  0  0  0  0  0  0  0  0
    3.3580   -2.8427   -0.6539 C   0  0  2  0  0  0  0  0  0  0  0  0
    2.8608   -2.9020   -2.1104 C   0  0  0  0  0  0  0  0  0  0  0  0
    3.5745   -1.7668   -2.8443 C   0  0  0  0  0  0  0  0  0  0  0  0
    4.9357   -1.6756   -2.1539 C   0  0  0  0  0  0  0  0  0  0  0  0
    4.6300   -1.9502   -0.6711 C   0  0  1  0  0  0  0  0  0  0  0  0
    4.3990   -0.7298   -0.0009 O   0  0  0  0  0  0  0  0  0  0  0  0
    5.6076   -2.8059    0.1319 C   0  0  2  0  0  0  0  0  0  0  0  0
    8.2638   -4.6106   -0.2956 H   0  0  0  0  0  0  0  0  0  0  0  0
    8.1329   -4.1603    1.4116 H   0  0  0  0  0  0  0  0  0  0  0  0
    6.3955   -6.0517    0.2050 H   0  0  0  0  0  0  0  0  0  0  0  0
    5.9584   -5.0881    1.6197 H   0  0  0  0  0  0  0  0  0  0  0  0
    5.4910   -4.3914   -1.3158 H   0  0  0  0  0  0  0  0  0  0  0  0
    3.2837   -5.0668   -0.5637 H   0  0  0  0  0  0  0  0  0  0  0  0
    3.5249   -4.2767    0.9963 H   0  0  0  0  0  0  0  0  0  0  0  0
    2.5878   -2.4000   -0.0211 H   0  0  0  0  0  0  0  0  0  0  0  0
    3.1257   -3.8542   -2.5715 H   0  0  0  0  0  0  0  0  0  0  0  0
    1.7768   -2.8028   -2.1754 H   0  0  0  0  0  0  0  0  0  0  0  0
    3.6527   -1.9512   -3.9169 H   0  0  0  0  0  0  0  0  0  0  0  0
    3.0234   -0.8348   -2.7075 H   0  0  0  0  0  0  0  0  0  0  0  0
    5.5918   -2.4422   -2.5660 H   0  0  0  0  0  0  0  0  0  0  0  0
    5.4175   -0.7113   -2.3168 H   0  0  0  0  0  0  0  0  0  0  0  0
    3.5891   -0.3670   -0.3266 H   0  0  0  0  0  0  0  0  0  0  0  0
    5.3762   -2.6669    1.1889 H   0  0  0  0  0  0  0  0  0  0  0  0
  1  2  2  0
  2 13  1  0
  2  3  1  0
  3  4  1  0
  3 14  1  0
  3 15  1  0
  4  5  1  0
  4 16  1  0
  4 17  1  0
  5 13  1  0
  5  6  1  0
  5 18  1  6
  6  7  1  0
  6 19  1  0
  6 20  1  0
  7 11  1  0
  7  8  1  0
  7 21  1  1
  8  9  1  0
  8 22  1  0
  8 23  1  0
  9 10  1  0
  9 24  1  0
  9 25  1  0
 10 11  1  0
 10 26  1  0
 10 27  1  0
 11 12  1  1
 11 13  1  0
 12 28  1  0
 13 29  1  1
M  END
>  <i_m_ct_stereo_status>  (319) 
1

>  <s_m_source_file>  (319) 
/var/tmp/pbs.5076255.sched01/tmpg3p38p3m/129jed2w9rh.sdf

>  <i_m_source_file_index>  (319) 
32

>  <i_lp_mmshare_version>  (319) 
48012

>  <i_f3d_flags>  (319) 
0

>  <s_epik_input>  (319) 
W0NIMl0xW0NIMl1DKD1PKVtDQEBIXTJbQ0BASF0xW0NIMl1bQ0BASF0oW0NAQF0yM1tPSF0pW0NIMl1bQ0gyXVtDSDJdMw==

>  <s_epik_cmdline>  (319) 
J2VwaWtfcHl0aG9uJywgJy1waHQnLCAnMi4wJywgJy1waCcsICc3LjAnLCAnLXRuJywgJzgnLCAnLW1hJywgJzIwMCcsICctaW1hZScsICc8aW5maWxlLm1hZT4nLCAnLW9tYWUnLCAnPG91dGZpbGUubWFlPic=

>  <r_lp_tautomer_probability>  (319) 
1

>  <r_epik_Ionization_Penalty>  (319) 
4.94732e-07

>  <r_epik_Ionization_Penalty_Charging>  (319) 
0

>  <r_epik_Ionization_Penalty_Neutral>  (319) 
4.94732e-07

>  <r_epik_State_Penalty>  (319) 
-0

>  <r_epik_Charging_Adjusted_Penalty>  (319) 
0

>  <i_epik_Tot_Q>  (319) 
0

>  <i_epik_Tot_abs_Q>  (319) 
0

>  <s_lp_Force_Field>  (319) 
OPLS3e

>  <r_lp_Energy>  (319) 
11.9968

>  <b_lp_Chiralities_Consistent>  (319) 
1

>  <s_lp_Variant>  (319) 
109:0-1

>  <s_i_glide_gridfile>  (319) 
pfpi4k_grid

>  <i_i_glide_lignum>  (319) 
32

>  <i_i_glide_rotatable_bonds>  (319) 
1

>  <r_i_docking_score>  (319) 
-4.11361

>  <r_i_glide_ligand_efficiency>  (319) 
-0.316432

>  <r_i_glide_ligand_efficiency_sa>  (319) 
-0.744037

>  <r_i_glide_ligand_efficiency_ln>  (319) 
-1.15391

>  <r_i_glide_gscore>  (319) 
-4.11361

>  <r_i_glide_lipo>  (319) 
-0.376254

>  <r_i_glide_hbond>  (319) 
-0.137658

>  <r_i_glide_metal>  (319) 
-0

>  <r_i_glide_rewards>  (319) 
-2.29478

>  <r_i_glide_evdw>  (319) 
-19.3611

>  <r_i_glide_ecoul>  (319) 
-2.24582

>  <r_i_glide_erotb>  (319) 
0

>  <r_i_glide_esite>  (319) 
0

>  <r_i_glide_emodel>  (319) 
-27.7545

>  <r_i_glide_energy>  (319) 
-21.6069

>  <r_i_glide_einternal>  (319) 
0.151384

>  <r_i_glide_intrahb_reward>  (319) 
-0

>  <i_i_glide_confnum>  (319) 
1

>  <i_i_glide_posenum>  (319) 
5

>  <r_i_glide_eff_state_penalty>  (319) 
0

>  <ligand_id>  (319) 
109

>  <original_smiles>  (319) 
O=C1CCC2CC3CCCC3(O)C12

>  <smiles>  (319) 
[H]OC12C([H])([H])C([H])([H])C([H])([H])C1([H])C([H])([H])C1([H])C([H])([H])C([H])([H])C(=O)C12[H]

$$$$
110:0:0
     RDKit          3D

 57 61  0  0  1  0  0  0  0  0999 V2000
   -2.6734    2.5785    7.3750 C   0  0  0  0  0  0  0  0  0  0  0  0
   -1.4869    2.8491    8.3153 C   0  0  2  0  0  0  0  0  0  0  0  0
   -1.3043    4.3600    8.5272 C   0  0  0  0  0  0  0  0  0  0  0  0
   -0.5669    5.0074    7.3525 C   0  0  0  0  0  0  0  0  0  0  0  0
    0.8268    4.3657    7.2011 C   0  0  2  0  0  0  0  0  0  0  0  0
    1.8290    5.0927    6.2681 C   0  0  2  0  0  0  0  0  0  0  0  0
    1.5735    5.0355    4.7343 C   0  0  0  0  0  0  0  0  0  0  0  0
    0.2057    4.5343    4.2812 C   0  0  0  0  0  0  0  0  0  0  0  0
   -0.5749    5.3416    3.4244 C   0  0  0  0  0  0  0  0  0  0  0  0
   -1.7825    4.8621    2.8840 C   0  0  0  0  0  0  0  0  0  0  0  0
   -2.2267    3.5545    3.1942 C   0  0  0  0  0  0  0  0  0  0  0  0
   -3.4208    2.9753    2.6817 N   0  0  0  0  0  0  0  0  0  0  0  0
   -4.4580    3.5789    2.0762 C   0  0  0  0  0  0  0  0  0  0  0  0
   -4.5868    4.7845    1.8819 O   0  0  0  0  0  0  0  0  0  0  0  0
   -1.4337    2.7460    4.0303 C   0  0  0  0  0  0  0  0  0  0  0  0
   -0.2404    3.2288    4.6094 C   0  0  0  0  0  0  0  0  0  0  0  0
    0.5926    2.3303    5.5268 C   0  0  2  0  0  0  0  0  0  0  0  0
    0.3872    0.9227    5.4027 O   0  0  0  0  0  0  0  0  0  0  0  0
   -0.5757    0.3256    6.2518 C   0  0  0  0  0  0  0  0  0  0  0  0
   -0.2472    0.6270    7.7171 C   0  0  0  0  0  0  0  0  0  0  0  0
   -0.1262    2.1330    8.0103 C   0  0  1  0  0  0  0  0  0  0  0  0
    0.8558    2.8232    6.9999 C   0  0  2  0  0  0  0  0  0  0  0  0
    2.3268    2.4493    7.3832 C   0  0  0  0  0  0  0  0  0  0  0  0
    3.4272    3.2045    6.5934 C   0  0  0  0  0  0  0  0  0  0  0  0
    3.2335    4.6801    6.5790 N   0  0  2  0  0  0  0  0  0  0  0  0
    3.8208    5.3314    7.7784 C   0  0  0  0  0  0  0  0  0  0  0  0
   -2.4572    2.8891    6.3609 H   0  0  0  0  0  0  0  0  0  0  0  0
   -3.5567    3.1331    7.6930 H   0  0  0  0  0  0  0  0  0  0  0  0
   -2.9672    1.5308    7.3710 H   0  0  0  0  0  0  0  0  0  0  0  0
   -1.8225    2.4573    9.2759 H   0  0  0  0  0  0  0  0  0  0  0  0
   -2.2695    4.8425    8.6808 H   0  0  0  0  0  0  0  0  0  0  0  0
   -0.7452    4.5284    9.4484 H   0  0  0  0  0  0  0  0  0  0  0  0
   -1.1633    4.9098    6.4508 H   0  0  0  0  0  0  0  0  0  0  0  0
   -0.4692    6.0788    7.5447 H   0  0  0  0  0  0  0  0  0  0  0  0
    1.2232    4.5366    8.2019 H   0  0  0  0  0  0  0  0  0  0  0  0
    1.7582    6.1492    6.5222 H   0  0  0  0  0  0  0  0  0  0  0  0
    1.7416    6.0315    4.3191 H   0  0  0  0  0  0  0  0  0  0  0  0
    2.3189    4.4097    4.2415 H   0  0  0  0  0  0  0  0  0  0  0  0
   -0.2095    6.3181    3.1153 H   0  0  0  0  0  0  0  0  0  0  0  0
   -2.3184    5.4883    2.1902 H   0  0  0  0  0  0  0  0  0  0  0  0
   -3.5203    1.9722    2.8069 H   0  0  0  0  0  0  0  0  0  0  0  0
   -5.2150    2.8287    1.7940 H   0  0  0  0  0  0  0  0  0  0  0  0
   -1.7615    1.7400    4.2166 H   0  0  0  0  0  0  0  0  0  0  0  0
    1.5329    2.3789    4.9934 H   0  0  0  0  0  0  0  0  0  0  0  0
   -1.5829    0.6214    5.9799 H   0  0  0  0  0  0  0  0  0  0  0  0
   -0.5339   -0.7496    6.0788 H   0  0  0  0  0  0  0  0  0  0  0  0
   -0.9882    0.1773    8.3757 H   0  0  0  0  0  0  0  0  0  0  0  0
    0.6943    0.1331    7.9552 H   0  0  0  0  0  0  0  0  0  0  0  0
    0.3693    2.1806    8.9809 H   0  0  0  0  0  0  0  0  0  0  0  0
    2.4939    2.6627    8.4411 H   0  0  0  0  0  0  0  0  0  0  0  0
    2.4994    1.3775    7.2799 H   0  0  0  0  0  0  0  0  0  0  0  0
    4.4052    2.9688    7.0154 H   0  0  0  0  0  0  0  0  0  0  0  0
    3.4903    2.8446    5.5697 H   0  0  0  0  0  0  0  0  0  0  0  0
    3.3624    4.9680    8.6991 H   0  0  0  0  0  0  0  0  0  0  0  0
    3.7131    6.4174    7.7430 H   0  0  0  0  0  0  0  0  0  0  0  0
    4.8893    5.1120    7.8449 H   0  0  0  0  0  0  0  0  0  0  0  0
    3.7938    5.0281    5.8162 H   0  0  0  0  0  0  0  0  0  0  0  0
  1  2  1  0
  1 27  1  0
  1 28  1  0
  1 29  1  0
  2 21  1  0
  2  3  1  0
  2 30  1  1
  3  4  1  0
  3 31  1  0
  3 32  1  0
  4  5  1  0
  4 33  1  0
  4 34  1  0
  5 22  1  0
  5  6  1  0
  5 35  1  1
  6 25  1  0
  6  7  1  0
  6 36  1  1
  7  8  1  0
  7 37  1  0
  7 38  1  0
  8 16  2  0
  8  9  1  0
  9 10  2  0
  9 39  1  0
 10 11  1  0
 10 40  1  0
 11 12  1  0
 11 15  2  0
 12 13  1  0
 12 41  1  0
 13 14  2  0
 13 42  1  0
 15 16  1  0
 15 43  1  0
 16 17  1  0
 17 22  1  0
 17 18  1  0
 17 44  1  6
 18 19  1  0
 19 20  1  0
 19 45  1  0
 19 46  1  0
 20 21  1  0
 20 47  1  0
 20 48  1  0
 21 22  1  0
 21 49  1  1
 22 23  1  1
 23 24  1  0
 23 50  1  0
 23 51  1  0
 24 25  1  0
 24 52  1  0
 24 53  1  0
 25 26  1  0
 25 57  1  6
 26 54  1  0
 26 55  1  0
 26 56  1  0
M  CHG  1  25   1
M  END
>  <i_m_ct_stereo_status>  (320) 
1

>  <s_m_source_file>  (320) 
/var/tmp/pbs.5076255.sched01/tmpg3p38p3m/129jed2w9rh.sdf

>  <i_m_source_file_index>  (320) 
33

>  <i_lp_mmshare_version>  (320) 
48012

>  <i_f3d_flags>  (320) 
0

>  <s_epik_input>  (320) 
W0NIMl0xW0NIMl1bQ0BASF0oW0NIM10pW0NASF0yW0NIMl1bQ0gyXU9bQ0BIXTNjKFtjSF1jKFtjSF1bY0hdNClbTkhdW0NIXT1PKWM0W0NIMl1bQ0BASF0oW0NAQEhdMVtDQEBdMjM1KU4oW0NIM10pW0NIMl1bQ0gyXTU=

>  <s_epik_cmdline>  (320) 
J2VwaWtfcHl0aG9uJywgJy1waHQnLCAnMi4wJywgJy1waCcsICc3LjAnLCAnLXRuJywgJzgnLCAnLW1hJywgJzIwMCcsICctaW1hZScsICc8aW5maWxlLm1hZT4nLCAnLW9tYWUnLCAnPG91dGZpbGUubWFlPic=

>  <r_epik_Ionization_Penalty>  (320) 
0.00281726

>  <r_epik_Ionization_Penalty_Charging>  (320) 
0.0027984

>  <r_epik_Ionization_Penalty_Neutral>  (320) 
1.88618e-05

>  <r_epik_State_Penalty>  (320) 
0.00195557

>  <r_epik_Charging_Adjusted_Penalty>  (320) 
0.00475397

>  <i_epik_Tot_Q>  (320) 
1

>  <i_epik_Tot_abs_Q>  (320) 
1

>  <s_lp_Force_Field>  (320) 
OPLS3e

>  <r_lp_Energy>  (320) 
83.9192

>  <b_lp_Chiralities_Consistent>  (320) 
1

>  <s_lp_Variant>  (320) 
110:0-1

>  <s_i_glide_gridfile>  (320) 
pfpi4k_grid

>  <i_i_glide_lignum>  (320) 
33

>  <i_i_glide_rotatable_bonds>  (320) 
2

>  <r_i_docking_score>  (320) 
-3.20122

>  <r_i_glide_ligand_efficiency>  (320) 
-0.123124

>  <r_i_glide_ligand_efficiency_sa>  (320) 
-0.364754

>  <r_i_glide_ligand_efficiency_ln>  (320) 
-0.751796

>  <r_i_glide_gscore>  (320) 
-3.20122

>  <r_i_glide_lipo>  (320) 
-0.148065

>  <r_i_glide_hbond>  (320) 
-0.32

>  <r_i_glide_metal>  (320) 
-0

>  <r_i_glide_rewards>  (320) 
-1.36468

>  <r_i_glide_evdw>  (320) 
-17.4194

>  <r_i_glide_ecoul>  (320) 
-4.23706

>  <r_i_glide_erotb>  (320) 
0.151304

>  <r_i_glide_esite>  (320) 
-0.0132543

>  <r_i_glide_emodel>  (320) 
-27.2054

>  <r_i_glide_energy>  (320) 
-21.6564

>  <r_i_glide_einternal>  (320) 
0.301049

>  <r_i_glide_intrahb_reward>  (320) 
-0

>  <i_i_glide_confnum>  (320) 
4

>  <i_i_glide_posenum>  (320) 
5

>  <r_i_glide_eff_state_penalty>  (320) 
0

>  <ligand_id>  (320) 
110

>  <original_smiles>  (320) 
CC1CCC2C3Cc4ccc(NC=O)cc4C4OCCC1C42CCN3C

>  <smiles>  (320) 
[H]C(=O)N([H])c1c([H])c([H])c2c(c1[H])C1([H])OC([H])([H])C([H])([H])C3([H])C([H])(C([H])([H])[H])C([H])([H])C([H])([H])C4([H])C13C([H])([H])C([H])([H])[N+]([H])(C([H])([H])[H])C4([H])C2([H])[H]

$$$$
110:0:1
     RDKit          3D

 57 61  0  0  1  0  0  0  0  0999 V2000
   -2.1030    1.0102    6.5626 C   0  0  0  0  0  0  0  0  0  0  0  0
   -0.7598    0.9395    7.3103 C   0  0  2  0  0  0  0  0  0  0  0  0
   -0.4328    2.2928    7.9581 C   0  0  0  0  0  0  0  0  0  0  0  0
    0.1493    3.2763    6.9404 C   0  0  0  0  0  0  0  0  0  0  0  0
    1.4484    2.6926    6.3456 C   0  0  2  0  0  0  0  0  0  0  0  0
    2.3398    3.6694    5.5295 C   0  0  2  0  0  0  0  0  0  0  0  0
    1.8333    4.1217    4.1354 C   0  0  0  0  0  0  0  0  0  0  0  0
    0.3734    3.8293    3.8102 C   0  0  0  0  0  0  0  0  0  0  0  0
   -0.4766    4.8913    3.4339 C   0  0  0  0  0  0  0  0  0  0  0  0
   -1.7835    4.6263    2.9739 C   0  0  0  0  0  0  0  0  0  0  0  0
   -2.2651    3.3031    2.9104 C   0  0  0  0  0  0  0  0  0  0  0  0
   -3.5738    2.9583    2.4794 N   0  0  0  0  0  0  0  0  0  0  0  0
   -4.5862    3.7424    2.0715 C   0  0  0  0  0  0  0  0  0  0  0  0
   -4.5954    4.9757    2.0459 O   0  0  0  0  0  0  0  0  0  0  0  0
   -1.4108    2.2482    3.2820 C   0  0  0  0  0  0  0  0  0  0  0  0
   -0.1078    2.4896    3.7642 C   0  0  0  0  0  0  0  0  0  0  0  0
    0.7941    1.3252    4.1780 C   0  0  2  0  0  0  0  0  0  0  0  0
    0.4639    0.0389    3.6507 O   0  0  0  0  0  0  0  0  0  0  0  0
   -0.3910   -0.7852    4.4211 C   0  0  0  0  0  0  0  0  0  0  0  0
    0.1869   -0.9892    5.8239 C   0  0  0  0  0  0  0  0  0  0  0  0
    0.4737    0.3365    6.5541 C   0  0  1  0  0  0  0  0  0  0  0  0
    1.3289    1.3025    5.6588 C   0  0  2  0  0  0  0  0  0  0  0  0
    2.8094    0.7984    5.6351 C   0  0  0  0  0  0  0  0  0  0  0  0
    3.8212    1.7505    4.9432 C   0  0  0  0  0  0  0  0  0  0  0  0
    3.7380    3.1489    5.4397 N   0  0  2  0  0  0  0  0  0  0  0  0
    4.5610    3.3627    6.6535 C   0  0  0  0  0  0  0  0  0  0  0  0
   -2.0274    1.6325    5.6805 H   0  0  0  0  0  0  0  0  0  0  0  0
   -2.8806    1.4529    7.1864 H   0  0  0  0  0  0  0  0  0  0  0  0
   -2.4697    0.0307    6.2605 H   0  0  0  0  0  0  0  0  0  0  0  0
   -0.9544    0.2652    8.1434 H   0  0  0  0  0  0  0  0  0  0  0  0
   -1.3204    2.7152    8.4285 H   0  0  0  0  0  0  0  0  0  0  0  0
    0.2806    2.1396    8.7693 H   0  0  0  0  0  0  0  0  0  0  0  0
   -0.5978    3.4951    6.1830 H   0  0  0  0  0  0  0  0  0  0  0  0
    0.3574    4.2219    7.4469 H   0  0  0  0  0  0  0  0  0  0  0  0
    2.0130    2.5211    7.2600 H   0  0  0  0  0  0  0  0  0  0  0  0
    2.3894    4.5821    6.1172 H   0  0  0  0  0  0  0  0  0  0  0  0
    2.0044    5.1977    4.0325 H   0  0  0  0  0  0  0  0  0  0  0  0
    2.4366    3.6795    3.3390 H   0  0  0  0  0  0  0  0  0  0  0  0
   -0.0989    5.9037    3.3694 H   0  0  0  0  0  0  0  0  0  0  0  0
   -2.3636    5.4453    2.5926 H   0  0  0  0  0  0  0  0  0  0  0  0
   -3.7725    1.9629    2.4604 H   0  0  0  0  0  0  0  0  0  0  0  0
   -5.4411    3.1185    1.7837 H   0  0  0  0  0  0  0  0  0  0  0  0
   -1.7774    1.2401    3.1922 H   0  0  0  0  0  0  0  0  0  0  0  0
    1.6339    1.5297    3.5288 H   0  0  0  0  0  0  0  0  0  0  0  0
   -1.4051   -0.4013    4.4391 H   0  0  0  0  0  0  0  0  0  0  0  0
   -0.4549   -1.7453    3.9114 H   0  0  0  0  0  0  0  0  0  0  0  0
   -0.4778   -1.6201    6.4120 H   0  0  0  0  0  0  0  0  0  0  0  0
    1.1157   -1.5512    5.7182 H   0  0  0  0  0  0  0  0  0  0  0  0
    1.1237    0.0541    7.3829 H   0  0  0  0  0  0  0  0  0  0  0  0
    3.1637    0.6500    6.6556 H   0  0  0  0  0  0  0  0  0  0  0  0
    2.8827   -0.1841    5.1665 H   0  0  0  0  0  0  0  0  0  0  0  0
    4.8325    1.3725    5.0850 H   0  0  0  0  0  0  0  0  0  0  0  0
    3.6922    1.7453    3.8666 H   0  0  0  0  0  0  0  0  0  0  0  0
    4.2332    2.7260    7.4773 H   0  0  0  0  0  0  0  0  0  0  0  0
    4.5318    4.3994    6.9919 H   0  0  0  0  0  0  0  0  0  0  0  0
    5.6065    3.1139    6.4601 H   0  0  0  0  0  0  0  0  0  0  0  0
    4.1905    3.7185    4.7345 H   0  0  0  0  0  0  0  0  0  0  0  0
  1  2  1  0
  1 27  1  0
  1 28  1  0
  1 29  1  0
  2 21  1  0
  2  3  1  0
  2 30  1  1
  3  4  1  0
  3 31  1  0
  3 32  1  0
  4  5  1  0
  4 33  1  0
  4 34  1  0
  5 22  1  0
  5  6  1  0
  5 35  1  1
  6 25  1  0
  6  7  1  0
  6 36  1  1
  7  8  1  0
  7 37  1  0
  7 38  1  0
  8 16  2  0
  8  9  1  0
  9 10  2  0
  9 39  1  0
 10 11  1  0
 10 40  1  0
 11 12  1  0
 11 15  2  0
 12 13  1  0
 12 41  1  0
 13 14  2  0
 13 42  1  0
 15 16  1  0
 15 43  1  0
 16 17  1  0
 17 22  1  0
 17 18  1  0
 17 44  1  6
 18 19  1  0
 19 20  1  0
 19 45  1  0
 19 46  1  0
 20 21  1  0
 20 47  1  0
 20 48  1  0
 21 22  1  0
 21 49  1  1
 22 23  1  6
 23 24  1  0
 23 50  1  0
 23 51  1  0
 24 25  1  0
 24 52  1  0
 24 53  1  0
 25 26  1  0
 25 57  1  6
 26 54  1  0
 26 55  1  0
 26 56  1  0
M  CHG  1  25   1
M  END
>  <i_m_ct_stereo_status>  (321) 
1

>  <s_m_source_file>  (321) 
/var/tmp/pbs.5076255.sched01/tmpg3p38p3m/129jed2w9rh.sdf

>  <i_m_source_file_index>  (321) 
33

>  <i_lp_mmshare_version>  (321) 
48012

>  <i_f3d_flags>  (321) 
0

>  <s_epik_input>  (321) 
W0NIMl0xW0NIMl1bQ0BASF0oW0NIM10pW0NASF0yW0NIMl1bQ0gyXU9bQ0BIXTNjKFtjSF1jKFtjSF1bY0hdNClbTkhdW0NIXT1PKWM0W0NIMl1bQ0BASF0oW0NAQEhdMVtDQEBdMjM1KU4oW0NIM10pW0NIMl1bQ0gyXTU=

>  <s_epik_cmdline>  (321) 
J2VwaWtfcHl0aG9uJywgJy1waHQnLCAnMi4wJywgJy1waCcsICc3LjAnLCAnLXRuJywgJzgnLCAnLW1hJywgJzIwMCcsICctaW1hZScsICc8aW5maWxlLm1hZT4nLCAnLW9tYWUnLCAnPG91dGZpbGUubWFlPic=

>  <r_epik_Ionization_Penalty>  (321) 
0.00281726

>  <r_epik_Ionization_Penalty_Charging>  (321) 
0.0027984

>  <r_epik_Ionization_Penalty_Neutral>  (321) 
1.88618e-05

>  <r_epik_State_Penalty>  (321) 
0.00195557

>  <r_epik_Charging_Adjusted_Penalty>  (321) 
0.00475397

>  <i_epik_Tot_Q>  (321) 
1

>  <i_epik_Tot_abs_Q>  (321) 
1

>  <s_lp_Force_Field>  (321) 
OPLS3e

>  <r_lp_Energy>  (321) 
83.9192

>  <b_lp_Chiralities_Consistent>  (321) 
1

>  <s_lp_Variant>  (321) 
110:0-1

>  <s_i_glide_gridfile>  (321) 
pfpi4k_grid

>  <i_i_glide_lignum>  (321) 
33

>  <i_i_glide_rotatable_bonds>  (321) 
2

>  <r_i_docking_score>  (321) 
-3.1634

>  <r_i_glide_ligand_efficiency>  (321) 
-0.121669

>  <r_i_glide_ligand_efficiency_sa>  (321) 
-0.360445

>  <r_i_glide_ligand_efficiency_ln>  (321) 
-0.742914

>  <r_i_glide_gscore>  (321) 
-3.1634

>  <r_i_glide_lipo>  (321) 
-0.00285452

>  <r_i_glide_hbond>  (321) 
-0.32

>  <r_i_glide_metal>  (321) 
-0

>  <r_i_glide_rewards>  (321) 
-1.36893

>  <r_i_glide_evdw>  (321) 
-19.197

>  <r_i_glide_ecoul>  (321) 
-4.37302

>  <r_i_glide_erotb>  (321) 
0.151304

>  <r_i_glide_esite>  (321) 
-0.00711559

>  <r_i_glide_emodel>  (321) 
-29.0604

>  <r_i_glide_energy>  (321) 
-23.57

>  <r_i_glide_einternal>  (321) 
0.220937

>  <r_i_glide_intrahb_reward>  (321) 
-0

>  <i_i_glide_confnum>  (321) 
4

>  <i_i_glide_posenum>  (321) 
40

>  <r_i_glide_eff_state_penalty>  (321) 
0

>  <ligand_id>  (321) 
110

>  <original_smiles>  (321) 
CC1CCC2C3Cc4ccc(NC=O)cc4C4OCCC1C42CCN3C

>  <smiles>  (321) 
[H]C(=O)N([H])c1c([H])c([H])c2c(c1[H])C1([H])OC([H])([H])C([H])([H])C3([H])C([H])(C([H])([H])[H])C([H])([H])C([H])([H])C4([H])C13C([H])([H])C([H])([H])[N+]([H])(C([H])([H])[H])C4([H])C2([H])[H]

$$$$
110:0:2
     RDKit          3D

 57 61  0  0  1  0  0  0  0  0999 V2000
    0.7550   -1.1064    6.9527 C   0  0  0  0  0  0  0  0  0  0  0  0
   -0.4267   -0.1256    6.8724 C   0  0  2  0  0  0  0  0  0  0  0  0
   -1.4319   -0.5827    5.8024 C   0  0  0  0  0  0  0  0  0  0  0  0
   -0.9629   -0.1848    4.4016 C   0  0  0  0  0  0  0  0  0  0  0  0
   -0.8255    1.3479    4.3177 C   0  0  2  0  0  0  0  0  0  0  0  0
   -0.6624    1.9527    2.8977 C   0  0  2  0  0  0  0  0  0  0  0  0
    0.6932    1.7450    2.1655 C   0  0  0  0  0  0  0  0  0  0  0  0
    1.6531    0.7137    2.7487 C   0  0  0  0  0  0  0  0  0  0  0  0
    2.1303   -0.3245    1.9213 C   0  0  0  0  0  0  0  0  0  0  0  0
    3.0804   -1.2424    2.3936 C   0  0  0  0  0  0  0  0  0  0  0  0
    3.6070   -1.1116    3.6978 C   0  0  0  0  0  0  0  0  0  0  0  0
    4.5961   -1.9680    4.2522 N   0  0  0  0  0  0  0  0  0  0  0  0
    5.0080   -3.1797    3.8293 C   0  0  0  0  0  0  0  0  0  0  0  0
    4.6351   -3.7600    2.8150 O   0  0  0  0  0  0  0  0  0  0  0  0
    3.1520   -0.0565    4.5094 C   0  0  0  0  0  0  0  0  0  0  0  0
    2.1499    0.8366    4.0730 C   0  0  0  0  0  0  0  0  0  0  0  0
    1.6617    1.9646    4.9834 C   0  0  2  0  0  0  0  0  0  0  0  0
    2.5381    2.3544    6.0406 O   0  0  0  0  0  0  0  0  0  0  0  0
    2.3675    1.7258    7.2994 C   0  0  0  0  0  0  0  0  0  0  0  0
    0.9293    1.9015    7.7929 C   0  0  0  0  0  0  0  0  0  0  0  0
   -0.1182    1.4033    6.7785 C   0  0  1  0  0  0  0  0  0  0  0  0
    0.1321    2.0085    5.3528 C   0  0  2  0  0  0  0  0  0  0  0  0
   -0.3287    3.5043    5.3460 C   0  0  0  0  0  0  0  0  0  0  0  0
   -0.3178    4.1861    3.9484 C   0  0  0  0  0  0  0  0  0  0  0  0
   -1.0249    3.4008    2.8931 N   0  0  2  0  0  0  0  0  0  0  0  0
   -2.4863    3.6749    2.8891 C   0  0  0  0  0  0  0  0  0  0  0  0
    1.3865   -1.0423    6.0748 H   0  0  0  0  0  0  0  0  0  0  0  0
    0.4096   -2.1399    7.0141 H   0  0  0  0  0  0  0  0  0  0  0  0
    1.3631   -0.9432    7.8416 H   0  0  0  0  0  0  0  0  0  0  0  0
   -0.9194   -0.2370    7.8327 H   0  0  0  0  0  0  0  0  0  0  0  0
   -1.5809   -1.6624    5.8483 H   0  0  0  0  0  0  0  0  0  0  0  0
   -2.4075   -0.1368    5.9972 H   0  0  0  0  0  0  0  0  0  0  0  0
   -0.0372   -0.7032    4.1650 H   0  0  0  0  0  0  0  0  0  0  0  0
   -1.7014   -0.5263    3.6784 H   0  0  0  0  0  0  0  0  0  0  0  0
   -1.8298    1.6461    4.6206 H   0  0  0  0  0  0  0  0  0  0  0  0
   -1.4037    1.4544    2.2724 H   0  0  0  0  0  0  0  0  0  0  0  0
    0.4739    1.4879    1.1282 H   0  0  0  0  0  0  0  0  0  0  0  0
    1.2476    2.6808    2.1010 H   0  0  0  0  0  0  0  0  0  0  0  0
    1.8089   -0.4031    0.8920 H   0  0  0  0  0  0  0  0  0  0  0  0
    3.4200   -2.0085    1.7172 H   0  0  0  0  0  0  0  0  0  0  0  0
    5.0004   -1.6662    5.1240 H   0  0  0  0  0  0  0  0  0  0  0  0
    5.7604   -3.5802    4.5233 H   0  0  0  0  0  0  0  0  0  0  0  0
    3.5822    0.0551    5.4877 H   0  0  0  0  0  0  0  0  0  0  0  0
    1.8609    2.8018    4.3257 H   0  0  0  0  0  0  0  0  0  0  0  0
    2.6672    0.6845    7.2654 H   0  0  0  0  0  0  0  0  0  0  0  0
    3.0558    2.2015    7.9990 H   0  0  0  0  0  0  0  0  0  0  0  0
    0.8027    1.4030    8.7532 H   0  0  0  0  0  0  0  0  0  0  0  0
    0.7711    2.9629    7.9832 H   0  0  0  0  0  0  0  0  0  0  0  0
   -1.0566    1.8398    7.1226 H   0  0  0  0  0  0  0  0  0  0  0  0
   -1.3485    3.5722    5.7352 H   0  0  0  0  0  0  0  0  0  0  0  0
    0.2760    4.0996    6.0334 H   0  0  0  0  0  0  0  0  0  0  0  0
   -0.7646    5.1782    4.0346 H   0  0  0  0  0  0  0  0  0  0  0  0
    0.7007    4.3863    3.6197 H   0  0  0  0  0  0  0  0  0  0  0  0
   -2.9504    3.4117    3.8414 H   0  0  0  0  0  0  0  0  0  0  0  0
   -2.9998    3.1307    2.0945 H   0  0  0  0  0  0  0  0  0  0  0  0
   -2.6700    4.7390    2.7271 H   0  0  0  0  0  0  0  0  0  0  0  0
   -0.6658    3.7645    2.0002 H   0  0  0  0  0  0  0  0  0  0  0  0
  1  2  1  0
  1 27  1  0
  1 28  1  0
  1 29  1  0
  2 21  1  0
  2  3  1  0
  2 30  1  1
  3  4  1  0
  3 31  1  0
  3 32  1  0
  4  5  1  0
  4 33  1  0
  4 34  1  0
  5 22  1  0
  5  6  1  0
  5 35  1  1
  6 25  1  0
  6  7  1  0
  6 36  1  6
  7  8  1  0
  7 37  1  0
  7 38  1  0
  8 16  2  0
  8  9  1  0
  9 10  2  0
  9 39  1  0
 10 11  1  0
 10 40  1  0
 11 12  1  0
 11 15  2  0
 12 13  1  0
 12 41  1  0
 13 14  2  0
 13 42  1  0
 15 16  1  0
 15 43  1  0
 16 17  1  0
 17 22  1  0
 17 18  1  0
 17 44  1  6
 18 19  1  0
 19 20  1  0
 19 45  1  0
 19 46  1  0
 20 21  1  0
 20 47  1  0
 20 48  1  0
 21 22  1  0
 21 49  1  1
 22 23  1  1
 23 24  1  0
 23 50  1  0
 23 51  1  0
 24 25  1  0
 24 52  1  0
 24 53  1  0
 25 26  1  0
 25 57  1  6
 26 54  1  0
 26 55  1  0
 26 56  1  0
M  CHG  1  25   1
M  END
>  <i_m_ct_stereo_status>  (322) 
1

>  <s_m_source_file>  (322) 
/var/tmp/pbs.5076255.sched01/tmpg3p38p3m/129jed2w9rh.sdf

>  <i_m_source_file_index>  (322) 
33

>  <i_lp_mmshare_version>  (322) 
48012

>  <i_f3d_flags>  (322) 
0

>  <s_epik_input>  (322) 
W0NIMl0xW0NIMl1bQ0BASF0oW0NIM10pW0NASF0yW0NIMl1bQ0gyXU9bQ0BIXTNjKFtjSF1jKFtjSF1bY0hdNClbTkhdW0NIXT1PKWM0W0NIMl1bQ0BASF0oW0NAQEhdMVtDQEBdMjM1KU4oW0NIM10pW0NIMl1bQ0gyXTU=

>  <s_epik_cmdline>  (322) 
J2VwaWtfcHl0aG9uJywgJy1waHQnLCAnMi4wJywgJy1waCcsICc3LjAnLCAnLXRuJywgJzgnLCAnLW1hJywgJzIwMCcsICctaW1hZScsICc8aW5maWxlLm1hZT4nLCAnLW9tYWUnLCAnPG91dGZpbGUubWFlPic=

>  <r_epik_Ionization_Penalty>  (322) 
0.00281726

>  <r_epik_Ionization_Penalty_Charging>  (322) 
0.0027984

>  <r_epik_Ionization_Penalty_Neutral>  (322) 
1.88618e-05

>  <r_epik_State_Penalty>  (322) 
0.00195557

>  <r_epik_Charging_Adjusted_Penalty>  (322) 
0.00475397

>  <i_epik_Tot_Q>  (322) 
1

>  <i_epik_Tot_abs_Q>  (322) 
1

>  <s_lp_Force_Field>  (322) 
OPLS3e

>  <r_lp_Energy>  (322) 
83.9192

>  <b_lp_Chiralities_Consistent>  (322) 
1

>  <s_lp_Variant>  (322) 
110:0-1

>  <s_i_glide_gridfile>  (322) 
pfpi4k_grid

>  <i_i_glide_lignum>  (322) 
33

>  <i_i_glide_rotatable_bonds>  (322) 
2

>  <r_i_docking_score>  (322) 
-2.67934

>  <r_i_glide_ligand_efficiency>  (322) 
-0.103051

>  <r_i_glide_ligand_efficiency_sa>  (322) 
-0.30529

>  <r_i_glide_ligand_efficiency_ln>  (322) 
-0.629234

>  <r_i_glide_gscore>  (322) 
-2.67934

>  <r_i_glide_lipo>  (322) 
-0.0026914

>  <r_i_glide_hbond>  (322) 
-0.2

>  <r_i_glide_metal>  (322) 
-0

>  <r_i_glide_rewards>  (322) 
-1.0417

>  <r_i_glide_evdw>  (322) 
-17.534

>  <r_i_glide_ecoul>  (322) 
-4.06364

>  <r_i_glide_erotb>  (322) 
0.151304

>  <r_i_glide_esite>  (322) 
-0.1

>  <r_i_glide_emodel>  (322) 
-26.1967

>  <r_i_glide_energy>  (322) 
-21.5977

>  <r_i_glide_einternal>  (322) 
0.269518

>  <r_i_glide_intrahb_reward>  (322) 
-0

>  <i_i_glide_confnum>  (322) 
4

>  <i_i_glide_posenum>  (322) 
21

>  <r_i_glide_eff_state_penalty>  (322) 
0

>  <ligand_id>  (322) 
110

>  <original_smiles>  (322) 
CC1CCC2C3Cc4ccc(NC=O)cc4C4OCCC1C42CCN3C

>  <smiles>  (322) 
[H]C(=O)N([H])c1c([H])c([H])c2c(c1[H])C1([H])OC([H])([H])C([H])([H])C3([H])C([H])(C([H])([H])[H])C([H])([H])C([H])([H])C4([H])C13C([H])([H])C([H])([H])[N+]([H])(C([H])([H])[H])C4([H])C2([H])[H]

$$$$
111:0:0
     RDKit          3D

 30 34  0  0  1  0  0  0  0  0999 V2000
    5.0976   -0.2273    1.0527 C   0  0  0  0  0  0  0  0  0  0  0  0
    5.9875   -1.2026    0.5350 O   0  0  0  0  0  0  0  0  0  0  0  0
    5.4050   -2.0483   -0.4717 C   0  0  1  0  0  0  0  0  0  0  0  0
    5.1118   -1.3507   -1.9004 C   0  0  2  0  0  0  0  0  0  0  0  0
    3.6894   -0.9329   -2.4438 C   0  0  0  0  0  0  0  0  0  0  0  0
    3.1122   -1.8404   -3.5889 C   0  0  0  0  0  0  0  0  0  0  0  0
    3.5726   -3.0682   -3.9248 C   0  0  0  0  0  0  0  0  0  0  0  0
    4.8536   -3.7282   -3.2749 C   0  0  1  0  0  0  0  0  0  0  0  0
    5.3636   -2.6125   -2.5446 C   0  0  2  0  0  0  0  0  0  0  0  0
    4.2319   -3.3785   -1.4941 C   0  0  1  0  0  0  0  0  0  0  0  0
    5.1607   -4.3449   -1.7417 C   0  0  2  0  0  0  0  0  0  0  0  0
    5.9265   -3.6314   -0.4532 C   0  0  2  0  0  0  0  0  0  0  0  0
    5.1406   -3.7249    0.8266 C   0  0  0  0  0  0  0  0  0  0  0  0
    4.2576   -2.8861   -0.0818 C   0  0  1  0  0  0  0  0  0  0  0  0
    5.6339    0.4305    1.7375 H   0  0  0  0  0  0  0  0  0  0  0  0
    4.2978   -0.6777    1.6376 H   0  0  0  0  0  0  0  0  0  0  0  0
    4.6430    0.3658    0.2581 H   0  0  0  0  0  0  0  0  0  0  0  0
    5.8411   -0.5873   -2.1657 H   0  0  0  0  0  0  0  0  0  0  0  0
    2.9900   -0.9080   -1.6137 H   0  0  0  0  0  0  0  0  0  0  0  0
    3.7476    0.0689   -2.8584 H   0  0  0  0  0  0  0  0  0  0  0  0
    2.2251   -1.4455   -4.0714 H   0  0  0  0  0  0  0  0  0  0  0  0
    3.0783   -3.6817   -4.6608 H   0  0  0  0  0  0  0  0  0  0  0  0
    5.5610   -4.0797   -4.0212 H   0  0  0  0  0  0  0  0  0  0  0  0
    6.4646   -2.7731   -2.5802 H   0  0  0  0  0  0  0  0  0  0  0  0
    3.1999   -3.7059   -1.7205 H   0  0  0  0  0  0  0  0  0  0  0  0
    4.7340   -5.3234   -1.5430 H   0  0  0  0  0  0  0  0  0  0  0  0
    7.0019   -3.7661   -0.3631 H   0  0  0  0  0  0  0  0  0  0  0  0
    4.7493   -4.7133    1.0530 H   0  0  0  0  0  0  0  0  0  0  0  0
    5.6138   -3.2298    1.6841 H   0  0  0  0  0  0  0  0  0  0  0  0
    3.3644   -2.4083    0.3134 H   0  0  0  0  0  0  0  0  0  0  0  0
  1  2  1  0
  1 15  1  0
  1 16  1  0
  1 17  1  0
  3  2  1  1
  3 12  1  0
  3 14  1  0
  3  4  1  0
  4  9  1  0
  4  5  1  0
  4 18  1  6
  5  6  1  0
  5 19  1  0
  5 20  1  0
  6  7  2  0
  6 21  1  0
  7  8  1  0
  7 22  1  0
  8 11  1  0
  8  9  1  0
  8 23  1  6
  9 10  1  0
  9 24  1  1
 10 14  1  0
 10 11  1  0
 10 25  1  6
 11 12  1  0
 11 26  1  6
 12 13  1  0
 12 27  1  1
 13 14  1  0
 13 28  1  0
 13 29  1  0
 14 30  1  1
M  END
>  <i_m_ct_stereo_status>  (323) 
1

>  <s_m_source_file>  (323) 
/var/tmp/pbs.5076255.sched01/tmpg3p38p3m/129jed2w9rh.sdf

>  <i_m_source_file_index>  (323) 
34

>  <i_lp_mmshare_version>  (323) 
48012

>  <i_f3d_flags>  (323) 
0

>  <s_epik_input>  (323) 
W0NIM11PW0NAQF0xMltDQEhdM1tDQEBIXTRbQ0BIXShbQ0hdPVtDSF1bQ0gyXTMpW0NAQEhdNVtDQEhdNFtDQEhdMltDSDJdW0NASF0xNQ==

>  <s_epik_cmdline>  (323) 
J2VwaWtfcHl0aG9uJywgJy1waHQnLCAnMi4wJywgJy1waCcsICc3LjAnLCAnLXRuJywgJzgnLCAnLW1hJywgJzIwMCcsICctaW1hZScsICc8aW5maWxlLm1hZT4nLCAnLW9tYWUnLCAnPG91dGZpbGUubWFlPic=

>  <r_lp_tautomer_probability>  (323) 
1

>  <r_epik_Ionization_Penalty>  (323) 
8.18052e-11

>  <r_epik_Ionization_Penalty_Charging>  (323) 
0

>  <r_epik_Ionization_Penalty_Neutral>  (323) 
8.18052e-11

>  <r_epik_State_Penalty>  (323) 
-0

>  <r_epik_Charging_Adjusted_Penalty>  (323) 
0

>  <i_epik_Tot_Q>  (323) 
0

>  <i_epik_Tot_abs_Q>  (323) 
0

>  <s_lp_Force_Field>  (323) 
OPLS3e

>  <r_lp_Energy>  (323) 
248.045

>  <b_lp_Chiralities_Consistent>  (323) 
1

>  <s_lp_Variant>  (323) 
111:0-1

>  <s_i_glide_gridfile>  (323) 
pfpi4k_grid

>  <i_i_glide_lignum>  (323) 
34

>  <i_i_glide_rotatable_bonds>  (323) 
1

>  <r_i_docking_score>  (323) 
-3.8062

>  <r_i_glide_ligand_efficiency>  (323) 
-0.271872

>  <r_i_glide_ligand_efficiency_sa>  (323) 
-0.655249

>  <r_i_glide_ligand_efficiency_ln>  (323) 
-1.04593

>  <r_i_glide_gscore>  (323) 
-3.8062

>  <r_i_glide_lipo>  (323) 
-0.786973

>  <r_i_glide_hbond>  (323) 
0

>  <r_i_glide_metal>  (323) 
-0

>  <r_i_glide_rewards>  (323) 
-2.12546

>  <r_i_glide_evdw>  (323) 
-16.791

>  <r_i_glide_ecoul>  (323) 
-0.361453

>  <r_i_glide_erotb>  (323) 
0

>  <r_i_glide_esite>  (323) 
0

>  <r_i_glide_emodel>  (323) 
-19.8085

>  <r_i_glide_energy>  (323) 
-17.1524

>  <r_i_glide_einternal>  (323) 
2.92262

>  <r_i_glide_intrahb_reward>  (323) 
-0

>  <i_i_glide_confnum>  (323) 
2

>  <i_i_glide_posenum>  (323) 
13

>  <r_i_glide_eff_state_penalty>  (323) 
0

>  <ligand_id>  (323) 
111

>  <original_smiles>  (323) 
COC12C3CC=CC4C3C3C4C1CC32

>  <smiles>  (323) 
[H]C1=C([H])C2([H])C3([H])C4([H])C2([H])C2([H])C([H])([H])C4([H])C2(OC([H])([H])[H])C3([H])C1([H])[H]

$$$$
111:0:1
     RDKit          3D

 30 34  0  0  1  0  0  0  0  0999 V2000
    3.9671   -0.0369    1.0986 C   0  0  0  0  0  0  0  0  0  0  0  0
    4.8125   -1.1740    1.1857 O   0  0  0  0  0  0  0  0  0  0  0  0
    4.6886   -2.0522    0.0595 C   0  0  1  0  0  0  0  0  0  0  0  0
    4.8295   -1.3553   -1.4023 C   0  0  2  0  0  0  0  0  0  0  0  0
    3.6399   -1.0256   -2.4091 C   0  0  0  0  0  0  0  0  0  0  0  0
    3.5517   -1.9432   -3.6770 C   0  0  0  0  0  0  0  0  0  0  0  0
    4.1961   -3.1467   -3.8160 C   0  0  0  0  0  0  0  0  0  0  0  0
    5.2132   -3.7184   -2.7614 C   0  0  1  0  0  0  0  0  0  0  0  0
    5.3650   -2.5798   -1.8946 C   0  0  2  0  0  0  0  0  0  0  0  0
    3.9968   -3.4199   -1.2814 C   0  0  1  0  0  0  0  0  0  0  0  0
    5.0179   -4.3512   -1.2032 C   0  0  2  0  0  0  0  0  0  0  0  0
    5.2553   -3.6163    0.2527 C   0  0  2  0  0  0  0  0  0  0  0  0
    4.0767   -3.7806    1.1933 C   0  0  0  0  0  0  0  0  0  0  0  0
    3.5154   -2.9427    0.0534 C   0  0  1  0  0  0  0  0  0  0  0  0
    4.0871    0.5890    1.9786 H   0  0  0  0  0  0  0  0  0  0  0  0
    2.9148   -0.3200    1.0198 H   0  0  0  0  0  0  0  0  0  0  0  0
    4.2174    0.5696    0.2293 H   0  0  0  0  0  0  0  0  0  0  0  0
    5.5783   -0.5638   -1.4098 H   0  0  0  0  0  0  0  0  0  0  0  0
    2.6769   -1.0585   -1.8922 H   0  0  0  0  0  0  0  0  0  0  0  0
    3.7547   -0.0026   -2.7672 H   0  0  0  0  0  0  0  0  0  0  0  0
    2.8569   -1.6131   -4.4318 H   0  0  0  0  0  0  0  0  0  0  0  0
    4.0427   -3.7720   -4.6833 H   0  0  0  0  0  0  0  0  0  0  0  0
    6.1744   -3.9656   -3.2016 H   0  0  0  0  0  0  0  0  0  0  0  0
    6.4140   -2.6451   -1.5466 H   0  0  0  0  0  0  0  0  0  0  0  0
    3.1195   -3.7873   -1.8374 H   0  0  0  0  0  0  0  0  0  0  0  0
    4.6194   -5.3640   -1.1625 H   0  0  0  0  0  0  0  0  0  0  0  0
    6.2452   -3.7101    0.7059 H   0  0  0  0  0  0  0  0  0  0  0  0
    3.6947   -4.7996    1.2406 H   0  0  0  0  0  0  0  0  0  0  0  0
    4.1837   -3.3068    2.1676 H   0  0  0  0  0  0  0  0  0  0  0  0
    2.5388   -2.4597    0.1558 H   0  0  0  0  0  0  0  0  0  0  0  0
  1  2  1  0
  1 15  1  0
  1 16  1  0
  1 17  1  0
  3  2  1  1
  3 12  1  0
  3 14  1  0
  3  4  1  0
  4  9  1  0
  4  5  1  0
  4 18  1  1
  5  6  1  0
  5 19  1  0
  5 20  1  0
  6  7  2  0
  6 21  1  0
  7  8  1  0
  7 22  1  0
  8 11  1  0
  8  9  1  0
  8 23  1  6
  9 10  1  0
  9 24  1  1
 10 14  1  0
 10 11  1  0
 10 25  1  6
 11 12  1  0
 11 26  1  6
 12 13  1  0
 12 27  1  1
 13 14  1  0
 13 28  1  0
 13 29  1  0
 14 30  1  6
M  END
>  <i_m_ct_stereo_status>  (324) 
1

>  <s_m_source_file>  (324) 
/var/tmp/pbs.5076255.sched01/tmpg3p38p3m/129jed2w9rh.sdf

>  <i_m_source_file_index>  (324) 
34

>  <i_lp_mmshare_version>  (324) 
48012

>  <i_f3d_flags>  (324) 
0

>  <s_epik_input>  (324) 
W0NIM11PW0NAQF0xMltDQEhdM1tDQEBIXTRbQ0BIXShbQ0hdPVtDSF1bQ0gyXTMpW0NAQEhdNVtDQEhdNFtDQEhdMltDSDJdW0NASF0xNQ==

>  <s_epik_cmdline>  (324) 
J2VwaWtfcHl0aG9uJywgJy1waHQnLCAnMi4wJywgJy1waCcsICc3LjAnLCAnLXRuJywgJzgnLCAnLW1hJywgJzIwMCcsICctaW1hZScsICc8aW5maWxlLm1hZT4nLCAnLW9tYWUnLCAnPG91dGZpbGUubWFlPic=

>  <r_lp_tautomer_probability>  (324) 
1

>  <r_epik_Ionization_Penalty>  (324) 
8.18052e-11

>  <r_epik_Ionization_Penalty_Charging>  (324) 
0

>  <r_epik_Ionization_Penalty_Neutral>  (324) 
8.18052e-11

>  <r_epik_State_Penalty>  (324) 
-0

>  <r_epik_Charging_Adjusted_Penalty>  (324) 
0

>  <i_epik_Tot_Q>  (324) 
0

>  <i_epik_Tot_abs_Q>  (324) 
0

>  <s_lp_Force_Field>  (324) 
OPLS3e

>  <r_lp_Energy>  (324) 
248.045

>  <b_lp_Chiralities_Consistent>  (324) 
1

>  <s_lp_Variant>  (324) 
111:0-1

>  <s_i_glide_gridfile>  (324) 
pfpi4k_grid

>  <i_i_glide_lignum>  (324) 
34

>  <i_i_glide_rotatable_bonds>  (324) 
1

>  <r_i_docking_score>  (324) 
-3.61609

>  <r_i_glide_ligand_efficiency>  (324) 
-0.258292

>  <r_i_glide_ligand_efficiency_sa>  (324) 
-0.622522

>  <r_i_glide_ligand_efficiency_ln>  (324) 
-0.99369

>  <r_i_glide_gscore>  (324) 
-3.61609

>  <r_i_glide_lipo>  (324) 
-0.538295

>  <r_i_glide_hbond>  (324) 
0

>  <r_i_glide_metal>  (324) 
-0

>  <r_i_glide_rewards>  (324) 
-2.12546

>  <r_i_glide_evdw>  (324) 
-17.1892

>  <r_i_glide_ecoul>  (324) 
-0.61919

>  <r_i_glide_erotb>  (324) 
0

>  <r_i_glide_esite>  (324) 
0

>  <r_i_glide_emodel>  (324) 
-20.8424

>  <r_i_glide_energy>  (324) 
-17.8084

>  <r_i_glide_einternal>  (324) 
1.75922

>  <r_i_glide_intrahb_reward>  (324) 
-0

>  <i_i_glide_confnum>  (324) 
2

>  <i_i_glide_posenum>  (324) 
26

>  <r_i_glide_eff_state_penalty>  (324) 
0

>  <ligand_id>  (324) 
111

>  <original_smiles>  (324) 
COC12C3CC=CC4C3C3C4C1CC32

>  <smiles>  (324) 
[H]C1=C([H])C2([H])C3([H])C4([H])C2([H])C2([H])C([H])([H])C4([H])C2(OC([H])([H])[H])C3([H])C1([H])[H]

$$$$
111:0:2
     RDKit          3D

 30 34  0  0  1  0  0  0  0  0999 V2000
    6.1632   -1.0070    1.6295 C   0  0  0  0  0  0  0  0  0  0  0  0
    4.8151   -1.1565    1.2062 O   0  0  0  0  0  0  0  0  0  0  0  0
    4.6745   -2.0232    0.0837 C   0  0  1  0  0  0  0  0  0  0  0  0
    4.8131   -1.3212   -1.3823 C   0  0  2  0  0  0  0  0  0  0  0  0
    3.6353   -0.9456   -2.3939 C   0  0  0  0  0  0  0  0  0  0  0  0
    3.4888   -1.8684   -3.6571 C   0  0  0  0  0  0  0  0  0  0  0  0
    4.0633   -3.1089   -3.7981 C   0  0  0  0  0  0  0  0  0  0  0  0
    5.0562   -3.7159   -2.7381 C   0  0  1  0  0  0  0  0  0  0  0  0
    5.2814   -2.5758   -1.8838 C   0  0  2  0  0  0  0  0  0  0  0  0
    3.8708   -3.3299   -1.2559 C   0  0  1  0  0  0  0  0  0  0  0  0
    4.8283   -4.3311   -1.1811 C   0  0  2  0  0  0  0  0  0  0  0  0
    5.1320   -3.6178    0.2622 C   0  0  2  0  0  0  0  0  0  0  0  0
    3.9492   -3.7026    1.2147 C   0  0  0  0  0  0  0  0  0  0  0  0
    3.4402   -2.8184    0.0790 C   0  0  1  0  0  0  0  0  0  0  0  0
    6.2082   -0.2717    2.4290 H   0  0  0  0  0  0  0  0  0  0  0  0
    6.8032   -0.6645    0.8173 H   0  0  0  0  0  0  0  0  0  0  0  0
    6.5667   -1.9386    2.0209 H   0  0  0  0  0  0  0  0  0  0  0  0
    5.5908   -0.5590   -1.3934 H   0  0  0  0  0  0  0  0  0  0  0  0
    2.6684   -0.9230   -1.8838 H   0  0  0  0  0  0  0  0  0  0  0  0
    3.8051    0.0619   -2.7756 H   0  0  0  0  0  0  0  0  0  0  0  0
    2.8086   -1.5052   -4.4173 H   0  0  0  0  0  0  0  0  0  0  0  0
    3.8712   -3.7317   -4.6561 H   0  0  0  0  0  0  0  0  0  0  0  0
    5.9779   -4.0544   -3.1916 H   0  0  0  0  0  0  0  0  0  0  0  0
    6.3299   -2.7062   -1.5471 H   0  0  0  0  0  0  0  0  0  0  0  0
    2.9679   -3.6637   -1.8013 H   0  0  0  0  0  0  0  0  0  0  0  0
    4.3977   -5.3217   -1.1124 H   0  0  0  0  0  0  0  0  0  0  0  0
    6.1146   -3.7913    0.7104 H   0  0  0  0  0  0  0  0  0  0  0  0
    3.4950   -4.6919    1.2622 H   0  0  0  0  0  0  0  0  0  0  0  0
    4.0883   -3.2303    2.1879 H   0  0  0  0  0  0  0  0  0  0  0  0
    2.5120   -2.2566    0.1974 H   0  0  0  0  0  0  0  0  0  0  0  0
  1  2  1  0
  1 15  1  0
  1 16  1  0
  1 17  1  0
  3  2  1  1
  3 12  1  0
  3 14  1  0
  3  4  1  0
  4  9  1  0
  4  5  1  0
  4 18  1  1
  5  6  1  0
  5 19  1  0
  5 20  1  0
  6  7  2  0
  6 21  1  0
  7  8  1  0
  7 22  1  0
  8 11  1  0
  8  9  1  0
  8 23  1  6
  9 10  1  0
  9 24  1  1
 10 14  1  0
 10 11  1  0
 10 25  1  6
 11 12  1  0
 11 26  1  6
 12 13  1  0
 12 27  1  1
 13 14  1  0
 13 28  1  0
 13 29  1  0
 14 30  1  6
M  END
>  <i_m_ct_stereo_status>  (325) 
1

>  <s_m_source_file>  (325) 
/var/tmp/pbs.5076255.sched01/tmpg3p38p3m/129jed2w9rh.sdf

>  <i_m_source_file_index>  (325) 
34

>  <i_lp_mmshare_version>  (325) 
48012

>  <i_f3d_flags>  (325) 
0

>  <s_epik_input>  (325) 
W0NIM11PW0NAQF0xMltDQEhdM1tDQEBIXTRbQ0BIXShbQ0hdPVtDSF1bQ0gyXTMpW0NAQEhdNVtDQEhdNFtDQEhdMltDSDJdW0NASF0xNQ==

>  <s_epik_cmdline>  (325) 
J2VwaWtfcHl0aG9uJywgJy1waHQnLCAnMi4wJywgJy1waCcsICc3LjAnLCAnLXRuJywgJzgnLCAnLW1hJywgJzIwMCcsICctaW1hZScsICc8aW5maWxlLm1hZT4nLCAnLW9tYWUnLCAnPG91dGZpbGUubWFlPic=

>  <r_lp_tautomer_probability>  (325) 
1

>  <r_epik_Ionization_Penalty>  (325) 
8.18052e-11

>  <r_epik_Ionization_Penalty_Charging>  (325) 
0

>  <r_epik_Ionization_Penalty_Neutral>  (325) 
8.18052e-11

>  <r_epik_State_Penalty>  (325) 
-0

>  <r_epik_Charging_Adjusted_Penalty>  (325) 
0

>  <i_epik_Tot_Q>  (325) 
0

>  <i_epik_Tot_abs_Q>  (325) 
0

>  <s_lp_Force_Field>  (325) 
OPLS3e

>  <r_lp_Energy>  (325) 
248.045

>  <b_lp_Chiralities_Consistent>  (325) 
1

>  <s_lp_Variant>  (325) 
111:0-1

>  <s_i_glide_gridfile>  (325) 
pfpi4k_grid

>  <i_i_glide_lignum>  (325) 
34

>  <i_i_glide_rotatable_bonds>  (325) 
1

>  <r_i_docking_score>  (325) 
-3.5949

>  <r_i_glide_ligand_efficiency>  (325) 
-0.256779

>  <r_i_glide_ligand_efficiency_sa>  (325) 
-0.618873

>  <r_i_glide_ligand_efficiency_ln>  (325) 
-0.987866

>  <r_i_glide_gscore>  (325) 
-3.5949

>  <r_i_glide_lipo>  (325) 
-0.595282

>  <r_i_glide_hbond>  (325) 
0

>  <r_i_glide_metal>  (325) 
-0

>  <r_i_glide_rewards>  (325) 
-2.12546

>  <r_i_glide_evdw>  (325) 
-16.7882

>  <r_i_glide_ecoul>  (325) 
-0.231653

>  <r_i_glide_erotb>  (325) 
0

>  <r_i_glide_esite>  (325) 
0

>  <r_i_glide_emodel>  (325) 
-20.6228

>  <r_i_glide_energy>  (325) 
-17.0198

>  <r_i_glide_einternal>  (325) 
0.398497

>  <r_i_glide_intrahb_reward>  (325) 
-0

>  <i_i_glide_confnum>  (325) 
1

>  <i_i_glide_posenum>  (325) 
8

>  <r_i_glide_eff_state_penalty>  (325) 
0

>  <ligand_id>  (325) 
111

>  <original_smiles>  (325) 
COC12C3CC=CC4C3C3C4C1CC32

>  <smiles>  (325) 
[H]C1=C([H])C2([H])C3([H])C4([H])C2([H])C2([H])C([H])([H])C4([H])C2(OC([H])([H])[H])C3([H])C1([H])[H]

$$$$
112:0:0
     RDKit          3D

 61 65  0  0  1  0  0  0  0  0999 V2000
    1.6199   -4.8337    6.1772 C   0  0  0  0  0  0  0  0  0  0  0  0
    2.8577   -4.5161    5.3075 C   0  0  1  0  0  0  0  0  0  0  0  0
    3.5065   -3.3389    5.8523 N   0  0  0  0  0  0  0  0  0  0  0  0
    3.2874   -2.2466    6.3515 C   0  0  0  0  0  0  0  0  0  0  0  0
    2.8639   -0.8424    6.9683 S   0  0  0  0  0  0  0  0  0  0  0  0
    3.8460   -5.7040    5.3300 C   0  0  0  0  0  0  0  0  0  0  0  0
    4.0566   -6.0824    3.8672 C   0  0  0  0  0  0  0  0  0  0  0  0
    2.7490   -5.7067    3.1659 C   0  0  2  0  0  0  0  0  0  0  0  0
    1.6966   -6.8351    3.2529 C   0  0  0  0  0  0  0  0  0  0  0  0
    2.1820   -7.2978    1.8709 C   0  0  0  0  0  0  0  0  0  0  0  0
    2.5282   -5.8269    1.6384 C   0  0  2  0  0  0  0  0  0  0  0  0
    3.5382   -5.3462    0.5951 C   0  0  2  0  0  0  0  0  0  0  0  0
    4.9972   -5.8261    0.7513 C   0  0  0  0  0  0  0  0  0  0  0  0
    5.7942   -4.5339    0.9140 C   0  0  1  0  0  0  0  0  0  0  0  0
    7.1864   -4.6062    0.6392 O   0  0  0  0  0  0  0  0  0  0  0  0
    7.9690   -3.4921    0.4418 C   0  0  0  0  0  0  0  0  0  0  0  0
    9.1966   -3.5263    0.4248 O   0  0  0  0  0  0  0  0  0  0  0  0
    7.2357   -2.3507    0.1443 O   0  0  0  0  0  0  0  0  0  0  0  0
    5.8298   -2.1556    0.3861 C   0  0  0  0  0  0  0  0  0  0  0  0
    5.8213   -1.6140    1.8421 C   0  0  0  0  0  0  0  0  0  0  0  0
    5.4102   -1.0006   -0.5392 C   0  0  0  0  0  0  0  0  0  0  0  0
    5.0966   -3.5063    0.0353 C   0  0  1  0  0  0  0  0  0  0  0  0
    5.3653   -3.8395   -1.4790 C   0  0  0  0  0  0  0  0  0  0  0  0
    3.5653   -3.7879    0.3686 C   0  0  1  0  0  0  0  0  0  0  0  0
    2.6378   -3.4569   -0.8418 C   0  0  0  0  0  0  0  0  0  0  0  0
    2.9018   -2.9720    1.5436 C   0  0  0  0  0  0  0  0  0  0  0  0
    3.2498   -3.2223    3.0382 C   0  0  0  0  0  0  0  0  0  0  0  0
    2.4731   -4.3467    3.7971 C   0  0  2  0  0  0  0  0  0  0  0  0
    1.0974   -5.7263    5.8330 H   0  0  0  0  0  0  0  0  0  0  0  0
    0.9047   -4.0125    6.1648 H   0  0  0  0  0  0  0  0  0  0  0  0
    1.9035   -5.0040    7.2167 H   0  0  0  0  0  0  0  0  0  0  0  0
    4.7922   -5.4859    5.8280 H   0  0  0  0  0  0  0  0  0  0  0  0
    3.4091   -6.5607    5.8478 H   0  0  0  0  0  0  0  0  0  0  0  0
    4.8982   -5.5037    3.4943 H   0  0  0  0  0  0  0  0  0  0  0  0
    4.3171   -7.1361    3.7604 H   0  0  0  0  0  0  0  0  0  0  0  0
    1.8602   -7.5629    4.0477 H   0  0  0  0  0  0  0  0  0  0  0  0
    0.6670   -6.4722    3.2501 H   0  0  0  0  0  0  0  0  0  0  0  0
    3.0517   -7.9554    1.9073 H   0  0  0  0  0  0  0  0  0  0  0  0
    1.3995   -7.6936    1.2219 H   0  0  0  0  0  0  0  0  0  0  0  0
    1.5753   -5.3495    1.3993 H   0  0  0  0  0  0  0  0  0  0  0  0
    3.2112   -5.8185   -0.3242 H   0  0  0  0  0  0  0  0  0  0  0  0
    5.1603   -6.5367    1.5566 H   0  0  0  0  0  0  0  0  0  0  0  0
    5.3137   -6.3420   -0.1525 H   0  0  0  0  0  0  0  0  0  0  0  0
    5.7017   -4.2497    1.9557 H   0  0  0  0  0  0  0  0  0  0  0  0
    4.8646   -1.2211    2.1713 H   0  0  0  0  0  0  0  0  0  0  0  0
    6.5106   -0.7724    1.9298 H   0  0  0  0  0  0  0  0  0  0  0  0
    6.1760   -2.3360    2.5719 H   0  0  0  0  0  0  0  0  0  0  0  0
    4.3377   -0.8014   -0.4994 H   0  0  0  0  0  0  0  0  0  0  0  0
    5.6874   -1.1646   -1.5808 H   0  0  0  0  0  0  0  0  0  0  0  0
    5.9123   -0.0824   -0.2338 H   0  0  0  0  0  0  0  0  0  0  0  0
    4.8890   -3.1325   -2.1565 H   0  0  0  0  0  0  0  0  0  0  0  0
    5.0036   -4.8255   -1.7682 H   0  0  0  0  0  0  0  0  0  0  0  0
    6.4196   -3.8293   -1.7485 H   0  0  0  0  0  0  0  0  0  0  0  0
    2.7077   -2.4062   -1.1304 H   0  0  0  0  0  0  0  0  0  0  0  0
    1.5876   -3.6524   -0.6288 H   0  0  0  0  0  0  0  0  0  0  0  0
    2.8416   -4.0462   -1.7323 H   0  0  0  0  0  0  0  0  0  0  0  0
    3.0553   -1.9184    1.3207 H   0  0  0  0  0  0  0  0  0  0  0  0
    1.8142   -3.0503    1.4865 H   0  0  0  0  0  0  0  0  0  0  0  0
    4.3145   -3.3468    3.1858 H   0  0  0  0  0  0  0  0  0  0  0  0
    3.0088   -2.2816    3.5318 H   0  0  0  0  0  0  0  0  0  0  0  0
    1.4114   -4.1094    3.7250 H   0  0  0  0  0  0  0  0  0  0  0  0
  2  1  1  1
  1 29  1  0
  1 30  1  0
  1 31  1  0
  2 28  1  0
  2  3  1  0
  2  6  1  0
  3  4  2  0
  4  5  2  0
  6  7  1  0
  6 32  1  0
  6 33  1  0
  8  7  1  6
  7 34  1  0
  7 35  1  0
  8 11  1  0
  8 28  1  0
  8  9  1  0
  9 10  1  0
  9 36  1  0
  9 37  1  0
 10 11  1  0
 10 38  1  0
 10 39  1  0
 11 12  1  0
 11 40  1  6
 12 24  1  0
 12 13  1  0
 12 41  1  6
 13 14  1  0
 13 42  1  0
 13 43  1  0
 14 22  1  0
 14 15  1  0
 14 44  1  1
 15 16  1  0
 16 17  2  0
 16 18  1  0
 18 19  1  0
 19 20  1  0
 19 21  1  0
 19 22  1  0
 20 45  1  0
 20 46  1  0
 20 47  1  0
 21 48  1  0
 21 49  1  0
 21 50  1  0
 22 23  1  6
 22 24  1  0
 23 51  1  0
 23 52  1  0
 23 53  1  0
 24 25  1  6
 24 26  1  0
 25 54  1  0
 25 55  1  0
 25 56  1  0
 26 27  1  0
 26 57  1  0
 26 58  1  0
 27 28  1  0
 27 59  1  0
 27 60  1  0
 28 61  1  1
M  END
>  <i_m_ct_stereo_status>  (326) 
1

>  <s_m_source_file>  (326) 
/var/tmp/pbs.5076255.sched01/tmpg3p38p3m/129jed2w9rh.sdf

>  <i_m_source_file_index>  (326) 
35

>  <i_lp_mmshare_version>  (326) 
48012

>  <i_f3d_flags>  (326) 
0

>  <s_epik_input>  (326) 
Uz1DPU5bQ0BdKFtDSDNdKShbQ0gyXVtDSDJdMSlbQ0BIXTJbQ0gyXVtDSDJdW0NAXShbQ0gzXSkoW0NAQEhdM1tDQEhdKFtDQEBdMTI0KVtDSDJdW0NIMl00KVtDQF01KFtDSDNdKVtDQEBIXShbQ0gyXTMpT0MoPU8pT0M1KFtDSDNdKVtDSDNd

>  <s_epik_cmdline>  (326) 
J2VwaWtfcHl0aG9uJywgJy1waHQnLCAnMi4wJywgJy1waCcsICc3LjAnLCAnLXRuJywgJzgnLCAnLW1hJywgJzIwMCcsICctaW1hZScsICc8aW5maWxlLm1hZT4nLCAnLW9tYWUnLCAnPG91dGZpbGUubWFlPic=

>  <r_lp_tautomer_probability>  (326) 
1

>  <r_epik_Ionization_Penalty>  (326) 
2.67287e-09

>  <r_epik_Ionization_Penalty_Charging>  (326) 
0

>  <r_epik_Ionization_Penalty_Neutral>  (326) 
2.67287e-09

>  <r_epik_State_Penalty>  (326) 
-0

>  <r_epik_Charging_Adjusted_Penalty>  (326) 
0

>  <i_epik_Tot_Q>  (326) 
0

>  <i_epik_Tot_abs_Q>  (326) 
0

>  <s_epik_Chemistry_Notes>  (326) 
This compound has an ester and may undergo hydrolysis at high or low pH. This compound has an imine and may undergo hydrolysis.

>  <s_lp_Force_Field>  (326) 
OPLS3e

>  <r_lp_Energy>  (326) 
87.4689

>  <b_lp_Chiralities_Consistent>  (326) 
1

>  <s_lp_Variant>  (326) 
112:0-1

>  <s_i_glide_gridfile>  (326) 
pfpi4k_grid

>  <i_i_glide_lignum>  (326) 
35

>  <i_i_glide_rotatable_bonds>  (326) 
1

>  <r_i_docking_score>  (326) 
-3.07633

>  <r_i_glide_ligand_efficiency>  (326) 
-0.109869

>  <r_i_glide_ligand_efficiency_sa>  (326) 
-0.333626

>  <r_i_glide_ligand_efficiency_ln>  (326) 
-0.710106

>  <r_i_glide_gscore>  (326) 
-3.07633

>  <r_i_glide_lipo>  (326) 
-0.436794

>  <r_i_glide_hbond>  (326) 
-0.0868415

>  <r_i_glide_metal>  (326) 
-0

>  <r_i_glide_rewards>  (326) 
-0.951378

>  <r_i_glide_evdw>  (326) 
-26.4024

>  <r_i_glide_ecoul>  (326) 
-2.67829

>  <r_i_glide_erotb>  (326) 
0.120551

>  <r_i_glide_esite>  (326) 
0

>  <r_i_glide_emodel>  (326) 
-34.7801

>  <r_i_glide_energy>  (326) 
-29.0807

>  <r_i_glide_einternal>  (326) 
0.295449

>  <r_i_glide_intrahb_reward>  (326) 
-0

>  <i_i_glide_confnum>  (326) 
5

>  <i_i_glide_posenum>  (326) 
38

>  <r_i_glide_eff_state_penalty>  (326) 
0

>  <ligand_id>  (326) 
112

>  <original_smiles>  (326) 
CC1(N=C=S)CCC23CCC2C2CC4OC(=O)OC(C)(C)C4(C)C2(C)CCC13

>  <smiles>  (326) 
[H]C([H])([H])C1(N=C=S)C([H])([H])C([H])([H])C23C([H])([H])C([H])([H])C2([H])C2([H])C([H])([H])C4([H])OC(=O)OC(C([H])([H])[H])(C([H])([H])[H])C4(C([H])([H])[H])C2(C([H])([H])[H])C([H])([H])C([H])([H])C13[H]

$$$$
112:0:1
     RDKit          3D

 61 65  0  0  1  0  0  0  0  0999 V2000
    1.3882  -10.0839    2.8024 C   0  0  0  0  0  0  0  0  0  0  0  0
    1.8289   -8.6732    3.2517 C   0  0  1  0  0  0  0  0  0  0  0  0
    0.6573   -7.9538    3.7128 N   0  0  0  0  0  0  0  0  0  0  0  0
   -0.5521   -7.8737    3.5711 C   0  0  0  0  0  0  0  0  0  0  0  0
   -2.1151   -7.8539    3.2771 S   0  0  0  0  0  0  0  0  0  0  0  0
    2.8605   -8.7813    4.3985 C   0  0  0  0  0  0  0  0  0  0  0  0
    4.0807   -8.0056    3.9154 C   0  0  0  0  0  0  0  0  0  0  0  0
    4.0641   -8.1330    2.3884 C   0  0  2  0  0  0  0  0  0  0  0  0
    4.7565   -9.4281    1.9078 C   0  0  0  0  0  0  0  0  0  0  0  0
    6.0287   -8.5910    1.7179 C   0  0  0  0  0  0  0  0  0  0  0  0
    5.0757   -7.4250    1.4525 C   0  0  2  0  0  0  0  0  0  0  0  0
    5.4801   -5.9509    1.5820 C   0  0  2  0  0  0  0  0  0  0  0  0
    5.9228   -5.4751    2.9839 C   0  0  0  0  0  0  0  0  0  0  0  0
    4.9140   -4.3872    3.3463 C   0  0  1  0  0  0  0  0  0  0  0  0
    5.3030   -3.4672    4.3519 O   0  0  0  0  0  0  0  0  0  0  0  0
    4.6601   -2.2694    4.5657 C   0  0  0  0  0  0  0  0  0  0  0  0
    4.8615   -1.5629    5.5507 O   0  0  0  0  0  0  0  0  0  0  0  0
    3.8692   -1.8718    3.4962 O   0  0  0  0  0  0  0  0  0  0  0  0
    3.3935   -2.7070    2.4262 C   0  0  0  0  0  0  0  0  0  0  0  0
    2.0787   -3.2744    3.0338 C   0  0  0  0  0  0  0  0  0  0  0  0
    3.0092   -1.7435    1.2802 C   0  0  0  0  0  0  0  0  0  0  0  0
    4.5717   -3.6863    2.0388 C   0  0  1  0  0  0  0  0  0  0  0  0
    5.8035   -2.8250    1.5661 C   0  0  0  0  0  0  0  0  0  0  0  0
    4.4015   -4.9304    1.0528 C   0  0  1  0  0  0  0  0  0  0  0  0
    4.7782   -4.5657   -0.4175 C   0  0  0  0  0  0  0  0  0  0  0  0
    2.9586   -5.5518    0.8950 C   0  0  0  0  0  0  0  0  0  0  0  0
    2.2686   -6.3768    2.0201 C   0  0  0  0  0  0  0  0  0  0  0  0
    2.5821   -7.9068    2.1109 C   0  0  2  0  0  0  0  0  0  0  0  0
    2.2284  -10.6818    2.4508 H   0  0  0  0  0  0  0  0  0  0  0  0
    0.6675  -10.0307    1.9883 H   0  0  0  0  0  0  0  0  0  0  0  0
    0.9104  -10.6342    3.6143 H   0  0  0  0  0  0  0  0  0  0  0  0
    2.5003   -8.4110    5.3592 H   0  0  0  0  0  0  0  0  0  0  0  0
    3.1536   -9.8210    4.5547 H   0  0  0  0  0  0  0  0  0  0  0  0
    3.9667   -6.9751    4.2386 H   0  0  0  0  0  0  0  0  0  0  0  0
    4.9987   -8.3820    4.3692 H   0  0  0  0  0  0  0  0  0  0  0  0
    4.8468  -10.2154    2.6553 H   0  0  0  0  0  0  0  0  0  0  0  0
    4.3492   -9.8199    0.9724 H   0  0  0  0  0  0  0  0  0  0  0  0
    6.6206   -8.4759    2.6280 H   0  0  0  0  0  0  0  0  0  0  0  0
    6.6449   -8.8843    0.8688 H   0  0  0  0  0  0  0  0  0  0  0  0
    4.7302   -7.5691    0.4239 H   0  0  0  0  0  0  0  0  0  0  0  0
    6.3779   -5.8398    0.9703 H   0  0  0  0  0  0  0  0  0  0  0  0
    5.9952   -6.2567    3.7333 H   0  0  0  0  0  0  0  0  0  0  0  0
    6.9248   -5.0529    2.9254 H   0  0  0  0  0  0  0  0  0  0  0  0
    4.0400   -4.9002    3.7280 H   0  0  0  0  0  0  0  0  0  0  0  0
    1.4548   -3.8065    2.3248 H   0  0  0  0  0  0  0  0  0  0  0  0
    1.4523   -2.4555    3.3903 H   0  0  0  0  0  0  0  0  0  0  0  0
    2.2338   -3.9091    3.9042 H   0  0  0  0  0  0  0  0  0  0  0  0
    2.7051   -2.2739    0.3800 H   0  0  0  0  0  0  0  0  0  0  0  0
    3.8169   -1.0634    1.0172 H   0  0  0  0  0  0  0  0  0  0  0  0
    2.1715   -1.1074    1.5657 H   0  0  0  0  0  0  0  0  0  0  0  0
    5.6114   -2.2972    0.6320 H   0  0  0  0  0  0  0  0  0  0  0  0
    6.7014   -3.4178    1.3998 H   0  0  0  0  0  0  0  0  0  0  0  0
    6.0939   -2.0524    2.2767 H   0  0  0  0  0  0  0  0  0  0  0  0
    4.1535   -3.7624   -0.8086 H   0  0  0  0  0  0  0  0  0  0  0  0
    4.6560   -5.4188   -1.0898 H   0  0  0  0  0  0  0  0  0  0  0  0
    5.8186   -4.2664   -0.5459 H   0  0  0  0  0  0  0  0  0  0  0  0
    2.2973   -4.7379    0.6052 H   0  0  0  0  0  0  0  0  0  0  0  0
    2.9261   -6.1908    0.0110 H   0  0  0  0  0  0  0  0  0  0  0  0
    2.4092   -5.9183    2.9910 H   0  0  0  0  0  0  0  0  0  0  0  0
    1.2015   -6.2854    1.8217 H   0  0  0  0  0  0  0  0  0  0  0  0
    2.3106   -8.3514    1.1538 H   0  0  0  0  0  0  0  0  0  0  0  0
  2  1  1  6
  1 29  1  0
  1 30  1  0
  1 31  1  0
  2 28  1  0
  2  3  1  0
  2  6  1  0
  3  4  2  0
  4  5  2  0
  6  7  1  0
  6 32  1  0
  6 33  1  0
  8  7  1  1
  7 34  1  0
  7 35  1  0
  8 11  1  0
  8 28  1  0
  8  9  1  0
  9 10  1  0
  9 36  1  0
  9 37  1  0
 10 11  1  0
 10 38  1  0
 10 39  1  0
 11 12  1  0
 11 40  1  6
 12 24  1  0
 12 13  1  0
 12 41  1  6
 13 14  1  0
 13 42  1  0
 13 43  1  0
 14 22  1  0
 14 15  1  0
 14 44  1  1
 15 16  1  0
 16 17  2  0
 16 18  1  0
 18 19  1  0
 19 20  1  0
 19 21  1  0
 19 22  1  0
 20 45  1  0
 20 46  1  0
 20 47  1  0
 21 48  1  0
 21 49  1  0
 21 50  1  0
 22 23  1  6
 22 24  1  0
 23 51  1  0
 23 52  1  0
 23 53  1  0
 24 25  1  6
 24 26  1  0
 25 54  1  0
 25 55  1  0
 25 56  1  0
 26 27  1  0
 26 57  1  0
 26 58  1  0
 27 28  1  0
 27 59  1  0
 27 60  1  0
 28 61  1  6
M  END
>  <i_m_ct_stereo_status>  (327) 
1

>  <s_m_source_file>  (327) 
/var/tmp/pbs.5076255.sched01/tmpg3p38p3m/129jed2w9rh.sdf

>  <i_m_source_file_index>  (327) 
35

>  <i_lp_mmshare_version>  (327) 
48012

>  <i_f3d_flags>  (327) 
0

>  <s_epik_input>  (327) 
Uz1DPU5bQ0BdKFtDSDNdKShbQ0gyXVtDSDJdMSlbQ0BIXTJbQ0gyXVtDSDJdW0NAXShbQ0gzXSkoW0NAQEhdM1tDQEhdKFtDQEBdMTI0KVtDSDJdW0NIMl00KVtDQF01KFtDSDNdKVtDQEBIXShbQ0gyXTMpT0MoPU8pT0M1KFtDSDNdKVtDSDNd

>  <s_epik_cmdline>  (327) 
J2VwaWtfcHl0aG9uJywgJy1waHQnLCAnMi4wJywgJy1waCcsICc3LjAnLCAnLXRuJywgJzgnLCAnLW1hJywgJzIwMCcsICctaW1hZScsICc8aW5maWxlLm1hZT4nLCAnLW9tYWUnLCAnPG91dGZpbGUubWFlPic=

>  <r_lp_tautomer_probability>  (327) 
1

>  <r_epik_Ionization_Penalty>  (327) 
2.67287e-09

>  <r_epik_Ionization_Penalty_Charging>  (327) 
0

>  <r_epik_Ionization_Penalty_Neutral>  (327) 
2.67287e-09

>  <r_epik_State_Penalty>  (327) 
-0

>  <r_epik_Charging_Adjusted_Penalty>  (327) 
0

>  <i_epik_Tot_Q>  (327) 
0

>  <i_epik_Tot_abs_Q>  (327) 
0

>  <s_epik_Chemistry_Notes>  (327) 
This compound has an ester and may undergo hydrolysis at high or low pH. This compound has an imine and may undergo hydrolysis.

>  <s_lp_Force_Field>  (327) 
OPLS3e

>  <r_lp_Energy>  (327) 
87.4689

>  <b_lp_Chiralities_Consistent>  (327) 
1

>  <s_lp_Variant>  (327) 
112:0-1

>  <s_i_glide_gridfile>  (327) 
pfpi4k_grid

>  <i_i_glide_lignum>  (327) 
35

>  <i_i_glide_rotatable_bonds>  (327) 
1

>  <r_i_docking_score>  (327) 
-2.89263

>  <r_i_glide_ligand_efficiency>  (327) 
-0.103308

>  <r_i_glide_ligand_efficiency_sa>  (327) 
-0.313704

>  <r_i_glide_ligand_efficiency_ln>  (327) 
-0.667703

>  <r_i_glide_gscore>  (327) 
-2.89263

>  <r_i_glide_lipo>  (327) 
-0.502456

>  <r_i_glide_hbond>  (327) 
0

>  <r_i_glide_metal>  (327) 
-0

>  <r_i_glide_rewards>  (327) 
-0.689955

>  <r_i_glide_evdw>  (327) 
-30.053

>  <r_i_glide_ecoul>  (327) 
-1.37536

>  <r_i_glide_erotb>  (327) 
0.120551

>  <r_i_glide_esite>  (327) 
-0.111811

>  <r_i_glide_emodel>  (327) 
-36.7826

>  <r_i_glide_energy>  (327) 
-31.4284

>  <r_i_glide_einternal>  (327) 
0.315816

>  <r_i_glide_intrahb_reward>  (327) 
-0

>  <i_i_glide_confnum>  (327) 
4

>  <i_i_glide_posenum>  (327) 
28

>  <r_i_glide_eff_state_penalty>  (327) 
0

>  <ligand_id>  (327) 
112

>  <original_smiles>  (327) 
CC1(N=C=S)CCC23CCC2C2CC4OC(=O)OC(C)(C)C4(C)C2(C)CCC13

>  <smiles>  (327) 
[H]C([H])([H])C1(N=C=S)C([H])([H])C([H])([H])C23C([H])([H])C([H])([H])C2([H])C2([H])C([H])([H])C4([H])OC(=O)OC(C([H])([H])[H])(C([H])([H])[H])C4(C([H])([H])[H])C2(C([H])([H])[H])C([H])([H])C([H])([H])C13[H]

$$$$
112:0:2
     RDKit          3D

 61 65  0  0  1  0  0  0  0  0999 V2000
    0.5682   -9.3743    2.8583 C   0  0  0  0  0  0  0  0  0  0  0  0
    1.2219   -8.0554    3.3229 C   0  0  1  0  0  0  0  0  0  0  0  0
    0.1602   -7.2146    3.8509 N   0  0  0  0  0  0  0  0  0  0  0  0
   -0.1781   -6.5588    4.8223 C   0  0  0  0  0  0  0  0  0  0  0  0
   -0.4833   -5.6316    6.0799 S   0  0  0  0  0  0  0  0  0  0  0  0
    2.3017   -8.3441    4.3984 C   0  0  0  0  0  0  0  0  0  0  0  0
    3.5784   -7.7094    3.8621 C   0  0  0  0  0  0  0  0  0  0  0  0
    3.4584   -7.7836    2.3363 C   0  0  2  0  0  0  0  0  0  0  0  0
    3.9467   -9.1408    1.7837 C   0  0  0  0  0  0  0  0  0  0  0  0
    5.3049   -8.4700    1.5388 C   0  0  0  0  0  0  0  0  0  0  0  0
    4.5020   -7.1817    1.3604 C   0  0  2  0  0  0  0  0  0  0  0  0
    5.1030   -5.7775    1.5027 C   0  0  2  0  0  0  0  0  0  0  0  0
    5.6792   -5.4065    2.8886 C   0  0  0  0  0  0  0  0  0  0  0  0
    4.8391   -4.2105    3.3335 C   0  0  1  0  0  0  0  0  0  0  0  0
    5.3960   -3.3811    4.3388 O   0  0  0  0  0  0  0  0  0  0  0  0
    4.9271   -2.1180    4.6184 C   0  0  0  0  0  0  0  0  0  0  0  0
    5.2712   -1.4749    5.6065 O   0  0  0  0  0  0  0  0  0  0  0  0
    4.1386   -1.5888    3.6044 O   0  0  0  0  0  0  0  0  0  0  0  0
    3.5002   -2.3207    2.5428 C   0  0  0  0  0  0  0  0  0  0  0  0
    2.1557   -2.7331    3.2080 C   0  0  0  0  0  0  0  0  0  0  0  0
    3.1826   -1.2781    1.4457 C   0  0  0  0  0  0  0  0  0  0  0  0
    4.5186   -3.4312    2.0646 C   0  0  1  0  0  0  0  0  0  0  0  0
    5.8232   -2.7191    1.5427 C   0  0  0  0  0  0  0  0  0  0  0  0
    4.1390   -4.6119    1.0600 C   0  0  1  0  0  0  0  0  0  0  0  0
    4.4805   -4.2494   -0.4197 C   0  0  0  0  0  0  0  0  0  0  0  0
    2.6224   -5.0407    0.9696 C   0  0  0  0  0  0  0  0  0  0  0  0
    1.8917   -5.8026    2.1155 C   0  0  0  0  0  0  0  0  0  0  0  0
    2.0044   -7.3607    2.1531 C   0  0  2  0  0  0  0  0  0  0  0  0
    1.2997  -10.0676    2.4397 H   0  0  0  0  0  0  0  0  0  0  0  0
   -0.1796   -9.1953    2.0850 H   0  0  0  0  0  0  0  0  0  0  0  0
    0.0678   -9.8877    3.6816 H   0  0  0  0  0  0  0  0  0  0  0  0
    2.0697   -7.9744    5.3965 H   0  0  0  0  0  0  0  0  0  0  0  0
    2.4638   -9.4176    4.5051 H   0  0  0  0  0  0  0  0  0  0  0  0
    3.6137   -6.6833    4.2171 H   0  0  0  0  0  0  0  0  0  0  0  0
    4.4652   -8.2110    4.2515 H   0  0  0  0  0  0  0  0  0  0  0  0
    3.9760   -9.9573    2.5049 H   0  0  0  0  0  0  0  0  0  0  0  0
    3.4425   -9.4490    0.8646 H   0  0  0  0  0  0  0  0  0  0  0  0
    5.9568   -8.4625    2.4147 H   0  0  0  0  0  0  0  0  0  0  0  0
    5.8242   -8.8134    0.6445 H   0  0  0  0  0  0  0  0  0  0  0  0
    4.0887   -7.2448    0.3494 H   0  0  0  0  0  0  0  0  0  0  0  0
    5.9725   -5.7655    0.8423 H   0  0  0  0  0  0  0  0  0  0  0  0
    5.6879   -6.2148    3.6128 H   0  0  0  0  0  0  0  0  0  0  0  0
    6.7237   -5.1142    2.7875 H   0  0  0  0  0  0  0  0  0  0  0  0
    3.9289   -4.6192    3.7541 H   0  0  0  0  0  0  0  0  0  0  0  0
    1.4295   -3.1536    2.5196 H   0  0  0  0  0  0  0  0  0  0  0  0
    1.6638   -1.8524    3.6232 H   0  0  0  0  0  0  0  0  0  0  0  0
    2.2740   -3.4100    4.0524 H   0  0  0  0  0  0  0  0  0  0  0  0
    2.7657   -1.7372    0.5513 H   0  0  0  0  0  0  0  0  0  0  0  0
    4.0578   -0.7009    1.1532 H   0  0  0  0  0  0  0  0  0  0  0  0
    2.4521   -0.5483    1.7944 H   0  0  0  0  0  0  0  0  0  0  0  0
    5.6536   -2.1422    0.6336 H   0  0  0  0  0  0  0  0  0  0  0  0
    6.6279   -3.4159    1.3126 H   0  0  0  0  0  0  0  0  0  0  0  0
    6.2464   -2.0115    2.2536 H   0  0  0  0  0  0  0  0  0  0  0  0
    3.9454   -3.3598   -0.7537 H   0  0  0  0  0  0  0  0  0  0  0  0
    4.2142   -5.0565   -1.1050 H   0  0  0  0  0  0  0  0  0  0  0  0
    5.5427   -4.0827   -0.6007 H   0  0  0  0  0  0  0  0  0  0  0  0
    2.0671   -4.1341    0.7408 H   0  0  0  0  0  0  0  0  0  0  0  0
    2.4576   -5.6379    0.0701 H   0  0  0  0  0  0  0  0  0  0  0  0
    2.1474   -5.3940    3.0848 H   0  0  0  0  0  0  0  0  0  0  0  0
    0.8351   -5.5707    1.9930 H   0  0  0  0  0  0  0  0  0  0  0  0
    1.6269   -7.7334    1.2000 H   0  0  0  0  0  0  0  0  0  0  0  0
  2  1  1  6
  1 29  1  0
  1 30  1  0
  1 31  1  0
  2 28  1  0
  2  3  1  0
  2  6  1  0
  3  4  2  0
  4  5  2  0
  6  7  1  0
  6 32  1  0
  6 33  1  0
  8  7  1  1
  7 34  1  0
  7 35  1  0
  8 11  1  0
  8 28  1  0
  8  9  1  0
  9 10  1  0
  9 36  1  0
  9 37  1  0
 10 11  1  0
 10 38  1  0
 10 39  1  0
 11 12  1  0
 11 40  1  6
 12 24  1  0
 12 13  1  0
 12 41  1  6
 13 14  1  0
 13 42  1  0
 13 43  1  0
 14 22  1  0
 14 15  1  0
 14 44  1  1
 15 16  1  0
 16 17  2  0
 16 18  1  0
 18 19  1  0
 19 20  1  0
 19 21  1  0
 19 22  1  0
 20 45  1  0
 20 46  1  0
 20 47  1  0
 21 48  1  0
 21 49  1  0
 21 50  1  0
 22 23  1  6
 22 24  1  0
 23 51  1  0
 23 52  1  0
 23 53  1  0
 24 25  1  6
 24 26  1  0
 25 54  1  0
 25 55  1  0
 25 56  1  0
 26 27  1  0
 26 57  1  0
 26 58  1  0
 27 28  1  0
 27 59  1  0
 27 60  1  0
 28 61  1  6
M  END
>  <i_m_ct_stereo_status>  (328) 
1

>  <s_m_source_file>  (328) 
/var/tmp/pbs.5076255.sched01/tmpg3p38p3m/129jed2w9rh.sdf

>  <i_m_source_file_index>  (328) 
35

>  <i_lp_mmshare_version>  (328) 
48012

>  <i_f3d_flags>  (328) 
0

>  <s_epik_input>  (328) 
Uz1DPU5bQ0BdKFtDSDNdKShbQ0gyXVtDSDJdMSlbQ0BIXTJbQ0gyXVtDSDJdW0NAXShbQ0gzXSkoW0NAQEhdM1tDQEhdKFtDQEBdMTI0KVtDSDJdW0NIMl00KVtDQF01KFtDSDNdKVtDQEBIXShbQ0gyXTMpT0MoPU8pT0M1KFtDSDNdKVtDSDNd

>  <s_epik_cmdline>  (328) 
J2VwaWtfcHl0aG9uJywgJy1waHQnLCAnMi4wJywgJy1waCcsICc3LjAnLCAnLXRuJywgJzgnLCAnLW1hJywgJzIwMCcsICctaW1hZScsICc8aW5maWxlLm1hZT4nLCAnLW9tYWUnLCAnPG91dGZpbGUubWFlPic=

>  <r_lp_tautomer_probability>  (328) 
1

>  <r_epik_Ionization_Penalty>  (328) 
2.67287e-09

>  <r_epik_Ionization_Penalty_Charging>  (328) 
0

>  <r_epik_Ionization_Penalty_Neutral>  (328) 
2.67287e-09

>  <r_epik_State_Penalty>  (328) 
-0

>  <r_epik_Charging_Adjusted_Penalty>  (328) 
0

>  <i_epik_Tot_Q>  (328) 
0

>  <i_epik_Tot_abs_Q>  (328) 
0

>  <s_epik_Chemistry_Notes>  (328) 
This compound has an ester and may undergo hydrolysis at high or low pH. This compound has an imine and may undergo hydrolysis.

>  <s_lp_Force_Field>  (328) 
OPLS3e

>  <r_lp_Energy>  (328) 
87.4689

>  <b_lp_Chiralities_Consistent>  (328) 
1

>  <s_lp_Variant>  (328) 
112:0-1

>  <s_i_glide_gridfile>  (328) 
pfpi4k_grid

>  <i_i_glide_lignum>  (328) 
35

>  <i_i_glide_rotatable_bonds>  (328) 
1

>  <r_i_docking_score>  (328) 
-2.6052

>  <r_i_glide_ligand_efficiency>  (328) 
-0.0930429

>  <r_i_glide_ligand_efficiency_sa>  (328) 
-0.282533

>  <r_i_glide_ligand_efficiency_ln>  (328) 
-0.601357

>  <r_i_glide_gscore>  (328) 
-2.6052

>  <r_i_glide_lipo>  (328) 
-0.33746

>  <r_i_glide_hbond>  (328) 
0

>  <r_i_glide_metal>  (328) 
-0

>  <r_i_glide_rewards>  (328) 
-0.738551

>  <r_i_glide_evdw>  (328) 
-27.6057

>  <r_i_glide_ecoul>  (328) 
-1.62821

>  <r_i_glide_erotb>  (328) 
0.120551

>  <r_i_glide_esite>  (328) 
-0.0252268

>  <r_i_glide_emodel>  (328) 
-34.0861

>  <r_i_glide_energy>  (328) 
-29.2339

>  <r_i_glide_einternal>  (328) 
0.166785

>  <r_i_glide_intrahb_reward>  (328) 
-0

>  <i_i_glide_confnum>  (328) 
4

>  <i_i_glide_posenum>  (328) 
1

>  <r_i_glide_eff_state_penalty>  (328) 
0

>  <ligand_id>  (328) 
112

>  <original_smiles>  (328) 
CC1(N=C=S)CCC23CCC2C2CC4OC(=O)OC(C)(C)C4(C)C2(C)CCC13

>  <smiles>  (328) 
[H]C([H])([H])C1(N=C=S)C([H])([H])C([H])([H])C23C([H])([H])C([H])([H])C2([H])C2([H])C([H])([H])C4([H])OC(=O)OC(C([H])([H])[H])(C([H])([H])[H])C4(C([H])([H])[H])C2(C([H])([H])[H])C([H])([H])C([H])([H])C13[H]

$$$$
113:0:0
     RDKit          3D

 50 54  0  0  1  0  0  0  0  0999 V2000
    5.8565   -1.9830   -0.0751 C   0  0  0  0  0  0  0  0  0  0  0  0
    4.9949   -3.0260   -0.8292 C   0  0  0  0  0  0  0  0  0  0  0  0
    5.4000   -2.9383   -2.3208 C   0  0  0  0  0  0  0  0  0  0  0  0
    5.2561   -4.4577   -0.2976 C   0  0  0  0  0  0  0  0  0  0  0  0
    4.7598   -4.6785    1.1415 C   0  0  0  0  0  0  0  0  0  0  0  0
    3.2631   -4.3428    1.3163 C   0  0  0  0  0  0  0  0  0  0  0  0
    2.9828   -2.9182    0.7690 C   0  0  0  0  0  0  0  0  0  0  0  0
    3.4858   -2.7173   -0.6754 C   0  0  0  0  0  0  0  0  0  0  0  0
    2.4170   -5.2596    0.6186 O   0  0  0  0  0  0  0  0  0  0  0  0
    2.5974   -6.6467    1.2105 O   0  0  0  0  0  0  0  0  0  0  0  0
    2.2516   -6.6132    2.6018 C   0  0  0  0  0  0  0  0  0  0  0  0
    3.1202   -5.7048    3.2904 O   0  0  0  0  0  0  0  0  0  0  0  0
    2.9269   -4.3267    2.7056 O   0  0  0  0  0  0  0  0  0  0  0  0
    0.7547   -6.2401    2.8146 C   0  0  1  0  0  0  0  0  0  0  0  0
   -0.1543   -7.2473    2.0763 C   0  0  0  0  0  0  0  0  0  0  0  0
    0.0573   -8.6560    2.6666 C   0  0  2  0  0  0  0  0  0  0  0  0
   -0.2861   -8.6631    4.1698 C   0  0  0  0  0  0  0  0  0  0  0  0
    0.6308   -7.6561    4.8922 C   0  0  2  0  0  0  0  0  0  0  0  0
    0.4104   -6.2456    4.3158 C   0  0  0  0  0  0  0  0  0  0  0  0
    2.1074   -8.0633    4.6946 C   0  0  0  0  0  0  0  0  0  0  0  0
    2.4549   -8.0454    3.1876 C   0  0  1  0  0  0  0  0  0  0  0  0
    1.5331   -9.0654    2.4750 C   0  0  0  0  0  0  0  0  0  0  0  0
    6.9216   -2.1623   -0.2286 H   0  0  0  0  0  0  0  0  0  0  0  0
    5.6896   -1.9945    1.0009 H   0  0  0  0  0  0  0  0  0  0  0  0
    5.6438   -0.9686   -0.4160 H   0  0  0  0  0  0  0  0  0  0  0  0
    4.8532   -3.6538   -2.9374 H   0  0  0  0  0  0  0  0  0  0  0  0
    6.4647   -3.1378   -2.4680 H   0  0  0  0  0  0  0  0  0  0  0  0
    5.2077   -1.9453   -2.7329 H   0  0  0  0  0  0  0  0  0  0  0  0
    4.7639   -5.1797   -0.9517 H   0  0  0  0  0  0  0  0  0  0  0  0
    6.3224   -4.6800   -0.3427 H   0  0  0  0  0  0  0  0  0  0  0  0
    4.9741   -5.7006    1.4521 H   0  0  0  0  0  0  0  0  0  0  0  0
    5.3314   -4.0553    1.8228 H   0  0  0  0  0  0  0  0  0  0  0  0
    1.9170   -2.6880    0.8196 H   0  0  0  0  0  0  0  0  0  0  0  0
    3.4662   -2.1888    1.4174 H   0  0  0  0  0  0  0  0  0  0  0  0
    3.2796   -1.6917   -0.9906 H   0  0  0  0  0  0  0  0  0  0  0  0
    2.9094   -3.3550   -1.3487 H   0  0  0  0  0  0  0  0  0  0  0  0
    0.5803   -5.2354    2.4374 H   0  0  0  0  0  0  0  0  0  0  0  0
   -1.2042   -6.9755    2.1698 H   0  0  0  0  0  0  0  0  0  0  0  0
    0.0656   -7.2724    1.0079 H   0  0  0  0  0  0  0  0  0  0  0  0
   -0.5876   -9.3725    2.1574 H   0  0  0  0  0  0  0  0  0  0  0  0
   -1.3360   -8.4140    4.3332 H   0  0  0  0  0  0  0  0  0  0  0  0
   -0.1535   -9.6659    4.5864 H   0  0  0  0  0  0  0  0  0  0  0  0
    0.3899   -7.6630    5.9538 H   0  0  0  0  0  0  0  0  0  0  0  0
    1.0278   -5.5284    4.8557 H   0  0  0  0  0  0  0  0  0  0  0  0
   -0.6238   -5.9440    4.4715 H   0  0  0  0  0  0  0  0  0  0  0  0
    2.7590   -7.3916    5.2527 H   0  0  0  0  0  0  0  0  0  0  0  0
    2.2749   -9.0607    5.1107 H   0  0  0  0  0  0  0  0  0  0  0  0
    3.4919   -8.3543    3.0544 H   0  0  0  0  0  0  0  0  0  0  0  0
    1.6919  -10.0716    2.8727 H   0  0  0  0  0  0  0  0  0  0  0  0
    1.7660   -9.1289    1.4119 H   0  0  0  0  0  0  0  0  0  0  0  0
  1  2  1  0
  1 23  1  0
  1 24  1  0
  1 25  1  0
  2  8  1  0
  2  3  1  0
  2  4  1  0
  3 26  1  0
  3 27  1  0
  3 28  1  0
  4  5  1  0
  4 29  1  0
  4 30  1  0
  5  6  1  0
  5 31  1  0
  5 32  1  0
  6 13  1  0
  6  7  1  0
  6  9  1  0
  7  8  1  0
  7 33  1  0
  7 34  1  0
  8 35  1  0
  8 36  1  0
  9 10  1  0
 10 11  1  0
 11 21  1  0
 11 12  1  0
 11 14  1  0
 12 13  1  0
 14 19  1  0
 14 15  1  0
 14 37  1  6
 15 16  1  0
 15 38  1  0
 15 39  1  0
 16 22  1  0
 16 17  1  0
 16 40  1  6
 17 18  1  0
 17 41  1  0
 17 42  1  0
 18 19  1  0
 18 20  1  0
 18 43  1  1
 19 44  1  0
 19 45  1  0
 20 21  1  0
 20 46  1  0
 20 47  1  0
 21 22  1  0
 21 48  1  1
 22 49  1  0
 22 50  1  0
M  END
>  <i_m_ct_stereo_status>  (329) 
1

>  <s_m_source_file>  (329) 
/var/tmp/pbs.5076255.sched01/tmpg3p38p3m/129jed2w9rh.sdf

>  <i_m_source_file_index>  (329) 
36

>  <i_lp_mmshare_version>  (329) 
48012

>  <i_f3d_flags>  (329) 
0

>  <s_epik_input>  (329) 
W0NIMl0xW0NIMl1DKFtDSDNdKShbQ0gzXSlbQ0gyXVtDSDJdQzEyT09DMyhPTzIpW0NAQEhdNFtDSDJdW0NASF01W0NIMl1bQ0BASF0oW0NIMl00KVtDSDJdW0NAQEhdM1tDSDJdNQ==

>  <s_epik_cmdline>  (329) 
J2VwaWtfcHl0aG9uJywgJy1waHQnLCAnMi4wJywgJy1waCcsICc3LjAnLCAnLXRuJywgJzgnLCAnLW1hJywgJzIwMCcsICctaW1hZScsICc8aW5maWxlLm1hZT4nLCAnLW9tYWUnLCAnPG91dGZpbGUubWFlPic=

>  <r_lp_tautomer_probability>  (329) 
1

>  <r_epik_Ionization_Penalty>  (329) 
0

>  <r_epik_Ionization_Penalty_Charging>  (329) 
0

>  <r_epik_Ionization_Penalty_Neutral>  (329) 
0

>  <r_epik_State_Penalty>  (329) 
-0

>  <r_epik_Charging_Adjusted_Penalty>  (329) 
0

>  <i_epik_Tot_Q>  (329) 
0

>  <i_epik_Tot_abs_Q>  (329) 
0

>  <s_lp_Force_Field>  (329) 
OPLS3e

>  <r_lp_Energy>  (329) 
5.99066

>  <b_lp_Chiralities_Consistent>  (329) 
1

>  <s_lp_Variant>  (329) 
113:0-1

>  <s_i_glide_gridfile>  (329) 
pfpi4k_grid

>  <i_i_glide_lignum>  (329) 
36

>  <i_i_glide_rotatable_bonds>  (329) 
0

>  <r_i_docking_score>  (329) 
-3.00118

>  <r_i_glide_ligand_efficiency>  (329) 
-0.136417

>  <r_i_glide_ligand_efficiency_sa>  (329) 
-0.382247

>  <r_i_glide_ligand_efficiency_ln>  (329) 
-0.733598

>  <r_i_glide_gscore>  (329) 
-3.00118

>  <r_i_glide_lipo>  (329) 
-0.284783

>  <r_i_glide_hbond>  (329) 
0

>  <r_i_glide_metal>  (329) 
-0

>  <r_i_glide_rewards>  (329) 
-1.3075

>  <r_i_glide_evdw>  (329) 
-26.0543

>  <r_i_glide_ecoul>  (329) 
-0.653823

>  <r_i_glide_erotb>  (329) 
0

>  <r_i_glide_esite>  (329) 
-0.00810859

>  <r_i_glide_emodel>  (329) 
-31.7635

>  <r_i_glide_energy>  (329) 
-26.7082

>  <r_i_glide_einternal>  (329) 
0

>  <r_i_glide_intrahb_reward>  (329) 
-0

>  <i_i_glide_confnum>  (329) 
1

>  <i_i_glide_posenum>  (329) 
37

>  <r_i_glide_eff_state_penalty>  (329) 
0

>  <ligand_id>  (329) 
113

>  <original_smiles>  (329) 
CC1(C)CCC2(CC1)OOC1(OO2)C2CC3CC(C2)CC1C3

>  <smiles>  (329) 
[H]C([H])([H])C1(C([H])([H])[H])C([H])([H])C([H])([H])C2(OOC3(OO2)C2([H])C([H])([H])C4([H])C([H])([H])C([H])(C2([H])[H])C([H])([H])C3([H])C4([H])[H])C([H])([H])C1([H])[H]

$$$$
113:0:1
     RDKit          3D

 50 54  0  0  1  0  0  0  0  0999 V2000
    2.4893  -10.0014    3.8626 C   0  0  0  0  0  0  0  0  0  0  0  0
    1.5472   -9.0702    3.0614 C   0  0  0  0  0  0  0  0  0  0  0  0
    0.2214   -9.8478    2.8768 C   0  0  0  0  0  0  0  0  0  0  0  0
    1.2766   -7.7514    3.8258 C   0  0  0  0  0  0  0  0  0  0  0  0
    2.5247   -6.8494    3.9313 C   0  0  0  0  0  0  0  0  0  0  0  0
    3.1644   -6.5317    2.5518 C   0  0  0  0  0  0  0  0  0  0  0  0
    3.4164   -7.8499    1.7783 C   0  0  0  0  0  0  0  0  0  0  0  0
    2.1556   -8.7256    1.6804 C   0  0  0  0  0  0  0  0  0  0  0  0
    2.2890   -5.6521    1.8386 O   0  0  0  0  0  0  0  0  0  0  0  0
    2.9461   -5.2771    0.5195 O   0  0  0  0  0  0  0  0  0  0  0  0
    4.2081   -4.6305    0.7844 C   0  0  0  0  0  0  0  0  0  0  0  0
    5.0715   -5.5163    1.5122 O   0  0  0  0  0  0  0  0  0  0  0  0
    4.4047   -5.8668    2.8161 O   0  0  0  0  0  0  0  0  0  0  0  0
    4.8933   -4.3194   -0.5836 C   0  0  1  0  0  0  0  0  0  0  0  0
    4.0076   -3.3786   -1.4277 C   0  0  0  0  0  0  0  0  0  0  0  0
    3.8100   -2.0441   -0.6775 C   0  0  2  0  0  0  0  0  0  0  0  0
    5.1685   -1.3564   -0.4398 C   0  0  0  0  0  0  0  0  0  0  0  0
    6.0567   -2.3033    0.3950 C   0  0  2  0  0  0  0  0  0  0  0  0
    6.2606   -3.6316   -0.3617 C   0  0  0  0  0  0  0  0  0  0  0  0
    5.3817   -2.5887    1.7518 C   0  0  0  0  0  0  0  0  0  0  0  0
    4.0120   -3.2674    1.5210 C   0  0  1  0  0  0  0  0  0  0  0  0
    3.1301   -2.3242    0.6773 C   0  0  0  0  0  0  0  0  0  0  0  0
    2.0389  -10.3124    4.8064 H   0  0  0  0  0  0  0  0  0  0  0  0
    3.4421   -9.5337    4.1077 H   0  0  0  0  0  0  0  0  0  0  0  0
    2.7172  -10.9099    3.3022 H   0  0  0  0  0  0  0  0  0  0  0  0
   -0.5278   -9.2676    2.3359 H   0  0  0  0  0  0  0  0  0  0  0  0
   -0.2195  -10.1365    3.8332 H   0  0  0  0  0  0  0  0  0  0  0  0
    0.3711  -10.7715    2.3129 H   0  0  0  0  0  0  0  0  0  0  0  0
    0.4757   -7.1996    3.3308 H   0  0  0  0  0  0  0  0  0  0  0  0
    0.9073   -7.9780    4.8285 H   0  0  0  0  0  0  0  0  0  0  0  0
    2.2754   -5.9235    4.4532 H   0  0  0  0  0  0  0  0  0  0  0  0
    3.2700   -7.3451    4.5491 H   0  0  0  0  0  0  0  0  0  0  0  0
    3.8080   -7.6592    0.7775 H   0  0  0  0  0  0  0  0  0  0  0  0
    4.2047   -8.4043    2.2778 H   0  0  0  0  0  0  0  0  0  0  0  0
    2.3876   -9.6424    1.1359 H   0  0  0  0  0  0  0  0  0  0  0  0
    1.4115   -8.2015    1.0795 H   0  0  0  0  0  0  0  0  0  0  0  0
    5.0425   -5.2546   -1.1268 H   0  0  0  0  0  0  0  0  0  0  0  0
    4.4631   -3.1957   -2.4044 H   0  0  0  0  0  0  0  0  0  0  0  0
    3.0358   -3.8388   -1.6283 H   0  0  0  0  0  0  0  0  0  0  0  0
    3.1802   -1.3810   -1.2734 H   0  0  0  0  0  0  0  0  0  0  0  0
    5.6498   -1.1111   -1.3904 H   0  0  0  0  0  0  0  0  0  0  0  0
    5.0291   -0.4057    0.0788 H   0  0  0  0  0  0  0  0  0  0  0  0
    7.0228   -1.8246    0.5588 H   0  0  0  0  0  0  0  0  0  0  0  0
    6.9373   -4.2785    0.1983 H   0  0  0  0  0  0  0  0  0  0  0  0
    6.7437   -3.4389   -1.3226 H   0  0  0  0  0  0  0  0  0  0  0  0
    6.0267   -3.2190    2.3590 H   0  0  0  0  0  0  0  0  0  0  0  0
    5.2554   -1.6598    2.3068 H   0  0  0  0  0  0  0  0  0  0  0  0
    3.5299   -3.4259    2.4841 H   0  0  0  0  0  0  0  0  0  0  0  0
    2.9531   -1.3857    1.2008 H   0  0  0  0  0  0  0  0  0  0  0  0
    2.1497   -2.7599    0.5023 H   0  0  0  0  0  0  0  0  0  0  0  0
  1  2  1  0
  1 23  1  0
  1 24  1  0
  1 25  1  0
  2  8  1  0
  2  3  1  0
  2  4  1  0
  3 26  1  0
  3 27  1  0
  3 28  1  0
  4  5  1  0
  4 29  1  0
  4 30  1  0
  5  6  1  0
  5 31  1  0
  5 32  1  0
  6 13  1  0
  6  7  1  0
  6  9  1  0
  7  8  1  0
  7 33  1  0
  7 34  1  0
  8 35  1  0
  8 36  1  0
  9 10  1  0
 10 11  1  0
 11 21  1  0
 11 12  1  0
 11 14  1  0
 12 13  1  0
 14 19  1  0
 14 15  1  0
 14 37  1  6
 15 16  1  0
 15 38  1  0
 15 39  1  0
 16 22  1  0
 16 17  1  0
 16 40  1  6
 17 18  1  0
 17 41  1  0
 17 42  1  0
 18 19  1  0
 18 20  1  0
 18 43  1  1
 19 44  1  0
 19 45  1  0
 20 21  1  0
 20 46  1  0
 20 47  1  0
 21 22  1  0
 21 48  1  1
 22 49  1  0
 22 50  1  0
M  END
>  <i_m_ct_stereo_status>  (330) 
1

>  <s_m_source_file>  (330) 
/var/tmp/pbs.5076255.sched01/tmpg3p38p3m/129jed2w9rh.sdf

>  <i_m_source_file_index>  (330) 
36

>  <i_lp_mmshare_version>  (330) 
48012

>  <i_f3d_flags>  (330) 
0

>  <s_epik_input>  (330) 
W0NIMl0xW0NIMl1DKFtDSDNdKShbQ0gzXSlbQ0gyXVtDSDJdQzEyT09DMyhPTzIpW0NAQEhdNFtDSDJdW0NASF01W0NIMl1bQ0BASF0oW0NIMl00KVtDSDJdW0NAQEhdM1tDSDJdNQ==

>  <s_epik_cmdline>  (330) 
J2VwaWtfcHl0aG9uJywgJy1waHQnLCAnMi4wJywgJy1waCcsICc3LjAnLCAnLXRuJywgJzgnLCAnLW1hJywgJzIwMCcsICctaW1hZScsICc8aW5maWxlLm1hZT4nLCAnLW9tYWUnLCAnPG91dGZpbGUubWFlPic=

>  <r_lp_tautomer_probability>  (330) 
1

>  <r_epik_Ionization_Penalty>  (330) 
0

>  <r_epik_Ionization_Penalty_Charging>  (330) 
0

>  <r_epik_Ionization_Penalty_Neutral>  (330) 
0

>  <r_epik_State_Penalty>  (330) 
-0

>  <r_epik_Charging_Adjusted_Penalty>  (330) 
0

>  <i_epik_Tot_Q>  (330) 
0

>  <i_epik_Tot_abs_Q>  (330) 
0

>  <s_lp_Force_Field>  (330) 
OPLS3e

>  <r_lp_Energy>  (330) 
5.99066

>  <b_lp_Chiralities_Consistent>  (330) 
1

>  <s_lp_Variant>  (330) 
113:0-1

>  <s_i_glide_gridfile>  (330) 
pfpi4k_grid

>  <i_i_glide_lignum>  (330) 
36

>  <i_i_glide_rotatable_bonds>  (330) 
0

>  <r_i_docking_score>  (330) 
-2.96246

>  <r_i_glide_ligand_efficiency>  (330) 
-0.134657

>  <r_i_glide_ligand_efficiency_sa>  (330) 
-0.377315

>  <r_i_glide_ligand_efficiency_ln>  (330) 
-0.724133

>  <r_i_glide_gscore>  (330) 
-2.96246

>  <r_i_glide_lipo>  (330) 
-0.237063

>  <r_i_glide_hbond>  (330) 
0

>  <r_i_glide_metal>  (330) 
-0

>  <r_i_glide_rewards>  (330) 
-1.34744

>  <r_i_glide_evdw>  (330) 
-25.1008

>  <r_i_glide_ecoul>  (330) 
-0.819451

>  <r_i_glide_erotb>  (330) 
0

>  <r_i_glide_esite>  (330) 
0

>  <r_i_glide_emodel>  (330) 
-30.9058

>  <r_i_glide_energy>  (330) 
-25.9203

>  <r_i_glide_einternal>  (330) 
0

>  <r_i_glide_intrahb_reward>  (330) 
-0

>  <i_i_glide_confnum>  (330) 
3

>  <i_i_glide_posenum>  (330) 
13

>  <r_i_glide_eff_state_penalty>  (330) 
0

>  <ligand_id>  (330) 
113

>  <original_smiles>  (330) 
CC1(C)CCC2(CC1)OOC1(OO2)C2CC3CC(C2)CC1C3

>  <smiles>  (330) 
[H]C([H])([H])C1(C([H])([H])[H])C([H])([H])C([H])([H])C2(OOC3(OO2)C2([H])C([H])([H])C4([H])C([H])([H])C([H])(C2([H])[H])C([H])([H])C3([H])C4([H])[H])C([H])([H])C1([H])[H]

$$$$
113:0:2
     RDKit          3D

 50 54  0  0  1  0  0  0  0  0999 V2000
   -1.3920   -8.0525    4.0456 C   0  0  0  0  0  0  0  0  0  0  0  0
   -0.0636   -8.2304    3.2708 C   0  0  0  0  0  0  0  0  0  0  0  0
    0.0294   -9.7275    2.8816 C   0  0  0  0  0  0  0  0  0  0  0  0
   -0.0625   -7.3173    2.0180 C   0  0  0  0  0  0  0  0  0  0  0  0
    1.2810   -7.3041    1.2699 C   0  0  0  0  0  0  0  0  0  0  0  0
    2.4404   -6.8842    2.1827 C   0  0  0  0  0  0  0  0  0  0  0  0
    2.4828   -7.7973    3.4272 C   0  0  0  0  0  0  0  0  0  0  0  0
    1.1334   -7.8112    4.1690 C   0  0  0  0  0  0  0  0  0  0  0  0
    3.6842   -7.0208    1.5247 O   0  0  0  0  0  0  0  0  0  0  0  0
    3.7402   -6.0878    0.3460 O   0  0  0  0  0  0  0  0  0  0  0  0
    3.6008   -4.7571    0.8180 C   0  0  0  0  0  0  0  0  0  0  0  0
    2.3221   -4.6534    1.4246 O   0  0  0  0  0  0  0  0  0  0  0  0
    2.2816   -5.5492    2.6197 O   0  0  0  0  0  0  0  0  0  0  0  0
    4.7429   -4.3260    1.7781 C   0  0  1  0  0  0  0  0  0  0  0  0
    6.0943   -4.4173    1.0479 C   0  0  0  0  0  0  0  0  0  0  0  0
    6.1163   -3.4616   -0.1657 C   0  0  2  0  0  0  0  0  0  0  0  0
    5.9022   -2.0048    0.3009 C   0  0  0  0  0  0  0  0  0  0  0  0
    4.5388   -1.9181    1.0139 C   0  0  2  0  0  0  0  0  0  0  0  0
    4.5230   -2.8707    2.2309 C   0  0  0  0  0  0  0  0  0  0  0  0
    3.4122   -2.3291    0.0397 C   0  0  0  0  0  0  0  0  0  0  0  0
    3.6240   -3.7914   -0.4147 C   0  0  1  0  0  0  0  0  0  0  0  0
    4.9881   -3.8640   -1.1371 C   0  0  0  0  0  0  0  0  0  0  0  0
   -2.2489   -8.3889    3.4535 H   0  0  0  0  0  0  0  0  0  0  0  0
   -1.5794   -7.0098    4.3252 H   0  0  0  0  0  0  0  0  0  0  0  0
   -1.4018   -8.6470    4.9645 H   0  0  0  0  0  0  0  0  0  0  0  0
    0.9289   -9.9665    2.3117 H   0  0  0  0  0  0  0  0  0  0  0  0
   -0.8185  -10.0337    2.2563 H   0  0  0  0  0  0  0  0  0  0  0  0
    0.0275  -10.3722    3.7581 H   0  0  0  0  0  0  0  0  0  0  0  0
   -0.8608   -7.6238    1.3379 H   0  0  0  0  0  0  0  0  0  0  0  0
   -0.2918   -6.2972    2.3239 H   0  0  0  0  0  0  0  0  0  0  0  0
    1.4868   -8.2840    0.8790 H   0  0  0  0  0  0  0  0  0  0  0  0
    1.1962   -6.6621    0.3989 H   0  0  0  0  0  0  0  0  0  0  0  0
    2.7369   -8.8053    3.1232 H   0  0  0  0  0  0  0  0  0  0  0  0
    3.2770   -7.4933    4.1110 H   0  0  0  0  0  0  0  0  0  0  0  0
    0.9391   -6.8180    4.5821 H   0  0  0  0  0  0  0  0  0  0  0  0
    1.1899   -8.4818    5.0373 H   0  0  0  0  0  0  0  0  0  0  0  0
    4.7663   -4.9707    2.6719 H   0  0  0  0  0  0  0  0  0  0  0  0
    6.9137   -4.1630    1.7234 H   0  0  0  0  0  0  0  0  0  0  0  0
    6.2847   -5.4336    0.7017 H   0  0  0  0  0  0  0  0  0  0  0  0
    7.0810   -3.5272   -0.6698 H   0  0  0  0  0  0  0  0  0  0  0  0
    6.6998   -1.6887    0.9747 H   0  0  0  0  0  0  0  0  0  0  0  0
    5.9278   -1.3220   -0.5463 H   0  0  0  0  0  0  0  0  0  0  0  0
    4.3833   -0.8904    1.3461 H   0  0  0  0  0  0  0  0  0  0  0  0
    3.5730   -2.7615    2.7571 H   0  0  0  0  0  0  0  0  0  0  0  0
    5.2999   -2.5677    2.9357 H   0  0  0  0  0  0  0  0  0  0  0  0
    2.4412   -2.1997    0.5166 H   0  0  0  0  0  0  0  0  0  0  0  0
    3.4053   -1.6517   -0.8228 H   0  0  0  0  0  0  0  0  0  0  0  0
    2.8365   -4.0580   -1.1213 H   0  0  0  0  0  0  0  0  0  0  0  0
    4.9992   -3.2020   -2.0095 H   0  0  0  0  0  0  0  0  0  0  0  0
    5.1693   -4.8662   -1.5229 H   0  0  0  0  0  0  0  0  0  0  0  0
  1  2  1  0
  1 23  1  0
  1 24  1  0
  1 25  1  0
  2  8  1  0
  2  3  1  0
  2  4  1  0
  3 26  1  0
  3 27  1  0
  3 28  1  0
  4  5  1  0
  4 29  1  0
  4 30  1  0
  5  6  1  0
  5 31  1  0
  5 32  1  0
  6 13  1  0
  6  7  1  0
  6  9  1  0
  7  8  1  0
  7 33  1  0
  7 34  1  0
  8 35  1  0
  8 36  1  0
  9 10  1  0
 10 11  1  0
 11 21  1  0
 11 12  1  0
 11 14  1  0
 12 13  1  0
 14 19  1  0
 14 15  1  0
 14 37  1  1
 15 16  1  0
 15 38  1  0
 15 39  1  0
 16 22  1  0
 16 17  1  0
 16 40  1  6
 17 18  1  0
 17 41  1  0
 17 42  1  0
 18 19  1  0
 18 20  1  0
 18 43  1  1
 19 44  1  0
 19 45  1  0
 20 21  1  0
 20 46  1  0
 20 47  1  0
 21 22  1  0
 21 48  1  6
 22 49  1  0
 22 50  1  0
M  END
>  <i_m_ct_stereo_status>  (331) 
1

>  <s_m_source_file>  (331) 
/var/tmp/pbs.5076255.sched01/tmpg3p38p3m/129jed2w9rh.sdf

>  <i_m_source_file_index>  (331) 
36

>  <i_lp_mmshare_version>  (331) 
48012

>  <i_f3d_flags>  (331) 
0

>  <s_epik_input>  (331) 
W0NIMl0xW0NIMl1DKFtDSDNdKShbQ0gzXSlbQ0gyXVtDSDJdQzEyT09DMyhPTzIpW0NAQEhdNFtDSDJdW0NASF01W0NIMl1bQ0BASF0oW0NIMl00KVtDSDJdW0NAQEhdM1tDSDJdNQ==

>  <s_epik_cmdline>  (331) 
J2VwaWtfcHl0aG9uJywgJy1waHQnLCAnMi4wJywgJy1waCcsICc3LjAnLCAnLXRuJywgJzgnLCAnLW1hJywgJzIwMCcsICctaW1hZScsICc8aW5maWxlLm1hZT4nLCAnLW9tYWUnLCAnPG91dGZpbGUubWFlPic=

>  <r_lp_tautomer_probability>  (331) 
1

>  <r_epik_Ionization_Penalty>  (331) 
0

>  <r_epik_Ionization_Penalty_Charging>  (331) 
0

>  <r_epik_Ionization_Penalty_Neutral>  (331) 
0

>  <r_epik_State_Penalty>  (331) 
-0

>  <r_epik_Charging_Adjusted_Penalty>  (331) 
0

>  <i_epik_Tot_Q>  (331) 
0

>  <i_epik_Tot_abs_Q>  (331) 
0

>  <s_lp_Force_Field>  (331) 
OPLS3e

>  <r_lp_Energy>  (331) 
5.99066

>  <b_lp_Chiralities_Consistent>  (331) 
1

>  <s_lp_Variant>  (331) 
113:0-1

>  <s_i_glide_gridfile>  (331) 
pfpi4k_grid

>  <i_i_glide_lignum>  (331) 
36

>  <i_i_glide_rotatable_bonds>  (331) 
0

>  <r_i_docking_score>  (331) 
-2.93012

>  <r_i_glide_ligand_efficiency>  (331) 
-0.133187

>  <r_i_glide_ligand_efficiency_sa>  (331) 
-0.373196

>  <r_i_glide_ligand_efficiency_ln>  (331) 
-0.716227

>  <r_i_glide_gscore>  (331) 
-2.93012

>  <r_i_glide_lipo>  (331) 
-0.279098

>  <r_i_glide_hbond>  (331) 
0

>  <r_i_glide_metal>  (331) 
-0

>  <r_i_glide_rewards>  (331) 
-1.30628

>  <r_i_glide_evdw>  (331) 
-27.0271

>  <r_i_glide_ecoul>  (331) 
0.103015

>  <r_i_glide_erotb>  (331) 
0

>  <r_i_glide_esite>  (331) 
-0.0088387

>  <r_i_glide_emodel>  (331) 
-31.8741

>  <r_i_glide_energy>  (331) 
-26.9241

>  <r_i_glide_einternal>  (331) 
0

>  <r_i_glide_intrahb_reward>  (331) 
-0

>  <i_i_glide_confnum>  (331) 
6

>  <i_i_glide_posenum>  (331) 
28

>  <r_i_glide_eff_state_penalty>  (331) 
0

>  <ligand_id>  (331) 
113

>  <original_smiles>  (331) 
CC1(C)CCC2(CC1)OOC1(OO2)C2CC3CC(C2)CC1C3

>  <smiles>  (331) 
[H]C([H])([H])C1(C([H])([H])[H])C([H])([H])C([H])([H])C2(OOC3(OO2)C2([H])C([H])([H])C4([H])C([H])([H])C([H])(C2([H])[H])C([H])([H])C3([H])C4([H])[H])C([H])([H])C1([H])[H]

$$$$
114:0:0
     RDKit          3D

 76 83  0  0  1  0  0  0  0  0999 V2000
    7.4131   -7.4709    5.0999 C   0  0  0  0  0  0  0  0  0  0  0  0
    6.2717   -6.5421    4.6415 C   0  0  2  0  0  0  0  0  0  0  0  0
    4.9395   -7.2716    4.4220 C   0  0  0  0  0  0  0  0  0  0  0  0
    4.2549   -7.2685    5.4483 O   0  0  0  0  0  0  0  0  0  0  0  0
    4.6132   -8.1233    3.0813 C   0  0  2  0  0  0  0  0  0  0  0  0
    5.9382   -7.9224    2.3449 C   0  0  0  0  0  0  0  0  0  0  0  0
    6.6713   -8.8316    1.9480 O   0  0  0  0  0  0  0  0  0  0  0  0
    6.2168   -6.3956    2.1056 C   0  0  2  0  0  0  0  0  0  0  0  0
    6.5630   -5.6625    3.4353 C   0  0  1  0  0  0  0  0  0  0  0  0
    5.7894   -4.3252    3.6579 C   0  0  0  0  0  0  0  0  0  0  0  0
    4.2520   -4.4503    3.5177 C   0  0  0  0  0  0  0  0  0  0  0  0
    3.7936   -4.9975    2.1313 C   0  0  1  0  0  0  0  0  0  0  0  0
    3.2738   -3.6781    1.3326 C   0  0  0  0  0  0  0  0  0  0  0  0
    2.8056   -3.9148   -0.1357 C   0  0  0  0  0  0  0  0  0  0  0  0
    4.0976   -2.3329    1.3773 C   0  0  0  0  0  0  0  0  0  0  0  0
    5.1210   -5.5701    1.3090 C   0  0  1  0  0  0  0  0  0  0  0  0
    5.9755   -4.6156    0.4233 C   0  0  0  0  0  0  0  0  0  0  0  0
    2.5237   -6.1043    2.3741 C   0  0  1  0  0  0  0  0  0  0  0  0
    1.3183   -5.4349    2.0880 O   0  0  0  0  0  0  0  0  0  0  0  0
    2.6038   -7.1086    1.3050 C   0  0  0  0  0  0  0  0  0  0  0  0
    3.7023   -8.1185    1.6903 C   0  0  2  0  0  0  0  0  0  0  0  0
    3.1835   -9.5483    1.4797 C   0  0  1  0  0  0  0  0  0  0  0  0
    3.8066  -10.3580    2.5548 C   0  0  0  0  0  0  0  0  0  0  0  0
    3.8209   -9.3268    3.6762 C   0  0  1  0  0  0  0  0  0  0  0  0
    4.4596  -10.1337    4.8527 C   0  0  0  0  0  0  0  0  0  0  0  0
    2.3190   -8.6440    3.8861 C   0  0  1  0  0  0  0  0  0  0  0  0
    1.4146   -9.4510    3.1133 O   0  0  0  0  0  0  0  0  0  0  0  0
    1.8004   -9.6284    1.6733 O   0  0  0  0  0  0  0  0  0  0  0  0
    1.5197   -8.8867    5.1936 C   0  0  1  0  0  0  0  0  0  0  0  0
    2.3006   -9.0015    6.3844 O   0  0  0  0  0  0  0  0  0  0  0  0
    2.1637   -8.2884    7.5259 C   0  0  0  0  0  0  0  0  0  0  0  0
    2.8292   -8.5129    8.5162 O   0  0  0  0  0  0  0  0  0  0  0  0
    1.1610   -7.2068    7.4821 C   0  0  0  0  0  0  0  0  0  0  0  0
    0.3957   -6.9705    6.4204 C   0  0  0  0  0  0  0  0  0  0  0  0
    0.4122   -7.7929    5.1420 C   0  0  2  0  0  0  0  0  0  0  0  0
   -0.9905   -8.3732    4.9065 C   0  0  0  0  0  0  0  0  0  0  0  0
    0.6900   -6.9577    4.0073 O   0  0  0  0  0  0  0  0  0  0  0  0
    2.0808   -7.0106    3.6910 C   0  0  2  0  0  0  0  0  0  0  0  0
    7.1363   -7.9539    6.0384 H   0  0  0  0  0  0  0  0  0  0  0  0
    8.3250   -6.9019    5.2855 H   0  0  0  0  0  0  0  0  0  0  0  0
    7.6543   -8.2607    4.3879 H   0  0  0  0  0  0  0  0  0  0  0  0
    6.1042   -5.8808    5.4881 H   0  0  0  0  0  0  0  0  0  0  0  0
    7.1324   -6.4040    1.5174 H   0  0  0  0  0  0  0  0  0  0  0  0
    7.6369   -5.4531    3.4326 H   0  0  0  0  0  0  0  0  0  0  0  0
    6.0120   -3.9227    4.6472 H   0  0  0  0  0  0  0  0  0  0  0  0
    6.2050   -3.5696    2.9848 H   0  0  0  0  0  0  0  0  0  0  0  0
    3.8537   -5.0017    4.3519 H   0  0  0  0  0  0  0  0  0  0  0  0
    3.7604   -3.5011    3.7297 H   0  0  0  0  0  0  0  0  0  0  0  0
    2.3884   -3.3434    1.8706 H   0  0  0  0  0  0  0  0  0  0  0  0
    3.3729   -4.6643   -0.6837 H   0  0  0  0  0  0  0  0  0  0  0  0
    2.8941   -2.9931   -0.7133 H   0  0  0  0  0  0  0  0  0  0  0  0
    1.7696   -4.2196   -0.2269 H   0  0  0  0  0  0  0  0  0  0  0  0
    4.9195   -2.3004    0.6571 H   0  0  0  0  0  0  0  0  0  0  0  0
    4.4960   -2.0926    2.3660 H   0  0  0  0  0  0  0  0  0  0  0  0
    3.4120   -1.4978    1.1523 H   0  0  0  0  0  0  0  0  0  0  0  0
    4.7887   -6.1847    0.4817 H   0  0  0  0  0  0  0  0  0  0  0  0
    6.4977   -3.8333    0.9740 H   0  0  0  0  0  0  0  0  0  0  0  0
    5.4156   -4.1298   -0.3695 H   0  0  0  0  0  0  0  0  0  0  0  0
    6.7351   -5.1853   -0.1112 H   0  0  0  0  0  0  0  0  0  0  0  0
    1.1830   -4.8071    2.7780 H   0  0  0  0  0  0  0  0  0  0  0  0
    1.6131   -7.5329    1.1484 H   0  0  0  0  0  0  0  0  0  0  0  0
    2.7811   -6.6541    0.3352 H   0  0  0  0  0  0  0  0  0  0  0  0
    4.3055   -8.1134    0.7767 H   0  0  0  0  0  0  0  0  0  0  0  0
    3.4281   -9.9009    0.4732 H   0  0  0  0  0  0  0  0  0  0  0  0
    3.2591  -11.2767    2.7747 H   0  0  0  0  0  0  0  0  0  0  0  0
    4.8212  -10.6471    2.2725 H   0  0  0  0  0  0  0  0  0  0  0  0
    3.8319  -10.9886    5.1078 H   0  0  0  0  0  0  0  0  0  0  0  0
    4.6227   -9.5930    5.7778 H   0  0  0  0  0  0  0  0  0  0  0  0
    5.4344  -10.5268    4.5601 H   0  0  0  0  0  0  0  0  0  0  0  0
    1.0318   -9.8551    5.1173 H   0  0  0  0  0  0  0  0  0  0  0  0
    1.0849   -6.6194    8.3806 H   0  0  0  0  0  0  0  0  0  0  0  0
   -0.3270   -6.1725    6.4603 H   0  0  0  0  0  0  0  0  0  0  0  0
   -1.2758   -9.0578    5.7105 H   0  0  0  0  0  0  0  0  0  0  0  0
   -1.0474   -8.9370    3.9775 H   0  0  0  0  0  0  0  0  0  0  0  0
   -1.7443   -7.5876    4.8662 H   0  0  0  0  0  0  0  0  0  0  0  0
    2.3903   -6.4266    4.5467 H   0  0  0  0  0  0  0  0  0  0  0  0
  1  2  1  0
  1 39  1  0
  1 40  1  0
  1 41  1  0
  2  9  1  0
  2  3  1  0
  2 42  1  1
  3  4  2  0
  5  3  1  1
  5 21  1  0
  5 24  1  0
  5  6  1  0
  6  7  2  0
  6  8  1  0
  8 16  1  0
  8  9  1  0
  8 43  1  6
  9 10  1  0
  9 44  1  6
 10 11  1  0
 10 45  1  0
 10 46  1  0
 11 12  1  0
 11 47  1  0
 11 48  1  0
 12 13  1  6
 12 16  1  0
 12 18  1  0
 13 14  1  0
 13 15  1  0
 13 49  1  0
 14 50  1  0
 14 51  1  0
 14 52  1  0
 15 53  1  0
 15 54  1  0
 15 55  1  0
 16 17  1  0
 16 56  1  6
 17 57  1  0
 17 58  1  0
 17 59  1  0
 18 38  1  0
 18 19  1  6
 18 20  1  0
 19 60  1  0
 20 21  1  0
 20 61  1  0
 20 62  1  0
 21 22  1  0
 21 63  1  6
 22 28  1  0
 22 23  1  0
 22 64  1  6
 23 24  1  0
 23 65  1  0
 23 66  1  0
 24 25  1  1
 24 26  1  0
 25 67  1  0
 25 68  1  0
 25 69  1  0
 26 38  1  0
 26 27  1  6
 26 29  1  0
 27 28  1  0
 29 35  1  0
 29 30  1  0
 29 70  1  6
 30 31  1  0
 31 32  2  0
 31 33  1  0
 33 34  2  0
 33 71  1  0
 34 35  1  0
 34 72  1  0
 35 36  1  6
 35 37  1  0
 36 73  1  0
 36 74  1  0
 36 75  1  0
 37 38  1  0
 38 76  1  1
M  END
>  <i_m_ct_stereo_status>  (332) 
1

>  <s_m_source_file>  (332) 
/var/tmp/pbs.5076255.sched01/tmpg3p38p3m/129jed2w9rh.sdf

>  <i_m_source_file_index>  (332) 
37

>  <i_lp_mmshare_version>  (332) 
48012

>  <i_f3d_flags>  (332) 
0

>  <s_epik_input>  (332) 
Tz1DMVtDQEBIXShbQ0gzXSlbQ0BASF0oW0NAQEhdKEMyPU8pW0NAQEhdM1tDSDNdKVtDSDJdW0NIMl1bQ0BdMyhbQ0hdKFtDSDNdKVtDSDNdKVtDQEBdKFtPSF0pKFtDSDJdNClbQ0BIXTVPW0NAXShbQ0gzXSkoW0NIXT1bQ0hdQyhPNik9TylbQ0BIXTZbQ0BdNShPTzcpW0NAQF04KFtDSDNdKVtDSDJdW0NAQEhdN1tDQEBIXTRDMTI4

>  <s_epik_cmdline>  (332) 
J2VwaWtfcHl0aG9uJywgJy1waHQnLCAnMi4wJywgJy1waCcsICc3LjAnLCAnLXRuJywgJzgnLCAnLW1hJywgJzIwMCcsICctaW1hZScsICc8aW5maWxlLm1hZT4nLCAnLW9tYWUnLCAnPG91dGZpbGUubWFlPic=

>  <r_lp_tautomer_probability>  (332) 
1

>  <r_epik_Ionization_Penalty>  (332) 
3.37586e-08

>  <r_epik_Ionization_Penalty_Charging>  (332) 
0

>  <r_epik_Ionization_Penalty_Neutral>  (332) 
3.37586e-08

>  <r_epik_State_Penalty>  (332) 
-0

>  <r_epik_Charging_Adjusted_Penalty>  (332) 
0

>  <i_epik_Tot_Q>  (332) 
0

>  <i_epik_Tot_abs_Q>  (332) 
0

>  <s_epik_Chemistry_Notes>  (332) 
This compound has an ester and may undergo hydrolysis at high or low pH.

>  <s_lp_Force_Field>  (332) 
OPLS3e

>  <r_lp_Energy>  (332) 
277.393

>  <b_lp_Chiralities_Consistent>  (332) 
1

>  <s_lp_Variant>  (332) 
114:0-1

>  <s_i_glide_gridfile>  (332) 
pfpi4k_grid

>  <i_i_glide_lignum>  (332) 
37

>  <i_i_glide_rotatable_bonds>  (332) 
2

>  <r_i_docking_score>  (332) 
-1.66854

>  <r_i_glide_ligand_efficiency>  (332) 
-0.0439089

>  <r_i_glide_ligand_efficiency_sa>  (332) 
-0.147621

>  <r_i_glide_ligand_efficiency_ln>  (332) 
-0.359786

>  <r_i_glide_gscore>  (332) 
-1.66854

>  <r_i_glide_lipo>  (332) 
-0.215244

>  <r_i_glide_hbond>  (332) 
0

>  <r_i_glide_metal>  (332) 
-0

>  <r_i_glide_rewards>  (332) 
-0.0367785

>  <r_i_glide_evdw>  (332) 
-20.7339

>  <r_i_glide_ecoul>  (332) 
-2.42179

>  <r_i_glide_erotb>  (332) 
0

>  <r_i_glide_esite>  (332) 
-0.0165534

>  <r_i_glide_emodel>  (332) 
-22.5755

>  <r_i_glide_energy>  (332) 
-23.1557

>  <r_i_glide_einternal>  (332) 
4.48775

>  <r_i_glide_intrahb_reward>  (332) 
-0

>  <i_i_glide_confnum>  (332) 
1

>  <i_i_glide_posenum>  (332) 
21

>  <r_i_glide_eff_state_penalty>  (332) 
0

>  <ligand_id>  (332) 
114

>  <original_smiles>  (332) 
CC1C(=O)C23C(=O)C4C1CCC(C(C)C)(C4C)C1(O)CC2C2CC3(C)C3(OO2)C2OC(=O)C=CC2(C)OC13

>  <smiles>  (332) 
[H]OC12C([H])([H])C3([H])C4([H])OOC5(C6([H])OC(=O)C([H])=C([H])C6(C([H])([H])[H])OC51[H])C(C([H])([H])[H])(C4([H])[H])C31C(=O)C([H])(C([H])([H])[H])C3([H])C([H])([H])C([H])([H])C2(C([H])(C([H])([H])[H])C([H])([H])[H])C([H])(C([H])([H])[H])C3([H])C1=O

$$$$
114:0:1
     RDKit          3D

 76 83  0  0  1  0  0  0  0  0999 V2000
    1.8185    3.4269   11.5162 C   0  0  0  0  0  0  0  0  0  0  0  0
    1.1927    2.6273   10.3511 C   0  0  2  0  0  0  0  0  0  0  0  0
    2.1045    2.5390    9.1114 C   0  0  0  0  0  0  0  0  0  0  0  0
    2.8203    1.5424    9.1654 O   0  0  0  0  0  0  0  0  0  0  0  0
    2.2681    3.7478    8.0402 C   0  0  2  0  0  0  0  0  0  0  0  0
    1.3213    4.7495    8.7003 C   0  0  0  0  0  0  0  0  0  0  0  0
    1.6312    5.8838    9.0493 O   0  0  0  0  0  0  0  0  0  0  0  0
   -0.1357    4.1598    8.8284 C   0  0  2  0  0  0  0  0  0  0  0  0
   -0.2086    3.0453    9.9156 C   0  0  1  0  0  0  0  0  0  0  0  0
   -0.9543    1.7548    9.4661 C   0  0  0  0  0  0  0  0  0  0  0  0
   -0.4340    1.1617    8.1348 C   0  0  0  0  0  0  0  0  0  0  0  0
   -0.4485    2.1360    6.9059 C   0  0  1  0  0  0  0  0  0  0  0  0
   -1.7285    1.6860    6.0267 C   0  0  0  0  0  0  0  0  0  0  0  0
   -1.9235    0.1800    5.6728 C   0  0  0  0  0  0  0  0  0  0  0  0
   -2.0264    2.5378    4.7593 C   0  0  0  0  0  0  0  0  0  0  0  0
   -0.8320    3.6449    7.4953 C   0  0  1  0  0  0  0  0  0  0  0  0
   -2.3409    4.0331    7.6762 C   0  0  0  0  0  0  0  0  0  0  0  0
    0.9616    2.0147    5.9859 C   0  0  1  0  0  0  0  0  0  0  0  0
    0.6783    1.2253    4.8512 O   0  0  0  0  0  0  0  0  0  0  0  0
    1.2307    3.3481    5.4092 C   0  0  0  0  0  0  0  0  0  0  0  0
    1.8883    4.2213    6.4920 C   0  0  2  0  0  0  0  0  0  0  0  0
    3.1211    4.9421    5.9054 C   0  0  1  0  0  0  0  0  0  0  0  0
    4.1002    4.9896    7.0191 C   0  0  0  0  0  0  0  0  0  0  0  0
    3.7873    3.6715    7.7117 C   0  0  1  0  0  0  0  0  0  0  0  0
    4.8102    3.6775    8.8950 C   0  0  0  0  0  0  0  0  0  0  0  0
    3.8023    2.4026    6.6343 C   0  0  1  0  0  0  0  0  0  0  0  0
    4.3644    2.9222    5.4072 O   0  0  0  0  0  0  0  0  0  0  0  0
    3.7188    4.1940    4.8719 O   0  0  0  0  0  0  0  0  0  0  0  0
    4.8871    1.2996    6.7410 C   0  0  1  0  0  0  0  0  0  0  0  0
    5.3188    0.9693    8.0629 O   0  0  0  0  0  0  0  0  0  0  0  0
    5.3243   -0.2540    8.6469 C   0  0  0  0  0  0  0  0  0  0  0  0
    5.7832   -0.4398    9.7678 O   0  0  0  0  0  0  0  0  0  0  0  0
    4.7398   -1.3436    7.8581 C   0  0  0  0  0  0  0  0  0  0  0  0
    4.2774   -1.1671    6.6099 C   0  0  0  0  0  0  0  0  0  0  0  0
    4.3363    0.1481    5.8570 C   0  0  2  0  0  0  0  0  0  0  0  0
    5.1484   -0.0588    4.5651 C   0  0  0  0  0  0  0  0  0  0  0  0
    3.0276    0.5591    5.4335 O   0  0  0  0  0  0  0  0  0  0  0  0
    2.4609    1.4651    6.3796 C   0  0  2  0  0  0  0  0  0  0  0  0
    2.7537    2.9590   11.8270 H   0  0  0  0  0  0  0  0  0  0  0  0
    1.1577    3.4287   12.3845 H   0  0  0  0  0  0  0  0  0  0  0  0
    2.0458    4.4651   11.2742 H   0  0  0  0  0  0  0  0  0  0  0  0
    1.1195    1.6115   10.7371 H   0  0  0  0  0  0  0  0  0  0  0  0
   -0.7109    5.0025    9.2133 H   0  0  0  0  0  0  0  0  0  0  0  0
   -0.7365    3.4410   10.7896 H   0  0  0  0  0  0  0  0  0  0  0  0
   -0.8695    1.0003   10.2503 H   0  0  0  0  0  0  0  0  0  0  0  0
   -2.0248    1.9200    9.4224 H   0  0  0  0  0  0  0  0  0  0  0  0
    0.5367    0.7118    8.2820 H   0  0  0  0  0  0  0  0  0  0  0  0
   -1.0070    0.2653    7.9550 H   0  0  0  0  0  0  0  0  0  0  0  0
   -2.5969    1.8286    6.6664 H   0  0  0  0  0  0  0  0  0  0  0  0
   -1.0047   -0.3693    5.4798 H   0  0  0  0  0  0  0  0  0  0  0  0
   -2.5564    0.0608    4.7924 H   0  0  0  0  0  0  0  0  0  0  0  0
   -2.4450   -0.3462    6.4656 H   0  0  0  0  0  0  0  0  0  0  0  0
   -1.4186    2.2383    3.9066 H   0  0  0  0  0  0  0  0  0  0  0  0
   -1.8811    3.6058    4.9018 H   0  0  0  0  0  0  0  0  0  0  0  0
   -3.0606    2.4214    4.4402 H   0  0  0  0  0  0  0  0  0  0  0  0
   -0.6341    4.3814    6.7305 H   0  0  0  0  0  0  0  0  0  0  0  0
   -2.9025    3.4244    8.3779 H   0  0  0  0  0  0  0  0  0  0  0  0
   -2.9092    4.0336    6.7492 H   0  0  0  0  0  0  0  0  0  0  0  0
   -2.4282    5.0537    8.0545 H   0  0  0  0  0  0  0  0  0  0  0  0
    1.3965    1.3147    4.2414 H   0  0  0  0  0  0  0  0  0  0  0  0
    1.8160    3.2105    4.5039 H   0  0  0  0  0  0  0  0  0  0  0  0
    0.3478    3.8217    4.9917 H   0  0  0  0  0  0  0  0  0  0  0  0
    1.2425    5.1036    6.4557 H   0  0  0  0  0  0  0  0  0  0  0  0
    2.8896    5.9434    5.5349 H   0  0  0  0  0  0  0  0  0  0  0  0
    5.1303    5.1013    6.6812 H   0  0  0  0  0  0  0  0  0  0  0  0
    3.8785    5.8326    7.6757 H   0  0  0  0  0  0  0  0  0  0  0  0
    5.8319    3.6957    8.5146 H   0  0  0  0  0  0  0  0  0  0  0  0
    4.7639    2.8425    9.5850 H   0  0  0  0  0  0  0  0  0  0  0  0
    4.6830    4.5712    9.5074 H   0  0  0  0  0  0  0  0  0  0  0  0
    5.8010    1.6643    6.2752 H   0  0  0  0  0  0  0  0  0  0  0  0
    4.7104   -2.3118    8.3262 H   0  0  0  0  0  0  0  0  0  0  0  0
    3.8781   -2.0125    6.0721 H   0  0  0  0  0  0  0  0  0  0  0  0
    6.1813   -0.3358    4.7812 H   0  0  0  0  0  0  0  0  0  0  0  0
    5.1664    0.8436    3.9559 H   0  0  0  0  0  0  0  0  0  0  0  0
    4.7171   -0.8553    3.9545 H   0  0  0  0  0  0  0  0  0  0  0  0
    2.2966    0.7233    7.1489 H   0  0  0  0  0  0  0  0  0  0  0  0
  1  2  1  0
  1 39  1  0
  1 40  1  0
  1 41  1  0
  2  9  1  0
  2  3  1  0
  2 42  1  1
  3  4  2  0
  5  3  1  6
  5 21  1  0
  5 24  1  0
  5  6  1  0
  6  7  2  0
  6  8  1  0
  8 16  1  0
  8  9  1  0
  8 43  1  1
  9 10  1  0
  9 44  1  1
 10 11  1  0
 10 45  1  0
 10 46  1  0
 11 12  1  0
 11 47  1  0
 11 48  1  0
 12 13  1  6
 12 16  1  0
 12 18  1  0
 13 14  1  0
 13 15  1  0
 13 49  1  0
 14 50  1  0
 14 51  1  0
 14 52  1  0
 15 53  1  0
 15 54  1  0
 15 55  1  0
 16 17  1  0
 16 56  1  6
 17 57  1  0
 17 58  1  0
 17 59  1  0
 18 38  1  0
 18 19  1  6
 18 20  1  0
 19 60  1  0
 20 21  1  0
 20 61  1  0
 20 62  1  0
 21 22  1  0
 21 63  1  1
 22 28  1  0
 22 23  1  0
 22 64  1  6
 23 24  1  0
 23 65  1  0
 23 66  1  0
 24 25  1  1
 24 26  1  0
 25 67  1  0
 25 68  1  0
 25 69  1  0
 26 38  1  0
 26 27  1  6
 26 29  1  0
 27 28  1  0
 29 35  1  0
 29 30  1  0
 29 70  1  6
 30 31  1  0
 31 32  2  0
 31 33  1  0
 33 34  2  0
 33 71  1  0
 34 35  1  0
 34 72  1  0
 35 36  1  6
 35 37  1  0
 36 73  1  0
 36 74  1  0
 36 75  1  0
 37 38  1  0
 38 76  1  1
M  END
>  <i_m_ct_stereo_status>  (333) 
1

>  <s_m_source_file>  (333) 
/var/tmp/pbs.5076255.sched01/tmpg3p38p3m/129jed2w9rh.sdf

>  <i_m_source_file_index>  (333) 
37

>  <i_lp_mmshare_version>  (333) 
48012

>  <i_f3d_flags>  (333) 
0

>  <s_epik_input>  (333) 
Tz1DMVtDQEBIXShbQ0gzXSlbQ0BASF0oW0NAQEhdKEMyPU8pW0NAQEhdM1tDSDNdKVtDSDJdW0NIMl1bQ0BdMyhbQ0hdKFtDSDNdKVtDSDNdKVtDQEBdKFtPSF0pKFtDSDJdNClbQ0BIXTVPW0NAXShbQ0gzXSkoW0NIXT1bQ0hdQyhPNik9TylbQ0BIXTZbQ0BdNShPTzcpW0NAQF04KFtDSDNdKVtDSDJdW0NAQEhdN1tDQEBIXTRDMTI4

>  <s_epik_cmdline>  (333) 
J2VwaWtfcHl0aG9uJywgJy1waHQnLCAnMi4wJywgJy1waCcsICc3LjAnLCAnLXRuJywgJzgnLCAnLW1hJywgJzIwMCcsICctaW1hZScsICc8aW5maWxlLm1hZT4nLCAnLW9tYWUnLCAnPG91dGZpbGUubWFlPic=

>  <r_lp_tautomer_probability>  (333) 
1

>  <r_epik_Ionization_Penalty>  (333) 
3.37586e-08

>  <r_epik_Ionization_Penalty_Charging>  (333) 
0

>  <r_epik_Ionization_Penalty_Neutral>  (333) 
3.37586e-08

>  <r_epik_State_Penalty>  (333) 
-0

>  <r_epik_Charging_Adjusted_Penalty>  (333) 
0

>  <i_epik_Tot_Q>  (333) 
0

>  <i_epik_Tot_abs_Q>  (333) 
0

>  <s_epik_Chemistry_Notes>  (333) 
This compound has an ester and may undergo hydrolysis at high or low pH.

>  <s_lp_Force_Field>  (333) 
OPLS3e

>  <r_lp_Energy>  (333) 
277.393

>  <b_lp_Chiralities_Consistent>  (333) 
1

>  <s_lp_Variant>  (333) 
114:0-1

>  <s_i_glide_gridfile>  (333) 
pfpi4k_grid

>  <i_i_glide_lignum>  (333) 
37

>  <i_i_glide_rotatable_bonds>  (333) 
2

>  <r_i_docking_score>  (333) 
-0.794301

>  <r_i_glide_ligand_efficiency>  (333) 
-0.0209027

>  <r_i_glide_ligand_efficiency_sa>  (333) 
-0.0702743

>  <r_i_glide_ligand_efficiency_ln>  (333) 
-0.171275

>  <r_i_glide_gscore>  (333) 
-0.794301

>  <r_i_glide_lipo>  (333) 
-0.138064

>  <r_i_glide_hbond>  (333) 
0

>  <r_i_glide_metal>  (333) 
-0

>  <r_i_glide_rewards>  (333) 
0

>  <r_i_glide_evdw>  (333) 
-14.9319

>  <r_i_glide_ecoul>  (333) 
0.602365

>  <r_i_glide_erotb>  (333) 
0

>  <r_i_glide_esite>  (333) 
0

>  <r_i_glide_emodel>  (333) 
-15.1599

>  <r_i_glide_energy>  (333) 
-14.3295

>  <r_i_glide_einternal>  (333) 
0.0789007

>  <r_i_glide_intrahb_reward>  (333) 
-0

>  <i_i_glide_confnum>  (333) 
1

>  <i_i_glide_posenum>  (333) 
35

>  <r_i_glide_eff_state_penalty>  (333) 
0

>  <ligand_id>  (333) 
114

>  <original_smiles>  (333) 
CC1C(=O)C23C(=O)C4C1CCC(C(C)C)(C4C)C1(O)CC2C2CC3(C)C3(OO2)C2OC(=O)C=CC2(C)OC13

>  <smiles>  (333) 
[H]OC12C([H])([H])C3([H])C4([H])OOC5(C6([H])OC(=O)C([H])=C([H])C6(C([H])([H])[H])OC51[H])C(C([H])([H])[H])(C4([H])[H])C31C(=O)C([H])(C([H])([H])[H])C3([H])C([H])([H])C([H])([H])C2(C([H])(C([H])([H])[H])C([H])([H])[H])C([H])(C([H])([H])[H])C3([H])C1=O

$$$$
114:0:2
     RDKit          3D

 76 83  0  0  1  0  0  0  0  0999 V2000
    3.3725    3.0350    9.7500 C   0  0  0  0  0  0  0  0  0  0  0  0
    2.2129    2.4422    8.9230 C   0  0  2  0  0  0  0  0  0  0  0  0
    2.4891    2.4082    7.4079 C   0  0  0  0  0  0  0  0  0  0  0  0
    3.0068    1.3319    7.1078 O   0  0  0  0  0  0  0  0  0  0  0  0
    2.3735    3.6893    6.4325 C   0  0  2  0  0  0  0  0  0  0  0  0
    1.9559    4.6944    7.4824 C   0  0  0  0  0  0  0  0  0  0  0  0
    2.5457    5.7464    7.7308 O   0  0  0  0  0  0  0  0  0  0  0  0
    0.6385    4.2809    8.2081 C   0  0  2  0  0  0  0  0  0  0  0  0
    0.8440    3.0556    9.1458 C   0  0  1  0  0  0  0  0  0  0  0  0
   -0.1965    1.9024    8.9824 C   0  0  0  0  0  0  0  0  0  0  0  0
   -0.3417    1.4235    7.5145 C   0  0  0  0  0  0  0  0  0  0  0  0
   -0.7621    2.5637    6.5259 C   0  0  1  0  0  0  0  0  0  0  0  0
   -2.3038    2.2946    6.2434 C   0  0  0  0  0  0  0  0  0  0  0  0
   -3.0448    3.2767    5.3132 C   0  0  0  0  0  0  0  0  0  0  0  0
   -3.2341    2.0667    7.5089 C   0  0  0  0  0  0  0  0  0  0  0  0
   -0.6186    4.0224    7.2861 C   0  0  1  0  0  0  0  0  0  0  0  0
   -1.7768    4.5997    8.1280 C   0  0  0  0  0  0  0  0  0  0  0  0
    0.0726    2.3581    5.0668 C   0  0  1  0  0  0  0  0  0  0  0  0
   -0.7702    1.7006    4.1344 O   0  0  0  0  0  0  0  0  0  0  0  0
    0.2857    3.6922    4.4720 C   0  0  0  0  0  0  0  0  0  0  0  0
    1.4580    4.3598    5.2183 C   0  0  2  0  0  0  0  0  0  0  0  0
    2.4258    4.9958    4.2070 C   0  0  1  0  0  0  0  0  0  0  0  0
    3.7508    4.8383    4.8256 C   0  0  0  0  0  0  0  0  0  0  0  0
    3.5868    3.4875    5.5020 C   0  0  1  0  0  0  0  0  0  0  0  0
    4.9645    3.2573    6.1898 C   0  0  0  0  0  0  0  0  0  0  0  0
    2.9571    2.3523    4.4510 C   0  0  1  0  0  0  0  0  0  0  0  0
    3.0479    2.9273    3.1407 O   0  0  0  0  0  0  0  0  0  0  0  0
    2.4408    4.3023    2.9893 O   0  0  0  0  0  0  0  0  0  0  0  0
    3.8095    1.1068    4.0456 C   0  0  1  0  0  0  0  0  0  0  0  0
    4.6979    0.6117    5.0413 O   0  0  0  0  0  0  0  0  0  0  0  0
    4.7898   -0.6846    5.4807 C   0  0  0  0  0  0  0  0  0  0  0  0
    5.6503   -1.0514    6.2778 O   0  0  0  0  0  0  0  0  0  0  0  0
    3.7791   -1.6105    4.9530 C   0  0  0  0  0  0  0  0  0  0  0  0
    2.8678   -1.2536    4.0393 C   0  0  0  0  0  0  0  0  0  0  0  0
    2.7984    0.1405    3.4028 C   0  0  2  0  0  0  0  0  0  0  0  0
    2.9669   -0.0100    1.8758 C   0  0  0  0  0  0  0  0  0  0  0  0
    1.5038    0.7340    3.5993 O   0  0  0  0  0  0  0  0  0  0  0  0
    1.5102    1.6034    4.7390 C   0  0  2  0  0  0  0  0  0  0  0  0
    4.2774    2.4367    9.6072 H   0  0  0  0  0  0  0  0  0  0  0  0
    3.1394    3.0140   10.8183 H   0  0  0  0  0  0  0  0  0  0  0  0
    3.6270    4.0645    9.4910 H   0  0  0  0  0  0  0  0  0  0  0  0
    2.1631    1.4054    9.2457 H   0  0  0  0  0  0  0  0  0  0  0  0
    0.3982    5.1304    8.8471 H   0  0  0  0  0  0  0  0  0  0  0  0
    0.7830    3.4004   10.1800 H   0  0  0  0  0  0  0  0  0  0  0  0
    0.0928    1.0589    9.6077 H   0  0  0  0  0  0  0  0  0  0  0  0
   -1.1380    2.1989    9.4142 H   0  0  0  0  0  0  0  0  0  0  0  0
    0.5264    0.8615    7.2048 H   0  0  0  0  0  0  0  0  0  0  0  0
   -1.0469    0.5846    7.4502 H   0  0  0  0  0  0  0  0  0  0  0  0
   -2.4077    1.3213    5.8060 H   0  0  0  0  0  0  0  0  0  0  0  0
   -2.6468    4.2685    5.3632 H   0  0  0  0  0  0  0  0  0  0  0  0
   -4.1072    3.3665    5.5681 H   0  0  0  0  0  0  0  0  0  0  0  0
   -3.0132    2.9891    4.2660 H   0  0  0  0  0  0  0  0  0  0  0  0
   -3.6692    2.9013    8.0577 H   0  0  0  0  0  0  0  0  0  0  0  0
   -2.8683    1.3435    8.2420 H   0  0  0  0  0  0  0  0  0  0  0  0
   -4.1823    1.6862    7.2509 H   0  0  0  0  0  0  0  0  0  0  0  0
   -0.6643    4.7966    6.5256 H   0  0  0  0  0  0  0  0  0  0  0  0
   -1.9562    4.0672    9.0600 H   0  0  0  0  0  0  0  0  0  0  0  0
   -2.7204    4.6382    7.6033 H   0  0  0  0  0  0  0  0  0  0  0  0
   -1.5969    5.6181    8.4281 H   0  0  0  0  0  0  0  0  0  0  0  0
   -0.3582    1.7496    3.2760 H   0  0  0  0  0  0  0  0  0  0  0  0
    0.4286    3.5852    3.3939 H   0  0  0  0  0  0  0  0  0  0  0  0
   -0.6136    4.2974    4.5014 H   0  0  0  0  0  0  0  0  0  0  0  0
    1.0023    5.3041    5.5168 H   0  0  0  0  0  0  0  0  0  0  0  0
    2.2020    6.0608    4.0267 H   0  0  0  0  0  0  0  0  0  0  0  0
    4.5414    4.9282    4.1075 H   0  0  0  0  0  0  0  0  0  0  0  0
    3.9385    5.6203    5.5658 H   0  0  0  0  0  0  0  0  0  0  0  0
    5.7286    3.2418    5.4542 H   0  0  0  0  0  0  0  0  0  0  0  0
    5.1084    2.3521    6.7548 H   0  0  0  0  0  0  0  0  0  0  0  0
    5.2301    4.0891    6.8406 H   0  0  0  0  0  0  0  0  0  0  0  0
    4.5134    1.3595    3.2781 H   0  0  0  0  0  0  0  0  0  0  0  0
    3.8185   -2.6034    5.3302 H   0  0  0  0  0  0  0  0  0  0  0  0
    2.1688   -1.9677    3.6630 H   0  0  0  0  0  0  0  0  0  0  0  0
    3.9402   -0.4263    1.6146 H   0  0  0  0  0  0  0  0  0  0  0  0
    2.8697    0.9459    1.3638 H   0  0  0  0  0  0  0  0  0  0  0  0
    2.2145   -0.6732    1.4543 H   0  0  0  0  0  0  0  0  0  0  0  0
    1.5938    0.7985    5.4517 H   0  0  0  0  0  0  0  0  0  0  0  0
  1  2  1  0
  1 39  1  0
  1 40  1  0
  1 41  1  0
  2  9  1  0
  2  3  1  0
  2 42  1  1
  3  4  2  0
  5  3  1  1
  5 21  1  0
  5 24  1  0
  5  6  1  0
  6  7  2  0
  6  8  1  0
  8 16  1  0
  8  9  1  0
  8 43  1  1
  9 10  1  0
  9 44  1  1
 10 11  1  0
 10 45  1  0
 10 46  1  0
 11 12  1  0
 11 47  1  0
 11 48  1  0
 12 13  1  6
 12 16  1  0
 12 18  1  0
 13 14  1  0
 13 15  1  0
 13 49  1  0
 14 50  1  0
 14 51  1  0
 14 52  1  0
 15 53  1  0
 15 54  1  0
 15 55  1  0
 16 17  1  0
 16 56  1  6
 17 57  1  0
 17 58  1  0
 17 59  1  0
 18 38  1  0
 18 19  1  6
 18 20  1  0
 19 60  1  0
 20 21  1  0
 20 61  1  0
 20 62  1  0
 21 22  1  0
 21 63  1  1
 22 28  1  0
 22 23  1  0
 22 64  1  6
 23 24  1  0
 23 65  1  0
 23 66  1  0
 24 25  1  1
 24 26  1  0
 25 67  1  0
 25 68  1  0
 25 69  1  0
 26 38  1  0
 26 27  1  6
 26 29  1  0
 27 28  1  0
 29 35  1  0
 29 30  1  0
 29 70  1  6
 30 31  1  0
 31 32  2  0
 31 33  1  0
 33 34  2  0
 33 71  1  0
 34 35  1  0
 34 72  1  0
 35 36  1  6
 35 37  1  0
 36 73  1  0
 36 74  1  0
 36 75  1  0
 37 38  1  0
 38 76  1  1
M  END
>  <i_m_ct_stereo_status>  (334) 
1

>  <s_m_source_file>  (334) 
/var/tmp/pbs.5076255.sched01/tmpg3p38p3m/129jed2w9rh.sdf

>  <i_m_source_file_index>  (334) 
37

>  <i_lp_mmshare_version>  (334) 
48012

>  <i_f3d_flags>  (334) 
0

>  <s_epik_input>  (334) 
Tz1DMVtDQEBIXShbQ0gzXSlbQ0BASF0oW0NAQEhdKEMyPU8pW0NAQEhdM1tDSDNdKVtDSDJdW0NIMl1bQ0BdMyhbQ0hdKFtDSDNdKVtDSDNdKVtDQEBdKFtPSF0pKFtDSDJdNClbQ0BIXTVPW0NAXShbQ0gzXSkoW0NIXT1bQ0hdQyhPNik9TylbQ0BIXTZbQ0BdNShPTzcpW0NAQF04KFtDSDNdKVtDSDJdW0NAQEhdN1tDQEBIXTRDMTI4

>  <s_epik_cmdline>  (334) 
J2VwaWtfcHl0aG9uJywgJy1waHQnLCAnMi4wJywgJy1waCcsICc3LjAnLCAnLXRuJywgJzgnLCAnLW1hJywgJzIwMCcsICctaW1hZScsICc8aW5maWxlLm1hZT4nLCAnLW9tYWUnLCAnPG91dGZpbGUubWFlPic=

>  <r_lp_tautomer_probability>  (334) 
1

>  <r_epik_Ionization_Penalty>  (334) 
3.37586e-08

>  <r_epik_Ionization_Penalty_Charging>  (334) 
0

>  <r_epik_Ionization_Penalty_Neutral>  (334) 
3.37586e-08

>  <r_epik_State_Penalty>  (334) 
-0

>  <r_epik_Charging_Adjusted_Penalty>  (334) 
0

>  <i_epik_Tot_Q>  (334) 
0

>  <i_epik_Tot_abs_Q>  (334) 
0

>  <s_epik_Chemistry_Notes>  (334) 
This compound has an ester and may undergo hydrolysis at high or low pH.

>  <s_lp_Force_Field>  (334) 
OPLS3e

>  <r_lp_Energy>  (334) 
277.393

>  <b_lp_Chiralities_Consistent>  (334) 
1

>  <s_lp_Variant>  (334) 
114:0-1

>  <s_i_glide_gridfile>  (334) 
pfpi4k_grid

>  <i_i_glide_lignum>  (334) 
37

>  <i_i_glide_rotatable_bonds>  (334) 
2

>  <r_i_docking_score>  (334) 
-0.319224

>  <r_i_glide_ligand_efficiency>  (334) 
-0.00840063

>  <r_i_glide_ligand_efficiency_sa>  (334) 
-0.0282427

>  <r_i_glide_ligand_efficiency_ln>  (334) 
-0.0688341

>  <r_i_glide_gscore>  (334) 
-0.319224

>  <r_i_glide_lipo>  (334) 
-0.0649603

>  <r_i_glide_hbond>  (334) 
0

>  <r_i_glide_metal>  (334) 
-0

>  <r_i_glide_rewards>  (334) 
-0.0280042

>  <r_i_glide_evdw>  (334) 
-7.80675

>  <r_i_glide_ecoul>  (334) 
1.09385

>  <r_i_glide_erotb>  (334) 
0

>  <r_i_glide_esite>  (334) 
0

>  <r_i_glide_emodel>  (334) 
-3.91329

>  <r_i_glide_energy>  (334) 
-6.71289

>  <r_i_glide_einternal>  (334) 
4.47772

>  <r_i_glide_intrahb_reward>  (334) 
-0

>  <i_i_glide_confnum>  (334) 
1

>  <i_i_glide_posenum>  (334) 
1

>  <r_i_glide_eff_state_penalty>  (334) 
0

>  <ligand_id>  (334) 
114

>  <original_smiles>  (334) 
CC1C(=O)C23C(=O)C4C1CCC(C(C)C)(C4C)C1(O)CC2C2CC3(C)C3(OO2)C2OC(=O)C=CC2(C)OC13

>  <smiles>  (334) 
[H]OC12C([H])([H])C3([H])C4([H])OOC5(C6([H])OC(=O)C([H])=C([H])C6(C([H])([H])[H])OC51[H])C(C([H])([H])[H])(C4([H])[H])C31C(=O)C([H])(C([H])([H])[H])C3([H])C([H])([H])C([H])([H])C2(C([H])(C([H])([H])[H])C([H])([H])[H])C([H])(C([H])([H])[H])C3([H])C1=O

$$$$
115:0:0
     RDKit          3D

 38 44  0  0  1  0  0  0  0  0999 V2000
    7.1477   -4.0338    0.0534 C   0  0  0  0  0  0  0  0  0  0  0  0
    6.9067   -2.8292    0.9376 C   0  0  0  0  0  0  0  0  0  0  0  0
    5.9466   -2.2265   -0.0878 C   0  0  1  0  0  0  0  0  0  0  0  0
    6.2101   -3.4413   -0.9891 C   0  0  2  0  0  0  0  0  0  0  0  0
    4.8471   -4.0886   -1.2188 C   0  0  1  0  0  0  0  0  0  0  0  0
    4.0645   -3.6842    0.0581 C   0  0  2  0  0  0  0  0  0  0  0  0
    2.6161   -3.6750   -0.3165 C   0  0  0  0  0  0  0  0  0  0  0  0
    2.8643   -2.7454   -1.4801 C   0  0  2  0  0  0  0  0  0  0  0  0
    3.9291   -3.4570   -2.3285 C   0  0  1  0  0  0  0  0  0  0  0  0
    4.5535   -2.4738   -3.3445 C   0  0  2  0  0  0  0  0  0  0  0  0
    5.2218   -1.4788   -2.5921 O   0  0  0  0  0  0  0  0  0  0  0  0
    4.2746   -0.6721   -1.9832 C   0  0  1  0  0  0  0  0  0  0  0  0
    3.2779   -0.4247   -3.1068 C   0  0  1  0  0  0  0  0  0  0  0  0
    3.7049    0.4399   -4.2972 C   0  0  0  0  0  0  0  0  0  0  0  0
    4.0846   -0.7345   -5.0541 O   0  0  0  0  0  0  0  0  0  0  0  0
    3.5128   -1.5852   -4.0354 C   0  0  1  0  0  0  0  0  0  0  0  0
    3.5289   -1.5828   -0.8710 N   0  0  2  0  0  0  0  0  0  0  0  0
    4.4301   -2.1914    0.1875 C   0  0  2  0  0  0  0  0  0  0  0  0
    6.7829   -4.9625    0.4871 H   0  0  0  0  0  0  0  0  0  0  0  0
    8.1727   -4.1044   -0.2992 H   0  0  0  0  0  0  0  0  0  0  0  0
    6.4267   -3.0924    1.8859 H   0  0  0  0  0  0  0  0  0  0  0  0
    7.8029   -2.2190    1.0468 H   0  0  0  0  0  0  0  0  0  0  0  0
    6.3878   -1.2974   -0.4548 H   0  0  0  0  0  0  0  0  0  0  0  0
    6.7827   -3.2000   -1.8848 H   0  0  0  0  0  0  0  0  0  0  0  0
    4.8996   -5.1689   -1.3587 H   0  0  0  0  0  0  0  0  0  0  0  0
    4.3237   -4.2622    0.9415 H   0  0  0  0  0  0  0  0  0  0  0  0
    2.2196   -4.6459   -0.6150 H   0  0  0  0  0  0  0  0  0  0  0  0
    1.9997   -3.2253    0.4613 H   0  0  0  0  0  0  0  0  0  0  0  0
    1.9535   -2.5029   -2.0339 H   0  0  0  0  0  0  0  0  0  0  0  0
    3.4561   -4.2171   -2.9343 H   0  0  0  0  0  0  0  0  0  0  0  0
    5.2400   -3.0024   -3.9967 H   0  0  0  0  0  0  0  0  0  0  0  0
    4.7563    0.1408   -1.4963 H   0  0  0  0  0  0  0  0  0  0  0  0
    2.2401   -0.2447   -2.8314 H   0  0  0  0  0  0  0  0  0  0  0  0
    2.8774    0.9882   -4.7578 H   0  0  0  0  0  0  0  0  0  0  0  0
    4.5400    1.1028   -4.0694 H   0  0  0  0  0  0  0  0  0  0  0  0
    2.5855   -2.0548   -4.3585 H   0  0  0  0  0  0  0  0  0  0  0  0
    4.1945   -1.7815    1.1754 H   0  0  0  0  0  0  0  0  0  0  0  0
    2.7846   -1.0616   -0.4322 H   0  0  0  0  0  0  0  0  0  0  0  0
  1  4  1  0
  1  2  1  0
  1 19  1  0
  1 20  1  0
  2  3  1  0
  2 21  1  0
  2 22  1  0
  3 18  1  0
  3  4  1  0
  3 23  1  6
  4  5  1  0
  4 24  1  6
  5  9  1  0
  5  6  1  0
  5 25  1  6
  6 18  1  0
  6  7  1  0
  6 26  1  1
  7  8  1  0
  7 27  1  0
  7 28  1  0
  8 17  1  0
  8  9  1  0
  8 29  1  6
  9 10  1  0
  9 30  1  6
 10 16  1  0
 10 11  1  0
 10 31  1  6
 11 12  1  0
 12 13  1  0
 12 17  1  0
 12 32  1  1
 13 16  1  0
 13 14  1  0
 13 33  1  1
 14 15  1  0
 14 34  1  0
 14 35  1  0
 15 16  1  0
 16 36  1  6
 17 18  1  0
 17 38  1  1
 18 37  1  1
M  CHG  1  17   1
M  END
>  <i_m_ct_stereo_status>  (335) 
1

>  <s_m_source_file>  (335) 
/var/tmp/pbs.5076255.sched01/tmpg3p38p3m/129jed2w9rh.sdf

>  <i_m_source_file_index>  (335) 
38

>  <i_lp_mmshare_version>  (335) 
48012

>  <i_f3d_flags>  (335) 
0

>  <s_epik_input>  (335) 
W0NIMl0xW0NIMl1bQ0BIXShbQ0BIXTEyKVtDQEhdM1tDQEhdNFtDQEBIXTJONVtDQEhdKFtDSDJdNClbQ0BIXTNbQ0BIXTZbQ0BIXTdbQ0BASF0oW0NAQEhdNU82KVtDSDJdTzc=

>  <s_epik_cmdline>  (335) 
J2VwaWtfcHl0aG9uJywgJy1waHQnLCAnMi4wJywgJy1waCcsICc3LjAnLCAnLXRuJywgJzgnLCAnLW1hJywgJzIwMCcsICctaW1hZScsICc8aW5maWxlLm1hZT4nLCAnLW9tYWUnLCAnPG91dGZpbGUubWFlPic=

>  <r_epik_Ionization_Penalty>  (335) 
0.217294

>  <r_epik_Ionization_Penalty_Charging>  (335) 
0.217294

>  <r_epik_Ionization_Penalty_Neutral>  (335) 
8.85387e-14

>  <r_epik_State_Penalty>  (335) 
0.207547

>  <r_epik_Charging_Adjusted_Penalty>  (335) 
0.424841

>  <i_epik_Tot_Q>  (335) 
1

>  <i_epik_Tot_abs_Q>  (335) 
1

>  <s_epik_Chemistry_Notes>  (335) 
This compound contains an acetal/aminal-like group ( X-CH(R)-Y where X, Y are N, S, or O) that may be acid/base labile, releasing an aldehyde.

>  <s_lp_Force_Field>  (335) 
OPLS3e

>  <r_lp_Energy>  (335) 
63.2331

>  <b_lp_Chiralities_Consistent>  (335) 
1

>  <s_lp_Variant>  (335) 
115:0-1

>  <s_i_glide_gridfile>  (335) 
pfpi4k_grid

>  <i_i_glide_lignum>  (335) 
38

>  <i_i_glide_rotatable_bonds>  (335) 
0

>  <r_i_docking_score>  (335) 
-4.93423

>  <r_i_glide_ligand_efficiency>  (335) 
-0.274124

>  <r_i_glide_ligand_efficiency_sa>  (335) 
-0.718407

>  <r_i_glide_ligand_efficiency_ln>  (335) 
-1.26832

>  <r_i_glide_gscore>  (335) 
-4.93423

>  <r_i_glide_lipo>  (335) 
-0.555582

>  <r_i_glide_hbond>  (335) 
-0.410079

>  <r_i_glide_metal>  (335) 
-0

>  <r_i_glide_rewards>  (335) 
-1.7296

>  <r_i_glide_evdw>  (335) 
-14.3527

>  <r_i_glide_ecoul>  (335) 
-9.38224

>  <r_i_glide_erotb>  (335) 
0

>  <r_i_glide_esite>  (335) 
-0.113989

>  <r_i_glide_emodel>  (335) 
-31.4447

>  <r_i_glide_energy>  (335) 
-23.735

>  <r_i_glide_einternal>  (335) 
0

>  <r_i_glide_intrahb_reward>  (335) 
-0

>  <i_i_glide_confnum>  (335) 
2

>  <i_i_glide_posenum>  (335) 
26

>  <r_i_glide_eff_state_penalty>  (335) 
0

>  <ligand_id>  (335) 
115

>  <original_smiles>  (335) 
C1CC2C1C1C3CC4C1C1OC(C5COC51)N4C23

>  <smiles>  (335) 
[H]C1([H])OC2([H])C3([H])OC([H])(C12[H])[N+]1([H])C2([H])C([H])([H])C4([H])C([H])(C5([H])C([H])([H])C([H])([H])C5([H])C41[H])C32[H]

$$$$
115:0:1
     RDKit          3D

 38 44  0  0  1  0  0  0  0  0999 V2000
    4.5878   -3.2497   -3.5197 C   0  0  0  0  0  0  0  0  0  0  0  0
    3.2428   -2.5998   -3.2013 C   0  0  0  0  0  0  0  0  0  0  0  0
    3.4285   -2.9257   -1.7094 C   0  0  1  0  0  0  0  0  0  0  0  0
    4.7804   -3.5773   -2.0357 C   0  0  2  0  0  0  0  0  0  0  0  0
    5.8332   -2.8242   -1.2223 C   0  0  1  0  0  0  0  0  0  0  0  0
    5.1839   -1.4232   -1.0675 C   0  0  2  0  0  0  0  0  0  0  0  0
    5.7421   -0.8312    0.1975 C   0  0  0  0  0  0  0  0  0  0  0  0
    5.3224   -2.0411    1.0045 C   0  0  2  0  0  0  0  0  0  0  0  0
    5.9864   -3.2376    0.2871 C   0  0  1  0  0  0  0  0  0  0  0  0
    5.3466   -4.5788    0.7755 C   0  0  2  0  0  0  0  0  0  0  0  0
    3.9580   -4.5783    0.4185 O   0  0  0  0  0  0  0  0  0  0  0  0
    3.2834   -3.6432    1.2010 C   0  0  1  0  0  0  0  0  0  0  0  0
    3.8660   -3.9387    2.5818 C   0  0  1  0  0  0  0  0  0  0  0  0
    3.4874   -5.2649    3.2398 C   0  0  0  0  0  0  0  0  0  0  0  0
    4.6996   -5.8982    2.7673 O   0  0  0  0  0  0  0  0  0  0  0  0
    5.1840   -4.6203    2.2899 C   0  0  1  0  0  0  0  0  0  0  0  0
    3.8629   -2.1792    0.7571 N   0  0  2  0  0  0  0  0  0  0  0  0
    3.7290   -1.7966   -0.7049 C   0  0  2  0  0  0  0  0  0  0  0  0
    5.3242   -2.5351   -3.8940 H   0  0  0  0  0  0  0  0  0  0  0  0
    4.5035   -4.1437   -4.1412 H   0  0  0  0  0  0  0  0  0  0  0  0
    3.2254   -1.5297   -3.4224 H   0  0  0  0  0  0  0  0  0  0  0  0
    2.4029   -3.1336   -3.6557 H   0  0  0  0  0  0  0  0  0  0  0  0
    2.6560   -3.6348   -1.4113 H   0  0  0  0  0  0  0  0  0  0  0  0
    4.7788   -4.6609   -1.9048 H   0  0  0  0  0  0  0  0  0  0  0  0
    6.8039   -2.7845   -1.7239 H   0  0  0  0  0  0  0  0  0  0  0  0
    5.2574   -0.7909   -1.9559 H   0  0  0  0  0  0  0  0  0  0  0  0
    6.8195   -0.6699    0.1740 H   0  0  0  0  0  0  0  0  0  0  0  0
    5.2394    0.0912    0.4913 H   0  0  0  0  0  0  0  0  0  0  0  0
    5.5882   -1.9417    2.0569 H   0  0  0  0  0  0  0  0  0  0  0  0
    7.0471   -3.2416    0.5401 H   0  0  0  0  0  0  0  0  0  0  0  0
    5.8573   -5.4519    0.3751 H   0  0  0  0  0  0  0  0  0  0  0  0
    2.1993   -3.7206    1.1344 H   0  0  0  0  0  0  0  0  0  0  0  0
    3.9271   -3.1186    3.2993 H   0  0  0  0  0  0  0  0  0  0  0  0
    3.4436   -5.2271    4.3288 H   0  0  0  0  0  0  0  0  0  0  0  0
    2.5930   -5.7105    2.8050 H   0  0  0  0  0  0  0  0  0  0  0  0
    6.0281   -4.2639    2.8830 H   0  0  0  0  0  0  0  0  0  0  0  0
    3.0399   -0.9578   -0.8101 H   0  0  0  0  0  0  0  0  0  0  0  0
    3.4053   -1.4472    1.2835 H   0  0  0  0  0  0  0  0  0  0  0  0
  1  4  1  0
  1  2  1  0
  1 19  1  0
  1 20  1  0
  2  3  1  0
  2 21  1  0
  2 22  1  0
  3 18  1  0
  3  4  1  0
  3 23  1  1
  4  5  1  0
  4 24  1  6
  5  9  1  0
  5  6  1  0
  5 25  1  6
  6 18  1  0
  6  7  1  0
  6 26  1  6
  7  8  1  0
  7 27  1  0
  7 28  1  0
  8 17  1  0
  8  9  1  0
  8 29  1  1
  9 10  1  0
  9 30  1  1
 10 16  1  0
 10 11  1  0
 10 31  1  6
 11 12  1  0
 12 13  1  0
 12 17  1  0
 12 32  1  1
 13 16  1  0
 13 14  1  0
 13 33  1  1
 14 15  1  0
 14 34  1  0
 14 35  1  0
 15 16  1  0
 16 36  1  1
 17 18  1  0
 17 38  1  1
 18 37  1  1
M  CHG  1  17   1
M  END
>  <i_m_ct_stereo_status>  (336) 
1

>  <s_m_source_file>  (336) 
/var/tmp/pbs.5076255.sched01/tmpg3p38p3m/129jed2w9rh.sdf

>  <i_m_source_file_index>  (336) 
38

>  <i_lp_mmshare_version>  (336) 
48012

>  <i_f3d_flags>  (336) 
0

>  <s_epik_input>  (336) 
W0NIMl0xW0NIMl1bQ0BIXShbQ0BIXTEyKVtDQEhdM1tDQEhdNFtDQEBIXTJONVtDQEhdKFtDSDJdNClbQ0BIXTNbQ0BIXTZbQ0BIXTdbQ0BASF0oW0NAQEhdNU82KVtDSDJdTzc=

>  <s_epik_cmdline>  (336) 
J2VwaWtfcHl0aG9uJywgJy1waHQnLCAnMi4wJywgJy1waCcsICc3LjAnLCAnLXRuJywgJzgnLCAnLW1hJywgJzIwMCcsICctaW1hZScsICc8aW5maWxlLm1hZT4nLCAnLW9tYWUnLCAnPG91dGZpbGUubWFlPic=

>  <r_epik_Ionization_Penalty>  (336) 
0.217294

>  <r_epik_Ionization_Penalty_Charging>  (336) 
0.217294

>  <r_epik_Ionization_Penalty_Neutral>  (336) 
8.85387e-14

>  <r_epik_State_Penalty>  (336) 
0.207547

>  <r_epik_Charging_Adjusted_Penalty>  (336) 
0.424841

>  <i_epik_Tot_Q>  (336) 
1

>  <i_epik_Tot_abs_Q>  (336) 
1

>  <s_epik_Chemistry_Notes>  (336) 
This compound contains an acetal/aminal-like group ( X-CH(R)-Y where X, Y are N, S, or O) that may be acid/base labile, releasing an aldehyde.

>  <s_lp_Force_Field>  (336) 
OPLS3e

>  <r_lp_Energy>  (336) 
63.2331

>  <b_lp_Chiralities_Consistent>  (336) 
1

>  <s_lp_Variant>  (336) 
115:0-1

>  <s_i_glide_gridfile>  (336) 
pfpi4k_grid

>  <i_i_glide_lignum>  (336) 
38

>  <i_i_glide_rotatable_bonds>  (336) 
0

>  <r_i_docking_score>  (336) 
-3.82037

>  <r_i_glide_ligand_efficiency>  (336) 
-0.212243

>  <r_i_glide_ligand_efficiency_sa>  (336) 
-0.556234

>  <r_i_glide_ligand_efficiency_ln>  (336) 
-0.982007

>  <r_i_glide_gscore>  (336) 
-3.82037

>  <r_i_glide_lipo>  (336) 
-0.60882

>  <r_i_glide_hbond>  (336) 
0

>  <r_i_glide_metal>  (336) 
-0

>  <r_i_glide_rewards>  (336) 
-1.7296

>  <r_i_glide_evdw>  (336) 
-22.047

>  <r_i_glide_ecoul>  (336) 
-2.41286

>  <r_i_glide_erotb>  (336) 
0

>  <r_i_glide_esite>  (336) 
-0.0176699

>  <r_i_glide_emodel>  (336) 
-30.5502

>  <r_i_glide_energy>  (336) 
-24.4598

>  <r_i_glide_einternal>  (336) 
0

>  <r_i_glide_intrahb_reward>  (336) 
-0

>  <i_i_glide_confnum>  (336) 
1

>  <i_i_glide_posenum>  (336) 
10

>  <r_i_glide_eff_state_penalty>  (336) 
0

>  <ligand_id>  (336) 
115

>  <original_smiles>  (336) 
C1CC2C1C1C3CC4C1C1OC(C5COC51)N4C23

>  <smiles>  (336) 
[H]C1([H])OC2([H])C3([H])OC([H])(C12[H])[N+]1([H])C2([H])C([H])([H])C4([H])C([H])(C5([H])C([H])([H])C([H])([H])C5([H])C41[H])C32[H]

$$$$
115:0:2
     RDKit          3D

 38 44  0  0  1  0  0  0  0  0999 V2000
    4.0074   -2.2820   -3.4506 C   0  0  0  0  0  0  0  0  0  0  0  0
    4.0588   -0.9543   -2.7055 C   0  0  0  0  0  0  0  0  0  0  0  0
    3.8847   -1.6813   -1.3693 C   0  0  1  0  0  0  0  0  0  0  0  0
    3.8183   -3.0142   -2.1233 C   0  0  2  0  0  0  0  0  0  0  0  0
    4.9557   -3.8705   -1.5612 C   0  0  1  0  0  0  0  0  0  0  0  0
    5.9750   -2.8020   -1.0917 C   0  0  2  0  0  0  0  0  0  0  0  0
    6.7702   -3.4285    0.0165 C   0  0  0  0  0  0  0  0  0  0  0  0
    5.5058   -3.7821    0.7791 C   0  0  2  0  0  0  0  0  0  0  0  0
    4.6692   -4.6192   -0.2136 C   0  0  1  0  0  0  0  0  0  0  0  0
    3.1986   -4.7402    0.2912 C   0  0  2  0  0  0  0  0  0  0  0  0
    2.6170   -3.4335    0.3305 O   0  0  0  0  0  0  0  0  0  0  0  0
    3.2029   -2.6943    1.3680 C   0  0  1  0  0  0  0  0  0  0  0  0
    3.2075   -3.7333    2.4920 C   0  0  1  0  0  0  0  0  0  0  0  0
    1.8713   -4.1320    3.0980 C   0  0  0  0  0  0  0  0  0  0  0  0
    1.7670   -5.2880    2.2272 O   0  0  0  0  0  0  0  0  0  0  0  0
    3.1252   -5.0618    1.7782 C   0  0  1  0  0  0  0  0  0  0  0  0
    4.7718   -2.5017    0.9359 N   0  0  2  0  0  0  0  0  0  0  0  0
    5.0517   -1.7891   -0.3779 C   0  0  2  0  0  0  0  0  0  0  0  0
    4.9539   -2.5345   -3.9295 H   0  0  0  0  0  0  0  0  0  0  0  0
    3.1436   -2.3786   -4.1164 H   0  0  0  0  0  0  0  0  0  0  0  0
    5.0201   -0.4515   -2.8030 H   0  0  0  0  0  0  0  0  0  0  0  0
    3.2146   -0.3077   -2.9512 H   0  0  0  0  0  0  0  0  0  0  0  0
    2.9420   -1.3761   -0.9384 H   0  0  0  0  0  0  0  0  0  0  0  0
    2.8275   -3.4671   -2.1131 H   0  0  0  0  0  0  0  0  0  0  0  0
    5.3730   -4.5535   -2.3084 H   0  0  0  0  0  0  0  0  0  0  0  0
    6.5521   -2.3541   -1.9026 H   0  0  0  0  0  0  0  0  0  0  0  0
    7.3576   -4.2892   -0.3004 H   0  0  0  0  0  0  0  0  0  0  0  0
    7.4147   -2.7123    0.5320 H   0  0  0  0  0  0  0  0  0  0  0  0
    5.7323   -4.2918    1.7190 H   0  0  0  0  0  0  0  0  0  0  0  0
    5.1063   -5.6101   -0.2718 H   0  0  0  0  0  0  0  0  0  0  0  0
    2.6016   -5.4188   -0.3187 H   0  0  0  0  0  0  0  0  0  0  0  0
    2.6591   -1.7722    1.5928 H   0  0  0  0  0  0  0  0  0  0  0  0
    3.9962   -3.6807    3.2422 H   0  0  0  0  0  0  0  0  0  0  0  0
    1.9220   -4.4067    4.1502 H   0  0  0  0  0  0  0  0  0  0  0  0
    1.0975   -3.3959    2.9012 H   0  0  0  0  0  0  0  0  0  0  0  0
    3.8065   -5.8247    2.1642 H   0  0  0  0  0  0  0  0  0  0  0  0
    5.5349   -0.8323   -0.1979 H   0  0  0  0  0  0  0  0  0  0  0  0
    5.2722   -1.9868    1.6547 H   0  0  0  0  0  0  0  0  0  0  0  0
  1  4  1  0
  1  2  1  0
  1 19  1  0
  1 20  1  0
  2  3  1  0
  2 21  1  0
  2 22  1  0
  3 18  1  0
  3  4  1  0
  3 23  1  1
  4  5  1  0
  4 24  1  6
  5  9  1  0
  5  6  1  0
  5 25  1  6
  6 18  1  0
  6  7  1  0
  6 26  1  6
  7  8  1  0
  7 27  1  0
  7 28  1  0
  8 17  1  0
  8  9  1  0
  8 29  1  1
  9 10  1  0
  9 30  1  6
 10 16  1  0
 10 11  1  0
 10 31  1  6
 11 12  1  0
 12 13  1  0
 12 17  1  0
 12 32  1  1
 13 16  1  0
 13 14  1  0
 13 33  1  1
 14 15  1  0
 14 34  1  0
 14 35  1  0
 15 16  1  0
 16 36  1  1
 17 18  1  0
 17 38  1  1
 18 37  1  1
M  CHG  1  17   1
M  END
>  <i_m_ct_stereo_status>  (337) 
1

>  <s_m_source_file>  (337) 
/var/tmp/pbs.5076255.sched01/tmpg3p38p3m/129jed2w9rh.sdf

>  <i_m_source_file_index>  (337) 
38

>  <i_lp_mmshare_version>  (337) 
48012

>  <i_f3d_flags>  (337) 
0

>  <s_epik_input>  (337) 
W0NIMl0xW0NIMl1bQ0BIXShbQ0BIXTEyKVtDQEhdM1tDQEhdNFtDQEBIXTJONVtDQEhdKFtDSDJdNClbQ0BIXTNbQ0BIXTZbQ0BIXTdbQ0BASF0oW0NAQEhdNU82KVtDSDJdTzc=

>  <s_epik_cmdline>  (337) 
J2VwaWtfcHl0aG9uJywgJy1waHQnLCAnMi4wJywgJy1waCcsICc3LjAnLCAnLXRuJywgJzgnLCAnLW1hJywgJzIwMCcsICctaW1hZScsICc8aW5maWxlLm1hZT4nLCAnLW9tYWUnLCAnPG91dGZpbGUubWFlPic=

>  <r_epik_Ionization_Penalty>  (337) 
0.217294

>  <r_epik_Ionization_Penalty_Charging>  (337) 
0.217294

>  <r_epik_Ionization_Penalty_Neutral>  (337) 
8.85387e-14

>  <r_epik_State_Penalty>  (337) 
0.207547

>  <r_epik_Charging_Adjusted_Penalty>  (337) 
0.424841

>  <i_epik_Tot_Q>  (337) 
1

>  <i_epik_Tot_abs_Q>  (337) 
1

>  <s_epik_Chemistry_Notes>  (337) 
This compound contains an acetal/aminal-like group ( X-CH(R)-Y where X, Y are N, S, or O) that may be acid/base labile, releasing an aldehyde.

>  <s_lp_Force_Field>  (337) 
OPLS3e

>  <r_lp_Energy>  (337) 
63.2331

>  <b_lp_Chiralities_Consistent>  (337) 
1

>  <s_lp_Variant>  (337) 
115:0-1

>  <s_i_glide_gridfile>  (337) 
pfpi4k_grid

>  <i_i_glide_lignum>  (337) 
38

>  <i_i_glide_rotatable_bonds>  (337) 
0

>  <r_i_docking_score>  (337) 
-3.61868

>  <r_i_glide_ligand_efficiency>  (337) 
-0.201038

>  <r_i_glide_ligand_efficiency_sa>  (337) 
-0.526868

>  <r_i_glide_ligand_efficiency_ln>  (337) 
-0.930163

>  <r_i_glide_gscore>  (337) 
-3.61868

>  <r_i_glide_lipo>  (337) 
-0.391857

>  <r_i_glide_hbond>  (337) 
0

>  <r_i_glide_metal>  (337) 
-0

>  <r_i_glide_rewards>  (337) 
-1.7296

>  <r_i_glide_evdw>  (337) 
-22.4909

>  <r_i_glide_ecoul>  (337) 
-2.42366

>  <r_i_glide_erotb>  (337) 
0

>  <r_i_glide_esite>  (337) 
-0.00912823

>  <r_i_glide_emodel>  (337) 
-30.6275

>  <r_i_glide_energy>  (337) 
-24.9145

>  <r_i_glide_einternal>  (337) 
0

>  <r_i_glide_intrahb_reward>  (337) 
-0

>  <i_i_glide_confnum>  (337) 
1

>  <i_i_glide_posenum>  (337) 
16

>  <r_i_glide_eff_state_penalty>  (337) 
0

>  <ligand_id>  (337) 
115

>  <original_smiles>  (337) 
C1CC2C1C1C3CC4C1C1OC(C5COC51)N4C23

>  <smiles>  (337) 
[H]C1([H])OC2([H])C3([H])OC([H])(C12[H])[N+]1([H])C2([H])C([H])([H])C4([H])C([H])(C5([H])C([H])([H])C([H])([H])C5([H])C41[H])C32[H]

$$$$
115:1:0
     RDKit          3D

 37 43  0  0  1  0  0  0  0  0999 V2000
    8.0058   -2.7727    0.1429 C   0  0  0  0  0  0  0  0  0  0  0  0
    7.4072   -1.5777    0.8616 C   0  0  0  0  0  0  0  0  0  0  0  0
    6.2635   -1.5043   -0.1207 C   0  0  1  0  0  0  0  0  0  0  0  0
    6.8602   -2.7137   -0.8555 C   0  0  2  0  0  0  0  0  0  0  0  0
    5.7620   -3.7721   -0.8233 C   0  0  1  0  0  0  0  0  0  0  0  0
    4.9420   -3.3988    0.4419 C   0  0  2  0  0  0  0  0  0  0  0  0
    3.5536   -3.9035    0.1765 C   0  0  0  0  0  0  0  0  0  0  0  0
    3.4572   -3.1461   -1.1247 C   0  0  2  0  0  0  0  0  0  0  0  0
    4.6598   -3.6559   -1.9433 C   0  0  1  0  0  0  0  0  0  0  0  0
    4.8975   -2.6949   -3.1526 C   0  0  2  0  0  0  0  0  0  0  0  0
    5.2576   -1.4182   -2.6174 O   0  0  0  0  0  0  0  0  0  0  0  0
    4.1446   -0.8631   -1.9983 C   0  0  1  0  0  0  0  0  0  0  0  0
    3.1136   -1.0756   -3.0602 C   0  0  1  0  0  0  0  0  0  0  0  0
    3.1842   -0.3107   -4.3615 C   0  0  0  0  0  0  0  0  0  0  0  0
    3.8528   -1.4087   -5.0057 O   0  0  0  0  0  0  0  0  0  0  0  0
    3.6092   -2.2469   -3.8525 C   0  0  1  0  0  0  0  0  0  0  0  0
    3.8527   -1.7397   -0.8183 N   0  0  0  0  0  0  0  0  0  0  0  0
    4.8439   -1.8719    0.3041 C   0  0  2  0  0  0  0  0  0  0  0  0
    7.9939   -3.6644    0.7710 H   0  0  0  0  0  0  0  0  0  0  0  0
    8.9908   -2.5531   -0.2797 H   0  0  0  0  0  0  0  0  0  0  0  0
    7.0124   -1.8402    1.8362 H   0  0  0  0  0  0  0  0  0  0  0  0
    8.0535   -0.7033    0.8484 H   0  0  0  0  0  0  0  0  0  0  0  0
    6.3263   -0.5558   -0.6378 H   0  0  0  0  0  0  0  0  0  0  0  0
    7.2846   -2.4699   -1.8330 H   0  0  0  0  0  0  0  0  0  0  0  0
    6.1424   -4.7864   -0.7014 H   0  0  0  0  0  0  0  0  0  0  0  0
    5.4073   -3.7158    1.3735 H   0  0  0  0  0  0  0  0  0  0  0  0
    3.4987   -4.9890    0.0686 H   0  0  0  0  0  0  0  0  0  0  0  0
    2.8408   -3.5554    0.9241 H   0  0  0  0  0  0  0  0  0  0  0  0
    2.4843   -3.2504   -1.6102 H   0  0  0  0  0  0  0  0  0  0  0  0
    4.4973   -4.6374   -2.3367 H   0  0  0  0  0  0  0  0  0  0  0  0
    5.6413   -3.0905   -3.8356 H   0  0  0  0  0  0  0  0  0  0  0  0
    4.2462    0.1434   -1.6042 H   0  0  0  0  0  0  0  0  0  0  0  0
    2.1402   -1.3108   -2.6750 H   0  0  0  0  0  0  0  0  0  0  0  0
    2.2173   -0.0842   -4.8147 H   0  0  0  0  0  0  0  0  0  0  0  0
    3.8127    0.5795   -4.2834 H   0  0  0  0  0  0  0  0  0  0  0  0
    2.8339   -2.9897   -4.0618 H   0  0  0  0  0  0  0  0  0  0  0  0
    4.4985   -1.3657    1.2056 H   0  0  0  0  0  0  0  0  0  0  0  0
  1  4  1  0
  1  2  1  0
  1 19  1  0
  1 20  1  0
  2  3  1  0
  2 21  1  0
  2 22  1  0
  3 18  1  0
  3  4  1  0
  3 23  1  6
  4  5  1  0
  4 24  1  6
  5  9  1  0
  5  6  1  0
  5 25  1  1
  6 18  1  0
  6  7  1  0
  6 26  1  1
  7  8  1  0
  7 27  1  0
  7 28  1  0
  8 17  1  0
  8  9  1  0
  8 29  1  6
  9 10  1  0
  9 30  1  6
 10 16  1  0
 10 11  1  0
 10 31  1  6
 11 12  1  0
 12 13  1  0
 12 17  1  0
 12 32  1  1
 13 16  1  0
 13 14  1  0
 13 33  1  1
 14 15  1  0
 14 34  1  0
 14 35  1  0
 15 16  1  0
 16 36  1  6
 17 18  1  0
 18 37  1  1
M  END
>  <i_m_ct_stereo_status>  (338) 
1

>  <s_m_source_file>  (338) 
/var/tmp/pbs.5076255.sched01/tmpg3p38p3m/129jed2w9rh.sdf

>  <i_m_source_file_index>  (338) 
39

>  <i_lp_mmshare_version>  (338) 
48012

>  <i_f3d_flags>  (338) 
0

>  <s_epik_input>  (338) 
W0NIMl0xW0NIMl1bQ0BIXShbQ0BIXTEyKVtDQEhdM1tDQEhdNFtDQEBIXTJONVtDQEhdKFtDSDJdNClbQ0BIXTNbQ0BIXTZbQ0BIXTdbQ0BASF0oW0NAQEhdNU82KVtDSDJdTzc=

>  <s_epik_cmdline>  (338) 
J2VwaWtfcHl0aG9uJywgJy1waHQnLCAnMi4wJywgJy1waCcsICc3LjAnLCAnLXRuJywgJzgnLCAnLW1hJywgJzIwMCcsICctaW1hZScsICc8aW5maWxlLm1hZT4nLCAnLW9tYWUnLCAnPG91dGZpbGUubWFlPic=

>  <r_epik_Ionization_Penalty>  (338) 
0.699638

>  <r_epik_Ionization_Penalty_Charging>  (338) 
0

>  <r_epik_Ionization_Penalty_Neutral>  (338) 
0.699638

>  <r_epik_State_Penalty>  (338) 
0.722247

>  <r_epik_Charging_Adjusted_Penalty>  (338) 
0.722247

>  <i_epik_Tot_Q>  (338) 
0

>  <i_epik_Tot_abs_Q>  (338) 
0

>  <s_epik_Chemistry_Notes>  (338) 
This compound contains an acetal/aminal-like group ( X-CH(R)-Y where X, Y are N, S, or O) that may be acid/base labile, releasing an aldehyde.

>  <s_lp_Force_Field>  (338) 
OPLS3e

>  <r_lp_Energy>  (338) 
64.2423

>  <b_lp_Chiralities_Consistent>  (338) 
1

>  <s_lp_Variant>  (338) 
115:0-2

>  <s_i_glide_gridfile>  (338) 
pfpi4k_grid

>  <i_i_glide_lignum>  (338) 
39

>  <i_i_glide_rotatable_bonds>  (338) 
0

>  <r_i_docking_score>  (338) 
-4.77442

>  <r_i_glide_ligand_efficiency>  (338) 
-0.265245

>  <r_i_glide_ligand_efficiency_sa>  (338) 
-0.695139

>  <r_i_glide_ligand_efficiency_ln>  (338) 
-1.22724

>  <r_i_glide_gscore>  (338) 
-4.77442

>  <r_i_glide_lipo>  (338) 
-0.833041

>  <r_i_glide_hbond>  (338) 
-0.32

>  <r_i_glide_metal>  (338) 
-0

>  <r_i_glide_rewards>  (338) 
-1.73648

>  <r_i_glide_evdw>  (338) 
-17.1761

>  <r_i_glide_ecoul>  (338) 
-6.70524

>  <r_i_glide_erotb>  (338) 
0

>  <r_i_glide_esite>  (338) 
-0.0203102

>  <r_i_glide_emodel>  (338) 
-30.3005

>  <r_i_glide_energy>  (338) 
-23.8813

>  <r_i_glide_einternal>  (338) 
0

>  <r_i_glide_intrahb_reward>  (338) 
-0

>  <i_i_glide_confnum>  (338) 
1

>  <i_i_glide_posenum>  (338) 
6

>  <r_i_glide_eff_state_penalty>  (338) 
0

>  <ligand_id>  (338) 
115

>  <original_smiles>  (338) 
C1CC2C1C1C3CC4C1C1OC(C5COC51)N4C23

>  <smiles>  (338) 
[H]C1([H])OC2([H])C3([H])OC([H])(N4C5([H])C6([H])C([H])([H])C([H])([H])C6([H])C6([H])C5([H])C([H])([H])C4([H])C36[H])C12[H]

$$$$
115:1:1
     RDKit          3D

 37 43  0  0  1  0  0  0  0  0999 V2000
    8.0931   -3.6301    0.2585 C   0  0  0  0  0  0  0  0  0  0  0  0
    8.3258   -2.1180    0.2448 C   0  0  0  0  0  0  0  0  0  0  0  0
    7.0049   -1.9294   -0.4857 C   0  0  1  0  0  0  0  0  0  0  0  0
    6.7546   -3.4286   -0.4640 C   0  0  2  0  0  0  0  0  0  0  0  0
    5.4265   -3.6186    0.2629 C   0  0  1  0  0  0  0  0  0  0  0  0
    5.3889   -2.3625    1.1880 C   0  0  2  0  0  0  0  0  0  0  0  0
    3.9407   -2.0829    1.4299 C   0  0  0  0  0  0  0  0  0  0  0  0
    3.6428   -2.0455   -0.0588 C   0  0  2  0  0  0  0  0  0  0  0  0
    4.1110   -3.4116   -0.5953 C   0  0  1  0  0  0  0  0  0  0  0  0
    4.2175   -3.3315   -2.1630 C   0  0  2  0  0  0  0  0  0  0  0  0
    5.1872   -2.3327   -2.5109 O   0  0  0  0  0  0  0  0  0  0  0  0
    4.6777   -1.0800   -2.1668 C   0  0  1  0  0  0  0  0  0  0  0  0
    3.3044   -1.1698   -2.7913 C   0  0  1  0  0  0  0  0  0  0  0  0
    3.1885   -1.2407   -4.2988 C   0  0  0  0  0  0  0  0  0  0  0  0
    3.0713   -2.6860   -4.2654 O   0  0  0  0  0  0  0  0  0  0  0  0
    3.0053   -2.6507   -2.8184 C   0  0  1  0  0  0  0  0  0  0  0  0
    4.6147   -1.0994   -0.6551 N   0  0  0  0  0  0  0  0  0  0  0  0
    5.8357   -1.2478    0.2131 C   0  0  2  0  0  0  0  0  0  0  0  0
    7.9893   -4.0530    1.2589 H   0  0  0  0  0  0  0  0  0  0  0  0
    8.8178   -4.1702   -0.3555 H   0  0  0  0  0  0  0  0  0  0  0  0
    8.2818   -1.6115    1.2068 H   0  0  0  0  0  0  0  0  0  0  0  0
    9.2073   -1.8395   -0.3293 H   0  0  0  0  0  0  0  0  0  0  0  0
    7.1713   -1.6405   -1.5133 H   0  0  0  0  0  0  0  0  0  0  0  0
    6.8026   -3.8284   -1.4760 H   0  0  0  0  0  0  0  0  0  0  0  0
    5.3904   -4.5503    0.8270 H   0  0  0  0  0  0  0  0  0  0  0  0
    6.0150   -2.4350    2.0805 H   0  0  0  0  0  0  0  0  0  0  0  0
    3.4276   -2.8841    1.9656 H   0  0  0  0  0  0  0  0  0  0  0  0
    3.7653   -1.1253    1.9223 H   0  0  0  0  0  0  0  0  0  0  0  0
    2.6165   -1.8021   -0.2790 H   0  0  0  0  0  0  0  0  0  0  0  0
    3.3835   -4.1663   -0.3138 H   0  0  0  0  0  0  0  0  0  0  0  0
    4.4550   -4.2928   -2.6183 H   0  0  0  0  0  0  0  0  0  0  0  0
    5.2878   -0.2248   -2.4417 H   0  0  0  0  0  0  0  0  0  0  0  0
    2.5165   -0.5733   -2.3468 H   0  0  0  0  0  0  0  0  0  0  0  0
    2.2907   -0.7562   -4.6795 H   0  0  0  0  0  0  0  0  0  0  0  0
    4.0927   -0.8998   -4.8028 H   0  0  0  0  0  0  0  0  0  0  0  0
    2.0148   -2.9078   -2.4461 H   0  0  0  0  0  0  0  0  0  0  0  0
    6.0895   -0.3049    0.7119 H   0  0  0  0  0  0  0  0  0  0  0  0
  1  4  1  0
  1  2  1  0
  1 19  1  0
  1 20  1  0
  2  3  1  0
  2 21  1  0
  2 22  1  0
  3 18  1  0
  3  4  1  0
  3 23  1  6
  4  5  1  0
  4 24  1  6
  5  9  1  0
  5  6  1  0
  5 25  1  1
  6 18  1  0
  6  7  1  0
  6 26  1  1
  7  8  1  0
  7 27  1  0
  7 28  1  0
  8 17  1  0
  8  9  1  0
  8 29  1  1
  9 10  1  0
  9 30  1  6
 10 16  1  0
 10 11  1  0
 10 31  1  6
 11 12  1  0
 12 13  1  0
 12 17  1  0
 12 32  1  1
 13 16  1  0
 13 14  1  0
 13 33  1  1
 14 15  1  0
 14 34  1  0
 14 35  1  0
 15 16  1  0
 16 36  1  6
 17 18  1  0
 18 37  1  1
M  END
>  <i_m_ct_stereo_status>  (339) 
1

>  <s_m_source_file>  (339) 
/var/tmp/pbs.5076255.sched01/tmpg3p38p3m/129jed2w9rh.sdf

>  <i_m_source_file_index>  (339) 
39

>  <i_lp_mmshare_version>  (339) 
48012

>  <i_f3d_flags>  (339) 
0

>  <s_epik_input>  (339) 
W0NIMl0xW0NIMl1bQ0BIXShbQ0BIXTEyKVtDQEhdM1tDQEhdNFtDQEBIXTJONVtDQEhdKFtDSDJdNClbQ0BIXTNbQ0BIXTZbQ0BIXTdbQ0BASF0oW0NAQEhdNU82KVtDSDJdTzc=

>  <s_epik_cmdline>  (339) 
J2VwaWtfcHl0aG9uJywgJy1waHQnLCAnMi4wJywgJy1waCcsICc3LjAnLCAnLXRuJywgJzgnLCAnLW1hJywgJzIwMCcsICctaW1hZScsICc8aW5maWxlLm1hZT4nLCAnLW9tYWUnLCAnPG91dGZpbGUubWFlPic=

>  <r_epik_Ionization_Penalty>  (339) 
0.699638

>  <r_epik_Ionization_Penalty_Charging>  (339) 
0

>  <r_epik_Ionization_Penalty_Neutral>  (339) 
0.699638

>  <r_epik_State_Penalty>  (339) 
0.722247

>  <r_epik_Charging_Adjusted_Penalty>  (339) 
0.722247

>  <i_epik_Tot_Q>  (339) 
0

>  <i_epik_Tot_abs_Q>  (339) 
0

>  <s_epik_Chemistry_Notes>  (339) 
This compound contains an acetal/aminal-like group ( X-CH(R)-Y where X, Y are N, S, or O) that may be acid/base labile, releasing an aldehyde.

>  <s_lp_Force_Field>  (339) 
OPLS3e

>  <r_lp_Energy>  (339) 
64.2423

>  <b_lp_Chiralities_Consistent>  (339) 
1

>  <s_lp_Variant>  (339) 
115:0-2

>  <s_i_glide_gridfile>  (339) 
pfpi4k_grid

>  <i_i_glide_lignum>  (339) 
39

>  <i_i_glide_rotatable_bonds>  (339) 
0

>  <r_i_docking_score>  (339) 
-3.98892

>  <r_i_glide_ligand_efficiency>  (339) 
-0.221607

>  <r_i_glide_ligand_efficiency_sa>  (339) 
-0.580774

>  <r_i_glide_ligand_efficiency_ln>  (339) 
-1.02533

>  <r_i_glide_gscore>  (339) 
-3.98892

>  <r_i_glide_lipo>  (339) 
-0.565651

>  <r_i_glide_hbond>  (339) 
-0.178873

>  <r_i_glide_metal>  (339) 
-0

>  <r_i_glide_rewards>  (339) 
-1.73648

>  <r_i_glide_evdw>  (339) 
-22.9365

>  <r_i_glide_ecoul>  (339) 
-2.15411

>  <r_i_glide_erotb>  (339) 
0

>  <r_i_glide_esite>  (339) 
-0.0379784

>  <r_i_glide_emodel>  (339) 
-30.4819

>  <r_i_glide_energy>  (339) 
-25.0906

>  <r_i_glide_einternal>  (339) 
0

>  <r_i_glide_intrahb_reward>  (339) 
-0

>  <i_i_glide_confnum>  (339) 
2

>  <i_i_glide_posenum>  (339) 
15

>  <r_i_glide_eff_state_penalty>  (339) 
0

>  <ligand_id>  (339) 
115

>  <original_smiles>  (339) 
C1CC2C1C1C3CC4C1C1OC(C5COC51)N4C23

>  <smiles>  (339) 
[H]C1([H])OC2([H])C3([H])OC([H])(N4C5([H])C6([H])C([H])([H])C([H])([H])C6([H])C6([H])C5([H])C([H])([H])C4([H])C36[H])C12[H]

$$$$
115:1:2
     RDKit          3D

 37 43  0  0  1  0  0  0  0  0999 V2000
    5.3018   -5.4280    1.8944 C   0  0  0  0  0  0  0  0  0  0  0  0
    6.7134   -5.1814    1.3652 C   0  0  0  0  0  0  0  0  0  0  0  0
    6.1558   -4.2053    0.3299 C   0  0  1  0  0  0  0  0  0  0  0  0
    4.7411   -4.4210    0.8814 C   0  0  2  0  0  0  0  0  0  0  0  0
    4.2488   -3.0452    1.3430 C   0  0  1  0  0  0  0  0  0  0  0  0
    5.5856   -2.3190    1.6718 C   0  0  2  0  0  0  0  0  0  0  0  0
    5.3085   -0.8586    1.4933 C   0  0  0  0  0  0  0  0  0  0  0  0
    4.7947   -1.0718    0.0820 C   0  0  2  0  0  0  0  0  0  0  0  0
    3.6431   -2.0815    0.2403 C   0  0  1  0  0  0  0  0  0  0  0  0
    3.2856   -2.6762   -1.1704 C   0  0  2  0  0  0  0  0  0  0  0  0
    4.4419   -3.3687   -1.6676 O   0  0  0  0  0  0  0  0  0  0  0  0
    5.4265   -2.4320   -1.9782 C   0  0  1  0  0  0  0  0  0  0  0  0
    4.6166   -1.4192   -2.7618 C   0  0  1  0  0  0  0  0  0  0  0  0
    4.0542   -1.8339   -4.1111 C   0  0  0  0  0  0  0  0  0  0  0  0
    2.7590   -2.1224   -3.5401 O   0  0  0  0  0  0  0  0  0  0  0  0
    3.2054   -1.6064   -2.2694 C   0  0  1  0  0  0  0  0  0  0  0  0
    5.8321   -1.8568   -0.6335 N   0  0  0  0  0  0  0  0  0  0  0  0
    6.4527   -2.7089    0.4471 C   0  0  2  0  0  0  0  0  0  0  0  0
    5.1703   -5.1170    2.9316 H   0  0  0  0  0  0  0  0  0  0  0  0
    4.9581   -6.4508    1.7228 H   0  0  0  0  0  0  0  0  0  0  0  0
    7.3660   -4.6949    2.0889 H   0  0  0  0  0  0  0  0  0  0  0  0
    7.1757   -6.0691    0.9315 H   0  0  0  0  0  0  0  0  0  0  0  0
    6.2745   -4.6344   -0.6655 H   0  0  0  0  0  0  0  0  0  0  0  0
    4.0822   -4.9448    0.1885 H   0  0  0  0  0  0  0  0  0  0  0  0
    3.5937   -3.1092    2.2135 H   0  0  0  0  0  0  0  0  0  0  0  0
    6.0253   -2.6045    2.6286 H   0  0  0  0  0  0  0  0  0  0  0  0
    4.5622   -0.4711    2.1894 H   0  0  0  0  0  0  0  0  0  0  0  0
    6.2083   -0.2491    1.5326 H   0  0  0  0  0  0  0  0  0  0  0  0
    4.5167   -0.1370   -0.4010 H   0  0  0  0  0  0  0  0  0  0  0  0
    2.7773   -1.5706    0.6514 H   0  0  0  0  0  0  0  0  0  0  0  0
    2.3984   -3.3129   -1.1378 H   0  0  0  0  0  0  0  0  0  0  0  0
    6.3319   -2.8258   -2.4400 H   0  0  0  0  0  0  0  0  0  0  0  0
    4.9391   -0.3866   -2.7407 H   0  0  0  0  0  0  0  0  0  0  0  0
    4.0277   -1.0268   -4.8389 H   0  0  0  0  0  0  0  0  0  0  0  0
    4.5512   -2.7232   -4.4837 H   0  0  0  0  0  0  0  0  0  0  0  0
    2.7212   -0.6646   -2.0227 H   0  0  0  0  0  0  0  0  0  0  0  0
    7.5175   -2.4855    0.5879 H   0  0  0  0  0  0  0  0  0  0  0  0
  1  4  1  0
  1  2  1  0
  1 19  1  0
  1 20  1  0
  2  3  1  0
  2 21  1  0
  2 22  1  0
  3 18  1  0
  3  4  1  0
  3 23  1  6
  4  5  1  0
  4 24  1  6
  5  9  1  0
  5  6  1  0
  5 25  1  1
  6 18  1  0
  6  7  1  0
  6 26  1  1
  7  8  1  0
  7 27  1  0
  7 28  1  0
  8 17  1  0
  8  9  1  0
  8 29  1  6
  9 10  1  0
  9 30  1  1
 10 16  1  0
 10 11  1  0
 10 31  1  1
 11 12  1  0
 12 13  1  0
 12 17  1  0
 12 32  1  6
 13 16  1  0
 13 14  1  0
 13 33  1  6
 14 15  1  0
 14 34  1  0
 14 35  1  0
 15 16  1  0
 16 36  1  1
 17 18  1  0
 18 37  1  1
M  END
>  <i_m_ct_stereo_status>  (340) 
1

>  <s_m_source_file>  (340) 
/var/tmp/pbs.5076255.sched01/tmpg3p38p3m/129jed2w9rh.sdf

>  <i_m_source_file_index>  (340) 
39

>  <i_lp_mmshare_version>  (340) 
48012

>  <i_f3d_flags>  (340) 
0

>  <s_epik_input>  (340) 
W0NIMl0xW0NIMl1bQ0BIXShbQ0BIXTEyKVtDQEhdM1tDQEhdNFtDQEBIXTJONVtDQEhdKFtDSDJdNClbQ0BIXTNbQ0BIXTZbQ0BIXTdbQ0BASF0oW0NAQEhdNU82KVtDSDJdTzc=

>  <s_epik_cmdline>  (340) 
J2VwaWtfcHl0aG9uJywgJy1waHQnLCAnMi4wJywgJy1waCcsICc3LjAnLCAnLXRuJywgJzgnLCAnLW1hJywgJzIwMCcsICctaW1hZScsICc8aW5maWxlLm1hZT4nLCAnLW9tYWUnLCAnPG91dGZpbGUubWFlPic=

>  <r_epik_Ionization_Penalty>  (340) 
0.699638

>  <r_epik_Ionization_Penalty_Charging>  (340) 
0

>  <r_epik_Ionization_Penalty_Neutral>  (340) 
0.699638

>  <r_epik_State_Penalty>  (340) 
0.722247

>  <r_epik_Charging_Adjusted_Penalty>  (340) 
0.722247

>  <i_epik_Tot_Q>  (340) 
0

>  <i_epik_Tot_abs_Q>  (340) 
0

>  <s_epik_Chemistry_Notes>  (340) 
This compound contains an acetal/aminal-like group ( X-CH(R)-Y where X, Y are N, S, or O) that may be acid/base labile, releasing an aldehyde.

>  <s_lp_Force_Field>  (340) 
OPLS3e

>  <r_lp_Energy>  (340) 
64.2423

>  <b_lp_Chiralities_Consistent>  (340) 
1

>  <s_lp_Variant>  (340) 
115:0-2

>  <s_i_glide_gridfile>  (340) 
pfpi4k_grid

>  <i_i_glide_lignum>  (340) 
39

>  <i_i_glide_rotatable_bonds>  (340) 
0

>  <r_i_docking_score>  (340) 
-3.34459

>  <r_i_glide_ligand_efficiency>  (340) 
-0.18581

>  <r_i_glide_ligand_efficiency_sa>  (340) 
-0.486961

>  <r_i_glide_ligand_efficiency_ln>  (340) 
-0.859709

>  <r_i_glide_gscore>  (340) 
-3.34459

>  <r_i_glide_lipo>  (340) 
-0.554895

>  <r_i_glide_hbond>  (340) 
0

>  <r_i_glide_metal>  (340) 
-0

>  <r_i_glide_rewards>  (340) 
-1.73648

>  <r_i_glide_evdw>  (340) 
-23.8138

>  <r_i_glide_ecoul>  (340) 
0.941744

>  <r_i_glide_erotb>  (340) 
0

>  <r_i_glide_esite>  (340) 
-0.00378929

>  <r_i_glide_emodel>  (340) 
-27.5024

>  <r_i_glide_energy>  (340) 
-22.872

>  <r_i_glide_einternal>  (340) 
0

>  <r_i_glide_intrahb_reward>  (340) 
-0

>  <i_i_glide_confnum>  (340) 
2

>  <i_i_glide_posenum>  (340) 
5

>  <r_i_glide_eff_state_penalty>  (340) 
0

>  <ligand_id>  (340) 
115

>  <original_smiles>  (340) 
C1CC2C1C1C3CC4C1C1OC(C5COC51)N4C23

>  <smiles>  (340) 
[H]C1([H])OC2([H])C3([H])OC([H])(N4C5([H])C6([H])C([H])([H])C([H])([H])C6([H])C6([H])C5([H])C([H])([H])C4([H])C36[H])C12[H]

$$$$
116:0:0
     RDKit          3D

 93 99  0  0  1  0  0  0  0  0999 V2000
   -1.8324    2.4663    4.0710 C   0  0  0  0  0  0  0  0  0  0  0  0
   -1.4798    1.1329    4.7025 C   0  0  0  0  0  0  0  0  0  0  0  0
   -0.2792    0.4912    4.7892 C   0  0  0  0  0  0  0  0  0  0  0  0
   -0.3672   -0.9419    5.2408 C   0  0  0  0  0  0  0  0  0  0  0  0
   -1.3957   -1.6176    5.2565 O   0  0  0  0  0  0  0  0  0  0  0  0
    0.9366   -1.5827    5.7419 C   0  0  1  0  0  0  0  0  0  0  0  0
    0.9263   -2.2206    7.1444 C   0  0  0  0  0  0  0  0  0  0  0  0
    0.8022   -1.1552    8.3424 C   0  0  1  0  0  0  0  0  0  0  0  0
    0.7584   -1.9649    9.6984 C   0  0  0  0  0  0  0  0  0  0  0  0
    0.1799   -1.2130   10.9231 C   0  0  0  0  0  0  0  0  0  0  0  0
    2.1434   -2.5021   10.1234 C   0  0  0  0  0  0  0  0  0  0  0  0
    1.8050    0.1240    8.3818 C   0  0  0  0  0  0  0  0  0  0  0  0
    1.3065    1.5425    7.7441 C   0  0  1  0  0  0  0  0  0  0  0  0
    0.8740    2.4785    8.9910 C   0  0  2  0  0  0  0  0  0  0  0  0
    2.1182    2.8686    9.8797 C   0  0  0  0  0  0  0  0  0  0  0  0
   -0.0447    1.6956    9.9791 C   0  0  0  0  0  0  0  0  0  0  0  0
   -1.1091    2.4794   10.7579 C   0  0  0  0  0  0  0  0  0  0  0  0
   -2.0868    3.0883    9.7890 C   0  0  0  0  0  0  0  0  0  0  0  0
   -3.3071    2.9554    9.9250 O   0  0  0  0  0  0  0  0  0  0  0  0
   -1.4607    3.7915    8.5590 C   0  0  0  0  0  0  0  0  0  0  0  0
   -1.9775    3.0593    7.3241 C   0  0  0  0  0  0  0  0  0  0  0  0
   -1.9961    5.2316    8.6028 C   0  0  0  0  0  0  0  0  0  0  0  0
    0.1299    3.7839    8.6236 C   0  0  2  0  0  0  0  0  0  0  0  0
    0.8867    4.5083    7.5039 C   0  0  0  0  0  0  0  0  0  0  0  0
    1.3273    3.6746    6.2838 C   0  0  1  0  0  0  0  0  0  0  0  0
    2.0607    4.6703    5.6160 O   0  0  0  0  0  0  0  0  0  0  0  0
    2.1303    2.3182    6.4994 C   0  0  1  0  0  0  0  0  0  0  0  0
    3.5296    2.6636    7.0991 C   0  0  0  0  0  0  0  0  0  0  0  0
    2.3707    1.6555    4.9506 C   0  0  1  0  0  0  0  0  0  0  0  0
    3.0385    2.6669    3.9542 C   0  0  0  0  0  0  0  0  0  0  0  0
    3.5534    0.5495    4.9163 C   0  0  1  0  0  0  0  0  0  0  0  0
    3.8668   -0.7054    3.8778 C   0  0  0  0  0  0  0  0  0  0  0  0
    2.4354   -1.5835    3.6984 C   0  0  1  0  0  0  0  0  0  0  0  0
    2.4081   -2.4010    2.3983 C   0  0  0  0  0  0  0  0  0  0  0  0
    1.5922   -2.3856    4.6975 O   0  0  0  0  0  0  0  0  0  0  0  0
    1.8178   -0.2610    3.5594 C   0  0  2  0  0  0  0  0  0  0  0  0
    2.5532   -0.3393    5.0403 C   0  0  2  0  0  0  0  0  0  0  0  0
    1.6488   -0.4846    6.0127 O   0  0  0  0  0  0  0  0  0  0  0  0
    1.0810    0.9659    4.1522 C   0  0  1  0  0  0  0  0  0  0  0  0
    0.7676    1.8225    3.0390 O   0  0  0  0  0  0  0  0  0  0  0  0
    0.0940    1.2967    1.8837 C   0  0  0  0  0  0  0  0  0  0  0  0
   -2.6468    2.9349    4.6156 H   0  0  0  0  0  0  0  0  0  0  0  0
   -2.1903    2.3206    3.0515 H   0  0  0  0  0  0  0  0  0  0  0  0
   -0.9922    3.1537    4.0465 H   0  0  0  0  0  0  0  0  0  0  0  0
   -2.3566    0.6074    5.0372 H   0  0  0  0  0  0  0  0  0  0  0  0
    0.1054   -2.9345    7.1849 H   0  0  0  0  0  0  0  0  0  0  0  0
    1.8299   -2.8242    7.2456 H   0  0  0  0  0  0  0  0  0  0  0  0
   -0.1991   -0.7534    8.2038 H   0  0  0  0  0  0  0  0  0  0  0  0
    0.1044   -2.8225    9.5455 H   0  0  0  0  0  0  0  0  0  0  0  0
    0.8928   -0.4745   11.2625 H   0  0  0  0  0  0  0  0  0  0  0  0
   -0.0509   -1.8675   11.7678 H   0  0  0  0  0  0  0  0  0  0  0  0
   -0.7778   -0.7494   10.6763 H   0  0  0  0  0  0  0  0  0  0  0  0
    2.8414   -1.7085   10.3874 H   0  0  0  0  0  0  0  0  0  0  0  0
    2.6051   -3.1072    9.3408 H   0  0  0  0  0  0  0  0  0  0  0  0
    2.0378   -3.1332   11.0048 H   0  0  0  0  0  0  0  0  0  0  0  0
    2.0708    0.2613    9.4232 H   0  0  0  0  0  0  0  0  0  0  0  0
    2.7759   -0.1646    7.9755 H   0  0  0  0  0  0  0  0  0  0  0  0
    0.3667    1.2878    7.2688 H   0  0  0  0  0  0  0  0  0  0  0  0
    1.8439    3.0567   10.9130 H   0  0  0  0  0  0  0  0  0  0  0  0
    2.6065    3.7926    9.5642 H   0  0  0  0  0  0  0  0  0  0  0  0
    2.8986    2.1147    9.9092 H   0  0  0  0  0  0  0  0  0  0  0  0
   -0.5916    0.9464    9.3915 H   0  0  0  0  0  0  0  0  0  0  0  0
    0.5576    1.2934   10.7492 H   0  0  0  0  0  0  0  0  0  0  0  0
   -1.6354    1.7796   11.4117 H   0  0  0  0  0  0  0  0  0  0  0  0
   -0.6673    3.2458   11.4023 H   0  0  0  0  0  0  0  0  0  0  0  0
   -1.5709    3.5362    6.4432 H   0  0  0  0  0  0  0  0  0  0  0  0
   -3.0626    3.0801    7.2533 H   0  0  0  0  0  0  0  0  0  0  0  0
   -1.6885    2.0096    7.3221 H   0  0  0  0  0  0  0  0  0  0  0  0
   -1.7622    5.7647    7.6900 H   0  0  0  0  0  0  0  0  0  0  0  0
   -1.5579    5.7856    9.4297 H   0  0  0  0  0  0  0  0  0  0  0  0
   -3.0753    5.2630    8.7423 H   0  0  0  0  0  0  0  0  0  0  0  0
    0.2934    4.4256    9.4917 H   0  0  0  0  0  0  0  0  0  0  0  0
    0.2854    5.3526    7.1623 H   0  0  0  0  0  0  0  0  0  0  0  0
    1.7629    4.9812    7.9626 H   0  0  0  0  0  0  0  0  0  0  0  0
    0.4548    3.4436    5.6741 H   0  0  0  0  0  0  0  0  0  0  0  0
    2.2529    4.3615    4.7409 H   0  0  0  0  0  0  0  0  0  0  0  0
    4.3069    2.8320    6.3617 H   0  0  0  0  0  0  0  0  0  0  0  0
    3.9030    1.8762    7.7543 H   0  0  0  0  0  0  0  0  0  0  0  0
    3.5252    3.5746    7.6828 H   0  0  0  0  0  0  0  0  0  0  0  0
    3.4006    2.1666    3.0586 H   0  0  0  0  0  0  0  0  0  0  0  0
    3.9064    3.1753    4.3562 H   0  0  0  0  0  0  0  0  0  0  0  0
    2.3662    3.4301    3.5668 H   0  0  0  0  0  0  0  0  0  0  0  0
    4.2635    0.5824    5.7453 H   0  0  0  0  0  0  0  0  0  0  0  0
    4.2836   -0.3504    2.9310 H   0  0  0  0  0  0  0  0  0  0  0  0
    4.6546   -1.3643    4.2628 H   0  0  0  0  0  0  0  0  0  0  0  0
    2.8910   -1.8872    1.5646 H   0  0  0  0  0  0  0  0  0  0  0  0
    1.3809   -2.5918    2.0959 H   0  0  0  0  0  0  0  0  0  0  0  0
    2.8908   -3.3676    2.5279 H   0  0  0  0  0  0  0  0  0  0  0  0
    2.3076    0.1944    2.6893 H   0  0  0  0  0  0  0  0  0  0  0  0
    3.0814   -1.1243    5.7026 H   0  0  0  0  0  0  0  0  0  0  0  0
   -0.3018    2.1260    1.3032 H   0  0  0  0  0  0  0  0  0  0  0  0
   -0.7515    0.6541    2.1190 H   0  0  0  0  0  0  0  0  0  0  0  0
    0.7552    0.7426    1.2214 H   0  0  0  0  0  0  0  0  0  0  0  0
  1  2  1  0
  1 42  1  0
  1 43  1  0
  1 44  1  0
  2  3  2  3
  2 45  1  0
  3 39  1  0
  3  4  1  0
  4  5  2  0
  4  6  1  0
  6 35  1  0
  6 38  1  0
  6  7  1  1
  7  8  1  0
  7 46  1  0
  7 47  1  0
  8  9  1  0
  8 12  1  0
  8 48  1  6
  9 10  1  0
  9 11  1  0
  9 49  1  0
 10 50  1  0
 10 51  1  0
 10 52  1  0
 11 53  1  0
 11 54  1  0
 11 55  1  0
 12 13  1  0
 12 56  1  0
 12 57  1  0
 13 27  1  0
 13 14  1  0
 13 58  1  6
 14 23  1  0
 14 15  1  1
 14 16  1  0
 15 59  1  0
 15 60  1  0
 15 61  1  0
 16 17  1  0
 16 62  1  0
 16 63  1  0
 17 18  1  0
 17 64  1  0
 17 65  1  0
 18 19  2  0
 18 20  1  0
 20 21  1  0
 20 22  1  0
 20 23  1  0
 21 66  1  0
 21 67  1  0
 21 68  1  0
 22 69  1  0
 22 70  1  0
 22 71  1  0
 23 24  1  0
 23 72  1  1
 24 25  1  0
 24 73  1  0
 24 74  1  0
 25 26  1  0
 25 27  1  0
 25 75  1  6
 26 76  1  0
 27 28  1  1
 27 29  1  0
 28 77  1  0
 28 78  1  0
 28 79  1  0
 29 39  1  0
 29 30  1  6
 29 31  1  0
 30 80  1  0
 30 81  1  0
 30 82  1  0
 31 37  1  0
 31 32  1  0
 31 83  1  1
 32 33  1  0
 32 84  1  0
 32 85  1  0
 33 34  1  6
 33 35  1  0
 33 36  1  0
 34 86  1  0
 34 87  1  0
 34 88  1  0
 36 37  1  0
 36 39  1  0
 36 89  1  6
 37 38  1  0
 37 90  1  6
 39 40  1  6
 40 41  1  0
 41 91  1  0
 41 92  1  0
 41 93  1  0
M  END
>  <i_m_ct_stereo_status>  (341) 
1

>  <s_m_source_file>  (341) 
/var/tmp/pbs.5076255.sched01/tmpg3p38p3m/129jed2w9rh.sdf

>  <i_m_source_file_index>  (341) 
40

>  <i_lp_mmshare_version>  (341) 
48012

>  <i_f3d_flags>  (341) 
0

>  <s_epik_input>  (341) 
W0NIMl0xW0NAXShPMikoW0NIM10pW0NAQEhdM1tDQEhdKE80KVtDQEBIXTFbQ0BAXShbQ0gzXSkoW0NAXTMoT1tDSDNdKUMoXEMoPU8pW0NAQF0yNDUpPVtDSF1cW0NIM10pW0NAXTYoW0NIM10pW0NAQEhdKFtDSDJdW0NAQEhdKFtDSDJdNSlbQ0hdKFtDSDNdKVtDSDNdKVtDQEBdNyhbQ0gzXSlbQ0BASF0oW0NIMl1bQ0BIXTZbT0hdKUMoW0NIM10pKFtDSDNdKUMoPU8pW0NIMl1bQ0gyXTc=

>  <s_epik_cmdline>  (341) 
J2VwaWtfcHl0aG9uJywgJy1waHQnLCAnMi4wJywgJy1waCcsICc3LjAnLCAnLXRuJywgJzgnLCAnLW1hJywgJzIwMCcsICctaW1hZScsICc8aW5maWxlLm1hZT4nLCAnLW9tYWUnLCAnPG91dGZpbGUubWFlPic=

>  <r_lp_tautomer_probability>  (341) 
1

>  <r_epik_Ionization_Penalty>  (341) 
7.09026e-07

>  <r_epik_Ionization_Penalty_Charging>  (341) 
0

>  <r_epik_Ionization_Penalty_Neutral>  (341) 
7.09026e-07

>  <r_epik_State_Penalty>  (341) 
-0

>  <r_epik_Charging_Adjusted_Penalty>  (341) 
0

>  <i_epik_Tot_Q>  (341) 
0

>  <i_epik_Tot_abs_Q>  (341) 
0

>  <s_lp_Force_Field>  (341) 
OPLS3e

>  <r_lp_Energy>  (341) 
435.944

>  <b_lp_Chiralities_Consistent>  (341) 
1

>  <s_lp_Variant>  (341) 
116:0-1

>  <s_i_glide_gridfile>  (341) 
pfpi4k_grid

>  <i_i_glide_lignum>  (341) 
40

>  <i_i_glide_rotatable_bonds>  (341) 
3

>  <r_i_docking_score>  (341) 
-1.53769

>  <r_i_glide_ligand_efficiency>  (341) 
-0.0375047

>  <r_i_glide_ligand_efficiency_sa>  (341) 
-0.129324

>  <r_i_glide_ligand_efficiency_ln>  (341) 
-0.326227

>  <r_i_glide_gscore>  (341) 
-1.53769

>  <r_i_glide_lipo>  (341) 
-0.066172

>  <r_i_glide_hbond>  (341) 
0

>  <r_i_glide_metal>  (341) 
-0

>  <r_i_glide_rewards>  (341) 
0

>  <r_i_glide_evdw>  (341) 
-24.6661

>  <r_i_glide_ecoul>  (341) 
-1.09405

>  <r_i_glide_erotb>  (341) 
0

>  <r_i_glide_esite>  (341) 
-0.0741093

>  <r_i_glide_emodel>  (341) 
-26.705

>  <r_i_glide_energy>  (341) 
-25.7601

>  <r_i_glide_einternal>  (341) 
0.482967

>  <r_i_glide_intrahb_reward>  (341) 
-0

>  <i_i_glide_confnum>  (341) 
2

>  <i_i_glide_posenum>  (341) 
4

>  <r_i_glide_eff_state_penalty>  (341) 
0

>  <ligand_id>  (341) 
116

>  <original_smiles>  (341) 
CC=C1C(=O)C23CC(C(C)C)CC4C5(C)CCC(=O)C(C)(C)C5CC(O)C4(C)C4(C)C5CC(C)(O2)C(C5O3)C14OC

>  <smiles>  (341) 
[H]OC1([H])C([H])([H])C2([H])C(C([H])([H])[H])(C([H])([H])[H])C(=O)C([H])([H])C([H])([H])C2(C([H])([H])[H])C2([H])C([H])([H])C([H])(C([H])(C([H])([H])[H])C([H])([H])[H])C([H])([H])C34OC5([H])C6([H])C(OC([H])([H])[H])(C(=C([H])C([H])([H])[H])C3=O)C(C([H])([H])[H])(C5([H])C([H])([H])C6(C([H])([H])[H])O4)C12C([H])([H])[H]

$$$$
116:0:1
     RDKit          3D

 93 99  0  0  1  0  0  0  0  0999 V2000
   -2.2664    2.8041    4.7015 C   0  0  0  0  0  0  0  0  0  0  0  0
   -1.5502    1.6800    5.4365 C   0  0  0  0  0  0  0  0  0  0  0  0
   -0.3262    1.1390    5.2138 C   0  0  0  0  0  0  0  0  0  0  0  0
   -0.0769   -0.1535    5.9549 C   0  0  0  0  0  0  0  0  0  0  0  0
   -0.9578   -0.8566    6.4575 O   0  0  0  0  0  0  0  0  0  0  0  0
    1.3823   -0.6046    6.0672 C   0  0  1  0  0  0  0  0  0  0  0  0
    1.9683   -0.8795    7.4682 C   0  0  0  0  0  0  0  0  0  0  0  0
    2.1169    0.4386    8.3581 C   0  0  1  0  0  0  0  0  0  0  0  0
    2.6624    0.0645    9.7751 C   0  0  0  0  0  0  0  0  0  0  0  0
    4.0929   -0.5131    9.7609 C   0  0  0  0  0  0  0  0  0  0  0  0
    1.7212   -0.8478   10.5864 C   0  0  0  0  0  0  0  0  0  0  0  0
    2.9177    1.7208    7.7674 C   0  0  0  0  0  0  0  0  0  0  0  0
    2.0501    2.9155    7.0826 C   0  0  1  0  0  0  0  0  0  0  0  0
    1.9761    4.0874    8.1906 C   0  0  2  0  0  0  0  0  0  0  0  0
    3.3703    4.7578    8.4403 C   0  0  0  0  0  0  0  0  0  0  0  0
    1.5470    3.5082    9.5844 C   0  0  0  0  0  0  0  0  0  0  0  0
    0.7669    4.4481   10.5054 C   0  0  0  0  0  0  0  0  0  0  0  0
   -0.5518    4.7759    9.8366 C   0  0  0  0  0  0  0  0  0  0  0  0
   -1.6154    4.6839   10.4538 O   0  0  0  0  0  0  0  0  0  0  0  0
   -0.5010    5.1846    8.3507 C   0  0  0  0  0  0  0  0  0  0  0  0
   -1.3405    4.1720    7.5730 C   0  0  0  0  0  0  0  0  0  0  0  0
   -1.1809    6.5754    8.2684 C   0  0  0  0  0  0  0  0  0  0  0  0
    0.9884    5.2474    7.8354 C   0  0  2  0  0  0  0  0  0  0  0  0
    1.2011    5.7098    6.3904 C   0  0  0  0  0  0  0  0  0  0  0  0
    1.2857    4.6242    5.2970 C   0  0  1  0  0  0  0  0  0  0  0  0
    1.5989    5.4646    4.1988 O   0  0  0  0  0  0  0  0  0  0  0  0
    2.2757    3.4007    5.4937 C   0  0  1  0  0  0  0  0  0  0  0  0
    3.7382    3.9430    5.4293 C   0  0  0  0  0  0  0  0  0  0  0  0
    2.0515    2.3923    4.1383 C   0  0  1  0  0  0  0  0  0  0  0  0
    2.2009    3.1472    2.7677 C   0  0  0  0  0  0  0  0  0  0  0  0
    3.2775    1.3610    3.9027 C   0  0  1  0  0  0  0  0  0  0  0  0
    3.3583   -0.0928    3.1273 C   0  0  0  0  0  0  0  0  0  0  0  0
    2.0792   -1.0402    3.6713 C   0  0  1  0  0  0  0  0  0  0  0  0
    1.7073   -2.1586    2.6791 C   0  0  0  0  0  0  0  0  0  0  0  0
    1.7392   -1.6026    5.0541 O   0  0  0  0  0  0  0  0  0  0  0  0
    1.2888    0.1842    3.4891 C   0  0  2  0  0  0  0  0  0  0  0  0
    2.4999    0.4910    4.5730 C   0  0  2  0  0  0  0  0  0  0  0  0
    2.0250    0.5335    5.8169 O   0  0  0  0  0  0  0  0  0  0  0  0
    0.6621    1.4848    4.0289 C   0  0  1  0  0  0  0  0  0  0  0  0
   -0.1402    2.0292    2.9593 O   0  0  0  0  0  0  0  0  0  0  0  0
   -1.0786    1.1895    2.2796 C   0  0  0  0  0  0  0  0  0  0  0  0
   -2.8985    3.3606    5.3960 H   0  0  0  0  0  0  0  0  0  0  0  0
   -2.9333    2.3896    3.9463 H   0  0  0  0  0  0  0  0  0  0  0  0
   -1.5842    3.5039    4.2177 H   0  0  0  0  0  0  0  0  0  0  0  0
   -2.1806    1.2297    6.1864 H   0  0  0  0  0  0  0  0  0  0  0  0
    1.3058   -1.5967    7.9495 H   0  0  0  0  0  0  0  0  0  0  0  0
    2.9294   -1.3738    7.3417 H   0  0  0  0  0  0  0  0  0  0  0  0
    1.0890    0.7588    8.5219 H   0  0  0  0  0  0  0  0  0  0  0  0
    2.7170    0.9835   10.3573 H   0  0  0  0  0  0  0  0  0  0  0  0
    4.1304   -1.5004    9.2991 H   0  0  0  0  0  0  0  0  0  0  0  0
    4.4720   -0.6230   10.7772 H   0  0  0  0  0  0  0  0  0  0  0  0
    4.7861    0.1367    9.2287 H   0  0  0  0  0  0  0  0  0  0  0  0
    1.6757   -1.8616   10.1830 H   0  0  0  0  0  0  0  0  0  0  0  0
    0.7067   -0.4469   10.6211 H   0  0  0  0  0  0  0  0  0  0  0  0
    2.0656   -0.9347   11.6180 H   0  0  0  0  0  0  0  0  0  0  0  0
    3.5181    2.1139    8.5837 H   0  0  0  0  0  0  0  0  0  0  0  0
    3.7121    1.3885    7.0997 H   0  0  0  0  0  0  0  0  0  0  0  0
    1.0389    2.5247    7.0627 H   0  0  0  0  0  0  0  0  0  0  0  0
    3.4388    5.1895    9.4386 H   0  0  0  0  0  0  0  0  0  0  0  0
    3.5795    5.5852    7.7731 H   0  0  0  0  0  0  0  0  0  0  0  0
    4.2117    4.0772    8.3392 H   0  0  0  0  0  0  0  0  0  0  0  0
    0.9204    2.6294    9.4571 H   0  0  0  0  0  0  0  0  0  0  0  0
    2.4171    3.1830   10.1492 H   0  0  0  0  0  0  0  0  0  0  0  0
    0.5596    3.9606   11.4575 H   0  0  0  0  0  0  0  0  0  0  0  0
    1.3092    5.3642   10.7267 H   0  0  0  0  0  0  0  0  0  0  0  0
   -1.3420    4.4397    6.5234 H   0  0  0  0  0  0  0  0  0  0  0  0
   -2.3807    4.1520    7.9072 H   0  0  0  0  0  0  0  0  0  0  0  0
   -0.9492    3.1623    7.6878 H   0  0  0  0  0  0  0  0  0  0  0  0
   -1.3713    6.8918    7.2480 H   0  0  0  0  0  0  0  0  0  0  0  0
   -0.5659    7.3434    8.7400 H   0  0  0  0  0  0  0  0  0  0  0  0
   -2.1470    6.5885    8.7802 H   0  0  0  0  0  0  0  0  0  0  0  0
    1.3528    6.0995    8.4091 H   0  0  0  0  0  0  0  0  0  0  0  0
    0.4208    6.4152    6.1118 H   0  0  0  0  0  0  0  0  0  0  0  0
    2.1046    6.3217    6.3597 H   0  0  0  0  0  0  0  0  0  0  0  0
    0.2927    4.2265    5.1227 H   0  0  0  0  0  0  0  0  0  0  0  0
    1.4581    4.9886    3.3969 H   0  0  0  0  0  0  0  0  0  0  0  0
    4.1752    3.9527    4.4362 H   0  0  0  0  0  0  0  0  0  0  0  0
    4.4126    3.3493    6.0438 H   0  0  0  0  0  0  0  0  0  0  0  0
    3.8199    4.9727    5.7613 H   0  0  0  0  0  0  0  0  0  0  0  0
    2.2750    2.4443    1.9346 H   0  0  0  0  0  0  0  0  0  0  0  0
    3.0896    3.7730    2.6929 H   0  0  0  0  0  0  0  0  0  0  0  0
    1.3526    3.7717    2.5043 H   0  0  0  0  0  0  0  0  0  0  0  0
    4.2070    1.6155    4.4074 H   0  0  0  0  0  0  0  0  0  0  0  0
    3.3710    0.0436    2.0433 H   0  0  0  0  0  0  0  0  0  0  0  0
    4.3102   -0.5958    3.3187 H   0  0  0  0  0  0  0  0  0  0  0  0
    1.8033   -1.8413    1.6430 H   0  0  0  0  0  0  0  0  0  0  0  0
    0.6723   -2.4584    2.8460 H   0  0  0  0  0  0  0  0  0  0  0  0
    2.3344   -3.0389    2.8263 H   0  0  0  0  0  0  0  0  0  0  0  0
    1.3631    0.4134    2.4232 H   0  0  0  0  0  0  0  0  0  0  0  0
    3.3130   -0.0776    5.1546 H   0  0  0  0  0  0  0  0  0  0  0  0
   -1.7713    1.8151    1.7217 H   0  0  0  0  0  0  0  0  0  0  0  0
   -1.6842    0.5843    2.9549 H   0  0  0  0  0  0  0  0  0  0  0  0
   -0.6015    0.5272    1.5591 H   0  0  0  0  0  0  0  0  0  0  0  0
  1  2  1  0
  1 42  1  0
  1 43  1  0
  1 44  1  0
  2  3  2  3
  2 45  1  0
  3 39  1  0
  3  4  1  0
  4  5  2  0
  4  6  1  0
  6 35  1  0
  6 38  1  0
  6  7  1  1
  7  8  1  0
  7 46  1  0
  7 47  1  0
  8  9  1  0
  8 12  1  0
  8 48  1  1
  9 10  1  0
  9 11  1  0
  9 49  1  0
 10 50  1  0
 10 51  1  0
 10 52  1  0
 11 53  1  0
 11 54  1  0
 11 55  1  0
 12 13  1  0
 12 56  1  0
 12 57  1  0
 13 27  1  0
 13 14  1  0
 13 58  1  6
 14 23  1  0
 14 15  1  1
 14 16  1  0
 15 59  1  0
 15 60  1  0
 15 61  1  0
 16 17  1  0
 16 62  1  0
 16 63  1  0
 17 18  1  0
 17 64  1  0
 17 65  1  0
 18 19  2  0
 18 20  1  0
 20 21  1  0
 20 22  1  0
 20 23  1  0
 21 66  1  0
 21 67  1  0
 21 68  1  0
 22 69  1  0
 22 70  1  0
 22 71  1  0
 23 24  1  0
 23 72  1  1
 24 25  1  0
 24 73  1  0
 24 74  1  0
 25 26  1  0
 25 27  1  0
 25 75  1  6
 26 76  1  0
 27 28  1  1
 27 29  1  0
 28 77  1  0
 28 78  1  0
 28 79  1  0
 29 39  1  0
 29 30  1  6
 29 31  1  0
 30 80  1  0
 30 81  1  0
 30 82  1  0
 31 37  1  0
 31 32  1  0
 31 83  1  1
 32 33  1  0
 32 84  1  0
 32 85  1  0
 33 34  1  6
 33 35  1  0
 33 36  1  0
 34 86  1  0
 34 87  1  0
 34 88  1  0
 36 37  1  0
 36 39  1  0
 36 89  1  6
 37 38  1  0
 37 90  1  1
 39 40  1  6
 40 41  1  0
 41 91  1  0
 41 92  1  0
 41 93  1  0
M  END
>  <i_m_ct_stereo_status>  (342) 
1

>  <s_m_source_file>  (342) 
/var/tmp/pbs.5076255.sched01/tmpg3p38p3m/129jed2w9rh.sdf

>  <i_m_source_file_index>  (342) 
40

>  <i_lp_mmshare_version>  (342) 
48012

>  <i_f3d_flags>  (342) 
0

>  <s_epik_input>  (342) 
W0NIMl0xW0NAXShPMikoW0NIM10pW0NAQEhdM1tDQEhdKE80KVtDQEBIXTFbQ0BAXShbQ0gzXSkoW0NAXTMoT1tDSDNdKUMoXEMoPU8pW0NAQF0yNDUpPVtDSF1cW0NIM10pW0NAXTYoW0NIM10pW0NAQEhdKFtDSDJdW0NAQEhdKFtDSDJdNSlbQ0hdKFtDSDNdKVtDSDNdKVtDQEBdNyhbQ0gzXSlbQ0BASF0oW0NIMl1bQ0BIXTZbT0hdKUMoW0NIM10pKFtDSDNdKUMoPU8pW0NIMl1bQ0gyXTc=

>  <s_epik_cmdline>  (342) 
J2VwaWtfcHl0aG9uJywgJy1waHQnLCAnMi4wJywgJy1waCcsICc3LjAnLCAnLXRuJywgJzgnLCAnLW1hJywgJzIwMCcsICctaW1hZScsICc8aW5maWxlLm1hZT4nLCAnLW9tYWUnLCAnPG91dGZpbGUubWFlPic=

>  <r_lp_tautomer_probability>  (342) 
1

>  <r_epik_Ionization_Penalty>  (342) 
7.09026e-07

>  <r_epik_Ionization_Penalty_Charging>  (342) 
0

>  <r_epik_Ionization_Penalty_Neutral>  (342) 
7.09026e-07

>  <r_epik_State_Penalty>  (342) 
-0

>  <r_epik_Charging_Adjusted_Penalty>  (342) 
0

>  <i_epik_Tot_Q>  (342) 
0

>  <i_epik_Tot_abs_Q>  (342) 
0

>  <s_lp_Force_Field>  (342) 
OPLS3e

>  <r_lp_Energy>  (342) 
435.944

>  <b_lp_Chiralities_Consistent>  (342) 
1

>  <s_lp_Variant>  (342) 
116:0-1

>  <s_i_glide_gridfile>  (342) 
pfpi4k_grid

>  <i_i_glide_lignum>  (342) 
40

>  <i_i_glide_rotatable_bonds>  (342) 
3

>  <r_i_docking_score>  (342) 
-1.49613

>  <r_i_glide_ligand_efficiency>  (342) 
-0.0364909

>  <r_i_glide_ligand_efficiency_sa>  (342) 
-0.125828

>  <r_i_glide_ligand_efficiency_ln>  (342) 
-0.317408

>  <r_i_glide_gscore>  (342) 
-1.49613

>  <r_i_glide_lipo>  (342) 
-0.00751511

>  <r_i_glide_hbond>  (342) 
-0.0524092

>  <r_i_glide_metal>  (342) 
-0

>  <r_i_glide_rewards>  (342) 
0

>  <r_i_glide_evdw>  (342) 
-21.041

>  <r_i_glide_ecoul>  (342) 
-2.39458

>  <r_i_glide_erotb>  (342) 
0

>  <r_i_glide_esite>  (342) 
-0.0249674

>  <r_i_glide_emodel>  (342) 
-25.4528

>  <r_i_glide_energy>  (342) 
-23.4355

>  <r_i_glide_einternal>  (342) 
0.397892

>  <r_i_glide_intrahb_reward>  (342) 
-0

>  <i_i_glide_confnum>  (342) 
2

>  <i_i_glide_posenum>  (342) 
12

>  <r_i_glide_eff_state_penalty>  (342) 
0

>  <ligand_id>  (342) 
116

>  <original_smiles>  (342) 
CC=C1C(=O)C23CC(C(C)C)CC4C5(C)CCC(=O)C(C)(C)C5CC(O)C4(C)C4(C)C5CC(C)(O2)C(C5O3)C14OC

>  <smiles>  (342) 
[H]OC1([H])C([H])([H])C2([H])C(C([H])([H])[H])(C([H])([H])[H])C(=O)C([H])([H])C([H])([H])C2(C([H])([H])[H])C2([H])C([H])([H])C([H])(C([H])(C([H])([H])[H])C([H])([H])[H])C([H])([H])C34OC5([H])C6([H])C(OC([H])([H])[H])(C(=C([H])C([H])([H])[H])C3=O)C(C([H])([H])[H])(C5([H])C([H])([H])C6(C([H])([H])[H])O4)C12C([H])([H])[H]

$$$$
116:0:2
     RDKit          3D

 93 99  0  0  1  0  0  0  0  0999 V2000
    2.5121    4.3733    4.5389 C   0  0  0  0  0  0  0  0  0  0  0  0
    2.4952    3.6295    5.8681 C   0  0  0  0  0  0  0  0  0  0  0  0
    1.4428    3.1682    6.5906 C   0  0  0  0  0  0  0  0  0  0  0  0
    1.7967    2.7369    7.9949 C   0  0  0  0  0  0  0  0  0  0  0  0
    2.8259    3.0546    8.5913 O   0  0  0  0  0  0  0  0  0  0  0  0
    0.7731    1.8562    8.7189 C   0  0  1  0  0  0  0  0  0  0  0  0
    1.2356    0.4999    9.2869 C   0  0  0  0  0  0  0  0  0  0  0  0
    1.6177   -0.5580    8.1528 C   0  0  1  0  0  0  0  0  0  0  0  0
    2.1267   -1.8814    8.8094 C   0  0  0  0  0  0  0  0  0  0  0  0
    1.0485   -2.6306    9.6184 C   0  0  0  0  0  0  0  0  0  0  0  0
    3.4072   -1.7093    9.6507 C   0  0  0  0  0  0  0  0  0  0  0  0
    0.5577   -0.8871    6.9701 C   0  0  0  0  0  0  0  0  0  0  0  0
    0.7222   -0.0995    5.5556 C   0  0  1  0  0  0  0  0  0  0  0  0
    1.4148   -1.1558    4.5512 C   0  0  2  0  0  0  0  0  0  0  0  0
    0.4677   -2.3520    4.1952 C   0  0  0  0  0  0  0  0  0  0  0  0
    2.6670   -1.8179    5.2248 C   0  0  0  0  0  0  0  0  0  0  0  0
    3.7996   -2.2415    4.2889 C   0  0  0  0  0  0  0  0  0  0  0  0
    4.3559   -0.9941    3.6325 C   0  0  0  0  0  0  0  0  0  0  0  0
    5.5660   -0.7713    3.6130 O   0  0  0  0  0  0  0  0  0  0  0  0
    3.3416    0.0007    3.0449 C   0  0  0  0  0  0  0  0  0  0  0  0
    3.5367    1.3229    3.7820 C   0  0  0  0  0  0  0  0  0  0  0  0
    3.7328    0.1718    1.5548 C   0  0  0  0  0  0  0  0  0  0  0  0
    1.8736   -0.5415    3.1877 C   0  0  2  0  0  0  0  0  0  0  0  0
    0.7720    0.3301    2.5776 C   0  0  0  0  0  0  0  0  0  0  0  0
    0.0666    1.3465    3.5000 C   0  0  1  0  0  0  0  0  0  0  0  0
   -0.9376    1.7922    2.5988 O   0  0  0  0  0  0  0  0  0  0  0  0
   -0.4870    0.8572    4.9056 C   0  0  1  0  0  0  0  0  0  0  0  0
   -1.6636   -0.1245    4.6420 C   0  0  0  0  0  0  0  0  0  0  0  0
   -1.1362    2.2435    5.6639 C   0  0  1  0  0  0  0  0  0  0  0  0
   -2.1660    3.0206    4.7650 C   0  0  0  0  0  0  0  0  0  0  0  0
   -2.1725    1.9023    6.8621 C   0  0  1  0  0  0  0  0  0  0  0  0
   -2.6451    2.7624    8.1907 C   0  0  0  0  0  0  0  0  0  0  0  0
   -1.2626    3.3457    8.9493 C   0  0  1  0  0  0  0  0  0  0  0  0
   -1.5536    4.5733    9.8352 C   0  0  0  0  0  0  0  0  0  0  0  0
   -0.0880    2.6293    9.6192 O   0  0  0  0  0  0  0  0  0  0  0  0
   -0.8420    3.6972    7.5872 C   0  0  2  0  0  0  0  0  0  0  0  0
   -1.0996    2.0650    7.6558 C   0  0  2  0  0  0  0  0  0  0  0  0
    0.0514    1.3974    7.6974 O   0  0  0  0  0  0  0  0  0  0  0  0
   -0.0913    3.3834    6.2765 C   0  0  1  0  0  0  0  0  0  0  0  0
   -0.2080    4.5729    5.4599 O   0  0  0  0  0  0  0  0  0  0  0  0
    0.1656    5.8492    5.9903 C   0  0  0  0  0  0  0  0  0  0  0  0
    3.4045    4.1091    3.9692 H   0  0  0  0  0  0  0  0  0  0  0  0
    2.5717    5.4466    4.7114 H   0  0  0  0  0  0  0  0  0  0  0  0
    1.6380    4.1688    3.9196 H   0  0  0  0  0  0  0  0  0  0  0  0
    3.4830    3.5467    6.2950 H   0  0  0  0  0  0  0  0  0  0  0  0
    2.0934    0.7057    9.9245 H   0  0  0  0  0  0  0  0  0  0  0  0
    0.4484    0.1159    9.9350 H   0  0  0  0  0  0  0  0  0  0  0  0
    2.4925   -0.1184    7.6749 H   0  0  0  0  0  0  0  0  0  0  0  0
    2.4189   -2.5530    8.0038 H   0  0  0  0  0  0  0  0  0  0  0  0
    0.7652   -2.0890   10.5217 H   0  0  0  0  0  0  0  0  0  0  0  0
    1.4181   -3.6062    9.9348 H   0  0  0  0  0  0  0  0  0  0  0  0
    0.1500   -2.8066    9.0291 H   0  0  0  0  0  0  0  0  0  0  0  0
    3.2260   -1.1563   10.5745 H   0  0  0  0  0  0  0  0  0  0  0  0
    4.1868   -1.1904    9.0903 H   0  0  0  0  0  0  0  0  0  0  0  0
    3.8106   -2.6808    9.9392 H   0  0  0  0  0  0  0  0  0  0  0  0
    0.5977   -1.9613    6.8093 H   0  0  0  0  0  0  0  0  0  0  0  0
   -0.4605   -0.7948    7.3459 H   0  0  0  0  0  0  0  0  0  0  0  0
    1.5049    0.6242    5.7481 H   0  0  0  0  0  0  0  0  0  0  0  0
    1.0278   -3.2453    3.9189 H   0  0  0  0  0  0  0  0  0  0  0  0
   -0.1608   -2.1552    3.3372 H   0  0  0  0  0  0  0  0  0  0  0  0
   -0.2060   -2.6417    4.9970 H   0  0  0  0  0  0  0  0  0  0  0  0
    3.1147   -1.1387    5.9464 H   0  0  0  0  0  0  0  0  0  0  0  0
    2.3801   -2.7073    5.7797 H   0  0  0  0  0  0  0  0  0  0  0  0
    4.5966   -2.7238    4.8528 H   0  0  0  0  0  0  0  0  0  0  0  0
    3.4723   -2.9471    3.5286 H   0  0  0  0  0  0  0  0  0  0  0  0
    2.8723    2.0701    3.3641 H   0  0  0  0  0  0  0  0  0  0  0  0
    4.5533    1.6978    3.6803 H   0  0  0  0  0  0  0  0  0  0  0  0
    3.3598    1.2222    4.8510 H   0  0  0  0  0  0  0  0  0  0  0  0
    3.2131    1.0031    1.0877 H   0  0  0  0  0  0  0  0  0  0  0  0
    3.5128   -0.7276    0.9781 H   0  0  0  0  0  0  0  0  0  0  0  0
    4.7992    0.3686    1.4256 H   0  0  0  0  0  0  0  0  0  0  0  0
    1.9115   -1.3884    2.5022 H   0  0  0  0  0  0  0  0  0  0  0  0
    1.1561    0.8572    1.7060 H   0  0  0  0  0  0  0  0  0  0  0  0
    0.0274   -0.3341    2.1431 H   0  0  0  0  0  0  0  0  0  0  0  0
    0.7341    2.1812    3.6818 H   0  0  0  0  0  0  0  0  0  0  0  0
   -0.5334    2.3203    1.9221 H   0  0  0  0  0  0  0  0  0  0  0  0
   -2.6081    0.3799    4.5551 H   0  0  0  0  0  0  0  0  0  0  0  0
   -1.7782   -0.8666    5.4300 H   0  0  0  0  0  0  0  0  0  0  0  0
   -1.5769   -0.6503    3.6980 H   0  0  0  0  0  0  0  0  0  0  0  0
   -2.7300    3.7519    5.3464 H   0  0  0  0  0  0  0  0  0  0  0  0
   -2.9201    2.3900    4.2981 H   0  0  0  0  0  0  0  0  0  0  0  0
   -1.7070    3.5921    3.9597 H   0  0  0  0  0  0  0  0  0  0  0  0
   -2.5794    0.8951    6.8514 H   0  0  0  0  0  0  0  0  0  0  0  0
   -3.3584    3.5426    7.9183 H   0  0  0  0  0  0  0  0  0  0  0  0
   -3.2155    2.1483    8.8928 H   0  0  0  0  0  0  0  0  0  0  0  0
   -2.3139    5.2230    9.4072 H   0  0  0  0  0  0  0  0  0  0  0  0
   -0.6438    5.1615    9.9596 H   0  0  0  0  0  0  0  0  0  0  0  0
   -1.8879    4.2677   10.8280 H   0  0  0  0  0  0  0  0  0  0  0  0
   -1.5906    4.4103    7.2350 H   0  0  0  0  0  0  0  0  0  0  0  0
   -1.3184    1.2499    8.4388 H   0  0  0  0  0  0  0  0  0  0  0  0
    0.2815    6.5340    5.1482 H   0  0  0  0  0  0  0  0  0  0  0  0
    1.1140    5.8401    6.5286 H   0  0  0  0  0  0  0  0  0  0  0  0
   -0.5903    6.2721    6.6528 H   0  0  0  0  0  0  0  0  0  0  0  0
  1  2  1  0
  1 42  1  0
  1 43  1  0
  1 44  1  0
  2  3  2  3
  2 45  1  0
  3 39  1  0
  3  4  1  0
  4  5  2  0
  4  6  1  0
  6 35  1  0
  6 38  1  0
  6  7  1  1
  7  8  1  0
  7 46  1  0
  7 47  1  0
  8  9  1  0
  8 12  1  0
  8 48  1  6
  9 10  1  0
  9 11  1  0
  9 49  1  0
 10 50  1  0
 10 51  1  0
 10 52  1  0
 11 53  1  0
 11 54  1  0
 11 55  1  0
 12 13  1  0
 12 56  1  0
 12 57  1  0
 13 27  1  0
 13 14  1  0
 13 58  1  1
 14 23  1  0
 14 15  1  6
 14 16  1  0
 15 59  1  0
 15 60  1  0
 15 61  1  0
 16 17  1  0
 16 62  1  0
 16 63  1  0
 17 18  1  0
 17 64  1  0
 17 65  1  0
 18 19  2  0
 18 20  1  0
 20 21  1  0
 20 22  1  0
 20 23  1  0
 21 66  1  0
 21 67  1  0
 21 68  1  0
 22 69  1  0
 22 70  1  0
 22 71  1  0
 23 24  1  0
 23 72  1  6
 24 25  1  0
 24 73  1  0
 24 74  1  0
 25 26  1  0
 25 27  1  0
 25 75  1  1
 26 76  1  0
 27 28  1  6
 27 29  1  0
 28 77  1  0
 28 78  1  0
 28 79  1  0
 29 39  1  0
 29 30  1  6
 29 31  1  0
 30 80  1  0
 30 81  1  0
 30 82  1  0
 31 37  1  0
 31 32  1  0
 31 83  1  6
 32 33  1  0
 32 84  1  0
 32 85  1  0
 33 34  1  1
 33 35  1  0
 33 36  1  0
 34 86  1  0
 34 87  1  0
 34 88  1  0
 36 37  1  0
 36 39  1  0
 36 89  1  6
 37 38  1  0
 37 90  1  1
 39 40  1  6
 40 41  1  0
 41 91  1  0
 41 92  1  0
 41 93  1  0
M  END
>  <i_m_ct_stereo_status>  (343) 
1

>  <s_m_source_file>  (343) 
/var/tmp/pbs.5076255.sched01/tmpg3p38p3m/129jed2w9rh.sdf

>  <i_m_source_file_index>  (343) 
40

>  <i_lp_mmshare_version>  (343) 
48012

>  <i_f3d_flags>  (343) 
0

>  <s_epik_input>  (343) 
W0NIMl0xW0NAXShPMikoW0NIM10pW0NAQEhdM1tDQEhdKE80KVtDQEBIXTFbQ0BAXShbQ0gzXSkoW0NAXTMoT1tDSDNdKUMoXEMoPU8pW0NAQF0yNDUpPVtDSF1cW0NIM10pW0NAXTYoW0NIM10pW0NAQEhdKFtDSDJdW0NAQEhdKFtDSDJdNSlbQ0hdKFtDSDNdKVtDSDNdKVtDQEBdNyhbQ0gzXSlbQ0BASF0oW0NIMl1bQ0BIXTZbT0hdKUMoW0NIM10pKFtDSDNdKUMoPU8pW0NIMl1bQ0gyXTc=

>  <s_epik_cmdline>  (343) 
J2VwaWtfcHl0aG9uJywgJy1waHQnLCAnMi4wJywgJy1waCcsICc3LjAnLCAnLXRuJywgJzgnLCAnLW1hJywgJzIwMCcsICctaW1hZScsICc8aW5maWxlLm1hZT4nLCAnLW9tYWUnLCAnPG91dGZpbGUubWFlPic=

>  <r_lp_tautomer_probability>  (343) 
1

>  <r_epik_Ionization_Penalty>  (343) 
7.09026e-07

>  <r_epik_Ionization_Penalty_Charging>  (343) 
0

>  <r_epik_Ionization_Penalty_Neutral>  (343) 
7.09026e-07

>  <r_epik_State_Penalty>  (343) 
-0

>  <r_epik_Charging_Adjusted_Penalty>  (343) 
0

>  <i_epik_Tot_Q>  (343) 
0

>  <i_epik_Tot_abs_Q>  (343) 
0

>  <s_lp_Force_Field>  (343) 
OPLS3e

>  <r_lp_Energy>  (343) 
435.944

>  <b_lp_Chiralities_Consistent>  (343) 
1

>  <s_lp_Variant>  (343) 
116:0-1

>  <s_i_glide_gridfile>  (343) 
pfpi4k_grid

>  <i_i_glide_lignum>  (343) 
40

>  <i_i_glide_rotatable_bonds>  (343) 
3

>  <r_i_docking_score>  (343) 
-1.45513

>  <r_i_glide_ligand_efficiency>  (343) 
-0.0354909

>  <r_i_glide_ligand_efficiency_sa>  (343) 
-0.12238

>  <r_i_glide_ligand_efficiency_ln>  (343) 
-0.30871

>  <r_i_glide_gscore>  (343) 
-1.45513

>  <r_i_glide_lipo>  (343) 
-0.177341

>  <r_i_glide_hbond>  (343) 
-0.0151583

>  <r_i_glide_metal>  (343) 
-0

>  <r_i_glide_rewards>  (343) 
-0.0420117

>  <r_i_glide_evdw>  (343) 
-23.5488

>  <r_i_glide_ecoul>  (343) 
-0.280056

>  <r_i_glide_erotb>  (343) 
0

>  <r_i_glide_esite>  (343) 
-0.0011676

>  <r_i_glide_emodel>  (343) 
-25.624

>  <r_i_glide_energy>  (343) 
-23.8289

>  <r_i_glide_einternal>  (343) 
0.451934

>  <r_i_glide_intrahb_reward>  (343) 
-0

>  <i_i_glide_confnum>  (343) 
2

>  <i_i_glide_posenum>  (343) 
13

>  <r_i_glide_eff_state_penalty>  (343) 
0

>  <ligand_id>  (343) 
116

>  <original_smiles>  (343) 
CC=C1C(=O)C23CC(C(C)C)CC4C5(C)CCC(=O)C(C)(C)C5CC(O)C4(C)C4(C)C5CC(C)(O2)C(C5O3)C14OC

>  <smiles>  (343) 
[H]OC1([H])C([H])([H])C2([H])C(C([H])([H])[H])(C([H])([H])[H])C(=O)C([H])([H])C([H])([H])C2(C([H])([H])[H])C2([H])C([H])([H])C([H])(C([H])(C([H])([H])[H])C([H])([H])[H])C([H])([H])C34OC5([H])C6([H])C(OC([H])([H])[H])(C(=C([H])C([H])([H])[H])C3=O)C(C([H])([H])[H])(C5([H])C([H])([H])C6(C([H])([H])[H])O4)C12C([H])([H])[H]

$$$$
117:0:0
     RDKit          3D

 37 40  0  0  1  0  0  0  0  0999 V2000
   -0.9371   -8.0590    2.2618 C   0  0  0  0  0  0  0  0  0  0  0  0
    0.5525   -7.9409    2.1055 C   0  0  0  0  0  0  0  0  0  0  0  0
    1.3731   -9.0101    2.5137 C   0  0  0  0  0  0  0  0  0  0  0  0
    2.7721   -8.9007    2.3631 C   0  0  0  0  0  0  0  0  0  0  0  0
    3.6296  -10.0611    2.8161 C   0  0  0  0  0  0  0  0  0  0  0  0
    3.3315   -7.7184    1.8123 C   0  0  0  0  0  0  0  0  0  0  0  0
    2.3688   -6.7130    1.4642 C   0  0  0  0  0  0  0  0  0  0  0  0
    1.0014   -6.7899    1.5848 N   0  0  0  0  0  0  0  0  0  0  0  0
    3.1083   -5.2473    0.8579 S   0  0  0  0  0  0  0  0  0  0  0  0
    4.7246   -5.9524    0.9619 C   0  0  0  0  0  0  0  0  0  0  0  0
    5.9766   -5.3913    0.6406 C   0  0  0  0  0  0  0  0  0  0  0  0
    6.1327   -4.1049    0.0850 N   0  0  0  0  0  0  0  0  0  0  0  0
    5.2147   -3.5802   -0.9228 C   0  0  0  0  0  0  0  0  0  0  0  0
    5.9730   -3.1192   -2.1716 C   0  0  0  0  0  0  0  0  0  0  0  0
    7.0327   -2.2500   -1.7921 O   0  0  0  0  0  0  0  0  0  0  0  0
    7.9905   -2.8830   -0.9497 C   0  0  0  0  0  0  0  0  0  0  0  0
    7.3116   -3.2909    0.3672 C   0  0  0  0  0  0  0  0  0  0  0  0
    7.0980   -6.0858    0.8925 N   0  0  0  0  0  0  0  0  0  0  0  0
    6.9741   -7.2948    1.4232 C   0  0  0  0  0  0  0  0  0  0  0  0
    5.8551   -7.9403    1.7354 N   0  0  0  0  0  0  0  0  0  0  0  0
    4.7131   -7.2744    1.5228 C   0  0  0  0  0  0  0  0  0  0  0  0
   -1.1971   -9.0246    2.6904 H   0  0  0  0  0  0  0  0  0  0  0  0
   -1.3936   -7.9888    1.2816 H   0  0  0  0  0  0  0  0  0  0  0  0
   -1.3139   -7.2667    2.9076 H   0  0  0  0  0  0  0  0  0  0  0  0
    0.9502   -9.9085    2.9308 H   0  0  0  0  0  0  0  0  0  0  0  0
    4.6981   -9.9109    2.6762 H   0  0  0  0  0  0  0  0  0  0  0  0
    3.3545  -10.9528    2.2572 H   0  0  0  0  0  0  0  0  0  0  0  0
    3.4651  -10.2455    3.8764 H   0  0  0  0  0  0  0  0  0  0  0  0
    4.4926   -4.3253   -1.2650 H   0  0  0  0  0  0  0  0  0  0  0  0
    4.6756   -2.7519   -0.4584 H   0  0  0  0  0  0  0  0  0  0  0  0
    6.3605   -3.9688   -2.7226 H   0  0  0  0  0  0  0  0  0  0  0  0
    5.2820   -2.6168   -2.8473 H   0  0  0  0  0  0  0  0  0  0  0  0
    8.4353   -3.7405   -1.4533 H   0  0  0  0  0  0  0  0  0  0  0  0
    8.7955   -2.1761   -0.7508 H   0  0  0  0  0  0  0  0  0  0  0  0
    6.9778   -2.4045    0.9058 H   0  0  0  0  0  0  0  0  0  0  0  0
    8.0200   -3.7952    1.0260 H   0  0  0  0  0  0  0  0  0  0  0  0
    7.8655   -7.8579    1.5842 H   0  0  0  0  0  0  0  0  0  0  0  0
  1  2  1  0
  1 22  1  0
  1 23  1  0
  1 24  1  0
  2  8  2  0
  2  3  1  0
  3  4  2  0
  3 25  1  0
  4  5  1  0
  4  6  1  0
  5 26  1  0
  5 27  1  0
  5 28  1  0
  6 21  1  0
  6  7  2  0
  7  8  1  0
  7  9  1  0
  9 10  1  0
 10 21  2  0
 10 11  1  0
 11 12  1  0
 11 18  2  0
 12 17  1  0
 12 13  1  0
 13 14  1  0
 13 29  1  0
 13 30  1  0
 14 15  1  0
 14 31  1  0
 14 32  1  0
 15 16  1  0
 16 17  1  0
 16 33  1  0
 16 34  1  0
 17 35  1  0
 17 36  1  0
 18 19  1  0
 19 20  2  0
 19 37  1  0
 20 21  1  0
M  END
>  <i_m_ct_stereo_status>  (344) 
1

>  <s_m_source_file>  (344) 
/var/tmp/pbs.5076255.sched01/tmpg3p38p3m/129jed2w9rh.sdf

>  <i_m_source_file_index>  (344) 
41

>  <i_lp_mmshare_version>  (344) 
48012

>  <i_f3d_flags>  (344) 
0

>  <s_epik_input>  (344) 
W0NIM11jMVtjSF1jKFtDSDNdKW5jKGMxMilzYzNjMm5bY0hdbmMzTjRbQ0gyXVtDSDJdT1tDSDJdW0NIMl00

>  <s_epik_cmdline>  (344) 
J2VwaWtfcHl0aG9uJywgJy1waHQnLCAnMi4wJywgJy1waCcsICc3LjAnLCAnLXRuJywgJzgnLCAnLW1hJywgJzIwMCcsICctaW1hZScsICc8aW5maWxlLm1hZT4nLCAnLW9tYWUnLCAnPG91dGZpbGUubWFlPic=

>  <r_lp_tautomer_probability>  (344) 
1

>  <r_epik_Ionization_Penalty>  (344) 
0.000272732

>  <r_epik_Ionization_Penalty_Charging>  (344) 
0

>  <r_epik_Ionization_Penalty_Neutral>  (344) 
0.000272732

>  <r_epik_State_Penalty>  (344) 
-0

>  <r_epik_Charging_Adjusted_Penalty>  (344) 
0

>  <i_epik_Tot_Q>  (344) 
0

>  <i_epik_Tot_abs_Q>  (344) 
0

>  <s_lp_Force_Field>  (344) 
OPLS3e

>  <r_lp_Energy>  (344) 
43.4235

>  <b_lp_Chiralities_Consistent>  (344) 
1

>  <s_lp_Variant>  (344) 
117:0-1

>  <s_i_glide_gridfile>  (344) 
pfpi4k_grid

>  <i_i_glide_lignum>  (344) 
41

>  <i_i_glide_rotatable_bonds>  (344) 
1

>  <r_i_docking_score>  (344) 
-4.23087

>  <r_i_glide_ligand_efficiency>  (344) 
-0.20147

>  <r_i_glide_ligand_efficiency_sa>  (344) 
-0.55584

>  <r_i_glide_ligand_efficiency_ln>  (344) 
-1.04607

>  <r_i_glide_gscore>  (344) 
-4.23087

>  <r_i_glide_lipo>  (344) 
-0.703379

>  <r_i_glide_hbond>  (344) 
-0.16

>  <r_i_glide_metal>  (344) 
-0

>  <r_i_glide_rewards>  (344) 
-1.58761

>  <r_i_glide_evdw>  (344) 
-26.1992

>  <r_i_glide_ecoul>  (344) 
-4.49087

>  <r_i_glide_erotb>  (344) 
0.203715

>  <r_i_glide_esite>  (344) 
0

>  <r_i_glide_emodel>  (344) 
-39.4467

>  <r_i_glide_energy>  (344) 
-30.6901

>  <r_i_glide_einternal>  (344) 
0.184557

>  <r_i_glide_intrahb_reward>  (344) 
-0

>  <i_i_glide_confnum>  (344) 
5

>  <i_i_glide_posenum>  (344) 
26

>  <r_i_glide_eff_state_penalty>  (344) 
0

>  <ligand_id>  (344) 
117

>  <original_smiles>  (344) 
Cc1cc(C)c2c(n1)sc1c(N3CCOCC3)ncnc12

>  <smiles>  (344) 
[H]c1nc(N2C([H])([H])C([H])([H])OC([H])([H])C2([H])[H])c2sc3nc(C([H])([H])[H])c([H])c(C([H])([H])[H])c3c2n1

$$$$
117:0:1
     RDKit          3D

 37 40  0  0  1  0  0  0  0  0999 V2000
    0.4964   -7.4102    2.8702 C   0  0  0  0  0  0  0  0  0  0  0  0
    1.4816   -6.2749    2.7075 C   0  0  0  0  0  0  0  0  0  0  0  0
    2.1101   -5.7246    3.8416 C   0  0  0  0  0  0  0  0  0  0  0  0
    3.0397   -4.6785    3.6687 C   0  0  0  0  0  0  0  0  0  0  0  0
    3.6881   -4.1043    4.9127 C   0  0  0  0  0  0  0  0  0  0  0  0
    3.3315   -4.1982    2.3615 C   0  0  0  0  0  0  0  0  0  0  0  0
    2.6124   -4.8434    1.3075 C   0  0  0  0  0  0  0  0  0  0  0  0
    1.6894   -5.8503    1.4490 N   0  0  0  0  0  0  0  0  0  0  0  0
    3.0000   -4.1910   -0.2847 S   0  0  0  0  0  0  0  0  0  0  0  0
    4.1509   -3.0549    0.4023 C   0  0  0  0  0  0  0  0  0  0  0  0
    4.9465   -2.0834   -0.2375 C   0  0  0  0  0  0  0  0  0  0  0  0
    4.9823   -1.9069   -1.6304 N   0  0  0  0  0  0  0  0  0  0  0  0
    5.2707   -2.9952   -2.5493 C   0  0  0  0  0  0  0  0  0  0  0  0
    4.1160   -3.1446   -3.5613 C   0  0  0  0  0  0  0  0  0  0  0  0
    3.8525   -1.8848   -4.1799 O   0  0  0  0  0  0  0  0  0  0  0  0
    3.4295   -0.9018   -3.2321 C   0  0  0  0  0  0  0  0  0  0  0  0
    4.5578   -0.6489   -2.2143 C   0  0  0  0  0  0  0  0  0  0  0  0
    5.7277   -1.2644    0.4882 N   0  0  0  0  0  0  0  0  0  0  0  0
    5.7191   -1.4430    1.8062 C   0  0  0  0  0  0  0  0  0  0  0  0
    5.0313   -2.3331    2.5238 N   0  0  0  0  0  0  0  0  0  0  0  0
    4.2261   -3.1468    1.8302 C   0  0  0  0  0  0  0  0  0  0  0  0
    0.3911   -7.6622    3.9245 H   0  0  0  0  0  0  0  0  0  0  0  0
    0.8445   -8.2971    2.3367 H   0  0  0  0  0  0  0  0  0  0  0  0
   -0.4809   -7.1185    2.4843 H   0  0  0  0  0  0  0  0  0  0  0  0
    1.8905   -6.1022    4.8265 H   0  0  0  0  0  0  0  0  0  0  0  0
    4.3886   -3.3003    4.7101 H   0  0  0  0  0  0  0  0  0  0  0  0
    4.2333   -4.8910    5.4292 H   0  0  0  0  0  0  0  0  0  0  0  0
    2.9200   -3.7092    5.5753 H   0  0  0  0  0  0  0  0  0  0  0  0
    6.1917   -2.7498   -3.0846 H   0  0  0  0  0  0  0  0  0  0  0  0
    5.4535   -3.9207   -2.0012 H   0  0  0  0  0  0  0  0  0  0  0  0
    4.3889   -3.8725   -4.3233 H   0  0  0  0  0  0  0  0  0  0  0  0
    3.2081   -3.5147   -3.0852 H   0  0  0  0  0  0  0  0  0  0  0  0
    3.1818    0.0180   -3.7621 H   0  0  0  0  0  0  0  0  0  0  0  0
    2.5205   -1.2302   -2.7263 H   0  0  0  0  0  0  0  0  0  0  0  0
    4.2316    0.0395   -1.4362 H   0  0  0  0  0  0  0  0  0  0  0  0
    5.4094   -0.1955   -2.7161 H   0  0  0  0  0  0  0  0  0  0  0  0
    6.3670   -0.8127    2.3880 H   0  0  0  0  0  0  0  0  0  0  0  0
  1  2  1  0
  1 22  1  0
  1 23  1  0
  1 24  1  0
  2  8  2  0
  2  3  1  0
  3  4  2  0
  3 25  1  0
  4  5  1  0
  4  6  1  0
  5 26  1  0
  5 27  1  0
  5 28  1  0
  6 21  1  0
  6  7  2  0
  7  8  1  0
  7  9  1  0
  9 10  1  0
 10 21  2  0
 10 11  1  0
 11 12  1  0
 11 18  2  0
 12 17  1  0
 12 13  1  0
 13 14  1  0
 13 29  1  0
 13 30  1  0
 14 15  1  0
 14 31  1  0
 14 32  1  0
 15 16  1  0
 16 17  1  0
 16 33  1  0
 16 34  1  0
 17 35  1  0
 17 36  1  0
 18 19  1  0
 19 20  2  0
 19 37  1  0
 20 21  1  0
M  END
>  <i_m_ct_stereo_status>  (345) 
1

>  <s_m_source_file>  (345) 
/var/tmp/pbs.5076255.sched01/tmpg3p38p3m/129jed2w9rh.sdf

>  <i_m_source_file_index>  (345) 
41

>  <i_lp_mmshare_version>  (345) 
48012

>  <i_f3d_flags>  (345) 
0

>  <s_epik_input>  (345) 
W0NIM11jMVtjSF1jKFtDSDNdKW5jKGMxMilzYzNjMm5bY0hdbmMzTjRbQ0gyXVtDSDJdT1tDSDJdW0NIMl00

>  <s_epik_cmdline>  (345) 
J2VwaWtfcHl0aG9uJywgJy1waHQnLCAnMi4wJywgJy1waCcsICc3LjAnLCAnLXRuJywgJzgnLCAnLW1hJywgJzIwMCcsICctaW1hZScsICc8aW5maWxlLm1hZT4nLCAnLW9tYWUnLCAnPG91dGZpbGUubWFlPic=

>  <r_lp_tautomer_probability>  (345) 
1

>  <r_epik_Ionization_Penalty>  (345) 
0.000272732

>  <r_epik_Ionization_Penalty_Charging>  (345) 
0

>  <r_epik_Ionization_Penalty_Neutral>  (345) 
0.000272732

>  <r_epik_State_Penalty>  (345) 
-0

>  <r_epik_Charging_Adjusted_Penalty>  (345) 
0

>  <i_epik_Tot_Q>  (345) 
0

>  <i_epik_Tot_abs_Q>  (345) 
0

>  <s_lp_Force_Field>  (345) 
OPLS3e

>  <r_lp_Energy>  (345) 
43.4235

>  <b_lp_Chiralities_Consistent>  (345) 
1

>  <s_lp_Variant>  (345) 
117:0-1

>  <s_i_glide_gridfile>  (345) 
pfpi4k_grid

>  <i_i_glide_lignum>  (345) 
41

>  <i_i_glide_rotatable_bonds>  (345) 
1

>  <r_i_docking_score>  (345) 
-4.17198

>  <r_i_glide_ligand_efficiency>  (345) 
-0.198665

>  <r_i_glide_ligand_efficiency_sa>  (345) 
-0.548103

>  <r_i_glide_ligand_efficiency_ln>  (345) 
-1.03151

>  <r_i_glide_gscore>  (345) 
-4.17198

>  <r_i_glide_lipo>  (345) 
-0.501363

>  <r_i_glide_hbond>  (345) 
-0.355123

>  <r_i_glide_metal>  (345) 
-0

>  <r_i_glide_rewards>  (345) 
-1.55957

>  <r_i_glide_evdw>  (345) 
-24.9254

>  <r_i_glide_ecoul>  (345) 
-4.5314

>  <r_i_glide_erotb>  (345) 
0.203715

>  <r_i_glide_esite>  (345) 
-0.0336585

>  <r_i_glide_emodel>  (345) 
-37.3018

>  <r_i_glide_energy>  (345) 
-29.4568

>  <r_i_glide_einternal>  (345) 
1.73489

>  <r_i_glide_intrahb_reward>  (345) 
-0

>  <i_i_glide_confnum>  (345) 
4

>  <i_i_glide_posenum>  (345) 
32

>  <r_i_glide_eff_state_penalty>  (345) 
0

>  <ligand_id>  (345) 
117

>  <original_smiles>  (345) 
Cc1cc(C)c2c(n1)sc1c(N3CCOCC3)ncnc12

>  <smiles>  (345) 
[H]c1nc(N2C([H])([H])C([H])([H])OC([H])([H])C2([H])[H])c2sc3nc(C([H])([H])[H])c([H])c(C([H])([H])[H])c3c2n1

$$$$
117:0:2
     RDKit          3D

 37 40  0  0  1  0  0  0  0  0999 V2000
   -0.9406   -8.0247    2.4951 C   0  0  0  0  0  0  0  0  0  0  0  0
    0.5455   -7.8556    2.3460 C   0  0  0  0  0  0  0  0  0  0  0  0
    1.4037   -8.8996    2.7434 C   0  0  0  0  0  0  0  0  0  0  0  0
    2.8001   -8.7328    2.6005 C   0  0  0  0  0  0  0  0  0  0  0  0
    3.7020   -9.8675    3.0301 C   0  0  0  0  0  0  0  0  0  0  0  0
    3.3195   -7.5248    2.0645 C   0  0  0  0  0  0  0  0  0  0  0  0
    2.3183   -6.5680    1.6918 C   0  0  0  0  0  0  0  0  0  0  0  0
    0.9532   -6.6913    1.8230 N   0  0  0  0  0  0  0  0  0  0  0  0
    2.9983   -5.1253    0.9623 S   0  0  0  0  0  0  0  0  0  0  0  0
    4.6479   -5.6953    1.2269 C   0  0  0  0  0  0  0  0  0  0  0  0
    5.8802   -5.0814    0.9173 C   0  0  0  0  0  0  0  0  0  0  0  0
    5.9943   -3.7891    0.3581 N   0  0  0  0  0  0  0  0  0  0  0  0
    5.1172   -2.6879    0.7424 C   0  0  0  0  0  0  0  0  0  0  0  0
    5.9439   -1.4844    1.2117 C   0  0  0  0  0  0  0  0  0  0  0  0
    6.9031   -1.1447    0.2120 O   0  0  0  0  0  0  0  0  0  0  0  0
    7.8278   -2.2037   -0.0318 C   0  0  0  0  0  0  0  0  0  0  0  0
    7.0785   -3.4385   -0.5536 C   0  0  0  0  0  0  0  0  0  0  0  0
    7.0221   -5.7553    1.1270 N   0  0  0  0  0  0  0  0  0  0  0  0
    6.9446   -6.9694    1.6493 C   0  0  0  0  0  0  0  0  0  0  0  0
    5.8550   -7.6426    1.9978 N   0  0  0  0  0  0  0  0  0  0  0  0
    4.6882   -7.0192    1.7873 C   0  0  0  0  0  0  0  0  0  0  0  0
   -1.1644   -9.0036    2.9147 H   0  0  0  0  0  0  0  0  0  0  0  0
   -1.4005   -7.9528    1.5120 H   0  0  0  0  0  0  0  0  0  0  0  0
   -1.3413   -7.2571    3.1571 H   0  0  0  0  0  0  0  0  0  0  0  0
    1.0132   -9.8203    3.1461 H   0  0  0  0  0  0  0  0  0  0  0  0
    4.7627   -9.6676    2.8926 H   0  0  0  0  0  0  0  0  0  0  0  0
    3.4648  -10.7591    2.4526 H   0  0  0  0  0  0  0  0  0  0  0  0
    3.5458  -10.0730    4.0872 H   0  0  0  0  0  0  0  0  0  0  0  0
    4.5011   -2.4264   -0.1231 H   0  0  0  0  0  0  0  0  0  0  0  0
    4.4664   -2.9573    1.5739 H   0  0  0  0  0  0  0  0  0  0  0  0
    5.2762   -0.6448    1.4027 H   0  0  0  0  0  0  0  0  0  0  0  0
    6.4338   -1.7208    2.1573 H   0  0  0  0  0  0  0  0  0  0  0  0
    8.5627   -1.8711   -0.7638 H   0  0  0  0  0  0  0  0  0  0  0  0
    8.3775   -2.4534    0.8760 H   0  0  0  0  0  0  0  0  0  0  0  0
    7.7824   -4.2513   -0.7111 H   0  0  0  0  0  0  0  0  0  0  0  0
    6.6274   -3.2196   -1.5225 H   0  0  0  0  0  0  0  0  0  0  0  0
    7.8596   -7.4884    1.8170 H   0  0  0  0  0  0  0  0  0  0  0  0
  1  2  1  0
  1 22  1  0
  1 23  1  0
  1 24  1  0
  2  8  2  0
  2  3  1  0
  3  4  2  0
  3 25  1  0
  4  5  1  0
  4  6  1  0
  5 26  1  0
  5 27  1  0
  5 28  1  0
  6 21  1  0
  6  7  2  0
  7  8  1  0
  7  9  1  0
  9 10  1  0
 10 21  2  0
 10 11  1  0
 11 12  1  0
 11 18  2  0
 12 17  1  0
 12 13  1  0
 13 14  1  0
 13 29  1  0
 13 30  1  0
 14 15  1  0
 14 31  1  0
 14 32  1  0
 15 16  1  0
 16 17  1  0
 16 33  1  0
 16 34  1  0
 17 35  1  0
 17 36  1  0
 18 19  1  0
 19 20  2  0
 19 37  1  0
 20 21  1  0
M  END
>  <i_m_ct_stereo_status>  (346) 
1

>  <s_m_source_file>  (346) 
/var/tmp/pbs.5076255.sched01/tmpg3p38p3m/129jed2w9rh.sdf

>  <i_m_source_file_index>  (346) 
41

>  <i_lp_mmshare_version>  (346) 
48012

>  <i_f3d_flags>  (346) 
0

>  <s_epik_input>  (346) 
W0NIM11jMVtjSF1jKFtDSDNdKW5jKGMxMilzYzNjMm5bY0hdbmMzTjRbQ0gyXVtDSDJdT1tDSDJdW0NIMl00

>  <s_epik_cmdline>  (346) 
J2VwaWtfcHl0aG9uJywgJy1waHQnLCAnMi4wJywgJy1waCcsICc3LjAnLCAnLXRuJywgJzgnLCAnLW1hJywgJzIwMCcsICctaW1hZScsICc8aW5maWxlLm1hZT4nLCAnLW9tYWUnLCAnPG91dGZpbGUubWFlPic=

>  <r_lp_tautomer_probability>  (346) 
1

>  <r_epik_Ionization_Penalty>  (346) 
0.000272732

>  <r_epik_Ionization_Penalty_Charging>  (346) 
0

>  <r_epik_Ionization_Penalty_Neutral>  (346) 
0.000272732

>  <r_epik_State_Penalty>  (346) 
-0

>  <r_epik_Charging_Adjusted_Penalty>  (346) 
0

>  <i_epik_Tot_Q>  (346) 
0

>  <i_epik_Tot_abs_Q>  (346) 
0

>  <s_lp_Force_Field>  (346) 
OPLS3e

>  <r_lp_Energy>  (346) 
43.4235

>  <b_lp_Chiralities_Consistent>  (346) 
1

>  <s_lp_Variant>  (346) 
117:0-1

>  <s_i_glide_gridfile>  (346) 
pfpi4k_grid

>  <i_i_glide_lignum>  (346) 
41

>  <i_i_glide_rotatable_bonds>  (346) 
1

>  <r_i_docking_score>  (346) 
-3.57168

>  <r_i_glide_ligand_efficiency>  (346) 
-0.17008

>  <r_i_glide_ligand_efficiency_sa>  (346) 
-0.469238

>  <r_i_glide_ligand_efficiency_ln>  (346) 
-0.883092

>  <r_i_glide_gscore>  (346) 
-3.57168

>  <r_i_glide_lipo>  (346) 
-0.572871

>  <r_i_glide_hbond>  (346) 
-0.0556204

>  <r_i_glide_metal>  (346) 
-0

>  <r_i_glide_rewards>  (346) 
-1.57026

>  <r_i_glide_evdw>  (346) 
-24.4993

>  <r_i_glide_ecoul>  (346) 
-2.34458

>  <r_i_glide_erotb>  (346) 
0.203715

>  <r_i_glide_esite>  (346) 
0

>  <r_i_glide_emodel>  (346) 
-34.1995

>  <r_i_glide_energy>  (346) 
-26.8438

>  <r_i_glide_einternal>  (346) 
0.201465

>  <r_i_glide_intrahb_reward>  (346) 
-0

>  <i_i_glide_confnum>  (346) 
1

>  <i_i_glide_posenum>  (346) 
33

>  <r_i_glide_eff_state_penalty>  (346) 
0

>  <ligand_id>  (346) 
117

>  <original_smiles>  (346) 
Cc1cc(C)c2c(n1)sc1c(N3CCOCC3)ncnc12

>  <smiles>  (346) 
[H]c1nc(N2C([H])([H])C([H])([H])OC([H])([H])C2([H])[H])c2sc3nc(C([H])([H])[H])c([H])c(C([H])([H])[H])c3c2n1

$$$$
