1:0:0
     RDKit          3D

 30 31  0  0  1  0  0  0  0  0999 V2000
    2.4982   -2.5330   -3.7128 C   0  0  0  0  0  0  0  0  0  0  0  0
    2.9002   -2.9723   -2.3258 C   0  0  0  0  0  0  0  0  0  0  0  0
    2.1208   -3.7599   -1.5568 C   0  0  0  0  0  0  0  0  0  0  0  0
    2.5746   -4.2655   -0.2660 C   0  0  0  0  0  0  0  0  0  0  0  0
    1.9140   -5.0936    0.3557 O   0  0  0  0  0  0  0  0  0  0  0  0
    3.8634   -3.7580    0.2430 C   0  0  0  0  0  0  0  0  0  0  0  0
    4.6575   -2.9437   -0.4947 C   0  0  0  0  0  0  0  0  0  0  0  0
    4.2300   -2.5152   -1.8615 C   0  0  0  0  0  0  0  0  0  0  0  0
    4.9467   -1.8452   -2.6008 O   0  0  0  0  0  0  0  0  0  0  0  0
    5.9850   -2.4072    0.0714 C   0  0  1  0  0  0  0  0  0  0  0  0
    7.1777   -3.1003   -0.6125 C   0  0  0  0  0  0  0  0  0  0  0  0
    6.1726   -1.0247   -0.1876 O   0  0  0  0  0  0  0  0  0  0  0  0
    5.9802   -2.5983    1.6090 C   0  0  1  0  0  0  0  0  0  0  0  0
    5.1358   -1.5408    2.3560 C   0  0  0  0  0  0  0  0  0  0  0  0
    5.5139   -4.0137    1.9637 C   0  0  0  0  0  0  0  0  0  0  0  0
    4.1793   -4.2089    1.5072 O   0  0  0  0  0  0  0  0  0  0  0  0
    2.4628   -1.4456   -3.7528 H   0  0  0  0  0  0  0  0  0  0  0  0
    1.5108   -2.9159   -3.9688 H   0  0  0  0  0  0  0  0  0  0  0  0
    3.2063   -2.8820   -4.4644 H   0  0  0  0  0  0  0  0  0  0  0  0
    1.1770   -4.1265   -1.9193 H   0  0  0  0  0  0  0  0  0  0  0  0
    7.0835   -4.1790   -0.5411 H   0  0  0  0  0  0  0  0  0  0  0  0
    8.1271   -2.8117   -0.1631 H   0  0  0  0  0  0  0  0  0  0  0  0
    7.2336   -2.8565   -1.6736 H   0  0  0  0  0  0  0  0  0  0  0  0
    5.4253   -0.5541    0.1551 H   0  0  0  0  0  0  0  0  0  0  0  0
    7.0054   -2.4928    1.9463 H   0  0  0  0  0  0  0  0  0  0  0  0
    4.1187   -1.4977    1.9698 H   0  0  0  0  0  0  0  0  0  0  0  0
    5.5545   -0.5392    2.2724 H   0  0  0  0  0  0  0  0  0  0  0  0
    5.0672   -1.7670    3.4154 H   0  0  0  0  0  0  0  0  0  0  0  0
    6.1477   -4.7780    1.5163 H   0  0  0  0  0  0  0  0  0  0  0  0
    5.5436   -4.1742    3.0421 H   0  0  0  0  0  0  0  0  0  0  0  0
  1  2  1  0
  1 17  1  0
  1 18  1  0
  1 19  1  0
  2  8  1  0
  2  3  2  0
  3  4  1  0
  3 20  1  0
  4  5  2  0
  4  6  1  0
  6 16  1  0
  6  7  2  0
  7  8  1  0
  7 10  1  0
  8  9  2  0
 10 11  1  0
 10 12  1  1
 10 13  1  0
 11 21  1  0
 11 22  1  0
 11 23  1  0
 12 24  1  0
 13 14  1  0
 13 15  1  0
 13 25  1  1
 14 26  1  0
 14 27  1  0
 14 28  1  0
 15 16  1  0
 15 29  1  0
 15 30  1  0
M  END
>  <i_m_ct_stereo_status>  (1) 
1

>  <s_m_source_file>  (1) 
/var/tmp/pbs.5076255.sched01/tmpuhafuy1n/0xc5aj8_e.sdf

>  <i_m_source_file_index>  (1) 
2

>  <i_lp_mmshare_version>  (1) 
48012

>  <i_f3d_flags>  (1) 
0

>  <s_epik_input>  (1) 
Tz1DMVtDSF09QyhbQ0gzXSlDKD1PKUMoPUMxMilbQ0BAXShbQ0gzXSkoW09IXSlbQ0BASF0oW0NIM10pW0NIMl1PMg==

>  <s_epik_cmdline>  (1) 
J2VwaWtfcHl0aG9uJywgJy1waHQnLCAnMi4wJywgJy1waCcsICc3LjAnLCAnLXRuJywgJzgnLCAnLW1hJywgJzIwMCcsICctaW1hZScsICc8aW5maWxlLm1hZT4nLCAnLW9tYWUnLCAnPG91dGZpbGUubWFlPic=

>  <r_lp_tautomer_probability>  (1) 
1

>  <r_epik_Ionization_Penalty>  (1) 
0.0179503

>  <r_epik_Ionization_Penalty_Charging>  (1) 
0

>  <r_epik_Ionization_Penalty_Neutral>  (1) 
0.0179503

>  <r_epik_State_Penalty>  (1) 
0.0142563

>  <r_epik_Charging_Adjusted_Penalty>  (1) 
0.0142563

>  <i_epik_Tot_Q>  (1) 
0

>  <i_epik_Tot_abs_Q>  (1) 
0

>  <s_lp_Force_Field>  (1) 
OPLS3e

>  <r_lp_Energy>  (1) 
18.8132

>  <b_lp_Chiralities_Consistent>  (1) 
1

>  <s_lp_Variant>  (1) 
1:0-1

>  <s_i_glide_gridfile>  (1) 
pfpi4k_grid

>  <i_i_glide_lignum>  (1) 
2

>  <i_i_glide_rotatable_bonds>  (1) 
1

>  <r_i_docking_score>  (1) 
-4.32586

>  <r_i_glide_ligand_efficiency>  (1) 
-0.270366

>  <r_i_glide_ligand_efficiency_sa>  (1) 
-0.68128

>  <r_i_glide_ligand_efficiency_ln>  (1) 
-1.14666

>  <r_i_glide_gscore>  (1) 
-4.32586

>  <r_i_glide_lipo>  (1) 
-0.600614

>  <r_i_glide_hbond>  (1) 
-0.0703988

>  <r_i_glide_metal>  (1) 
-0

>  <r_i_glide_rewards>  (1) 
-1.89384

>  <r_i_glide_evdw>  (1) 
-16.8128

>  <r_i_glide_ecoul>  (1) 
-5.7179

>  <r_i_glide_erotb>  (1) 
0

>  <r_i_glide_esite>  (1) 
-0.0626844

>  <r_i_glide_emodel>  (1) 
-29.7597

>  <r_i_glide_energy>  (1) 
-22.5307

>  <r_i_glide_einternal>  (1) 
0.020741

>  <r_i_glide_intrahb_reward>  (1) 
-0

>  <i_i_glide_confnum>  (1) 
2

>  <i_i_glide_posenum>  (1) 
30

>  <r_i_glide_eff_state_penalty>  (1) 
0

>  <ligand_id>  (1) 
1

>  <original_smiles>  (1) 
CC1=CC(=O)C2=C(C1=O)C(C)(O)C(C)CO2

>  <smiles>  (1) 
[H]OC1(C([H])([H])[H])C2=C(OC([H])([H])C1([H])C([H])([H])[H])C(=O)C([H])=C(C([H])([H])[H])C2=O

$$$$
1:0:1
     RDKit          3D

 30 31  0  0  1  0  0  0  0  0999 V2000
    3.6753   -0.8666   -4.1770 C   0  0  0  0  0  0  0  0  0  0  0  0
    3.4479   -1.7451   -2.9594 C   0  0  0  0  0  0  0  0  0  0  0  0
    2.4579   -2.6573   -2.8737 C   0  0  0  0  0  0  0  0  0  0  0  0
    2.2316   -3.4402   -1.6433 C   0  0  0  0  0  0  0  0  0  0  0  0
    1.2850   -4.2138   -1.5329 O   0  0  0  0  0  0  0  0  0  0  0  0
    3.1539   -3.2084   -0.5067 C   0  0  0  0  0  0  0  0  0  0  0  0
    4.1759   -2.3197   -0.5744 C   0  0  0  0  0  0  0  0  0  0  0  0
    4.3926   -1.5419   -1.8279 C   0  0  0  0  0  0  0  0  0  0  0  0
    5.3492   -0.7777   -1.9425 O   0  0  0  0  0  0  0  0  0  0  0  0
    5.1071   -2.0704    0.6349 C   0  0  1  0  0  0  0  0  0  0  0  0
    6.4885   -2.7065    0.3675 C   0  0  0  0  0  0  0  0  0  0  0  0
    5.3725   -0.6928    0.8651 O   0  0  0  0  0  0  0  0  0  0  0  0
    4.4388   -2.6308    1.9207 C   0  0  1  0  0  0  0  0  0  0  0  0
    3.3218   -1.7015    2.4638 C   0  0  0  0  0  0  0  0  0  0  0  0
    3.8668   -4.0291    1.6300 C   0  0  0  0  0  0  0  0  0  0  0  0
    2.8762   -3.9676    0.6187 O   0  0  0  0  0  0  0  0  0  0  0  0
    3.6405    0.1937   -3.9139 H   0  0  0  0  0  0  0  0  0  0  0  0
    2.9052   -1.0493   -4.9215 H   0  0  0  0  0  0  0  0  0  0  0  0
    4.6452   -1.0824   -4.6235 H   0  0  0  0  0  0  0  0  0  0  0  0
    1.7537   -2.7823   -3.6928 H   0  0  0  0  0  0  0  0  0  0  0  0
    6.3896   -3.7530    0.0907 H   0  0  0  0  0  0  0  0  0  0  0  0
    7.1352   -2.6450    1.2415 H   0  0  0  0  0  0  0  0  0  0  0  0
    7.0115   -2.2175   -0.4551 H   0  0  0  0  0  0  0  0  0  0  0  0
    4.5459   -0.2297    0.9148 H   0  0  0  0  0  0  0  0  0  0  0  0
    5.2061   -2.7254    2.6895 H   0  0  0  0  0  0  0  0  0  0  0  0
    2.5855   -1.4549    1.6959 H   0  0  0  0  0  0  0  0  0  0  0  0
    3.7191   -0.7571    2.8388 H   0  0  0  0  0  0  0  0  0  0  0  0
    2.7858   -2.1697    3.2851 H   0  0  0  0  0  0  0  0  0  0  0  0
    4.6419   -4.7280    1.3074 H   0  0  0  0  0  0  0  0  0  0  0  0
    3.4145   -4.4537    2.5286 H   0  0  0  0  0  0  0  0  0  0  0  0
  1  2  1  0
  1 17  1  0
  1 18  1  0
  1 19  1  0
  2  8  1  0
  2  3  2  0
  3  4  1  0
  3 20  1  0
  4  5  2  0
  4  6  1  0
  6 16  1  0
  6  7  2  0
  7  8  1  0
  7 10  1  0
  8  9  2  0
 10 11  1  0
 10 12  1  1
 10 13  1  0
 11 21  1  0
 11 22  1  0
 11 23  1  0
 12 24  1  0
 13 14  1  0
 13 15  1  0
 13 25  1  1
 14 26  1  0
 14 27  1  0
 14 28  1  0
 15 16  1  0
 15 29  1  0
 15 30  1  0
M  END
>  <i_m_ct_stereo_status>  (2) 
1

>  <s_m_source_file>  (2) 
/var/tmp/pbs.5076255.sched01/tmpuhafuy1n/0xc5aj8_e.sdf

>  <i_m_source_file_index>  (2) 
2

>  <i_lp_mmshare_version>  (2) 
48012

>  <i_f3d_flags>  (2) 
0

>  <s_epik_input>  (2) 
Tz1DMVtDSF09QyhbQ0gzXSlDKD1PKUMoPUMxMilbQ0BAXShbQ0gzXSkoW09IXSlbQ0BASF0oW0NIM10pW0NIMl1PMg==

>  <s_epik_cmdline>  (2) 
J2VwaWtfcHl0aG9uJywgJy1waHQnLCAnMi4wJywgJy1waCcsICc3LjAnLCAnLXRuJywgJzgnLCAnLW1hJywgJzIwMCcsICctaW1hZScsICc8aW5maWxlLm1hZT4nLCAnLW9tYWUnLCAnPG91dGZpbGUubWFlPic=

>  <r_lp_tautomer_probability>  (2) 
1

>  <r_epik_Ionization_Penalty>  (2) 
0.0179503

>  <r_epik_Ionization_Penalty_Charging>  (2) 
0

>  <r_epik_Ionization_Penalty_Neutral>  (2) 
0.0179503

>  <r_epik_State_Penalty>  (2) 
0.0142563

>  <r_epik_Charging_Adjusted_Penalty>  (2) 
0.0142563

>  <i_epik_Tot_Q>  (2) 
0

>  <i_epik_Tot_abs_Q>  (2) 
0

>  <s_lp_Force_Field>  (2) 
OPLS3e

>  <r_lp_Energy>  (2) 
18.8132

>  <b_lp_Chiralities_Consistent>  (2) 
1

>  <s_lp_Variant>  (2) 
1:0-1

>  <s_i_glide_gridfile>  (2) 
pfpi4k_grid

>  <i_i_glide_lignum>  (2) 
2

>  <i_i_glide_rotatable_bonds>  (2) 
1

>  <r_i_docking_score>  (2) 
-3.7701

>  <r_i_glide_ligand_efficiency>  (2) 
-0.235631

>  <r_i_glide_ligand_efficiency_sa>  (2) 
-0.593754

>  <r_i_glide_ligand_efficiency_ln>  (2) 
-0.99934

>  <r_i_glide_gscore>  (2) 
-3.7701

>  <r_i_glide_lipo>  (2) 
-0.312347

>  <r_i_glide_hbond>  (2) 
-0.00406391

>  <r_i_glide_metal>  (2) 
-0

>  <r_i_glide_rewards>  (2) 
-2.09094

>  <r_i_glide_evdw>  (2) 
-21.3944

>  <r_i_glide_ecoul>  (2) 
-1.68558

>  <r_i_glide_erotb>  (2) 
0

>  <r_i_glide_esite>  (2) 
-0.040188

>  <r_i_glide_emodel>  (2) 
-29.3438

>  <r_i_glide_energy>  (2) 
-23.08

>  <r_i_glide_einternal>  (2) 
0.0411913

>  <r_i_glide_intrahb_reward>  (2) 
-0

>  <i_i_glide_confnum>  (2) 
2

>  <i_i_glide_posenum>  (2) 
20

>  <r_i_glide_eff_state_penalty>  (2) 
0

>  <ligand_id>  (2) 
1

>  <original_smiles>  (2) 
CC1=CC(=O)C2=C(C1=O)C(C)(O)C(C)CO2

>  <smiles>  (2) 
[H]OC1(C([H])([H])[H])C2=C(OC([H])([H])C1([H])C([H])([H])[H])C(=O)C([H])=C(C([H])([H])[H])C2=O

$$$$
1:0:2
     RDKit          3D

 30 31  0  0  1  0  0  0  0  0999 V2000
    3.5226   -0.9179   -4.0389 C   0  0  0  0  0  0  0  0  0  0  0  0
    3.4093   -1.7628   -2.7787 C   0  0  0  0  0  0  0  0  0  0  0  0
    2.4500   -2.6822   -2.6057 C   0  0  0  0  0  0  0  0  0  0  0  0
    2.3299   -3.4468   -1.3536 C   0  0  0  0  0  0  0  0  0  0  0  0
    1.4204   -4.2616   -1.1700 O   0  0  0  0  0  0  0  0  0  0  0  0
    3.3213   -3.1611   -0.2853 C   0  0  0  0  0  0  0  0  0  0  0  0
    4.3144   -2.2479   -0.4392 C   0  0  0  0  0  0  0  0  0  0  0  0
    4.4289   -1.5008   -1.7281 C   0  0  0  0  0  0  0  0  0  0  0  0
    5.3542   -0.7259   -1.9386 O   0  0  0  0  0  0  0  0  0  0  0  0
    5.3309   -1.9374    0.6869 C   0  0  1  0  0  0  0  0  0  0  0  0
    6.6976   -2.5584    0.3310 C   0  0  0  0  0  0  0  0  0  0  0  0
    5.5802   -0.5417    0.8477 O   0  0  0  0  0  0  0  0  0  0  0  0
    4.7715   -2.4824    2.0298 C   0  0  1  0  0  0  0  0  0  0  0  0
    3.6775   -1.5631    2.6264 C   0  0  0  0  0  0  0  0  0  0  0  0
    4.2077   -3.8997    1.8186 C   0  0  0  0  0  0  0  0  0  0  0  0
    3.1414   -3.8916    0.8769 O   0  0  0  0  0  0  0  0  0  0  0  0
    3.4739    0.1482   -3.8018 H   0  0  0  0  0  0  0  0  0  0  0  0
    2.7036   -1.1548   -4.7181 H   0  0  0  0  0  0  0  0  0  0  0  0
    4.4683   -1.1240   -4.5413 H   0  0  0  0  0  0  0  0  0  0  0  0
    1.6971   -2.8537   -3.3614 H   0  0  0  0  0  0  0  0  0  0  0  0
    6.5976   -3.6139    0.0920 H   0  0  0  0  0  0  0  0  0  0  0  0
    7.4056   -2.4646    1.1498 H   0  0  0  0  0  0  0  0  0  0  0  0
    7.1450   -2.0843   -0.5417 H   0  0  0  0  0  0  0  0  0  0  0  0
    6.3772   -0.4096    1.3431 H   0  0  0  0  0  0  0  0  0  0  0  0
    5.5899   -2.5444    2.7464 H   0  0  0  0  0  0  0  0  0  0  0  0
    2.8864   -1.3566    1.9042 H   0  0  0  0  0  0  0  0  0  0  0  0
    4.0820   -0.5981    2.9341 H   0  0  0  0  0  0  0  0  0  0  0  0
    3.2128   -2.0158    3.4994 H   0  0  0  0  0  0  0  0  0  0  0  0
    4.9699   -4.5924    1.4581 H   0  0  0  0  0  0  0  0  0  0  0  0
    3.8236   -4.3070    2.7557 H   0  0  0  0  0  0  0  0  0  0  0  0
  1  2  1  0
  1 17  1  0
  1 18  1  0
  1 19  1  0
  2  8  1  0
  2  3  2  0
  3  4  1  0
  3 20  1  0
  4  5  2  0
  4  6  1  0
  6 16  1  0
  6  7  2  0
  7  8  1  0
  7 10  1  0
  8  9  2  0
 10 11  1  0
 10 12  1  1
 10 13  1  0
 11 21  1  0
 11 22  1  0
 11 23  1  0
 12 24  1  0
 13 14  1  0
 13 15  1  0
 13 25  1  1
 14 26  1  0
 14 27  1  0
 14 28  1  0
 15 16  1  0
 15 29  1  0
 15 30  1  0
M  END
>  <i_m_ct_stereo_status>  (3) 
1

>  <s_m_source_file>  (3) 
/var/tmp/pbs.5076255.sched01/tmpuhafuy1n/0xc5aj8_e.sdf

>  <i_m_source_file_index>  (3) 
2

>  <i_lp_mmshare_version>  (3) 
48012

>  <i_f3d_flags>  (3) 
0

>  <s_epik_input>  (3) 
Tz1DMVtDSF09QyhbQ0gzXSlDKD1PKUMoPUMxMilbQ0BAXShbQ0gzXSkoW09IXSlbQ0BASF0oW0NIM10pW0NIMl1PMg==

>  <s_epik_cmdline>  (3) 
J2VwaWtfcHl0aG9uJywgJy1waHQnLCAnMi4wJywgJy1waCcsICc3LjAnLCAnLXRuJywgJzgnLCAnLW1hJywgJzIwMCcsICctaW1hZScsICc8aW5maWxlLm1hZT4nLCAnLW9tYWUnLCAnPG91dGZpbGUubWFlPic=

>  <r_lp_tautomer_probability>  (3) 
1

>  <r_epik_Ionization_Penalty>  (3) 
0.0179503

>  <r_epik_Ionization_Penalty_Charging>  (3) 
0

>  <r_epik_Ionization_Penalty_Neutral>  (3) 
0.0179503

>  <r_epik_State_Penalty>  (3) 
0.0142563

>  <r_epik_Charging_Adjusted_Penalty>  (3) 
0.0142563

>  <i_epik_Tot_Q>  (3) 
0

>  <i_epik_Tot_abs_Q>  (3) 
0

>  <s_lp_Force_Field>  (3) 
OPLS3e

>  <r_lp_Energy>  (3) 
18.8132

>  <b_lp_Chiralities_Consistent>  (3) 
1

>  <s_lp_Variant>  (3) 
1:0-1

>  <s_i_glide_gridfile>  (3) 
pfpi4k_grid

>  <i_i_glide_lignum>  (3) 
2

>  <i_i_glide_rotatable_bonds>  (3) 
1

>  <r_i_docking_score>  (3) 
-3.76924

>  <r_i_glide_ligand_efficiency>  (3) 
-0.235578

>  <r_i_glide_ligand_efficiency_sa>  (3) 
-0.593619

>  <r_i_glide_ligand_efficiency_ln>  (3) 
-0.999113

>  <r_i_glide_gscore>  (3) 
-3.76924

>  <r_i_glide_lipo>  (3) 
-0.356955

>  <r_i_glide_hbond>  (3) 
-0.00522813

>  <r_i_glide_metal>  (3) 
-0

>  <r_i_glide_rewards>  (3) 
-1.96748

>  <r_i_glide_evdw>  (3) 
-20.8729

>  <r_i_glide_ecoul>  (3) 
-2.35198

>  <r_i_glide_erotb>  (3) 
0

>  <r_i_glide_esite>  (3) 
-0.0431401

>  <r_i_glide_emodel>  (3) 
-29.3946

>  <r_i_glide_energy>  (3) 
-23.2249

>  <r_i_glide_einternal>  (3) 
0.247037

>  <r_i_glide_intrahb_reward>  (3) 
-0

>  <i_i_glide_confnum>  (3) 
2

>  <i_i_glide_posenum>  (3) 
25

>  <r_i_glide_eff_state_penalty>  (3) 
0

>  <ligand_id>  (3) 
1

>  <original_smiles>  (3) 
CC1=CC(=O)C2=C(C1=O)C(C)(O)C(C)CO2

>  <smiles>  (3) 
[H]OC1(C([H])([H])[H])C2=C(OC([H])([H])C1([H])C([H])([H])[H])C(=O)C([H])=C(C([H])([H])[H])C2=O

$$$$
1:1:0
     RDKit          3D

 29 30  0  0  1  0  0  0  0  0999 V2000
    5.9233   -4.9813    2.3798 C   0  0  0  0  0  0  0  0  0  0  0  0
    4.9016   -4.7077    1.3020 C   0  0  0  0  0  0  0  0  0  0  0  0
    3.6694   -5.2261    1.3285 C   0  0  0  0  0  0  0  0  0  0  0  0
    2.6824   -4.9182    0.2824 C   0  0  0  0  0  0  0  0  0  0  0  0
    1.6236   -5.5341    0.2473 O   0  0  0  0  0  0  0  0  0  0  0  0
    3.0370   -3.8643   -0.7164 C   0  0  0  0  0  0  0  0  0  0  0  0
    4.2957   -3.3521   -0.7969 C   0  0  0  0  0  0  0  0  0  0  0  0
    5.3423   -3.8040    0.2105 C   0  0  0  0  0  0  0  0  0  0  0  0
    6.5363   -3.4946    0.1735 O   0  0  0  0  0  0  0  0  0  0  0  0
    4.6640   -2.2545   -1.8419 C   0  0  1  0  0  0  0  0  0  0  0  0
    5.3806   -1.0605   -1.1944 C   0  0  0  0  0  0  0  0  0  0  0  0
    5.4677   -2.7549   -2.7379 O   0  0  0  0  0  0  0  0  0  0  0  0
    3.3649   -1.7704   -2.5680 C   0  0  1  0  0  0  0  0  0  0  0  0
    3.5763   -0.9309   -3.8462 C   0  0  0  0  0  0  0  0  0  0  0  0
    2.3910   -2.9351   -2.8361 C   0  0  0  0  0  0  0  0  0  0  0  0
    2.0099   -3.5582   -1.6032 O   0  0  0  0  0  0  0  0  0  0  0  0
    6.2143   -4.0324    2.8349 H   0  0  0  0  0  0  0  0  0  0  0  0
    6.8022   -5.4591    1.9435 H   0  0  0  0  0  0  0  0  0  0  0  0
    5.4927   -5.6233    3.1452 H   0  0  0  0  0  0  0  0  0  0  0  0
    3.3569   -5.8942    2.1230 H   0  0  0  0  0  0  0  0  0  0  0  0
    4.7989   -0.6562   -0.3612 H   0  0  0  0  0  0  0  0  0  0  0  0
    5.4961   -0.2415   -1.9117 H   0  0  0  0  0  0  0  0  0  0  0  0
    6.3841   -1.2611   -0.8391 H   0  0  0  0  0  0  0  0  0  0  0  0
    2.8577   -1.1367   -1.8463 H   0  0  0  0  0  0  0  0  0  0  0  0
    4.0957   -1.5095   -4.6138 H   0  0  0  0  0  0  0  0  0  0  0  0
    4.1553   -0.0276   -3.6580 H   0  0  0  0  0  0  0  0  0  0  0  0
    2.6174   -0.6276   -4.2719 H   0  0  0  0  0  0  0  0  0  0  0  0
    1.4577   -2.5716   -3.2764 H   0  0  0  0  0  0  0  0  0  0  0  0
    2.7992   -3.6644   -3.5499 H   0  0  0  0  0  0  0  0  0  0  0  0
  1  2  1  0
  1 17  1  0
  1 18  1  0
  1 19  1  0
  2  8  1  0
  2  3  2  0
  3  4  1  0
  3 20  1  0
  4  5  2  0
  4  6  1  0
  6 16  1  0
  6  7  2  0
  7  8  1  0
  7 10  1  0
  8  9  2  0
 10 11  1  0
 10 12  1  6
 10 13  1  0
 11 21  1  0
 11 22  1  0
 11 23  1  0
 13 14  1  0
 13 15  1  0
 13 24  1  1
 14 25  1  0
 14 26  1  0
 14 27  1  0
 15 16  1  0
 15 28  1  0
 15 29  1  0
M  CHG  1  12  -1
M  END
>  <i_m_ct_stereo_status>  (4) 
1

>  <s_m_source_file>  (4) 
/var/tmp/pbs.5076255.sched01/tmpuhafuy1n/0xc5aj8_e.sdf

>  <i_m_source_file_index>  (4) 
3

>  <i_lp_mmshare_version>  (4) 
48012

>  <i_f3d_flags>  (4) 
0

>  <s_epik_input>  (4) 
Tz1DMVtDSF09QyhbQ0gzXSlDKD1PKUMoPUMxMilbQ0BAXShbQ0gzXSkoW09IXSlbQ0BASF0oW0NIM10pW0NIMl1PMg==

>  <s_epik_cmdline>  (4) 
J2VwaWtfcHl0aG9uJywgJy1waHQnLCAnMi4wJywgJy1waCcsICc3LjAnLCAnLXRuJywgJzgnLCAnLW1hJywgJzIwMCcsICctaW1hZScsICc8aW5maWxlLm1hZT4nLCAnLW9tYWUnLCAnPG91dGZpbGUubWFlPic=

>  <r_lp_tautomer_probability>  (4) 
1

>  <r_epik_Ionization_Penalty>  (4) 
2.08071

>  <r_epik_Ionization_Penalty_Charging>  (4) 
2.08071

>  <r_epik_Ionization_Penalty_Neutral>  (4) 
0

>  <r_epik_State_Penalty>  (4) 
2.21538

>  <r_epik_Charging_Adjusted_Penalty>  (4) 
4.29609

>  <i_epik_Tot_Q>  (4) 
-1

>  <i_epik_Tot_abs_Q>  (4) 
1

>  <s_lp_Force_Field>  (4) 
OPLS3e

>  <r_lp_Energy>  (4) 
24.4254

>  <b_lp_Chiralities_Consistent>  (4) 
1

>  <s_lp_Variant>  (4) 
1:0-2

>  <s_i_glide_gridfile>  (4) 
pfpi4k_grid

>  <i_i_glide_lignum>  (4) 
3

>  <i_i_glide_rotatable_bonds>  (4) 
0

>  <r_i_docking_score>  (4) 
-4.08155

>  <r_i_glide_ligand_efficiency>  (4) 
-0.255097

>  <r_i_glide_ligand_efficiency_sa>  (4) 
-0.642805

>  <r_i_glide_ligand_efficiency_ln>  (4) 
-1.0819

>  <r_i_glide_gscore>  (4) 
-4.08155

>  <r_i_glide_lipo>  (4) 
-0.373883

>  <r_i_glide_hbond>  (4) 
-0.117618

>  <r_i_glide_metal>  (4) 
-0

>  <r_i_glide_rewards>  (4) 
-1.97286

>  <r_i_glide_evdw>  (4) 
-24.7093

>  <r_i_glide_ecoul>  (4) 
-2.25824

>  <r_i_glide_erotb>  (4) 
0

>  <r_i_glide_esite>  (4) 
-0.042995

>  <r_i_glide_emodel>  (4) 
-35.2076

>  <r_i_glide_energy>  (4) 
-26.9675

>  <r_i_glide_einternal>  (4) 
0

>  <r_i_glide_intrahb_reward>  (4) 
-0

>  <i_i_glide_confnum>  (4) 
3

>  <i_i_glide_posenum>  (4) 
6

>  <r_i_glide_eff_state_penalty>  (4) 
0

>  <ligand_id>  (4) 
1

>  <original_smiles>  (4) 
CC1=CC(=O)C2=C(C1=O)C(C)(O)C(C)CO2

>  <smiles>  (4) 
[H]C1=C(C([H])([H])[H])C(=O)C2=C(OC([H])([H])C([H])(C([H])([H])[H])C2([O-])C([H])([H])[H])C1=O

$$$$
1:1:1
     RDKit          3D

 29 30  0  0  1  0  0  0  0  0999 V2000
    2.8001   -1.4381   -3.8954 C   0  0  0  0  0  0  0  0  0  0  0  0
    3.1029   -2.1461   -2.5943 C   0  0  0  0  0  0  0  0  0  0  0  0
    2.3144   -3.1103   -2.0853 C   0  0  0  0  0  0  0  0  0  0  0  0
    2.6421   -3.7942   -0.8275 C   0  0  0  0  0  0  0  0  0  0  0  0
    1.8916   -4.6466   -0.3328 O   0  0  0  0  0  0  0  0  0  0  0  0
    3.9434   -3.4788   -0.2018 C   0  0  0  0  0  0  0  0  0  0  0  0
    4.7866   -2.5137   -0.7025 C   0  0  0  0  0  0  0  0  0  0  0  0
    4.3450   -1.7166   -1.9065 C   0  0  0  0  0  0  0  0  0  0  0  0
    4.9600   -0.7400   -2.3493 O   0  0  0  0  0  0  0  0  0  0  0  0
    6.1845   -2.2728   -0.0598 C   0  0  1  0  0  0  0  0  0  0  0  0
    7.2862   -2.8217   -0.9707 C   0  0  0  0  0  0  0  0  0  0  0  0
    6.5111   -1.0133    0.0827 O   0  0  0  0  0  0  0  0  0  0  0  0
    6.1852   -2.9039    1.3575 C   0  0  1  0  0  0  0  0  0  0  0  0
    5.4073   -2.0781    2.4246 C   0  0  0  0  0  0  0  0  0  0  0  0
    5.5981   -4.3329    1.2964 C   0  0  0  0  0  0  0  0  0  0  0  0
    4.2392   -4.2966    0.8731 O   0  0  0  0  0  0  0  0  0  0  0  0
    3.6195   -1.5533   -4.6012 H   0  0  0  0  0  0  0  0  0  0  0  0
    2.6341   -0.3788   -3.6973 H   0  0  0  0  0  0  0  0  0  0  0  0
    1.8946   -1.8526   -4.3310 H   0  0  0  0  0  0  0  0  0  0  0  0
    1.4152   -3.4171   -2.5983 H   0  0  0  0  0  0  0  0  0  0  0  0
    7.0878   -3.8620   -1.2025 H   0  0  0  0  0  0  0  0  0  0  0  0
    8.2623   -2.7542   -0.4944 H   0  0  0  0  0  0  0  0  0  0  0  0
    7.3320   -2.2885   -1.9182 H   0  0  0  0  0  0  0  0  0  0  0  0
    7.2191   -2.9929    1.6810 H   0  0  0  0  0  0  0  0  0  0  0  0
    4.3728   -1.8845    2.1338 H   0  0  0  0  0  0  0  0  0  0  0  0
    5.8647   -1.1046    2.6072 H   0  0  0  0  0  0  0  0  0  0  0  0
    5.3769   -2.5982    3.3779 H   0  0  0  0  0  0  0  0  0  0  0  0
    6.1543   -5.0001    0.6264 H   0  0  0  0  0  0  0  0  0  0  0  0
    5.6240   -4.7984    2.2821 H   0  0  0  0  0  0  0  0  0  0  0  0
  1  2  1  0
  1 17  1  0
  1 18  1  0
  1 19  1  0
  2  8  1  0
  2  3  2  0
  3  4  1  0
  3 20  1  0
  4  5  2  0
  4  6  1  0
  6 16  1  0
  6  7  2  0
  7  8  1  0
  7 10  1  0
  8  9  2  0
 10 11  1  0
 10 12  1  1
 10 13  1  0
 11 21  1  0
 11 22  1  0
 11 23  1  0
 13 14  1  0
 13 15  1  0
 13 24  1  1
 14 25  1  0
 14 26  1  0
 14 27  1  0
 15 16  1  0
 15 28  1  0
 15 29  1  0
M  CHG  1  12  -1
M  END
>  <i_m_ct_stereo_status>  (5) 
1

>  <s_m_source_file>  (5) 
/var/tmp/pbs.5076255.sched01/tmpuhafuy1n/0xc5aj8_e.sdf

>  <i_m_source_file_index>  (5) 
3

>  <i_lp_mmshare_version>  (5) 
48012

>  <i_f3d_flags>  (5) 
0

>  <s_epik_input>  (5) 
Tz1DMVtDSF09QyhbQ0gzXSlDKD1PKUMoPUMxMilbQ0BAXShbQ0gzXSkoW09IXSlbQ0BASF0oW0NIM10pW0NIMl1PMg==

>  <s_epik_cmdline>  (5) 
J2VwaWtfcHl0aG9uJywgJy1waHQnLCAnMi4wJywgJy1waCcsICc3LjAnLCAnLXRuJywgJzgnLCAnLW1hJywgJzIwMCcsICctaW1hZScsICc8aW5maWxlLm1hZT4nLCAnLW9tYWUnLCAnPG91dGZpbGUubWFlPic=

>  <r_lp_tautomer_probability>  (5) 
1

>  <r_epik_Ionization_Penalty>  (5) 
2.08071

>  <r_epik_Ionization_Penalty_Charging>  (5) 
2.08071

>  <r_epik_Ionization_Penalty_Neutral>  (5) 
0

>  <r_epik_State_Penalty>  (5) 
2.21538

>  <r_epik_Charging_Adjusted_Penalty>  (5) 
4.29609

>  <i_epik_Tot_Q>  (5) 
-1

>  <i_epik_Tot_abs_Q>  (5) 
1

>  <s_lp_Force_Field>  (5) 
OPLS3e

>  <r_lp_Energy>  (5) 
24.4254

>  <b_lp_Chiralities_Consistent>  (5) 
1

>  <s_lp_Variant>  (5) 
1:0-2

>  <s_i_glide_gridfile>  (5) 
pfpi4k_grid

>  <i_i_glide_lignum>  (5) 
3

>  <i_i_glide_rotatable_bonds>  (5) 
0

>  <r_i_docking_score>  (5) 
-3.82792

>  <r_i_glide_ligand_efficiency>  (5) 
-0.239245

>  <r_i_glide_ligand_efficiency_sa>  (5) 
-0.602859

>  <r_i_glide_ligand_efficiency_ln>  (5) 
-1.01467

>  <r_i_glide_gscore>  (5) 
-3.82792

>  <r_i_glide_lipo>  (5) 
-0.407939

>  <r_i_glide_hbond>  (5) 
-0.0694059

>  <r_i_glide_metal>  (5) 
-0

>  <r_i_glide_rewards>  (5) 
-1.90071

>  <r_i_glide_evdw>  (5) 
-20.6902

>  <r_i_glide_ecoul>  (5) 
-2.36439

>  <r_i_glide_erotb>  (5) 
0

>  <r_i_glide_esite>  (5) 
-0.060695

>  <r_i_glide_emodel>  (5) 
-30.6289

>  <r_i_glide_energy>  (5) 
-23.0546

>  <r_i_glide_einternal>  (5) 
0

>  <r_i_glide_intrahb_reward>  (5) 
-0

>  <i_i_glide_confnum>  (5) 
4

>  <i_i_glide_posenum>  (5) 
36

>  <r_i_glide_eff_state_penalty>  (5) 
0

>  <ligand_id>  (5) 
1

>  <original_smiles>  (5) 
CC1=CC(=O)C2=C(C1=O)C(C)(O)C(C)CO2

>  <smiles>  (5) 
[H]C1=C(C([H])([H])[H])C(=O)C2=C(OC([H])([H])C([H])(C([H])([H])[H])C2([O-])C([H])([H])[H])C1=O

$$$$
1:1:2
     RDKit          3D

 29 30  0  0  1  0  0  0  0  0999 V2000
    3.8890   -1.0746   -4.2742 C   0  0  0  0  0  0  0  0  0  0  0  0
    3.5773   -1.8303   -2.9999 C   0  0  0  0  0  0  0  0  0  0  0  0
    2.5535   -2.6985   -2.9035 C   0  0  0  0  0  0  0  0  0  0  0  0
    2.2784   -3.4245   -1.6536 C   0  0  0  0  0  0  0  0  0  0  0  0
    1.2725   -4.1185   -1.5208 O   0  0  0  0  0  0  0  0  0  0  0  0
    3.2393   -3.2646   -0.5468 C   0  0  0  0  0  0  0  0  0  0  0  0
    4.3212   -2.4254   -0.6178 C   0  0  0  0  0  0  0  0  0  0  0  0
    4.5019   -1.5849   -1.8570 C   0  0  0  0  0  0  0  0  0  0  0  0
    5.3783   -0.7345   -1.9827 O   0  0  0  0  0  0  0  0  0  0  0  0
    5.3592   -2.3538    0.5474 C   0  0  1  0  0  0  0  0  0  0  0  0
    6.6460   -3.0763    0.1210 C   0  0  0  0  0  0  0  0  0  0  0  0
    5.7649   -1.1423    0.8439 O   0  0  0  0  0  0  0  0  0  0  0  0
    4.7116   -2.9757    1.8213 C   0  0  1  0  0  0  0  0  0  0  0  0
    3.6818   -2.0449    2.5254 C   0  0  0  0  0  0  0  0  0  0  0  0
    4.0098   -4.3129    1.4574 C   0  0  0  0  0  0  0  0  0  0  0  0
    2.9638   -4.0911    0.5206 O   0  0  0  0  0  0  0  0  0  0  0  0
    4.8996   -1.3170   -4.5924 H   0  0  0  0  0  0  0  0  0  0  0  0
    3.8214   -0.0000   -4.1115 H   0  0  0  0  0  0  0  0  0  0  0  0
    3.1970   -1.3653   -5.0618 H   0  0  0  0  0  0  0  0  0  0  0  0
    1.8926   -2.8736   -3.7444 H   0  0  0  0  0  0  0  0  0  0  0  0
    6.4270   -4.0852   -0.2219 H   0  0  0  0  0  0  0  0  0  0  0  0
    7.3524   -3.1400    0.9462 H   0  0  0  0  0  0  0  0  0  0  0  0
    7.1400   -2.5609   -0.7016 H   0  0  0  0  0  0  0  0  0  0  0  0
    5.5090   -3.1913    2.5316 H   0  0  0  0  0  0  0  0  0  0  0  0
    2.8855   -1.7098    1.8548 H   0  0  0  0  0  0  0  0  0  0  0  0
    4.1485   -1.1385    2.9202 H   0  0  0  0  0  0  0  0  0  0  0  0
    3.2029   -2.5438    3.3610 H   0  0  0  0  0  0  0  0  0  0  0  0
    4.6990   -5.0539    1.0351 H   0  0  0  0  0  0  0  0  0  0  0  0
    3.5842   -4.7721    2.3553 H   0  0  0  0  0  0  0  0  0  0  0  0
  1  2  1  0
  1 17  1  0
  1 18  1  0
  1 19  1  0
  2  8  1  0
  2  3  2  0
  3  4  1  0
  3 20  1  0
  4  5  2  0
  4  6  1  0
  6 16  1  0
  6  7  2  0
  7  8  1  0
  7 10  1  0
  8  9  2  0
 10 11  1  0
 10 12  1  1
 10 13  1  0
 11 21  1  0
 11 22  1  0
 11 23  1  0
 13 14  1  0
 13 15  1  0
 13 24  1  1
 14 25  1  0
 14 26  1  0
 14 27  1  0
 15 16  1  0
 15 28  1  0
 15 29  1  0
M  CHG  1  12  -1
M  END
>  <i_m_ct_stereo_status>  (6) 
1

>  <s_m_source_file>  (6) 
/var/tmp/pbs.5076255.sched01/tmpuhafuy1n/0xc5aj8_e.sdf

>  <i_m_source_file_index>  (6) 
3

>  <i_lp_mmshare_version>  (6) 
48012

>  <i_f3d_flags>  (6) 
0

>  <s_epik_input>  (6) 
Tz1DMVtDSF09QyhbQ0gzXSlDKD1PKUMoPUMxMilbQ0BAXShbQ0gzXSkoW09IXSlbQ0BASF0oW0NIM10pW0NIMl1PMg==

>  <s_epik_cmdline>  (6) 
J2VwaWtfcHl0aG9uJywgJy1waHQnLCAnMi4wJywgJy1waCcsICc3LjAnLCAnLXRuJywgJzgnLCAnLW1hJywgJzIwMCcsICctaW1hZScsICc8aW5maWxlLm1hZT4nLCAnLW9tYWUnLCAnPG91dGZpbGUubWFlPic=

>  <r_lp_tautomer_probability>  (6) 
1

>  <r_epik_Ionization_Penalty>  (6) 
2.08071

>  <r_epik_Ionization_Penalty_Charging>  (6) 
2.08071

>  <r_epik_Ionization_Penalty_Neutral>  (6) 
0

>  <r_epik_State_Penalty>  (6) 
2.21538

>  <r_epik_Charging_Adjusted_Penalty>  (6) 
4.29609

>  <i_epik_Tot_Q>  (6) 
-1

>  <i_epik_Tot_abs_Q>  (6) 
1

>  <s_lp_Force_Field>  (6) 
OPLS3e

>  <r_lp_Energy>  (6) 
24.4254

>  <b_lp_Chiralities_Consistent>  (6) 
1

>  <s_lp_Variant>  (6) 
1:0-2

>  <s_i_glide_gridfile>  (6) 
pfpi4k_grid

>  <i_i_glide_lignum>  (6) 
3

>  <i_i_glide_rotatable_bonds>  (6) 
0

>  <r_i_docking_score>  (6) 
-3.50015

>  <r_i_glide_ligand_efficiency>  (6) 
-0.21876

>  <r_i_glide_ligand_efficiency_sa>  (6) 
-0.551239

>  <r_i_glide_ligand_efficiency_ln>  (6) 
-0.927785

>  <r_i_glide_gscore>  (6) 
-3.50015

>  <r_i_glide_lipo>  (6) 
-0.273253

>  <r_i_glide_hbond>  (6) 
-0.0100508

>  <r_i_glide_metal>  (6) 
-0

>  <r_i_glide_rewards>  (6) 
-2.1034

>  <r_i_glide_evdw>  (6) 
-21.5709

>  <r_i_glide_ecoul>  (6) 
0.0194841

>  <r_i_glide_erotb>  (6) 
0

>  <r_i_glide_esite>  (6) 
-0.037826

>  <r_i_glide_emodel>  (6) 
-28.4767

>  <r_i_glide_energy>  (6) 
-21.5514

>  <r_i_glide_einternal>  (6) 
0

>  <r_i_glide_intrahb_reward>  (6) 
-0

>  <i_i_glide_confnum>  (6) 
2

>  <i_i_glide_posenum>  (6) 
26

>  <r_i_glide_eff_state_penalty>  (6) 
0

>  <ligand_id>  (6) 
1

>  <original_smiles>  (6) 
CC1=CC(=O)C2=C(C1=O)C(C)(O)C(C)CO2

>  <smiles>  (6) 
[H]C1=C(C([H])([H])[H])C(=O)C2=C(OC([H])([H])C([H])(C([H])([H])[H])C2([O-])C([H])([H])[H])C1=O

$$$$
2:0:0
     RDKit          3D

 43 47  0  0  1  0  0  0  0  0999 V2000
    1.0201   -5.8511    1.0113 O   0  0  0  0  0  0  0  0  0  0  0  0
    2.1983   -5.8333    1.3750 C   0  0  0  0  0  0  0  0  0  0  0  0
    2.6641   -6.5636    2.3981 N   0  0  0  0  0  0  0  0  0  0  0  0
    1.9653   -7.6308    3.1135 C   0  0  2  0  0  0  0  0  0  0  0  0
    2.8587   -8.2074    4.2487 C   0  0  1  0  0  0  0  0  0  0  0  0
    2.0518   -9.2647    5.0381 C   0  0  0  0  0  0  0  0  0  0  0  0
    1.6531  -10.4221    4.0983 C   0  0  1  0  0  0  0  0  0  0  0  0
    0.7809   -9.8633    2.9549 C   0  0  0  0  0  0  0  0  0  0  0  0
    1.5837   -8.8056    2.1702 C   0  0  2  0  0  0  0  0  0  0  0  0
    2.8585   -9.4547    1.5772 C   0  0  0  0  0  0  0  0  0  0  0  0
    3.7320  -10.0178    2.7183 C   0  0  2  0  0  0  0  0  0  0  0  0
    4.8954  -10.6049    2.1596 O   0  0  0  0  0  0  0  0  0  0  0  0
    2.9260  -11.0751    3.5113 C   0  0  0  0  0  0  0  0  0  0  0  0
    4.1365   -8.8635    3.6607 C   0  0  0  0  0  0  0  0  0  0  0  0
    3.2630   -5.0299    0.7100 C   0  0  0  0  0  0  0  0  0  0  0  0
    4.6505   -4.9679    0.9844 C   0  0  0  0  0  0  0  0  0  0  0  0
    5.3231   -4.1783    0.1823 N   0  0  0  0  0  0  0  0  0  0  0  0
    4.3677   -3.7060   -0.6689 N   0  0  0  0  0  0  0  0  0  0  0  0
    4.5948   -2.8488   -1.6991 C   0  0  0  0  0  0  0  0  0  0  0  0
    3.5283   -2.5009   -2.4856 C   0  0  0  0  0  0  0  0  0  0  0  0
    3.7491   -1.3840   -3.7844 Cl  0  0  0  0  0  0  0  0  0  0  0  0
    2.2568   -3.0537   -2.1789 C   0  0  0  0  0  0  0  0  0  0  0  0
    2.0153   -3.8558   -1.1388 N   0  0  0  0  0  0  0  0  0  0  0  0
    3.0737   -4.2108   -0.3795 C   0  0  0  0  0  0  0  0  0  0  0  0
    3.6450   -6.4678    2.6106 H   0  0  0  0  0  0  0  0  0  0  0  0
    1.0633   -7.1958    3.5533 H   0  0  0  0  0  0  0  0  0  0  0  0
    3.1484   -7.4091    4.9322 H   0  0  0  0  0  0  0  0  0  0  0  0
    2.6295   -9.6508    5.8776 H   0  0  0  0  0  0  0  0  0  0  0  0
    1.1574   -8.8134    5.4687 H   0  0  0  0  0  0  0  0  0  0  0  0
    1.0894  -11.1692    4.6608 H   0  0  0  0  0  0  0  0  0  0  0  0
    0.4677  -10.6666    2.2888 H   0  0  0  0  0  0  0  0  0  0  0  0
   -0.1365   -9.4293    3.3558 H   0  0  0  0  0  0  0  0  0  0  0  0
    0.9560   -8.4492    1.3554 H   0  0  0  0  0  0  0  0  0  0  0  0
    2.5803  -10.2527    0.8913 H   0  0  0  0  0  0  0  0  0  0  0  0
    3.4220   -8.7390    0.9768 H   0  0  0  0  0  0  0  0  0  0  0  0
    4.6166  -11.2365    1.4865 H   0  0  0  0  0  0  0  0  0  0  0  0
    3.5316  -11.4968    4.3149 H   0  0  0  0  0  0  0  0  0  0  0  0
    2.6479  -11.9096    2.8659 H   0  0  0  0  0  0  0  0  0  0  0  0
    4.7282   -8.1331    3.1095 H   0  0  0  0  0  0  0  0  0  0  0  0
    4.7804   -9.2293    4.4624 H   0  0  0  0  0  0  0  0  0  0  0  0
    5.1854   -5.4887    1.7626 H   0  0  0  0  0  0  0  0  0  0  0  0
    5.6070   -2.4835   -1.8361 H   0  0  0  0  0  0  0  0  0  0  0  0
    1.4067   -2.7594   -2.7769 H   0  0  0  0  0  0  0  0  0  0  0  0
  1  2  2  0
  2  3  1  0
  2 15  1  0
  3  4  1  0
  3 25  1  0
  4  9  1  0
  4  5  1  0
  4 26  1  1
  5 14  1  0
  5  6  1  0
  5 27  1  1
  6  7  1  0
  6 28  1  0
  6 29  1  0
  7 13  1  0
  7  8  1  0
  7 30  1  1
  8  9  1  0
  8 31  1  0
  8 32  1  0
  9 10  1  0
  9 33  1  6
 10 11  1  0
 10 34  1  0
 10 35  1  0
 11 12  1  6
 11 13  1  0
 11 14  1  0
 12 36  1  0
 13 37  1  0
 13 38  1  0
 14 39  1  0
 14 40  1  0
 15 24  2  0
 15 16  1  0
 16 17  2  0
 16 41  1  0
 17 18  1  0
 18 24  1  0
 18 19  1  0
 19 20  2  0
 19 42  1  0
 20 21  1  0
 20 22  1  0
 22 23  2  0
 22 43  1  0
 23 24  1  0
M  END
>  <i_m_ct_stereo_status>  (7) 
1

>  <s_m_source_file>  (7) 
/var/tmp/pbs.5076255.sched01/tmpuhafuy1n/0xc5aj8_e.sdf

>  <i_m_source_file_index>  (7) 
4

>  <i_lp_mmshare_version>  (7) 
48012

>  <i_f3d_flags>  (7) 
0

>  <s_epik_input>  (7) 
W2NIXTFjKENsKVtjSF1uYyhuMTIpYyhbY0hdbjIpQyg9TylbTkhdW0NASF0oW0NASF0oW0NIMl0zKVtDSDJdW0NAQEhdKFtDSDJdNClbQ0gyXTUpW0NASF00W0NIMl1bQ0BAXTM1W09IXQ==

>  <s_epik_cmdline>  (7) 
J2VwaWtfcHl0aG9uJywgJy1waHQnLCAnMi4wJywgJy1waCcsICc3LjAnLCAnLXRuJywgJzgnLCAnLW1hJywgJzIwMCcsICctaW1hZScsICc8aW5maWxlLm1hZT4nLCAnLW9tYWUnLCAnPG91dGZpbGUubWFlPic=

>  <r_lp_tautomer_probability>  (7) 
1

>  <r_epik_Ionization_Penalty>  (7) 
5.65306e-06

>  <r_epik_Ionization_Penalty_Charging>  (7) 
0

>  <r_epik_Ionization_Penalty_Neutral>  (7) 
5.65306e-06

>  <r_epik_State_Penalty>  (7) 
-0

>  <r_epik_Charging_Adjusted_Penalty>  (7) 
0

>  <i_epik_Tot_Q>  (7) 
0

>  <i_epik_Tot_abs_Q>  (7) 
0

>  <s_lp_Force_Field>  (7) 
OPLS3e

>  <r_lp_Energy>  (7) 
-0.631103

>  <b_lp_Chiralities_Consistent>  (7) 
1

>  <s_lp_Variant>  (7) 
2:0-1

>  <s_i_glide_gridfile>  (7) 
pfpi4k_grid

>  <i_i_glide_lignum>  (7) 
4

>  <i_i_glide_rotatable_bonds>  (7) 
4

>  <r_i_docking_score>  (7) 
-4.43271

>  <r_i_glide_ligand_efficiency>  (7) 
-0.184696

>  <r_i_glide_ligand_efficiency_sa>  (7) 
-0.532756

>  <r_i_glide_ligand_efficiency_ln>  (7) 
-1.06095

>  <r_i_glide_gscore>  (7) 
-4.43271

>  <r_i_glide_lipo>  (7) 
-0.314069

>  <r_i_glide_hbond>  (7) 
-0.32

>  <r_i_glide_metal>  (7) 
-0

>  <r_i_glide_rewards>  (7) 
-1.05363

>  <r_i_glide_evdw>  (7) 
-25.7776

>  <r_i_glide_ecoul>  (7) 
-12.406

>  <r_i_glide_erotb>  (7) 
0.474319

>  <r_i_glide_esite>  (7) 
-0.0695492

>  <r_i_glide_emodel>  (7) 
-49.6696

>  <r_i_glide_energy>  (7) 
-38.1836

>  <r_i_glide_einternal>  (7) 
1.20206

>  <r_i_glide_intrahb_reward>  (7) 
-0

>  <i_i_glide_confnum>  (7) 
6

>  <i_i_glide_posenum>  (7) 
13

>  <r_i_glide_eff_state_penalty>  (7) 
0

>  <ligand_id>  (7) 
2

>  <original_smiles>  (7) 
O=C(NC1C2CC3CC1CC(O)(C3)C2)c1cnn2cc(Cl)cnc12

>  <smiles>  (7) 
[H]OC12C([H])([H])C3([H])C([H])([H])C([H])(C1([H])[H])C([H])(N([H])C(=O)c1c([H])nn4c([H])c(Cl)c([H])nc14)C([H])(C3([H])[H])C2([H])[H]

$$$$
2:0:1
     RDKit          3D

 43 47  0  0  1  0  0  0  0  0999 V2000
    6.0849   -5.9292    1.2591 O   0  0  0  0  0  0  0  0  0  0  0  0
    4.8810   -6.0227    1.0344 C   0  0  0  0  0  0  0  0  0  0  0  0
    4.1583   -5.0324    0.5079 N   0  0  0  0  0  0  0  0  0  0  0  0
    4.6188   -3.6580    0.3253 C   0  0  2  0  0  0  0  0  0  0  0  0
    3.4007   -2.7710    0.0014 C   0  0  1  0  0  0  0  0  0  0  0  0
    3.8686   -1.3094   -0.0836 C   0  0  0  0  0  0  0  0  0  0  0  0
    4.8949   -1.1715   -1.2220 C   0  0  1  0  0  0  0  0  0  0  0  0
    6.1200   -2.0488   -0.9100 C   0  0  0  0  0  0  0  0  0  0  0  0
    5.6640   -3.5106   -0.8149 C   0  0  2  0  0  0  0  0  0  0  0  0
    5.0453   -3.9206   -2.1657 C   0  0  0  0  0  0  0  0  0  0  0  0
    3.8120   -3.0470   -2.4708 C   0  0  2  0  0  0  0  0  0  0  0  0
    3.2519   -3.4568   -3.6971 O   0  0  0  0  0  0  0  0  0  0  0  0
    4.2550   -1.5787   -2.5647 C   0  0  0  0  0  0  0  0  0  0  0  0
    2.7703   -3.2152   -1.3452 C   0  0  0  0  0  0  0  0  0  0  0  0
    4.1425   -7.2784    1.2871 C   0  0  0  0  0  0  0  0  0  0  0  0
    4.6658   -8.5824    1.3473 C   0  0  0  0  0  0  0  0  0  0  0  0
    3.7862   -9.4766    1.7140 N   0  0  0  0  0  0  0  0  0  0  0  0
    2.6425   -8.7683    1.9008 N   0  0  0  0  0  0  0  0  0  0  0  0
    1.4436   -9.2825    2.2858 C   0  0  0  0  0  0  0  0  0  0  0  0
    0.3994   -8.4033    2.4448 C   0  0  0  0  0  0  0  0  0  0  0  0
   -1.1741   -8.9668    2.8706 Cl  0  0  0  0  0  0  0  0  0  0  0  0
    0.6314   -7.0327    2.1975 C   0  0  0  0  0  0  0  0  0  0  0  0
    1.7916   -6.5176    1.8013 N   0  0  0  0  0  0  0  0  0  0  0  0
    2.8213   -7.3828    1.6607 C   0  0  0  0  0  0  0  0  0  0  0  0
    3.2047   -5.2460    0.2356 H   0  0  0  0  0  0  0  0  0  0  0  0
    5.0671   -3.3215    1.2646 H   0  0  0  0  0  0  0  0  0  0  0  0
    2.6619   -2.8510    0.7991 H   0  0  0  0  0  0  0  0  0  0  0  0
    3.0119   -0.6674   -0.2705 H   0  0  0  0  0  0  0  0  0  0  0  0
    4.3020   -0.9799    0.8624 H   0  0  0  0  0  0  0  0  0  0  0  0
    5.2084   -0.1433   -1.3018 H   0  0  0  0  0  0  0  0  0  0  0  0
    6.8696   -1.9496   -1.6941 H   0  0  0  0  0  0  0  0  0  0  0  0
    6.5899   -1.7328    0.0236 H   0  0  0  0  0  0  0  0  0  0  0  0
    6.5423   -4.1241   -0.6183 H   0  0  0  0  0  0  0  0  0  0  0  0
    5.7822   -3.8407   -2.9666 H   0  0  0  0  0  0  0  0  0  0  0  0
    4.7709   -4.9687   -2.1149 H   0  0  0  0  0  0  0  0  0  0  0  0
    2.9255   -4.3395   -3.5609 H   0  0  0  0  0  0  0  0  0  0  0  0
    3.4073   -0.9279   -2.7952 H   0  0  0  0  0  0  0  0  0  0  0  0
    4.9783   -1.4554   -3.3711 H   0  0  0  0  0  0  0  0  0  0  0  0
    2.4296   -4.2462   -1.2853 H   0  0  0  0  0  0  0  0  0  0  0  0
    1.8702   -2.6526   -1.5667 H   0  0  0  0  0  0  0  0  0  0  0  0
    5.6846   -8.8862    1.1572 H   0  0  0  0  0  0  0  0  0  0  0  0
    1.3733  -10.3550    2.4141 H   0  0  0  0  0  0  0  0  0  0  0  0
   -0.1915   -6.3379    2.3116 H   0  0  0  0  0  0  0  0  0  0  0  0
  1  2  2  0
  2  3  1  0
  2 15  1  0
  3  4  1  0
  3 25  1  0
  4  9  1  0
  4  5  1  0
  4 26  1  1
  5 14  1  0
  5  6  1  0
  5 27  1  1
  6  7  1  0
  6 28  1  0
  6 29  1  0
  7 13  1  0
  7  8  1  0
  7 30  1  6
  8  9  1  0
  8 31  1  0
  8 32  1  0
  9 10  1  0
  9 33  1  1
 10 11  1  0
 10 34  1  0
 10 35  1  0
 11 12  1  6
 11 13  1  0
 11 14  1  0
 12 36  1  0
 13 37  1  0
 13 38  1  0
 14 39  1  0
 14 40  1  0
 15 24  2  0
 15 16  1  0
 16 17  2  0
 16 41  1  0
 17 18  1  0
 18 24  1  0
 18 19  1  0
 19 20  2  0
 19 42  1  0
 20 21  1  0
 20 22  1  0
 22 23  2  0
 22 43  1  0
 23 24  1  0
M  END
>  <i_m_ct_stereo_status>  (8) 
1

>  <s_m_source_file>  (8) 
/var/tmp/pbs.5076255.sched01/tmpuhafuy1n/0xc5aj8_e.sdf

>  <i_m_source_file_index>  (8) 
4

>  <i_lp_mmshare_version>  (8) 
48012

>  <i_f3d_flags>  (8) 
0

>  <s_epik_input>  (8) 
W2NIXTFjKENsKVtjSF1uYyhuMTIpYyhbY0hdbjIpQyg9TylbTkhdW0NASF0oW0NASF0oW0NIMl0zKVtDSDJdW0NAQEhdKFtDSDJdNClbQ0gyXTUpW0NASF00W0NIMl1bQ0BAXTM1W09IXQ==

>  <s_epik_cmdline>  (8) 
J2VwaWtfcHl0aG9uJywgJy1waHQnLCAnMi4wJywgJy1waCcsICc3LjAnLCAnLXRuJywgJzgnLCAnLW1hJywgJzIwMCcsICctaW1hZScsICc8aW5maWxlLm1hZT4nLCAnLW9tYWUnLCAnPG91dGZpbGUubWFlPic=

>  <r_lp_tautomer_probability>  (8) 
1

>  <r_epik_Ionization_Penalty>  (8) 
5.65306e-06

>  <r_epik_Ionization_Penalty_Charging>  (8) 
0

>  <r_epik_Ionization_Penalty_Neutral>  (8) 
5.65306e-06

>  <r_epik_State_Penalty>  (8) 
-0

>  <r_epik_Charging_Adjusted_Penalty>  (8) 
0

>  <i_epik_Tot_Q>  (8) 
0

>  <i_epik_Tot_abs_Q>  (8) 
0

>  <s_lp_Force_Field>  (8) 
OPLS3e

>  <r_lp_Energy>  (8) 
-0.631103

>  <b_lp_Chiralities_Consistent>  (8) 
1

>  <s_lp_Variant>  (8) 
2:0-1

>  <s_i_glide_gridfile>  (8) 
pfpi4k_grid

>  <i_i_glide_lignum>  (8) 
4

>  <i_i_glide_rotatable_bonds>  (8) 
4

>  <r_i_docking_score>  (8) 
-3.55466

>  <r_i_glide_ligand_efficiency>  (8) 
-0.148111

>  <r_i_glide_ligand_efficiency_sa>  (8) 
-0.427226

>  <r_i_glide_ligand_efficiency_ln>  (8) 
-0.850794

>  <r_i_glide_gscore>  (8) 
-3.55466

>  <r_i_glide_lipo>  (8) 
-0.313735

>  <r_i_glide_hbond>  (8) 
-0.32

>  <r_i_glide_metal>  (8) 
-0

>  <r_i_glide_rewards>  (8) 
-1.19389

>  <r_i_glide_evdw>  (8) 
-34.5895

>  <r_i_glide_ecoul>  (8) 
-3.06263

>  <r_i_glide_erotb>  (8) 
0.474319

>  <r_i_glide_esite>  (8) 
-0.0124843

>  <r_i_glide_emodel>  (8) 
-46.4553

>  <r_i_glide_energy>  (8) 
-37.6522

>  <r_i_glide_einternal>  (8) 
1.4603

>  <r_i_glide_intrahb_reward>  (8) 
-0

>  <i_i_glide_confnum>  (8) 
5

>  <i_i_glide_posenum>  (8) 
14

>  <r_i_glide_eff_state_penalty>  (8) 
0

>  <ligand_id>  (8) 
2

>  <original_smiles>  (8) 
O=C(NC1C2CC3CC1CC(O)(C3)C2)c1cnn2cc(Cl)cnc12

>  <smiles>  (8) 
[H]OC12C([H])([H])C3([H])C([H])([H])C([H])(C1([H])[H])C([H])(N([H])C(=O)c1c([H])nn4c([H])c(Cl)c([H])nc14)C([H])(C3([H])[H])C2([H])[H]

$$$$
2:0:2
     RDKit          3D

 43 47  0  0  1  0  0  0  0  0999 V2000
    4.4219   -3.2406    3.9629 O   0  0  0  0  0  0  0  0  0  0  0  0
    4.2558   -3.5598    2.7882 C   0  0  0  0  0  0  0  0  0  0  0  0
    3.8471   -4.7814    2.4157 N   0  0  0  0  0  0  0  0  0  0  0  0
    3.5207   -5.8782    3.3330 C   0  0  2  0  0  0  0  0  0  0  0  0
    3.3627   -7.1869    2.5265 C   0  0  1  0  0  0  0  0  0  0  0  0
    3.0936   -8.3574    3.4962 C   0  0  0  0  0  0  0  0  0  0  0  0
    1.7843   -8.0974    4.2697 C   0  0  1  0  0  0  0  0  0  0  0  0
    1.9269   -6.7916    5.0812 C   0  0  0  0  0  0  0  0  0  0  0  0
    2.2044   -5.6190    4.1187 C   0  0  2  0  0  0  0  0  0  0  0  0
    1.0223   -5.4847    3.1384 C   0  0  0  0  0  0  0  0  0  0  0  0
    0.8845   -6.7879    2.3161 C   0  0  2  0  0  0  0  0  0  0  0  0
   -0.1835   -6.6558    1.3995 O   0  0  0  0  0  0  0  0  0  0  0  0
    0.6114   -7.9694    3.2731 C   0  0  0  0  0  0  0  0  0  0  0  0
    2.1859   -7.0527    1.5310 C   0  0  0  0  0  0  0  0  0  0  0  0
    4.5915   -2.6233    1.6850 C   0  0  0  0  0  0  0  0  0  0  0  0
    5.4382   -1.4976    1.7504 C   0  0  0  0  0  0  0  0  0  0  0  0
    5.5498   -0.8527    0.6130 N   0  0  0  0  0  0  0  0  0  0  0  0
    4.7139   -1.5390   -0.2256 N   0  0  0  0  0  0  0  0  0  0  0  0
    4.4798   -1.2316   -1.5293 C   0  0  0  0  0  0  0  0  0  0  0  0
    3.6320   -2.0463   -2.2350 C   0  0  0  0  0  0  0  0  0  0  0  0
    3.3348   -1.7267   -3.9049 Cl  0  0  0  0  0  0  0  0  0  0  0  0
    3.0277   -3.1399   -1.5636 C   0  0  0  0  0  0  0  0  0  0  0  0
    3.2461   -3.4463   -0.2825 N   0  0  0  0  0  0  0  0  0  0  0  0
    4.0899   -2.6442    0.4038 C   0  0  0  0  0  0  0  0  0  0  0  0
    3.7064   -4.9416    1.4233 H   0  0  0  0  0  0  0  0  0  0  0  0
    4.3417   -5.9989    4.0467 H   0  0  0  0  0  0  0  0  0  0  0  0
    4.2837   -7.3891    1.9791 H   0  0  0  0  0  0  0  0  0  0  0  0
    3.0287   -9.2997    2.9507 H   0  0  0  0  0  0  0  0  0  0  0  0
    3.9249   -8.4636    4.1954 H   0  0  0  0  0  0  0  0  0  0  0  0
    1.5929   -8.9316    4.9449 H   0  0  0  0  0  0  0  0  0  0  0  0
    1.0196   -6.6029    5.6552 H   0  0  0  0  0  0  0  0  0  0  0  0
    2.7350   -6.8807    5.8086 H   0  0  0  0  0  0  0  0  0  0  0  0
    2.2838   -4.7047    4.7077 H   0  0  0  0  0  0  0  0  0  0  0  0
    0.1105   -5.2807    3.6980 H   0  0  0  0  0  0  0  0  0  0  0  0
    1.1744   -4.6274    2.4833 H   0  0  0  0  0  0  0  0  0  0  0  0
   -0.2958   -7.5004    0.9764 H   0  0  0  0  0  0  0  0  0  0  0  0
    0.4929   -8.9006    2.7159 H   0  0  0  0  0  0  0  0  0  0  0  0
   -0.3200   -7.8103    3.8168 H   0  0  0  0  0  0  0  0  0  0  0  0
    2.3656   -6.2440    0.8211 H   0  0  0  0  0  0  0  0  0  0  0  0
    2.1020   -7.9623    0.9353 H   0  0  0  0  0  0  0  0  0  0  0  0
    5.9908   -1.1611    2.6116 H   0  0  0  0  0  0  0  0  0  0  0  0
    4.9766   -0.3628   -1.9364 H   0  0  0  0  0  0  0  0  0  0  0  0
    2.3518   -3.7940   -2.1090 H   0  0  0  0  0  0  0  0  0  0  0  0
  1  2  2  0
  2  3  1  0
  2 15  1  0
  3  4  1  0
  3 25  1  0
  4  9  1  0
  4  5  1  0
  4 26  1  1
  5 14  1  0
  5  6  1  0
  5 27  1  6
  6  7  1  0
  6 28  1  0
  6 29  1  0
  7 13  1  0
  7  8  1  0
  7 30  1  1
  8  9  1  0
  8 31  1  0
  8 32  1  0
  9 10  1  0
  9 33  1  1
 10 11  1  0
 10 34  1  0
 10 35  1  0
 11 12  1  6
 11 13  1  0
 11 14  1  0
 12 36  1  0
 13 37  1  0
 13 38  1  0
 14 39  1  0
 14 40  1  0
 15 24  2  0
 15 16  1  0
 16 17  2  0
 16 41  1  0
 17 18  1  0
 18 24  1  0
 18 19  1  0
 19 20  2  0
 19 42  1  0
 20 21  1  0
 20 22  1  0
 22 23  2  0
 22 43  1  0
 23 24  1  0
M  END
>  <i_m_ct_stereo_status>  (9) 
1

>  <s_m_source_file>  (9) 
/var/tmp/pbs.5076255.sched01/tmpuhafuy1n/0xc5aj8_e.sdf

>  <i_m_source_file_index>  (9) 
4

>  <i_lp_mmshare_version>  (9) 
48012

>  <i_f3d_flags>  (9) 
0

>  <s_epik_input>  (9) 
W2NIXTFjKENsKVtjSF1uYyhuMTIpYyhbY0hdbjIpQyg9TylbTkhdW0NASF0oW0NASF0oW0NIMl0zKVtDSDJdW0NAQEhdKFtDSDJdNClbQ0gyXTUpW0NASF00W0NIMl1bQ0BAXTM1W09IXQ==

>  <s_epik_cmdline>  (9) 
J2VwaWtfcHl0aG9uJywgJy1waHQnLCAnMi4wJywgJy1waCcsICc3LjAnLCAnLXRuJywgJzgnLCAnLW1hJywgJzIwMCcsICctaW1hZScsICc8aW5maWxlLm1hZT4nLCAnLW9tYWUnLCAnPG91dGZpbGUubWFlPic=

>  <r_lp_tautomer_probability>  (9) 
1

>  <r_epik_Ionization_Penalty>  (9) 
5.65306e-06

>  <r_epik_Ionization_Penalty_Charging>  (9) 
0

>  <r_epik_Ionization_Penalty_Neutral>  (9) 
5.65306e-06

>  <r_epik_State_Penalty>  (9) 
-0

>  <r_epik_Charging_Adjusted_Penalty>  (9) 
0

>  <i_epik_Tot_Q>  (9) 
0

>  <i_epik_Tot_abs_Q>  (9) 
0

>  <s_lp_Force_Field>  (9) 
OPLS3e

>  <r_lp_Energy>  (9) 
-0.631103

>  <b_lp_Chiralities_Consistent>  (9) 
1

>  <s_lp_Variant>  (9) 
2:0-1

>  <s_i_glide_gridfile>  (9) 
pfpi4k_grid

>  <i_i_glide_lignum>  (9) 
4

>  <i_i_glide_rotatable_bonds>  (9) 
4

>  <r_i_docking_score>  (9) 
-3.53182

>  <r_i_glide_ligand_efficiency>  (9) 
-0.147159

>  <r_i_glide_ligand_efficiency_sa>  (9) 
-0.424481

>  <r_i_glide_ligand_efficiency_ln>  (9) 
-0.845327

>  <r_i_glide_gscore>  (9) 
-3.53182

>  <r_i_glide_lipo>  (9) 
-0.29605

>  <r_i_glide_hbond>  (9) 
-0.23015

>  <r_i_glide_metal>  (9) 
-0

>  <r_i_glide_rewards>  (9) 
-1.05431

>  <r_i_glide_evdw>  (9) 
-28.4852

>  <r_i_glide_ecoul>  (9) 
-6.50874

>  <r_i_glide_erotb>  (9) 
0.474319

>  <r_i_glide_esite>  (9) 
-0.0250607

>  <r_i_glide_emodel>  (9) 
-44.4193

>  <r_i_glide_energy>  (9) 
-34.994

>  <r_i_glide_einternal>  (9) 
0.17976

>  <r_i_glide_intrahb_reward>  (9) 
-0

>  <i_i_glide_confnum>  (9) 
5

>  <i_i_glide_posenum>  (9) 
3

>  <r_i_glide_eff_state_penalty>  (9) 
0

>  <ligand_id>  (9) 
2

>  <original_smiles>  (9) 
O=C(NC1C2CC3CC1CC(O)(C3)C2)c1cnn2cc(Cl)cnc12

>  <smiles>  (9) 
[H]OC12C([H])([H])C3([H])C([H])([H])C([H])(C1([H])[H])C([H])(N([H])C(=O)c1c([H])nn4c([H])c(Cl)c([H])nc14)C([H])(C3([H])[H])C2([H])[H]

$$$$
3:0:0
     RDKit          3D

 80 84  0  0  1  0  0  0  0  0999 V2000
    4.6131   -3.4783   -3.4987 C   0  0  0  0  0  0  0  0  0  0  0  0
    4.2674   -2.4201   -2.7608 C   0  0  0  0  0  0  0  0  0  0  0  0
    4.1997   -1.0425   -3.4131 C   0  0  0  0  0  0  0  0  0  0  0  0
    3.9214   -2.5137   -1.2469 C   0  0  2  0  0  0  0  0  0  0  0  0
    4.1372   -1.2184   -0.4081 C   0  0  0  0  0  0  0  0  0  0  0  0
    5.3096   -1.4696    0.5532 C   0  0  0  0  0  0  0  0  0  0  0  0
    5.9375   -2.8414    0.2050 C   0  0  1  0  0  0  0  0  0  0  0  0
    7.0821   -2.6608   -0.8291 C   0  0  0  0  0  0  0  0  0  0  0  0
    6.8672   -1.8636   -1.7530 O   0  0  0  0  0  0  0  0  0  0  0  0
    8.1681   -3.2452   -0.6743 O   0  0  0  0  0  0  0  0  0  0  0  0
    6.5359   -3.5300    1.4636 C   0  0  0  0  0  0  0  0  0  0  0  0
    5.6037   -4.3959    2.3142 C   0  0  0  0  0  0  0  0  0  0  0  0
    4.7143   -5.3708    1.4766 C   0  0  2  0  0  0  0  0  0  0  0  0
    5.6015   -6.2487    0.5528 C   0  0  0  0  0  0  0  0  0  0  0  0
    3.8581   -4.4636    0.5392 C   0  0  1  0  0  0  0  0  0  0  0  0
    2.8210   -3.6875    1.3648 C   0  0  0  0  0  0  0  0  0  0  0  0
    1.9571   -4.6362    2.1880 C   0  0  0  0  0  0  0  0  0  0  0  0
    2.7234   -5.5160    3.2130 C   0  0  1  0  0  0  0  0  0  0  0  0
    1.6975   -6.3632    4.0979 C   0  0  2  0  0  0  0  0  0  0  0  0
    0.6703   -5.3388    4.6693 C   0  0  0  0  0  0  0  0  0  0  0  0
    2.3383   -7.0382    5.3515 C   0  0  0  0  0  0  0  0  0  0  0  0
    1.3856   -7.9522    6.1503 C   0  0  0  0  0  0  0  0  0  0  0  0
    0.7275   -9.0219    5.2648 C   0  0  1  0  0  0  0  0  0  0  0  0
   -0.1840   -9.6968    6.1128 O   0  0  0  0  0  0  0  0  0  0  0  0
    0.0394   -8.4474    3.9891 C   0  0  0  0  0  0  0  0  0  0  0  0
   -0.3624   -9.6204    3.0646 C   0  0  0  0  0  0  0  0  0  0  0  0
   -1.2903   -7.7207    4.3414 C   0  0  0  0  0  0  0  0  0  0  0  0
    1.0356   -7.4925    3.2227 C   0  0  2  0  0  0  0  0  0  0  0  0
    2.1440   -8.2935    2.4722 C   0  0  0  0  0  0  0  0  0  0  0  0
    3.1220   -7.4386    1.6533 C   0  0  0  0  0  0  0  0  0  0  0  0
    3.8463   -6.3167    2.4470 C   0  0  1  0  0  0  0  0  0  0  0  0
    4.8447   -6.9788    3.4461 C   0  0  0  0  0  0  0  0  0  0  0  0
    4.7331   -3.5937   -0.4466 C   0  0  1  0  0  0  0  0  0  0  0  0
    4.8733   -3.3717   -4.5440 H   0  0  0  0  0  0  0  0  0  0  0  0
    4.6541   -4.4889   -3.1077 H   0  0  0  0  0  0  0  0  0  0  0  0
    4.9249   -0.3674   -2.9758 H   0  0  0  0  0  0  0  0  0  0  0  0
    3.2017   -0.6112   -3.3083 H   0  0  0  0  0  0  0  0  0  0  0  0
    4.4451   -1.0972   -4.4736 H   0  0  0  0  0  0  0  0  0  0  0  0
    2.8595   -2.7524   -1.2745 H   0  0  0  0  0  0  0  0  0  0  0  0
    4.3165   -0.2999   -0.9637 H   0  0  0  0  0  0  0  0  0  0  0  0
    3.2325   -1.0157    0.1711 H   0  0  0  0  0  0  0  0  0  0  0  0
    6.0382   -0.6524    0.5191 H   0  0  0  0  0  0  0  0  0  0  0  0
    4.9180   -1.4835    1.5657 H   0  0  0  0  0  0  0  0  0  0  0  0
    7.3759   -4.1932    1.2455 H   0  0  0  0  0  0  0  0  0  0  0  0
    6.9472   -2.7435    2.0892 H   0  0  0  0  0  0  0  0  0  0  0  0
    6.2569   -4.9318    2.9998 H   0  0  0  0  0  0  0  0  0  0  0  0
    5.0010   -3.7480    2.9437 H   0  0  0  0  0  0  0  0  0  0  0  0
    4.9936   -6.7497   -0.2111 H   0  0  0  0  0  0  0  0  0  0  0  0
    6.1676   -7.0260    1.0690 H   0  0  0  0  0  0  0  0  0  0  0  0
    6.3513   -5.6901    0.0101 H   0  0  0  0  0  0  0  0  0  0  0  0
    3.2782   -5.1014   -0.1287 H   0  0  0  0  0  0  0  0  0  0  0  0
    3.2696   -2.9508    2.0300 H   0  0  0  0  0  0  0  0  0  0  0  0
    2.1542   -3.1184    0.7152 H   0  0  0  0  0  0  0  0  0  0  0  0
    1.2239   -3.9929    2.6723 H   0  0  0  0  0  0  0  0  0  0  0  0
    1.4120   -5.2675    1.4928 H   0  0  0  0  0  0  0  0  0  0  0  0
    3.2169   -4.8230    3.8899 H   0  0  0  0  0  0  0  0  0  0  0  0
    0.2098   -5.6334    5.6051 H   0  0  0  0  0  0  0  0  0  0  0  0
   -0.1448   -5.1439    3.9724 H   0  0  0  0  0  0  0  0  0  0  0  0
    1.1515   -4.3876    4.8970 H   0  0  0  0  0  0  0  0  0  0  0  0
    3.1304   -7.7154    5.0727 H   0  0  0  0  0  0  0  0  0  0  0  0
    2.7873   -6.2876    6.0070 H   0  0  0  0  0  0  0  0  0  0  0  0
    1.9576   -8.4532    6.9340 H   0  0  0  0  0  0  0  0  0  0  0  0
    0.6313   -7.3772    6.6881 H   0  0  0  0  0  0  0  0  0  0  0  0
    1.5012   -9.7340    4.9626 H   0  0  0  0  0  0  0  0  0  0  0  0
   -0.7713  -10.2513    5.5971 H   0  0  0  0  0  0  0  0  0  0  0  0
   -0.7116   -9.2769    2.0871 H   0  0  0  0  0  0  0  0  0  0  0  0
   -1.1750  -10.1952    3.4890 H   0  0  0  0  0  0  0  0  0  0  0  0
    0.4492  -10.3390    2.9354 H   0  0  0  0  0  0  0  0  0  0  0  0
   -1.6190   -7.0478    3.5470 H   0  0  0  0  0  0  0  0  0  0  0  0
   -1.2107   -7.1402    5.2539 H   0  0  0  0  0  0  0  0  0  0  0  0
   -2.1042   -8.4301    4.5204 H   0  0  0  0  0  0  0  0  0  0  0  0
    0.4369   -7.0244    2.4427 H   0  0  0  0  0  0  0  0  0  0  0  0
    2.6940   -8.9195    3.1725 H   0  0  0  0  0  0  0  0  0  0  0  0
    1.6991   -8.9824    1.7570 H   0  0  0  0  0  0  0  0  0  0  0  0
    3.8448   -8.1192    1.1998 H   0  0  0  0  0  0  0  0  0  0  0  0
    2.5609   -7.0089    0.8276 H   0  0  0  0  0  0  0  0  0  0  0  0
    4.6116   -8.0179    3.6524 H   0  0  0  0  0  0  0  0  0  0  0  0
    4.8821   -6.4247    4.3838 H   0  0  0  0  0  0  0  0  0  0  0  0
    5.8734   -7.0224    3.0972 H   0  0  0  0  0  0  0  0  0  0  0  0
    5.1735   -4.3215   -1.1205 H   0  0  0  0  0  0  0  0  0  0  0  0
  1  2  2  0
  1 34  1  0
  1 35  1  0
  2  3  1  0
  2  4  1  0
  3 36  1  0
  3 37  1  0
  3 38  1  0
  4 33  1  0
  4  5  1  0
  4 39  1  6
  5  6  1  0
  5 40  1  0
  5 41  1  0
  6  7  1  0
  6 42  1  0
  6 43  1  0
  7 33  1  0
  7  8  1  6
  7 11  1  0
  8  9  2  0
  8 10  1  0
 11 12  1  0
 11 44  1  0
 11 45  1  0
 12 13  1  0
 12 46  1  0
 12 47  1  0
 13 31  1  0
 13 14  1  6
 13 15  1  0
 14 48  1  0
 14 49  1  0
 14 50  1  0
 15 16  1  0
 15 33  1  0
 15 51  1  6
 16 17  1  0
 16 52  1  0
 16 53  1  0
 17 18  1  0
 17 54  1  0
 17 55  1  0
 18 31  1  0
 18 19  1  0
 18 56  1  1
 19 28  1  0
 19 20  1  1
 19 21  1  0
 20 57  1  0
 20 58  1  0
 20 59  1  0
 21 22  1  0
 21 60  1  0
 21 61  1  0
 22 23  1  0
 22 62  1  0
 22 63  1  0
 23 24  1  0
 23 25  1  0
 23 64  1  6
 24 65  1  0
 25 26  1  0
 25 27  1  0
 25 28  1  0
 26 66  1  0
 26 67  1  0
 26 68  1  0
 27 69  1  0
 27 70  1  0
 27 71  1  0
 28 29  1  0
 28 72  1  6
 29 30  1  0
 29 73  1  0
 29 74  1  0
 30 31  1  0
 30 75  1  0
 30 76  1  0
 31 32  1  1
 32 77  1  0
 32 78  1  0
 32 79  1  0
 33 80  1  6
M  CHG  1  10  -1
M  END
>  <i_m_ct_stereo_status>  (10) 
1

>  <s_m_source_file>  (10) 
/var/tmp/pbs.5076255.sched01/tmpuhafuy1n/0xc5aj8_e.sdf

>  <i_m_source_file_index>  (10) 
5

>  <i_lp_mmshare_version>  (10) 
48012

>  <i_f3d_flags>  (10) 
0

>  <s_epik_input>  (10) 
W0NIMl09QyhbQ0gzXSlbQ0BIXShbQ0gyXVtDSDJdMSlbQ0BASF0oW0NAQF0xMkMoPU8pW09IXSlbQ0BIXTNbQ0BAXShbQ0gzXSkoW0NIMl1bQ0gyXTIpW0NAQF00KFtDSDNdKVtDQEBIXShbQ0gyXVtDSDJdMylbQ0BAXTUoW0NIM10pW0NAQEhdKFtDSDJdW0NIMl00KUMoW0NIM10pKFtDSDNdKVtDQEhdKFtPSF0pW0NIMl1bQ0gyXTU=

>  <s_epik_cmdline>  (10) 
J2VwaWtfcHl0aG9uJywgJy1waHQnLCAnMi4wJywgJy1waCcsICc3LjAnLCAnLXRuJywgJzgnLCAnLW1hJywgJzIwMCcsICctaW1hZScsICc8aW5maWxlLm1hZT4nLCAnLW9tYWUnLCAnPG91dGZpbGUubWFlPic=

>  <r_epik_Ionization_Penalty>  (10) 
0.00776297

>  <r_epik_Ionization_Penalty_Charging>  (10) 
0.00775979

>  <r_epik_Ionization_Penalty_Neutral>  (10) 
3.18347e-06

>  <r_epik_State_Penalty>  (10) 
0.00581373

>  <r_epik_Charging_Adjusted_Penalty>  (10) 
0.0135735

>  <i_epik_Tot_Q>  (10) 
-1

>  <i_epik_Tot_abs_Q>  (10) 
1

>  <s_lp_Force_Field>  (10) 
OPLS3e

>  <r_lp_Energy>  (10) 
104.174

>  <b_lp_Chiralities_Consistent>  (10) 
1

>  <s_lp_Variant>  (10) 
3:0-1

>  <s_i_glide_gridfile>  (10) 
pfpi4k_grid

>  <i_i_glide_lignum>  (10) 
5

>  <i_i_glide_rotatable_bonds>  (10) 
3

>  <r_i_docking_score>  (10) 
-3.95688

>  <r_i_glide_ligand_efficiency>  (10) 
-0.119906

>  <r_i_glide_ligand_efficiency_sa>  (10) 
-0.384601

>  <r_i_glide_ligand_efficiency_ln>  (10) 
-0.87999

>  <r_i_glide_gscore>  (10) 
-3.95688

>  <r_i_glide_lipo>  (10) 
-0.907627

>  <r_i_glide_hbond>  (10) 
-0.36

>  <r_i_glide_metal>  (10) 
-0

>  <r_i_glide_rewards>  (10) 
-0.302097

>  <r_i_glide_evdw>  (10) 
-30.036

>  <r_i_glide_ecoul>  (10) 
-6.37839

>  <r_i_glide_erotb>  (10) 
0.096752

>  <r_i_glide_esite>  (10) 
-0.0253522

>  <r_i_glide_emodel>  (10) 
-40.993

>  <r_i_glide_energy>  (10) 
-36.4144

>  <r_i_glide_einternal>  (10) 
9.07143

>  <r_i_glide_intrahb_reward>  (10) 
-0

>  <i_i_glide_confnum>  (10) 
2

>  <i_i_glide_posenum>  (10) 
25

>  <r_i_glide_eff_state_penalty>  (10) 
0

>  <ligand_id>  (10) 
3

>  <original_smiles>  (10) 
C=C(C)C1CCC2(C(=O)O)CCC3(C)C(CCC4C5(C)CCC(O)C(C)(C)C5CCC43C)C12

>  <smiles>  (10) 
[H]OC1([H])C([H])([H])C([H])([H])C2(C([H])([H])[H])C([H])(C([H])([H])C([H])([H])C3(C([H])([H])[H])C2([H])C([H])([H])C([H])([H])C2([H])C4([H])C([H])(C(=C([H])[H])C([H])([H])[H])C([H])([H])C([H])([H])C4(C(=O)[O-])C([H])([H])C([H])([H])C23C([H])([H])[H])C1(C([H])([H])[H])C([H])([H])[H]

$$$$
3:0:1
     RDKit          3D

 80 84  0  0  1  0  0  0  0  0999 V2000
    3.0291   -2.6143   -3.2698 C   0  0  0  0  0  0  0  0  0  0  0  0
    3.6786   -1.8678   -2.3442 C   0  0  0  0  0  0  0  0  0  0  0  0
    4.5679   -0.7011   -2.7692 C   0  0  0  0  0  0  0  0  0  0  0  0
    3.5124   -2.1906   -0.8488 C   0  0  2  0  0  0  0  0  0  0  0  0
    3.8379   -1.0254    0.1199 C   0  0  0  0  0  0  0  0  0  0  0  0
    5.1465   -1.3823    0.8327 C   0  0  0  0  0  0  0  0  0  0  0  0
    5.6582   -2.7088    0.2475 C   0  0  1  0  0  0  0  0  0  0  0  0
    6.7156   -2.4544   -0.8545 C   0  0  0  0  0  0  0  0  0  0  0  0
    6.5701   -2.9479   -1.9855 O   0  0  0  0  0  0  0  0  0  0  0  0
    7.7429   -1.8521   -0.4817 O   0  0  0  0  0  0  0  0  0  0  0  0
    6.4617   -3.5045    1.3070 C   0  0  0  0  0  0  0  0  0  0  0  0
    5.6657   -4.4754    2.1813 C   0  0  0  0  0  0  0  0  0  0  0  0
    4.6384   -5.3467    1.3853 C   0  0  2  0  0  0  0  0  0  0  0  0
    5.3816   -6.1048    0.2554 C   0  0  0  0  0  0  0  0  0  0  0  0
    3.6563   -4.3464    0.6861 C   0  0  1  0  0  0  0  0  0  0  0  0
    2.7527   -3.6747    1.7387 C   0  0  0  0  0  0  0  0  0  0  0  0
    2.0003   -4.7089    2.5557 C   0  0  0  0  0  0  0  0  0  0  0  0
    2.9070   -5.6992    3.3499 C   0  0  1  0  0  0  0  0  0  0  0  0
    2.0224   -6.6541    4.2718 C   0  0  2  0  0  0  0  0  0  0  0  0
    1.0867   -5.7134    5.0889 C   0  0  0  0  0  0  0  0  0  0  0  0
    2.8363   -7.4599    5.3348 C   0  0  0  0  0  0  0  0  0  0  0  0
    2.0070   -8.4690    6.1566 C   0  0  0  0  0  0  0  0  0  0  0  0
    1.2290   -9.4442    5.2506 C   0  0  1  0  0  0  0  0  0  0  0  0
    0.4254  -10.2122    6.1228 O   0  0  0  0  0  0  0  0  0  0  0  0
    0.3605   -8.7447    4.1474 C   0  0  0  0  0  0  0  0  0  0  0  0
   -0.1689   -9.8018    3.1249 C   0  0  0  0  0  0  0  0  0  0  0  0
   -0.8832   -8.0681    4.7725 C   0  0  0  0  0  0  0  0  0  0  0  0
    1.2426   -7.6892    3.3732 C   0  0  2  0  0  0  0  0  0  0  0  0
    2.2294   -8.3830    2.3902 C   0  0  0  0  0  0  0  0  0  0  0  0
    3.0792   -7.4275    1.5435 C   0  0  0  0  0  0  0  0  0  0  0  0
    3.9127   -6.4006    2.3526 C   0  0  1  0  0  0  0  0  0  0  0  0
    5.0391   -7.1643    3.1190 C   0  0  0  0  0  0  0  0  0  0  0  0
    4.3854   -3.3714   -0.3259 C   0  0  1  0  0  0  0  0  0  0  0  0
    3.1410   -2.3922   -4.3162 H   0  0  0  0  0  0  0  0  0  0  0  0
    2.3707   -3.4412   -3.0171 H   0  0  0  0  0  0  0  0  0  0  0  0
    5.5629   -0.8214   -2.3513 H   0  0  0  0  0  0  0  0  0  0  0  0
    4.0850    0.2549   -2.5154 H   0  0  0  0  0  0  0  0  0  0  0  0
    4.6049   -0.6837   -3.8683 H   0  0  0  0  0  0  0  0  0  0  0  0
    2.4630   -2.4906   -0.7611 H   0  0  0  0  0  0  0  0  0  0  0  0
    3.9678   -0.0535   -0.3388 H   0  0  0  0  0  0  0  0  0  0  0  0
    3.0116   -0.8873    0.8296 H   0  0  0  0  0  0  0  0  0  0  0  0
    5.8566   -0.5488    0.7903 H   0  0  0  0  0  0  0  0  0  0  0  0
    4.8995   -1.4946    1.8858 H   0  0  0  0  0  0  0  0  0  0  0  0
    7.2718   -4.0793    0.8641 H   0  0  0  0  0  0  0  0  0  0  0  0
    6.9707   -2.7843    1.9495 H   0  0  0  0  0  0  0  0  0  0  0  0
    6.4153   -5.0720    2.7053 H   0  0  0  0  0  0  0  0  0  0  0  0
    5.1671   -3.8972    2.9533 H   0  0  0  0  0  0  0  0  0  0  0  0
    4.6883   -6.5181   -0.4754 H   0  0  0  0  0  0  0  0  0  0  0  0
    6.0131   -6.9162    0.6076 H   0  0  0  0  0  0  0  0  0  0  0  0
    6.0533   -5.4573   -0.3105 H   0  0  0  0  0  0  0  0  0  0  0  0
    2.9865   -4.9198    0.0416 H   0  0  0  0  0  0  0  0  0  0  0  0
    3.3074   -3.0236    2.4101 H   0  0  0  0  0  0  0  0  0  0  0  0
    2.0091   -3.0351    1.2593 H   0  0  0  0  0  0  0  0  0  0  0  0
    1.3482   -4.1294    3.2056 H   0  0  0  0  0  0  0  0  0  0  0  0
    1.3456   -5.2565    1.8837 H   0  0  0  0  0  0  0  0  0  0  0  0
    3.5010   -5.0868    4.0271 H   0  0  0  0  0  0  0  0  0  0  0  0
    0.7639   -6.1176    6.0434 H   0  0  0  0  0  0  0  0  0  0  0  0
    0.1864   -5.4456    4.5367 H   0  0  0  0  0  0  0  0  0  0  0  0
    1.6033   -4.7948    5.3609 H   0  0  0  0  0  0  0  0  0  0  0  0
    3.5703   -8.1024    4.8734 H   0  0  0  0  0  0  0  0  0  0  0  0
    3.3781   -6.7878    6.0061 H   0  0  0  0  0  0  0  0  0  0  0  0
    2.6785   -9.0538    6.7919 H   0  0  0  0  0  0  0  0  0  0  0  0
    1.3346   -7.9701    6.8547 H   0  0  0  0  0  0  0  0  0  0  0  0
    1.9509  -10.1091    4.7605 H   0  0  0  0  0  0  0  0  0  0  0  0
    0.9576  -10.8806    6.5537 H   0  0  0  0  0  0  0  0  0  0  0  0
   -0.6299   -9.3163    2.2599 H   0  0  0  0  0  0  0  0  0  0  0  0
   -0.9802  -10.4445    3.4294 H   0  0  0  0  0  0  0  0  0  0  0  0
    0.6232  -10.4957    2.8332 H   0  0  0  0  0  0  0  0  0  0  0  0
   -1.3204   -7.2956    4.1369 H   0  0  0  0  0  0  0  0  0  0  0  0
   -0.6279   -7.6149    5.7181 H   0  0  0  0  0  0  0  0  0  0  0  0
   -1.6814   -8.7784    4.9982 H   0  0  0  0  0  0  0  0  0  0  0  0
    0.5379   -7.1415    2.7493 H   0  0  0  0  0  0  0  0  0  0  0  0
    2.8638   -9.0827    2.9271 H   0  0  0  0  0  0  0  0  0  0  0  0
    1.6838   -8.9931    1.6660 H   0  0  0  0  0  0  0  0  0  0  0  0
    3.7289   -8.0457    0.9183 H   0  0  0  0  0  0  0  0  0  0  0  0
    2.4085   -6.9162    0.8601 H   0  0  0  0  0  0  0  0  0  0  0  0
    4.8340   -8.2228    3.2325 H   0  0  0  0  0  0  0  0  0  0  0  0
    5.2157   -6.7230    4.0999 H   0  0  0  0  0  0  0  0  0  0  0  0
    6.0093   -7.1590    2.6276 H   0  0  0  0  0  0  0  0  0  0  0  0
    4.5973   -4.0093   -1.1903 H   0  0  0  0  0  0  0  0  0  0  0  0
  1  2  2  0
  1 34  1  0
  1 35  1  0
  2  3  1  0
  2  4  1  0
  3 36  1  0
  3 37  1  0
  3 38  1  0
  4 33  1  0
  4  5  1  0
  4 39  1  6
  5  6  1  0
  5 40  1  0
  5 41  1  0
  6  7  1  0
  6 42  1  0
  6 43  1  0
  7 33  1  0
  7  8  1  6
  7 11  1  0
  8  9  2  0
  8 10  1  0
 11 12  1  0
 11 44  1  0
 11 45  1  0
 12 13  1  0
 12 46  1  0
 12 47  1  0
 13 31  1  0
 13 14  1  6
 13 15  1  0
 14 48  1  0
 14 49  1  0
 14 50  1  0
 15 16  1  0
 15 33  1  0
 15 51  1  6
 16 17  1  0
 16 52  1  0
 16 53  1  0
 17 18  1  0
 17 54  1  0
 17 55  1  0
 18 31  1  0
 18 19  1  0
 18 56  1  1
 19 28  1  0
 19 20  1  1
 19 21  1  0
 20 57  1  0
 20 58  1  0
 20 59  1  0
 21 22  1  0
 21 60  1  0
 21 61  1  0
 22 23  1  0
 22 62  1  0
 22 63  1  0
 23 24  1  0
 23 25  1  0
 23 64  1  6
 24 65  1  0
 25 26  1  0
 25 27  1  0
 25 28  1  0
 26 66  1  0
 26 67  1  0
 26 68  1  0
 27 69  1  0
 27 70  1  0
 27 71  1  0
 28 29  1  0
 28 72  1  6
 29 30  1  0
 29 73  1  0
 29 74  1  0
 30 31  1  0
 30 75  1  0
 30 76  1  0
 31 32  1  1
 32 77  1  0
 32 78  1  0
 32 79  1  0
 33 80  1  6
M  CHG  1  10  -1
M  END
>  <i_m_ct_stereo_status>  (11) 
1

>  <s_m_source_file>  (11) 
/var/tmp/pbs.5076255.sched01/tmpuhafuy1n/0xc5aj8_e.sdf

>  <i_m_source_file_index>  (11) 
5

>  <i_lp_mmshare_version>  (11) 
48012

>  <i_f3d_flags>  (11) 
0

>  <s_epik_input>  (11) 
W0NIMl09QyhbQ0gzXSlbQ0BIXShbQ0gyXVtDSDJdMSlbQ0BASF0oW0NAQF0xMkMoPU8pW09IXSlbQ0BIXTNbQ0BAXShbQ0gzXSkoW0NIMl1bQ0gyXTIpW0NAQF00KFtDSDNdKVtDQEBIXShbQ0gyXVtDSDJdMylbQ0BAXTUoW0NIM10pW0NAQEhdKFtDSDJdW0NIMl00KUMoW0NIM10pKFtDSDNdKVtDQEhdKFtPSF0pW0NIMl1bQ0gyXTU=

>  <s_epik_cmdline>  (11) 
J2VwaWtfcHl0aG9uJywgJy1waHQnLCAnMi4wJywgJy1waCcsICc3LjAnLCAnLXRuJywgJzgnLCAnLW1hJywgJzIwMCcsICctaW1hZScsICc8aW5maWxlLm1hZT4nLCAnLW9tYWUnLCAnPG91dGZpbGUubWFlPic=

>  <r_epik_Ionization_Penalty>  (11) 
0.00776297

>  <r_epik_Ionization_Penalty_Charging>  (11) 
0.00775979

>  <r_epik_Ionization_Penalty_Neutral>  (11) 
3.18347e-06

>  <r_epik_State_Penalty>  (11) 
0.00581373

>  <r_epik_Charging_Adjusted_Penalty>  (11) 
0.0135735

>  <i_epik_Tot_Q>  (11) 
-1

>  <i_epik_Tot_abs_Q>  (11) 
1

>  <s_lp_Force_Field>  (11) 
OPLS3e

>  <r_lp_Energy>  (11) 
104.174

>  <b_lp_Chiralities_Consistent>  (11) 
1

>  <s_lp_Variant>  (11) 
3:0-1

>  <s_i_glide_gridfile>  (11) 
pfpi4k_grid

>  <i_i_glide_lignum>  (11) 
5

>  <i_i_glide_rotatable_bonds>  (11) 
3

>  <r_i_docking_score>  (11) 
-3.11638

>  <r_i_glide_ligand_efficiency>  (11) 
-0.0944358

>  <r_i_glide_ligand_efficiency_sa>  (11) 
-0.302906

>  <r_i_glide_ligand_efficiency_ln>  (11) 
-0.693067

>  <r_i_glide_gscore>  (11) 
-3.11638

>  <r_i_glide_lipo>  (11) 
-0.578451

>  <r_i_glide_hbond>  (11) 
-0.347122

>  <r_i_glide_metal>  (11) 
-0

>  <r_i_glide_rewards>  (11) 
-0.302097

>  <r_i_glide_evdw>  (11) 
-28.2959

>  <r_i_glide_ecoul>  (11) 
-3.54295

>  <r_i_glide_erotb>  (11) 
0.096752

>  <r_i_glide_esite>  (11) 
-0.0392241

>  <r_i_glide_emodel>  (11) 
-35.3877

>  <r_i_glide_energy>  (11) 
-31.8389

>  <r_i_glide_einternal>  (11) 
5.57808

>  <r_i_glide_intrahb_reward>  (11) 
-0

>  <i_i_glide_confnum>  (11) 
6

>  <i_i_glide_posenum>  (11) 
11

>  <r_i_glide_eff_state_penalty>  (11) 
0

>  <ligand_id>  (11) 
3

>  <original_smiles>  (11) 
C=C(C)C1CCC2(C(=O)O)CCC3(C)C(CCC4C5(C)CCC(O)C(C)(C)C5CCC43C)C12

>  <smiles>  (11) 
[H]OC1([H])C([H])([H])C([H])([H])C2(C([H])([H])[H])C([H])(C([H])([H])C([H])([H])C3(C([H])([H])[H])C2([H])C([H])([H])C([H])([H])C2([H])C4([H])C([H])(C(=C([H])[H])C([H])([H])[H])C([H])([H])C([H])([H])C4(C(=O)[O-])C([H])([H])C([H])([H])C23C([H])([H])[H])C1(C([H])([H])[H])C([H])([H])[H]

$$$$
3:0:2
     RDKit          3D

 80 84  0  0  1  0  0  0  0  0999 V2000
    2.3639    0.4456    1.0328 C   0  0  0  0  0  0  0  0  0  0  0  0
    2.6689    0.2769    2.2988 C   0  0  0  0  0  0  0  0  0  0  0  0
    2.3620    1.4569    3.2317 C   0  0  0  0  0  0  0  0  0  0  0  0
    3.2600   -0.9867    2.8896 C   0  0  2  0  0  0  0  0  0  0  0  0
    4.4984   -0.7180    3.7332 C   0  0  0  0  0  0  0  0  0  0  0  0
    5.6816   -1.3710    2.9991 C   0  0  0  0  0  0  0  0  0  0  0  0
    5.2442   -1.9157    1.6309 C   0  0  1  0  0  0  0  0  0  0  0  0
    5.4642   -0.8324    0.5458 C   0  0  0  0  0  0  0  0  0  0  0  0
    5.7874   -1.0993   -0.6227 O   0  0  0  0  0  0  0  0  0  0  0  0
    5.3609    0.3440    0.9116 O   0  0  0  0  0  0  0  0  0  0  0  0
    6.0438   -3.1715    1.1750 C   0  0  0  0  0  0  0  0  0  0  0  0
    5.4666   -4.5125    1.5733 C   0  0  0  0  0  0  0  0  0  0  0  0
    3.9232   -4.6294    1.3865 C   0  0  2  0  0  0  0  0  0  0  0  0
    3.5158   -4.2749   -0.0866 C   0  0  0  0  0  0  0  0  0  0  0  0
    3.2772   -3.5478    2.3015 C   0  0  1  0  0  0  0  0  0  0  0  0
    3.4598   -3.8865    3.7898 C   0  0  0  0  0  0  0  0  0  0  0  0
    2.8932   -5.2638    4.0986 C   0  0  0  0  0  0  0  0  0  0  0  0
    3.5417   -6.4328    3.2790 C   0  0  1  0  0  0  0  0  0  0  0  0
    2.9798   -7.8432    3.7676 C   0  0  2  0  0  0  0  0  0  0  0  0
    3.1552   -7.8435    5.3153 C   0  0  0  0  0  0  0  0  0  0  0  0
    3.7902   -9.0808    3.2647 C   0  0  0  0  0  0  0  0  0  0  0  0
    3.1842  -10.4413    3.6415 C   0  0  0  0  0  0  0  0  0  0  0  0
    1.7188  -10.5497    3.1964 C   0  0  1  0  0  0  0  0  0  0  0  0
    1.1878  -11.7706    3.6756 O   0  0  0  0  0  0  0  0  0  0  0  0
    0.8314   -9.3714    3.6855 C   0  0  0  0  0  0  0  0  0  0  0  0
   -0.5495   -9.4650    2.9925 C   0  0  0  0  0  0  0  0  0  0  0  0
    0.5648   -9.4797    5.2114 C   0  0  0  0  0  0  0  0  0  0  0  0
    1.4856   -7.9965    3.3039 C   0  0  2  0  0  0  0  0  0  0  0  0
    1.3638   -7.6902    1.7856 C   0  0  0  0  0  0  0  0  0  0  0  0
    1.9444   -6.3414    1.3382 C   0  0  0  0  0  0  0  0  0  0  0  0
    3.4362   -6.1095    1.7320 C   0  0  1  0  0  0  0  0  0  0  0  0
    4.3269   -7.0846    0.8944 C   0  0  0  0  0  0  0  0  0  0  0  0
    3.7076   -2.1076    1.8780 C   0  0  1  0  0  0  0  0  0  0  0  0
    1.8259    1.3378    0.8541 H   0  0  0  0  0  0  0  0  0  0  0  0
    2.5802   -0.2323    0.1898 H   0  0  0  0  0  0  0  0  0  0  0  0
    3.2535    1.8742    3.6991 H   0  0  0  0  0  0  0  0  0  0  0  0
    1.6468    1.1768    3.9908 H   0  0  0  0  0  0  0  0  0  0  0  0
    1.9450    2.2953    2.6762 H   0  0  0  0  0  0  0  0  0  0  0  0
    2.4427   -1.3218    3.4966 H   0  0  0  0  0  0  0  0  0  0  0  0
    4.7242    0.3305    3.9020 H   0  0  0  0  0  0  0  0  0  0  0  0
    4.3931   -1.1721    4.7140 H   0  0  0  0  0  0  0  0  0  0  0  0
    6.5301   -0.6938    2.9385 H   0  0  0  0  0  0  0  0  0  0  0  0
    5.9598   -2.2334    3.6131 H   0  0  0  0  0  0  0  0  0  0  0  0
    6.1260   -3.2501    0.0933 H   0  0  0  0  0  0  0  0  0  0  0  0
    7.0655   -3.0696    1.5216 H   0  0  0  0  0  0  0  0  0  0  0  0
    6.0166   -5.2351    0.9766 H   0  0  0  0  0  0  0  0  0  0  0  0
    5.7583   -4.7151    2.6008 H   0  0  0  0  0  0  0  0  0  0  0  0
    2.4412   -4.1377   -0.1976 H   0  0  0  0  0  0  0  0  0  0  0  0
    3.8239   -5.0232   -0.8017 H   0  0  0  0  0  0  0  0  0  0  0  0
    3.9640   -3.3666   -0.4628 H   0  0  0  0  0  0  0  0  0  0  0  0
    2.2012   -3.5443    2.1530 H   0  0  0  0  0  0  0  0  0  0  0  0
    4.4998   -3.8587    4.1098 H   0  0  0  0  0  0  0  0  0  0  0  0
    2.9274   -3.1863    4.4285 H   0  0  0  0  0  0  0  0  0  0  0  0
    3.0257   -5.3875    5.1743 H   0  0  0  0  0  0  0  0  0  0  0  0
    1.8120   -5.2317    3.9300 H   0  0  0  0  0  0  0  0  0  0  0  0
    4.6039   -6.4232    3.5350 H   0  0  0  0  0  0  0  0  0  0  0  0
    3.2491   -8.8295    5.7469 H   0  0  0  0  0  0  0  0  0  0  0  0
    2.3246   -7.3520    5.8225 H   0  0  0  0  0  0  0  0  0  0  0  0
    4.0792   -7.3440    5.6060 H   0  0  0  0  0  0  0  0  0  0  0  0
    3.8014   -9.1253    2.1879 H   0  0  0  0  0  0  0  0  0  0  0  0
    4.8243   -9.0198    3.5852 H   0  0  0  0  0  0  0  0  0  0  0  0
    3.7499  -11.2275    3.1454 H   0  0  0  0  0  0  0  0  0  0  0  0
    3.2744  -10.6565    4.7002 H   0  0  0  0  0  0  0  0  0  0  0  0
    1.6971  -10.5849    2.1055 H   0  0  0  0  0  0  0  0  0  0  0  0
    1.7078  -12.4982    3.3697 H   0  0  0  0  0  0  0  0  0  0  0  0
   -1.1838   -8.6026    3.1980 H   0  0  0  0  0  0  0  0  0  0  0  0
   -1.0702  -10.3467    3.3143 H   0  0  0  0  0  0  0  0  0  0  0  0
   -0.4675   -9.6067    1.9161 H   0  0  0  0  0  0  0  0  0  0  0  0
    0.2041   -8.5465    5.6337 H   0  0  0  0  0  0  0  0  0  0  0  0
    1.4378   -9.7990    5.7780 H   0  0  0  0  0  0  0  0  0  0  0  0
   -0.1621  -10.2506    5.4338 H   0  0  0  0  0  0  0  0  0  0  0  0
    0.8825   -7.2409    3.8116 H   0  0  0  0  0  0  0  0  0  0  0  0
    1.8100   -8.4944    1.2107 H   0  0  0  0  0  0  0  0  0  0  0  0
    0.3254   -7.6596    1.4812 H   0  0  0  0  0  0  0  0  0  0  0  0
    1.8244   -6.2718    0.2587 H   0  0  0  0  0  0  0  0  0  0  0  0
    1.3224   -5.5547    1.7643 H   0  0  0  0  0  0  0  0  0  0  0  0
    3.7947   -7.9417    0.5018 H   0  0  0  0  0  0  0  0  0  0  0  0
    5.1775   -7.4252    1.4814 H   0  0  0  0  0  0  0  0  0  0  0  0
    4.7506   -6.6443    0.0021 H   0  0  0  0  0  0  0  0  0  0  0  0
    3.1919   -2.0034    0.9353 H   0  0  0  0  0  0  0  0  0  0  0  0
  1  2  2  0
  1 34  1  0
  1 35  1  0
  2  3  1  0
  2  4  1  0
  3 36  1  0
  3 37  1  0
  3 38  1  0
  4 33  1  0
  4  5  1  0
  4 39  1  1
  5  6  1  0
  5 40  1  0
  5 41  1  0
  6  7  1  0
  6 42  1  0
  6 43  1  0
  7 33  1  0
  7  8  1  6
  7 11  1  0
  8  9  2  0
  8 10  1  0
 11 12  1  0
 11 44  1  0
 11 45  1  0
 12 13  1  0
 12 46  1  0
 12 47  1  0
 13 31  1  0
 13 14  1  6
 13 15  1  0
 14 48  1  0
 14 49  1  0
 14 50  1  0
 15 16  1  0
 15 33  1  0
 15 51  1  6
 16 17  1  0
 16 52  1  0
 16 53  1  0
 17 18  1  0
 17 54  1  0
 17 55  1  0
 18 31  1  0
 18 19  1  0
 18 56  1  1
 19 28  1  0
 19 20  1  1
 19 21  1  0
 20 57  1  0
 20 58  1  0
 20 59  1  0
 21 22  1  0
 21 60  1  0
 21 61  1  0
 22 23  1  0
 22 62  1  0
 22 63  1  0
 23 24  1  0
 23 25  1  0
 23 64  1  6
 24 65  1  0
 25 26  1  0
 25 27  1  0
 25 28  1  0
 26 66  1  0
 26 67  1  0
 26 68  1  0
 27 69  1  0
 27 70  1  0
 27 71  1  0
 28 29  1  0
 28 72  1  1
 29 30  1  0
 29 73  1  0
 29 74  1  0
 30 31  1  0
 30 75  1  0
 30 76  1  0
 31 32  1  6
 32 77  1  0
 32 78  1  0
 32 79  1  0
 33 80  1  6
M  CHG  1  10  -1
M  END
>  <i_m_ct_stereo_status>  (12) 
1

>  <s_m_source_file>  (12) 
/var/tmp/pbs.5076255.sched01/tmpuhafuy1n/0xc5aj8_e.sdf

>  <i_m_source_file_index>  (12) 
5

>  <i_lp_mmshare_version>  (12) 
48012

>  <i_f3d_flags>  (12) 
0

>  <s_epik_input>  (12) 
W0NIMl09QyhbQ0gzXSlbQ0BIXShbQ0gyXVtDSDJdMSlbQ0BASF0oW0NAQF0xMkMoPU8pW09IXSlbQ0BIXTNbQ0BAXShbQ0gzXSkoW0NIMl1bQ0gyXTIpW0NAQF00KFtDSDNdKVtDQEBIXShbQ0gyXVtDSDJdMylbQ0BAXTUoW0NIM10pW0NAQEhdKFtDSDJdW0NIMl00KUMoW0NIM10pKFtDSDNdKVtDQEhdKFtPSF0pW0NIMl1bQ0gyXTU=

>  <s_epik_cmdline>  (12) 
J2VwaWtfcHl0aG9uJywgJy1waHQnLCAnMi4wJywgJy1waCcsICc3LjAnLCAnLXRuJywgJzgnLCAnLW1hJywgJzIwMCcsICctaW1hZScsICc8aW5maWxlLm1hZT4nLCAnLW9tYWUnLCAnPG91dGZpbGUubWFlPic=

>  <r_epik_Ionization_Penalty>  (12) 
0.00776297

>  <r_epik_Ionization_Penalty_Charging>  (12) 
0.00775979

>  <r_epik_Ionization_Penalty_Neutral>  (12) 
3.18347e-06

>  <r_epik_State_Penalty>  (12) 
0.00581373

>  <r_epik_Charging_Adjusted_Penalty>  (12) 
0.0135735

>  <i_epik_Tot_Q>  (12) 
-1

>  <i_epik_Tot_abs_Q>  (12) 
1

>  <s_lp_Force_Field>  (12) 
OPLS3e

>  <r_lp_Energy>  (12) 
104.174

>  <b_lp_Chiralities_Consistent>  (12) 
1

>  <s_lp_Variant>  (12) 
3:0-1

>  <s_i_glide_gridfile>  (12) 
pfpi4k_grid

>  <i_i_glide_lignum>  (12) 
5

>  <i_i_glide_rotatable_bonds>  (12) 
3

>  <r_i_docking_score>  (12) 
-3.10707

>  <r_i_glide_ligand_efficiency>  (12) 
-0.0941535

>  <r_i_glide_ligand_efficiency_sa>  (12) 
-0.302001

>  <r_i_glide_ligand_efficiency_ln>  (12) 
-0.690995

>  <r_i_glide_gscore>  (12) 
-3.10707

>  <r_i_glide_lipo>  (12) 
-0.603861

>  <r_i_glide_hbond>  (12) 
-0.3572

>  <r_i_glide_metal>  (12) 
-0

>  <r_i_glide_rewards>  (12) 
-0.473608

>  <r_i_glide_evdw>  (12) 
-26.6385

>  <r_i_glide_ecoul>  (12) 
-2.91483

>  <r_i_glide_erotb>  (12) 
0.096752

>  <r_i_glide_esite>  (12) 
0

>  <r_i_glide_emodel>  (12) 
-31.524

>  <r_i_glide_energy>  (12) 
-29.5533

>  <r_i_glide_einternal>  (12) 
7.94468

>  <r_i_glide_intrahb_reward>  (12) 
-0

>  <i_i_glide_confnum>  (12) 
2

>  <i_i_glide_posenum>  (12) 
37

>  <r_i_glide_eff_state_penalty>  (12) 
0

>  <ligand_id>  (12) 
3

>  <original_smiles>  (12) 
C=C(C)C1CCC2(C(=O)O)CCC3(C)C(CCC4C5(C)CCC(O)C(C)(C)C5CCC43C)C12

>  <smiles>  (12) 
[H]OC1([H])C([H])([H])C([H])([H])C2(C([H])([H])[H])C([H])(C([H])([H])C([H])([H])C3(C([H])([H])[H])C2([H])C([H])([H])C([H])([H])C2([H])C4([H])C([H])(C(=C([H])[H])C([H])([H])[H])C([H])([H])C([H])([H])C4(C(=O)[O-])C([H])([H])C([H])([H])C23C([H])([H])[H])C1(C([H])([H])[H])C([H])([H])[H]

$$$$
4:0:0
     RDKit          3D

 65 69  0  0  1  0  0  0  0  0999 V2000
    6.4178  -10.6749    5.6591 C   0  0  0  0  0  0  0  0  0  0  0  0
    5.6422   -9.5038    5.8913 O   0  0  0  0  0  0  0  0  0  0  0  0
    4.6499   -9.2401    4.9018 C   0  0  2  0  0  0  0  0  0  0  0  0
    4.6021   -7.6892    4.8599 C   0  0  2  0  0  0  0  0  0  0  0  0
    3.4602   -7.1619    3.9069 C   0  0  2  0  0  0  0  0  0  0  0  0
    4.9034   -6.6326    3.8848 C   0  0  0  0  0  0  0  0  0  0  0  0
    5.1794   -5.2003    4.3210 C   0  0  0  0  0  0  0  0  0  0  0  0
    5.8253   -6.9905    2.7335 C   0  0  0  0  0  0  0  0  0  0  0  0
    2.1820   -7.2815    4.8031 C   0  0  1  0  0  0  0  0  0  0  0  0
    2.0908   -5.9297    5.5786 C   0  0  0  0  0  0  0  0  0  0  0  0
    0.7252   -7.5304    4.0028 C   0  0  2  0  0  0  0  0  0  0  0  0
    0.0490   -6.2808    3.8495 O   0  0  0  0  0  0  0  0  0  0  0  0
    0.0421   -8.3136    5.0895 C   0  0  0  0  0  0  0  0  0  0  0  0
    1.1241   -9.2997    5.4479 C   0  0  1  0  0  0  0  0  0  0  0  0
    0.4705  -10.0728    6.4442 O   0  0  0  0  0  0  0  0  0  0  0  0
    2.0608  -10.0336    4.3722 C   0  0  2  0  0  0  0  0  0  0  0  0
    2.6977   -9.6406    3.1620 O   0  0  0  0  0  0  0  0  0  0  0  0
    1.2436  -11.0359    3.5895 C   0  0  1  0  0  0  0  0  0  0  0  0
    0.6135  -11.9891    4.4198 O   0  0  0  0  0  0  0  0  0  0  0  0
    0.1646  -10.1092    2.8453 C   0  0  0  0  0  0  0  0  0  0  0  0
    0.3092   -8.4695    2.7089 C   0  0  1  0  0  0  0  0  0  0  0  0
   -1.0798   -8.0601    2.1364 C   0  0  0  0  0  0  0  0  0  0  0  0
    1.1173   -8.1125    1.6074 O   0  0  0  0  0  0  0  0  0  0  0  0
    3.2230   -9.7919    5.3697 C   0  0  1  0  0  0  0  0  0  0  0  0
    3.4300  -10.8629    6.2840 O   0  0  0  0  0  0  0  0  0  0  0  0
    2.3377   -8.5425    5.8256 C   0  0  1  0  0  0  0  0  0  0  0  0
    2.5651   -8.1941    7.3261 C   0  0  0  0  0  0  0  0  0  0  0  0
    1.4169   -7.6430    7.9744 O   0  0  0  0  0  0  0  0  0  0  0  0
    0.7882   -8.2397    9.0240 C   0  0  0  0  0  0  0  0  0  0  0  0
    1.3394   -9.5898    9.4690 C   0  0  0  0  0  0  0  0  0  0  0  0
   -0.1738   -7.7361    9.5924 O   0  0  0  0  0  0  0  0  0  0  0  0
    7.1046  -10.8553    6.4905 H   0  0  0  0  0  0  0  0  0  0  0  0
    7.0077  -10.5581    4.7514 H   0  0  0  0  0  0  0  0  0  0  0  0
    5.7936  -11.5600    5.5496 H   0  0  0  0  0  0  0  0  0  0  0  0
    4.9872   -9.6374    3.9414 H   0  0  0  0  0  0  0  0  0  0  0  0
    4.6818   -7.2934    5.8787 H   0  0  0  0  0  0  0  0  0  0  0  0
    3.2688   -7.4460    2.8690 H   0  0  0  0  0  0  0  0  0  0  0  0
    4.9283   -4.5163    3.5120 H   0  0  0  0  0  0  0  0  0  0  0  0
    6.2305   -5.0620    4.5743 H   0  0  0  0  0  0  0  0  0  0  0  0
    4.5895   -4.9207    5.1931 H   0  0  0  0  0  0  0  0  0  0  0  0
    5.6554   -6.3178    1.8947 H   0  0  0  0  0  0  0  0  0  0  0  0
    5.6396   -8.0142    2.3984 H   0  0  0  0  0  0  0  0  0  0  0  0
    6.8694   -6.9152    3.0429 H   0  0  0  0  0  0  0  0  0  0  0  0
    1.1708   -5.8232    6.1590 H   0  0  0  0  0  0  0  0  0  0  0  0
    2.1471   -5.0823    4.8899 H   0  0  0  0  0  0  0  0  0  0  0  0
    2.9112   -5.7958    6.2817 H   0  0  0  0  0  0  0  0  0  0  0  0
    0.1735   -5.7970    4.6491 H   0  0  0  0  0  0  0  0  0  0  0  0
   -0.1723   -7.6826    5.9477 H   0  0  0  0  0  0  0  0  0  0  0  0
   -0.9100   -8.7758    4.8329 H   0  0  0  0  0  0  0  0  0  0  0  0
    0.9992  -10.8294    6.6829 H   0  0  0  0  0  0  0  0  0  0  0  0
    3.0943  -10.4145    2.7897 H   0  0  0  0  0  0  0  0  0  0  0  0
    1.8070  -11.6416    2.8750 H   0  0  0  0  0  0  0  0  0  0  0  0
   -0.0034  -11.5279    4.9757 H   0  0  0  0  0  0  0  0  0  0  0  0
    0.0296  -10.5410    1.8523 H   0  0  0  0  0  0  0  0  0  0  0  0
   -0.8006  -10.2932    3.3164 H   0  0  0  0  0  0  0  0  0  0  0  0
   -1.8714   -8.1479    2.8836 H   0  0  0  0  0  0  0  0  0  0  0  0
   -1.3662   -8.6870    1.2854 H   0  0  0  0  0  0  0  0  0  0  0  0
   -1.0812   -7.0336    1.7685 H   0  0  0  0  0  0  0  0  0  0  0  0
    0.8768   -8.6920    0.8968 H   0  0  0  0  0  0  0  0  0  0  0  0
    2.6136  -11.2977    6.4876 H   0  0  0  0  0  0  0  0  0  0  0  0
    2.9031   -9.0878    7.8463 H   0  0  0  0  0  0  0  0  0  0  0  0
    3.3747   -7.4646    7.4360 H   0  0  0  0  0  0  0  0  0  0  0  0
    1.3809  -10.2863    8.6285 H   0  0  0  0  0  0  0  0  0  0  0  0
    0.7270  -10.0333   10.2409 H   0  0  0  0  0  0  0  0  0  0  0  0
    2.3510   -9.4744    9.8693 H   0  0  0  0  0  0  0  0  0  0  0  0
  1  2  1  0
  1 32  1  0
  1 33  1  0
  1 34  1  0
  2  3  1  0
  3 24  1  0
  3  4  1  0
  3 35  1  6
  4  6  1  0
  4  5  1  0
  4 36  1  1
  5  6  1  0
  5  9  1  0
  5 37  1  6
  6  7  1  0
  6  8  1  0
  7 38  1  0
  7 39  1  0
  7 40  1  0
  8 41  1  0
  8 42  1  0
  8 43  1  0
  9 26  1  0
  9 10  1  1
  9 11  1  0
 10 44  1  0
 10 45  1  0
 10 46  1  0
 11 21  1  0
 11 12  1  6
 11 13  1  0
 12 47  1  0
 13 14  1  0
 13 48  1  0
 13 49  1  0
 14 26  1  0
 14 15  1  1
 14 16  1  0
 15 50  1  0
 16 17  1  6
 16 18  1  0
 16 24  1  0
 17 51  1  0
 18 19  1  0
 18 20  1  0
 18 52  1  6
 19 53  1  0
 20 21  1  0
 20 54  1  0
 20 55  1  0
 21 22  1  0
 21 23  1  6
 22 56  1  0
 22 57  1  0
 22 58  1  0
 23 59  1  0
 24 25  1  1
 24 26  1  0
 25 60  1  0
 26 27  1  1
 27 28  1  0
 27 61  1  0
 27 62  1  0
 28 29  1  0
 29 30  1  0
 29 31  2  0
 30 63  1  0
 30 64  1  0
 30 65  1  0
M  END
>  <i_m_ct_stereo_status>  (13) 
1

>  <s_m_source_file>  (13) 
/var/tmp/pbs.5076255.sched01/tmpuhafuy1n/0xc5aj8_e.sdf

>  <i_m_source_file_index>  (13) 
6

>  <i_lp_mmshare_version>  (13) 
48012

>  <i_f3d_flags>  (13) 
0

>  <s_epik_input>  (13) 
W0NIM11bQ0BdMTJbQ0BASF0zW0NASF0oQzMoW0NIM10pW0NIM10pW0NAQEhdKE9bQ0gzXSlbQ0BdNChbT0hdKUM1KFtPSF0pW0NAQF0oW09IXSkoW0NAXTI0W0NIMl1PQyg9TylbQ0gzXSlbQ0gyXVtDQF0xKFtPSF0pW0NAQF0oW0NIM10pKFtPSF0pW0NIMl1bQ0BASF01W09IXQ==

>  <s_epik_cmdline>  (13) 
J2VwaWtfcHl0aG9uJywgJy1waHQnLCAnMi4wJywgJy1waCcsICc3LjAnLCAnLXRuJywgJzgnLCAnLW1hJywgJzIwMCcsICctaW1hZScsICc8aW5maWxlLm1hZT4nLCAnLW9tYWUnLCAnPG91dGZpbGUubWFlPic=

>  <r_lp_tautomer_probability>  (13) 
1

>  <r_epik_Ionization_Penalty>  (13) 
5.03386e-07

>  <r_epik_Ionization_Penalty_Charging>  (13) 
0

>  <r_epik_Ionization_Penalty_Neutral>  (13) 
5.03386e-07

>  <r_epik_State_Penalty>  (13) 
-0

>  <r_epik_Charging_Adjusted_Penalty>  (13) 
0

>  <i_epik_Tot_Q>  (13) 
0

>  <i_epik_Tot_abs_Q>  (13) 
0

>  <s_epik_Chemistry_Notes>  (13) 
This compound has an ester and may undergo hydrolysis at high or low pH.

>  <s_lp_Force_Field>  (13) 
OPLS3e

>  <r_lp_Energy>  (13) 
213.587

>  <b_lp_Chiralities_Consistent>  (13) 
1

>  <s_lp_Variant>  (13) 
4:0-1

>  <s_i_glide_gridfile>  (13) 
pfpi4k_grid

>  <i_i_glide_lignum>  (13) 
6

>  <i_i_glide_rotatable_bonds>  (13) 
10

>  <r_i_docking_score>  (13) 
-3.9533

>  <r_i_glide_ligand_efficiency>  (13) 
-0.127526

>  <r_i_glide_ligand_efficiency_sa>  (13) 
-0.400607

>  <r_i_glide_ligand_efficiency_ln>  (13) 
-0.89159

>  <r_i_glide_gscore>  (13) 
-3.9533

>  <r_i_glide_lipo>  (13) 
-0.233729

>  <r_i_glide_hbond>  (13) 
-0.32

>  <r_i_glide_metal>  (13) 
-0

>  <r_i_glide_rewards>  (13) 
-0.392046

>  <r_i_glide_evdw>  (13) 
-17.4327

>  <r_i_glide_ecoul>  (13) 
-15.3953

>  <r_i_glide_erotb>  (13) 
0.204119

>  <r_i_glide_esite>  (13) 
-0.0307145

>  <r_i_glide_emodel>  (13) 
-37.2664

>  <r_i_glide_energy>  (13) 
-32.828

>  <r_i_glide_einternal>  (13) 
9.39211

>  <r_i_glide_intrahb_reward>  (13) 
-0

>  <i_i_glide_confnum>  (13) 
3

>  <i_i_glide_posenum>  (13) 
16

>  <r_i_glide_eff_state_penalty>  (13) 
0

>  <ligand_id>  (13) 
4

>  <original_smiles>  (13) 
COC1C2C(C2(C)C)C2(C)C3(O)CC4(O)C(O)(C(O)CC3(C)O)C1(O)C42COC(C)=O

>  <smiles>  (13) 
[H]OC1([H])C([H])([H])C(O[H])(C([H])([H])[H])C2(O[H])C([H])([H])C3(O[H])C1(O[H])C1(O[H])C([H])(OC([H])([H])[H])C4([H])C([H])(C4(C([H])([H])[H])C([H])([H])[H])C2(C([H])([H])[H])C31C([H])([H])OC(=O)C([H])([H])[H]

$$$$
4:0:1
     RDKit          3D

 65 69  0  0  1  0  0  0  0  0999 V2000
    6.4195   -8.6822    1.0295 C   0  0  0  0  0  0  0  0  0  0  0  0
    5.6818   -9.0368    2.1758 O   0  0  0  0  0  0  0  0  0  0  0  0
    4.3432   -8.5542    2.1492 C   0  0  2  0  0  0  0  0  0  0  0  0
    4.4244   -7.1289    2.7341 C   0  0  2  0  0  0  0  0  0  0  0  0
    3.0239   -6.4769    3.0005 C   0  0  2  0  0  0  0  0  0  0  0  0
    4.1774   -5.7479    2.2729 C   0  0  0  0  0  0  0  0  0  0  0  0
    4.8125   -4.5352    2.9371 C   0  0  0  0  0  0  0  0  0  0  0  0
    4.1203   -5.5081    0.7812 C   0  0  0  0  0  0  0  0  0  0  0  0
    2.5973   -7.1205    4.3538 C   0  0  1  0  0  0  0  0  0  0  0  0
    3.1537   -6.1617    5.4431 C   0  0  0  0  0  0  0  0  0  0  0  0
    0.9448   -7.3065    4.5930 C   0  0  2  0  0  0  0  0  0  0  0  0
    0.4774   -6.2017    5.3540 O   0  0  0  0  0  0  0  0  0  0  0  0
    1.0163   -8.5243    5.4778 C   0  0  0  0  0  0  0  0  0  0  0  0
    1.9874   -9.3655    4.6947 C   0  0  1  0  0  0  0  0  0  0  0  0
    2.1556  -10.5373    5.4420 O   0  0  0  0  0  0  0  0  0  0  0  0
    1.9414   -9.4994    3.1073 C   0  0  2  0  0  0  0  0  0  0  0  0
    1.6829   -8.6237    2.0319 O   0  0  0  0  0  0  0  0  0  0  0  0
    0.7132  -10.2691    2.7047 C   0  0  1  0  0  0  0  0  0  0  0  0
    0.6190  -11.5313    3.3124 O   0  0  0  0  0  0  0  0  0  0  0  0
   -0.4852   -9.3256    3.1679 C   0  0  0  0  0  0  0  0  0  0  0  0
   -0.2881   -7.7553    3.5882 C   0  0  1  0  0  0  0  0  0  0  0  0
   -1.6643   -7.4014    4.2002 C   0  0  0  0  0  0  0  0  0  0  0  0
   -0.3177   -6.9232    2.4414 O   0  0  0  0  0  0  0  0  0  0  0  0
    3.4904   -9.4380    3.1400 C   0  0  1  0  0  0  0  0  0  0  0  0
    4.0540  -10.7197    3.2116 O   0  0  0  0  0  0  0  0  0  0  0  0
    3.2234   -8.5948    4.4790 C   0  0  1  0  0  0  0  0  0  0  0  0
    4.3424   -8.7889    5.5453 C   0  0  0  0  0  0  0  0  0  0  0  0
    3.9064   -8.5940    6.8883 O   0  0  0  0  0  0  0  0  0  0  0  0
    4.7458   -8.8134    7.9055 C   0  0  0  0  0  0  0  0  0  0  0  0
    4.0914   -8.5688    9.2598 C   0  0  0  0  0  0  0  0  0  0  0  0
    5.9239   -9.1555    7.8101 O   0  0  0  0  0  0  0  0  0  0  0  0
    7.4083   -9.1254    1.0617 H   0  0  0  0  0  0  0  0  0  0  0  0
    6.5399   -7.6007    0.9402 H   0  0  0  0  0  0  0  0  0  0  0  0
    5.9158   -9.0677    0.1500 H   0  0  0  0  0  0  0  0  0  0  0  0
    3.9447   -8.5467    1.1439 H   0  0  0  0  0  0  0  0  0  0  0  0
    5.1624   -7.0935    3.5294 H   0  0  0  0  0  0  0  0  0  0  0  0
    2.2118   -6.3962    2.2987 H   0  0  0  0  0  0  0  0  0  0  0  0
    4.1817   -3.6561    2.7950 H   0  0  0  0  0  0  0  0  0  0  0  0
    5.7974   -4.3270    2.5196 H   0  0  0  0  0  0  0  0  0  0  0  0
    4.9345   -4.6866    4.0102 H   0  0  0  0  0  0  0  0  0  0  0  0
    3.5337   -4.6191    0.5566 H   0  0  0  0  0  0  0  0  0  0  0  0
    3.6606   -6.3644    0.2832 H   0  0  0  0  0  0  0  0  0  0  0  0
    5.1285   -5.3832    0.3802 H   0  0  0  0  0  0  0  0  0  0  0  0
    2.8020   -6.4025    6.4492 H   0  0  0  0  0  0  0  0  0  0  0  0
    2.8580   -5.1298    5.2471 H   0  0  0  0  0  0  0  0  0  0  0  0
    4.2435   -6.1642    5.4853 H   0  0  0  0  0  0  0  0  0  0  0  0
    0.5482   -5.4375    4.8025 H   0  0  0  0  0  0  0  0  0  0  0  0
    1.4411   -8.2615    6.4436 H   0  0  0  0  0  0  0  0  0  0  0  0
    0.0714   -9.0047    5.7176 H   0  0  0  0  0  0  0  0  0  0  0  0
    1.3065  -10.8646    5.7192 H   0  0  0  0  0  0  0  0  0  0  0  0
    1.3772   -9.1527    1.2983 H   0  0  0  0  0  0  0  0  0  0  0  0
    0.6223  -10.5120    1.6505 H   0  0  0  0  0  0  0  0  0  0  0  0
    1.3887  -12.0543    3.1075 H   0  0  0  0  0  0  0  0  0  0  0  0
   -1.2807   -9.4053    2.4206 H   0  0  0  0  0  0  0  0  0  0  0  0
   -0.8876   -9.8336    4.0382 H   0  0  0  0  0  0  0  0  0  0  0  0
   -1.7817   -7.9269    5.1438 H   0  0  0  0  0  0  0  0  0  0  0  0
   -2.4908   -7.7245    3.5585 H   0  0  0  0  0  0  0  0  0  0  0  0
   -1.8042   -6.3330    4.3788 H   0  0  0  0  0  0  0  0  0  0  0  0
    0.4019   -7.2546    1.9162 H   0  0  0  0  0  0  0  0  0  0  0  0
    4.0572  -11.0840    2.3291 H   0  0  0  0  0  0  0  0  0  0  0  0
    4.7198   -9.8118    5.4858 H   0  0  0  0  0  0  0  0  0  0  0  0
    5.2074   -8.1573    5.3496 H   0  0  0  0  0  0  0  0  0  0  0  0
    3.6238   -7.5850    9.2794 H   0  0  0  0  0  0  0  0  0  0  0  0
    4.8282   -8.6165   10.0618 H   0  0  0  0  0  0  0  0  0  0  0  0
    3.3258   -9.3213    9.4491 H   0  0  0  0  0  0  0  0  0  0  0  0
  1  2  1  0
  1 32  1  0
  1 33  1  0
  1 34  1  0
  2  3  1  0
  3 24  1  0
  3  4  1  0
  3 35  1  6
  4  6  1  0
  4  5  1  0
  4 36  1  1
  5  6  1  0
  5  9  1  0
  5 37  1  6
  6  7  1  0
  6  8  1  0
  7 38  1  0
  7 39  1  0
  7 40  1  0
  8 41  1  0
  8 42  1  0
  8 43  1  0
  9 26  1  0
  9 10  1  1
  9 11  1  0
 10 44  1  0
 10 45  1  0
 10 46  1  0
 11 21  1  0
 11 12  1  1
 11 13  1  0
 12 47  1  0
 13 14  1  0
 13 48  1  0
 13 49  1  0
 14 26  1  0
 14 15  1  1
 14 16  1  0
 15 50  1  0
 16 17  1  6
 16 18  1  0
 16 24  1  0
 17 51  1  0
 18 19  1  0
 18 20  1  0
 18 52  1  6
 19 53  1  0
 20 21  1  0
 20 54  1  0
 20 55  1  0
 21 22  1  0
 21 23  1  6
 22 56  1  0
 22 57  1  0
 22 58  1  0
 23 59  1  0
 24 25  1  1
 24 26  1  0
 25 60  1  0
 26 27  1  1
 27 28  1  0
 27 61  1  0
 27 62  1  0
 28 29  1  0
 29 30  1  0
 29 31  2  0
 30 63  1  0
 30 64  1  0
 30 65  1  0
M  END
>  <i_m_ct_stereo_status>  (14) 
1

>  <s_m_source_file>  (14) 
/var/tmp/pbs.5076255.sched01/tmpuhafuy1n/0xc5aj8_e.sdf

>  <i_m_source_file_index>  (14) 
6

>  <i_lp_mmshare_version>  (14) 
48012

>  <i_f3d_flags>  (14) 
0

>  <s_epik_input>  (14) 
W0NIM11bQ0BdMTJbQ0BASF0zW0NASF0oQzMoW0NIM10pW0NIM10pW0NAQEhdKE9bQ0gzXSlbQ0BdNChbT0hdKUM1KFtPSF0pW0NAQF0oW09IXSkoW0NAXTI0W0NIMl1PQyg9TylbQ0gzXSlbQ0gyXVtDQF0xKFtPSF0pW0NAQF0oW0NIM10pKFtPSF0pW0NIMl1bQ0BASF01W09IXQ==

>  <s_epik_cmdline>  (14) 
J2VwaWtfcHl0aG9uJywgJy1waHQnLCAnMi4wJywgJy1waCcsICc3LjAnLCAnLXRuJywgJzgnLCAnLW1hJywgJzIwMCcsICctaW1hZScsICc8aW5maWxlLm1hZT4nLCAnLW9tYWUnLCAnPG91dGZpbGUubWFlPic=

>  <r_lp_tautomer_probability>  (14) 
1

>  <r_epik_Ionization_Penalty>  (14) 
5.03386e-07

>  <r_epik_Ionization_Penalty_Charging>  (14) 
0

>  <r_epik_Ionization_Penalty_Neutral>  (14) 
5.03386e-07

>  <r_epik_State_Penalty>  (14) 
-0

>  <r_epik_Charging_Adjusted_Penalty>  (14) 
0

>  <i_epik_Tot_Q>  (14) 
0

>  <i_epik_Tot_abs_Q>  (14) 
0

>  <s_epik_Chemistry_Notes>  (14) 
This compound has an ester and may undergo hydrolysis at high or low pH.

>  <s_lp_Force_Field>  (14) 
OPLS3e

>  <r_lp_Energy>  (14) 
213.587

>  <b_lp_Chiralities_Consistent>  (14) 
1

>  <s_lp_Variant>  (14) 
4:0-1

>  <s_i_glide_gridfile>  (14) 
pfpi4k_grid

>  <i_i_glide_lignum>  (14) 
6

>  <i_i_glide_rotatable_bonds>  (14) 
10

>  <r_i_docking_score>  (14) 
-3.12044

>  <r_i_glide_ligand_efficiency>  (14) 
-0.100659

>  <r_i_glide_ligand_efficiency_sa>  (14) 
-0.316209

>  <r_i_glide_ligand_efficiency_ln>  (14) 
-0.703755

>  <r_i_glide_gscore>  (14) 
-3.12044

>  <r_i_glide_lipo>  (14) 
-0.300036

>  <r_i_glide_hbond>  (14) 
0

>  <r_i_glide_metal>  (14) 
-0

>  <r_i_glide_rewards>  (14) 
-0.892046

>  <r_i_glide_evdw>  (14) 
-18.1323

>  <r_i_glide_ecoul>  (14) 
-8.15986

>  <r_i_glide_erotb>  (14) 
0.204119

>  <r_i_glide_esite>  (14) 
-0.00188551

>  <r_i_glide_emodel>  (14) 
-36.0854

>  <r_i_glide_energy>  (14) 
-26.2921

>  <r_i_glide_einternal>  (14) 
4.96556

>  <r_i_glide_intrahb_reward>  (14) 
-0.5

>  <i_i_glide_confnum>  (14) 
3

>  <i_i_glide_posenum>  (14) 
37

>  <r_i_glide_eff_state_penalty>  (14) 
0

>  <ligand_id>  (14) 
4

>  <original_smiles>  (14) 
COC1C2C(C2(C)C)C2(C)C3(O)CC4(O)C(O)(C(O)CC3(C)O)C1(O)C42COC(C)=O

>  <smiles>  (14) 
[H]OC1([H])C([H])([H])C(O[H])(C([H])([H])[H])C2(O[H])C([H])([H])C3(O[H])C1(O[H])C1(O[H])C([H])(OC([H])([H])[H])C4([H])C([H])(C4(C([H])([H])[H])C([H])([H])[H])C2(C([H])([H])[H])C31C([H])([H])OC(=O)C([H])([H])[H]

$$$$
4:0:2
     RDKit          3D

 65 69  0  0  1  0  0  0  0  0999 V2000
    6.5071   -6.7329    3.1610 C   0  0  0  0  0  0  0  0  0  0  0  0
    5.3614   -6.1790    3.7920 O   0  0  0  0  0  0  0  0  0  0  0  0
    4.1336   -6.6083    3.2094 C   0  0  2  0  0  0  0  0  0  0  0  0
    3.2330   -5.3669    3.3908 C   0  0  2  0  0  0  0  0  0  0  0  0
    1.7425   -5.6148    2.9621 C   0  0  2  0  0  0  0  0  0  0  0  0
    2.5563   -4.3749    2.5249 C   0  0  0  0  0  0  0  0  0  0  0  0
    2.1469   -3.0030    3.0230 C   0  0  0  0  0  0  0  0  0  0  0  0
    3.0500   -4.2319    1.1070 C   0  0  0  0  0  0  0  0  0  0  0  0
    1.1392   -6.3475    4.2000 C   0  0  1  0  0  0  0  0  0  0  0  0
    0.5929   -5.2132    5.1115 C   0  0  0  0  0  0  0  0  0  0  0  0
   -0.1027   -7.4261    3.8851 C   0  0  2  0  0  0  0  0  0  0  0  0
   -1.3405   -6.7736    4.1311 O   0  0  0  0  0  0  0  0  0  0  0  0
    0.1586   -8.3838    5.0214 C   0  0  0  0  0  0  0  0  0  0  0  0
    1.6445   -8.5477    4.8925 C   0  0  1  0  0  0  0  0  0  0  0  0
    2.0052   -9.4149    5.9383 O   0  0  0  0  0  0  0  0  0  0  0  0
    2.3827   -8.7359    3.4883 C   0  0  2  0  0  0  0  0  0  0  0  0
    2.2704   -8.1610    2.2137 O   0  0  0  0  0  0  0  0  0  0  0  0
    2.0311  -10.0623    2.8416 C   0  0  1  0  0  0  0  0  0  0  0  0
    2.2678  -11.1447    3.7240 O   0  0  0  0  0  0  0  0  0  0  0  0
    0.4530   -9.9345    2.6170 C   0  0  0  0  0  0  0  0  0  0  0  0
   -0.3525   -8.4999    2.6676 C   0  0  1  0  0  0  0  0  0  0  0  0
   -1.8329   -8.9518    2.6252 C   0  0  0  0  0  0  0  0  0  0  0  0
   -0.2484   -7.7966    1.4251 O   0  0  0  0  0  0  0  0  0  0  0  0
    3.4847   -7.7905    4.0532 C   0  0  1  0  0  0  0  0  0  0  0  0
    4.4803   -8.5297    4.7064 O   0  0  0  0  0  0  0  0  0  0  0  0
    2.2769   -7.2076    4.9255 C   0  0  1  0  0  0  0  0  0  0  0  0
    2.7374   -6.7064    6.3187 C   0  0  0  0  0  0  0  0  0  0  0  0
    1.7197   -6.7441    7.3175 O   0  0  0  0  0  0  0  0  0  0  0  0
    1.9366   -6.1744    8.5044 C   0  0  0  0  0  0  0  0  0  0  0  0
    0.7266   -6.2988    9.4252 C   0  0  0  0  0  0  0  0  0  0  0  0
    2.9563   -5.5940    8.8534 O   0  0  0  0  0  0  0  0  0  0  0  0
    7.4215   -6.4436    3.6894 H   0  0  0  0  0  0  0  0  0  0  0  0
    6.5807   -6.3663    2.1373 H   0  0  0  0  0  0  0  0  0  0  0  0
    6.4711   -7.8195    3.1323 H   0  0  0  0  0  0  0  0  0  0  0  0
    4.2509   -6.8070    2.1533 H   0  0  0  0  0  0  0  0  0  0  0  0
    3.4224   -4.9112    4.3634 H   0  0  0  0  0  0  0  0  0  0  0  0
    1.4106   -6.0434    2.0234 H   0  0  0  0  0  0  0  0  0  0  0  0
    1.3055   -2.6347    2.4396 H   0  0  0  0  0  0  0  0  0  0  0  0
    2.9630   -2.2891    2.9338 H   0  0  0  0  0  0  0  0  0  0  0  0
    1.8402   -3.0350    4.0702 H   0  0  0  0  0  0  0  0  0  0  0  0
    2.2699   -3.8204    0.4733 H   0  0  0  0  0  0  0  0  0  0  0  0
    3.3496   -5.2089    0.7148 H   0  0  0  0  0  0  0  0  0  0  0  0
    3.9171   -3.5685    1.0775 H   0  0  0  0  0  0  0  0  0  0  0  0
   -0.0011   -5.5844    5.9507 H   0  0  0  0  0  0  0  0  0  0  0  0
   -0.0519   -4.5375    4.5464 H   0  0  0  0  0  0  0  0  0  0  0  0
    1.3913   -4.6038    5.5325 H   0  0  0  0  0  0  0  0  0  0  0  0
   -1.9962   -7.4504    4.2081 H   0  0  0  0  0  0  0  0  0  0  0  0
   -0.0904   -7.9043    5.9731 H   0  0  0  0  0  0  0  0  0  0  0  0
   -0.4181   -9.3084    5.0192 H   0  0  0  0  0  0  0  0  0  0  0  0
    1.6446  -10.2680    5.7253 H   0  0  0  0  0  0  0  0  0  0  0  0
    1.4950   -8.5402    1.8085 H   0  0  0  0  0  0  0  0  0  0  0  0
    2.5561  -10.2996    1.9114 H   0  0  0  0  0  0  0  0  0  0  0  0
    2.1178  -11.9685    3.2786 H   0  0  0  0  0  0  0  0  0  0  0  0
    0.2135  -10.4661    1.6880 H   0  0  0  0  0  0  0  0  0  0  0  0
   -0.0219  -10.5810    3.3593 H   0  0  0  0  0  0  0  0  0  0  0  0
   -2.1500   -9.4237    3.5532 H   0  0  0  0  0  0  0  0  0  0  0  0
   -1.9931   -9.7016    1.8468 H   0  0  0  0  0  0  0  0  0  0  0  0
   -2.5232   -8.1341    2.4072 H   0  0  0  0  0  0  0  0  0  0  0  0
   -0.3166   -8.4602    0.7207 H   0  0  0  0  0  0  0  0  0  0  0  0
    4.0160   -9.2595    5.1109 H   0  0  0  0  0  0  0  0  0  0  0  0
    3.5413   -7.3484    6.6924 H   0  0  0  0  0  0  0  0  0  0  0  0
    3.1791   -5.7118    6.2627 H   0  0  0  0  0  0  0  0  0  0  0  0
   -0.1666   -5.9392    8.9176 H   0  0  0  0  0  0  0  0  0  0  0  0
    0.8743   -5.7077   10.3308 H   0  0  0  0  0  0  0  0  0  0  0  0
    0.5793   -7.3399    9.7100 H   0  0  0  0  0  0  0  0  0  0  0  0
  1  2  1  0
  1 32  1  0
  1 33  1  0
  1 34  1  0
  2  3  1  0
  3 24  1  0
  3  4  1  0
  3 35  1  6
  4  6  1  0
  4  5  1  0
  4 36  1  1
  5  6  1  0
  5  9  1  0
  5 37  1  6
  6  7  1  0
  6  8  1  0
  7 38  1  0
  7 39  1  0
  7 40  1  0
  8 41  1  0
  8 42  1  0
  8 43  1  0
  9 26  1  0
  9 10  1  1
  9 11  1  0
 10 44  1  0
 10 45  1  0
 10 46  1  0
 11 21  1  0
 11 12  1  1
 11 13  1  0
 12 47  1  0
 13 14  1  0
 13 48  1  0
 13 49  1  0
 14 26  1  0
 14 15  1  1
 14 16  1  0
 15 50  1  0
 16 17  1  6
 16 18  1  0
 16 24  1  0
 17 51  1  0
 18 19  1  0
 18 20  1  0
 18 52  1  6
 19 53  1  0
 20 21  1  0
 20 54  1  0
 20 55  1  0
 21 22  1  0
 21 23  1  6
 22 56  1  0
 22 57  1  0
 22 58  1  0
 23 59  1  0
 24 25  1  1
 24 26  1  0
 25 60  1  0
 26 27  1  1
 27 28  1  0
 27 61  1  0
 27 62  1  0
 28 29  1  0
 29 30  1  0
 29 31  2  0
 30 63  1  0
 30 64  1  0
 30 65  1  0
M  END
>  <i_m_ct_stereo_status>  (15) 
1

>  <s_m_source_file>  (15) 
/var/tmp/pbs.5076255.sched01/tmpuhafuy1n/0xc5aj8_e.sdf

>  <i_m_source_file_index>  (15) 
6

>  <i_lp_mmshare_version>  (15) 
48012

>  <i_f3d_flags>  (15) 
0

>  <s_epik_input>  (15) 
W0NIM11bQ0BdMTJbQ0BASF0zW0NASF0oQzMoW0NIM10pW0NIM10pW0NAQEhdKE9bQ0gzXSlbQ0BdNChbT0hdKUM1KFtPSF0pW0NAQF0oW09IXSkoW0NAXTI0W0NIMl1PQyg9TylbQ0gzXSlbQ0gyXVtDQF0xKFtPSF0pW0NAQF0oW0NIM10pKFtPSF0pW0NIMl1bQ0BASF01W09IXQ==

>  <s_epik_cmdline>  (15) 
J2VwaWtfcHl0aG9uJywgJy1waHQnLCAnMi4wJywgJy1waCcsICc3LjAnLCAnLXRuJywgJzgnLCAnLW1hJywgJzIwMCcsICctaW1hZScsICc8aW5maWxlLm1hZT4nLCAnLW9tYWUnLCAnPG91dGZpbGUubWFlPic=

>  <r_lp_tautomer_probability>  (15) 
1

>  <r_epik_Ionization_Penalty>  (15) 
5.03386e-07

>  <r_epik_Ionization_Penalty_Charging>  (15) 
0

>  <r_epik_Ionization_Penalty_Neutral>  (15) 
5.03386e-07

>  <r_epik_State_Penalty>  (15) 
-0

>  <r_epik_Charging_Adjusted_Penalty>  (15) 
0

>  <i_epik_Tot_Q>  (15) 
0

>  <i_epik_Tot_abs_Q>  (15) 
0

>  <s_epik_Chemistry_Notes>  (15) 
This compound has an ester and may undergo hydrolysis at high or low pH.

>  <s_lp_Force_Field>  (15) 
OPLS3e

>  <r_lp_Energy>  (15) 
213.587

>  <b_lp_Chiralities_Consistent>  (15) 
1

>  <s_lp_Variant>  (15) 
4:0-1

>  <s_i_glide_gridfile>  (15) 
pfpi4k_grid

>  <i_i_glide_lignum>  (15) 
6

>  <i_i_glide_rotatable_bonds>  (15) 
10

>  <r_i_docking_score>  (15) 
-2.83962

>  <r_i_glide_ligand_efficiency>  (15) 
-0.0916007

>  <r_i_glide_ligand_efficiency_sa>  (15) 
-0.287753

>  <r_i_glide_ligand_efficiency_ln>  (15) 
-0.640422

>  <r_i_glide_gscore>  (15) 
-2.83962

>  <r_i_glide_lipo>  (15) 
-0.277441

>  <r_i_glide_hbond>  (15) 
0

>  <r_i_glide_metal>  (15) 
-0

>  <r_i_glide_rewards>  (15) 
-0.392046

>  <r_i_glide_evdw>  (15) 
-19.8281

>  <r_i_glide_ecoul>  (15) 
-9.21885

>  <r_i_glide_erotb>  (15) 
0.204119

>  <r_i_glide_esite>  (15) 
-2.19543e-05

>  <r_i_glide_emodel>  (15) 
-33.1639

>  <r_i_glide_energy>  (15) 
-29.047

>  <r_i_glide_einternal>  (15) 
5.02878

>  <r_i_glide_intrahb_reward>  (15) 
-0

>  <i_i_glide_confnum>  (15) 
3

>  <i_i_glide_posenum>  (15) 
25

>  <r_i_glide_eff_state_penalty>  (15) 
0

>  <ligand_id>  (15) 
4

>  <original_smiles>  (15) 
COC1C2C(C2(C)C)C2(C)C3(O)CC4(O)C(O)(C(O)CC3(C)O)C1(O)C42COC(C)=O

>  <smiles>  (15) 
[H]OC1([H])C([H])([H])C(O[H])(C([H])([H])[H])C2(O[H])C([H])([H])C3(O[H])C1(O[H])C1(O[H])C([H])(OC([H])([H])[H])C4([H])C([H])(C4(C([H])([H])[H])C([H])([H])[H])C2(C([H])([H])[H])C31C([H])([H])OC(=O)C([H])([H])[H]

$$$$
5:0:0
     RDKit          3D

 23 24  0  0  1  0  0  0  0  0999 V2000
   -8.8433   -5.3364   -9.0384 C   0  0  0  0  0  0  0  0  0  0  0  0
   -8.1896   -6.0441   -7.8790 C   0  0  0  0  0  0  0  0  0  0  0  0
   -7.5075   -7.1003   -8.0949 N   0  0  0  0  0  0  0  0  0  0  0  0
   -6.8693   -7.7842   -7.0959 C   0  0  0  0  0  0  0  0  0  0  0  0
   -5.9747   -9.1201   -7.4942 S   0  0  0  0  0  0  0  0  0  0  0  0
   -6.9842   -7.3623   -5.8110 N   0  0  0  0  0  0  0  0  0  0  0  0
   -7.7972   -6.2306   -5.3676 C   0  0  1  0  0  0  0  0  0  0  0  0
   -6.9742   -5.2776   -4.4995 C   0  0  0  0  0  0  0  0  0  0  0  0
   -6.5771   -4.1633   -5.4391 C   0  0  0  0  0  0  0  0  0  0  0  0
   -7.8035   -3.9887   -6.3491 C   0  0  0  0  0  0  0  0  0  0  0  0
   -8.4058   -5.4017   -6.5101 C   0  0  1  0  0  0  0  0  0  0  0  0
   -9.9255   -5.2835   -8.9094 H   0  0  0  0  0  0  0  0  0  0  0  0
   -8.6338   -5.8597   -9.9768 H   0  0  0  0  0  0  0  0  0  0  0  0
   -8.4301   -4.3329   -9.1022 H   0  0  0  0  0  0  0  0  0  0  0  0
   -6.5630   -7.9217   -5.0943 H   0  0  0  0  0  0  0  0  0  0  0  0
   -8.5857   -6.6219   -4.7450 H   0  0  0  0  0  0  0  0  0  0  0  0
   -7.6154   -4.8588   -3.7210 H   0  0  0  0  0  0  0  0  0  0  0  0
   -6.1179   -5.7421   -4.0177 H   0  0  0  0  0  0  0  0  0  0  0  0
   -6.2968   -3.2808   -4.8620 H   0  0  0  0  0  0  0  0  0  0  0  0
   -5.7198   -4.4682   -6.0333 H   0  0  0  0  0  0  0  0  0  0  0  0
   -8.5319   -3.3639   -5.8272 H   0  0  0  0  0  0  0  0  0  0  0  0
   -7.5648   -3.4848   -7.2854 H   0  0  0  0  0  0  0  0  0  0  0  0
   -9.4896   -5.3318   -6.3731 H   0  0  0  0  0  0  0  0  0  0  0  0
  1  2  1  0
  1 12  1  0
  1 13  1  0
  1 14  1  0
  2 11  1  0
  2  3  2  0
  3  4  1  0
  4  5  2  0
  4  6  1  0
  6  7  1  0
  6 15  1  0
  7 11  1  0
  7  8  1  0
  7 16  1  1
  8  9  1  0
  8 17  1  0
  8 18  1  0
  9 10  1  0
  9 19  1  0
  9 20  1  0
 10 11  1  0
 10 21  1  0
 10 22  1  0
 11 23  1  1
M  END
>  <i_m_ct_stereo_status>  (16) 
1

>  <s_m_source_file>  (16) 
/var/tmp/pbs.5076255.sched01/tmpuhafuy1n/0xc5aj8_e.sdf

>  <i_m_source_file_index>  (16) 
7

>  <i_lp_mmshare_version>  (16) 
48012

>  <i_f3d_flags>  (16) 
0

>  <s_epik_input>  (16) 
Uz1DKFtOSF0xKU49QyhbQ0gzXSlbQ0BASF0oW0NAQEhdMTIpW0NIMl1bQ0gyXVtDSDJdMg==

>  <s_epik_cmdline>  (16) 
J2VwaWtfcHl0aG9uJywgJy1waHQnLCAnMi4wJywgJy1waCcsICc3LjAnLCAnLXRuJywgJzgnLCAnLW1hJywgJzIwMCcsICctaW1hZScsICc8aW5maWxlLm1hZT4nLCAnLW9tYWUnLCAnPG91dGZpbGUubWFlPic=

>  <r_lp_tautomer_probability>  (16) 
1

>  <r_epik_Ionization_Penalty>  (16) 
2.34993e-07

>  <r_epik_Ionization_Penalty_Charging>  (16) 
0

>  <r_epik_Ionization_Penalty_Neutral>  (16) 
2.34993e-07

>  <r_epik_State_Penalty>  (16) 
-0

>  <r_epik_Charging_Adjusted_Penalty>  (16) 
0

>  <i_epik_Tot_Q>  (16) 
0

>  <i_epik_Tot_abs_Q>  (16) 
0

>  <s_epik_Chemistry_Notes>  (16) 
This compound has an imine and may undergo hydrolysis.

>  <s_lp_Force_Field>  (16) 
OPLS3e

>  <r_lp_Energy>  (16) 
16.9647

>  <b_lp_Chiralities_Consistent>  (16) 
1

>  <s_lp_Variant>  (16) 
5:0-1

>  <s_i_glide_gridfile>  (16) 
pfpi4k_grid

>  <i_i_glide_lignum>  (16) 
7

>  <i_i_glide_rotatable_bonds>  (16) 
0

>  <r_i_docking_score>  (16) 
-5.59108

>  <r_i_glide_ligand_efficiency>  (16) 
-0.50828

>  <r_i_glide_ligand_efficiency_sa>  (16) 
-1.1304

>  <r_i_glide_ligand_efficiency_ln>  (16) 
-1.64545

>  <r_i_glide_gscore>  (16) 
-5.59108

>  <r_i_glide_lipo>  (16) 
-1.39224

>  <r_i_glide_hbond>  (16) 
0

>  <r_i_glide_metal>  (16) 
-0

>  <r_i_glide_rewards>  (16) 
-3.46946

>  <r_i_glide_evdw>  (16) 
-15.4925

>  <r_i_glide_ecoul>  (16) 
0.301658

>  <r_i_glide_erotb>  (16) 
0

>  <r_i_glide_esite>  (16) 
0

>  <r_i_glide_emodel>  (16) 
-20.2941

>  <r_i_glide_energy>  (16) 
-15.1909

>  <r_i_glide_einternal>  (16) 
0

>  <r_i_glide_intrahb_reward>  (16) 
-0

>  <i_i_glide_confnum>  (16) 
1

>  <i_i_glide_posenum>  (16) 
2

>  <r_i_glide_eff_state_penalty>  (16) 
0

>  <ligand_id>  (16) 
5

>  <original_smiles>  (16) 
CC1=NC(=S)NC2CCCC12

>  <smiles>  (16) 
[H]N1C(=S)N=C(C([H])([H])[H])C2([H])C([H])([H])C([H])([H])C([H])([H])C12[H]

$$$$
5:0:1
     RDKit          3D

 23 24  0  0  1  0  0  0  0  0999 V2000
    2.5137   -3.8612   -3.8822 C   0  0  0  0  0  0  0  0  0  0  0  0
    3.2394   -2.6236   -3.5101 C   0  0  0  0  0  0  0  0  0  0  0  0
    3.0611   -1.6024   -4.2324 N   0  0  0  0  0  0  0  0  0  0  0  0
    3.6856   -0.4281   -4.0060 C   0  0  0  0  0  0  0  0  0  0  0  0
    3.4149    0.7647   -5.1142 S   0  0  0  0  0  0  0  0  0  0  0  0
    4.5281   -0.2944   -2.9516 N   0  0  0  0  0  0  0  0  0  0  0  0
    4.9715   -1.3966   -2.0993 C   0  0  1  0  0  0  0  0  0  0  0  0
    4.8337   -0.9969   -0.6349 C   0  0  0  0  0  0  0  0  0  0  0  0
    3.4989   -1.5726   -0.2406 C   0  0  0  0  0  0  0  0  0  0  0  0
    3.4327   -2.9154   -0.9886 C   0  0  0  0  0  0  0  0  0  0  0  0
    4.1692   -2.6815   -2.3090 C   0  0  1  0  0  0  0  0  0  0  0  0
    3.2423   -4.6155   -4.1992 H   0  0  0  0  0  0  0  0  0  0  0  0
    1.8214   -3.6306   -4.7048 H   0  0  0  0  0  0  0  0  0  0  0  0
    1.9047   -4.1817   -3.0482 H   0  0  0  0  0  0  0  0  0  0  0  0
    4.9672    0.5986   -2.8247 H   0  0  0  0  0  0  0  0  0  0  0  0
    6.0250   -1.5845   -2.3162 H   0  0  0  0  0  0  0  0  0  0  0  0
    5.6345   -1.4720   -0.0650 H   0  0  0  0  0  0  0  0  0  0  0  0
    4.8201    0.0775   -0.4565 H   0  0  0  0  0  0  0  0  0  0  0  0
    3.3728   -1.6778    0.8325 H   0  0  0  0  0  0  0  0  0  0  0  0
    2.7332   -0.8878   -0.6098 H   0  0  0  0  0  0  0  0  0  0  0  0
    4.0214   -3.6431   -0.4202 H   0  0  0  0  0  0  0  0  0  0  0  0
    2.4158   -3.2957   -1.0947 H   0  0  0  0  0  0  0  0  0  0  0  0
    4.8505   -3.5139   -2.5325 H   0  0  0  0  0  0  0  0  0  0  0  0
  1  2  1  0
  1 12  1  0
  1 13  1  0
  1 14  1  0
  2 11  1  0
  2  3  2  0
  3  4  1  0
  4  5  2  0
  4  6  1  0
  6  7  1  0
  6 15  1  0
  7 11  1  0
  7  8  1  0
  7 16  1  6
  8  9  1  0
  8 17  1  0
  8 18  1  0
  9 10  1  0
  9 19  1  0
  9 20  1  0
 10 11  1  0
 10 21  1  0
 10 22  1  0
 11 23  1  6
M  END
>  <i_m_ct_stereo_status>  (17) 
1

>  <s_m_source_file>  (17) 
/var/tmp/pbs.5076255.sched01/tmpuhafuy1n/0xc5aj8_e.sdf

>  <i_m_source_file_index>  (17) 
7

>  <i_lp_mmshare_version>  (17) 
48012

>  <i_f3d_flags>  (17) 
0

>  <s_epik_input>  (17) 
Uz1DKFtOSF0xKU49QyhbQ0gzXSlbQ0BASF0oW0NAQEhdMTIpW0NIMl1bQ0gyXVtDSDJdMg==

>  <s_epik_cmdline>  (17) 
J2VwaWtfcHl0aG9uJywgJy1waHQnLCAnMi4wJywgJy1waCcsICc3LjAnLCAnLXRuJywgJzgnLCAnLW1hJywgJzIwMCcsICctaW1hZScsICc8aW5maWxlLm1hZT4nLCAnLW9tYWUnLCAnPG91dGZpbGUubWFlPic=

>  <r_lp_tautomer_probability>  (17) 
1

>  <r_epik_Ionization_Penalty>  (17) 
2.34993e-07

>  <r_epik_Ionization_Penalty_Charging>  (17) 
0

>  <r_epik_Ionization_Penalty_Neutral>  (17) 
2.34993e-07

>  <r_epik_State_Penalty>  (17) 
-0

>  <r_epik_Charging_Adjusted_Penalty>  (17) 
0

>  <i_epik_Tot_Q>  (17) 
0

>  <i_epik_Tot_abs_Q>  (17) 
0

>  <s_epik_Chemistry_Notes>  (17) 
This compound has an imine and may undergo hydrolysis.

>  <s_lp_Force_Field>  (17) 
OPLS3e

>  <r_lp_Energy>  (17) 
16.9647

>  <b_lp_Chiralities_Consistent>  (17) 
1

>  <s_lp_Variant>  (17) 
5:0-1

>  <s_i_glide_gridfile>  (17) 
pfpi4k_grid

>  <i_i_glide_lignum>  (17) 
7

>  <i_i_glide_rotatable_bonds>  (17) 
0

>  <r_i_docking_score>  (17) 
-4.32552

>  <r_i_glide_ligand_efficiency>  (17) 
-0.393229

>  <r_i_glide_ligand_efficiency_sa>  (17) 
-0.874534

>  <r_i_glide_ligand_efficiency_ln>  (17) 
-1.273

>  <r_i_glide_gscore>  (17) 
-4.32552

>  <r_i_glide_lipo>  (17) 
-0.0431143

>  <r_i_glide_hbond>  (17) 
-0.180728

>  <r_i_glide_metal>  (17) 
-0

>  <r_i_glide_rewards>  (17) 
-3.01901

>  <r_i_glide_evdw>  (17) 
-15.1143

>  <r_i_glide_ecoul>  (17) 
-2.17966

>  <r_i_glide_erotb>  (17) 
0

>  <r_i_glide_esite>  (17) 
0

>  <r_i_glide_emodel>  (17) 
-21.0244

>  <r_i_glide_energy>  (17) 
-17.294

>  <r_i_glide_einternal>  (17) 
0

>  <r_i_glide_intrahb_reward>  (17) 
-0

>  <i_i_glide_confnum>  (17) 
2

>  <i_i_glide_posenum>  (17) 
30

>  <r_i_glide_eff_state_penalty>  (17) 
0

>  <ligand_id>  (17) 
5

>  <original_smiles>  (17) 
CC1=NC(=S)NC2CCCC12

>  <smiles>  (17) 
[H]N1C(=S)N=C(C([H])([H])[H])C2([H])C([H])([H])C([H])([H])C([H])([H])C12[H]

$$$$
5:0:2
     RDKit          3D

 23 24  0  0  1  0  0  0  0  0999 V2000
    1.5718   -3.8020   -1.3525 C   0  0  0  0  0  0  0  0  0  0  0  0
    2.7951   -3.1106   -1.8929 C   0  0  0  0  0  0  0  0  0  0  0  0
    2.6631   -2.2038   -2.7745 N   0  0  0  0  0  0  0  0  0  0  0  0
    3.7157   -1.5103   -3.2906 C   0  0  0  0  0  0  0  0  0  0  0  0
    3.4199   -0.2619   -4.3443 S   0  0  0  0  0  0  0  0  0  0  0  0
    4.9817   -1.8714   -2.9513 N   0  0  0  0  0  0  0  0  0  0  0  0
    5.3436   -2.9385   -2.0255 C   0  0  1  0  0  0  0  0  0  0  0  0
    6.2565   -2.3992   -0.9135 C   0  0  0  0  0  0  0  0  0  0  0  0
    5.3356   -2.1466    0.2715 C   0  0  0  0  0  0  0  0  0  0  0  0
    4.3390   -3.3013    0.1868 C   0  0  0  0  0  0  0  0  0  0  0  0
    4.1346   -3.5832   -1.3174 C   0  0  1  0  0  0  0  0  0  0  0  0
    1.5783   -4.8741   -1.5208 H   0  0  0  0  0  0  0  0  0  0  0  0
    0.6742   -3.3960   -1.8272 H   0  0  0  0  0  0  0  0  0  0  0  0
    1.5310   -3.6172   -0.2873 H   0  0  0  0  0  0  0  0  0  0  0  0
    5.7370   -1.3913   -3.4134 H   0  0  0  0  0  0  0  0  0  0  0  0
    5.8723   -3.6971   -2.6087 H   0  0  0  0  0  0  0  0  0  0  0  0
    6.9890   -3.1631   -0.6519 H   0  0  0  0  0  0  0  0  0  0  0  0
    6.7947   -1.4985   -1.1895 H   0  0  0  0  0  0  0  0  0  0  0  0
    5.8767   -2.1150    1.2199 H   0  0  0  0  0  0  0  0  0  0  0  0
    4.8132   -1.1942    0.1483 H   0  0  0  0  0  0  0  0  0  0  0  0
    4.8104   -4.1778    0.6339 H   0  0  0  0  0  0  0  0  0  0  0  0
    3.4284   -3.1012    0.7485 H   0  0  0  0  0  0  0  0  0  0  0  0
    4.1944   -4.6603   -1.4783 H   0  0  0  0  0  0  0  0  0  0  0  0
  1  2  1  0
  1 12  1  0
  1 13  1  0
  1 14  1  0
  2 11  1  0
  2  3  2  0
  3  4  1  0
  4  5  2  0
  4  6  1  0
  6  7  1  0
  6 15  1  0
  7 11  1  0
  7  8  1  0
  7 16  1  6
  8  9  1  0
  8 17  1  0
  8 18  1  0
  9 10  1  0
  9 19  1  0
  9 20  1  0
 10 11  1  0
 10 21  1  0
 10 22  1  0
 11 23  1  1
M  END
>  <i_m_ct_stereo_status>  (18) 
1

>  <s_m_source_file>  (18) 
/var/tmp/pbs.5076255.sched01/tmpuhafuy1n/0xc5aj8_e.sdf

>  <i_m_source_file_index>  (18) 
7

>  <i_lp_mmshare_version>  (18) 
48012

>  <i_f3d_flags>  (18) 
0

>  <s_epik_input>  (18) 
Uz1DKFtOSF0xKU49QyhbQ0gzXSlbQ0BASF0oW0NAQEhdMTIpW0NIMl1bQ0gyXVtDSDJdMg==

>  <s_epik_cmdline>  (18) 
J2VwaWtfcHl0aG9uJywgJy1waHQnLCAnMi4wJywgJy1waCcsICc3LjAnLCAnLXRuJywgJzgnLCAnLW1hJywgJzIwMCcsICctaW1hZScsICc8aW5maWxlLm1hZT4nLCAnLW9tYWUnLCAnPG91dGZpbGUubWFlPic=

>  <r_lp_tautomer_probability>  (18) 
1

>  <r_epik_Ionization_Penalty>  (18) 
2.34993e-07

>  <r_epik_Ionization_Penalty_Charging>  (18) 
0

>  <r_epik_Ionization_Penalty_Neutral>  (18) 
2.34993e-07

>  <r_epik_State_Penalty>  (18) 
-0

>  <r_epik_Charging_Adjusted_Penalty>  (18) 
0

>  <i_epik_Tot_Q>  (18) 
0

>  <i_epik_Tot_abs_Q>  (18) 
0

>  <s_epik_Chemistry_Notes>  (18) 
This compound has an imine and may undergo hydrolysis.

>  <s_lp_Force_Field>  (18) 
OPLS3e

>  <r_lp_Energy>  (18) 
16.9647

>  <b_lp_Chiralities_Consistent>  (18) 
1

>  <s_lp_Variant>  (18) 
5:0-1

>  <s_i_glide_gridfile>  (18) 
pfpi4k_grid

>  <i_i_glide_lignum>  (18) 
7

>  <i_i_glide_rotatable_bonds>  (18) 
0

>  <r_i_docking_score>  (18) 
-3.7567

>  <r_i_glide_ligand_efficiency>  (18) 
-0.341518

>  <r_i_glide_ligand_efficiency_sa>  (18) 
-0.759529

>  <r_i_glide_ligand_efficiency_ln>  (18) 
-1.10559

>  <r_i_glide_gscore>  (18) 
-3.7567

>  <r_i_glide_lipo>  (18) 
-0.148951

>  <r_i_glide_hbond>  (18) 
0

>  <r_i_glide_metal>  (18) 
-0

>  <r_i_glide_rewards>  (18) 
-2.83018

>  <r_i_glide_evdw>  (18) 
-17.9032

>  <r_i_glide_ecoul>  (18) 
0.784012

>  <r_i_glide_erotb>  (18) 
0

>  <r_i_glide_esite>  (18) 
0

>  <r_i_glide_emodel>  (18) 
-20.559

>  <r_i_glide_energy>  (18) 
-17.1192

>  <r_i_glide_einternal>  (18) 
0

>  <r_i_glide_intrahb_reward>  (18) 
-0

>  <i_i_glide_confnum>  (18) 
1

>  <i_i_glide_posenum>  (18) 
4

>  <r_i_glide_eff_state_penalty>  (18) 
0

>  <ligand_id>  (18) 
5

>  <original_smiles>  (18) 
CC1=NC(=S)NC2CCCC12

>  <smiles>  (18) 
[H]N1C(=S)N=C(C([H])([H])[H])C2([H])C([H])([H])C([H])([H])C([H])([H])C12[H]

$$$$
6:0:0
     RDKit          3D

 45 47  0  0  1  0  0  0  0  0999 V2000
   -0.5816   -6.7245    2.6241 O   0  0  0  0  0  0  0  0  0  0  0  0
    0.3351   -7.4957    2.3449 C   0  0  0  0  0  0  0  0  0  0  0  0
    0.3753   -8.9670    2.7962 C   0  0  0  0  0  0  0  0  0  0  0  0
    1.6843   -9.4066    3.2829 N   0  0  0  0  0  0  0  0  0  0  0  0
    2.7694   -9.0779    2.3595 C   0  0  0  0  0  0  0  0  0  0  0  0
    2.8318   -7.5497    2.1355 C   0  0  1  0  0  0  0  0  0  0  0  0
    4.0718   -7.1305    1.2997 C   0  0  0  0  0  0  0  0  0  0  0  0
    4.5167   -7.9272    0.4848 O   0  0  0  0  0  0  0  0  0  0  0  0
    4.6625   -5.9312    1.5081 N   0  0  0  0  0  0  0  0  0  0  0  0
    5.9289   -5.5191    0.8510 C   0  0  0  0  0  0  0  0  0  0  0  0
    5.7796   -4.1379    0.1783 C   0  0  0  0  0  0  0  0  0  0  0  0
    5.3133   -3.1416    1.1472 N   0  0  0  0  0  0  0  0  0  0  0  0
    5.2524   -1.7968    0.5621 C   0  0  2  0  0  0  0  0  0  0  0  0
    5.0221   -0.7238    1.6594 C   0  0  0  0  0  0  0  0  0  0  0  0
    3.6859   -0.0630    1.2983 C   0  0  0  0  0  0  0  0  0  0  0  0
    3.0192   -1.0373    0.4334 N   0  0  0  0  0  0  0  0  0  0  0  0
    4.0676   -1.6199   -0.4122 C   0  0  0  0  0  0  0  0  0  0  0  0
    4.0378   -3.5832    1.7213 C   0  0  0  0  0  0  0  0  0  0  0  0
    4.1792   -4.9104    2.4428 C   0  0  0  0  0  0  0  0  0  0  0  0
    1.5161   -7.0351    1.4968 C   0  0  0  0  0  0  0  0  0  0  0  0
   -0.3583   -9.1291    3.5926 H   0  0  0  0  0  0  0  0  0  0  0  0
    0.1005   -9.5952    1.9480 H   0  0  0  0  0  0  0  0  0  0  0  0
    1.8565   -9.0065    4.1961 H   0  0  0  0  0  0  0  0  0  0  0  0
    3.7006   -9.4041    2.8277 H   0  0  0  0  0  0  0  0  0  0  0  0
    2.6459   -9.6220    1.4233 H   0  0  0  0  0  0  0  0  0  0  0  0
    2.9420   -7.1274    3.1334 H   0  0  0  0  0  0  0  0  0  0  0  0
    6.7173   -5.4903    1.6060 H   0  0  0  0  0  0  0  0  0  0  0  0
    6.2635   -6.2236    0.0873 H   0  0  0  0  0  0  0  0  0  0  0  0
    6.7420   -3.8356   -0.2416 H   0  0  0  0  0  0  0  0  0  0  0  0
    5.0869   -4.2334   -0.6599 H   0  0  0  0  0  0  0  0  0  0  0  0
    6.1941   -1.5920    0.0530 H   0  0  0  0  0  0  0  0  0  0  0  0
    4.9876   -1.1523    2.6642 H   0  0  0  0  0  0  0  0  0  0  0  0
    5.8228    0.0102    1.6885 H   0  0  0  0  0  0  0  0  0  0  0  0
    3.0852    0.1995    2.1649 H   0  0  0  0  0  0  0  0  0  0  0  0
    3.8608    0.8391    0.7148 H   0  0  0  0  0  0  0  0  0  0  0  0
    2.6587   -1.7792    1.0225 H   0  0  0  0  0  0  0  0  0  0  0  0
    4.3207   -0.9077   -1.2003 H   0  0  0  0  0  0  0  0  0  0  0  0
    3.7268   -2.5307   -0.9089 H   0  0  0  0  0  0  0  0  0  0  0  0
    3.6573   -2.8574    2.4349 H   0  0  0  0  0  0  0  0  0  0  0  0
    3.2889   -3.7148    0.9416 H   0  0  0  0  0  0  0  0  0  0  0  0
    3.1800   -5.0995    2.8330 H   0  0  0  0  0  0  0  0  0  0  0  0
    4.8528   -4.8231    3.2964 H   0  0  0  0  0  0  0  0  0  0  0  0
    1.3666   -7.4258    0.4924 H   0  0  0  0  0  0  0  0  0  0  0  0
    1.5001   -5.9391    1.4387 H   0  0  0  0  0  0  0  0  0  0  0  0
    2.2353   -0.6727   -0.1238 H   0  0  0  0  0  0  0  0  0  0  0  0
  1  2  2  0
  2 20  1  0
  2  3  1  0
  3  4  1  0
  3 21  1  0
  3 22  1  0
  4  5  1  0
  4 23  1  0
  5  6  1  0
  5 24  1  0
  5 25  1  0
  6  7  1  0
  6 20  1  0
  6 26  1  1
  7  8  2  0
  7  9  1  0
  9 19  1  0
  9 10  1  0
 10 11  1  0
 10 27  1  0
 10 28  1  0
 11 12  1  0
 11 29  1  0
 11 30  1  0
 12 13  1  0
 12 18  1  0
 13 17  1  0
 13 14  1  0
 13 31  1  6
 14 15  1  0
 14 32  1  0
 14 33  1  0
 15 16  1  0
 15 34  1  0
 15 35  1  0
 16 17  1  0
 16 36  1  0
 16 45  1  0
 17 37  1  0
 17 38  1  0
 18 19  1  0
 18 39  1  0
 18 40  1  0
 19 41  1  0
 19 42  1  0
 20 43  1  0
 20 44  1  0
M  CHG  1  16   1
M  END
>  <i_m_ct_stereo_status>  (19) 
1

>  <s_m_source_file>  (19) 
/var/tmp/pbs.5076255.sched01/tmpuhafuy1n/0xc5aj8_e.sdf

>  <i_m_source_file_index>  (19) 
8

>  <i_lp_mmshare_version>  (19) 
48012

>  <i_f3d_flags>  (19) 
0

>  <s_epik_input>  (19) 
Tz1DMVtDSDJdW05IXVtDSDJdW0NASF0oW0NIMl0xKUMoPU8pTjJbQ0gyXVtDSDJdTihbQ0gyXVtDSDJdMilbQ0BASF0zW0NIMl1bQ0gyXVtOSF1bQ0gyXTM=

>  <s_epik_cmdline>  (19) 
J2VwaWtfcHl0aG9uJywgJy1waHQnLCAnMi4wJywgJy1waCcsICc3LjAnLCAnLXRuJywgJzgnLCAnLW1hJywgJzIwMCcsICctaW1hZScsICc8aW5maWxlLm1hZT4nLCAnLW9tYWUnLCAnPG91dGZpbGUubWFlPic=

>  <r_lp_tautomer_probability>  (19) 
1

>  <r_epik_Ionization_Penalty>  (19) 
0.476882

>  <r_epik_Ionization_Penalty_Charging>  (19) 
4.48524e-05

>  <r_epik_Ionization_Penalty_Neutral>  (19) 
0.476838

>  <r_epik_State_Penalty>  (19) 
0.449812

>  <r_epik_Charging_Adjusted_Penalty>  (19) 
0.449857

>  <i_epik_Tot_Q>  (19) 
1

>  <i_epik_Tot_abs_Q>  (19) 
1

>  <s_lp_Force_Field>  (19) 
OPLS3e

>  <r_lp_Energy>  (19) 
58.3434

>  <b_lp_Chiralities_Consistent>  (19) 
1

>  <s_lp_Variant>  (19) 
6:0-1

>  <s_i_glide_gridfile>  (19) 
pfpi4k_grid

>  <i_i_glide_lignum>  (19) 
8

>  <i_i_glide_rotatable_bonds>  (19) 
3

>  <r_i_docking_score>  (19) 
-4.43782

>  <r_i_glide_ligand_efficiency>  (19) 
-0.221891

>  <r_i_glide_ligand_efficiency_sa>  (19) 
-0.602305

>  <r_i_glide_ligand_efficiency_ln>  (19) 
-1.11064

>  <r_i_glide_gscore>  (19) 
-4.43782

>  <r_i_glide_lipo>  (19) 
-0.390397

>  <r_i_glide_hbond>  (19) 
-0.348798

>  <r_i_glide_metal>  (19) 
-0

>  <r_i_glide_rewards>  (19) 
-1.68237

>  <r_i_glide_evdw>  (19) 
-23.4892

>  <r_i_glide_ecoul>  (19) 
-9.255

>  <r_i_glide_erotb>  (19) 
0.68494

>  <r_i_glide_esite>  (19) 
-0.138478

>  <r_i_glide_emodel>  (19) 
-44.4275

>  <r_i_glide_energy>  (19) 
-32.7442

>  <r_i_glide_einternal>  (19) 
0.166753

>  <r_i_glide_intrahb_reward>  (19) 
-0

>  <i_i_glide_confnum>  (19) 
3

>  <i_i_glide_posenum>  (19) 
2

>  <r_i_glide_eff_state_penalty>  (19) 
0

>  <ligand_id>  (19) 
6

>  <original_smiles>  (19) 
O=C1CNCC(C(=O)N2CCN(C3CCNC3)CC2)C1

>  <smiles>  (19) 
[H]N1C([H])([H])C(=O)C([H])([H])C([H])(C(=O)N2C([H])([H])C([H])([H])N(C3([H])C([H])([H])C([H])([H])[N+]([H])([H])C3([H])[H])C([H])([H])C2([H])[H])C1([H])[H]

$$$$
6:0:1
     RDKit          3D

 45 47  0  0  1  0  0  0  0  0999 V2000
   -0.5525   -6.6696    1.7447 O   0  0  0  0  0  0  0  0  0  0  0  0
    0.5273   -6.9138    2.2861 C   0  0  0  0  0  0  0  0  0  0  0  0
    0.6379   -7.2761    3.7767 C   0  0  0  0  0  0  0  0  0  0  0  0
    1.6806   -6.5414    4.4948 N   0  0  0  0  0  0  0  0  0  0  0  0
    2.9678   -6.5834    3.8064 C   0  0  0  0  0  0  0  0  0  0  0  0
    2.8278   -5.9655    2.3967 C   0  0  1  0  0  0  0  0  0  0  0  0
    4.2046   -5.8231    1.6941 C   0  0  0  0  0  0  0  0  0  0  0  0
    4.9621   -6.7889    1.7149 O   0  0  0  0  0  0  0  0  0  0  0  0
    4.5647   -4.6547    1.1032 N   0  0  0  0  0  0  0  0  0  0  0  0
    5.9098   -4.4113    0.5249 C   0  0  0  0  0  0  0  0  0  0  0  0
    5.8062   -3.8706   -0.9146 C   0  0  0  0  0  0  0  0  0  0  0  0
    4.9554   -2.6808   -0.9662 N   0  0  0  0  0  0  0  0  0  0  0  0
    4.8981   -2.1292   -2.3246 C   0  0  2  0  0  0  0  0  0  0  0  0
    4.2981   -0.7067   -2.2952 C   0  0  0  0  0  0  0  0  0  0  0  0
    3.0339   -0.7862   -3.1575 C   0  0  0  0  0  0  0  0  0  0  0  0
    2.6875   -2.2172   -3.2097 N   0  0  0  0  0  0  0  0  0  0  0  0
    3.9826   -2.9213   -3.2824 C   0  0  0  0  0  0  0  0  0  0  0  0
    3.6321   -3.0062   -0.4284 C   0  0  0  0  0  0  0  0  0  0  0  0
    3.7113   -3.4691    1.0101 C   0  0  0  0  0  0  0  0  0  0  0  0
    1.8377   -6.7789    1.5334 C   0  0  0  0  0  0  0  0  0  0  0  0
   -0.3179   -7.0743    4.2640 H   0  0  0  0  0  0  0  0  0  0  0  0
    0.8519   -8.3435    3.8439 H   0  0  0  0  0  0  0  0  0  0  0  0
    1.3920   -5.5739    4.6189 H   0  0  0  0  0  0  0  0  0  0  0  0
    3.6659   -5.9872    4.3916 H   0  0  0  0  0  0  0  0  0  0  0  0
    3.3423   -7.6138    3.7804 H   0  0  0  0  0  0  0  0  0  0  0  0
    2.4121   -4.9901    2.5919 H   0  0  0  0  0  0  0  0  0  0  0  0
    6.4276   -3.6928    1.1588 H   0  0  0  0  0  0  0  0  0  0  0  0
    6.5393   -5.3038    0.5032 H   0  0  0  0  0  0  0  0  0  0  0  0
    6.8047   -3.6404   -1.2926 H   0  0  0  0  0  0  0  0  0  0  0  0
    5.4009   -4.6547   -1.5560 H   0  0  0  0  0  0  0  0  0  0  0  0
    5.9113   -2.0847   -2.7173 H   0  0  0  0  0  0  0  0  0  0  0  0
    4.0599   -0.3904   -1.2773 H   0  0  0  0  0  0  0  0  0  0  0  0
    4.9828    0.0504   -2.6722 H   0  0  0  0  0  0  0  0  0  0  0  0
    2.2190   -0.1793   -2.7574 H   0  0  0  0  0  0  0  0  0  0  0  0
    3.2481   -0.4568   -4.1766 H   0  0  0  0  0  0  0  0  0  0  0  0
    2.2611   -2.4281   -2.3136 H   0  0  0  0  0  0  0  0  0  0  0  0
    4.3522   -2.8458   -4.3068 H   0  0  0  0  0  0  0  0  0  0  0  0
    3.8919   -3.9848   -3.0606 H   0  0  0  0  0  0  0  0  0  0  0  0
    2.9810   -2.1377   -0.4755 H   0  0  0  0  0  0  0  0  0  0  0  0
    3.1738   -3.8100   -0.9972 H   0  0  0  0  0  0  0  0  0  0  0  0
    2.6708   -3.6367    1.2563 H   0  0  0  0  0  0  0  0  0  0  0  0
    4.0902   -2.6716    1.6508 H   0  0  0  0  0  0  0  0  0  0  0  0
    2.2046   -7.7873    1.3025 H   0  0  0  0  0  0  0  0  0  0  0  0
    1.6597   -6.2780    0.5765 H   0  0  0  0  0  0  0  0  0  0  0  0
    2.0498   -2.4558   -3.9440 H   0  0  0  0  0  0  0  0  0  0  0  0
  1  2  2  0
  2 20  1  0
  2  3  1  0
  3  4  1  0
  3 21  1  0
  3 22  1  0
  4  5  1  0
  4 23  1  0
  5  6  1  0
  5 24  1  0
  5 25  1  0
  6  7  1  0
  6 20  1  0
  6 26  1  1
  7  8  2  0
  7  9  1  0
  9 19  1  0
  9 10  1  0
 10 11  1  0
 10 27  1  0
 10 28  1  0
 11 12  1  0
 11 29  1  0
 11 30  1  0
 12 13  1  0
 12 18  1  0
 13 17  1  0
 13 14  1  0
 13 31  1  6
 14 15  1  0
 14 32  1  0
 14 33  1  0
 15 16  1  0
 15 34  1  0
 15 35  1  0
 16 17  1  0
 16 36  1  0
 16 45  1  0
 17 37  1  0
 17 38  1  0
 18 19  1  0
 18 39  1  0
 18 40  1  0
 19 41  1  0
 19 42  1  0
 20 43  1  0
 20 44  1  0
M  CHG  1  16   1
M  END
>  <i_m_ct_stereo_status>  (20) 
1

>  <s_m_source_file>  (20) 
/var/tmp/pbs.5076255.sched01/tmpuhafuy1n/0xc5aj8_e.sdf

>  <i_m_source_file_index>  (20) 
8

>  <i_lp_mmshare_version>  (20) 
48012

>  <i_f3d_flags>  (20) 
0

>  <s_epik_input>  (20) 
Tz1DMVtDSDJdW05IXVtDSDJdW0NASF0oW0NIMl0xKUMoPU8pTjJbQ0gyXVtDSDJdTihbQ0gyXVtDSDJdMilbQ0BASF0zW0NIMl1bQ0gyXVtOSF1bQ0gyXTM=

>  <s_epik_cmdline>  (20) 
J2VwaWtfcHl0aG9uJywgJy1waHQnLCAnMi4wJywgJy1waCcsICc3LjAnLCAnLXRuJywgJzgnLCAnLW1hJywgJzIwMCcsICctaW1hZScsICc8aW5maWxlLm1hZT4nLCAnLW9tYWUnLCAnPG91dGZpbGUubWFlPic=

>  <r_lp_tautomer_probability>  (20) 
1

>  <r_epik_Ionization_Penalty>  (20) 
0.476882

>  <r_epik_Ionization_Penalty_Charging>  (20) 
4.48524e-05

>  <r_epik_Ionization_Penalty_Neutral>  (20) 
0.476838

>  <r_epik_State_Penalty>  (20) 
0.449812

>  <r_epik_Charging_Adjusted_Penalty>  (20) 
0.449857

>  <i_epik_Tot_Q>  (20) 
1

>  <i_epik_Tot_abs_Q>  (20) 
1

>  <s_lp_Force_Field>  (20) 
OPLS3e

>  <r_lp_Energy>  (20) 
58.3434

>  <b_lp_Chiralities_Consistent>  (20) 
1

>  <s_lp_Variant>  (20) 
6:0-1

>  <s_i_glide_gridfile>  (20) 
pfpi4k_grid

>  <i_i_glide_lignum>  (20) 
8

>  <i_i_glide_rotatable_bonds>  (20) 
3

>  <r_i_docking_score>  (20) 
-3.75198

>  <r_i_glide_ligand_efficiency>  (20) 
-0.187599

>  <r_i_glide_ligand_efficiency_sa>  (20) 
-0.509222

>  <r_i_glide_ligand_efficiency_ln>  (20) 
-0.938997

>  <r_i_glide_gscore>  (20) 
-3.75198

>  <r_i_glide_lipo>  (20) 
-0.345952

>  <r_i_glide_hbond>  (20) 
-0.203957

>  <r_i_glide_metal>  (20) 
-0

>  <r_i_glide_rewards>  (20) 
-1.57927

>  <r_i_glide_evdw>  (20) 
-23.9861

>  <r_i_glide_ecoul>  (20) 
-6.92887

>  <r_i_glide_erotb>  (20) 
0.68494

>  <r_i_glide_esite>  (20) 
-0.0691037

>  <r_i_glide_emodel>  (20) 
-40.4719

>  <r_i_glide_energy>  (20) 
-30.915

>  <r_i_glide_einternal>  (20) 
0.202906

>  <r_i_glide_intrahb_reward>  (20) 
-0

>  <i_i_glide_confnum>  (20) 
3

>  <i_i_glide_posenum>  (20) 
18

>  <r_i_glide_eff_state_penalty>  (20) 
0

>  <ligand_id>  (20) 
6

>  <original_smiles>  (20) 
O=C1CNCC(C(=O)N2CCN(C3CCNC3)CC2)C1

>  <smiles>  (20) 
[H]N1C([H])([H])C(=O)C([H])([H])C([H])(C(=O)N2C([H])([H])C([H])([H])N(C3([H])C([H])([H])C([H])([H])[N+]([H])([H])C3([H])[H])C([H])([H])C2([H])[H])C1([H])[H]

$$$$
6:0:2
     RDKit          3D

 45 47  0  0  1  0  0  0  0  0999 V2000
    4.9887   -0.3554    1.3919 O   0  0  0  0  0  0  0  0  0  0  0  0
    5.0295   -1.2645    0.5809 C   0  0  0  0  0  0  0  0  0  0  0  0
    4.6808   -1.0642   -0.8991 C   0  0  0  0  0  0  0  0  0  0  0  0
    3.7792   -2.1110   -1.4634 N   0  0  0  0  0  0  0  0  0  0  0  0
    4.2619   -3.4787   -1.1460 C   0  0  0  0  0  0  0  0  0  0  0  0
    4.3793   -3.6475    0.3826 C   0  0  1  0  0  0  0  0  0  0  0  0
    4.7010   -5.1271    0.7133 C   0  0  0  0  0  0  0  0  0  0  0  0
    5.8359   -5.5135    0.4822 O   0  0  0  0  0  0  0  0  0  0  0  0
    3.7368   -5.9553    1.2014 N   0  0  0  0  0  0  0  0  0  0  0  0
    2.3459   -5.5569    1.4446 C   0  0  0  0  0  0  0  0  0  0  0  0
    1.9409   -5.9321    2.8808 C   0  0  0  0  0  0  0  0  0  0  0  0
    2.0866   -7.3747    3.1057 N   0  0  0  0  0  0  0  0  0  0  0  0
    1.1854   -8.2052    2.2796 C   0  0  2  0  0  0  0  0  0  0  0  0
   -0.3009   -7.8375    2.4845 C   0  0  0  0  0  0  0  0  0  0  0  0
   -0.9708   -9.1385    2.9181 C   0  0  0  0  0  0  0  0  0  0  0  0
    0.1263   -9.9312    3.4826 N   0  0  0  0  0  0  0  0  0  0  0  0
    1.2726   -9.7061    2.6059 C   0  0  0  0  0  0  0  0  0  0  0  0
    3.5156   -7.6980    2.9466 C   0  0  0  0  0  0  0  0  0  0  0  0
    4.0034   -7.3725    1.5213 C   0  0  0  0  0  0  0  0  0  0  0  0
    5.4215   -2.6928    0.9995 C   0  0  0  0  0  0  0  0  0  0  0  0
    4.1899   -0.1206   -1.0334 H   0  0  0  0  0  0  0  0  0  0  0  0
    5.6035   -1.1046   -1.4723 H   0  0  0  0  0  0  0  0  0  0  0  0
    2.8396   -1.9689   -1.1099 H   0  0  0  0  0  0  0  0  0  0  0  0
    3.5175   -4.1460   -1.5398 H   0  0  0  0  0  0  0  0  0  0  0  0
    5.2002   -3.6442   -1.6640 H   0  0  0  0  0  0  0  0  0  0  0  0
    3.4509   -3.3437    0.8176 H   0  0  0  0  0  0  0  0  0  0  0  0
    2.1133   -4.5193    1.3506 H   0  0  0  0  0  0  0  0  0  0  0  0
    1.7111   -6.0479    0.7061 H   0  0  0  0  0  0  0  0  0  0  0  0
    2.5741   -5.4042    3.5945 H   0  0  0  0  0  0  0  0  0  0  0  0
    0.9294   -5.5888    3.0889 H   0  0  0  0  0  0  0  0  0  0  0  0
    1.4185   -8.0955    1.2249 H   0  0  0  0  0  0  0  0  0  0  0  0
   -0.4785   -7.0882    3.2613 H   0  0  0  0  0  0  0  0  0  0  0  0
   -0.7420   -7.4508    1.5636 H   0  0  0  0  0  0  0  0  0  0  0  0
   -1.7745   -8.9643    3.6438 H   0  0  0  0  0  0  0  0  0  0  0  0
   -1.3808   -9.6635    2.0537 H   0  0  0  0  0  0  0  0  0  0  0  0
    0.3697   -9.5464    4.3828 H   0  0  0  0  0  0  0  0  0  0  0  0
    1.1203  -10.2604    1.6836 H   0  0  0  0  0  0  0  0  0  0  0  0
    2.2078  -10.0583    3.0649 H   0  0  0  0  0  0  0  0  0  0  0  0
    4.0923   -7.1082    3.6669 H   0  0  0  0  0  0  0  0  0  0  0  0
    3.7274   -8.7480    3.1887 H   0  0  0  0  0  0  0  0  0  0  0  0
    3.5085   -7.9959    0.7808 H   0  0  0  0  0  0  0  0  0  0  0  0
    5.0566   -7.6459    1.4488 H   0  0  0  0  0  0  0  0  0  0  0  0
    6.4422   -2.8857    0.6649 H   0  0  0  0  0  0  0  0  0  0  0  0
    5.3807   -2.7673    2.0810 H   0  0  0  0  0  0  0  0  0  0  0  0
   -0.1105  -10.9097    3.5840 H   0  0  0  0  0  0  0  0  0  0  0  0
  1  2  2  0
  2 20  1  0
  2  3  1  0
  3  4  1  0
  3 21  1  0
  3 22  1  0
  4  5  1  0
  4 23  1  0
  5  6  1  0
  5 24  1  0
  5 25  1  0
  6  7  1  0
  6 20  1  0
  6 26  1  1
  7  8  2  0
  7  9  1  0
  9 19  1  0
  9 10  1  0
 10 11  1  0
 10 27  1  0
 10 28  1  0
 11 12  1  0
 11 29  1  0
 11 30  1  0
 12 13  1  0
 12 18  1  0
 13 17  1  0
 13 14  1  0
 13 31  1  6
 14 15  1  0
 14 32  1  0
 14 33  1  0
 15 16  1  0
 15 34  1  0
 15 35  1  0
 16 17  1  0
 16 36  1  0
 16 45  1  0
 17 37  1  0
 17 38  1  0
 18 19  1  0
 18 39  1  0
 18 40  1  0
 19 41  1  0
 19 42  1  0
 20 43  1  0
 20 44  1  0
M  CHG  1  16   1
M  END
>  <i_m_ct_stereo_status>  (21) 
1

>  <s_m_source_file>  (21) 
/var/tmp/pbs.5076255.sched01/tmpuhafuy1n/0xc5aj8_e.sdf

>  <i_m_source_file_index>  (21) 
8

>  <i_lp_mmshare_version>  (21) 
48012

>  <i_f3d_flags>  (21) 
0

>  <s_epik_input>  (21) 
Tz1DMVtDSDJdW05IXVtDSDJdW0NASF0oW0NIMl0xKUMoPU8pTjJbQ0gyXVtDSDJdTihbQ0gyXVtDSDJdMilbQ0BASF0zW0NIMl1bQ0gyXVtOSF1bQ0gyXTM=

>  <s_epik_cmdline>  (21) 
J2VwaWtfcHl0aG9uJywgJy1waHQnLCAnMi4wJywgJy1waCcsICc3LjAnLCAnLXRuJywgJzgnLCAnLW1hJywgJzIwMCcsICctaW1hZScsICc8aW5maWxlLm1hZT4nLCAnLW9tYWUnLCAnPG91dGZpbGUubWFlPic=

>  <r_lp_tautomer_probability>  (21) 
1

>  <r_epik_Ionization_Penalty>  (21) 
0.476882

>  <r_epik_Ionization_Penalty_Charging>  (21) 
4.48524e-05

>  <r_epik_Ionization_Penalty_Neutral>  (21) 
0.476838

>  <r_epik_State_Penalty>  (21) 
0.449812

>  <r_epik_Charging_Adjusted_Penalty>  (21) 
0.449857

>  <i_epik_Tot_Q>  (21) 
1

>  <i_epik_Tot_abs_Q>  (21) 
1

>  <s_lp_Force_Field>  (21) 
OPLS3e

>  <r_lp_Energy>  (21) 
58.3434

>  <b_lp_Chiralities_Consistent>  (21) 
1

>  <s_lp_Variant>  (21) 
6:0-1

>  <s_i_glide_gridfile>  (21) 
pfpi4k_grid

>  <i_i_glide_lignum>  (21) 
8

>  <i_i_glide_rotatable_bonds>  (21) 
3

>  <r_i_docking_score>  (21) 
-3.46161

>  <r_i_glide_ligand_efficiency>  (21) 
-0.173081

>  <r_i_glide_ligand_efficiency_sa>  (21) 
-0.469813

>  <r_i_glide_ligand_efficiency_ln>  (21) 
-0.866327

>  <r_i_glide_gscore>  (21) 
-3.46161

>  <r_i_glide_lipo>  (21) 
-0.249083

>  <r_i_glide_hbond>  (21) 
-0.064647

>  <r_i_glide_metal>  (21) 
-0

>  <r_i_glide_rewards>  (21) 
-1.7232

>  <r_i_glide_evdw>  (21) 
-26.2366

>  <r_i_glide_ecoul>  (21) 
-5.04254

>  <r_i_glide_erotb>  (21) 
0.68494

>  <r_i_glide_esite>  (21) 
-0.0414034

>  <r_i_glide_emodel>  (21) 
-39.8472

>  <r_i_glide_energy>  (21) 
-31.2792

>  <r_i_glide_einternal>  (21) 
0.283833

>  <r_i_glide_intrahb_reward>  (21) 
-0

>  <i_i_glide_confnum>  (21) 
1

>  <i_i_glide_posenum>  (21) 
36

>  <r_i_glide_eff_state_penalty>  (21) 
0

>  <ligand_id>  (21) 
6

>  <original_smiles>  (21) 
O=C1CNCC(C(=O)N2CCN(C3CCNC3)CC2)C1

>  <smiles>  (21) 
[H]N1C([H])([H])C(=O)C([H])([H])C([H])(C(=O)N2C([H])([H])C([H])([H])N(C3([H])C([H])([H])C([H])([H])[N+]([H])([H])C3([H])[H])C([H])([H])C2([H])[H])C1([H])[H]

$$$$
6:1:0
     RDKit          3D

 46 48  0  0  1  0  0  0  0  0999 V2000
    1.8247   -3.9134   -0.8743 O   0  0  0  0  0  0  0  0  0  0  0  0
    2.9527   -3.8390   -0.3946 C   0  0  0  0  0  0  0  0  0  0  0  0
    4.0036   -2.8502   -0.9002 C   0  0  0  0  0  0  0  0  0  0  0  0
    5.3311   -3.4373   -1.1091 N   0  0  0  0  0  0  0  0  0  0  0  0
    5.7911   -4.1718    0.0783 C   0  0  0  0  0  0  0  0  0  0  0  0
    4.7966   -5.3003    0.4563 C   0  0  1  0  0  0  0  0  0  0  0  0
    5.2775   -6.0490    1.7191 C   0  0  0  0  0  0  0  0  0  0  0  0
    5.7531   -5.3680    2.6255 O   0  0  0  0  0  0  0  0  0  0  0  0
    5.1549   -7.4003    1.8307 N   0  0  0  0  0  0  0  0  0  0  0  0
    4.6499   -8.3168    0.7921 C   0  0  0  0  0  0  0  0  0  0  0  0
    3.5046   -9.1764    1.3333 C   0  0  0  0  0  0  0  0  0  0  0  0
    3.8819   -9.8759    2.5877 N   0  0  0  0  0  0  0  0  0  0  0  0
    2.7902  -10.7749    3.0515 C   0  0  2  0  0  0  0  0  0  0  0  0
    1.4877  -10.0237    3.4278 C   0  0  0  0  0  0  0  0  0  0  0  0
    1.1057  -10.5766    4.7935 C   0  0  0  0  0  0  0  0  0  0  0  0
    1.7979  -11.8646    4.8795 N   0  0  0  0  0  0  0  0  0  0  0  0
    3.1065  -11.7014    4.2407 C   0  0  0  0  0  0  0  0  0  0  0  0
    4.3788   -8.9161    3.6146 C   0  0  0  0  0  0  0  0  0  0  0  0
    5.5479   -8.0904    3.0718 C   0  0  0  0  0  0  0  0  0  0  0  0
    3.3916   -4.7353    0.7556 C   0  0  0  0  0  0  0  0  0  0  0  0
    3.6614   -2.4229   -1.8425 H   0  0  0  0  0  0  0  0  0  0  0  0
    4.0828   -2.0447   -0.1724 H   0  0  0  0  0  0  0  0  0  0  0  0
    5.2769   -4.0622   -1.8970 H   0  0  0  0  0  0  0  0  0  0  0  0
    6.7498   -4.6266   -0.1763 H   0  0  0  0  0  0  0  0  0  0  0  0
    5.9596   -3.4739    0.8980 H   0  0  0  0  0  0  0  0  0  0  0  0
    4.7555   -5.9356   -0.4319 H   0  0  0  0  0  0  0  0  0  0  0  0
    4.2264   -7.8268   -0.0825 H   0  0  0  0  0  0  0  0  0  0  0  0
    5.4699   -8.9563    0.4486 H   0  0  0  0  0  0  0  0  0  0  0  0
    2.6481   -8.5239    1.5087 H   0  0  0  0  0  0  0  0  0  0  0  0
    3.1873   -9.8794    0.5622 H   0  0  0  0  0  0  0  0  0  0  0  0
    2.5978  -11.4478    2.2152 H   0  0  0  0  0  0  0  0  0  0  0  0
    1.5623   -8.9381    3.4799 H   0  0  0  0  0  0  0  0  0  0  0  0
    0.7157  -10.2482    2.6933 H   0  0  0  0  0  0  0  0  0  0  0  0
    1.4913   -9.9285    5.5860 H   0  0  0  0  0  0  0  0  0  0  0  0
    0.0293  -10.6606    4.9361 H   0  0  0  0  0  0  0  0  0  0  0  0
    1.8660  -12.1642    5.8530 H   0  0  0  0  0  0  0  0  0  0  0  0
    3.5540  -12.6528    3.9450 H   0  0  0  0  0  0  0  0  0  0  0  0
    3.7584  -11.2520    4.9859 H   0  0  0  0  0  0  0  0  0  0  0  0
    3.5891   -8.2197    3.9092 H   0  0  0  0  0  0  0  0  0  0  0  0
    4.7260   -9.4089    4.5196 H   0  0  0  0  0  0  0  0  0  0  0  0
    6.4211   -8.7167    2.8815 H   0  0  0  0  0  0  0  0  0  0  0  0
    5.8291   -7.4039    3.8764 H   0  0  0  0  0  0  0  0  0  0  0  0
    3.3990   -4.1394    1.6689 H   0  0  0  0  0  0  0  0  0  0  0  0
    2.6660   -5.5400    0.8920 H   0  0  0  0  0  0  0  0  0  0  0  0
    1.2770  -12.5472    4.3454 H   0  0  0  0  0  0  0  0  0  0  0  0
    4.6556  -10.4777    2.3362 H   0  0  0  0  0  0  0  0  0  0  0  0
  1  2  2  0
  2 20  1  0
  2  3  1  0
  3  4  1  0
  3 21  1  0
  3 22  1  0
  4  5  1  0
  4 23  1  0
  5  6  1  0
  5 24  1  0
  5 25  1  0
  6  7  1  0
  6 20  1  0
  6 26  1  6
  7  8  2  0
  7  9  1  0
  9 19  1  0
  9 10  1  0
 10 11  1  0
 10 27  1  0
 10 28  1  0
 11 12  1  0
 11 29  1  0
 11 30  1  0
 12 13  1  0
 12 18  1  0
 12 46  1  0
 13 17  1  0
 13 14  1  0
 13 31  1  6
 14 15  1  0
 14 32  1  0
 14 33  1  0
 15 16  1  0
 15 34  1  0
 15 35  1  0
 16 17  1  0
 16 36  1  0
 16 45  1  0
 17 37  1  0
 17 38  1  0
 18 19  1  0
 18 39  1  0
 18 40  1  0
 19 41  1  0
 19 42  1  0
 20 43  1  0
 20 44  1  0
M  CHG  2  12   1  16   1
M  END
>  <i_m_ct_stereo_status>  (22) 
1

>  <s_m_source_file>  (22) 
/var/tmp/pbs.5076255.sched01/tmpuhafuy1n/0xc5aj8_e.sdf

>  <i_m_source_file_index>  (22) 
9

>  <i_lp_mmshare_version>  (22) 
48012

>  <i_f3d_flags>  (22) 
0

>  <s_epik_input>  (22) 
Tz1DMVtDSDJdW05IXVtDSDJdW0NASF0oW0NIMl0xKUMoPU8pTjJbQ0gyXVtDSDJdTihbQ0gyXVtDSDJdMilbQ0BASF0zW0NIMl1bQ0gyXVtOSF1bQ0gyXTM=

>  <s_epik_cmdline>  (22) 
J2VwaWtfcHl0aG9uJywgJy1waHQnLCAnMi4wJywgJy1waCcsICc3LjAnLCAnLXRuJywgJzgnLCAnLW1hJywgJzIwMCcsICctaW1hZScsICc8aW5maWxlLm1hZT4nLCAnLW9tYWUnLCAnPG91dGZpbGUubWFlPic=

>  <r_lp_tautomer_probability>  (22) 
1

>  <r_epik_Ionization_Penalty>  (22) 
1.04228

>  <r_epik_Ionization_Penalty_Charging>  (22) 
1.01125

>  <r_epik_Ionization_Penalty_Neutral>  (22) 
0.031038

>  <r_epik_State_Penalty>  (22) 
0.477675

>  <r_epik_Charging_Adjusted_Penalty>  (22) 
1.48892

>  <i_epik_Tot_Q>  (22) 
2

>  <i_epik_Tot_abs_Q>  (22) 
2

>  <s_lp_Force_Field>  (22) 
OPLS3e

>  <r_lp_Energy>  (22) 
62.3134

>  <b_lp_Chiralities_Consistent>  (22) 
1

>  <s_lp_Variant>  (22) 
6:0-2

>  <s_i_glide_gridfile>  (22) 
pfpi4k_grid

>  <i_i_glide_lignum>  (22) 
9

>  <i_i_glide_rotatable_bonds>  (22) 
3

>  <r_i_docking_score>  (22) 
-4.61463

>  <r_i_glide_ligand_efficiency>  (22) 
-0.230732

>  <r_i_glide_ligand_efficiency_sa>  (22) 
-0.626302

>  <r_i_glide_ligand_efficiency_ln>  (22) 
-1.15489

>  <r_i_glide_gscore>  (22) 
-4.61463

>  <r_i_glide_lipo>  (22) 
-0.196802

>  <r_i_glide_hbond>  (22) 
-0.231721

>  <r_i_glide_metal>  (22) 
-0

>  <r_i_glide_rewards>  (22) 
-2.15424

>  <r_i_glide_evdw>  (22) 
-20.9987

>  <r_i_glide_ecoul>  (22) 
-8.8071

>  <r_i_glide_erotb>  (22) 
0.476487

>  <r_i_glide_esite>  (22) 
-0.137357

>  <r_i_glide_emodel>  (22) 
-44.6275

>  <r_i_glide_energy>  (22) 
-29.8058

>  <r_i_glide_einternal>  (22) 
2.43988

>  <r_i_glide_intrahb_reward>  (22) 
-0

>  <i_i_glide_confnum>  (22) 
4

>  <i_i_glide_posenum>  (22) 
9

>  <r_i_glide_eff_state_penalty>  (22) 
0

>  <ligand_id>  (22) 
6

>  <original_smiles>  (22) 
O=C1CNCC(C(=O)N2CCN(C3CCNC3)CC2)C1

>  <smiles>  (22) 
[H]N1C([H])([H])C(=O)C([H])([H])C([H])(C(=O)N2C([H])([H])C([H])([H])[N+]([H])(C3([H])C([H])([H])C([H])([H])[N+]([H])([H])C3([H])[H])C([H])([H])C2([H])[H])C1([H])[H]

$$$$
6:1:1
     RDKit          3D

 46 48  0  0  1  0  0  0  0  0999 V2000
    1.9477   -1.5106    3.1742 O   0  0  0  0  0  0  0  0  0  0  0  0
    2.7558   -2.0255    2.4022 C   0  0  0  0  0  0  0  0  0  0  0  0
    3.4234   -1.2573    1.2618 C   0  0  0  0  0  0  0  0  0  0  0  0
    3.4306   -1.9634   -0.0093 N   0  0  0  0  0  0  0  0  0  0  0  0
    3.9607   -3.3129    0.1061 C   0  0  0  0  0  0  0  0  0  0  0  0
    3.1469   -4.1486    1.1314 C   0  0  1  0  0  0  0  0  0  0  0  0
    3.7299   -5.5651    1.2740 C   0  0  0  0  0  0  0  0  0  0  0  0
    4.9494   -5.6679    1.4026 O   0  0  0  0  0  0  0  0  0  0  0  0
    2.9188   -6.6712    1.3000 N   0  0  0  0  0  0  0  0  0  0  0  0
    1.4567   -6.6807    1.1075 C   0  0  0  0  0  0  0  0  0  0  0  0
    0.7461   -7.3986    2.2398 C   0  0  0  0  0  0  0  0  0  0  0  0
    1.3166   -8.7451    2.5088 N   0  0  0  0  0  0  0  0  0  0  0  0
    0.5483   -9.4403    3.5794 C   0  0  2  0  0  0  0  0  0  0  0  0
    0.6328   -8.7331    4.9574 C   0  0  0  0  0  0  0  0  0  0  0  0
    0.9987   -9.8294    5.9489 C   0  0  0  0  0  0  0  0  0  0  0  0
    0.6168  -11.0771    5.2648 N   0  0  0  0  0  0  0  0  0  0  0  0
    0.9255  -10.9146    3.8512 C   0  0  0  0  0  0  0  0  0  0  0  0
    2.7923   -8.6803    2.7223 C   0  0  0  0  0  0  0  0  0  0  0  0
    3.4863   -8.0014    1.5423 C   0  0  0  0  0  0  0  0  0  0  0  0
    3.1587   -3.4819    2.5310 C   0  0  0  0  0  0  0  0  0  0  0  0
    2.9148   -0.3008    1.1262 H   0  0  0  0  0  0  0  0  0  0  0  0
    4.4530   -1.0506    1.5572 H   0  0  0  0  0  0  0  0  0  0  0  0
    2.4816   -1.9307   -0.3869 H   0  0  0  0  0  0  0  0  0  0  0  0
    3.8824   -3.7961   -0.8679 H   0  0  0  0  0  0  0  0  0  0  0  0
    5.0209   -3.2760    0.3623 H   0  0  0  0  0  0  0  0  0  0  0  0
    2.1439   -4.1225    0.7388 H   0  0  0  0  0  0  0  0  0  0  0  0
    1.0107   -5.6974    1.0947 H   0  0  0  0  0  0  0  0  0  0  0  0
    1.1933   -7.1163    0.1418 H   0  0  0  0  0  0  0  0  0  0  0  0
    0.8543   -6.7724    3.1282 H   0  0  0  0  0  0  0  0  0  0  0  0
   -0.3244   -7.4643    2.0382 H   0  0  0  0  0  0  0  0  0  0  0  0
   -0.5040   -9.4510    3.2850 H   0  0  0  0  0  0  0  0  0  0  0  0
    1.3509   -7.9185    5.0348 H   0  0  0  0  0  0  0  0  0  0  0  0
   -0.3417   -8.3090    5.2064 H   0  0  0  0  0  0  0  0  0  0  0  0
    2.0808   -9.8430    6.1063 H   0  0  0  0  0  0  0  0  0  0  0  0
    0.5215   -9.7154    6.9175 H   0  0  0  0  0  0  0  0  0  0  0  0
    1.0866  -11.8572    5.7426 H   0  0  0  0  0  0  0  0  0  0  0  0
    0.3837  -11.6219    3.2126 H   0  0  0  0  0  0  0  0  0  0  0  0
    1.9893  -11.1309    3.7312 H   0  0  0  0  0  0  0  0  0  0  0  0
    3.0269   -8.1063    3.6234 H   0  0  0  0  0  0  0  0  0  0  0  0
    3.2417   -9.6618    2.8435 H   0  0  0  0  0  0  0  0  0  0  0  0
    3.4095   -8.6172    0.6454 H   0  0  0  0  0  0  0  0  0  0  0  0
    4.5525   -7.9887    1.7934 H   0  0  0  0  0  0  0  0  0  0  0  0
    4.1559   -3.5282    2.9778 H   0  0  0  0  0  0  0  0  0  0  0  0
    2.4751   -3.9988    3.2100 H   0  0  0  0  0  0  0  0  0  0  0  0
   -0.3964  -11.1653    5.3508 H   0  0  0  0  0  0  0  0  0  0  0  0
    1.1743   -9.2758    1.6548 H   0  0  0  0  0  0  0  0  0  0  0  0
  1  2  2  0
  2 20  1  0
  2  3  1  0
  3  4  1  0
  3 21  1  0
  3 22  1  0
  4  5  1  0
  4 23  1  0
  5  6  1  0
  5 24  1  0
  5 25  1  0
  6  7  1  0
  6 20  1  0
  6 26  1  6
  7  8  2  0
  7  9  1  0
  9 19  1  0
  9 10  1  0
 10 11  1  0
 10 27  1  0
 10 28  1  0
 11 12  1  0
 11 29  1  0
 11 30  1  0
 12 13  1  0
 12 18  1  0
 12 46  1  0
 13 17  1  0
 13 14  1  0
 13 31  1  6
 14 15  1  0
 14 32  1  0
 14 33  1  0
 15 16  1  0
 15 34  1  0
 15 35  1  0
 16 17  1  0
 16 36  1  0
 16 45  1  0
 17 37  1  0
 17 38  1  0
 18 19  1  0
 18 39  1  0
 18 40  1  0
 19 41  1  0
 19 42  1  0
 20 43  1  0
 20 44  1  0
M  CHG  2  12   1  16   1
M  END
>  <i_m_ct_stereo_status>  (23) 
1

>  <s_m_source_file>  (23) 
/var/tmp/pbs.5076255.sched01/tmpuhafuy1n/0xc5aj8_e.sdf

>  <i_m_source_file_index>  (23) 
9

>  <i_lp_mmshare_version>  (23) 
48012

>  <i_f3d_flags>  (23) 
0

>  <s_epik_input>  (23) 
Tz1DMVtDSDJdW05IXVtDSDJdW0NASF0oW0NIMl0xKUMoPU8pTjJbQ0gyXVtDSDJdTihbQ0gyXVtDSDJdMilbQ0BASF0zW0NIMl1bQ0gyXVtOSF1bQ0gyXTM=

>  <s_epik_cmdline>  (23) 
J2VwaWtfcHl0aG9uJywgJy1waHQnLCAnMi4wJywgJy1waCcsICc3LjAnLCAnLXRuJywgJzgnLCAnLW1hJywgJzIwMCcsICctaW1hZScsICc8aW5maWxlLm1hZT4nLCAnLW9tYWUnLCAnPG91dGZpbGUubWFlPic=

>  <r_lp_tautomer_probability>  (23) 
1

>  <r_epik_Ionization_Penalty>  (23) 
1.04228

>  <r_epik_Ionization_Penalty_Charging>  (23) 
1.01125

>  <r_epik_Ionization_Penalty_Neutral>  (23) 
0.031038

>  <r_epik_State_Penalty>  (23) 
0.477675

>  <r_epik_Charging_Adjusted_Penalty>  (23) 
1.48892

>  <i_epik_Tot_Q>  (23) 
2

>  <i_epik_Tot_abs_Q>  (23) 
2

>  <s_lp_Force_Field>  (23) 
OPLS3e

>  <r_lp_Energy>  (23) 
62.3134

>  <b_lp_Chiralities_Consistent>  (23) 
1

>  <s_lp_Variant>  (23) 
6:0-2

>  <s_i_glide_gridfile>  (23) 
pfpi4k_grid

>  <i_i_glide_lignum>  (23) 
9

>  <i_i_glide_rotatable_bonds>  (23) 
3

>  <r_i_docking_score>  (23) 
-3.98237

>  <r_i_glide_ligand_efficiency>  (23) 
-0.199118

>  <r_i_glide_ligand_efficiency_sa>  (23) 
-0.54049

>  <r_i_glide_ligand_efficiency_ln>  (23) 
-0.996655

>  <r_i_glide_gscore>  (23) 
-3.98237

>  <r_i_glide_lipo>  (23) 
-0.0955927

>  <r_i_glide_hbond>  (23) 
-0.495193

>  <r_i_glide_metal>  (23) 
-0

>  <r_i_glide_rewards>  (23) 
-1.55386

>  <r_i_glide_evdw>  (23) 
-20.9829

>  <r_i_glide_ecoul>  (23) 
-9.07433

>  <r_i_glide_erotb>  (23) 
0.680696

>  <r_i_glide_esite>  (23) 
-0.108124

>  <r_i_glide_emodel>  (23) 
-42.4315

>  <r_i_glide_energy>  (23) 
-30.0572

>  <r_i_glide_einternal>  (23) 
2.37546

>  <r_i_glide_intrahb_reward>  (23) 
-0

>  <i_i_glide_confnum>  (23) 
4

>  <i_i_glide_posenum>  (23) 
33

>  <r_i_glide_eff_state_penalty>  (23) 
0

>  <ligand_id>  (23) 
6

>  <original_smiles>  (23) 
O=C1CNCC(C(=O)N2CCN(C3CCNC3)CC2)C1

>  <smiles>  (23) 
[H]N1C([H])([H])C(=O)C([H])([H])C([H])(C(=O)N2C([H])([H])C([H])([H])[N+]([H])(C3([H])C([H])([H])C([H])([H])[N+]([H])([H])C3([H])[H])C([H])([H])C2([H])[H])C1([H])[H]

$$$$
6:1:2
     RDKit          3D

 46 48  0  0  1  0  0  0  0  0999 V2000
   -0.5848   -6.8332    2.3561 O   0  0  0  0  0  0  0  0  0  0  0  0
    0.4562   -7.4555    2.1945 C   0  0  0  0  0  0  0  0  0  0  0  0
    0.6713   -8.8772    2.7184 C   0  0  0  0  0  0  0  0  0  0  0  0
    1.9526   -9.0576    3.4040 N   0  0  0  0  0  0  0  0  0  0  0  0
    3.0818   -8.5853    2.6064 C   0  0  0  0  0  0  0  0  0  0  0  0
    2.9329   -7.0789    2.2139 C   0  0  1  0  0  0  0  0  0  0  0  0
    4.1336   -6.6121    1.3705 C   0  0  0  0  0  0  0  0  0  0  0  0
    4.8800   -7.4717    0.8898 O   0  0  0  0  0  0  0  0  0  0  0  0
    4.3401   -5.2840    1.1252 N   0  0  0  0  0  0  0  0  0  0  0  0
    3.5488   -4.1698    1.6652 C   0  0  0  0  0  0  0  0  0  0  0  0
    2.9976   -3.2994    0.5298 C   0  0  0  0  0  0  0  0  0  0  0  0
    4.0758   -2.8644   -0.3992 N   0  0  0  0  0  0  0  0  0  0  0  0
    3.5486   -1.9478   -1.4454 C   0  0  2  0  0  0  0  0  0  0  0  0
    2.6226   -2.6287   -2.4807 C   0  0  0  0  0  0  0  0  0  0  0  0
    3.1580   -2.1945   -3.8377 C   0  0  0  0  0  0  0  0  0  0  0  0
    3.9246   -0.9633   -3.5803 N   0  0  0  0  0  0  0  0  0  0  0  0
    4.5918   -1.1756   -2.2822 C   0  0  0  0  0  0  0  0  0  0  0  0
    4.8803   -4.0092   -0.9032 C   0  0  0  0  0  0  0  0  0  0  0  0
    5.4346   -4.8432    0.2526 C   0  0  0  0  0  0  0  0  0  0  0  0
    1.6127   -6.8381    1.4565 C   0  0  0  0  0  0  0  0  0  0  0  0
   -0.1228   -9.1577    3.4087 H   0  0  0  0  0  0  0  0  0  0  0  0
    0.6469   -9.5561    1.8665 H   0  0  0  0  0  0  0  0  0  0  0  0
    1.9329   -8.6120    4.3074 H   0  0  0  0  0  0  0  0  0  0  0  0
    3.9787   -8.7445    3.2104 H   0  0  0  0  0  0  0  0  0  0  0  0
    3.1652   -9.2129    1.7191 H   0  0  0  0  0  0  0  0  0  0  0  0
    2.9456   -6.5100    3.1632 H   0  0  0  0  0  0  0  0  0  0  0  0
    2.7023   -4.4945    2.2617 H   0  0  0  0  0  0  0  0  0  0  0  0
    4.1750   -3.5751    2.3329 H   0  0  0  0  0  0  0  0  0  0  0  0
    2.2517   -3.8661   -0.0296 H   0  0  0  0  0  0  0  0  0  0  0  0
    2.4716   -2.4389    0.9422 H   0  0  0  0  0  0  0  0  0  0  0  0
    3.0015   -1.1477   -0.9423 H   0  0  0  0  0  0  0  0  0  0  0  0
    2.5727   -3.7126   -2.4281 H   0  0  0  0  0  0  0  0  0  0  0  0
    1.6051   -2.2669   -2.3460 H   0  0  0  0  0  0  0  0  0  0  0  0
    3.8300   -2.9568   -4.2403 H   0  0  0  0  0  0  0  0  0  0  0  0
    2.3577   -2.0265   -4.5521 H   0  0  0  0  0  0  0  0  0  0  0  0
    4.5810   -0.7508   -4.3110 H   0  0  0  0  0  0  0  0  0  0  0  0
    4.8997   -0.2335   -1.8152 H   0  0  0  0  0  0  0  0  0  0  0  0
    5.4989   -1.7567   -2.4543 H   0  0  0  0  0  0  0  0  0  0  0  0
    4.2640   -4.6681   -1.5203 H   0  0  0  0  0  0  0  0  0  0  0  0
    5.7180   -3.6918   -1.5272 H   0  0  0  0  0  0  0  0  0  0  0  0
    6.1685   -4.2900    0.8408 H   0  0  0  0  0  0  0  0  0  0  0  0
    5.9761   -5.6663   -0.2163 H   0  0  0  0  0  0  0  0  0  0  0  0
    1.6718   -7.3195    0.4888 H   0  0  0  0  0  0  0  0  0  0  0  0
    1.4022   -5.7908    1.2857 H   0  0  0  0  0  0  0  0  0  0  0  0
    3.2640   -0.2010   -3.4706 H   0  0  0  0  0  0  0  0  0  0  0  0
    4.6980   -2.3067    0.1728 H   0  0  0  0  0  0  0  0  0  0  0  0
  1  2  2  0
  2 20  1  0
  2  3  1  0
  3  4  1  0
  3 21  1  0
  3 22  1  0
  4  5  1  0
  4 23  1  0
  5  6  1  0
  5 24  1  0
  5 25  1  0
  6  7  1  0
  6 20  1  0
  6 26  1  1
  7  8  2  0
  7  9  1  0
  9 19  1  0
  9 10  1  0
 10 11  1  0
 10 27  1  0
 10 28  1  0
 11 12  1  0
 11 29  1  0
 11 30  1  0
 12 13  1  0
 12 18  1  0
 12 46  1  0
 13 17  1  0
 13 14  1  0
 13 31  1  1
 14 15  1  0
 14 32  1  0
 14 33  1  0
 15 16  1  0
 15 34  1  0
 15 35  1  0
 16 17  1  0
 16 36  1  0
 16 45  1  0
 17 37  1  0
 17 38  1  0
 18 19  1  0
 18 39  1  0
 18 40  1  0
 19 41  1  0
 19 42  1  0
 20 43  1  0
 20 44  1  0
M  CHG  2  12   1  16   1
M  END
>  <i_m_ct_stereo_status>  (24) 
1

>  <s_m_source_file>  (24) 
/var/tmp/pbs.5076255.sched01/tmpuhafuy1n/0xc5aj8_e.sdf

>  <i_m_source_file_index>  (24) 
9

>  <i_lp_mmshare_version>  (24) 
48012

>  <i_f3d_flags>  (24) 
0

>  <s_epik_input>  (24) 
Tz1DMVtDSDJdW05IXVtDSDJdW0NASF0oW0NIMl0xKUMoPU8pTjJbQ0gyXVtDSDJdTihbQ0gyXVtDSDJdMilbQ0BASF0zW0NIMl1bQ0gyXVtOSF1bQ0gyXTM=

>  <s_epik_cmdline>  (24) 
J2VwaWtfcHl0aG9uJywgJy1waHQnLCAnMi4wJywgJy1waCcsICc3LjAnLCAnLXRuJywgJzgnLCAnLW1hJywgJzIwMCcsICctaW1hZScsICc8aW5maWxlLm1hZT4nLCAnLW9tYWUnLCAnPG91dGZpbGUubWFlPic=

>  <r_lp_tautomer_probability>  (24) 
1

>  <r_epik_Ionization_Penalty>  (24) 
1.04228

>  <r_epik_Ionization_Penalty_Charging>  (24) 
1.01125

>  <r_epik_Ionization_Penalty_Neutral>  (24) 
0.031038

>  <r_epik_State_Penalty>  (24) 
0.477675

>  <r_epik_Charging_Adjusted_Penalty>  (24) 
1.48892

>  <i_epik_Tot_Q>  (24) 
2

>  <i_epik_Tot_abs_Q>  (24) 
2

>  <s_lp_Force_Field>  (24) 
OPLS3e

>  <r_lp_Energy>  (24) 
62.3134

>  <b_lp_Chiralities_Consistent>  (24) 
1

>  <s_lp_Variant>  (24) 
6:0-2

>  <s_i_glide_gridfile>  (24) 
pfpi4k_grid

>  <i_i_glide_lignum>  (24) 
9

>  <i_i_glide_rotatable_bonds>  (24) 
3

>  <r_i_docking_score>  (24) 
-3.90384

>  <r_i_glide_ligand_efficiency>  (24) 
-0.195192

>  <r_i_glide_ligand_efficiency_sa>  (24) 
-0.529833

>  <r_i_glide_ligand_efficiency_ln>  (24) 
-0.977004

>  <r_i_glide_gscore>  (24) 
-3.90384

>  <r_i_glide_lipo>  (24) 
-0.231758

>  <r_i_glide_hbond>  (24) 
-0.16

>  <r_i_glide_metal>  (24) 
-0

>  <r_i_glide_rewards>  (24) 
-1.63208

>  <r_i_glide_evdw>  (24) 
-24.6879

>  <r_i_glide_ecoul>  (24) 
-8.45136

>  <r_i_glide_erotb>  (24) 
0.680696

>  <r_i_glide_esite>  (24) 
-0.0586031

>  <r_i_glide_emodel>  (24) 
-44.3301

>  <r_i_glide_energy>  (24) 
-33.1393

>  <r_i_glide_einternal>  (24) 
4.34557

>  <r_i_glide_intrahb_reward>  (24) 
-0

>  <i_i_glide_confnum>  (24) 
4

>  <i_i_glide_posenum>  (24) 
4

>  <r_i_glide_eff_state_penalty>  (24) 
0

>  <ligand_id>  (24) 
6

>  <original_smiles>  (24) 
O=C1CNCC(C(=O)N2CCN(C3CCNC3)CC2)C1

>  <smiles>  (24) 
[H]N1C([H])([H])C(=O)C([H])([H])C([H])(C(=O)N2C([H])([H])C([H])([H])[N+]([H])(C3([H])C([H])([H])C([H])([H])[N+]([H])([H])C3([H])[H])C([H])([H])C2([H])[H])C1([H])[H]

$$$$
6:2:0
     RDKit          3D

 46 48  0  0  1  0  0  0  0  0999 V2000
    4.5475   -2.7112   -3.9264 O   0  0  0  0  0  0  0  0  0  0  0  0
    4.2691   -3.0351   -2.7795 C   0  0  0  0  0  0  0  0  0  0  0  0
    2.8898   -2.7241   -2.1808 C   0  0  0  0  0  0  0  0  0  0  0  0
    3.0497   -2.1103   -0.8313 N   0  0  0  0  0  0  0  0  0  0  0  0
    3.8003   -2.9218    0.1442 C   0  0  0  0  0  0  0  0  0  0  0  0
    5.2137   -3.2609   -0.4454 C   0  0  1  0  0  0  0  0  0  0  0  0
    6.0422   -4.1459    0.4908 C   0  0  0  0  0  0  0  0  0  0  0  0
    7.0039   -3.6086    1.0597 O   0  0  0  0  0  0  0  0  0  0  0  0
    5.7844   -5.4623    0.6119 N   0  0  0  0  0  0  0  0  0  0  0  0
    4.6014   -6.1811    0.0986 C   0  0  0  0  0  0  0  0  0  0  0  0
    3.8552   -6.8232    1.2709 C   0  0  0  0  0  0  0  0  0  0  0  0
    4.7125   -7.7917    1.9540 N   0  0  0  0  0  0  0  0  0  0  0  0
    3.9589   -8.4418    3.0352 C   0  0  2  0  0  0  0  0  0  0  0  0
    4.8233   -9.4478    3.8386 C   0  0  0  0  0  0  0  0  0  0  0  0
    4.0612  -10.7736    3.7992 C   0  0  0  0  0  0  0  0  0  0  0  0
    3.2534  -10.6888    2.5822 N   0  0  0  0  0  0  0  0  0  0  0  0
    2.7755   -9.3047    2.5173 C   0  0  0  0  0  0  0  0  0  0  0  0
    5.8863   -7.0617    2.4795 C   0  0  0  0  0  0  0  0  0  0  0  0
    6.6689   -6.3696    1.3476 C   0  0  0  0  0  0  0  0  0  0  0  0
    5.2415   -3.8022   -1.9041 C   0  0  0  0  0  0  0  0  0  0  0  0
    2.3835   -2.0005   -2.8032 H   0  0  0  0  0  0  0  0  0  0  0  0
    2.3028   -3.6323   -2.1391 H   0  0  0  0  0  0  0  0  0  0  0  0
    3.4920   -1.2273   -0.9448 H   0  0  0  0  0  0  0  0  0  0  0  0
    3.9394   -2.3156    1.0549 H   0  0  0  0  0  0  0  0  0  0  0  0
    3.2084   -3.8075    0.4115 H   0  0  0  0  0  0  0  0  0  0  0  0
    5.7507   -2.3191   -0.4974 H   0  0  0  0  0  0  0  0  0  0  0  0
    3.8542   -5.5459   -0.3793 H   0  0  0  0  0  0  0  0  0  0  0  0
    4.9216   -6.9608   -0.6034 H   0  0  0  0  0  0  0  0  0  0  0  0
    3.5326   -6.0613    1.9783 H   0  0  0  0  0  0  0  0  0  0  0  0
    2.9543   -7.2700    0.8606 H   0  0  0  0  0  0  0  0  0  0  0  0
    3.5815   -7.6594    3.6977 H   0  0  0  0  0  0  0  0  0  0  0  0
    5.7971   -9.6269    3.3814 H   0  0  0  0  0  0  0  0  0  0  0  0
    4.9869   -9.1131    4.8642 H   0  0  0  0  0  0  0  0  0  0  0  0
    4.7205  -11.6447    3.8018 H   0  0  0  0  0  0  0  0  0  0  0  0
    3.3949  -10.8398    4.6599 H   0  0  0  0  0  0  0  0  0  0  0  0
    3.8276  -10.8948    1.7698 H   0  0  0  0  0  0  0  0  0  0  0  0
    1.9416   -9.1941    3.2147 H   0  0  0  0  0  0  0  0  0  0  0  0
    2.4035   -9.0971    1.5110 H   0  0  0  0  0  0  0  0  0  0  0  0
    5.5476   -6.3083    3.2001 H   0  0  0  0  0  0  0  0  0  0  0  0
    6.5988   -7.7213    2.9897 H   0  0  0  0  0  0  0  0  0  0  0  0
    7.0739   -7.1009    0.6538 H   0  0  0  0  0  0  0  0  0  0  0  0
    7.5354   -5.8759    1.7903 H   0  0  0  0  0  0  0  0  0  0  0  0
    4.9259   -4.8470   -1.9828 H   0  0  0  0  0  0  0  0  0  0  0  0
    6.2632   -3.7356   -2.3207 H   0  0  0  0  0  0  0  0  0  0  0  0
    2.4830  -11.3481    2.6002 H   0  0  0  0  0  0  0  0  0  0  0  0
    2.0725   -1.9420   -0.5024 H   0  0  0  0  0  0  0  0  0  0  0  0
  1  2  2  0
  2 20  1  0
  2  3  1  0
  3  4  1  0
  3 21  1  0
  3 22  1  0
  4  5  1  0
  4 23  1  0
  4 46  1  0
  5  6  1  0
  5 24  1  0
  5 25  1  0
  6  7  1  0
  6 20  1  0
  6 26  1  6
  7  8  2  0
  7  9  1  0
  9 19  1  0
  9 10  1  0
 10 11  1  0
 10 27  1  0
 10 28  1  0
 11 12  1  0
 11 29  1  0
 11 30  1  0
 12 13  1  0
 12 18  1  0
 13 17  1  0
 13 14  1  0
 13 31  1  1
 14 15  1  0
 14 32  1  0
 14 33  1  0
 15 16  1  0
 15 34  1  0
 15 35  1  0
 16 17  1  0
 16 36  1  0
 16 45  1  0
 17 37  1  0
 17 38  1  0
 18 19  1  0
 18 39  1  0
 18 40  1  0
 19 41  1  0
 19 42  1  0
 20 43  1  0
 20 44  1  0
M  CHG  2   4   1  16   1
M  END
>  <i_m_ct_stereo_status>  (25) 
1

>  <s_m_source_file>  (25) 
/var/tmp/pbs.5076255.sched01/tmpuhafuy1n/0xc5aj8_e.sdf

>  <i_m_source_file_index>  (25) 
10

>  <i_lp_mmshare_version>  (25) 
48012

>  <i_f3d_flags>  (25) 
0

>  <s_epik_input>  (25) 
Tz1DMVtDSDJdW05IXVtDSDJdW0NASF0oW0NIMl0xKUMoPU8pTjJbQ0gyXVtDSDJdTihbQ0gyXVtDSDJdMilbQ0BASF0zW0NIMl1bQ0gyXVtOSF1bQ0gyXTM=

>  <s_epik_cmdline>  (25) 
J2VwaWtfcHl0aG9uJywgJy1waHQnLCAnMi4wJywgJy1waCcsICc3LjAnLCAnLXRuJywgJzgnLCAnLW1hJywgJzIwMCcsICctaW1hZScsICc8aW5maWxlLm1hZT4nLCAnLW9tYWUnLCAnPG91dGZpbGUubWFlPic=

>  <r_epik_Ionization_Penalty>  (25) 
1.7931

>  <r_epik_Ionization_Penalty_Charging>  (25) 
1.56469

>  <r_epik_Ionization_Penalty_Neutral>  (25) 
0.228406

>  <r_epik_State_Penalty>  (25) 
1.998

>  <r_epik_Charging_Adjusted_Penalty>  (25) 
3.56269

>  <i_epik_Tot_Q>  (25) 
2

>  <i_epik_Tot_abs_Q>  (25) 
2

>  <s_lp_Force_Field>  (25) 
OPLS3e

>  <r_lp_Energy>  (25) 
64.0379

>  <b_lp_Chiralities_Consistent>  (25) 
1

>  <s_lp_Variant>  (25) 
6:0-3

>  <s_i_glide_gridfile>  (25) 
pfpi4k_grid

>  <i_i_glide_lignum>  (25) 
10

>  <i_i_glide_rotatable_bonds>  (25) 
3

>  <r_i_docking_score>  (25) 
-5.26629

>  <r_i_glide_ligand_efficiency>  (25) 
-0.263314

>  <r_i_glide_ligand_efficiency_sa>  (25) 
-0.714745

>  <r_i_glide_ligand_efficiency_ln>  (25) 
-1.31798

>  <r_i_glide_gscore>  (25) 
-5.26629

>  <r_i_glide_lipo>  (25) 
-0.326853

>  <r_i_glide_hbond>  (25) 
-0.464584

>  <r_i_glide_metal>  (25) 
-0

>  <r_i_glide_rewards>  (25) 
-1.78258

>  <r_i_glide_evdw>  (25) 
-21.2104

>  <r_i_glide_ecoul>  (25) 
-14.2942

>  <r_i_glide_erotb>  (25) 
0.680696

>  <r_i_glide_esite>  (25) 
-0.168321

>  <r_i_glide_emodel>  (25) 
-49.3534

>  <r_i_glide_energy>  (25) 
-35.5046

>  <r_i_glide_einternal>  (25) 
5.61548

>  <r_i_glide_intrahb_reward>  (25) 
-0

>  <i_i_glide_confnum>  (25) 
2

>  <i_i_glide_posenum>  (25) 
13

>  <r_i_glide_eff_state_penalty>  (25) 
0

>  <ligand_id>  (25) 
6

>  <original_smiles>  (25) 
O=C1CNCC(C(=O)N2CCN(C3CCNC3)CC2)C1

>  <smiles>  (25) 
[H]C1([H])C(=O)C([H])([H])[N+]([H])([H])C([H])([H])C1([H])C(=O)N1C([H])([H])C([H])([H])N(C2([H])C([H])([H])C([H])([H])[N+]([H])([H])C2([H])[H])C([H])([H])C1([H])[H]

$$$$
6:2:1
     RDKit          3D

 46 48  0  0  1  0  0  0  0  0999 V2000
    4.1889   -3.4241   -4.3374 O   0  0  0  0  0  0  0  0  0  0  0  0
    4.0511   -3.2833   -3.1429 C   0  0  0  0  0  0  0  0  0  0  0  0
    2.7374   -2.7230   -2.5779 C   0  0  0  0  0  0  0  0  0  0  0  0
    3.0240   -1.7785   -1.4784 N   0  0  0  0  0  0  0  0  0  0  0  0
    3.9108   -2.3174   -0.4166 C   0  0  0  0  0  0  0  0  0  0  0  0
    5.2502   -2.8657   -1.0020 C   0  0  1  0  0  0  0  0  0  0  0  0
    6.1205   -3.4754    0.1006 C   0  0  0  0  0  0  0  0  0  0  0  0
    7.1409   -2.8730    0.4053 O   0  0  0  0  0  0  0  0  0  0  0  0
    5.7402   -4.6414    0.6894 N   0  0  0  0  0  0  0  0  0  0  0  0
    4.6227   -5.5093    0.3016 C   0  0  0  0  0  0  0  0  0  0  0  0
    3.6802   -5.7314    1.4624 C   0  0  0  0  0  0  0  0  0  0  0  0
    4.3711   -6.3203    2.6152 N   0  0  0  0  0  0  0  0  0  0  0  0
    3.3858   -6.4872    3.6869 C   0  0  2  0  0  0  0  0  0  0  0  0
    4.0281   -7.0370    4.9823 C   0  0  0  0  0  0  0  0  0  0  0  0
    3.2496   -8.3053    5.3191 C   0  0  0  0  0  0  0  0  0  0  0  0
    2.7113   -8.7705    4.0371 N   0  0  0  0  0  0  0  0  0  0  0  0
    2.3126   -7.5502    3.3330 C   0  0  0  0  0  0  0  0  0  0  0  0
    5.4257   -5.3720    3.0055 C   0  0  0  0  0  0  0  0  0  0  0  0
    6.4375   -5.1696    1.8617 C   0  0  0  0  0  0  0  0  0  0  0  0
    5.0958   -3.8250   -2.1974 C   0  0  0  0  0  0  0  0  0  0  0  0
    2.1919   -2.2107   -3.3780 H   0  0  0  0  0  0  0  0  0  0  0  0
    2.0982   -3.5348   -2.2160 H   0  0  0  0  0  0  0  0  0  0  0  0
    3.4678   -0.9564   -1.8674 H   0  0  0  0  0  0  0  0  0  0  0  0
    4.1119   -1.5468    0.3368 H   0  0  0  0  0  0  0  0  0  0  0  0
    3.3541   -3.0863    0.1139 H   0  0  0  0  0  0  0  0  0  0  0  0
    5.7993   -1.9943   -1.3706 H   0  0  0  0  0  0  0  0  0  0  0  0
    3.9147   -5.0852   -0.3945 H   0  0  0  0  0  0  0  0  0  0  0  0
    4.9795   -6.4392   -0.1400 H   0  0  0  0  0  0  0  0  0  0  0  0
    3.2156   -4.7759    1.7311 H   0  0  0  0  0  0  0  0  0  0  0  0
    2.8781   -6.3541    1.0642 H   0  0  0  0  0  0  0  0  0  0  0  0
    2.9136   -5.5140    3.8762 H   0  0  0  0  0  0  0  0  0  0  0  0
    5.0759   -7.3138    4.8578 H   0  0  0  0  0  0  0  0  0  0  0  0
    3.9801   -6.2924    5.7765 H   0  0  0  0  0  0  0  0  0  0  0  0
    3.8560   -9.0572    5.8231 H   0  0  0  0  0  0  0  0  0  0  0  0
    2.4069   -8.0475    5.9588 H   0  0  0  0  0  0  0  0  0  0  0  0
    3.4533   -9.2076    3.5093 H   0  0  0  0  0  0  0  0  0  0  0  0
    1.3642   -7.2160    3.7486 H   0  0  0  0  0  0  0  0  0  0  0  0
    2.1370   -7.7641    2.2788 H   0  0  0  0  0  0  0  0  0  0  0  0
    4.9916   -4.4136    3.2984 H   0  0  0  0  0  0  0  0  0  0  0  0
    5.9901   -5.7405    3.8558 H   0  0  0  0  0  0  0  0  0  0  0  0
    6.9572   -6.1011    1.6189 H   0  0  0  0  0  0  0  0  0  0  0  0
    7.2137   -4.4894    2.2105 H   0  0  0  0  0  0  0  0  0  0  0  0
    4.7326   -4.8226   -1.9675 H   0  0  0  0  0  0  0  0  0  0  0  0
    6.0509   -3.9792   -2.6991 H   0  0  0  0  0  0  0  0  0  0  0  0
    1.9388   -9.4063    4.1530 H   0  0  0  0  0  0  0  0  0  0  0  0
    2.0979   -1.4704   -1.1068 H   0  0  0  0  0  0  0  0  0  0  0  0
  1  2  2  0
  2 20  1  0
  2  3  1  0
  3  4  1  0
  3 21  1  0
  3 22  1  0
  4  5  1  0
  4 23  1  0
  4 46  1  0
  5  6  1  0
  5 24  1  0
  5 25  1  0
  6  7  1  0
  6 20  1  0
  6 26  1  6
  7  8  2  0
  7  9  1  0
  9 19  1  0
  9 10  1  0
 10 11  1  0
 10 27  1  0
 10 28  1  0
 11 12  1  0
 11 29  1  0
 11 30  1  0
 12 13  1  0
 12 18  1  0
 13 17  1  0
 13 14  1  0
 13 31  1  1
 14 15  1  0
 14 32  1  0
 14 33  1  0
 15 16  1  0
 15 34  1  0
 15 35  1  0
 16 17  1  0
 16 36  1  0
 16 45  1  0
 17 37  1  0
 17 38  1  0
 18 19  1  0
 18 39  1  0
 18 40  1  0
 19 41  1  0
 19 42  1  0
 20 43  1  0
 20 44  1  0
M  CHG  2   4   1  16   1
M  END
>  <i_m_ct_stereo_status>  (26) 
1

>  <s_m_source_file>  (26) 
/var/tmp/pbs.5076255.sched01/tmpuhafuy1n/0xc5aj8_e.sdf

>  <i_m_source_file_index>  (26) 
10

>  <i_lp_mmshare_version>  (26) 
48012

>  <i_f3d_flags>  (26) 
0

>  <s_epik_input>  (26) 
Tz1DMVtDSDJdW05IXVtDSDJdW0NASF0oW0NIMl0xKUMoPU8pTjJbQ0gyXVtDSDJdTihbQ0gyXVtDSDJdMilbQ0BASF0zW0NIMl1bQ0gyXVtOSF1bQ0gyXTM=

>  <s_epik_cmdline>  (26) 
J2VwaWtfcHl0aG9uJywgJy1waHQnLCAnMi4wJywgJy1waCcsICc3LjAnLCAnLXRuJywgJzgnLCAnLW1hJywgJzIwMCcsICctaW1hZScsICc8aW5maWxlLm1hZT4nLCAnLW9tYWUnLCAnPG91dGZpbGUubWFlPic=

>  <r_epik_Ionization_Penalty>  (26) 
1.7931

>  <r_epik_Ionization_Penalty_Charging>  (26) 
1.56469

>  <r_epik_Ionization_Penalty_Neutral>  (26) 
0.228406

>  <r_epik_State_Penalty>  (26) 
1.998

>  <r_epik_Charging_Adjusted_Penalty>  (26) 
3.56269

>  <i_epik_Tot_Q>  (26) 
2

>  <i_epik_Tot_abs_Q>  (26) 
2

>  <s_lp_Force_Field>  (26) 
OPLS3e

>  <r_lp_Energy>  (26) 
64.0379

>  <b_lp_Chiralities_Consistent>  (26) 
1

>  <s_lp_Variant>  (26) 
6:0-3

>  <s_i_glide_gridfile>  (26) 
pfpi4k_grid

>  <i_i_glide_lignum>  (26) 
10

>  <i_i_glide_rotatable_bonds>  (26) 
3

>  <r_i_docking_score>  (26) 
-4.81998

>  <r_i_glide_ligand_efficiency>  (26) 
-0.240999

>  <r_i_glide_ligand_efficiency_sa>  (26) 
-0.654172

>  <r_i_glide_ligand_efficiency_ln>  (26) 
-1.20628

>  <r_i_glide_gscore>  (26) 
-4.81998

>  <r_i_glide_lipo>  (26) 
-0.18287

>  <r_i_glide_hbond>  (26) 
-0.334135

>  <r_i_glide_metal>  (26) 
-0

>  <r_i_glide_rewards>  (26) 
-1.78359

>  <r_i_glide_evdw>  (26) 
-19.4229

>  <r_i_glide_ecoul>  (26) 
-14.1615

>  <r_i_glide_erotb>  (26) 
0.680696

>  <r_i_glide_esite>  (26) 
-0.104715

>  <r_i_glide_emodel>  (26) 
-43.9267

>  <r_i_glide_energy>  (26) 
-33.5843

>  <r_i_glide_einternal>  (26) 
6.49611

>  <r_i_glide_intrahb_reward>  (26) 
-0

>  <i_i_glide_confnum>  (26) 
2

>  <i_i_glide_posenum>  (26) 
6

>  <r_i_glide_eff_state_penalty>  (26) 
0

>  <ligand_id>  (26) 
6

>  <original_smiles>  (26) 
O=C1CNCC(C(=O)N2CCN(C3CCNC3)CC2)C1

>  <smiles>  (26) 
[H]C1([H])C(=O)C([H])([H])[N+]([H])([H])C([H])([H])C1([H])C(=O)N1C([H])([H])C([H])([H])N(C2([H])C([H])([H])C([H])([H])[N+]([H])([H])C2([H])[H])C([H])([H])C1([H])[H]

$$$$
6:2:2
     RDKit          3D

 46 48  0  0  1  0  0  0  0  0999 V2000
    5.7895   -0.6562   -0.3184 O   0  0  0  0  0  0  0  0  0  0  0  0
    5.2770   -1.7237   -0.6407 C   0  0  0  0  0  0  0  0  0  0  0  0
    4.2049   -1.8206   -1.7370 C   0  0  0  0  0  0  0  0  0  0  0  0
    3.0754   -2.6457   -1.2618 N   0  0  0  0  0  0  0  0  0  0  0  0
    3.4742   -3.9555   -0.7186 C   0  0  0  0  0  0  0  0  0  0  0  0
    4.4790   -3.8173    0.4485 C   0  0  1  0  0  0  0  0  0  0  0  0
    4.8659   -5.2333    0.9537 C   0  0  0  0  0  0  0  0  0  0  0  0
    5.8588   -5.7758    0.4841 O   0  0  0  0  0  0  0  0  0  0  0  0
    4.0712   -5.8411    1.8631 N   0  0  0  0  0  0  0  0  0  0  0  0
    4.2554   -7.2492    2.2418 C   0  0  0  0  0  0  0  0  0  0  0  0
    2.9553   -8.0282    1.9807 C   0  0  0  0  0  0  0  0  0  0  0  0
    1.8092   -7.4357    2.6967 N   0  0  0  0  0  0  0  0  0  0  0  0
    0.5859   -8.1842    2.3951 C   0  0  2  0  0  0  0  0  0  0  0  0
   -0.6818   -7.5458    3.0335 C   0  0  0  0  0  0  0  0  0  0  0  0
   -1.3069   -8.6346    3.8857 C   0  0  0  0  0  0  0  0  0  0  0  0
   -0.1844   -9.5085    4.2276 N   0  0  0  0  0  0  0  0  0  0  0  0
    0.6269   -9.6014    3.0076 C   0  0  0  0  0  0  0  0  0  0  0  0
    1.6792   -6.0504    2.2378 C   0  0  0  0  0  0  0  0  0  0  0  0
    2.9328   -5.2461    2.5622 C   0  0  0  0  0  0  0  0  0  0  0  0
    5.7198   -3.0235    0.0146 C   0  0  0  0  0  0  0  0  0  0  0  0
    3.8455   -0.8287   -1.9993 H   0  0  0  0  0  0  0  0  0  0  0  0
    4.6553   -2.2775   -2.6167 H   0  0  0  0  0  0  0  0  0  0  0  0
    2.5438   -2.1126   -0.5827 H   0  0  0  0  0  0  0  0  0  0  0  0
    2.5744   -4.4867   -0.4125 H   0  0  0  0  0  0  0  0  0  0  0  0
    3.9293   -4.5360   -1.5202 H   0  0  0  0  0  0  0  0  0  0  0  0
    4.0560   -3.2031    1.2395 H   0  0  0  0  0  0  0  0  0  0  0  0
    5.0409   -7.7309    1.6660 H   0  0  0  0  0  0  0  0  0  0  0  0
    4.5541   -7.3313    3.2848 H   0  0  0  0  0  0  0  0  0  0  0  0
    2.7468   -8.0442    0.9093 H   0  0  0  0  0  0  0  0  0  0  0  0
    3.1465   -9.0626    2.2716 H   0  0  0  0  0  0  0  0  0  0  0  0
    0.4670   -8.2497    1.3117 H   0  0  0  0  0  0  0  0  0  0  0  0
   -0.4790   -6.7248    3.7212 H   0  0  0  0  0  0  0  0  0  0  0  0
   -1.3774   -7.1891    2.2749 H   0  0  0  0  0  0  0  0  0  0  0  0
   -1.8205   -8.2605    4.7735 H   0  0  0  0  0  0  0  0  0  0  0  0
   -2.0198   -9.2082    3.2936 H   0  0  0  0  0  0  0  0  0  0  0  0
    0.3734   -9.0834    4.9620 H   0  0  0  0  0  0  0  0  0  0  0  0
    0.1279  -10.2884    2.3260 H   0  0  0  0  0  0  0  0  0  0  0  0
    1.6001  -10.0293    3.2554 H   0  0  0  0  0  0  0  0  0  0  0  0
    1.4793   -6.0340    1.1662 H   0  0  0  0  0  0  0  0  0  0  0  0
    0.8756   -5.5107    2.7265 H   0  0  0  0  0  0  0  0  0  0  0  0
    3.1341   -5.2306    3.6395 H   0  0  0  0  0  0  0  0  0  0  0  0
    2.6717   -4.2315    2.2760 H   0  0  0  0  0  0  0  0  0  0  0  0
    6.3456   -3.5800   -0.6824 H   0  0  0  0  0  0  0  0  0  0  0  0
    6.3111   -2.7990    0.9034 H   0  0  0  0  0  0  0  0  0  0  0  0
   -0.5518  -10.4068    4.5317 H   0  0  0  0  0  0  0  0  0  0  0  0
    2.4675   -2.8087   -2.0527 H   0  0  0  0  0  0  0  0  0  0  0  0
  1  2  2  0
  2 20  1  0
  2  3  1  0
  3  4  1  0
  3 21  1  0
  3 22  1  0
  4  5  1  0
  4 23  1  0
  4 46  1  0
  5  6  1  0
  5 24  1  0
  5 25  1  0
  6  7  1  0
  6 20  1  0
  6 26  1  1
  7  8  2  0
  7  9  1  0
  9 19  1  0
  9 10  1  0
 10 11  1  0
 10 27  1  0
 10 28  1  0
 11 12  1  0
 11 29  1  0
 11 30  1  0
 12 13  1  0
 12 18  1  0
 13 17  1  0
 13 14  1  0
 13 31  1  6
 14 15  1  0
 14 32  1  0
 14 33  1  0
 15 16  1  0
 15 34  1  0
 15 35  1  0
 16 17  1  0
 16 36  1  0
 16 45  1  0
 17 37  1  0
 17 38  1  0
 18 19  1  0
 18 39  1  0
 18 40  1  0
 19 41  1  0
 19 42  1  0
 20 43  1  0
 20 44  1  0
M  CHG  2   4   1  16   1
M  END
>  <i_m_ct_stereo_status>  (27) 
1

>  <s_m_source_file>  (27) 
/var/tmp/pbs.5076255.sched01/tmpuhafuy1n/0xc5aj8_e.sdf

>  <i_m_source_file_index>  (27) 
10

>  <i_lp_mmshare_version>  (27) 
48012

>  <i_f3d_flags>  (27) 
0

>  <s_epik_input>  (27) 
Tz1DMVtDSDJdW05IXVtDSDJdW0NASF0oW0NIMl0xKUMoPU8pTjJbQ0gyXVtDSDJdTihbQ0gyXVtDSDJdMilbQ0BASF0zW0NIMl1bQ0gyXVtOSF1bQ0gyXTM=

>  <s_epik_cmdline>  (27) 
J2VwaWtfcHl0aG9uJywgJy1waHQnLCAnMi4wJywgJy1waCcsICc3LjAnLCAnLXRuJywgJzgnLCAnLW1hJywgJzIwMCcsICctaW1hZScsICc8aW5maWxlLm1hZT4nLCAnLW9tYWUnLCAnPG91dGZpbGUubWFlPic=

>  <r_epik_Ionization_Penalty>  (27) 
1.7931

>  <r_epik_Ionization_Penalty_Charging>  (27) 
1.56469

>  <r_epik_Ionization_Penalty_Neutral>  (27) 
0.228406

>  <r_epik_State_Penalty>  (27) 
1.998

>  <r_epik_Charging_Adjusted_Penalty>  (27) 
3.56269

>  <i_epik_Tot_Q>  (27) 
2

>  <i_epik_Tot_abs_Q>  (27) 
2

>  <s_lp_Force_Field>  (27) 
OPLS3e

>  <r_lp_Energy>  (27) 
64.0379

>  <b_lp_Chiralities_Consistent>  (27) 
1

>  <s_lp_Variant>  (27) 
6:0-3

>  <s_i_glide_gridfile>  (27) 
pfpi4k_grid

>  <i_i_glide_lignum>  (27) 
10

>  <i_i_glide_rotatable_bonds>  (27) 
3

>  <r_i_docking_score>  (27) 
-3.84043

>  <r_i_glide_ligand_efficiency>  (27) 
-0.192021

>  <r_i_glide_ligand_efficiency_sa>  (27) 
-0.521226

>  <r_i_glide_ligand_efficiency_ln>  (27) 
-0.961133

>  <r_i_glide_gscore>  (27) 
-3.84043

>  <r_i_glide_lipo>  (27) 
-0.0859944

>  <r_i_glide_hbond>  (27) 
-0.239944

>  <r_i_glide_metal>  (27) 
-0

>  <r_i_glide_rewards>  (27) 
-1.59351

>  <r_i_glide_evdw>  (27) 
-22.276

>  <r_i_glide_ecoul>  (27) 
-8.89825

>  <r_i_glide_erotb>  (27) 
0.680696

>  <r_i_glide_esite>  (27) 
-0.153138

>  <r_i_glide_emodel>  (27) 
-42.028

>  <r_i_glide_energy>  (27) 
-31.1742

>  <r_i_glide_einternal>  (27) 
2.31438

>  <r_i_glide_intrahb_reward>  (27) 
-0

>  <i_i_glide_confnum>  (27) 
3

>  <i_i_glide_posenum>  (27) 
34

>  <r_i_glide_eff_state_penalty>  (27) 
0

>  <ligand_id>  (27) 
6

>  <original_smiles>  (27) 
O=C1CNCC(C(=O)N2CCN(C3CCNC3)CC2)C1

>  <smiles>  (27) 
[H]C1([H])C(=O)C([H])([H])[N+]([H])([H])C([H])([H])C1([H])C(=O)N1C([H])([H])C([H])([H])N(C2([H])C([H])([H])C([H])([H])[N+]([H])([H])C2([H])[H])C([H])([H])C1([H])[H]

$$$$
6:3:0
     RDKit          3D

 46 48  0  0  1  0  0  0  0  0999 V2000
   -1.0300   -7.0589    2.6498 O   0  0  0  0  0  0  0  0  0  0  0  0
   -0.1828   -7.9265    2.4921 C   0  0  0  0  0  0  0  0  0  0  0  0
   -0.4086   -9.4002    2.8778 C   0  0  0  0  0  0  0  0  0  0  0  0
    0.7647   -9.9260    3.6207 N   0  0  0  0  0  0  0  0  0  0  0  0
    2.0612   -9.7360    2.9307 C   0  0  0  0  0  0  0  0  0  0  0  0
    2.3174   -8.2334    2.6919 C   0  0  1  0  0  0  0  0  0  0  0  0
    3.6347   -8.0282    1.9338 C   0  0  0  0  0  0  0  0  0  0  0  0
    3.8430   -8.7114    0.9355 O   0  0  0  0  0  0  0  0  0  0  0  0
    4.5263   -7.1189    2.3800 N   0  0  0  0  0  0  0  0  0  0  0  0
    4.1443   -5.8829    3.0700 C   0  0  0  0  0  0  0  0  0  0  0  0
    4.1128   -4.7408    2.0394 C   0  0  0  0  0  0  0  0  0  0  0  0
    5.4166   -4.6328    1.3116 N   0  0  0  0  0  0  0  0  0  0  0  0
    5.4268   -3.4782    0.3696 C   0  0  2  0  0  0  0  0  0  0  0  0
    4.4688   -3.6324   -0.8169 C   0  0  0  0  0  0  0  0  0  0  0  0
    5.3651   -3.3981   -2.0293 C   0  0  0  0  0  0  0  0  0  0  0  0
    6.4765   -2.5869   -1.5395 N   0  0  0  0  0  0  0  0  0  0  0  0
    6.7996   -3.1622   -0.2485 C   0  0  0  0  0  0  0  0  0  0  0  0
    5.8481   -5.9310    0.7092 C   0  0  0  0  0  0  0  0  0  0  0  0
    5.8614   -7.0339    1.7819 C   0  0  0  0  0  0  0  0  0  0  0  0
    1.1704   -7.5966    1.8790 C   0  0  0  0  0  0  0  0  0  0  0  0
   -1.2947   -9.4824    3.5047 H   0  0  0  0  0  0  0  0  0  0  0  0
   -0.5616   -9.9925    1.9755 H   0  0  0  0  0  0  0  0  0  0  0  0
    0.8031   -9.4775    4.5257 H   0  0  0  0  0  0  0  0  0  0  0  0
    2.8495  -10.1425    3.5698 H   0  0  0  0  0  0  0  0  0  0  0  0
    2.0699  -10.3040    1.9971 H   0  0  0  0  0  0  0  0  0  0  0  0
    2.3783   -7.7629    3.6688 H   0  0  0  0  0  0  0  0  0  0  0  0
    3.1628   -5.9184    3.5411 H   0  0  0  0  0  0  0  0  0  0  0  0
    4.8581   -5.6630    3.8689 H   0  0  0  0  0  0  0  0  0  0  0  0
    3.3130   -4.9568    1.3296 H   0  0  0  0  0  0  0  0  0  0  0  0
    3.8534   -3.7947    2.5183 H   0  0  0  0  0  0  0  0  0  0  0  0
    5.1186   -2.5890    0.9202 H   0  0  0  0  0  0  0  0  0  0  0  0
    3.9879   -4.6072   -0.8796 H   0  0  0  0  0  0  0  0  0  0  0  0
    3.6743   -2.8816   -0.7654 H   0  0  0  0  0  0  0  0  0  0  0  0
    5.7483   -4.3538   -2.3806 H   0  0  0  0  0  0  0  0  0  0  0  0
    4.8260   -2.9375   -2.8507 H   0  0  0  0  0  0  0  0  0  0  0  0
    7.4049   -2.5015    0.3760 H   0  0  0  0  0  0  0  0  0  0  0  0
    7.3814   -4.0566   -0.4271 H   0  0  0  0  0  0  0  0  0  0  0  0
    5.1616   -6.2522   -0.0782 H   0  0  0  0  0  0  0  0  0  0  0  0
    6.8419   -5.8824    0.2665 H   0  0  0  0  0  0  0  0  0  0  0  0
    6.6007   -6.8324    2.5536 H   0  0  0  0  0  0  0  0  0  0  0  0
    6.1779   -7.9712    1.3340 H   0  0  0  0  0  0  0  0  0  0  0  0
    1.1773   -7.9737    0.8530 H   0  0  0  0  0  0  0  0  0  0  0  0
    1.2995   -6.5097    1.8242 H   0  0  0  0  0  0  0  0  0  0  0  0
    7.2586   -2.6717   -2.1801 H   0  0  0  0  0  0  0  0  0  0  0  0
    6.0998   -4.4133    2.0276 H   0  0  0  0  0  0  0  0  0  0  0  0
    0.6295  -10.9190    3.7631 H   0  0  0  0  0  0  0  0  0  0  0  0
  1  2  2  0
  2 20  1  0
  2  3  1  0
  3  4  1  0
  3 21  1  0
  3 22  1  0
  4  5  1  0
  4 23  1  0
  4 46  1  0
  5  6  1  0
  5 24  1  0
  5 25  1  0
  6  7  1  0
  6 20  1  0
  6 26  1  1
  7  8  2  0
  7  9  1  0
  9 19  1  0
  9 10  1  0
 10 11  1  0
 10 27  1  0
 10 28  1  0
 11 12  1  0
 11 29  1  0
 11 30  1  0
 12 13  1  0
 12 18  1  0
 12 45  1  0
 13 17  1  0
 13 14  1  0
 13 31  1  1
 14 15  1  0
 14 32  1  0
 14 33  1  0
 15 16  1  0
 15 34  1  0
 15 35  1  0
 16 17  1  0
 16 44  1  0
 17 36  1  0
 17 37  1  0
 18 19  1  0
 18 38  1  0
 18 39  1  0
 19 40  1  0
 19 41  1  0
 20 42  1  0
 20 43  1  0
M  CHG  2   4   1  12   1
M  END
>  <i_m_ct_stereo_status>  (28) 
1

>  <s_m_source_file>  (28) 
/var/tmp/pbs.5076255.sched01/tmpuhafuy1n/0xc5aj8_e.sdf

>  <i_m_source_file_index>  (28) 
11

>  <i_lp_mmshare_version>  (28) 
48012

>  <i_f3d_flags>  (28) 
0

>  <s_epik_input>  (28) 
Tz1DMVtDSDJdW05IXVtDSDJdW0NASF0oW0NIMl0xKUMoPU8pTjJbQ0gyXVtDSDJdTihbQ0gyXVtDSDJdMilbQ0BASF0zW0NIMl1bQ0gyXVtOSF1bQ0gyXTM=

>  <s_epik_cmdline>  (28) 
J2VwaWtfcHl0aG9uJywgJy1waHQnLCAnMi4wJywgJy1waCcsICc3LjAnLCAnLXRuJywgJzgnLCAnLW1hJywgJzIwMCcsICctaW1hZScsICc8aW5maWxlLm1hZT4nLCAnLW9tYWUnLCAnPG91dGZpbGUubWFlPic=

>  <r_epik_Ionization_Penalty>  (28) 
2.023

>  <r_epik_Ionization_Penalty_Charging>  (28) 
1.76781

>  <r_epik_Ionization_Penalty_Neutral>  (28) 
0.25519

>  <r_epik_State_Penalty>  (28) 
2.00871

>  <r_epik_Charging_Adjusted_Penalty>  (28) 
3.77652

>  <i_epik_Tot_Q>  (28) 
2

>  <i_epik_Tot_abs_Q>  (28) 
2

>  <s_lp_Force_Field>  (28) 
OPLS3e

>  <r_lp_Energy>  (28) 
50.112

>  <b_lp_Chiralities_Consistent>  (28) 
1

>  <s_lp_Variant>  (28) 
6:0-4

>  <s_i_glide_gridfile>  (28) 
pfpi4k_grid

>  <i_i_glide_lignum>  (28) 
11

>  <i_i_glide_rotatable_bonds>  (28) 
3

>  <r_i_docking_score>  (28) 
-4.21305

>  <r_i_glide_ligand_efficiency>  (28) 
-0.210653

>  <r_i_glide_ligand_efficiency_sa>  (28) 
-0.571799

>  <r_i_glide_ligand_efficiency_ln>  (28) 
-1.05439

>  <r_i_glide_gscore>  (28) 
-4.21305

>  <r_i_glide_lipo>  (28) 
-0.505384

>  <r_i_glide_hbond>  (28) 
-0.190187

>  <r_i_glide_metal>  (28) 
-0

>  <r_i_glide_rewards>  (28) 
-1.48376

>  <r_i_glide_evdw>  (28) 
-24.8151

>  <r_i_glide_ecoul>  (28) 
-9.34608

>  <r_i_glide_erotb>  (28) 
0.680696

>  <r_i_glide_esite>  (28) 
-0.0717514

>  <r_i_glide_emodel>  (28) 
-44.5754

>  <r_i_glide_energy>  (28) 
-34.1611

>  <r_i_glide_einternal>  (28) 
2.73307

>  <r_i_glide_intrahb_reward>  (28) 
-0

>  <i_i_glide_confnum>  (28) 
3

>  <i_i_glide_posenum>  (28) 
15

>  <r_i_glide_eff_state_penalty>  (28) 
0

>  <ligand_id>  (28) 
6

>  <original_smiles>  (28) 
O=C1CNCC(C(=O)N2CCN(C3CCNC3)CC2)C1

>  <smiles>  (28) 
[H]N1C([H])([H])C([H])([H])C([H])([N+]2([H])C([H])([H])C([H])([H])N(C(=O)C3([H])C([H])([H])C(=O)C([H])([H])[N+]([H])([H])C3([H])[H])C([H])([H])C2([H])[H])C1([H])[H]

$$$$
6:3:1
     RDKit          3D

 46 48  0  0  1  0  0  0  0  0999 V2000
   -1.0738   -8.2465    4.4894 O   0  0  0  0  0  0  0  0  0  0  0  0
   -0.3261   -8.3526    3.5295 C   0  0  0  0  0  0  0  0  0  0  0  0
    0.2040   -9.7043    3.0299 C   0  0  0  0  0  0  0  0  0  0  0  0
    1.6669   -9.6149    2.7764 N   0  0  0  0  0  0  0  0  0  0  0  0
    2.0737   -8.5022    1.8836 C   0  0  0  0  0  0  0  0  0  0  0  0
    1.6368   -7.1429    2.4682 C   0  0  1  0  0  0  0  0  0  0  0  0
    1.9811   -6.0073    1.4986 C   0  0  0  0  0  0  0  0  0  0  0  0
    1.3005   -5.8489    0.4829 O   0  0  0  0  0  0  0  0  0  0  0  0
    2.9733   -5.1661    1.8413 N   0  0  0  0  0  0  0  0  0  0  0  0
    2.7302   -3.7192    1.9021 C   0  0  0  0  0  0  0  0  0  0  0  0
    3.0085   -3.0616    0.5414 C   0  0  0  0  0  0  0  0  0  0  0  0
    4.3897   -3.3846    0.0748 N   0  0  0  0  0  0  0  0  0  0  0  0
    4.7692   -2.7702   -1.2294 C   0  0  2  0  0  0  0  0  0  0  0  0
    4.6078   -1.2454   -1.3258 C   0  0  0  0  0  0  0  0  0  0  0  0
    3.6979   -1.0570   -2.5439 C   0  0  0  0  0  0  0  0  0  0  0  0
    3.9226   -2.2339   -3.3727 N   0  0  0  0  0  0  0  0  0  0  0  0
    3.9685   -3.3224   -2.4193 C   0  0  0  0  0  0  0  0  0  0  0  0
    4.6502   -4.8557    0.0707 C   0  0  0  0  0  0  0  0  0  0  0  0
    4.3469   -5.4878    1.4462 C   0  0  0  0  0  0  0  0  0  0  0  0
    0.1161   -7.1265    2.7440 C   0  0  0  0  0  0  0  0  0  0  0  0
    0.0201  -10.4733    3.7845 H   0  0  0  0  0  0  0  0  0  0  0  0
   -0.3174   -9.9860    2.1162 H   0  0  0  0  0  0  0  0  0  0  0  0
    2.1448   -9.5191    3.6670 H   0  0  0  0  0  0  0  0  0  0  0  0
    3.1612   -8.5415    1.7681 H   0  0  0  0  0  0  0  0  0  0  0  0
    1.6294   -8.6576    0.8982 H   0  0  0  0  0  0  0  0  0  0  0  0
    2.1608   -6.9612    3.4098 H   0  0  0  0  0  0  0  0  0  0  0  0
    1.6964   -3.5166    2.1890 H   0  0  0  0  0  0  0  0  0  0  0  0
    3.3399   -3.2699    2.6928 H   0  0  0  0  0  0  0  0  0  0  0  0
    2.2665   -3.4270   -0.1755 H   0  0  0  0  0  0  0  0  0  0  0  0
    2.8409   -1.9870    0.6443 H   0  0  0  0  0  0  0  0  0  0  0  0
    5.8244   -2.9790   -1.4122 H   0  0  0  0  0  0  0  0  0  0  0  0
    4.2035   -0.7679   -0.4374 H   0  0  0  0  0  0  0  0  0  0  0  0
    5.5757   -0.7744   -1.5071 H   0  0  0  0  0  0  0  0  0  0  0  0
    2.6548   -1.0381   -2.2240 H   0  0  0  0  0  0  0  0  0  0  0  0
    3.9027   -0.1339   -3.0797 H   0  0  0  0  0  0  0  0  0  0  0  0
    4.4009   -4.2325   -2.8410 H   0  0  0  0  0  0  0  0  0  0  0  0
    2.9442   -3.5329   -2.1243 H   0  0  0  0  0  0  0  0  0  0  0  0
    4.0117   -5.3426   -0.6655 H   0  0  0  0  0  0  0  0  0  0  0  0
    5.6788   -5.0697   -0.2129 H   0  0  0  0  0  0  0  0  0  0  0  0
    5.0426   -5.1314    2.2127 H   0  0  0  0  0  0  0  0  0  0  0  0
    4.4984   -6.5663    1.3910 H   0  0  0  0  0  0  0  0  0  0  0  0
   -0.4391   -7.1258    1.8055 H   0  0  0  0  0  0  0  0  0  0  0  0
   -0.1639   -6.2235    3.2942 H   0  0  0  0  0  0  0  0  0  0  0  0
    3.1311   -2.3706   -3.9881 H   0  0  0  0  0  0  0  0  0  0  0  0
    5.0261   -2.9900    0.7599 H   0  0  0  0  0  0  0  0  0  0  0  0
    1.9575  -10.4820    2.3326 H   0  0  0  0  0  0  0  0  0  0  0  0
  1  2  2  0
  2 20  1  0
  2  3  1  0
  3  4  1  0
  3 21  1  0
  3 22  1  0
  4  5  1  0
  4 23  1  0
  4 46  1  0
  5  6  1  0
  5 24  1  0
  5 25  1  0
  6  7  1  0
  6 20  1  0
  6 26  1  1
  7  8  2  0
  7  9  1  0
  9 19  1  0
  9 10  1  0
 10 11  1  0
 10 27  1  0
 10 28  1  0
 11 12  1  0
 11 29  1  0
 11 30  1  0
 12 13  1  0
 12 18  1  0
 12 45  1  0
 13 17  1  0
 13 14  1  0
 13 31  1  6
 14 15  1  0
 14 32  1  0
 14 33  1  0
 15 16  1  0
 15 34  1  0
 15 35  1  0
 16 17  1  0
 16 44  1  0
 17 36  1  0
 17 37  1  0
 18 19  1  0
 18 38  1  0
 18 39  1  0
 19 40  1  0
 19 41  1  0
 20 42  1  0
 20 43  1  0
M  CHG  2   4   1  12   1
M  END
>  <i_m_ct_stereo_status>  (29) 
1

>  <s_m_source_file>  (29) 
/var/tmp/pbs.5076255.sched01/tmpuhafuy1n/0xc5aj8_e.sdf

>  <i_m_source_file_index>  (29) 
11

>  <i_lp_mmshare_version>  (29) 
48012

>  <i_f3d_flags>  (29) 
0

>  <s_epik_input>  (29) 
Tz1DMVtDSDJdW05IXVtDSDJdW0NASF0oW0NIMl0xKUMoPU8pTjJbQ0gyXVtDSDJdTihbQ0gyXVtDSDJdMilbQ0BASF0zW0NIMl1bQ0gyXVtOSF1bQ0gyXTM=

>  <s_epik_cmdline>  (29) 
J2VwaWtfcHl0aG9uJywgJy1waHQnLCAnMi4wJywgJy1waCcsICc3LjAnLCAnLXRuJywgJzgnLCAnLW1hJywgJzIwMCcsICctaW1hZScsICc8aW5maWxlLm1hZT4nLCAnLW9tYWUnLCAnPG91dGZpbGUubWFlPic=

>  <r_epik_Ionization_Penalty>  (29) 
2.023

>  <r_epik_Ionization_Penalty_Charging>  (29) 
1.76781

>  <r_epik_Ionization_Penalty_Neutral>  (29) 
0.25519

>  <r_epik_State_Penalty>  (29) 
2.00871

>  <r_epik_Charging_Adjusted_Penalty>  (29) 
3.77652

>  <i_epik_Tot_Q>  (29) 
2

>  <i_epik_Tot_abs_Q>  (29) 
2

>  <s_lp_Force_Field>  (29) 
OPLS3e

>  <r_lp_Energy>  (29) 
50.112

>  <b_lp_Chiralities_Consistent>  (29) 
1

>  <s_lp_Variant>  (29) 
6:0-4

>  <s_i_glide_gridfile>  (29) 
pfpi4k_grid

>  <i_i_glide_lignum>  (29) 
11

>  <i_i_glide_rotatable_bonds>  (29) 
3

>  <r_i_docking_score>  (29) 
-4.10256

>  <r_i_glide_ligand_efficiency>  (29) 
-0.205128

>  <r_i_glide_ligand_efficiency_sa>  (29) 
-0.556803

>  <r_i_glide_ligand_efficiency_ln>  (29) 
-1.02673

>  <r_i_glide_gscore>  (29) 
-4.10256

>  <r_i_glide_lipo>  (29) 
-0.0480588

>  <r_i_glide_hbond>  (29) 
-0.16

>  <r_i_glide_metal>  (29) 
-0

>  <r_i_glide_rewards>  (29) 
-1.48376

>  <r_i_glide_evdw>  (29) 
-27.6551

>  <r_i_glide_ecoul>  (29) 
-10.8201

>  <r_i_glide_erotb>  (29) 
0.680696

>  <r_i_glide_esite>  (29) 
-0.0856579

>  <r_i_glide_emodel>  (29) 
-43.865

>  <r_i_glide_energy>  (29) 
-38.4753

>  <r_i_glide_einternal>  (29) 
12.0025

>  <r_i_glide_intrahb_reward>  (29) 
-0

>  <i_i_glide_confnum>  (29) 
5

>  <i_i_glide_posenum>  (29) 
8

>  <r_i_glide_eff_state_penalty>  (29) 
0

>  <ligand_id>  (29) 
6

>  <original_smiles>  (29) 
O=C1CNCC(C(=O)N2CCN(C3CCNC3)CC2)C1

>  <smiles>  (29) 
[H]N1C([H])([H])C([H])([H])C([H])([N+]2([H])C([H])([H])C([H])([H])N(C(=O)C3([H])C([H])([H])C(=O)C([H])([H])[N+]([H])([H])C3([H])[H])C([H])([H])C2([H])[H])C1([H])[H]

$$$$
6:3:2
     RDKit          3D

 46 48  0  0  1  0  0  0  0  0999 V2000
   -0.5857   -6.7820    2.5123 O   0  0  0  0  0  0  0  0  0  0  0  0
    0.4468   -7.3745    2.2038 C   0  0  0  0  0  0  0  0  0  0  0  0
    0.7191   -8.8417    2.5725 C   0  0  0  0  0  0  0  0  0  0  0  0
    2.0977   -8.9845    3.1031 N   0  0  0  0  0  0  0  0  0  0  0  0
    3.1572   -8.4426    2.2313 C   0  0  0  0  0  0  0  0  0  0  0  0
    2.9294   -6.9371    1.9760 C   0  0  1  0  0  0  0  0  0  0  0  0
    4.0047   -6.3738    1.0351 C   0  0  0  0  0  0  0  0  0  0  0  0
    4.4582   -7.1122    0.1599 O   0  0  0  0  0  0  0  0  0  0  0  0
    4.4486   -5.1151    1.2067 N   0  0  0  0  0  0  0  0  0  0  0  0
    3.6138   -4.0179    1.7182 C   0  0  0  0  0  0  0  0  0  0  0  0
    3.0478   -3.2463    0.5078 C   0  0  0  0  0  0  0  0  0  0  0  0
    4.1524   -2.7853   -0.3909 N   0  0  0  0  0  0  0  0  0  0  0  0
    3.6410   -1.9537   -1.5160 C   0  0  2  0  0  0  0  0  0  0  0  0
    2.8203   -2.7429   -2.5451 C   0  0  0  0  0  0  0  0  0  0  0  0
    3.5121   -2.4264   -3.8649 C   0  0  0  0  0  0  0  0  0  0  0  0
    4.1493   -1.1352   -3.6467 N   0  0  0  0  0  0  0  0  0  0  0  0
    4.7221   -1.2243   -2.3218 C   0  0  0  0  0  0  0  0  0  0  0  0
    5.0782   -3.8887   -0.7939 C   0  0  0  0  0  0  0  0  0  0  0  0
    5.6012   -4.6221    0.4490 C   0  0  0  0  0  0  0  0  0  0  0  0
    1.5237   -6.6810    1.3845 C   0  0  0  0  0  0  0  0  0  0  0  0
    0.0078   -9.1736    3.3243 H   0  0  0  0  0  0  0  0  0  0  0  0
    0.6103   -9.4578    1.6841 H   0  0  0  0  0  0  0  0  0  0  0  0
    2.1507   -8.5371    4.0096 H   0  0  0  0  0  0  0  0  0  0  0  0
    4.1206   -8.5974    2.7244 H   0  0  0  0  0  0  0  0  0  0  0  0
    3.1680   -9.0132    1.2994 H   0  0  0  0  0  0  0  0  0  0  0  0
    3.0213   -6.4342    2.9383 H   0  0  0  0  0  0  0  0  0  0  0  0
    2.7730   -4.3403    2.3354 H   0  0  0  0  0  0  0  0  0  0  0  0
    4.1995   -3.3620    2.3655 H   0  0  0  0  0  0  0  0  0  0  0  0
    2.3844   -3.9153   -0.0468 H   0  0  0  0  0  0  0  0  0  0  0  0
    2.4268   -2.4089    0.8395 H   0  0  0  0  0  0  0  0  0  0  0  0
    3.0161   -1.1615   -1.0947 H   0  0  0  0  0  0  0  0  0  0  0  0
    2.7857   -3.8177   -2.3770 H   0  0  0  0  0  0  0  0  0  0  0  0
    1.7878   -2.3870   -2.5473 H   0  0  0  0  0  0  0  0  0  0  0  0
    4.2683   -3.1850   -4.0761 H   0  0  0  0  0  0  0  0  0  0  0  0
    2.8069   -2.4093   -4.6899 H   0  0  0  0  0  0  0  0  0  0  0  0
    4.9755   -0.2514   -1.9002 H   0  0  0  0  0  0  0  0  0  0  0  0
    5.6363   -1.7975   -2.3936 H   0  0  0  0  0  0  0  0  0  0  0  0
    4.5731   -4.6304   -1.4197 H   0  0  0  0  0  0  0  0  0  0  0  0
    5.9410   -3.5395   -1.3635 H   0  0  0  0  0  0  0  0  0  0  0  0
    6.2107   -3.9744    1.0750 H   0  0  0  0  0  0  0  0  0  0  0  0
    6.2681   -5.4225    0.1391 H   0  0  0  0  0  0  0  0  0  0  0  0
    1.4604   -7.0628    0.3653 H   0  0  0  0  0  0  0  0  0  0  0  0
    1.3055   -5.6062    1.3402 H   0  0  0  0  0  0  0  0  0  0  0  0
    4.8469   -0.9249   -4.3429 H   0  0  0  0  0  0  0  0  0  0  0  0
    4.6907   -2.1496    0.1848 H   0  0  0  0  0  0  0  0  0  0  0  0
    2.2787   -9.9762    3.2130 H   0  0  0  0  0  0  0  0  0  0  0  0
  1  2  2  0
  2 20  1  0
  2  3  1  0
  3  4  1  0
  3 21  1  0
  3 22  1  0
  4  5  1  0
  4 23  1  0
  4 46  1  0
  5  6  1  0
  5 24  1  0
  5 25  1  0
  6  7  1  0
  6 20  1  0
  6 26  1  1
  7  8  2  0
  7  9  1  0
  9 19  1  0
  9 10  1  0
 10 11  1  0
 10 27  1  0
 10 28  1  0
 11 12  1  0
 11 29  1  0
 11 30  1  0
 12 13  1  0
 12 18  1  0
 12 45  1  0
 13 17  1  0
 13 14  1  0
 13 31  1  1
 14 15  1  0
 14 32  1  0
 14 33  1  0
 15 16  1  0
 15 34  1  0
 15 35  1  0
 16 17  1  0
 16 44  1  0
 17 36  1  0
 17 37  1  0
 18 19  1  0
 18 38  1  0
 18 39  1  0
 19 40  1  0
 19 41  1  0
 20 42  1  0
 20 43  1  0
M  CHG  2   4   1  12   1
M  END
>  <i_m_ct_stereo_status>  (30) 
1

>  <s_m_source_file>  (30) 
/var/tmp/pbs.5076255.sched01/tmpuhafuy1n/0xc5aj8_e.sdf

>  <i_m_source_file_index>  (30) 
11

>  <i_lp_mmshare_version>  (30) 
48012

>  <i_f3d_flags>  (30) 
0

>  <s_epik_input>  (30) 
Tz1DMVtDSDJdW05IXVtDSDJdW0NASF0oW0NIMl0xKUMoPU8pTjJbQ0gyXVtDSDJdTihbQ0gyXVtDSDJdMilbQ0BASF0zW0NIMl1bQ0gyXVtOSF1bQ0gyXTM=

>  <s_epik_cmdline>  (30) 
J2VwaWtfcHl0aG9uJywgJy1waHQnLCAnMi4wJywgJy1waCcsICc3LjAnLCAnLXRuJywgJzgnLCAnLW1hJywgJzIwMCcsICctaW1hZScsICc8aW5maWxlLm1hZT4nLCAnLW9tYWUnLCAnPG91dGZpbGUubWFlPic=

>  <r_epik_Ionization_Penalty>  (30) 
2.023

>  <r_epik_Ionization_Penalty_Charging>  (30) 
1.76781

>  <r_epik_Ionization_Penalty_Neutral>  (30) 
0.25519

>  <r_epik_State_Penalty>  (30) 
2.00871

>  <r_epik_Charging_Adjusted_Penalty>  (30) 
3.77652

>  <i_epik_Tot_Q>  (30) 
2

>  <i_epik_Tot_abs_Q>  (30) 
2

>  <s_lp_Force_Field>  (30) 
OPLS3e

>  <r_lp_Energy>  (30) 
50.112

>  <b_lp_Chiralities_Consistent>  (30) 
1

>  <s_lp_Variant>  (30) 
6:0-4

>  <s_i_glide_gridfile>  (30) 
pfpi4k_grid

>  <i_i_glide_lignum>  (30) 
11

>  <i_i_glide_rotatable_bonds>  (30) 
3

>  <r_i_docking_score>  (30) 
-4.01756

>  <r_i_glide_ligand_efficiency>  (30) 
-0.200878

>  <r_i_glide_ligand_efficiency_sa>  (30) 
-0.545266

>  <r_i_glide_ligand_efficiency_ln>  (30) 
-1.00546

>  <r_i_glide_gscore>  (30) 
-4.01756

>  <r_i_glide_lipo>  (30) 
-0.251031

>  <r_i_glide_hbond>  (30) 
-0.16

>  <r_i_glide_metal>  (30) 
-0

>  <r_i_glide_rewards>  (30) 
-1.64891

>  <r_i_glide_evdw>  (30) 
-27.1609

>  <r_i_glide_ecoul>  (30) 
-8.10591

>  <r_i_glide_erotb>  (30) 
0.680696

>  <r_i_glide_esite>  (30) 
-0.0643809

>  <r_i_glide_emodel>  (30) 
-44.9603

>  <r_i_glide_energy>  (30) 
-35.2668

>  <r_i_glide_einternal>  (30) 
3.14032

>  <r_i_glide_intrahb_reward>  (30) 
-0

>  <i_i_glide_confnum>  (30) 
3

>  <i_i_glide_posenum>  (30) 
37

>  <r_i_glide_eff_state_penalty>  (30) 
0

>  <ligand_id>  (30) 
6

>  <original_smiles>  (30) 
O=C1CNCC(C(=O)N2CCN(C3CCNC3)CC2)C1

>  <smiles>  (30) 
[H]N1C([H])([H])C([H])([H])C([H])([N+]2([H])C([H])([H])C([H])([H])N(C(=O)C3([H])C([H])([H])C(=O)C([H])([H])[N+]([H])([H])C3([H])[H])C([H])([H])C2([H])[H])C1([H])[H]

$$$$
6:4:0
     RDKit          3D

 47 49  0  0  1  0  0  0  0  0999 V2000
    5.2946   -1.2006    2.5361 O   0  0  0  0  0  0  0  0  0  0  0  0
    4.8237   -1.8833    1.6317 C   0  0  0  0  0  0  0  0  0  0  0  0
    3.7995   -1.3202    0.6392 C   0  0  0  0  0  0  0  0  0  0  0  0
    2.6662   -2.2644    0.4810 N   0  0  0  0  0  0  0  0  0  0  0  0
    3.0659   -3.6509    0.1401 C   0  0  0  0  0  0  0  0  0  0  0  0
    3.9881   -4.2243    1.2446 C   0  0  1  0  0  0  0  0  0  0  0  0
    4.4601   -5.6500    0.8867 C   0  0  0  0  0  0  0  0  0  0  0  0
    4.9289   -5.8260   -0.2288 O   0  0  0  0  0  0  0  0  0  0  0  0
    4.4201   -6.6402    1.8222 N   0  0  0  0  0  0  0  0  0  0  0  0
    5.2166   -7.8678    1.6748 C   0  0  0  0  0  0  0  0  0  0  0  0
    4.3582   -9.1285    1.8683 C   0  0  0  0  0  0  0  0  0  0  0  0
    3.6030   -9.0912    3.1444 N   0  0  0  0  0  0  0  0  0  0  0  0
    2.7939  -10.3381    3.3294 C   0  0  2  0  0  0  0  0  0  0  0  0
    1.2464  -10.1681    3.3621 C   0  0  0  0  0  0  0  0  0  0  0  0
    0.8007  -10.9423    4.5944 C   0  0  0  0  0  0  0  0  0  0  0  0
    1.8978  -11.8661    4.8816 N   0  0  0  0  0  0  0  0  0  0  0  0
    3.1463  -11.1498    4.5913 C   0  0  0  0  0  0  0  0  0  0  0  0
    2.8322   -7.8293    3.2588 C   0  0  0  0  0  0  0  0  0  0  0  0
    3.6676   -6.5725    3.0726 C   0  0  0  0  0  0  0  0  0  0  0  0
    5.2380   -3.3363    1.4299 C   0  0  0  0  0  0  0  0  0  0  0  0
    3.4166   -0.3682    1.0042 H   0  0  0  0  0  0  0  0  0  0  0  0
    4.2849   -1.1691   -0.3210 H   0  0  0  0  0  0  0  0  0  0  0  0
    2.1462   -2.2784    1.3524 H   0  0  0  0  0  0  0  0  0  0  0  0
    2.1705   -4.2645    0.0688 H   0  0  0  0  0  0  0  0  0  0  0  0
    3.5374   -3.6554   -0.8475 H   0  0  0  0  0  0  0  0  0  0  0  0
    3.4473   -4.1707    2.1766 H   0  0  0  0  0  0  0  0  0  0  0  0
    5.7062   -7.9411    0.7020 H   0  0  0  0  0  0  0  0  0  0  0  0
    6.0188   -7.8361    2.4119 H   0  0  0  0  0  0  0  0  0  0  0  0
    3.6495   -9.2107    1.0359 H   0  0  0  0  0  0  0  0  0  0  0  0
    5.0086  -10.0072    1.8292 H   0  0  0  0  0  0  0  0  0  0  0  0
    3.0005  -11.0352    2.5074 H   0  0  0  0  0  0  0  0  0  0  0  0
    0.8345   -9.1675    3.4456 H   0  0  0  0  0  0  0  0  0  0  0  0
    0.8324  -10.6296    2.4616 H   0  0  0  0  0  0  0  0  0  0  0  0
    0.7144  -10.2626    5.4432 H   0  0  0  0  0  0  0  0  0  0  0  0
   -0.1593  -11.4434    4.4658 H   0  0  0  0  0  0  0  0  0  0  0  0
    1.8530  -12.1788    5.8381 H   0  0  0  0  0  0  0  0  0  0  0  0
    3.9886  -11.8411    4.4516 H   0  0  0  0  0  0  0  0  0  0  0  0
    3.3965  -10.5060    5.4394 H   0  0  0  0  0  0  0  0  0  0  0  0
    2.0755   -7.8337    2.4672 H   0  0  0  0  0  0  0  0  0  0  0  0
    2.2988   -7.7696    4.2109 H   0  0  0  0  0  0  0  0  0  0  0  0
    4.3270   -6.3861    3.9268 H   0  0  0  0  0  0  0  0  0  0  0  0
    2.9134   -5.7948    3.0437 H   0  0  0  0  0  0  0  0  0  0  0  0
    5.9171   -3.3971    0.5713 H   0  0  0  0  0  0  0  0  0  0  0  0
    5.8026   -3.6769    2.3008 H   0  0  0  0  0  0  0  0  0  0  0  0
    1.8268  -12.6612    4.2489 H   0  0  0  0  0  0  0  0  0  0  0  0
    4.3019   -9.0554    3.8716 H   0  0  0  0  0  0  0  0  0  0  0  0
    2.0414   -1.8738   -0.2404 H   0  0  0  0  0  0  0  0  0  0  0  0
  1  2  2  0
  2 20  1  0
  2  3  1  0
  3  4  1  0
  3 21  1  0
  3 22  1  0
  4  5  1  0
  4 23  1  0
  4 47  1  0
  5  6  1  0
  5 24  1  0
  5 25  1  0
  6  7  1  0
  6 20  1  0
  6 26  1  1
  7  8  2  0
  7  9  1  0
  9 19  1  0
  9 10  1  0
 10 11  1  0
 10 27  1  0
 10 28  1  0
 11 12  1  0
 11 29  1  0
 11 30  1  0
 12 13  1  0
 12 18  1  0
 12 46  1  0
 13 17  1  0
 13 14  1  0
 13 31  1  6
 14 15  1  0
 14 32  1  0
 14 33  1  0
 15 16  1  0
 15 34  1  0
 15 35  1  0
 16 17  1  0
 16 36  1  0
 16 45  1  0
 17 37  1  0
 17 38  1  0
 18 19  1  0
 18 39  1  0
 18 40  1  0
 19 41  1  0
 19 42  1  0
 20 43  1  0
 20 44  1  0
M  CHG  3   4   1  12   1  16   1
M  END
>  <i_m_ct_stereo_status>  (31) 
1

>  <s_m_source_file>  (31) 
/var/tmp/pbs.5076255.sched01/tmpuhafuy1n/0xc5aj8_e.sdf

>  <i_m_source_file_index>  (31) 
12

>  <i_lp_mmshare_version>  (31) 
48012

>  <i_f3d_flags>  (31) 
0

>  <s_epik_input>  (31) 
Tz1DMVtDSDJdW05IXVtDSDJdW0NASF0oW0NIMl0xKUMoPU8pTjJbQ0gyXVtDSDJdTihbQ0gyXVtDSDJdMilbQ0BASF0zW0NIMl1bQ0gyXVtOSF1bQ0gyXTM=

>  <s_epik_cmdline>  (31) 
J2VwaWtfcHl0aG9uJywgJy1waHQnLCAnMi4wJywgJy1waCcsICc3LjAnLCAnLXRuJywgJzgnLCAnLW1hJywgJzIwMCcsICctaW1hZScsICc8aW5maWxlLm1hZT4nLCAnLW9tYWUnLCAnPG91dGZpbGUubWFlPic=

>  <r_lp_tautomer_probability>  (31) 
0.99995

>  <r_epik_Ionization_Penalty>  (31) 
3.06014

>  <r_epik_Ionization_Penalty_Charging>  (31) 
3.06014

>  <r_epik_Ionization_Penalty_Neutral>  (31) 
3.01281e-09

>  <r_epik_State_Penalty>  (31) 
2.40021

>  <r_epik_Charging_Adjusted_Penalty>  (31) 
5.46035

>  <i_epik_Tot_Q>  (31) 
3

>  <i_epik_Tot_abs_Q>  (31) 
3

>  <s_lp_Force_Field>  (31) 
OPLS3e

>  <r_lp_Energy>  (31) 
72.2527

>  <b_lp_Chiralities_Consistent>  (31) 
1

>  <s_lp_Variant>  (31) 
6:0-5

>  <s_i_glide_gridfile>  (31) 
pfpi4k_grid

>  <i_i_glide_lignum>  (31) 
12

>  <i_i_glide_rotatable_bonds>  (31) 
3

>  <r_i_docking_score>  (31) 
-5.57266

>  <r_i_glide_ligand_efficiency>  (31) 
-0.278633

>  <r_i_glide_ligand_efficiency_sa>  (31) 
-0.756326

>  <r_i_glide_ligand_efficiency_ln>  (31) 
-1.39465

>  <r_i_glide_gscore>  (31) 
-5.57266

>  <r_i_glide_lipo>  (31) 
-0.216407

>  <r_i_glide_hbond>  (31) 
-0.424024

>  <r_i_glide_metal>  (31) 
-0

>  <r_i_glide_rewards>  (31) 
-2.21879

>  <r_i_glide_evdw>  (31) 
-19.3632

>  <r_i_glide_ecoul>  (31) 
-13.7775

>  <r_i_glide_erotb>  (31) 
0.473544

>  <r_i_glide_esite>  (31) 
-0.152195

>  <r_i_glide_emodel>  (31) 
-45.4309

>  <r_i_glide_energy>  (31) 
-33.1407

>  <r_i_glide_einternal>  (31) 
13.5338

>  <r_i_glide_intrahb_reward>  (31) 
-0

>  <i_i_glide_confnum>  (31) 
5

>  <i_i_glide_posenum>  (31) 
40

>  <r_i_glide_eff_state_penalty>  (31) 
0

>  <ligand_id>  (31) 
6

>  <original_smiles>  (31) 
O=C1CNCC(C(=O)N2CCN(C3CCNC3)CC2)C1

>  <smiles>  (31) 
[H]C1([H])C(=O)C([H])([H])[N+]([H])([H])C([H])([H])C1([H])C(=O)N1C([H])([H])C([H])([H])[N+]([H])(C2([H])C([H])([H])C([H])([H])[N+]([H])([H])C2([H])[H])C([H])([H])C1([H])[H]

$$$$
6:4:1
     RDKit          3D

 47 49  0  0  1  0  0  0  0  0999 V2000
    5.2998   -0.5880    0.9543 O   0  0  0  0  0  0  0  0  0  0  0  0
    4.9959   -1.6303    0.3829 C   0  0  0  0  0  0  0  0  0  0  0  0
    4.1012   -1.6443   -0.8641 C   0  0  0  0  0  0  0  0  0  0  0  0
    3.0616   -2.6890   -0.7305 N   0  0  0  0  0  0  0  0  0  0  0  0
    3.5814   -4.0348   -0.4051 C   0  0  0  0  0  0  0  0  0  0  0  0
    4.3856   -4.0127    0.9162 C   0  0  1  0  0  0  0  0  0  0  0  0
    4.9620   -5.4168    1.2191 C   0  0  0  0  0  0  0  0  0  0  0  0
    5.9034   -5.8083    0.5322 O   0  0  0  0  0  0  0  0  0  0  0  0
    4.4613   -6.1365    2.2526 N   0  0  0  0  0  0  0  0  0  0  0  0
    5.2366   -7.2350    2.8522 C   0  0  0  0  0  0  0  0  0  0  0  0
    4.3916   -8.5087    2.9534 C   0  0  0  0  0  0  0  0  0  0  0  0
    3.1002   -8.2553    3.6513 N   0  0  0  0  0  0  0  0  0  0  0  0
    2.3430   -9.5212    3.8532 C   0  0  2  0  0  0  0  0  0  0  0  0
    1.8537  -10.1529    2.5267 C   0  0  0  0  0  0  0  0  0  0  0  0
    0.3806  -10.4281    2.7452 C   0  0  0  0  0  0  0  0  0  0  0  0
    0.2185  -10.4633    4.2120 N   0  0  0  0  0  0  0  0  0  0  0  0
    1.1030   -9.4310    4.7616 C   0  0  0  0  0  0  0  0  0  0  0  0
    2.3387   -7.1495    3.0053 C   0  0  0  0  0  0  0  0  0  0  0  0
    3.1706   -5.8816    2.9043 C   0  0  0  0  0  0  0  0  0  0  0  0
    5.5282   -2.9814    0.8533 C   0  0  0  0  0  0  0  0  0  0  0  0
    3.6149   -0.6781   -0.9771 H   0  0  0  0  0  0  0  0  0  0  0  0
    4.7187   -1.8400   -1.7368 H   0  0  0  0  0  0  0  0  0  0  0  0
    2.4023   -2.3755   -0.0313 H   0  0  0  0  0  0  0  0  0  0  0  0
    2.7387   -4.7243   -0.3289 H   0  0  0  0  0  0  0  0  0  0  0  0
    4.2041   -4.3860   -1.2321 H   0  0  0  0  0  0  0  0  0  0  0  0
    3.7496   -3.6416    1.7201 H   0  0  0  0  0  0  0  0  0  0  0  0
    6.1443   -7.4737    2.2919 H   0  0  0  0  0  0  0  0  0  0  0  0
    5.5659   -6.9227    3.8443 H   0  0  0  0  0  0  0  0  0  0  0  0
    4.2084   -8.8851    1.9414 H   0  0  0  0  0  0  0  0  0  0  0  0
    4.9626   -9.2814    3.4797 H   0  0  0  0  0  0  0  0  0  0  0  0
    3.0102  -10.2479    4.3356 H   0  0  0  0  0  0  0  0  0  0  0  0
    1.9935   -9.5663    1.6185 H   0  0  0  0  0  0  0  0  0  0  0  0
    2.4035  -11.0817    2.3756 H   0  0  0  0  0  0  0  0  0  0  0  0
   -0.2244   -9.6121    2.3410 H   0  0  0  0  0  0  0  0  0  0  0  0
    0.0642  -11.3458    2.2506 H   0  0  0  0  0  0  0  0  0  0  0  0
   -0.7637  -10.3615    4.4971 H   0  0  0  0  0  0  0  0  0  0  0  0
    1.3145   -9.5858    5.8213 H   0  0  0  0  0  0  0  0  0  0  0  0
    0.5624   -8.4889    4.6759 H   0  0  0  0  0  0  0  0  0  0  0  0
    2.0524   -7.4245    1.9921 H   0  0  0  0  0  0  0  0  0  0  0  0
    1.4208   -6.9011    3.5316 H   0  0  0  0  0  0  0  0  0  0  0  0
    3.3212   -5.4107    3.8777 H   0  0  0  0  0  0  0  0  0  0  0  0
    2.5357   -5.2354    2.3038 H   0  0  0  0  0  0  0  0  0  0  0  0
    6.3162   -3.3032    0.1691 H   0  0  0  0  0  0  0  0  0  0  0  0
    5.9765   -2.8744    1.8456 H   0  0  0  0  0  0  0  0  0  0  0  0
    0.5543  -11.3542    4.5385 H   0  0  0  0  0  0  0  0  0  0  0  0
    3.3547   -7.9247    4.5738 H   0  0  0  0  0  0  0  0  0  0  0  0
    2.5738   -2.7422   -1.6137 H   0  0  0  0  0  0  0  0  0  0  0  0
  1  2  2  0
  2 20  1  0
  2  3  1  0
  3  4  1  0
  3 21  1  0
  3 22  1  0
  4  5  1  0
  4 23  1  0
  4 47  1  0
  5  6  1  0
  5 24  1  0
  5 25  1  0
  6  7  1  0
  6 20  1  0
  6 26  1  1
  7  8  2  0
  7  9  1  0
  9 19  1  0
  9 10  1  0
 10 11  1  0
 10 27  1  0
 10 28  1  0
 11 12  1  0
 11 29  1  0
 11 30  1  0
 12 13  1  0
 12 18  1  0
 12 46  1  0
 13 17  1  0
 13 14  1  0
 13 31  1  1
 14 15  1  0
 14 32  1  0
 14 33  1  0
 15 16  1  0
 15 34  1  0
 15 35  1  0
 16 17  1  0
 16 36  1  0
 16 45  1  0
 17 37  1  0
 17 38  1  0
 18 19  1  0
 18 39  1  0
 18 40  1  0
 19 41  1  0
 19 42  1  0
 20 43  1  0
 20 44  1  0
M  CHG  3   4   1  12   1  16   1
M  END
>  <i_m_ct_stereo_status>  (32) 
1

>  <s_m_source_file>  (32) 
/var/tmp/pbs.5076255.sched01/tmpuhafuy1n/0xc5aj8_e.sdf

>  <i_m_source_file_index>  (32) 
12

>  <i_lp_mmshare_version>  (32) 
48012

>  <i_f3d_flags>  (32) 
0

>  <s_epik_input>  (32) 
Tz1DMVtDSDJdW05IXVtDSDJdW0NASF0oW0NIMl0xKUMoPU8pTjJbQ0gyXVtDSDJdTihbQ0gyXVtDSDJdMilbQ0BASF0zW0NIMl1bQ0gyXVtOSF1bQ0gyXTM=

>  <s_epik_cmdline>  (32) 
J2VwaWtfcHl0aG9uJywgJy1waHQnLCAnMi4wJywgJy1waCcsICc3LjAnLCAnLXRuJywgJzgnLCAnLW1hJywgJzIwMCcsICctaW1hZScsICc8aW5maWxlLm1hZT4nLCAnLW9tYWUnLCAnPG91dGZpbGUubWFlPic=

>  <r_lp_tautomer_probability>  (32) 
0.99995

>  <r_epik_Ionization_Penalty>  (32) 
3.06014

>  <r_epik_Ionization_Penalty_Charging>  (32) 
3.06014

>  <r_epik_Ionization_Penalty_Neutral>  (32) 
3.01281e-09

>  <r_epik_State_Penalty>  (32) 
2.40021

>  <r_epik_Charging_Adjusted_Penalty>  (32) 
5.46035

>  <i_epik_Tot_Q>  (32) 
3

>  <i_epik_Tot_abs_Q>  (32) 
3

>  <s_lp_Force_Field>  (32) 
OPLS3e

>  <r_lp_Energy>  (32) 
72.2527

>  <b_lp_Chiralities_Consistent>  (32) 
1

>  <s_lp_Variant>  (32) 
6:0-5

>  <s_i_glide_gridfile>  (32) 
pfpi4k_grid

>  <i_i_glide_lignum>  (32) 
12

>  <i_i_glide_rotatable_bonds>  (32) 
3

>  <r_i_docking_score>  (32) 
-4.3471

>  <r_i_glide_ligand_efficiency>  (32) 
-0.217355

>  <r_i_glide_ligand_efficiency_sa>  (32) 
-0.589992

>  <r_i_glide_ligand_efficiency_ln>  (32) 
-1.08794

>  <r_i_glide_gscore>  (32) 
-4.3471

>  <r_i_glide_lipo>  (32) 
-0.311901

>  <r_i_glide_hbond>  (32) 
-0.215717

>  <r_i_glide_metal>  (32) 
-0

>  <r_i_glide_rewards>  (32) 
-1.61588

>  <r_i_glide_evdw>  (32) 
-18.7793

>  <r_i_glide_ecoul>  (32) 
-12.0906

>  <r_i_glide_erotb>  (32) 
0.676492

>  <r_i_glide_esite>  (32) 
-0.127548

>  <r_i_glide_emodel>  (32) 
-44.9648

>  <r_i_glide_energy>  (32) 
-30.8698

>  <r_i_glide_einternal>  (32) 
2.15462

>  <r_i_glide_intrahb_reward>  (32) 
-0

>  <i_i_glide_confnum>  (32) 
5

>  <i_i_glide_posenum>  (32) 
36

>  <r_i_glide_eff_state_penalty>  (32) 
0

>  <ligand_id>  (32) 
6

>  <original_smiles>  (32) 
O=C1CNCC(C(=O)N2CCN(C3CCNC3)CC2)C1

>  <smiles>  (32) 
[H]C1([H])C(=O)C([H])([H])[N+]([H])([H])C([H])([H])C1([H])C(=O)N1C([H])([H])C([H])([H])[N+]([H])(C2([H])C([H])([H])C([H])([H])[N+]([H])([H])C2([H])[H])C([H])([H])C1([H])[H]

$$$$
6:4:2
     RDKit          3D

 47 49  0  0  1  0  0  0  0  0999 V2000
    6.9759   -2.2970   -1.5178 O   0  0  0  0  0  0  0  0  0  0  0  0
    5.8990   -2.8403   -1.3004 C   0  0  0  0  0  0  0  0  0  0  0  0
    5.2323   -3.7375   -2.3345 C   0  0  0  0  0  0  0  0  0  0  0  0
    3.7675   -3.4379   -2.4117 N   0  0  0  0  0  0  0  0  0  0  0  0
    3.0679   -3.4700   -1.0989 C   0  0  0  0  0  0  0  0  0  0  0  0
    3.6982   -2.4456   -0.1461 C   0  0  1  0  0  0  0  0  0  0  0  0
    3.0064   -2.4761    1.2338 C   0  0  0  0  0  0  0  0  0  0  0  0
    2.6649   -3.5722    1.6690 O   0  0  0  0  0  0  0  0  0  0  0  0
    2.8259   -1.3303    1.9449 N   0  0  0  0  0  0  0  0  0  0  0  0
    2.3482   -1.3706    3.3350 C   0  0  0  0  0  0  0  0  0  0  0  0
    1.1593   -0.4213    3.5184 C   0  0  0  0  0  0  0  0  0  0  0  0
    1.4912    0.9578    3.0793 N   0  0  0  0  0  0  0  0  0  0  0  0
    0.4328    1.9723    3.2778 C   0  0  2  0  0  0  0  0  0  0  0  0
   -0.0659    2.1503    4.7314 C   0  0  0  0  0  0  0  0  0  0  0  0
   -1.6021    2.0484    4.6363 C   0  0  0  0  0  0  0  0  0  0  0  0
   -1.9212    2.3289    3.2317 N   0  0  0  0  0  0  0  0  0  0  0  0
   -0.8417    1.7386    2.4435 C   0  0  0  0  0  0  0  0  0  0  0  0
    1.9578    0.9721    1.6778 C   0  0  0  0  0  0  0  0  0  0  0  0
    3.1682    0.0158    1.4714 C   0  0  0  0  0  0  0  0  0  0  0  0
    5.2079   -2.7112    0.0468 C   0  0  0  0  0  0  0  0  0  0  0  0
    5.6795   -3.5939   -3.3122 H   0  0  0  0  0  0  0  0  0  0  0  0
    5.3580   -4.7726   -2.0339 H   0  0  0  0  0  0  0  0  0  0  0  0
    3.6348   -2.5315   -2.8261 H   0  0  0  0  0  0  0  0  0  0  0  0
    2.0314   -3.2197   -1.2841 H   0  0  0  0  0  0  0  0  0  0  0  0
    3.1086   -4.4850   -0.7257 H   0  0  0  0  0  0  0  0  0  0  0  0
    3.5726   -1.4999   -0.6560 H   0  0  0  0  0  0  0  0  0  0  0  0
    2.0257   -2.3603    3.6459 H   0  0  0  0  0  0  0  0  0  0  0  0
    3.1672   -1.0935    3.9885 H   0  0  0  0  0  0  0  0  0  0  0  0
    0.3193   -0.8306    2.9514 H   0  0  0  0  0  0  0  0  0  0  0  0
    0.8716   -0.4618    4.5763 H   0  0  0  0  0  0  0  0  0  0  0  0
    0.8373    2.9564    2.9772 H   0  0  0  0  0  0  0  0  0  0  0  0
    0.3393    1.4404    5.4541 H   0  0  0  0  0  0  0  0  0  0  0  0
    0.2248    3.1362    5.0933 H   0  0  0  0  0  0  0  0  0  0  0  0
   -1.9134    1.0340    4.8621 H   0  0  0  0  0  0  0  0  0  0  0  0
   -2.1125    2.7263    5.3321 H   0  0  0  0  0  0  0  0  0  0  0  0
   -2.8273    1.9493    2.9574 H   0  0  0  0  0  0  0  0  0  0  0  0
   -0.7281    2.1469    1.4359 H   0  0  0  0  0  0  0  0  0  0  0  0
   -1.0869    0.6887    2.3256 H   0  0  0  0  0  0  0  0  0  0  0  0
    1.1710    0.6372    1.0182 H   0  0  0  0  0  0  0  0  0  0  0  0
    2.2281    1.9753    1.3661 H   0  0  0  0  0  0  0  0  0  0  0  0
    4.0524    0.3886    1.9802 H   0  0  0  0  0  0  0  0  0  0  0  0
    3.3550    0.0740    0.4285 H   0  0  0  0  0  0  0  0  0  0  0  0
    5.3844   -3.6254    0.6133 H   0  0  0  0  0  0  0  0  0  0  0  0
    5.6654   -1.8971    0.6145 H   0  0  0  0  0  0  0  0  0  0  0  0
   -1.8803    3.3220    3.0743 H   0  0  0  0  0  0  0  0  0  0  0  0
    2.2742    1.2537    3.6234 H   0  0  0  0  0  0  0  0  0  0  0  0
    3.3458   -4.1585   -2.9765 H   0  0  0  0  0  0  0  0  0  0  0  0
  1  2  2  0
  2 20  1  0
  2  3  1  0
  3  4  1  0
  3 21  1  0
  3 22  1  0
  4  5  1  0
  4 23  1  0
  4 47  1  0
  5  6  1  0
  5 24  1  0
  5 25  1  0
  6  7  1  0
  6 20  1  0
  6 26  1  6
  7  8  2  0
  7  9  1  0
  9 19  1  0
  9 10  1  0
 10 11  1  0
 10 27  1  0
 10 28  1  0
 11 12  1  0
 11 29  1  0
 11 30  1  0
 12 13  1  0
 12 18  1  0
 12 46  1  0
 13 17  1  0
 13 14  1  0
 13 31  1  6
 14 15  1  0
 14 32  1  0
 14 33  1  0
 15 16  1  0
 15 34  1  0
 15 35  1  0
 16 17  1  0
 16 36  1  0
 16 45  1  0
 17 37  1  0
 17 38  1  0
 18 19  1  0
 18 39  1  0
 18 40  1  0
 19 41  1  0
 19 42  1  0
 20 43  1  0
 20 44  1  0
M  CHG  3   4   1  12   1  16   1
M  END
>  <i_m_ct_stereo_status>  (33) 
1

>  <s_m_source_file>  (33) 
/var/tmp/pbs.5076255.sched01/tmpuhafuy1n/0xc5aj8_e.sdf

>  <i_m_source_file_index>  (33) 
12

>  <i_lp_mmshare_version>  (33) 
48012

>  <i_f3d_flags>  (33) 
0

>  <s_epik_input>  (33) 
Tz1DMVtDSDJdW05IXVtDSDJdW0NASF0oW0NIMl0xKUMoPU8pTjJbQ0gyXVtDSDJdTihbQ0gyXVtDSDJdMilbQ0BASF0zW0NIMl1bQ0gyXVtOSF1bQ0gyXTM=

>  <s_epik_cmdline>  (33) 
J2VwaWtfcHl0aG9uJywgJy1waHQnLCAnMi4wJywgJy1waCcsICc3LjAnLCAnLXRuJywgJzgnLCAnLW1hJywgJzIwMCcsICctaW1hZScsICc8aW5maWxlLm1hZT4nLCAnLW9tYWUnLCAnPG91dGZpbGUubWFlPic=

>  <r_lp_tautomer_probability>  (33) 
0.99995

>  <r_epik_Ionization_Penalty>  (33) 
3.06014

>  <r_epik_Ionization_Penalty_Charging>  (33) 
3.06014

>  <r_epik_Ionization_Penalty_Neutral>  (33) 
3.01281e-09

>  <r_epik_State_Penalty>  (33) 
2.40021

>  <r_epik_Charging_Adjusted_Penalty>  (33) 
5.46035

>  <i_epik_Tot_Q>  (33) 
3

>  <i_epik_Tot_abs_Q>  (33) 
3

>  <s_lp_Force_Field>  (33) 
OPLS3e

>  <r_lp_Energy>  (33) 
72.2527

>  <b_lp_Chiralities_Consistent>  (33) 
1

>  <s_lp_Variant>  (33) 
6:0-5

>  <s_i_glide_gridfile>  (33) 
pfpi4k_grid

>  <i_i_glide_lignum>  (33) 
12

>  <i_i_glide_rotatable_bonds>  (33) 
3

>  <r_i_docking_score>  (33) 
-4.33841

>  <r_i_glide_ligand_efficiency>  (33) 
-0.21692

>  <r_i_glide_ligand_efficiency_sa>  (33) 
-0.588813

>  <r_i_glide_ligand_efficiency_ln>  (33) 
-1.08576

>  <r_i_glide_gscore>  (33) 
-4.33841

>  <r_i_glide_lipo>  (33) 
-0.160493

>  <r_i_glide_hbond>  (33) 
-0.16

>  <r_i_glide_metal>  (33) 
-0

>  <r_i_glide_rewards>  (33) 
-1.48559

>  <r_i_glide_evdw>  (33) 
-22.3171

>  <r_i_glide_ecoul>  (33) 
-13.0676

>  <r_i_glide_erotb>  (33) 
0.676492

>  <r_i_glide_esite>  (33) 
-0.132835

>  <r_i_glide_emodel>  (33) 
-48.7224

>  <r_i_glide_energy>  (33) 
-35.3846

>  <r_i_glide_einternal>  (33) 
2.69695

>  <r_i_glide_intrahb_reward>  (33) 
-0

>  <i_i_glide_confnum>  (33) 
2

>  <i_i_glide_posenum>  (33) 
3

>  <r_i_glide_eff_state_penalty>  (33) 
0

>  <ligand_id>  (33) 
6

>  <original_smiles>  (33) 
O=C1CNCC(C(=O)N2CCN(C3CCNC3)CC2)C1

>  <smiles>  (33) 
[H]C1([H])C(=O)C([H])([H])[N+]([H])([H])C([H])([H])C1([H])C(=O)N1C([H])([H])C([H])([H])[N+]([H])(C2([H])C([H])([H])C([H])([H])[N+]([H])([H])C2([H])[H])C([H])([H])C1([H])[H]

$$$$
7:0:0
     RDKit          3D

 61 65  0  0  1  0  0  0  0  0999 V2000
    1.7682   -6.6220    7.1910 C   0  0  0  0  0  0  0  0  0  0  0  0
    2.2104   -6.4382    5.7479 C   0  0  0  0  0  0  0  0  0  0  0  0
    2.9668   -5.4531    5.2162 C   0  0  0  0  0  0  0  0  0  0  0  0
    3.5856   -4.3654    5.9827 C   0  0  0  0  0  0  0  0  0  0  0  0
    3.2207   -3.9210    7.0684 O   0  0  0  0  0  0  0  0  0  0  0  0
    4.8113   -3.8222    5.2559 C   0  0  0  0  0  0  0  0  0  0  0  0
    5.0256   -2.3171    5.5393 C   0  0  0  0  0  0  0  0  0  0  0  0
    6.0283   -4.5905    5.8463 C   0  0  0  0  0  0  0  0  0  0  0  0
    4.5087   -4.1872    3.7459 C   0  0  2  0  0  0  0  0  0  0  0  0
    5.7141   -4.6910    3.1899 O   0  0  0  0  0  0  0  0  0  0  0  0
    4.0008   -3.0528    2.7748 C   0  0  2  0  0  0  0  0  0  0  0  0
    2.5977   -2.5817    3.2183 C   0  0  0  0  0  0  0  0  0  0  0  0
    2.3352   -1.4195    3.5109 O   0  0  0  0  0  0  0  0  0  0  0  0
    1.5458   -3.6951    3.2036 C   0  0  0  0  0  0  0  0  0  0  0  0
    2.2578   -4.9967    2.7455 C   0  0  1  0  0  0  0  0  0  0  0  0
    1.3188   -6.1726    2.4424 C   0  0  0  0  0  0  0  0  0  0  0  0
    2.0991   -7.0247    1.4296 C   0  0  0  0  0  0  0  0  0  0  0  0
    3.1257   -6.0665    0.7890 C   0  0  0  0  0  0  0  0  0  0  0  0
    2.8251   -4.7523    1.3933 N   0  0  2  0  0  0  0  0  0  0  0  0
    3.8544   -3.6704    1.3370 C   0  0  1  0  0  0  0  0  0  0  0  0
    3.4505   -2.6477    0.2407 C   0  0  0  0  0  0  0  0  0  0  0  0
    3.6199   -3.1719   -1.1210 N   0  0  0  0  0  0  0  0  0  0  0  0
    4.9951   -3.0382   -1.6070 C   0  0  0  0  0  0  0  0  0  0  0  0
    5.1668   -3.5764   -3.0409 C   0  0  0  0  0  0  0  0  0  0  0  0
    4.2544   -2.9222   -3.9199 O   0  0  0  0  0  0  0  0  0  0  0  0
    2.8991   -3.0793   -3.5109 C   0  0  0  0  0  0  0  0  0  0  0  0
    2.7234   -2.5314   -2.0819 C   0  0  0  0  0  0  0  0  0  0  0  0
    3.4240   -5.3312    3.7626 C   0  0  2  0  0  0  0  0  0  0  0  0
    1.7665   -7.6826    7.4403 H   0  0  0  0  0  0  0  0  0  0  0  0
    0.7539   -6.2512    7.3200 H   0  0  0  0  0  0  0  0  0  0  0  0
    2.4111   -6.1259    7.9148 H   0  0  0  0  0  0  0  0  0  0  0  0
    1.8477   -7.2236    5.1030 H   0  0  0  0  0  0  0  0  0  0  0  0
    5.8066   -1.9052    4.9058 H   0  0  0  0  0  0  0  0  0  0  0  0
    5.3221   -2.1473    6.5771 H   0  0  0  0  0  0  0  0  0  0  0  0
    4.1217   -1.7282    5.3857 H   0  0  0  0  0  0  0  0  0  0  0  0
    6.9718   -4.2580    5.4126 H   0  0  0  0  0  0  0  0  0  0  0  0
    5.9526   -5.6662    5.6765 H   0  0  0  0  0  0  0  0  0  0  0  0
    6.1146   -4.4440    6.9241 H   0  0  0  0  0  0  0  0  0  0  0  0
    5.5743   -4.9643    2.2990 H   0  0  0  0  0  0  0  0  0  0  0  0
    4.6851   -2.2020    2.7617 H   0  0  0  0  0  0  0  0  0  0  0  0
    1.0881   -3.8009    4.1891 H   0  0  0  0  0  0  0  0  0  0  0  0
    0.7690   -3.3957    2.5050 H   0  0  0  0  0  0  0  0  0  0  0  0
    0.9761   -6.7382    3.3030 H   0  0  0  0  0  0  0  0  0  0  0  0
    0.4204   -5.8086    1.9482 H   0  0  0  0  0  0  0  0  0  0  0  0
    2.6168   -7.8428    1.9330 H   0  0  0  0  0  0  0  0  0  0  0  0
    1.4149   -7.4646    0.7025 H   0  0  0  0  0  0  0  0  0  0  0  0
    4.1387   -6.3902    1.0331 H   0  0  0  0  0  0  0  0  0  0  0  0
    3.0334   -6.0191   -0.2968 H   0  0  0  0  0  0  0  0  0  0  0  0
    4.8095   -4.0854    1.0251 H   0  0  0  0  0  0  0  0  0  0  0  0
    2.4161   -2.3319    0.3944 H   0  0  0  0  0  0  0  0  0  0  0  0
    4.0398   -1.7348    0.3498 H   0  0  0  0  0  0  0  0  0  0  0  0
    5.2871   -1.9865   -1.5919 H   0  0  0  0  0  0  0  0  0  0  0  0
    5.6875   -3.5630   -0.9503 H   0  0  0  0  0  0  0  0  0  0  0  0
    6.1832   -3.3960   -3.3915 H   0  0  0  0  0  0  0  0  0  0  0  0
    5.0076   -4.6553   -3.0699 H   0  0  0  0  0  0  0  0  0  0  0  0
    2.2469   -2.5486   -4.2035 H   0  0  0  0  0  0  0  0  0  0  0  0
    2.6146   -4.1298   -3.5653 H   0  0  0  0  0  0  0  0  0  0  0  0
    1.6913   -2.7028   -1.7861 H   0  0  0  0  0  0  0  0  0  0  0  0
    2.8790   -1.4509   -2.0808 H   0  0  0  0  0  0  0  0  0  0  0  0
    3.8969   -6.2813    3.5130 H   0  0  0  0  0  0  0  0  0  0  0  0
    2.0714   -4.3875    0.8315 H   0  0  0  0  0  0  0  0  0  0  0  0
  1  2  1  0
  1 29  1  0
  1 30  1  0
  1 31  1  0
  2  3  2  3
  2 32  1  0
  3 28  1  0
  3  4  1  0
  4  5  2  0
  4  6  1  0
  6  7  1  0
  6  8  1  0
  6  9  1  0
  7 33  1  0
  7 34  1  0
  7 35  1  0
  8 36  1  0
  8 37  1  0
  8 38  1  0
  9 28  1  0
  9 10  1  6
  9 11  1  0
 10 39  1  0
 11 20  1  0
 11 12  1  0
 11 40  1  6
 12 13  2  0
 12 14  1  0
 14 15  1  0
 14 41  1  0
 14 42  1  0
 15 19  1  0
 15 16  1  6
 15 28  1  0
 16 17  1  0
 16 43  1  0
 16 44  1  0
 17 18  1  0
 17 45  1  0
 17 46  1  0
 18 19  1  0
 18 47  1  0
 18 48  1  0
 19 20  1  0
 19 61  1  6
 20 21  1  0
 20 49  1  6
 21 22  1  0
 21 50  1  0
 21 51  1  0
 22 27  1  0
 22 23  1  0
 23 24  1  0
 23 52  1  0
 23 53  1  0
 24 25  1  0
 24 54  1  0
 24 55  1  0
 25 26  1  0
 26 27  1  0
 26 56  1  0
 26 57  1  0
 27 58  1  0
 27 59  1  0
 28 60  1  6
M  CHG  1  19   1
M  END
>  <i_m_ct_stereo_status>  (34) 
1

>  <s_m_source_file>  (34) 
/var/tmp/pbs.5076255.sched01/tmpuhafuy1n/0xc5aj8_e.sdf

>  <i_m_source_file_index>  (34) 
13

>  <i_lp_mmshare_version>  (34) 
48012

>  <i_f3d_flags>  (34) 
0

>  <s_epik_input>  (34) 
W0NIM11DMShbQ0gzXSlDKD1PKS9DKD1bQ0hdXFtDSDNdKVtDQEBIXTJbQ0BAXTEoW09IXSlbQ0BIXShDKD1PKVtDSDJdMylbQ0BASF0oTihbQ0BAXTIzNClbQ0gyXVtDSDJdW0NIMl00KVtDSDJdTjVbQ0gyXVtDSDJdT1tDSDJdW0NIMl01

>  <s_epik_cmdline>  (34) 
J2VwaWtfcHl0aG9uJywgJy1waHQnLCAnMi4wJywgJy1waCcsICc3LjAnLCAnLXRuJywgJzgnLCAnLW1hJywgJzIwMCcsICctaW1hZScsICc8aW5maWxlLm1hZT4nLCAnLW9tYWUnLCAnPG91dGZpbGUubWFlPic=

>  <r_lp_tautomer_probability>  (34) 
1

>  <r_epik_Ionization_Penalty>  (34) 
0.0949736

>  <r_epik_Ionization_Penalty_Charging>  (34) 
0.0945876

>  <r_epik_Ionization_Penalty_Neutral>  (34) 
0.000385982

>  <r_epik_State_Penalty>  (34) 
0.0905429

>  <r_epik_Charging_Adjusted_Penalty>  (34) 
0.18513

>  <i_epik_Tot_Q>  (34) 
1

>  <i_epik_Tot_abs_Q>  (34) 
1

>  <s_lp_Force_Field>  (34) 
OPLS3e

>  <r_lp_Energy>  (34) 
45.623

>  <b_lp_Chiralities_Consistent>  (34) 
1

>  <s_lp_Variant>  (34) 
7:0-1

>  <s_i_glide_gridfile>  (34) 
pfpi4k_grid

>  <i_i_glide_lignum>  (34) 
13

>  <i_i_glide_rotatable_bonds>  (34) 
3

>  <r_i_docking_score>  (34) 
-2.74825

>  <r_i_glide_ligand_efficiency>  (34) 
-0.0981519

>  <r_i_glide_ligand_efficiency_sa>  (34) 
-0.298047

>  <r_i_glide_ligand_efficiency_ln>  (34) 
-0.634377

>  <r_i_glide_gscore>  (34) 
-2.74825

>  <r_i_glide_lipo>  (34) 
-0.451557

>  <r_i_glide_hbond>  (34) 
-0.106347

>  <r_i_glide_metal>  (34) 
-0

>  <r_i_glide_rewards>  (34) 
-0.753352

>  <r_i_glide_evdw>  (34) 
-18.9365

>  <r_i_glide_ecoul>  (34) 
-4.90691

>  <r_i_glide_erotb>  (34) 
0.256992

>  <r_i_glide_esite>  (34) 
-0.0111252

>  <r_i_glide_emodel>  (34) 
-26.1467

>  <r_i_glide_energy>  (34) 
-23.8434

>  <r_i_glide_einternal>  (34) 
2.79814

>  <r_i_glide_intrahb_reward>  (34) 
-0

>  <i_i_glide_confnum>  (34) 
2

>  <i_i_glide_posenum>  (34) 
8

>  <r_i_glide_eff_state_penalty>  (34) 
0

>  <ligand_id>  (34) 
7

>  <original_smiles>  (34) 
CC=C1C(=O)C(C)(C)C2(O)C3C(=O)CC4(CCCN4C3CN3CCOCC3)C12

>  <smiles>  (34) 
[H]OC12C3([H])C(=O)C([H])([H])C4(C([H])([H])C([H])([H])C([H])([H])[N+]4([H])C3([H])C([H])([H])N3C([H])([H])C([H])([H])OC([H])([H])C3([H])[H])C1([H])C(=C([H])C([H])([H])[H])C(=O)C2(C([H])([H])[H])C([H])([H])[H]

$$$$
7:0:1
     RDKit          3D

 61 65  0  0  1  0  0  0  0  0999 V2000
    2.6682   -8.5150    6.3666 C   0  0  0  0  0  0  0  0  0  0  0  0
    2.8064   -7.9340    4.9702 C   0  0  0  0  0  0  0  0  0  0  0  0
    3.8591   -7.2604    4.4300 C   0  0  0  0  0  0  0  0  0  0  0  0
    5.1495   -7.0590    5.1079 C   0  0  0  0  0  0  0  0  0  0  0  0
    5.3656   -7.0265    6.3105 O   0  0  0  0  0  0  0  0  0  0  0  0
    6.2722   -6.8679    4.0924 C   0  0  0  0  0  0  0  0  0  0  0  0
    7.3828   -5.9359    4.6276 C   0  0  0  0  0  0  0  0  0  0  0  0
    6.9024   -8.2727    3.8880 C   0  0  0  0  0  0  0  0  0  0  0  0
    5.4956   -6.3349    2.8250 C   0  0  2  0  0  0  0  0  0  0  0  0
    6.0279   -7.0224    1.7000 O   0  0  0  0  0  0  0  0  0  0  0  0
    5.5354   -4.7972    2.4800 C   0  0  2  0  0  0  0  0  0  0  0  0
    4.8083   -3.9954    3.5828 C   0  0  0  0  0  0  0  0  0  0  0  0
    5.3457   -3.1162    4.2417 O   0  0  0  0  0  0  0  0  0  0  0  0
    3.3293   -4.3666    3.7373 C   0  0  0  0  0  0  0  0  0  0  0  0
    3.0397   -5.4936    2.7174 C   0  0  1  0  0  0  0  0  0  0  0  0
    1.5562   -5.8367    2.5503 C   0  0  0  0  0  0  0  0  0  0  0  0
    1.4592   -6.3999    1.1199 C   0  0  0  0  0  0  0  0  0  0  0  0
    2.6769   -5.8313    0.3800 C   0  0  0  0  0  0  0  0  0  0  0  0
    3.3322   -4.9512    1.3652 N   0  0  2  0  0  0  0  0  0  0  0  0
    4.7595   -4.5611    1.1419 C   0  0  1  0  0  0  0  0  0  0  0  0
    4.8060   -3.1069    0.6172 C   0  0  0  0  0  0  0  0  0  0  0  0
    4.2994   -2.9705   -0.7529 N   0  0  0  0  0  0  0  0  0  0  0  0
    5.2927   -3.3472   -1.7613 C   0  0  0  0  0  0  0  0  0  0  0  0
    4.7547   -3.2099   -3.1978 C   0  0  0  0  0  0  0  0  0  0  0  0
    4.2966   -1.8790   -3.4124 O   0  0  0  0  0  0  0  0  0  0  0  0
    3.2779   -1.5039   -2.4876 C   0  0  0  0  0  0  0  0  0  0  0  0
    3.8178   -1.6222   -1.0464 C   0  0  0  0  0  0  0  0  0  0  0  0
    3.9802   -6.7313    3.0092 C   0  0  2  0  0  0  0  0  0  0  0  0
    2.1001   -9.4431    6.3196 H   0  0  0  0  0  0  0  0  0  0  0  0
    2.1189   -7.8246    7.0062 H   0  0  0  0  0  0  0  0  0  0  0  0
    3.6176   -8.7490    6.8446 H   0  0  0  0  0  0  0  0  0  0  0  0
    1.9274   -8.0827    4.3674 H   0  0  0  0  0  0  0  0  0  0  0  0
    8.1059   -5.6972    3.8457 H   0  0  0  0  0  0  0  0  0  0  0  0
    7.9338   -6.4020    5.4458 H   0  0  0  0  0  0  0  0  0  0  0  0
    6.9862   -5.0067    5.0270 H   0  0  0  0  0  0  0  0  0  0  0  0
    7.7402   -8.2458    3.1869 H   0  0  0  0  0  0  0  0  0  0  0  0
    6.1758   -8.9920    3.5052 H   0  0  0  0  0  0  0  0  0  0  0  0
    7.2871   -8.6813    4.8217 H   0  0  0  0  0  0  0  0  0  0  0  0
    5.5539   -6.7894    0.9192 H   0  0  0  0  0  0  0  0  0  0  0  0
    6.5547   -4.4487    2.3892 H   0  0  0  0  0  0  0  0  0  0  0  0
    3.1301   -4.6853    4.7591 H   0  0  0  0  0  0  0  0  0  0  0  0
    2.7241   -3.4801    3.5347 H   0  0  0  0  0  0  0  0  0  0  0  0
    1.1427   -6.5004    3.3035 H   0  0  0  0  0  0  0  0  0  0  0  0
    0.9785   -4.9131    2.6028 H   0  0  0  0  0  0  0  0  0  0  0  0
    1.4982   -7.4912    1.1362 H   0  0  0  0  0  0  0  0  0  0  0  0
    0.5161   -6.1349    0.6424 H   0  0  0  0  0  0  0  0  0  0  0  0
    3.3416   -6.6377    0.0849 H   0  0  0  0  0  0  0  0  0  0  0  0
    2.3897   -5.2684   -0.5000 H   0  0  0  0  0  0  0  0  0  0  0  0
    5.1957   -5.1807    0.3672 H   0  0  0  0  0  0  0  0  0  0  0  0
    4.2434   -2.4556    1.2857 H   0  0  0  0  0  0  0  0  0  0  0  0
    5.8297   -2.7350    0.6600 H   0  0  0  0  0  0  0  0  0  0  0  0
    6.1787   -2.7189   -1.6608 H   0  0  0  0  0  0  0  0  0  0  0  0
    5.6175   -4.3756   -1.6187 H   0  0  0  0  0  0  0  0  0  0  0  0
    5.5401   -3.4465   -3.9174 H   0  0  0  0  0  0  0  0  0  0  0  0
    3.9395   -3.9128   -3.3796 H   0  0  0  0  0  0  0  0  0  0  0  0
    2.9693   -0.4807   -2.6998 H   0  0  0  0  0  0  0  0  0  0  0  0
    2.3967   -2.1354   -2.6252 H   0  0  0  0  0  0  0  0  0  0  0  0
    3.0170   -1.3571   -0.3551 H   0  0  0  0  0  0  0  0  0  0  0  0
    4.6176   -0.8954   -0.8984 H   0  0  0  0  0  0  0  0  0  0  0  0
    3.7453   -7.5693    2.3535 H   0  0  0  0  0  0  0  0  0  0  0  0
    2.8263   -4.0796    1.2997 H   0  0  0  0  0  0  0  0  0  0  0  0
  1  2  1  0
  1 29  1  0
  1 30  1  0
  1 31  1  0
  2  3  2  3
  2 32  1  0
  3 28  1  0
  3  4  1  0
  4  5  2  0
  4  6  1  0
  6  7  1  0
  6  8  1  0
  6  9  1  0
  7 33  1  0
  7 34  1  0
  7 35  1  0
  8 36  1  0
  8 37  1  0
  8 38  1  0
  9 28  1  0
  9 10  1  6
  9 11  1  0
 10 39  1  0
 11 20  1  0
 11 12  1  0
 11 40  1  6
 12 13  2  0
 12 14  1  0
 14 15  1  0
 14 41  1  0
 14 42  1  0
 15 19  1  0
 15 16  1  6
 15 28  1  0
 16 17  1  0
 16 43  1  0
 16 44  1  0
 17 18  1  0
 17 45  1  0
 17 46  1  0
 18 19  1  0
 18 47  1  0
 18 48  1  0
 19 20  1  0
 19 61  1  1
 20 21  1  0
 20 49  1  6
 21 22  1  0
 21 50  1  0
 21 51  1  0
 22 27  1  0
 22 23  1  0
 23 24  1  0
 23 52  1  0
 23 53  1  0
 24 25  1  0
 24 54  1  0
 24 55  1  0
 25 26  1  0
 26 27  1  0
 26 56  1  0
 26 57  1  0
 27 58  1  0
 27 59  1  0
 28 60  1  6
M  CHG  1  19   1
M  END
>  <i_m_ct_stereo_status>  (35) 
1

>  <s_m_source_file>  (35) 
/var/tmp/pbs.5076255.sched01/tmpuhafuy1n/0xc5aj8_e.sdf

>  <i_m_source_file_index>  (35) 
13

>  <i_lp_mmshare_version>  (35) 
48012

>  <i_f3d_flags>  (35) 
0

>  <s_epik_input>  (35) 
W0NIM11DMShbQ0gzXSlDKD1PKS9DKD1bQ0hdXFtDSDNdKVtDQEBIXTJbQ0BAXTEoW09IXSlbQ0BIXShDKD1PKVtDSDJdMylbQ0BASF0oTihbQ0BAXTIzNClbQ0gyXVtDSDJdW0NIMl00KVtDSDJdTjVbQ0gyXVtDSDJdT1tDSDJdW0NIMl01

>  <s_epik_cmdline>  (35) 
J2VwaWtfcHl0aG9uJywgJy1waHQnLCAnMi4wJywgJy1waCcsICc3LjAnLCAnLXRuJywgJzgnLCAnLW1hJywgJzIwMCcsICctaW1hZScsICc8aW5maWxlLm1hZT4nLCAnLW9tYWUnLCAnPG91dGZpbGUubWFlPic=

>  <r_lp_tautomer_probability>  (35) 
1

>  <r_epik_Ionization_Penalty>  (35) 
0.0949736

>  <r_epik_Ionization_Penalty_Charging>  (35) 
0.0945876

>  <r_epik_Ionization_Penalty_Neutral>  (35) 
0.000385982

>  <r_epik_State_Penalty>  (35) 
0.0905429

>  <r_epik_Charging_Adjusted_Penalty>  (35) 
0.18513

>  <i_epik_Tot_Q>  (35) 
1

>  <i_epik_Tot_abs_Q>  (35) 
1

>  <s_lp_Force_Field>  (35) 
OPLS3e

>  <r_lp_Energy>  (35) 
45.623

>  <b_lp_Chiralities_Consistent>  (35) 
1

>  <s_lp_Variant>  (35) 
7:0-1

>  <s_i_glide_gridfile>  (35) 
pfpi4k_grid

>  <i_i_glide_lignum>  (35) 
13

>  <i_i_glide_rotatable_bonds>  (35) 
3

>  <r_i_docking_score>  (35) 
-2.47268

>  <r_i_glide_ligand_efficiency>  (35) 
-0.0883098

>  <r_i_glide_ligand_efficiency_sa>  (35) 
-0.268161

>  <r_i_glide_ligand_efficiency_ln>  (35) 
-0.570766

>  <r_i_glide_gscore>  (35) 
-2.47268

>  <r_i_glide_lipo>  (35) 
-0.403628

>  <r_i_glide_hbond>  (35) 
0

>  <r_i_glide_metal>  (35) 
-0

>  <r_i_glide_rewards>  (35) 
-0.775329

>  <r_i_glide_evdw>  (35) 
-19.9662

>  <r_i_glide_ecoul>  (35) 
-3.68267

>  <r_i_glide_erotb>  (35) 
0.256992

>  <r_i_glide_esite>  (35) 
0

>  <r_i_glide_emodel>  (35) 
-25.4226

>  <r_i_glide_energy>  (35) 
-23.6489

>  <r_i_glide_einternal>  (35) 
3.0793

>  <r_i_glide_intrahb_reward>  (35) 
-0

>  <i_i_glide_confnum>  (35) 
3

>  <i_i_glide_posenum>  (35) 
1

>  <r_i_glide_eff_state_penalty>  (35) 
0

>  <ligand_id>  (35) 
7

>  <original_smiles>  (35) 
CC=C1C(=O)C(C)(C)C2(O)C3C(=O)CC4(CCCN4C3CN3CCOCC3)C12

>  <smiles>  (35) 
[H]OC12C3([H])C(=O)C([H])([H])C4(C([H])([H])C([H])([H])C([H])([H])[N+]4([H])C3([H])C([H])([H])N3C([H])([H])C([H])([H])OC([H])([H])C3([H])[H])C1([H])C(=C([H])C([H])([H])[H])C(=O)C2(C([H])([H])[H])C([H])([H])[H]

$$$$
7:0:2
     RDKit          3D

 61 65  0  0  1  0  0  0  0  0999 V2000
    1.7501   -7.3301    7.1038 C   0  0  0  0  0  0  0  0  0  0  0  0
    2.1977   -7.0311    5.6823 C   0  0  0  0  0  0  0  0  0  0  0  0
    3.0413   -6.0685    5.2486 C   0  0  0  0  0  0  0  0  0  0  0  0
    3.7680   -5.1353    6.1178 C   0  0  0  0  0  0  0  0  0  0  0  0
    3.4531   -4.7792    7.2525 O   0  0  0  0  0  0  0  0  0  0  0  0
    5.0363   -4.6356    5.4307 C   0  0  0  0  0  0  0  0  0  0  0  0
    5.3963   -3.1993    5.8751 C   0  0  0  0  0  0  0  0  0  0  0  0
    6.1809   -5.5740    5.9084 C   0  0  0  0  0  0  0  0  0  0  0  0
    4.6879   -4.8019    3.8958 C   0  0  2  0  0  0  0  0  0  0  0  0
    5.8251   -5.3415    3.2368 O   0  0  0  0  0  0  0  0  0  0  0  0
    4.2827   -3.5263    3.0631 C   0  0  2  0  0  0  0  0  0  0  0  0
    2.9316   -2.9751    3.5720 C   0  0  0  0  0  0  0  0  0  0  0  0
    2.7874   -1.8325    3.9973 O   0  0  0  0  0  0  0  0  0  0  0  0
    1.7739   -3.9745    3.4490 C   0  0  0  0  0  0  0  0  0  0  0  0
    2.3633   -5.2802    2.8506 C   0  0  1  0  0  0  0  0  0  0  0  0
    1.3151   -6.3210    2.4381 C   0  0  0  0  0  0  0  0  0  0  0  0
    2.0056   -7.1266    1.3261 C   0  0  0  0  0  0  0  0  0  0  0  0
    3.1164   -6.2062    0.7766 C   0  0  0  0  0  0  0  0  0  0  0  0
    2.9446   -4.9456    1.5248 N   0  0  2  0  0  0  0  0  0  0  0  0
    4.0755   -3.9686    1.5697 C   0  0  1  0  0  0  0  0  0  0  0  0
    3.7623   -2.7977    0.6005 C   0  0  0  0  0  0  0  0  0  0  0  0
    3.9541   -3.1534   -0.8107 N   0  0  0  0  0  0  0  0  0  0  0  0
    5.3316   -2.9312   -1.2571 C   0  0  0  0  0  0  0  0  0  0  0  0
    5.5342   -3.2918   -2.7423 C   0  0  0  0  0  0  0  0  0  0  0  0
    4.6141   -2.5603   -3.5485 O   0  0  0  0  0  0  0  0  0  0  0  0
    3.2600   -2.8049   -3.1803 C   0  0  0  0  0  0  0  0  0  0  0  0
    3.0498   -2.4266   -1.7001 C   0  0  0  0  0  0  0  0  0  0  0  0
    3.4978   -5.8316    3.8082 C   0  0  2  0  0  0  0  0  0  0  0  0
    1.6489   -8.4068    7.2366 H   0  0  0  0  0  0  0  0  0  0  0  0
    0.7770   -6.8812    7.2892 H   0  0  0  0  0  0  0  0  0  0  0  0
    2.4426   -6.9789    7.8655 H   0  0  0  0  0  0  0  0  0  0  0  0
    1.7579   -7.7035    4.9620 H   0  0  0  0  0  0  0  0  0  0  0  0
    6.2134   -2.8001    5.2804 H   0  0  0  0  0  0  0  0  0  0  0  0
    5.7126   -3.1693    6.9198 H   0  0  0  0  0  0  0  0  0  0  0  0
    4.5558   -2.5122    5.7967 H   0  0  0  0  0  0  0  0  0  0  0  0
    7.1484   -5.2806    5.4961 H   0  0  0  0  0  0  0  0  0  0  0  0
    5.9998   -6.6152    5.6351 H   0  0  0  0  0  0  0  0  0  0  0  0
    6.2881   -5.5531    6.9951 H   0  0  0  0  0  0  0  0  0  0  0  0
    6.0884   -6.1401    3.6681 H   0  0  0  0  0  0  0  0  0  0  0  0
    5.0478   -2.7504    3.1327 H   0  0  0  0  0  0  0  0  0  0  0  0
    1.3227   -4.1434    4.4280 H   0  0  0  0  0  0  0  0  0  0  0  0
    1.0091   -3.5462    2.8001 H   0  0  0  0  0  0  0  0  0  0  0  0
    0.9257   -6.9414    3.2391 H   0  0  0  0  0  0  0  0  0  0  0  0
    0.4543   -5.8150    2.0052 H   0  0  0  0  0  0  0  0  0  0  0  0
    2.4430   -8.0407    1.7299 H   0  0  0  0  0  0  0  0  0  0  0  0
    1.2847   -7.4170    0.5621 H   0  0  0  0  0  0  0  0  0  0  0  0
    4.0965   -6.6466    0.9717 H   0  0  0  0  0  0  0  0  0  0  0  0
    3.0222   -6.0297   -0.2950 H   0  0  0  0  0  0  0  0  0  0  0  0
    4.9858   -4.4354    1.1977 H   0  0  0  0  0  0  0  0  0  0  0  0
    2.7400   -2.4496    0.7631 H   0  0  0  0  0  0  0  0  0  0  0  0
    4.3892   -1.9369    0.8423 H   0  0  0  0  0  0  0  0  0  0  0  0
    5.5952   -1.8808   -1.1184 H   0  0  0  0  0  0  0  0  0  0  0  0
    6.0276   -3.5102   -0.6504 H   0  0  0  0  0  0  0  0  0  0  0  0
    6.5499   -3.0527   -3.0579 H   0  0  0  0  0  0  0  0  0  0  0  0
    5.3938   -4.3609   -2.9012 H   0  0  0  0  0  0  0  0  0  0  0  0
    2.6010   -2.2161   -3.8198 H   0  0  0  0  0  0  0  0  0  0  0  0
    3.0107   -3.8542   -3.3529 H   0  0  0  0  0  0  0  0  0  0  0  0
    2.0186   -2.6557   -1.4369 H   0  0  0  0  0  0  0  0  0  0  0  0
    3.1753   -1.3501   -1.5751 H   0  0  0  0  0  0  0  0  0  0  0  0
    3.8753   -6.7887    3.4478 H   0  0  0  0  0  0  0  0  0  0  0  0
    2.2201   -4.4519    1.0265 H   0  0  0  0  0  0  0  0  0  0  0  0
  1  2  1  0
  1 29  1  0
  1 30  1  0
  1 31  1  0
  2  3  2  3
  2 32  1  0
  3 28  1  0
  3  4  1  0
  4  5  2  0
  4  6  1  0
  6  7  1  0
  6  8  1  0
  6  9  1  0
  7 33  1  0
  7 34  1  0
  7 35  1  0
  8 36  1  0
  8 37  1  0
  8 38  1  0
  9 28  1  0
  9 10  1  6
  9 11  1  0
 10 39  1  0
 11 20  1  0
 11 12  1  0
 11 40  1  6
 12 13  2  0
 12 14  1  0
 14 15  1  0
 14 41  1  0
 14 42  1  0
 15 19  1  0
 15 16  1  6
 15 28  1  0
 16 17  1  0
 16 43  1  0
 16 44  1  0
 17 18  1  0
 17 45  1  0
 17 46  1  0
 18 19  1  0
 18 47  1  0
 18 48  1  0
 19 20  1  0
 19 61  1  6
 20 21  1  0
 20 49  1  6
 21 22  1  0
 21 50  1  0
 21 51  1  0
 22 27  1  0
 22 23  1  0
 23 24  1  0
 23 52  1  0
 23 53  1  0
 24 25  1  0
 24 54  1  0
 24 55  1  0
 25 26  1  0
 26 27  1  0
 26 56  1  0
 26 57  1  0
 27 58  1  0
 27 59  1  0
 28 60  1  6
M  CHG  1  19   1
M  END
>  <i_m_ct_stereo_status>  (36) 
1

>  <s_m_source_file>  (36) 
/var/tmp/pbs.5076255.sched01/tmpuhafuy1n/0xc5aj8_e.sdf

>  <i_m_source_file_index>  (36) 
13

>  <i_lp_mmshare_version>  (36) 
48012

>  <i_f3d_flags>  (36) 
0

>  <s_epik_input>  (36) 
W0NIM11DMShbQ0gzXSlDKD1PKS9DKD1bQ0hdXFtDSDNdKVtDQEBIXTJbQ0BAXTEoW09IXSlbQ0BIXShDKD1PKVtDSDJdMylbQ0BASF0oTihbQ0BAXTIzNClbQ0gyXVtDSDJdW0NIMl00KVtDSDJdTjVbQ0gyXVtDSDJdT1tDSDJdW0NIMl01

>  <s_epik_cmdline>  (36) 
J2VwaWtfcHl0aG9uJywgJy1waHQnLCAnMi4wJywgJy1waCcsICc3LjAnLCAnLXRuJywgJzgnLCAnLW1hJywgJzIwMCcsICctaW1hZScsICc8aW5maWxlLm1hZT4nLCAnLW9tYWUnLCAnPG91dGZpbGUubWFlPic=

>  <r_lp_tautomer_probability>  (36) 
1

>  <r_epik_Ionization_Penalty>  (36) 
0.0949736

>  <r_epik_Ionization_Penalty_Charging>  (36) 
0.0945876

>  <r_epik_Ionization_Penalty_Neutral>  (36) 
0.000385982

>  <r_epik_State_Penalty>  (36) 
0.0905429

>  <r_epik_Charging_Adjusted_Penalty>  (36) 
0.18513

>  <i_epik_Tot_Q>  (36) 
1

>  <i_epik_Tot_abs_Q>  (36) 
1

>  <s_lp_Force_Field>  (36) 
OPLS3e

>  <r_lp_Energy>  (36) 
45.623

>  <b_lp_Chiralities_Consistent>  (36) 
1

>  <s_lp_Variant>  (36) 
7:0-1

>  <s_i_glide_gridfile>  (36) 
pfpi4k_grid

>  <i_i_glide_lignum>  (36) 
13

>  <i_i_glide_rotatable_bonds>  (36) 
3

>  <r_i_docking_score>  (36) 
-2.45451

>  <r_i_glide_ligand_efficiency>  (36) 
-0.0876609

>  <r_i_glide_ligand_efficiency_sa>  (36) 
-0.26619

>  <r_i_glide_ligand_efficiency_ln>  (36) 
-0.566572

>  <r_i_glide_gscore>  (36) 
-2.45451

>  <r_i_glide_lipo>  (36) 
-0.380315

>  <r_i_glide_hbond>  (36) 
0

>  <r_i_glide_metal>  (36) 
-0

>  <r_i_glide_rewards>  (36) 
-0.753874

>  <r_i_glide_evdw>  (36) 
-19.025

>  <r_i_glide_ecoul>  (36) 
-4.13656

>  <r_i_glide_erotb>  (36) 
0.256992

>  <r_i_glide_esite>  (36) 
-0.00557488

>  <r_i_glide_emodel>  (36) 
-24.9783

>  <r_i_glide_energy>  (36) 
-23.1615

>  <r_i_glide_einternal>  (36) 
2.90601

>  <r_i_glide_intrahb_reward>  (36) 
-0

>  <i_i_glide_confnum>  (36) 
2

>  <i_i_glide_posenum>  (36) 
11

>  <r_i_glide_eff_state_penalty>  (36) 
0

>  <ligand_id>  (36) 
7

>  <original_smiles>  (36) 
CC=C1C(=O)C(C)(C)C2(O)C3C(=O)CC4(CCCN4C3CN3CCOCC3)C12

>  <smiles>  (36) 
[H]OC12C3([H])C(=O)C([H])([H])C4(C([H])([H])C([H])([H])C([H])([H])[N+]4([H])C3([H])C([H])([H])N3C([H])([H])C([H])([H])OC([H])([H])C3([H])[H])C1([H])C(=C([H])C([H])([H])[H])C(=O)C2(C([H])([H])[H])C([H])([H])[H]

$$$$
7:1:0
     RDKit          3D

 61 65  0  0  1  0  0  0  0  0999 V2000
    4.0369   -0.1087   -3.2520 C   0  0  0  0  0  0  0  0  0  0  0  0
    4.9338   -0.4358   -2.0825 C   0  0  0  0  0  0  0  0  0  0  0  0
    4.7512   -1.2100   -0.9971 C   0  0  0  0  0  0  0  0  0  0  0  0
    5.6140   -1.1503    0.1704 C   0  0  0  0  0  0  0  0  0  0  0  0
    6.8067   -0.8525    0.1819 O   0  0  0  0  0  0  0  0  0  0  0  0
    4.8564   -1.4750    1.4408 C   0  0  0  0  0  0  0  0  0  0  0  0
    5.7895   -2.1415    2.4669 C   0  0  0  0  0  0  0  0  0  0  0  0
    4.3850   -0.1329    2.0530 C   0  0  0  0  0  0  0  0  0  0  0  0
    3.6862   -2.3616    0.8753 C   0  0  2  0  0  0  0  0  0  0  0  0
    2.4753   -1.9246    1.4721 O   0  0  0  0  0  0  0  0  0  0  0  0
    3.7925   -3.9122    1.0925 C   0  0  2  0  0  0  0  0  0  0  0  0
    5.0095   -4.4983    0.3517 C   0  0  0  0  0  0  0  0  0  0  0  0
    5.8536   -5.1917    0.9085 O   0  0  0  0  0  0  0  0  0  0  0  0
    4.9961   -4.2258   -1.1483 C   0  0  0  0  0  0  0  0  0  0  0  0
    3.7028   -3.4270   -1.4804 C   0  0  1  0  0  0  0  0  0  0  0  0
    3.4415   -3.3188   -2.9784 C   0  0  0  0  0  0  0  0  0  0  0  0
    1.9277   -3.2414   -3.0890 C   0  0  0  0  0  0  0  0  0  0  0  0
    1.3617   -3.8179   -1.7701 C   0  0  0  0  0  0  0  0  0  0  0  0
    2.5685   -4.2703   -1.0339 N   0  0  2  0  0  0  0  0  0  0  0  0
    2.5490   -4.5455    0.4276 C   0  0  1  0  0  0  0  0  0  0  0  0
    2.3375   -6.0710    0.7116 C   0  0  0  0  0  0  0  0  0  0  0  0
    2.0013   -6.4246    2.0942 N   0  0  0  0  0  0  0  0  0  0  0  0
    0.7283   -5.8671    2.5594 C   0  0  0  0  0  0  0  0  0  0  0  0
    0.4025   -6.2685    4.0057 C   0  0  0  0  0  0  0  0  0  0  0  0
    0.3720   -7.6820    4.1061 O   0  0  0  0  0  0  0  0  0  0  0  0
    1.6072   -8.2770    3.7255 C   0  0  0  0  0  0  0  0  0  0  0  0
    1.9539   -7.8776    2.2760 C   0  0  0  0  0  0  0  0  0  0  0  0
    3.6089   -2.1016   -0.6752 C   0  0  2  0  0  0  0  0  0  0  0  0
    3.9588    0.9777   -3.3585 H   0  0  0  0  0  0  0  0  0  0  0  0
    3.0391   -0.5152   -3.1129 H   0  0  0  0  0  0  0  0  0  0  0  0
    4.5225   -0.4791   -4.1565 H   0  0  0  0  0  0  0  0  0  0  0  0
    5.8092    0.1432   -2.1338 H   0  0  0  0  0  0  0  0  0  0  0  0
    5.2359   -2.5655    3.3012 H   0  0  0  0  0  0  0  0  0  0  0  0
    6.4827   -1.3931    2.8545 H   0  0  0  0  0  0  0  0  0  0  0  0
    6.4184   -2.9226    2.0416 H   0  0  0  0  0  0  0  0  0  0  0  0
    3.8349   -0.2881    2.9812 H   0  0  0  0  0  0  0  0  0  0  0  0
    3.7580    0.4330    1.3630 H   0  0  0  0  0  0  0  0  0  0  0  0
    5.2368    0.5060    2.3061 H   0  0  0  0  0  0  0  0  0  0  0  0
    2.0896   -1.2490    0.9301 H   0  0  0  0  0  0  0  0  0  0  0  0
    3.8139   -4.1641    2.1464 H   0  0  0  0  0  0  0  0  0  0  0  0
    5.8871   -3.6614   -1.4306 H   0  0  0  0  0  0  0  0  0  0  0  0
    5.0073   -5.1788   -1.6786 H   0  0  0  0  0  0  0  0  0  0  0  0
    3.9512   -2.5218   -3.4968 H   0  0  0  0  0  0  0  0  0  0  0  0
    3.7566   -4.2239   -3.4944 H   0  0  0  0  0  0  0  0  0  0  0  0
    1.5674   -2.2301   -3.1722 H   0  0  0  0  0  0  0  0  0  0  0  0
    1.6697   -3.7124   -4.0266 H   0  0  0  0  0  0  0  0  0  0  0  0
    0.7964   -3.0908   -1.2210 H   0  0  0  0  0  0  0  0  0  0  0  0
    0.7116   -4.6856   -1.8866 H   0  0  0  0  0  0  0  0  0  0  0  0
    1.7200   -4.0268    0.8422 H   0  0  0  0  0  0  0  0  0  0  0  0
    1.5322   -6.4277    0.0704 H   0  0  0  0  0  0  0  0  0  0  0  0
    3.2254   -6.6217    0.3989 H   0  0  0  0  0  0  0  0  0  0  0  0
    0.7561   -4.7803    2.5577 H   0  0  0  0  0  0  0  0  0  0  0  0
   -0.0789   -6.2043    1.9025 H   0  0  0  0  0  0  0  0  0  0  0  0
    1.1362   -5.8477    4.6951 H   0  0  0  0  0  0  0  0  0  0  0  0
   -0.5711   -5.8710    4.2911 H   0  0  0  0  0  0  0  0  0  0  0  0
    2.3957   -7.9652    4.4111 H   0  0  0  0  0  0  0  0  0  0  0  0
    1.5114   -9.3561    3.8160 H   0  0  0  0  0  0  0  0  0  0  0  0
    1.2109   -8.3215    1.6062 H   0  0  0  0  0  0  0  0  0  0  0  0
    2.9143   -8.3189    2.0062 H   0  0  0  0  0  0  0  0  0  0  0  0
    2.7252   -1.5315   -0.9371 H   0  0  0  0  0  0  0  0  0  0  0  0
    2.7583   -5.1312   -1.5047 H   0  0  0  0  0  0  0  0  0  0  0  0
  1  2  1  0
  1 29  1  0
  1 30  1  0
  1 31  1  0
  2  3  2  3
  2 32  1  0
  3 28  1  0
  3  4  1  0
  4  5  2  0
  4  6  1  0
  6  7  1  0
  6  8  1  0
  6  9  1  0
  7 33  1  0
  7 34  1  0
  7 35  1  0
  8 36  1  0
  8 37  1  0
  8 38  1  0
  9 28  1  0
  9 10  1  1
  9 11  1  0
 10 39  1  0
 11 20  1  0
 11 12  1  0
 11 40  1  1
 12 13  2  0
 12 14  1  0
 14 15  1  0
 14 41  1  0
 14 42  1  0
 15 19  1  0
 15 16  1  6
 15 28  1  0
 16 17  1  0
 16 43  1  0
 16 44  1  0
 17 18  1  0
 17 45  1  0
 17 46  1  0
 18 19  1  0
 18 47  1  0
 18 48  1  0
 19 20  1  0
 19 61  1  6
 20 21  1  0
 20 49  1  1
 21 22  1  0
 21 50  1  0
 21 51  1  0
 22 27  1  0
 22 23  1  0
 23 24  1  0
 23 52  1  0
 23 53  1  0
 24 25  1  0
 24 54  1  0
 24 55  1  0
 25 26  1  0
 26 27  1  0
 26 56  1  0
 26 57  1  0
 27 58  1  0
 27 59  1  0
 28 60  1  1
M  CHG  1  19   1
M  END
>  <i_m_ct_stereo_status>  (37) 
1

>  <s_m_source_file>  (37) 
/var/tmp/pbs.5076255.sched01/tmpuhafuy1n/0xc5aj8_e.sdf

>  <i_m_source_file_index>  (37) 
14

>  <i_lp_mmshare_version>  (37) 
48012

>  <i_f3d_flags>  (37) 
0

>  <s_epik_input>  (37) 
W0NIM11DMShbQ0gzXSlDKD1PKS9DKD1bQ0hdXFtDSDNdKVtDQEBIXTJbQ0BAXTEoW09IXSlbQ0BIXShDKD1PKVtDSDJdMylbQ0BASF0oTihbQ0BAXTIzNClbQ0gyXVtDSDJdW0NIMl00KVtDSDJdTjVbQ0gyXVtDSDJdT1tDSDJdW0NIMl01

>  <s_epik_cmdline>  (37) 
J2VwaWtfcHl0aG9uJywgJy1waHQnLCAnMi4wJywgJy1waCcsICc3LjAnLCAnLXRuJywgJzgnLCAnLW1hJywgJzIwMCcsICctaW1hZScsICc8aW5maWxlLm1hZT4nLCAnLW9tYWUnLCAnPG91dGZpbGUubWFlPic=

>  <r_lp_tautomer_probability>  (37) 
1

>  <r_epik_Ionization_Penalty>  (37) 
0.0949736

>  <r_epik_Ionization_Penalty_Charging>  (37) 
0.0945876

>  <r_epik_Ionization_Penalty_Neutral>  (37) 
0.000385982

>  <r_epik_State_Penalty>  (37) 
0.0905429

>  <r_epik_Charging_Adjusted_Penalty>  (37) 
0.18513

>  <i_epik_Tot_Q>  (37) 
1

>  <i_epik_Tot_abs_Q>  (37) 
1

>  <s_lp_Force_Field>  (37) 
OPLS3e

>  <r_lp_Energy>  (37) 
45.8855

>  <b_lp_Chiralities_Consistent>  (37) 
1

>  <s_lp_Variant>  (37) 
7:0-2

>  <s_i_glide_gridfile>  (37) 
pfpi4k_grid

>  <i_i_glide_lignum>  (37) 
14

>  <i_i_glide_rotatable_bonds>  (37) 
3

>  <r_i_docking_score>  (37) 
-3.43434

>  <r_i_glide_ligand_efficiency>  (37) 
-0.122655

>  <r_i_glide_ligand_efficiency_sa>  (37) 
-0.372453

>  <r_i_glide_ligand_efficiency_ln>  (37) 
-0.792747

>  <r_i_glide_gscore>  (37) 
-3.43434

>  <r_i_glide_lipo>  (37) 
-0.512737

>  <r_i_glide_hbond>  (37) 
-0.117357

>  <r_i_glide_metal>  (37) 
-0

>  <r_i_glide_rewards>  (37) 
-0.885195

>  <r_i_glide_evdw>  (37) 
-15.7794

>  <r_i_glide_ecoul>  (37) 
-8.91775

>  <r_i_glide_erotb>  (37) 
0.256992

>  <r_i_glide_esite>  (37) 
-0.0494122

>  <r_i_glide_emodel>  (37) 
-29.3654

>  <r_i_glide_energy>  (37) 
-24.6971

>  <r_i_glide_einternal>  (37) 
3.13874

>  <r_i_glide_intrahb_reward>  (37) 
-0

>  <i_i_glide_confnum>  (37) 
4

>  <i_i_glide_posenum>  (37) 
9

>  <r_i_glide_eff_state_penalty>  (37) 
0

>  <ligand_id>  (37) 
7

>  <original_smiles>  (37) 
CC=C1C(=O)C(C)(C)C2(O)C3C(=O)CC4(CCCN4C3CN3CCOCC3)C12

>  <smiles>  (37) 
[H]OC12C3([H])C(=O)C([H])([H])C4(C([H])([H])C([H])([H])C([H])([H])[N+]4([H])C3([H])C([H])([H])N3C([H])([H])C([H])([H])OC([H])([H])C3([H])[H])C1([H])C(=C([H])C([H])([H])[H])C(=O)C2(C([H])([H])[H])C([H])([H])[H]

$$$$
7:1:1
     RDKit          3D

 61 65  0  0  1  0  0  0  0  0999 V2000
    4.4401   -0.2417   -2.6639 C   0  0  0  0  0  0  0  0  0  0  0  0
    5.1885   -0.5621   -1.3853 C   0  0  0  0  0  0  0  0  0  0  0  0
    4.8650   -1.3889   -0.3770 C   0  0  0  0  0  0  0  0  0  0  0  0
    5.6170   -1.3998    0.8559 C   0  0  0  0  0  0  0  0  0  0  0  0
    6.8348   -1.2026    0.9537 O   0  0  0  0  0  0  0  0  0  0  0  0
    4.6891   -1.6754    2.0283 C   0  0  0  0  0  0  0  0  0  0  0  0
    5.4594   -2.3798    3.1532 C   0  0  0  0  0  0  0  0  0  0  0  0
    4.2061   -0.3107    2.6051 C   0  0  0  0  0  0  0  0  0  0  0  0
    3.5558   -2.5198    1.3262 C   0  0  2  0  0  0  0  0  0  0  0  0
    2.2921   -2.0573    1.7915 O   0  0  0  0  0  0  0  0  0  0  0  0
    3.5922   -4.0753    1.5506 C   0  0  2  0  0  0  0  0  0  0  0  0
    4.8569   -4.6902    0.9297 C   0  0  0  0  0  0  0  0  0  0  0  0
    5.6207   -5.4092    1.5685 O   0  0  0  0  0  0  0  0  0  0  0  0
    5.0139   -4.4060   -0.5684 C   0  0  0  0  0  0  0  0  0  0  0  0
    3.7720   -3.5888   -1.0262 C   0  0  1  0  0  0  0  0  0  0  0  0
    3.6760   -3.4109   -2.5384 C   0  0  0  0  0  0  0  0  0  0  0  0
    2.1603   -3.3150   -2.7967 C   0  0  0  0  0  0  0  0  0  0  0  0
    1.4711   -3.8842   -1.5530 C   0  0  0  0  0  0  0  0  0  0  0  0
    2.5733   -4.3875   -0.7041 N   0  0  2  0  0  0  0  0  0  0  0  0
    2.3912   -4.6871    0.7578 C   0  0  1  0  0  0  0  0  0  0  0  0
    2.1250   -6.1952    1.0068 C   0  0  0  0  0  0  0  0  0  0  0  0
    1.0411   -6.4834    1.9502 N   0  0  0  0  0  0  0  0  0  0  0  0
    0.3880   -7.7636    1.6615 C   0  0  0  0  0  0  0  0  0  0  0  0
   -0.7056   -8.1182    2.6853 C   0  0  0  0  0  0  0  0  0  0  0  0
   -0.1458   -8.1312    3.9922 O   0  0  0  0  0  0  0  0  0  0  0  0
    0.4611   -6.8939    4.3457 C   0  0  0  0  0  0  0  0  0  0  0  0
    1.5489   -6.5297    3.3206 C   0  0  0  0  0  0  0  0  0  0  0  0
    3.6552   -2.2477   -0.2137 C   0  0  2  0  0  0  0  0  0  0  0  0
    4.3569    0.8366   -2.8091 H   0  0  0  0  0  0  0  0  0  0  0  0
    3.4202   -0.6255   -2.6411 H   0  0  0  0  0  0  0  0  0  0  0  0
    4.9730   -0.6567   -3.5243 H   0  0  0  0  0  0  0  0  0  0  0  0
    6.0516    0.0218   -1.1908 H   0  0  0  0  0  0  0  0  0  0  0  0
    4.8055   -2.8100    3.9061 H   0  0  0  0  0  0  0  0  0  0  0  0
    6.0954   -1.6538    3.6525 H   0  0  0  0  0  0  0  0  0  0  0  0
    6.1215   -3.1572    2.7837 H   0  0  0  0  0  0  0  0  0  0  0  0
    3.5574   -0.4607    3.4755 H   0  0  0  0  0  0  0  0  0  0  0  0
    3.6544    0.2740    1.8670 H   0  0  0  0  0  0  0  0  0  0  0  0
    5.0410    0.3080    2.9465 H   0  0  0  0  0  0  0  0  0  0  0  0
    1.9743   -1.3978    1.1893 H   0  0  0  0  0  0  0  0  0  0  0  0
    3.5112   -4.3255    2.6007 H   0  0  0  0  0  0  0  0  0  0  0  0
    5.9441   -3.8616   -0.7419 H   0  0  0  0  0  0  0  0  0  0  0  0
    5.0646   -5.3605   -1.0999 H   0  0  0  0  0  0  0  0  0  0  0  0
    4.2588   -2.6121   -2.9632 H   0  0  0  0  0  0  0  0  0  0  0  0
    4.0910   -4.2659   -3.0585 H   0  0  0  0  0  0  0  0  0  0  0  0
    1.8498   -2.2716   -2.9182 H   0  0  0  0  0  0  0  0  0  0  0  0
    1.8630   -3.8545   -3.7024 H   0  0  0  0  0  0  0  0  0  0  0  0
    0.9371   -3.0628   -1.0940 H   0  0  0  0  0  0  0  0  0  0  0  0
    0.7741   -4.6826   -1.7513 H   0  0  0  0  0  0  0  0  0  0  0  0
    1.5082   -4.2037    1.1614 H   0  0  0  0  0  0  0  0  0  0  0  0
    1.8129   -6.6150    0.0545 H   0  0  0  0  0  0  0  0  0  0  0  0
    3.0347   -6.7444    1.2729 H   0  0  0  0  0  0  0  0  0  0  0  0
   -0.0697   -7.7355    0.6723 H   0  0  0  0  0  0  0  0  0  0  0  0
    1.1299   -8.5631    1.6381 H   0  0  0  0  0  0  0  0  0  0  0  0
   -1.5246   -7.3998    2.6443 H   0  0  0  0  0  0  0  0  0  0  0  0
   -1.1305   -9.0991    2.4726 H   0  0  0  0  0  0  0  0  0  0  0  0
   -0.2912   -6.1074    4.4039 H   0  0  0  0  0  0  0  0  0  0  0  0
    0.9072   -6.9972    5.3343 H   0  0  0  0  0  0  0  0  0  0  0  0
    2.3388   -7.2789    3.3744 H   0  0  0  0  0  0  0  0  0  0  0  0
    1.9961   -5.5732    3.5908 H   0  0  0  0  0  0  0  0  0  0  0  0
    2.8153   -1.6469   -0.5462 H   0  0  0  0  0  0  0  0  0  0  0  0
    2.7916   -5.2652   -1.1710 H   0  0  0  0  0  0  0  0  0  0  0  0
  1  2  1  0
  1 29  1  0
  1 30  1  0
  1 31  1  0
  2  3  2  3
  2 32  1  0
  3 28  1  0
  3  4  1  0
  4  5  2  0
  4  6  1  0
  6  7  1  0
  6  8  1  0
  6  9  1  0
  7 33  1  0
  7 34  1  0
  7 35  1  0
  8 36  1  0
  8 37  1  0
  8 38  1  0
  9 28  1  0
  9 10  1  1
  9 11  1  0
 10 39  1  0
 11 20  1  0
 11 12  1  0
 11 40  1  1
 12 13  2  0
 12 14  1  0
 14 15  1  0
 14 41  1  0
 14 42  1  0
 15 19  1  0
 15 16  1  6
 15 28  1  0
 16 17  1  0
 16 43  1  0
 16 44  1  0
 17 18  1  0
 17 45  1  0
 17 46  1  0
 18 19  1  0
 18 47  1  0
 18 48  1  0
 19 20  1  0
 19 61  1  6
 20 21  1  0
 20 49  1  1
 21 22  1  0
 21 50  1  0
 21 51  1  0
 22 27  1  0
 22 23  1  0
 23 24  1  0
 23 52  1  0
 23 53  1  0
 24 25  1  0
 24 54  1  0
 24 55  1  0
 25 26  1  0
 26 27  1  0
 26 56  1  0
 26 57  1  0
 27 58  1  0
 27 59  1  0
 28 60  1  6
M  CHG  1  19   1
M  END
>  <i_m_ct_stereo_status>  (38) 
1

>  <s_m_source_file>  (38) 
/var/tmp/pbs.5076255.sched01/tmpuhafuy1n/0xc5aj8_e.sdf

>  <i_m_source_file_index>  (38) 
14

>  <i_lp_mmshare_version>  (38) 
48012

>  <i_f3d_flags>  (38) 
0

>  <s_epik_input>  (38) 
W0NIM11DMShbQ0gzXSlDKD1PKS9DKD1bQ0hdXFtDSDNdKVtDQEBIXTJbQ0BAXTEoW09IXSlbQ0BIXShDKD1PKVtDSDJdMylbQ0BASF0oTihbQ0BAXTIzNClbQ0gyXVtDSDJdW0NIMl00KVtDSDJdTjVbQ0gyXVtDSDJdT1tDSDJdW0NIMl01

>  <s_epik_cmdline>  (38) 
J2VwaWtfcHl0aG9uJywgJy1waHQnLCAnMi4wJywgJy1waCcsICc3LjAnLCAnLXRuJywgJzgnLCAnLW1hJywgJzIwMCcsICctaW1hZScsICc8aW5maWxlLm1hZT4nLCAnLW9tYWUnLCAnPG91dGZpbGUubWFlPic=

>  <r_lp_tautomer_probability>  (38) 
1

>  <r_epik_Ionization_Penalty>  (38) 
0.0949736

>  <r_epik_Ionization_Penalty_Charging>  (38) 
0.0945876

>  <r_epik_Ionization_Penalty_Neutral>  (38) 
0.000385982

>  <r_epik_State_Penalty>  (38) 
0.0905429

>  <r_epik_Charging_Adjusted_Penalty>  (38) 
0.18513

>  <i_epik_Tot_Q>  (38) 
1

>  <i_epik_Tot_abs_Q>  (38) 
1

>  <s_lp_Force_Field>  (38) 
OPLS3e

>  <r_lp_Energy>  (38) 
45.8855

>  <b_lp_Chiralities_Consistent>  (38) 
1

>  <s_lp_Variant>  (38) 
7:0-2

>  <s_i_glide_gridfile>  (38) 
pfpi4k_grid

>  <i_i_glide_lignum>  (38) 
14

>  <i_i_glide_rotatable_bonds>  (38) 
3

>  <r_i_docking_score>  (38) 
-3.3784

>  <r_i_glide_ligand_efficiency>  (38) 
-0.120657

>  <r_i_glide_ligand_efficiency_sa>  (38) 
-0.366386

>  <r_i_glide_ligand_efficiency_ln>  (38) 
-0.779833

>  <r_i_glide_gscore>  (38) 
-3.3784

>  <r_i_glide_lipo>  (38) 
-0.552466

>  <r_i_glide_hbond>  (38) 
-0.0218478

>  <r_i_glide_metal>  (38) 
-0

>  <r_i_glide_rewards>  (38) 
-0.973078

>  <r_i_glide_evdw>  (38) 
-16.5778

>  <r_i_glide_ecoul>  (38) 
-7.97788

>  <r_i_glide_erotb>  (38) 
0.256992

>  <r_i_glide_esite>  (38) 
-0.0624268

>  <r_i_glide_emodel>  (38) 
-27.2182

>  <r_i_glide_energy>  (38) 
-24.5556

>  <r_i_glide_einternal>  (38) 
6.1303

>  <r_i_glide_intrahb_reward>  (38) 
-0

>  <i_i_glide_confnum>  (38) 
1

>  <i_i_glide_posenum>  (38) 
31

>  <r_i_glide_eff_state_penalty>  (38) 
0

>  <ligand_id>  (38) 
7

>  <original_smiles>  (38) 
CC=C1C(=O)C(C)(C)C2(O)C3C(=O)CC4(CCCN4C3CN3CCOCC3)C12

>  <smiles>  (38) 
[H]OC12C3([H])C(=O)C([H])([H])C4(C([H])([H])C([H])([H])C([H])([H])[N+]4([H])C3([H])C([H])([H])N3C([H])([H])C([H])([H])OC([H])([H])C3([H])[H])C1([H])C(=C([H])C([H])([H])[H])C(=O)C2(C([H])([H])[H])C([H])([H])[H]

$$$$
7:1:2
     RDKit          3D

 61 65  0  0  1  0  0  0  0  0999 V2000
    4.0773   -0.0686   -3.2534 C   0  0  0  0  0  0  0  0  0  0  0  0
    4.9760   -0.4019   -2.0922 C   0  0  0  0  0  0  0  0  0  0  0  0
    4.8191   -1.1848   -1.0190 C   0  0  0  0  0  0  0  0  0  0  0  0
    5.6939   -1.1366    0.1488 C   0  0  0  0  0  0  0  0  0  0  0  0
    6.8882   -0.8805    0.1589 O   0  0  0  0  0  0  0  0  0  0  0  0
    4.9550   -1.4736    1.4292 C   0  0  0  0  0  0  0  0  0  0  0  0
    5.8837   -2.1465    2.4508 C   0  0  0  0  0  0  0  0  0  0  0  0
    4.4827   -0.1359    2.0511 C   0  0  0  0  0  0  0  0  0  0  0  0
    3.7895   -2.3612    0.8674 C   0  0  2  0  0  0  0  0  0  0  0  0
    2.5996   -1.9300    1.4975 O   0  0  0  0  0  0  0  0  0  0  0  0
    3.8882   -3.9185    1.0620 C   0  0  2  0  0  0  0  0  0  0  0  0
    5.0991   -4.4890    0.3054 C   0  0  0  0  0  0  0  0  0  0  0  0
    5.9533   -5.1847    0.8480 O   0  0  0  0  0  0  0  0  0  0  0  0
    5.0654   -4.2065   -1.1896 C   0  0  0  0  0  0  0  0  0  0  0  0
    3.7591   -3.4208   -1.4912 C   0  0  1  0  0  0  0  0  0  0  0  0
    3.4821   -3.3255   -2.9893 C   0  0  0  0  0  0  0  0  0  0  0  0
    1.9634   -3.2425   -3.0667 C   0  0  0  0  0  0  0  0  0  0  0  0
    1.4281   -3.8268   -1.7350 C   0  0  0  0  0  0  0  0  0  0  0  0
    2.6387   -4.2576   -1.0373 N   0  0  2  0  0  0  0  0  0  0  0  0
    2.6415   -4.5439    0.4084 C   0  0  1  0  0  0  0  0  0  0  0  0
    2.4339   -6.0697    0.6794 C   0  0  0  0  0  0  0  0  0  0  0  0
    2.1983   -6.4400    2.0769 N   0  0  0  0  0  0  0  0  0  0  0  0
    0.9720   -5.8815    2.6436 C   0  0  0  0  0  0  0  0  0  0  0  0
    0.7554   -6.3028    4.1022 C   0  0  0  0  0  0  0  0  0  0  0  0
    0.7239   -7.7177    4.1826 O   0  0  0  0  0  0  0  0  0  0  0  0
    1.9208   -8.3180    3.7022 C   0  0  0  0  0  0  0  0  0  0  0  0
    2.1574   -7.9015    2.2369 C   0  0  0  0  0  0  0  0  0  0  0  0
    3.6833   -2.0937   -0.6822 C   0  0  2  0  0  0  0  0  0  0  0  0
    3.9991    1.0181   -3.3550 H   0  0  0  0  0  0  0  0  0  0  0  0
    3.0848   -0.4807   -3.1050 H   0  0  0  0  0  0  0  0  0  0  0  0
    4.5587   -0.4347   -4.1611 H   0  0  0  0  0  0  0  0  0  0  0  0
    5.8532    0.1473   -2.1785 H   0  0  0  0  0  0  0  0  0  0  0  0
    5.3317   -2.5944    3.2729 H   0  0  0  0  0  0  0  0  0  0  0  0
    6.5687   -1.4047    2.8656 H   0  0  0  0  0  0  0  0  0  0  0  0
    6.5185   -2.9113    2.0043 H   0  0  0  0  0  0  0  0  0  0  0  0
    3.9438   -0.2914    2.9870 H   0  0  0  0  0  0  0  0  0  0  0  0
    3.8427    0.4278    1.3687 H   0  0  0  0  0  0  0  0  0  0  0  0
    5.3346    0.4987    2.2961 H   0  0  0  0  0  0  0  0  0  0  0  0
    2.7143   -2.0134    2.4272 H   0  0  0  0  0  0  0  0  0  0  0  0
    3.9286   -4.1791    2.1155 H   0  0  0  0  0  0  0  0  0  0  0  0
    5.9538   -3.6362   -1.4815 H   0  0  0  0  0  0  0  0  0  0  0  0
    5.0579   -5.1494   -1.7289 H   0  0  0  0  0  0  0  0  0  0  0  0
    3.9904   -2.5251   -3.5208 H   0  0  0  0  0  0  0  0  0  0  0  0
    3.7838   -4.2340   -3.4965 H   0  0  0  0  0  0  0  0  0  0  0  0
    1.6380   -2.2289   -3.1513 H   0  0  0  0  0  0  0  0  0  0  0  0
    1.6919   -3.6909   -4.0143 H   0  0  0  0  0  0  0  0  0  0  0  0
    0.8881   -3.0623   -1.1795 H   0  0  0  0  0  0  0  0  0  0  0  0
    0.7593   -4.6787   -1.8095 H   0  0  0  0  0  0  0  0  0  0  0  0
    1.8111   -4.0129    0.8398 H   0  0  0  0  0  0  0  0  0  0  0  0
    1.5872   -6.4065    0.0858 H   0  0  0  0  0  0  0  0  0  0  0  0
    3.2938   -6.6132    0.2935 H   0  0  0  0  0  0  0  0  0  0  0  0
    1.0032   -4.7929    2.6451 H   0  0  0  0  0  0  0  0  0  0  0  0
    0.1146   -6.2009    2.0445 H   0  0  0  0  0  0  0  0  0  0  0  0
    1.5436   -5.9014    4.7416 H   0  0  0  0  0  0  0  0  0  0  0  0
   -0.1894   -5.9040    4.4673 H   0  0  0  0  0  0  0  0  0  0  0  0
    2.7624   -8.0241    4.3296 H   0  0  0  0  0  0  0  0  0  0  0  0
    1.8240   -9.3972    3.7824 H   0  0  0  0  0  0  0  0  0  0  0  0
    1.3628   -8.3267    1.6191 H   0  0  0  0  0  0  0  0  0  0  0  0
    3.0910   -8.3405    1.8877 H   0  0  0  0  0  0  0  0  0  0  0  0
    2.7937   -1.5136   -0.9132 H   0  0  0  0  0  0  0  0  0  0  0  0
    2.8386   -5.1412   -1.5194 H   0  0  0  0  0  0  0  0  0  0  0  0
  1  2  1  0
  1 29  1  0
  1 30  1  0
  1 31  1  0
  2  3  2  3
  2 32  1  0
  3 28  1  0
  3  4  1  0
  4  5  2  0
  4  6  1  0
  6  7  1  0
  6  8  1  0
  6  9  1  0
  7 33  1  0
  7 34  1  0
  7 35  1  0
  8 36  1  0
  8 37  1  0
  8 38  1  0
  9 28  1  0
  9 10  1  1
  9 11  1  0
 10 39  1  0
 11 20  1  0
 11 12  1  0
 11 40  1  1
 12 13  2  0
 12 14  1  0
 14 15  1  0
 14 41  1  0
 14 42  1  0
 15 19  1  0
 15 16  1  6
 15 28  1  0
 16 17  1  0
 16 43  1  0
 16 44  1  0
 17 18  1  0
 17 45  1  0
 17 46  1  0
 18 19  1  0
 18 47  1  0
 18 48  1  0
 19 20  1  0
 19 61  1  6
 20 21  1  0
 20 49  1  1
 21 22  1  0
 21 50  1  0
 21 51  1  0
 22 27  1  0
 22 23  1  0
 23 24  1  0
 23 52  1  0
 23 53  1  0
 24 25  1  0
 24 54  1  0
 24 55  1  0
 25 26  1  0
 26 27  1  0
 26 56  1  0
 26 57  1  0
 27 58  1  0
 27 59  1  0
 28 60  1  1
M  CHG  1  19   1
M  END
>  <i_m_ct_stereo_status>  (39) 
1

>  <s_m_source_file>  (39) 
/var/tmp/pbs.5076255.sched01/tmpuhafuy1n/0xc5aj8_e.sdf

>  <i_m_source_file_index>  (39) 
14

>  <i_lp_mmshare_version>  (39) 
48012

>  <i_f3d_flags>  (39) 
0

>  <s_epik_input>  (39) 
W0NIM11DMShbQ0gzXSlDKD1PKS9DKD1bQ0hdXFtDSDNdKVtDQEBIXTJbQ0BAXTEoW09IXSlbQ0BIXShDKD1PKVtDSDJdMylbQ0BASF0oTihbQ0BAXTIzNClbQ0gyXVtDSDJdW0NIMl00KVtDSDJdTjVbQ0gyXVtDSDJdT1tDSDJdW0NIMl01

>  <s_epik_cmdline>  (39) 
J2VwaWtfcHl0aG9uJywgJy1waHQnLCAnMi4wJywgJy1waCcsICc3LjAnLCAnLXRuJywgJzgnLCAnLW1hJywgJzIwMCcsICctaW1hZScsICc8aW5maWxlLm1hZT4nLCAnLW9tYWUnLCAnPG91dGZpbGUubWFlPic=

>  <r_lp_tautomer_probability>  (39) 
1

>  <r_epik_Ionization_Penalty>  (39) 
0.0949736

>  <r_epik_Ionization_Penalty_Charging>  (39) 
0.0945876

>  <r_epik_Ionization_Penalty_Neutral>  (39) 
0.000385982

>  <r_epik_State_Penalty>  (39) 
0.0905429

>  <r_epik_Charging_Adjusted_Penalty>  (39) 
0.18513

>  <i_epik_Tot_Q>  (39) 
1

>  <i_epik_Tot_abs_Q>  (39) 
1

>  <s_lp_Force_Field>  (39) 
OPLS3e

>  <r_lp_Energy>  (39) 
45.8855

>  <b_lp_Chiralities_Consistent>  (39) 
1

>  <s_lp_Variant>  (39) 
7:0-2

>  <s_i_glide_gridfile>  (39) 
pfpi4k_grid

>  <i_i_glide_lignum>  (39) 
14

>  <i_i_glide_rotatable_bonds>  (39) 
3

>  <r_i_docking_score>  (39) 
-3.12492

>  <r_i_glide_ligand_efficiency>  (39) 
-0.111604

>  <r_i_glide_ligand_efficiency_sa>  (39) 
-0.338897

>  <r_i_glide_ligand_efficiency_ln>  (39) 
-0.721324

>  <r_i_glide_gscore>  (39) 
-3.12492

>  <r_i_glide_lipo>  (39) 
-0.520584

>  <r_i_glide_hbond>  (39) 
-0.0530826

>  <r_i_glide_metal>  (39) 
-0

>  <r_i_glide_rewards>  (39) 
-0.878784

>  <r_i_glide_evdw>  (39) 
-16.7449

>  <r_i_glide_ecoul>  (39) 
-6.97203

>  <r_i_glide_erotb>  (39) 
0.256992

>  <r_i_glide_esite>  (39) 
-0.0464179

>  <r_i_glide_emodel>  (39) 
-27.8477

>  <r_i_glide_energy>  (39) 
-23.7169

>  <r_i_glide_einternal>  (39) 
2.41924

>  <r_i_glide_intrahb_reward>  (39) 
-0

>  <i_i_glide_confnum>  (39) 
4

>  <i_i_glide_posenum>  (39) 
29

>  <r_i_glide_eff_state_penalty>  (39) 
0

>  <ligand_id>  (39) 
7

>  <original_smiles>  (39) 
CC=C1C(=O)C(C)(C)C2(O)C3C(=O)CC4(CCCN4C3CN3CCOCC3)C12

>  <smiles>  (39) 
[H]OC12C3([H])C(=O)C([H])([H])C4(C([H])([H])C([H])([H])C([H])([H])[N+]4([H])C3([H])C([H])([H])N3C([H])([H])C([H])([H])OC([H])([H])C3([H])[H])C1([H])C(=C([H])C([H])([H])[H])C(=O)C2(C([H])([H])[H])C([H])([H])[H]

$$$$
7:2:0
     RDKit          3D

 60 64  0  0  1  0  0  0  0  0999 V2000
    1.6102   -6.2943    7.7243 C   0  0  0  0  0  0  0  0  0  0  0  0
    1.9171   -6.3465    6.2378 C   0  0  0  0  0  0  0  0  0  0  0  0
    2.7979   -5.6032    5.5308 C   0  0  0  0  0  0  0  0  0  0  0  0
    3.6877   -4.5912    6.1164 C   0  0  0  0  0  0  0  0  0  0  0  0
    3.5467   -4.0055    7.1901 O   0  0  0  0  0  0  0  0  0  0  0  0
    4.8668   -4.3196    5.1954 C   0  0  0  0  0  0  0  0  0  0  0  0
    5.3693   -2.8677    5.3182 C   0  0  0  0  0  0  0  0  0  0  0  0
    6.0099   -5.2605    5.6711 C   0  0  0  0  0  0  0  0  0  0  0  0
    4.2935   -4.7014    3.7793 C   0  0  2  0  0  0  0  0  0  0  0  0
    5.3282   -5.3733    3.0760 O   0  0  0  0  0  0  0  0  0  0  0  0
    3.7732   -3.5439    2.8363 C   0  0  2  0  0  0  0  0  0  0  0  0
    2.4953   -2.9218    3.4329 C   0  0  0  0  0  0  0  0  0  0  0  0
    2.4022   -1.7390    3.7525 O   0  0  0  0  0  0  0  0  0  0  0  0
    1.3382   -3.9238    3.5638 C   0  0  0  0  0  0  0  0  0  0  0  0
    1.8749   -5.3085    3.1007 C   0  0  1  0  0  0  0  0  0  0  0  0
    0.8016   -6.4022    2.9501 C   0  0  0  0  0  0  0  0  0  0  0  0
    1.3366   -7.3233    1.8308 C   0  0  0  0  0  0  0  0  0  0  0  0
    2.4378   -6.4987    1.1605 C   0  0  0  0  0  0  0  0  0  0  0  0
    2.2765   -5.1702    1.7016 N   0  0  0  0  0  0  0  0  0  0  0  0
    3.3571   -4.1941    1.4709 C   0  0  1  0  0  0  0  0  0  0  0  0
    2.9366   -3.1427    0.4038 C   0  0  0  0  0  0  0  0  0  0  0  0
    3.3326   -3.4586   -0.9718 N   0  0  0  0  0  0  0  0  0  0  0  0
    4.7730   -3.3158   -1.1802 C   0  0  0  0  0  0  0  0  0  0  0  0
    5.1844   -3.6144   -2.6332 C   0  0  0  0  0  0  0  0  0  0  0  0
    4.4700   -2.7693   -3.5304 O   0  0  0  0  0  0  0  0  0  0  0  0
    3.0577   -2.9130   -3.3954 C   0  0  0  0  0  0  0  0  0  0  0  0
    2.6352   -2.6198   -1.9432 C   0  0  0  0  0  0  0  0  0  0  0  0
    3.0965   -5.7008    4.0286 C   0  0  2  0  0  0  0  0  0  0  0  0
    1.4040   -7.2992    8.0887 H   0  0  0  0  0  0  0  0  0  0  0  0
    0.7264   -5.6873    7.9057 H   0  0  0  0  0  0  0  0  0  0  0  0
    2.4277   -5.9008    8.3215 H   0  0  0  0  0  0  0  0  0  0  0  0
    1.3250   -7.0845    5.7294 H   0  0  0  0  0  0  0  0  0  0  0  0
    6.1178   -2.6635    4.5605 H   0  0  0  0  0  0  0  0  0  0  0  0
    5.8287   -2.6760    6.2904 H   0  0  0  0  0  0  0  0  0  0  0  0
    4.5752   -2.1317    5.2018 H   0  0  0  0  0  0  0  0  0  0  0  0
    6.9217   -5.1318    5.0841 H   0  0  0  0  0  0  0  0  0  0  0  0
    5.7201   -6.3110    5.5980 H   0  0  0  0  0  0  0  0  0  0  0  0
    6.2797   -5.0736    6.7133 H   0  0  0  0  0  0  0  0  0  0  0  0
    4.9858   -5.6752    2.2485 H   0  0  0  0  0  0  0  0  0  0  0  0
    4.5371   -2.7774    2.6825 H   0  0  0  0  0  0  0  0  0  0  0  0
    0.9560   -3.9441    4.5857 H   0  0  0  0  0  0  0  0  0  0  0  0
    0.5358   -3.5879    2.9076 H   0  0  0  0  0  0  0  0  0  0  0  0
    0.5540   -6.9470    3.8545 H   0  0  0  0  0  0  0  0  0  0  0  0
   -0.1200   -5.9400    2.5976 H   0  0  0  0  0  0  0  0  0  0  0  0
    1.7408   -8.2492    2.2422 H   0  0  0  0  0  0  0  0  0  0  0  0
    0.5455   -7.5797    1.1294 H   0  0  0  0  0  0  0  0  0  0  0  0
    3.4153   -6.9018    1.4240 H   0  0  0  0  0  0  0  0  0  0  0  0
    2.3443   -6.4767    0.0786 H   0  0  0  0  0  0  0  0  0  0  0  0
    4.2239   -4.7222    1.0733 H   0  0  0  0  0  0  0  0  0  0  0  0
    1.8532   -3.0285    0.4501 H   0  0  0  0  0  0  0  0  0  0  0  0
    3.3234   -2.1546    0.6649 H   0  0  0  0  0  0  0  0  0  0  0  0
    5.0777   -2.2999   -0.9193 H   0  0  0  0  0  0  0  0  0  0  0  0
    5.3286   -3.9897   -0.5321 H   0  0  0  0  0  0  0  0  0  0  0  0
    6.2534   -3.4489   -2.7593 H   0  0  0  0  0  0  0  0  0  0  0  0
    4.9913   -4.6597   -2.8761 H   0  0  0  0  0  0  0  0  0  0  0  0
    2.5640   -2.2226   -4.0790 H   0  0  0  0  0  0  0  0  0  0  0  0
    2.7515   -3.9192   -3.6843 H   0  0  0  0  0  0  0  0  0  0  0  0
    1.5586   -2.7709   -1.8737 H   0  0  0  0  0  0  0  0  0  0  0  0
    2.8256   -1.5657   -1.7248 H   0  0  0  0  0  0  0  0  0  0  0  0
    3.4223   -6.7282    3.8423 H   0  0  0  0  0  0  0  0  0  0  0  0
  1  2  1  0
  1 29  1  0
  1 30  1  0
  1 31  1  0
  2  3  2  3
  2 32  1  0
  3 28  1  0
  3  4  1  0
  4  5  2  0
  4  6  1  0
  6  7  1  0
  6  8  1  0
  6  9  1  0
  7 33  1  0
  7 34  1  0
  7 35  1  0
  8 36  1  0
  8 37  1  0
  8 38  1  0
  9 28  1  0
  9 10  1  6
  9 11  1  0
 10 39  1  0
 11 20  1  0
 11 12  1  0
 11 40  1  6
 12 13  2  0
 12 14  1  0
 14 15  1  0
 14 41  1  0
 14 42  1  0
 15 19  1  0
 15 16  1  6
 15 28  1  0
 16 17  1  0
 16 43  1  0
 16 44  1  0
 17 18  1  0
 17 45  1  0
 17 46  1  0
 18 19  1  0
 18 47  1  0
 18 48  1  0
 19 20  1  0
 20 21  1  0
 20 49  1  6
 21 22  1  0
 21 50  1  0
 21 51  1  0
 22 27  1  0
 22 23  1  0
 23 24  1  0
 23 52  1  0
 23 53  1  0
 24 25  1  0
 24 54  1  0
 24 55  1  0
 25 26  1  0
 26 27  1  0
 26 56  1  0
 26 57  1  0
 27 58  1  0
 27 59  1  0
 28 60  1  1
M  END
>  <i_m_ct_stereo_status>  (40) 
1

>  <s_m_source_file>  (40) 
/var/tmp/pbs.5076255.sched01/tmpuhafuy1n/0xc5aj8_e.sdf

>  <i_m_source_file_index>  (40) 
15

>  <i_lp_mmshare_version>  (40) 
48012

>  <i_f3d_flags>  (40) 
0

>  <s_epik_input>  (40) 
W0NIM11DMShbQ0gzXSlDKD1PKS9DKD1bQ0hdXFtDSDNdKVtDQEBIXTJbQ0BAXTEoW09IXSlbQ0BIXShDKD1PKVtDSDJdMylbQ0BASF0oTihbQ0BAXTIzNClbQ0gyXVtDSDJdW0NIMl00KVtDSDJdTjVbQ0gyXVtDSDJdT1tDSDJdW0NIMl01

>  <s_epik_cmdline>  (40) 
J2VwaWtfcHl0aG9uJywgJy1waHQnLCAnMi4wJywgJy1waCcsICc3LjAnLCAnLXRuJywgJzgnLCAnLW1hJywgJzIwMCcsICctaW1hZScsICc8aW5maWxlLm1hZT4nLCAnLW9tYWUnLCAnPG91dGZpbGUubWFlPic=

>  <r_lp_tautomer_probability>  (40) 
1

>  <r_epik_Ionization_Penalty>  (40) 
1.18266

>  <r_epik_Ionization_Penalty_Charging>  (40) 
0

>  <r_epik_Ionization_Penalty_Neutral>  (40) 
1.18266

>  <r_epik_State_Penalty>  (40) 
1.19942

>  <r_epik_Charging_Adjusted_Penalty>  (40) 
1.19942

>  <i_epik_Tot_Q>  (40) 
0

>  <i_epik_Tot_abs_Q>  (40) 
0

>  <s_lp_Force_Field>  (40) 
OPLS3e

>  <r_lp_Energy>  (40) 
38.2402

>  <b_lp_Chiralities_Consistent>  (40) 
1

>  <s_lp_Variant>  (40) 
7:0-3

>  <s_i_glide_gridfile>  (40) 
pfpi4k_grid

>  <i_i_glide_lignum>  (40) 
15

>  <i_i_glide_rotatable_bonds>  (40) 
3

>  <r_i_docking_score>  (40) 
-2.13044

>  <r_i_glide_ligand_efficiency>  (40) 
-0.0760872

>  <r_i_glide_ligand_efficiency_sa>  (40) 
-0.231045

>  <r_i_glide_ligand_efficiency_ln>  (40) 
-0.491768

>  <r_i_glide_gscore>  (40) 
-2.13044

>  <r_i_glide_lipo>  (40) 
-0.348422

>  <r_i_glide_hbond>  (40) 
0

>  <r_i_glide_metal>  (40) 
-0

>  <r_i_glide_rewards>  (40) 
-0.76212

>  <r_i_glide_evdw>  (40) 
-19.0011

>  <r_i_glide_ecoul>  (40) 
-2.18688

>  <r_i_glide_erotb>  (40) 
0.25819

>  <r_i_glide_esite>  (40) 
0

>  <r_i_glide_emodel>  (40) 
-24.0552

>  <r_i_glide_energy>  (40) 
-21.188

>  <r_i_glide_einternal>  (40) 
0.461305

>  <r_i_glide_intrahb_reward>  (40) 
-0

>  <i_i_glide_confnum>  (40) 
1

>  <i_i_glide_posenum>  (40) 
2

>  <r_i_glide_eff_state_penalty>  (40) 
0

>  <ligand_id>  (40) 
7

>  <original_smiles>  (40) 
CC=C1C(=O)C(C)(C)C2(O)C3C(=O)CC4(CCCN4C3CN3CCOCC3)C12

>  <smiles>  (40) 
[H]OC12C3([H])C(=O)C([H])([H])C4(N(C([H])([H])C([H])([H])C4([H])[H])C3([H])C([H])([H])N3C([H])([H])C([H])([H])OC([H])([H])C3([H])[H])C1([H])C(=C([H])C([H])([H])[H])C(=O)C2(C([H])([H])[H])C([H])([H])[H]

$$$$
7:2:1
     RDKit          3D

 60 64  0  0  1  0  0  0  0  0999 V2000
   -0.0681   -9.7348    7.4293 C   0  0  0  0  0  0  0  0  0  0  0  0
    0.3237   -9.2013    6.0665 C   0  0  0  0  0  0  0  0  0  0  0  0
    1.4363   -8.5168    5.7130 C   0  0  0  0  0  0  0  0  0  0  0  0
    2.5359   -8.1872    6.6328 C   0  0  0  0  0  0  0  0  0  0  0  0
    2.4882   -8.1258    7.8626 O   0  0  0  0  0  0  0  0  0  0  0  0
    3.8119   -7.8943    5.8508 C   0  0  0  0  0  0  0  0  0  0  0  0
    4.7204   -6.8749    6.5798 C   0  0  0  0  0  0  0  0  0  0  0  0
    4.5893   -9.2402    5.7779 C   0  0  0  0  0  0  0  0  0  0  0  0
    3.2625   -7.4127    4.4558 C   0  0  2  0  0  0  0  0  0  0  0  0
    4.1231   -7.9509    3.4572 O   0  0  0  0  0  0  0  0  0  0  0  0
    3.1612   -5.8606    4.1846 C   0  0  2  0  0  0  0  0  0  0  0  0
    2.0796   -5.2250    5.0837 C   0  0  0  0  0  0  0  0  0  0  0  0
    2.3148   -4.3391    5.9040 O   0  0  0  0  0  0  0  0  0  0  0  0
    0.6715   -5.7866    4.8270 C   0  0  0  0  0  0  0  0  0  0  0  0
    0.8174   -6.8999    3.7493 C   0  0  1  0  0  0  0  0  0  0  0  0
   -0.5141   -7.4444    3.2005 C   0  0  0  0  0  0  0  0  0  0  0  0
   -0.1855   -7.8686    1.7534 C   0  0  0  0  0  0  0  0  0  0  0  0
    1.1508   -7.1904    1.4507 C   0  0  0  0  0  0  0  0  0  0  0  0
    1.3335   -6.2588    2.5411 N   0  0  0  0  0  0  0  0  0  0  0  0
    2.6783   -5.6771    2.7039 C   0  0  1  0  0  0  0  0  0  0  0  0
    2.6883   -4.1868    2.2600 C   0  0  0  0  0  0  0  0  0  0  0  0
    3.0850   -3.9472    0.8699 N   0  0  0  0  0  0  0  0  0  0  0  0
    4.4892   -4.2824    0.6289 C   0  0  0  0  0  0  0  0  0  0  0  0
    4.9126   -3.9963   -0.8209 C   0  0  0  0  0  0  0  0  0  0  0  0
    4.6769   -2.6279   -1.1361 O   0  0  0  0  0  0  0  0  0  0  0  0
    3.3090   -2.2649   -0.9628 C   0  0  0  0  0  0  0  0  0  0  0  0
    2.8703   -2.5498    0.4904 C   0  0  0  0  0  0  0  0  0  0  0  0
    1.8064   -8.0109    4.3088 C   0  0  2  0  0  0  0  0  0  0  0  0
   -0.5782  -10.6865    7.2869 H   0  0  0  0  0  0  0  0  0  0  0  0
   -0.7492   -9.0536    7.9317 H   0  0  0  0  0  0  0  0  0  0  0  0
    0.7833   -9.9175    8.0787 H   0  0  0  0  0  0  0  0  0  0  0  0
   -0.4193   -9.4337    5.3262 H   0  0  0  0  0  0  0  0  0  0  0  0
    5.5701   -6.5830    5.9627 H   0  0  0  0  0  0  0  0  0  0  0  0
    5.1286   -7.2832    7.5073 H   0  0  0  0  0  0  0  0  0  0  0  0
    4.1874   -5.9676    6.8625 H   0  0  0  0  0  0  0  0  0  0  0  0
    5.5435   -9.1376    5.2580 H   0  0  0  0  0  0  0  0  0  0  0  0
    4.0111  -10.0122    5.2659 H   0  0  0  0  0  0  0  0  0  0  0  0
    4.8215   -9.6290    6.7731 H   0  0  0  0  0  0  0  0  0  0  0  0
    4.1119   -8.8958    3.5232 H   0  0  0  0  0  0  0  0  0  0  0  0
    4.1248   -5.3722    4.3400 H   0  0  0  0  0  0  0  0  0  0  0  0
    0.2304   -6.1590    5.7539 H   0  0  0  0  0  0  0  0  0  0  0  0
    0.0410   -4.9757    4.4544 H   0  0  0  0  0  0  0  0  0  0  0  0
   -0.9600   -8.2488    3.7741 H   0  0  0  0  0  0  0  0  0  0  0  0
   -1.2465   -6.6375    3.1742 H   0  0  0  0  0  0  0  0  0  0  0  0
   -0.0773   -8.9494    1.6808 H   0  0  0  0  0  0  0  0  0  0  0  0
   -0.9625   -7.5508    1.0625 H   0  0  0  0  0  0  0  0  0  0  0  0
    1.9544   -7.9267    1.4520 H   0  0  0  0  0  0  0  0  0  0  0  0
    1.1574   -6.6848    0.4838 H   0  0  0  0  0  0  0  0  0  0  0  0
    3.3724   -6.2239    2.0638 H   0  0  0  0  0  0  0  0  0  0  0  0
    1.6889   -3.7841    2.4213 H   0  0  0  0  0  0  0  0  0  0  0  0
    3.3273   -3.5993    2.9186 H   0  0  0  0  0  0  0  0  0  0  0  0
    5.1235   -3.7123    1.3104 H   0  0  0  0  0  0  0  0  0  0  0  0
    4.6782   -5.3380    0.8138 H   0  0  0  0  0  0  0  0  0  0  0  0
    5.9693   -4.2240   -0.9474 H   0  0  0  0  0  0  0  0  0  0  0  0
    4.3609   -4.6374   -1.5084 H   0  0  0  0  0  0  0  0  0  0  0  0
    3.1995   -1.2060   -1.1986 H   0  0  0  0  0  0  0  0  0  0  0  0
    2.6861   -2.8202   -1.6665 H   0  0  0  0  0  0  0  0  0  0  0  0
    1.8214   -2.2779    0.6104 H   0  0  0  0  0  0  0  0  0  0  0  0
    3.4300   -1.8935    1.1575 H   0  0  0  0  0  0  0  0  0  0  0  0
    1.8285   -8.8897    3.6575 H   0  0  0  0  0  0  0  0  0  0  0  0
  1  2  1  0
  1 29  1  0
  1 30  1  0
  1 31  1  0
  2  3  2  3
  2 32  1  0
  3 28  1  0
  3  4  1  0
  4  5  2  0
  4  6  1  0
  6  7  1  0
  6  8  1  0
  6  9  1  0
  7 33  1  0
  7 34  1  0
  7 35  1  0
  8 36  1  0
  8 37  1  0
  8 38  1  0
  9 28  1  0
  9 10  1  6
  9 11  1  0
 10 39  1  0
 11 20  1  0
 11 12  1  0
 11 40  1  6
 12 13  2  0
 12 14  1  0
 14 15  1  0
 14 41  1  0
 14 42  1  0
 15 19  1  0
 15 16  1  6
 15 28  1  0
 16 17  1  0
 16 43  1  0
 16 44  1  0
 17 18  1  0
 17 45  1  0
 17 46  1  0
 18 19  1  0
 18 47  1  0
 18 48  1  0
 19 20  1  0
 20 21  1  0
 20 49  1  6
 21 22  1  0
 21 50  1  0
 21 51  1  0
 22 27  1  0
 22 23  1  0
 23 24  1  0
 23 52  1  0
 23 53  1  0
 24 25  1  0
 24 54  1  0
 24 55  1  0
 25 26  1  0
 26 27  1  0
 26 56  1  0
 26 57  1  0
 27 58  1  0
 27 59  1  0
 28 60  1  6
M  END
>  <i_m_ct_stereo_status>  (41) 
1

>  <s_m_source_file>  (41) 
/var/tmp/pbs.5076255.sched01/tmpuhafuy1n/0xc5aj8_e.sdf

>  <i_m_source_file_index>  (41) 
15

>  <i_lp_mmshare_version>  (41) 
48012

>  <i_f3d_flags>  (41) 
0

>  <s_epik_input>  (41) 
W0NIM11DMShbQ0gzXSlDKD1PKS9DKD1bQ0hdXFtDSDNdKVtDQEBIXTJbQ0BAXTEoW09IXSlbQ0BIXShDKD1PKVtDSDJdMylbQ0BASF0oTihbQ0BAXTIzNClbQ0gyXVtDSDJdW0NIMl00KVtDSDJdTjVbQ0gyXVtDSDJdT1tDSDJdW0NIMl01

>  <s_epik_cmdline>  (41) 
J2VwaWtfcHl0aG9uJywgJy1waHQnLCAnMi4wJywgJy1waCcsICc3LjAnLCAnLXRuJywgJzgnLCAnLW1hJywgJzIwMCcsICctaW1hZScsICc8aW5maWxlLm1hZT4nLCAnLW9tYWUnLCAnPG91dGZpbGUubWFlPic=

>  <r_lp_tautomer_probability>  (41) 
1

>  <r_epik_Ionization_Penalty>  (41) 
1.18266

>  <r_epik_Ionization_Penalty_Charging>  (41) 
0

>  <r_epik_Ionization_Penalty_Neutral>  (41) 
1.18266

>  <r_epik_State_Penalty>  (41) 
1.19942

>  <r_epik_Charging_Adjusted_Penalty>  (41) 
1.19942

>  <i_epik_Tot_Q>  (41) 
0

>  <i_epik_Tot_abs_Q>  (41) 
0

>  <s_lp_Force_Field>  (41) 
OPLS3e

>  <r_lp_Energy>  (41) 
38.2402

>  <b_lp_Chiralities_Consistent>  (41) 
1

>  <s_lp_Variant>  (41) 
7:0-3

>  <s_i_glide_gridfile>  (41) 
pfpi4k_grid

>  <i_i_glide_lignum>  (41) 
15

>  <i_i_glide_rotatable_bonds>  (41) 
3

>  <r_i_docking_score>  (41) 
-1.92793

>  <r_i_glide_ligand_efficiency>  (41) 
-0.0688547

>  <r_i_glide_ligand_efficiency_sa>  (41) 
-0.209083

>  <r_i_glide_ligand_efficiency_ln>  (41) 
-0.445023

>  <r_i_glide_gscore>  (41) 
-1.92793

>  <r_i_glide_lipo>  (41) 
-0.0529943

>  <r_i_glide_hbond>  (41) 
0

>  <r_i_glide_metal>  (41) 
-0

>  <r_i_glide_rewards>  (41) 
-0.760224

>  <r_i_glide_evdw>  (41) 
-19.0742

>  <r_i_glide_ecoul>  (41) 
-2.73251

>  <r_i_glide_erotb>  (41) 
0.25819

>  <r_i_glide_esite>  (41) 
-0.00931943

>  <r_i_glide_emodel>  (41) 
-24.2164

>  <r_i_glide_energy>  (41) 
-21.8067

>  <r_i_glide_einternal>  (41) 
0.613886

>  <r_i_glide_intrahb_reward>  (41) 
-0

>  <i_i_glide_confnum>  (41) 
1

>  <i_i_glide_posenum>  (41) 
26

>  <r_i_glide_eff_state_penalty>  (41) 
0

>  <ligand_id>  (41) 
7

>  <original_smiles>  (41) 
CC=C1C(=O)C(C)(C)C2(O)C3C(=O)CC4(CCCN4C3CN3CCOCC3)C12

>  <smiles>  (41) 
[H]OC12C3([H])C(=O)C([H])([H])C4(N(C([H])([H])C([H])([H])C4([H])[H])C3([H])C([H])([H])N3C([H])([H])C([H])([H])OC([H])([H])C3([H])[H])C1([H])C(=C([H])C([H])([H])[H])C(=O)C2(C([H])([H])[H])C([H])([H])[H]

$$$$
7:2:2
     RDKit          3D

 60 64  0  0  1  0  0  0  0  0999 V2000
    1.6680   -9.8504    6.2176 C   0  0  0  0  0  0  0  0  0  0  0  0
    1.6144   -9.1201    4.8856 C   0  0  0  0  0  0  0  0  0  0  0  0
    2.6341   -8.7002    4.1072 C   0  0  0  0  0  0  0  0  0  0  0  0
    4.0596   -8.9129    4.4163 C   0  0  0  0  0  0  0  0  0  0  0  0
    4.5559   -9.1536    5.5166 O   0  0  0  0  0  0  0  0  0  0  0  0
    4.9014   -8.7911    3.1516 C   0  0  0  0  0  0  0  0  0  0  0  0
    6.3254   -8.2647    3.4527 C   0  0  0  0  0  0  0  0  0  0  0  0
    5.0403  -10.2389    2.5976 C   0  0  0  0  0  0  0  0  0  0  0  0
    4.0266   -7.8544    2.2329 C   0  0  2  0  0  0  0  0  0  0  0  0
    4.1588   -8.3510    0.9005 O   0  0  0  0  0  0  0  0  0  0  0  0
    4.3771   -6.3141    2.1817 C   0  0  2  0  0  0  0  0  0  0  0  0
    4.0728   -5.6531    3.5422 C   0  0  0  0  0  0  0  0  0  0  0  0
    4.9250   -5.0919    4.2272 O   0  0  0  0  0  0  0  0  0  0  0  0
    2.5866   -5.7325    3.9399 C   0  0  0  0  0  0  0  0  0  0  0  0
    1.8662   -6.5461    2.8266 C   0  0  1  0  0  0  0  0  0  0  0  0
    0.3314   -6.5523    2.9347 C   0  0  0  0  0  0  0  0  0  0  0  0
   -0.1629   -6.6815    1.4781 C   0  0  0  0  0  0  0  0  0  0  0  0
    1.0608   -6.3278    0.6370 C   0  0  0  0  0  0  0  0  0  0  0  0
    2.0185   -5.8038    1.5783 N   0  0  0  0  0  0  0  0  0  0  0  0
    3.4180   -5.6472    1.1333 C   0  0  1  0  0  0  0  0  0  0  0  0
    3.7422   -4.1455    0.9038 C   0  0  0  0  0  0  0  0  0  0  0  0
    3.6283   -3.6939   -0.4849 N   0  0  0  0  0  0  0  0  0  0  0  0
    4.7591   -4.1424   -1.2980 C   0  0  0  0  0  0  0  0  0  0  0  0
    4.6675   -3.6469   -2.7546 C   0  0  0  0  0  0  0  0  0  0  0  0
    4.5598   -2.2268   -2.7771 O   0  0  0  0  0  0  0  0  0  0  0  0
    3.4299   -1.7601   -2.0424 C   0  0  0  0  0  0  0  0  0  0  0  0
    3.5276   -2.2380   -0.5795 C   0  0  0  0  0  0  0  0  0  0  0  0
    2.5359   -7.9853    2.7482 C   0  0  2  0  0  0  0  0  0  0  0  0
    0.8446  -10.5618    6.2682 H   0  0  0  0  0  0  0  0  0  0  0  0
    1.5509   -9.1523    7.0438 H   0  0  0  0  0  0  0  0  0  0  0  0
    2.5847  -10.4147    6.3736 H   0  0  0  0  0  0  0  0  0  0  0  0
    0.5996   -8.9481    4.5739 H   0  0  0  0  0  0  0  0  0  0  0  0
    6.8763   -8.0730    2.5331 H   0  0  0  0  0  0  0  0  0  0  0  0
    6.9071   -8.9830    4.0311 H   0  0  0  0  0  0  0  0  0  0  0  0
    6.3137   -7.3470    4.0340 H   0  0  0  0  0  0  0  0  0  0  0  0
    5.6539  -10.2798    1.6936 H   0  0  0  0  0  0  0  0  0  0  0  0
    4.0660  -10.6714    2.3569 H   0  0  0  0  0  0  0  0  0  0  0  0
    5.5118  -10.9074    3.3216 H   0  0  0  0  0  0  0  0  0  0  0  0
    4.0326   -9.2889    0.9212 H   0  0  0  0  0  0  0  0  0  0  0  0
    5.4231   -6.1585    1.9119 H   0  0  0  0  0  0  0  0  0  0  0  0
    2.4782   -6.1816    4.9266 H   0  0  0  0  0  0  0  0  0  0  0  0
    2.1876   -4.7175    3.9881 H   0  0  0  0  0  0  0  0  0  0  0  0
   -0.0885   -7.3060    3.5888 H   0  0  0  0  0  0  0  0  0  0  0  0
    0.0299   -5.5846    3.3341 H   0  0  0  0  0  0  0  0  0  0  0  0
   -0.4781   -7.7054    1.2637 H   0  0  0  0  0  0  0  0  0  0  0  0
   -0.9968   -6.0267    1.2664 H   0  0  0  0  0  0  0  0  0  0  0  0
    1.4126   -7.2511    0.2094 H   0  0  0  0  0  0  0  0  0  0  0  0
    0.8619   -5.6301   -0.1770 H   0  0  0  0  0  0  0  0  0  0  0  0
    3.5513   -6.1639    0.1837 H   0  0  0  0  0  0  0  0  0  0  0  0
    3.0669   -3.5627    1.5311 H   0  0  0  0  0  0  0  0  0  0  0  0
    4.7402   -3.9039    1.2749 H   0  0  0  0  0  0  0  0  0  0  0  0
    5.6908   -3.7798   -0.8610 H   0  0  0  0  0  0  0  0  0  0  0  0
    4.8214   -5.2296   -1.2991 H   0  0  0  0  0  0  0  0  0  0  0  0
    5.5559   -3.9463   -3.3094 H   0  0  0  0  0  0  0  0  0  0  0  0
    3.8103   -4.0838   -3.2666 H   0  0  0  0  0  0  0  0  0  0  0  0
    3.4079   -0.6719   -2.0894 H   0  0  0  0  0  0  0  0  0  0  0  0
    2.5081   -2.1194   -2.5038 H   0  0  0  0  0  0  0  0  0  0  0  0
    2.6502   -1.8891   -0.0341 H   0  0  0  0  0  0  0  0  0  0  0  0
    4.3932   -1.7704   -0.1077 H   0  0  0  0  0  0  0  0  0  0  0  0
    1.9734   -8.6496    2.0898 H   0  0  0  0  0  0  0  0  0  0  0  0
  1  2  1  0
  1 29  1  0
  1 30  1  0
  1 31  1  0
  2  3  2  3
  2 32  1  0
  3 28  1  0
  3  4  1  0
  4  5  2  0
  4  6  1  0
  6  7  1  0
  6  8  1  0
  6  9  1  0
  7 33  1  0
  7 34  1  0
  7 35  1  0
  8 36  1  0
  8 37  1  0
  8 38  1  0
  9 28  1  0
  9 10  1  6
  9 11  1  0
 10 39  1  0
 11 20  1  0
 11 12  1  0
 11 40  1  6
 12 13  2  0
 12 14  1  0
 14 15  1  0
 14 41  1  0
 14 42  1  0
 15 19  1  0
 15 16  1  1
 15 28  1  0
 16 17  1  0
 16 43  1  0
 16 44  1  0
 17 18  1  0
 17 45  1  0
 17 46  1  0
 18 19  1  0
 18 47  1  0
 18 48  1  0
 19 20  1  0
 20 21  1  0
 20 49  1  6
 21 22  1  0
 21 50  1  0
 21 51  1  0
 22 27  1  0
 22 23  1  0
 23 24  1  0
 23 52  1  0
 23 53  1  0
 24 25  1  0
 24 54  1  0
 24 55  1  0
 25 26  1  0
 26 27  1  0
 26 56  1  0
 26 57  1  0
 27 58  1  0
 27 59  1  0
 28 60  1  6
M  END
>  <i_m_ct_stereo_status>  (42) 
1

>  <s_m_source_file>  (42) 
/var/tmp/pbs.5076255.sched01/tmpuhafuy1n/0xc5aj8_e.sdf

>  <i_m_source_file_index>  (42) 
15

>  <i_lp_mmshare_version>  (42) 
48012

>  <i_f3d_flags>  (42) 
0

>  <s_epik_input>  (42) 
W0NIM11DMShbQ0gzXSlDKD1PKS9DKD1bQ0hdXFtDSDNdKVtDQEBIXTJbQ0BAXTEoW09IXSlbQ0BIXShDKD1PKVtDSDJdMylbQ0BASF0oTihbQ0BAXTIzNClbQ0gyXVtDSDJdW0NIMl00KVtDSDJdTjVbQ0gyXVtDSDJdT1tDSDJdW0NIMl01

>  <s_epik_cmdline>  (42) 
J2VwaWtfcHl0aG9uJywgJy1waHQnLCAnMi4wJywgJy1waCcsICc3LjAnLCAnLXRuJywgJzgnLCAnLW1hJywgJzIwMCcsICctaW1hZScsICc8aW5maWxlLm1hZT4nLCAnLW9tYWUnLCAnPG91dGZpbGUubWFlPic=

>  <r_lp_tautomer_probability>  (42) 
1

>  <r_epik_Ionization_Penalty>  (42) 
1.18266

>  <r_epik_Ionization_Penalty_Charging>  (42) 
0

>  <r_epik_Ionization_Penalty_Neutral>  (42) 
1.18266

>  <r_epik_State_Penalty>  (42) 
1.19942

>  <r_epik_Charging_Adjusted_Penalty>  (42) 
1.19942

>  <i_epik_Tot_Q>  (42) 
0

>  <i_epik_Tot_abs_Q>  (42) 
0

>  <s_lp_Force_Field>  (42) 
OPLS3e

>  <r_lp_Energy>  (42) 
38.2402

>  <b_lp_Chiralities_Consistent>  (42) 
1

>  <s_lp_Variant>  (42) 
7:0-3

>  <s_i_glide_gridfile>  (42) 
pfpi4k_grid

>  <i_i_glide_lignum>  (42) 
15

>  <i_i_glide_rotatable_bonds>  (42) 
3

>  <r_i_docking_score>  (42) 
-1.89555

>  <r_i_glide_ligand_efficiency>  (42) 
-0.0676984

>  <r_i_glide_ligand_efficiency_sa>  (42) 
-0.205572

>  <r_i_glide_ligand_efficiency_ln>  (42) 
-0.43755

>  <r_i_glide_gscore>  (42) 
-1.89555

>  <r_i_glide_lipo>  (42) 
-0.0398552

>  <r_i_glide_hbond>  (42) 
0

>  <r_i_glide_metal>  (42) 
-0

>  <r_i_glide_rewards>  (42) 
-0.760224

>  <r_i_glide_evdw>  (42) 
-21.3937

>  <r_i_glide_ecoul>  (42) 
-1.89175

>  <r_i_glide_erotb>  (42) 
0.25819

>  <r_i_glide_esite>  (42) 
-0.000217639

>  <r_i_glide_emodel>  (42) 
-25.4627

>  <r_i_glide_energy>  (42) 
-23.2854

>  <r_i_glide_einternal>  (42) 
0.941074

>  <r_i_glide_intrahb_reward>  (42) 
-0

>  <i_i_glide_confnum>  (42) 
1

>  <i_i_glide_posenum>  (42) 
1

>  <r_i_glide_eff_state_penalty>  (42) 
0

>  <ligand_id>  (42) 
7

>  <original_smiles>  (42) 
CC=C1C(=O)C(C)(C)C2(O)C3C(=O)CC4(CCCN4C3CN3CCOCC3)C12

>  <smiles>  (42) 
[H]OC12C3([H])C(=O)C([H])([H])C4(N(C([H])([H])C([H])([H])C4([H])[H])C3([H])C([H])([H])N3C([H])([H])C([H])([H])OC([H])([H])C3([H])[H])C1([H])C(=C([H])C([H])([H])[H])C(=O)C2(C([H])([H])[H])C([H])([H])[H]

$$$$
7:3:0
     RDKit          3D

 60 64  0  0  1  0  0  0  0  0999 V2000
    4.4880   -4.7967    6.1067 C   0  0  0  0  0  0  0  0  0  0  0  0
    4.7743   -5.7539    4.9730 C   0  0  0  0  0  0  0  0  0  0  0  0
    4.4914   -5.6133    3.6601 C   0  0  0  0  0  0  0  0  0  0  0  0
    4.6960   -6.7337    2.7473 C   0  0  0  0  0  0  0  0  0  0  0  0
    5.4552   -7.6922    2.9254 O   0  0  0  0  0  0  0  0  0  0  0  0
    3.7886   -6.6084    1.5387 C   0  0  0  0  0  0  0  0  0  0  0  0
    4.4243   -7.2469    0.2908 C   0  0  0  0  0  0  0  0  0  0  0  0
    2.4949   -7.3982    1.8834 C   0  0  0  0  0  0  0  0  0  0  0  0
    3.5628   -5.0583    1.4409 C   0  0  2  0  0  0  0  0  0  0  0  0
    2.2207   -4.8421    1.0447 O   0  0  0  0  0  0  0  0  0  0  0  0
    4.4376   -4.2357    0.4088 C   0  0  2  0  0  0  0  0  0  0  0  0
    5.8940   -4.2062    0.8823 C   0  0  0  0  0  0  0  0  0  0  0  0
    6.8367   -4.6501    0.2326 O   0  0  0  0  0  0  0  0  0  0  0  0
    6.0731   -3.5317    2.2384 C   0  0  0  0  0  0  0  0  0  0  0  0
    4.6583   -3.1512    2.7735 C   0  0  1  0  0  0  0  0  0  0  0  0
    4.7084   -2.3082    4.0640 C   0  0  0  0  0  0  0  0  0  0  0  0
    4.7336   -0.8403    3.6201 C   0  0  0  0  0  0  0  0  0  0  0  0
    4.4421   -0.8815    2.1258 C   0  0  0  0  0  0  0  0  0  0  0  0
    4.0052   -2.2385    1.8314 N   0  0  0  0  0  0  0  0  0  0  0  0
    3.9864   -2.7303    0.4231 C   0  0  1  0  0  0  0  0  0  0  0  0
    4.7121   -1.8518   -0.6484 C   0  0  0  0  0  0  0  0  0  0  0  0
    3.9409   -1.6662   -1.8724 N   0  0  0  0  0  0  0  0  0  0  0  0
    4.0671   -2.8058   -2.7676 C   0  0  0  0  0  0  0  0  0  0  0  0
    3.3122   -2.5805   -4.0821 C   0  0  0  0  0  0  0  0  0  0  0  0
    3.8039   -1.3969   -4.7128 O   0  0  0  0  0  0  0  0  0  0  0  0
    3.6069   -0.2457   -3.8953 C   0  0  0  0  0  0  0  0  0  0  0  0
    4.3548   -0.4596   -2.5705 C   0  0  0  0  0  0  0  0  0  0  0  0
    3.8089   -4.4744    2.8886 C   0  0  2  0  0  0  0  0  0  0  0  0
    4.2201   -5.3594    6.9991 H   0  0  0  0  0  0  0  0  0  0  0  0
    3.6474   -4.1511    5.8772 H   0  0  0  0  0  0  0  0  0  0  0  0
    5.3699   -4.2021    6.3383 H   0  0  0  0  0  0  0  0  0  0  0  0
    5.2556   -6.6695    5.2984 H   0  0  0  0  0  0  0  0  0  0  0  0
    3.8349   -7.0125   -0.5912 H   0  0  0  0  0  0  0  0  0  0  0  0
    4.4928   -8.3335    0.3738 H   0  0  0  0  0  0  0  0  0  0  0  0
    5.4320   -6.8803    0.1243 H   0  0  0  0  0  0  0  0  0  0  0  0
    1.7763   -7.3831    1.0613 H   0  0  0  0  0  0  0  0  0  0  0  0
    1.9974   -6.9838    2.7620 H   0  0  0  0  0  0  0  0  0  0  0  0
    2.7063   -8.4469    2.0988 H   0  0  0  0  0  0  0  0  0  0  0  0
    2.1456   -3.9202    0.8396 H   0  0  0  0  0  0  0  0  0  0  0  0
    4.3843   -4.6683   -0.5843 H   0  0  0  0  0  0  0  0  0  0  0  0
    6.5955   -4.2460    2.8773 H   0  0  0  0  0  0  0  0  0  0  0  0
    6.6840   -2.6423    2.0871 H   0  0  0  0  0  0  0  0  0  0  0  0
    3.7819   -2.4455    4.6224 H   0  0  0  0  0  0  0  0  0  0  0  0
    5.5489   -2.5635    4.7090 H   0  0  0  0  0  0  0  0  0  0  0  0
    3.9995   -0.2464    4.1644 H   0  0  0  0  0  0  0  0  0  0  0  0
    5.7146   -0.3976    3.7906 H   0  0  0  0  0  0  0  0  0  0  0  0
    3.6789   -0.1585    1.8337 H   0  0  0  0  0  0  0  0  0  0  0  0
    5.3824   -0.6367    1.6322 H   0  0  0  0  0  0  0  0  0  0  0  0
    2.9430   -2.6862    0.1159 H   0  0  0  0  0  0  0  0  0  0  0  0
    4.8890   -0.8535   -0.2674 H   0  0  0  0  0  0  0  0  0  0  0  0
    5.7098   -2.2272   -0.8887 H   0  0  0  0  0  0  0  0  0  0  0  0
    5.1198   -2.9826   -2.9922 H   0  0  0  0  0  0  0  0  0  0  0  0
    3.6757   -3.7054   -2.2963 H   0  0  0  0  0  0  0  0  0  0  0  0
    3.4773   -3.4421   -4.7235 H   0  0  0  0  0  0  0  0  0  0  0  0
    2.2361   -2.5034   -3.9056 H   0  0  0  0  0  0  0  0  0  0  0  0
    3.9816    0.6375   -4.4104 H   0  0  0  0  0  0  0  0  0  0  0  0
    2.5466   -0.0748   -3.7097 H   0  0  0  0  0  0  0  0  0  0  0  0
    4.2293    0.4088   -1.9367 H   0  0  0  0  0  0  0  0  0  0  0  0
    5.4176   -0.5112   -2.7387 H   0  0  0  0  0  0  0  0  0  0  0  0
    2.8528   -4.2774    3.3793 H   0  0  0  0  0  0  0  0  0  0  0  0
  1  2  1  0
  1 29  1  0
  1 30  1  0
  1 31  1  0
  2  3  2  3
  2 32  1  0
  3 28  1  0
  3  4  1  0
  4  5  2  0
  4  6  1  0
  6  7  1  0
  6  8  1  0
  6  9  1  0
  7 33  1  0
  7 34  1  0
  7 35  1  0
  8 36  1  0
  8 37  1  0
  8 38  1  0
  9 28  1  0
  9 10  1  6
  9 11  1  0
 10 39  1  0
 11 20  1  0
 11 12  1  0
 11 40  1  6
 12 13  2  0
 12 14  1  0
 14 15  1  0
 14 41  1  0
 14 42  1  0
 15 19  1  0
 15 16  1  1
 15 28  1  0
 16 17  1  0
 16 43  1  0
 16 44  1  0
 17 18  1  0
 17 45  1  0
 17 46  1  0
 18 19  1  0
 18 47  1  0
 18 48  1  0
 19 20  1  0
 20 21  1  0
 20 49  1  6
 21 22  1  0
 21 50  1  0
 21 51  1  0
 22 27  1  0
 22 23  1  0
 23 24  1  0
 23 52  1  0
 23 53  1  0
 24 25  1  0
 24 54  1  0
 24 55  1  0
 25 26  1  0
 26 27  1  0
 26 56  1  0
 26 57  1  0
 27 58  1  0
 27 59  1  0
 28 60  1  1
M  END
>  <i_m_ct_stereo_status>  (43) 
1

>  <s_m_source_file>  (43) 
/var/tmp/pbs.5076255.sched01/tmpuhafuy1n/0xc5aj8_e.sdf

>  <i_m_source_file_index>  (43) 
16

>  <i_lp_mmshare_version>  (43) 
48012

>  <i_f3d_flags>  (43) 
0

>  <s_epik_input>  (43) 
W0NIM11DMShbQ0gzXSlDKD1PKS9DKD1bQ0hdXFtDSDNdKVtDQEBIXTJbQ0BAXTEoW09IXSlbQ0BIXShDKD1PKVtDSDJdMylbQ0BASF0oTihbQ0BAXTIzNClbQ0gyXVtDSDJdW0NIMl00KVtDSDJdTjVbQ0gyXVtDSDJdT1tDSDJdW0NIMl01

>  <s_epik_cmdline>  (43) 
J2VwaWtfcHl0aG9uJywgJy1waHQnLCAnMi4wJywgJy1waCcsICc3LjAnLCAnLXRuJywgJzgnLCAnLW1hJywgJzIwMCcsICctaW1hZScsICc8aW5maWxlLm1hZT4nLCAnLW9tYWUnLCAnPG91dGZpbGUubWFlPic=

>  <r_lp_tautomer_probability>  (43) 
1

>  <r_epik_Ionization_Penalty>  (43) 
1.18266

>  <r_epik_Ionization_Penalty_Charging>  (43) 
0

>  <r_epik_Ionization_Penalty_Neutral>  (43) 
1.18266

>  <r_epik_State_Penalty>  (43) 
1.19942

>  <r_epik_Charging_Adjusted_Penalty>  (43) 
1.19942

>  <i_epik_Tot_Q>  (43) 
0

>  <i_epik_Tot_abs_Q>  (43) 
0

>  <s_lp_Force_Field>  (43) 
OPLS3e

>  <r_lp_Energy>  (43) 
36.5912

>  <b_lp_Chiralities_Consistent>  (43) 
1

>  <s_lp_Variant>  (43) 
7:0-4

>  <s_i_glide_gridfile>  (43) 
pfpi4k_grid

>  <i_i_glide_lignum>  (43) 
16

>  <i_i_glide_rotatable_bonds>  (43) 
3

>  <r_i_docking_score>  (43) 
-3.40678

>  <r_i_glide_ligand_efficiency>  (43) 
-0.121671

>  <r_i_glide_ligand_efficiency_sa>  (43) 
-0.369464

>  <r_i_glide_ligand_efficiency_ln>  (43) 
-0.786385

>  <r_i_glide_gscore>  (43) 
-3.40678

>  <r_i_glide_lipo>  (43) 
-0.805091

>  <r_i_glide_hbond>  (43) 
-0.335467

>  <r_i_glide_metal>  (43) 
-0

>  <r_i_glide_rewards>  (43) 
-0.86744

>  <r_i_glide_evdw>  (43) 
-21.22

>  <r_i_glide_ecoul>  (43) 
-3.97315

>  <r_i_glide_erotb>  (43) 
0.25819

>  <r_i_glide_esite>  (43) 
0

>  <r_i_glide_emodel>  (43) 
-26.6251

>  <r_i_glide_energy>  (43) 
-25.1932

>  <r_i_glide_einternal>  (43) 
6.50557

>  <r_i_glide_intrahb_reward>  (43) 
-0

>  <i_i_glide_confnum>  (43) 
5

>  <i_i_glide_posenum>  (43) 
6

>  <r_i_glide_eff_state_penalty>  (43) 
0

>  <ligand_id>  (43) 
7

>  <original_smiles>  (43) 
CC=C1C(=O)C(C)(C)C2(O)C3C(=O)CC4(CCCN4C3CN3CCOCC3)C12

>  <smiles>  (43) 
[H]OC12C3([H])C(=O)C([H])([H])C4(N(C([H])([H])C([H])([H])C4([H])[H])C3([H])C([H])([H])N3C([H])([H])C([H])([H])OC([H])([H])C3([H])[H])C1([H])C(=C([H])C([H])([H])[H])C(=O)C2(C([H])([H])[H])C([H])([H])[H]

$$$$
7:3:1
     RDKit          3D

 60 64  0  0  1  0  0  0  0  0999 V2000
    1.6604  -10.0436    4.0839 C   0  0  0  0  0  0  0  0  0  0  0  0
    2.8969   -9.3894    4.6602 C   0  0  0  0  0  0  0  0  0  0  0  0
    3.7749   -8.5666    4.0474 C   0  0  0  0  0  0  0  0  0  0  0  0
    5.0055   -8.1761    4.7323 C   0  0  0  0  0  0  0  0  0  0  0  0
    5.2009   -8.1770    5.9484 O   0  0  0  0  0  0  0  0  0  0  0  0
    6.0844   -7.8106    3.7229 C   0  0  0  0  0  0  0  0  0  0  0  0
    7.0631   -6.7574    4.2810 C   0  0  0  0  0  0  0  0  0  0  0  0
    6.8842   -9.1172    3.4610 C   0  0  0  0  0  0  0  0  0  0  0  0
    5.2392   -7.3433    2.4764 C   0  0  2  0  0  0  0  0  0  0  0  0
    5.8768   -7.8208    1.3004 O   0  0  0  0  0  0  0  0  0  0  0  0
    5.0255   -5.7911    2.2575 C   0  0  2  0  0  0  0  0  0  0  0  0
    4.1032   -5.2410    3.3612 C   0  0  0  0  0  0  0  0  0  0  0  0
    4.4473   -4.3695    4.1572 O   0  0  0  0  0  0  0  0  0  0  0  0
    2.7030   -5.8681    3.3491 C   0  0  0  0  0  0  0  0  0  0  0  0
    2.7043   -6.9794    2.2510 C   0  0  1  0  0  0  0  0  0  0  0  0
    1.3092   -7.5822    2.0192 C   0  0  0  0  0  0  0  0  0  0  0  0
    0.6537   -6.7295    0.9240 C   0  0  0  0  0  0  0  0  0  0  0  0
    1.7859   -5.8543    0.3773 C   0  0  0  0  0  0  0  0  0  0  0  0
    3.0126   -6.3953    0.9411 N   0  0  0  0  0  0  0  0  0  0  0  0
    4.2508   -5.5690    0.9142 C   0  0  1  0  0  0  0  0  0  0  0  0
    4.0657   -4.0600    0.5640 C   0  0  0  0  0  0  0  0  0  0  0  0
    3.9325   -3.8122   -0.8751 N   0  0  0  0  0  0  0  0  0  0  0  0
    5.2249   -3.6909   -1.5451 C   0  0  0  0  0  0  0  0  0  0  0  0
    5.0880   -3.4257   -3.0587 C   0  0  0  0  0  0  0  0  0  0  0  0
    4.2822   -2.2732   -3.2840 O   0  0  0  0  0  0  0  0  0  0  0  0
    2.9883   -2.3974   -2.6952 C   0  0  0  0  0  0  0  0  0  0  0  0
    3.1227   -2.6389   -1.1772 C   0  0  0  0  0  0  0  0  0  0  0  0
    3.8214   -8.0324    2.6104 C   0  0  2  0  0  0  0  0  0  0  0  0
    1.5463  -11.0411    4.5077 H   0  0  0  0  0  0  0  0  0  0  0  0
    1.7365  -10.1673    3.0094 H   0  0  0  0  0  0  0  0  0  0  0  0
    0.7668   -9.4760    4.3361 H   0  0  0  0  0  0  0  0  0  0  0  0
    3.0700   -9.6552    5.6968 H   0  0  0  0  0  0  0  0  0  0  0  0
    7.7621   -6.4220    3.5160 H   0  0  0  0  0  0  0  0  0  0  0  0
    7.6560   -7.1634    5.1019 H   0  0  0  0  0  0  0  0  0  0  0  0
    6.5532   -5.8825    4.6795 H   0  0  0  0  0  0  0  0  0  0  0  0
    7.7040   -8.9571    2.7593 H   0  0  0  0  0  0  0  0  0  0  0  0
    6.2506   -9.9065    3.0517 H   0  0  0  0  0  0  0  0  0  0  0  0
    7.3283   -9.5079    4.3790 H   0  0  0  0  0  0  0  0  0  0  0  0
    5.3191   -7.6208    0.5680 H   0  0  0  0  0  0  0  0  0  0  0  0
    5.9735   -5.2513    2.2501 H   0  0  0  0  0  0  0  0  0  0  0  0
    2.4672   -6.2672    4.3396 H   0  0  0  0  0  0  0  0  0  0  0  0
    1.9677   -5.0917    3.1309 H   0  0  0  0  0  0  0  0  0  0  0  0
    1.4096   -8.5892    1.6155 H   0  0  0  0  0  0  0  0  0  0  0  0
    0.7075   -7.6285    2.9277 H   0  0  0  0  0  0  0  0  0  0  0  0
    0.2224   -7.3678    0.1557 H   0  0  0  0  0  0  0  0  0  0  0  0
   -0.1468   -6.1315    1.3497 H   0  0  0  0  0  0  0  0  0  0  0  0
    1.8161   -5.8522   -0.7107 H   0  0  0  0  0  0  0  0  0  0  0  0
    1.6151   -4.8360    0.7054 H   0  0  0  0  0  0  0  0  0  0  0  0
    4.8766   -5.9582    0.1129 H   0  0  0  0  0  0  0  0  0  0  0  0
    3.2184   -3.6462    1.1108 H   0  0  0  0  0  0  0  0  0  0  0  0
    4.9161   -3.4872    0.9379 H   0  0  0  0  0  0  0  0  0  0  0  0
    5.7874   -2.8710   -1.0981 H   0  0  0  0  0  0  0  0  0  0  0  0
    5.8128   -4.5936   -1.3910 H   0  0  0  0  0  0  0  0  0  0  0  0
    6.0706   -3.2571   -3.5003 H   0  0  0  0  0  0  0  0  0  0  0  0
    4.6487   -4.2849   -3.5681 H   0  0  0  0  0  0  0  0  0  0  0  0
    2.4228   -1.4837   -2.8798 H   0  0  0  0  0  0  0  0  0  0  0  0
    2.4425   -3.2134   -3.1749 H   0  0  0  0  0  0  0  0  0  0  0  0
    2.1273   -2.7769   -0.7604 H   0  0  0  0  0  0  0  0  0  0  0  0
    3.5460   -1.7534   -0.7023 H   0  0  0  0  0  0  0  0  0  0  0  0
    3.7618   -8.8954    1.9421 H   0  0  0  0  0  0  0  0  0  0  0  0
  1  2  1  0
  1 29  1  0
  1 30  1  0
  1 31  1  0
  2  3  2  3
  2 32  1  0
  3 28  1  0
  3  4  1  0
  4  5  2  0
  4  6  1  0
  6  7  1  0
  6  8  1  0
  6  9  1  0
  7 33  1  0
  7 34  1  0
  7 35  1  0
  8 36  1  0
  8 37  1  0
  8 38  1  0
  9 28  1  0
  9 10  1  6
  9 11  1  0
 10 39  1  0
 11 20  1  0
 11 12  1  0
 11 40  1  6
 12 13  2  0
 12 14  1  0
 14 15  1  0
 14 41  1  0
 14 42  1  0
 15 19  1  0
 15 16  1  6
 15 28  1  0
 16 17  1  0
 16 43  1  0
 16 44  1  0
 17 18  1  0
 17 45  1  0
 17 46  1  0
 18 19  1  0
 18 47  1  0
 18 48  1  0
 19 20  1  0
 20 21  1  0
 20 49  1  6
 21 22  1  0
 21 50  1  0
 21 51  1  0
 22 27  1  0
 22 23  1  0
 23 24  1  0
 23 52  1  0
 23 53  1  0
 24 25  1  0
 24 54  1  0
 24 55  1  0
 25 26  1  0
 26 27  1  0
 26 56  1  0
 26 57  1  0
 27 58  1  0
 27 59  1  0
 28 60  1  6
M  END
>  <i_m_ct_stereo_status>  (44) 
1

>  <s_m_source_file>  (44) 
/var/tmp/pbs.5076255.sched01/tmpuhafuy1n/0xc5aj8_e.sdf

>  <i_m_source_file_index>  (44) 
16

>  <i_lp_mmshare_version>  (44) 
48012

>  <i_f3d_flags>  (44) 
0

>  <s_epik_input>  (44) 
W0NIM11DMShbQ0gzXSlDKD1PKS9DKD1bQ0hdXFtDSDNdKVtDQEBIXTJbQ0BAXTEoW09IXSlbQ0BIXShDKD1PKVtDSDJdMylbQ0BASF0oTihbQ0BAXTIzNClbQ0gyXVtDSDJdW0NIMl00KVtDSDJdTjVbQ0gyXVtDSDJdT1tDSDJdW0NIMl01

>  <s_epik_cmdline>  (44) 
J2VwaWtfcHl0aG9uJywgJy1waHQnLCAnMi4wJywgJy1waCcsICc3LjAnLCAnLXRuJywgJzgnLCAnLW1hJywgJzIwMCcsICctaW1hZScsICc8aW5maWxlLm1hZT4nLCAnLW9tYWUnLCAnPG91dGZpbGUubWFlPic=

>  <r_lp_tautomer_probability>  (44) 
1

>  <r_epik_Ionization_Penalty>  (44) 
1.18266

>  <r_epik_Ionization_Penalty_Charging>  (44) 
0

>  <r_epik_Ionization_Penalty_Neutral>  (44) 
1.18266

>  <r_epik_State_Penalty>  (44) 
1.19942

>  <r_epik_Charging_Adjusted_Penalty>  (44) 
1.19942

>  <i_epik_Tot_Q>  (44) 
0

>  <i_epik_Tot_abs_Q>  (44) 
0

>  <s_lp_Force_Field>  (44) 
OPLS3e

>  <r_lp_Energy>  (44) 
36.5912

>  <b_lp_Chiralities_Consistent>  (44) 
1

>  <s_lp_Variant>  (44) 
7:0-4

>  <s_i_glide_gridfile>  (44) 
pfpi4k_grid

>  <i_i_glide_lignum>  (44) 
16

>  <i_i_glide_rotatable_bonds>  (44) 
3

>  <r_i_docking_score>  (44) 
-2.06624

>  <r_i_glide_ligand_efficiency>  (44) 
-0.0737942

>  <r_i_glide_ligand_efficiency_sa>  (44) 
-0.224083

>  <r_i_glide_ligand_efficiency_ln>  (44) 
-0.476949

>  <r_i_glide_gscore>  (44) 
-2.06624

>  <r_i_glide_lipo>  (44) 
-0.369225

>  <r_i_glide_hbond>  (44) 
0

>  <r_i_glide_metal>  (44) 
-0

>  <r_i_glide_rewards>  (44) 
-0.760224

>  <r_i_glide_evdw>  (44) 
-22.3676

>  <r_i_glide_ecoul>  (44) 
-0.51066

>  <r_i_glide_erotb>  (44) 
0.25819

>  <r_i_glide_esite>  (44) 
0

>  <r_i_glide_emodel>  (44) 
-24.2234

>  <r_i_glide_energy>  (44) 
-22.8783

>  <r_i_glide_einternal>  (44) 
3.19785

>  <r_i_glide_intrahb_reward>  (44) 
-0

>  <i_i_glide_confnum>  (44) 
4

>  <i_i_glide_posenum>  (44) 
22

>  <r_i_glide_eff_state_penalty>  (44) 
0

>  <ligand_id>  (44) 
7

>  <original_smiles>  (44) 
CC=C1C(=O)C(C)(C)C2(O)C3C(=O)CC4(CCCN4C3CN3CCOCC3)C12

>  <smiles>  (44) 
[H]OC12C3([H])C(=O)C([H])([H])C4(N(C([H])([H])C([H])([H])C4([H])[H])C3([H])C([H])([H])N3C([H])([H])C([H])([H])OC([H])([H])C3([H])[H])C1([H])C(=C([H])C([H])([H])[H])C(=O)C2(C([H])([H])[H])C([H])([H])[H]

$$$$
7:3:2
     RDKit          3D

 60 64  0  0  1  0  0  0  0  0999 V2000
    0.1371    5.1255    4.0711 C   0  0  0  0  0  0  0  0  0  0  0  0
    0.3586    4.5698    5.4591 C   0  0  0  0  0  0  0  0  0  0  0  0
    0.1793    3.3023    5.8924 C   0  0  0  0  0  0  0  0  0  0  0  0
    0.2903    3.0038    7.3208 C   0  0  0  0  0  0  0  0  0  0  0  0
    0.8899    3.6668    8.1637 O   0  0  0  0  0  0  0  0  0  0  0  0
   -0.5186    1.7577    7.6632 C   0  0  0  0  0  0  0  0  0  0  0  0
    0.0866    0.9899    8.8578 C   0  0  0  0  0  0  0  0  0  0  0  0
   -1.9255    2.2659    8.0830 C   0  0  0  0  0  0  0  0  0  0  0  0
   -0.5277    0.9718    6.2975 C   0  0  2  0  0  0  0  0  0  0  0  0
   -1.8064    0.3729    6.1431 O   0  0  0  0  0  0  0  0  0  0  0  0
    0.5199   -0.1935    6.1126 C   0  0  2  0  0  0  0  0  0  0  0  0
    1.9392    0.3935    6.0125 C   0  0  0  0  0  0  0  0  0  0  0  0
    2.8372    0.1200    6.8037 O   0  0  0  0  0  0  0  0  0  0  0  0
    2.1273    1.3189    4.8058 C   0  0  0  0  0  0  0  0  0  0  0  0
    0.7355    1.4585    4.1104 C   0  0  1  0  0  0  0  0  0  0  0  0
    0.8184    2.2434    2.7907 C   0  0  0  0  0  0  0  0  0  0  0  0
    1.0762    1.2053    1.6931 C   0  0  0  0  0  0  0  0  0  0  0  0
    0.8742   -0.1426    2.3736 C   0  0  0  0  0  0  0  0  0  0  0  0
    0.2658    0.1414    3.6660 N   0  0  0  0  0  0  0  0  0  0  0  0
    0.2718   -0.8981    4.7337 C   0  0  1  0  0  0  0  0  0  0  0  0
    1.1705   -2.1566    4.4890 C   0  0  0  0  0  0  0  0  0  0  0  0
    0.5944   -3.4119    4.9701 N   0  0  0  0  0  0  0  0  0  0  0  0
    0.9374   -3.6672    6.3658 C   0  0  0  0  0  0  0  0  0  0  0  0
    0.3727   -5.0063    6.8664 C   0  0  0  0  0  0  0  0  0  0  0  0
    0.8276   -6.0669    6.0319 O   0  0  0  0  0  0  0  0  0  0  0  0
    0.4676   -5.8799    4.6681 C   0  0  0  0  0  0  0  0  0  0  0  0
    1.0428   -4.5448    4.1625 C   0  0  0  0  0  0  0  0  0  0  0  0
   -0.2927    2.0425    5.1574 C   0  0  2  0  0  0  0  0  0  0  0  0
   -0.2439    6.1422    4.1390 H   0  0  0  0  0  0  0  0  0  0  0  0
   -0.5898    4.5460    3.5137 H   0  0  0  0  0  0  0  0  0  0  0  0
    1.0726    5.1687    3.5173 H   0  0  0  0  0  0  0  0  0  0  0  0
    0.6977    5.3127    6.1695 H   0  0  0  0  0  0  0  0  0  0  0  0
   -0.4272    0.0458    9.0278 H   0  0  0  0  0  0  0  0  0  0  0  0
    0.0100    1.5674    9.7806 H   0  0  0  0  0  0  0  0  0  0  0  0
    1.1462    0.7758    8.7233 H   0  0  0  0  0  0  0  0  0  0  0  0
   -2.5836    1.4475    8.3734 H   0  0  0  0  0  0  0  0  0  0  0  0
   -2.4176    2.8127    7.2755 H   0  0  0  0  0  0  0  0  0  0  0  0
   -1.8684    2.9409    8.9407 H   0  0  0  0  0  0  0  0  0  0  0  0
   -1.9114    0.1588    5.2254 H   0  0  0  0  0  0  0  0  0  0  0  0
    0.4611   -0.8886    6.9491 H   0  0  0  0  0  0  0  0  0  0  0  0
    2.5247    2.2819    5.1338 H   0  0  0  0  0  0  0  0  0  0  0  0
    2.8635    0.8770    4.1336 H   0  0  0  0  0  0  0  0  0  0  0  0
   -0.1502    2.6906    2.5694 H   0  0  0  0  0  0  0  0  0  0  0  0
    1.5734    3.0300    2.8008 H   0  0  0  0  0  0  0  0  0  0  0  0
    0.3753    1.3458    0.8723 H   0  0  0  0  0  0  0  0  0  0  0  0
    2.0894    1.2822    1.3037 H   0  0  0  0  0  0  0  0  0  0  0  0
    0.2371   -0.7944    1.7769 H   0  0  0  0  0  0  0  0  0  0  0  0
    1.8617   -0.5945    2.4765 H   0  0  0  0  0  0  0  0  0  0  0  0
   -0.7368   -1.3126    4.7424 H   0  0  0  0  0  0  0  0  0  0  0  0
    1.3176   -2.2898    3.4218 H   0  0  0  0  0  0  0  0  0  0  0  0
    2.1787   -2.0254    4.8856 H   0  0  0  0  0  0  0  0  0  0  0  0
    2.0237   -3.6715    6.4787 H   0  0  0  0  0  0  0  0  0  0  0  0
    0.5497   -2.8790    7.0045 H   0  0  0  0  0  0  0  0  0  0  0  0
    0.7053   -5.1866    7.8880 H   0  0  0  0  0  0  0  0  0  0  0  0
   -0.7193   -4.9797    6.8758 H   0  0  0  0  0  0  0  0  0  0  0  0
    0.8579   -6.7107    4.0795 H   0  0  0  0  0  0  0  0  0  0  0  0
   -0.6190   -5.8921    4.5666 H   0  0  0  0  0  0  0  0  0  0  0  0
    0.7372   -4.4024    3.1261 H   0  0  0  0  0  0  0  0  0  0  0  0
    2.1319   -4.5931    4.1584 H   0  0  0  0  0  0  0  0  0  0  0  0
   -1.2402    2.2849    4.6665 H   0  0  0  0  0  0  0  0  0  0  0  0
  1  2  1  0
  1 29  1  0
  1 30  1  0
  1 31  1  0
  2  3  2  3
  2 32  1  0
  3 28  1  0
  3  4  1  0
  4  5  2  0
  4  6  1  0
  6  7  1  0
  6  8  1  0
  6  9  1  0
  7 33  1  0
  7 34  1  0
  7 35  1  0
  8 36  1  0
  8 37  1  0
  8 38  1  0
  9 28  1  0
  9 10  1  6
  9 11  1  0
 10 39  1  0
 11 20  1  0
 11 12  1  0
 11 40  1  1
 12 13  2  0
 12 14  1  0
 14 15  1  0
 14 41  1  0
 14 42  1  0
 15 19  1  0
 15 16  1  6
 15 28  1  0
 16 17  1  0
 16 43  1  0
 16 44  1  0
 17 18  1  0
 17 45  1  0
 17 46  1  0
 18 19  1  0
 18 47  1  0
 18 48  1  0
 19 20  1  0
 20 21  1  0
 20 49  1  1
 21 22  1  0
 21 50  1  0
 21 51  1  0
 22 27  1  0
 22 23  1  0
 23 24  1  0
 23 52  1  0
 23 53  1  0
 24 25  1  0
 24 54  1  0
 24 55  1  0
 25 26  1  0
 26 27  1  0
 26 56  1  0
 26 57  1  0
 27 58  1  0
 27 59  1  0
 28 60  1  6
M  END
>  <i_m_ct_stereo_status>  (45) 
1

>  <s_m_source_file>  (45) 
/var/tmp/pbs.5076255.sched01/tmpuhafuy1n/0xc5aj8_e.sdf

>  <i_m_source_file_index>  (45) 
16

>  <i_lp_mmshare_version>  (45) 
48012

>  <i_f3d_flags>  (45) 
0

>  <s_epik_input>  (45) 
W0NIM11DMShbQ0gzXSlDKD1PKS9DKD1bQ0hdXFtDSDNdKVtDQEBIXTJbQ0BAXTEoW09IXSlbQ0BIXShDKD1PKVtDSDJdMylbQ0BASF0oTihbQ0BAXTIzNClbQ0gyXVtDSDJdW0NIMl00KVtDSDJdTjVbQ0gyXVtDSDJdT1tDSDJdW0NIMl01

>  <s_epik_cmdline>  (45) 
J2VwaWtfcHl0aG9uJywgJy1waHQnLCAnMi4wJywgJy1waCcsICc3LjAnLCAnLXRuJywgJzgnLCAnLW1hJywgJzIwMCcsICctaW1hZScsICc8aW5maWxlLm1hZT4nLCAnLW9tYWUnLCAnPG91dGZpbGUubWFlPic=

>  <r_lp_tautomer_probability>  (45) 
1

>  <r_epik_Ionization_Penalty>  (45) 
1.18266

>  <r_epik_Ionization_Penalty_Charging>  (45) 
0

>  <r_epik_Ionization_Penalty_Neutral>  (45) 
1.18266

>  <r_epik_State_Penalty>  (45) 
1.19942

>  <r_epik_Charging_Adjusted_Penalty>  (45) 
1.19942

>  <i_epik_Tot_Q>  (45) 
0

>  <i_epik_Tot_abs_Q>  (45) 
0

>  <s_lp_Force_Field>  (45) 
OPLS3e

>  <r_lp_Energy>  (45) 
36.5912

>  <b_lp_Chiralities_Consistent>  (45) 
1

>  <s_lp_Variant>  (45) 
7:0-4

>  <s_i_glide_gridfile>  (45) 
pfpi4k_grid

>  <i_i_glide_lignum>  (45) 
16

>  <i_i_glide_rotatable_bonds>  (45) 
3

>  <r_i_docking_score>  (45) 
-1.9468

>  <r_i_glide_ligand_efficiency>  (45) 
-0.0695286

>  <r_i_glide_ligand_efficiency_sa>  (45) 
-0.21113

>  <r_i_glide_ligand_efficiency_ln>  (45) 
-0.449379

>  <r_i_glide_gscore>  (45) 
-1.9468

>  <r_i_glide_lipo>  (45) 
0

>  <r_i_glide_hbond>  (45) 
-0.134253

>  <r_i_glide_metal>  (45) 
-0

>  <r_i_glide_rewards>  (45) 
-0.760224

>  <r_i_glide_evdw>  (45) 
-18.2386

>  <r_i_glide_ecoul>  (45) 
-2.65722

>  <r_i_glide_erotb>  (45) 
0.25819

>  <r_i_glide_esite>  (45) 
0

>  <r_i_glide_emodel>  (45) 
-20.9282

>  <r_i_glide_energy>  (45) 
-20.8958

>  <r_i_glide_einternal>  (45) 
5.26713

>  <r_i_glide_intrahb_reward>  (45) 
-0

>  <i_i_glide_confnum>  (45) 
4

>  <i_i_glide_posenum>  (45) 
2

>  <r_i_glide_eff_state_penalty>  (45) 
0

>  <ligand_id>  (45) 
7

>  <original_smiles>  (45) 
CC=C1C(=O)C(C)(C)C2(O)C3C(=O)CC4(CCCN4C3CN3CCOCC3)C12

>  <smiles>  (45) 
[H]OC12C3([H])C(=O)C([H])([H])C4(N(C([H])([H])C([H])([H])C4([H])[H])C3([H])C([H])([H])N3C([H])([H])C([H])([H])OC([H])([H])C3([H])[H])C1([H])C(=C([H])C([H])([H])[H])C(=O)C2(C([H])([H])[H])C([H])([H])[H]

$$$$
9:0:0
     RDKit          3D

 45 48  0  0  1  0  0  0  0  0999 V2000
    4.9250   -4.0829   -3.6287 C   0  0  0  0  0  0  0  0  0  0  0  0
    3.9584   -3.3825   -2.6612 C   0  0  2  0  0  0  0  0  0  0  0  0
    3.3440   -2.1356   -3.3173 C   0  0  0  0  0  0  0  0  0  0  0  0
    3.6380   -1.0459   -2.3372 C   0  0  0  0  0  0  0  0  0  0  0  0
    4.2196   -1.4768   -1.2386 C   0  0  0  0  0  0  0  0  0  0  0  0
    4.5257   -2.9811   -1.2280 C   0  0  2  0  0  0  0  0  0  0  0  0
    6.0350   -3.2372   -1.0852 C   0  0  1  0  0  0  0  0  0  0  0  0
    7.0704   -2.2851   -1.5922 C   0  0  0  0  0  0  0  0  0  0  0  0
    7.5453   -1.9998   -0.2482 O   0  0  0  0  0  0  0  0  0  0  0  0
    6.7141   -3.0931    0.2652 C   0  0  2  0  0  0  0  0  0  0  0  0
    7.6538   -4.2225    0.6834 C   0  0  0  0  0  0  0  0  0  0  0  0
    5.8258   -2.5899    1.4046 C   0  0  0  0  0  0  0  0  0  0  0  0
    4.3526   -3.1433    1.4050 C   0  0  2  0  0  0  0  0  0  0  0  0
    3.4593   -2.0344    2.0304 C   0  0  0  0  0  0  0  0  0  0  0  0
    4.2376   -4.4094    2.2725 C   0  0  0  0  0  0  0  0  0  0  0  0
    4.2522   -5.6001    1.3158 C   0  0  0  0  0  0  0  0  0  0  0  0
    4.2633   -5.0442    0.0063 O   0  0  0  0  0  0  0  0  0  0  0  0
    3.8364   -3.6772    0.0056 C   0  0  2  0  0  0  0  0  0  0  0  0
    2.2909   -3.7370   -0.0553 C   0  0  0  0  0  0  0  0  0  0  0  0
    5.8469   -3.5240   -3.8131 H   0  0  0  0  0  0  0  0  0  0  0  0
    4.4693   -4.2686   -4.6063 H   0  0  0  0  0  0  0  0  0  0  0  0
    5.1482   -5.0544   -3.2060 H   0  0  0  0  0  0  0  0  0  0  0  0
    3.1251   -4.0604   -2.5426 H   0  0  0  0  0  0  0  0  0  0  0  0
    3.7979   -1.8825   -4.2757 H   0  0  0  0  0  0  0  0  0  0  0  0
    2.2647   -2.2517   -3.4326 H   0  0  0  0  0  0  0  0  0  0  0  0
    3.4093   -0.0192   -2.5877 H   0  0  0  0  0  0  0  0  0  0  0  0
    4.5149   -0.8046   -0.4404 H   0  0  0  0  0  0  0  0  0  0  0  0
    6.2633   -4.2574   -1.3915 H   0  0  0  0  0  0  0  0  0  0  0  0
    7.8228   -2.7623   -2.2256 H   0  0  0  0  0  0  0  0  0  0  0  0
    6.5848   -1.4310   -2.0608 H   0  0  0  0  0  0  0  0  0  0  0  0
    7.1087   -5.1232    0.9710 H   0  0  0  0  0  0  0  0  0  0  0  0
    8.3202   -3.9393    1.4942 H   0  0  0  0  0  0  0  0  0  0  0  0
    8.2854   -4.5141   -0.1529 H   0  0  0  0  0  0  0  0  0  0  0  0
    6.3105   -2.7651    2.3699 H   0  0  0  0  0  0  0  0  0  0  0  0
    5.7722   -1.4985    1.3281 H   0  0  0  0  0  0  0  0  0  0  0  0
    2.4333   -2.3662    2.2137 H   0  0  0  0  0  0  0  0  0  0  0  0
    3.4010   -1.1472    1.3968 H   0  0  0  0  0  0  0  0  0  0  0  0
    3.8712   -1.7174    2.9937 H   0  0  0  0  0  0  0  0  0  0  0  0
    5.0122   -4.4841    3.0387 H   0  0  0  0  0  0  0  0  0  0  0  0
    3.2850   -4.4164    2.8059 H   0  0  0  0  0  0  0  0  0  0  0  0
    5.1305   -6.2324    1.4626 H   0  0  0  0  0  0  0  0  0  0  0  0
    3.3612   -6.2203    1.4463 H   0  0  0  0  0  0  0  0  0  0  0  0
    1.9016   -2.7278   -0.1675 H   0  0  0  0  0  0  0  0  0  0  0  0
    1.8682   -4.1602    0.8572 H   0  0  0  0  0  0  0  0  0  0  0  0
    1.9096   -4.3452   -0.8751 H   0  0  0  0  0  0  0  0  0  0  0  0
  1  2  1  0
  1 20  1  0
  1 21  1  0
  1 22  1  0
  2  6  1  0
  2  3  1  0
  2 23  1  1
  3  4  1  0
  3 24  1  0
  3 25  1  0
  4  5  2  0
  4 26  1  0
  6  5  1  1
  5 27  1  0
  6 18  1  0
  6  7  1  0
  7 10  1  0
  7  8  1  0
  7 28  1  6
  8  9  1  0
  8 29  1  0
  8 30  1  0
  9 10  1  0
 10 11  1  1
 10 12  1  0
 11 31  1  0
 11 32  1  0
 11 33  1  0
 12 13  1  0
 12 34  1  0
 12 35  1  0
 13 18  1  0
 13 14  1  1
 13 15  1  0
 14 36  1  0
 14 37  1  0
 14 38  1  0
 15 16  1  0
 15 39  1  0
 15 40  1  0
 16 17  1  0
 16 41  1  0
 16 42  1  0
 17 18  1  0
 18 19  1  6
 19 43  1  0
 19 44  1  0
 19 45  1  0
M  END
>  <i_m_ct_stereo_status>  (46) 
1

>  <s_m_source_file>  (46) 
/var/tmp/pbs.5076255.sched01/tmpuhafuy1n/0xc5aj8_e.sdf

>  <i_m_source_file_index>  (46) 
18

>  <i_lp_mmshare_version>  (46) 
48012

>  <i_f3d_flags>  (46) 
0

>  <s_epik_input>  (46) 
W0NIXTE9W0NIXVtDSDJdW0NAQEhdKFtDSDNdKVtDQEBdMTJbQ0BASF0zW0NAQF0oW0NIM10pKE9bQ0gyXTMpW0NIMl1bQ0BAXTQoW0NIM10pW0NAXTIoW0NIM10pT1tDSDJdW0NIMl00

>  <s_epik_cmdline>  (46) 
J2VwaWtfcHl0aG9uJywgJy1waHQnLCAnMi4wJywgJy1waCcsICc3LjAnLCAnLXRuJywgJzgnLCAnLW1hJywgJzIwMCcsICctaW1hZScsICc8aW5maWxlLm1hZT4nLCAnLW9tYWUnLCAnPG91dGZpbGUubWFlPic=

>  <r_lp_tautomer_probability>  (46) 
1

>  <r_epik_Ionization_Penalty>  (46) 
5.48765e-11

>  <r_epik_Ionization_Penalty_Charging>  (46) 
0

>  <r_epik_Ionization_Penalty_Neutral>  (46) 
5.48765e-11

>  <r_epik_State_Penalty>  (46) 
-0

>  <r_epik_Charging_Adjusted_Penalty>  (46) 
0

>  <i_epik_Tot_Q>  (46) 
0

>  <i_epik_Tot_abs_Q>  (46) 
0

>  <s_lp_Force_Field>  (46) 
OPLS3e

>  <r_lp_Energy>  (46) 
25.9254

>  <b_lp_Chiralities_Consistent>  (46) 
1

>  <s_lp_Variant>  (46) 
9:0-1

>  <s_i_glide_gridfile>  (46) 
pfpi4k_grid

>  <i_i_glide_lignum>  (46) 
18

>  <i_i_glide_rotatable_bonds>  (46) 
0

>  <r_i_docking_score>  (46) 
-3.34799

>  <r_i_glide_ligand_efficiency>  (46) 
-0.17621

>  <r_i_glide_ligand_efficiency_sa>  (46) 
-0.470199

>  <r_i_glide_ligand_efficiency_ln>  (46) 
-0.848787

>  <r_i_glide_gscore>  (46) 
-3.34799

>  <r_i_glide_lipo>  (46) 
-0.647567

>  <r_i_glide_hbond>  (46) 
-0.150414

>  <r_i_glide_metal>  (46) 
-0

>  <r_i_glide_rewards>  (46) 
-1.62009

>  <r_i_glide_evdw>  (46) 
-16.2739

>  <r_i_glide_ecoul>  (46) 
-0.774814

>  <r_i_glide_erotb>  (46) 
0

>  <r_i_glide_esite>  (46) 
0

>  <r_i_glide_emodel>  (46) 
-19.1051

>  <r_i_glide_energy>  (46) 
-17.0488

>  <r_i_glide_einternal>  (46) 
0

>  <r_i_glide_intrahb_reward>  (46) 
-0

>  <i_i_glide_confnum>  (46) 
2

>  <i_i_glide_posenum>  (46) 
7

>  <r_i_glide_eff_state_penalty>  (46) 
0

>  <ligand_id>  (46) 
9

>  <original_smiles>  (46) 
CC1CC=CC12C1COC1(C)CC1(C)CCOC12C

>  <smiles>  (46) 
[H]C1=C([H])C2(C([H])(C([H])([H])[H])C1([H])[H])C1([H])C([H])([H])OC1(C([H])([H])[H])C([H])([H])C1(C([H])([H])[H])C([H])([H])C([H])([H])OC21C([H])([H])[H]

$$$$
9:0:1
     RDKit          3D

 45 48  0  0  1  0  0  0  0  0999 V2000
    2.8087   -3.5296   -2.3853 C   0  0  0  0  0  0  0  0  0  0  0  0
    3.0563   -2.2524   -1.6274 C   0  0  2  0  0  0  0  0  0  0  0  0
    3.0158   -1.0616   -2.6034 C   0  0  0  0  0  0  0  0  0  0  0  0
    4.3144   -0.4024   -2.3437 C   0  0  0  0  0  0  0  0  0  0  0  0
    4.9918   -0.9494   -1.3291 C   0  0  0  0  0  0  0  0  0  0  0  0
    4.3567   -2.1878   -0.7443 C   0  0  2  0  0  0  0  0  0  0  0  0
    5.2793   -3.3972   -0.9742 C   0  0  1  0  0  0  0  0  0  0  0  0
    6.2953   -3.3779   -2.1050 C   0  0  0  0  0  0  0  0  0  0  0  0
    7.4086   -3.4385   -1.1801 O   0  0  0  0  0  0  0  0  0  0  0  0
    6.4805   -3.5853   -0.0631 C   0  0  2  0  0  0  0  0  0  0  0  0
    6.6981   -4.9763    0.5441 C   0  0  0  0  0  0  0  0  0  0  0  0
    6.7287   -2.4790    0.9498 C   0  0  0  0  0  0  0  0  0  0  0  0
    5.4500   -1.8451    1.6180 C   0  0  2  0  0  0  0  0  0  0  0  0
    5.7802   -0.3644    1.9232 C   0  0  0  0  0  0  0  0  0  0  0  0
    5.1052   -2.5330    2.9424 C   0  0  0  0  0  0  0  0  0  0  0  0
    3.9851   -3.5143    2.6384 C   0  0  0  0  0  0  0  0  0  0  0  0
    3.6380   -3.2972    1.2778 O   0  0  0  0  0  0  0  0  0  0  0  0
    4.1131   -2.0353    0.8066 C   0  0  2  0  0  0  0  0  0  0  0  0
    3.0371   -1.0040    1.2149 C   0  0  0  0  0  0  0  0  0  0  0  0
    3.6326   -3.8657   -2.9982 H   0  0  0  0  0  0  0  0  0  0  0  0
    1.8950   -3.5198   -2.9826 H   0  0  0  0  0  0  0  0  0  0  0  0
    2.6467   -4.2523   -1.5780 H   0  0  0  0  0  0  0  0  0  0  0  0
    2.2243   -2.2318   -0.9517 H   0  0  0  0  0  0  0  0  0  0  0  0
    2.9511   -1.3632   -3.6442 H   0  0  0  0  0  0  0  0  0  0  0  0
    2.2179   -0.3805   -2.3457 H   0  0  0  0  0  0  0  0  0  0  0  0
    4.6191    0.4903   -2.8677 H   0  0  0  0  0  0  0  0  0  0  0  0
    5.9340   -0.5664   -0.9749 H   0  0  0  0  0  0  0  0  0  0  0  0
    4.7588   -4.3654   -0.9111 H   0  0  0  0  0  0  0  0  0  0  0  0
    6.1801   -4.2355   -2.7350 H   0  0  0  0  0  0  0  0  0  0  0  0
    6.2970   -2.4877   -2.7251 H   0  0  0  0  0  0  0  0  0  0  0  0
    5.9965   -5.1857    1.3562 H   0  0  0  0  0  0  0  0  0  0  0  0
    7.7085   -5.1221    0.9252 H   0  0  0  0  0  0  0  0  0  0  0  0
    6.5194   -5.7510   -0.1886 H   0  0  0  0  0  0  0  0  0  0  0  0
    7.4139   -2.8613    1.6958 H   0  0  0  0  0  0  0  0  0  0  0  0
    7.2882   -1.6795    0.4604 H   0  0  0  0  0  0  0  0  0  0  0  0
    5.0004    0.1350    2.5018 H   0  0  0  0  0  0  0  0  0  0  0  0
    5.9381    0.2087    1.0084 H   0  0  0  0  0  0  0  0  0  0  0  0
    6.6874   -0.3123    2.5273 H   0  0  0  0  0  0  0  0  0  0  0  0
    5.9517   -3.0262    3.4128 H   0  0  0  0  0  0  0  0  0  0  0  0
    4.7457   -1.8026    3.6691 H   0  0  0  0  0  0  0  0  0  0  0  0
    4.3084   -4.5441    2.7983 H   0  0  0  0  0  0  0  0  0  0  0  0
    3.1284   -3.3264    3.2869 H   0  0  0  0  0  0  0  0  0  0  0  0
    3.2344   -0.0226    0.7882 H   0  0  0  0  0  0  0  0  0  0  0  0
    2.9747   -0.8812    2.2962 H   0  0  0  0  0  0  0  0  0  0  0  0
    2.0431   -1.3073    0.9114 H   0  0  0  0  0  0  0  0  0  0  0  0
  1  2  1  0
  1 20  1  0
  1 21  1  0
  1 22  1  0
  2  6  1  0
  2  3  1  0
  2 23  1  1
  3  4  1  0
  3 24  1  0
  3 25  1  0
  4  5  2  0
  4 26  1  0
  6  5  1  6
  5 27  1  0
  6 18  1  0
  6  7  1  0
  7 10  1  0
  7  8  1  0
  7 28  1  6
  8  9  1  0
  8 29  1  0
  8 30  1  0
  9 10  1  0
 10 11  1  1
 10 12  1  0
 11 31  1  0
 11 32  1  0
 11 33  1  0
 12 13  1  0
 12 34  1  0
 12 35  1  0
 13 18  1  0
 13 14  1  1
 13 15  1  0
 14 36  1  0
 14 37  1  0
 14 38  1  0
 15 16  1  0
 15 39  1  0
 15 40  1  0
 16 17  1  0
 16 41  1  0
 16 42  1  0
 17 18  1  0
 18 19  1  6
 19 43  1  0
 19 44  1  0
 19 45  1  0
M  END
>  <i_m_ct_stereo_status>  (47) 
1

>  <s_m_source_file>  (47) 
/var/tmp/pbs.5076255.sched01/tmpuhafuy1n/0xc5aj8_e.sdf

>  <i_m_source_file_index>  (47) 
18

>  <i_lp_mmshare_version>  (47) 
48012

>  <i_f3d_flags>  (47) 
0

>  <s_epik_input>  (47) 
W0NIXTE9W0NIXVtDSDJdW0NAQEhdKFtDSDNdKVtDQEBdMTJbQ0BASF0zW0NAQF0oW0NIM10pKE9bQ0gyXTMpW0NIMl1bQ0BAXTQoW0NIM10pW0NAXTIoW0NIM10pT1tDSDJdW0NIMl00

>  <s_epik_cmdline>  (47) 
J2VwaWtfcHl0aG9uJywgJy1waHQnLCAnMi4wJywgJy1waCcsICc3LjAnLCAnLXRuJywgJzgnLCAnLW1hJywgJzIwMCcsICctaW1hZScsICc8aW5maWxlLm1hZT4nLCAnLW9tYWUnLCAnPG91dGZpbGUubWFlPic=

>  <r_lp_tautomer_probability>  (47) 
1

>  <r_epik_Ionization_Penalty>  (47) 
5.48765e-11

>  <r_epik_Ionization_Penalty_Charging>  (47) 
0

>  <r_epik_Ionization_Penalty_Neutral>  (47) 
5.48765e-11

>  <r_epik_State_Penalty>  (47) 
-0

>  <r_epik_Charging_Adjusted_Penalty>  (47) 
0

>  <i_epik_Tot_Q>  (47) 
0

>  <i_epik_Tot_abs_Q>  (47) 
0

>  <s_lp_Force_Field>  (47) 
OPLS3e

>  <r_lp_Energy>  (47) 
25.9254

>  <b_lp_Chiralities_Consistent>  (47) 
1

>  <s_lp_Variant>  (47) 
9:0-1

>  <s_i_glide_gridfile>  (47) 
pfpi4k_grid

>  <i_i_glide_lignum>  (47) 
18

>  <i_i_glide_rotatable_bonds>  (47) 
0

>  <r_i_docking_score>  (47) 
-3.08117

>  <r_i_glide_ligand_efficiency>  (47) 
-0.162167

>  <r_i_glide_ligand_efficiency_sa>  (47) 
-0.432727

>  <r_i_glide_ligand_efficiency_ln>  (47) 
-0.781143

>  <r_i_glide_gscore>  (47) 
-3.08117

>  <r_i_glide_lipo>  (47) 
-0.834687

>  <r_i_glide_hbond>  (47) 
0

>  <r_i_glide_metal>  (47) 
-0

>  <r_i_glide_rewards>  (47) 
-1.62009

>  <r_i_glide_evdw>  (47) 
-10.344

>  <r_i_glide_ecoul>  (47) 
-0.727975

>  <r_i_glide_erotb>  (47) 
0

>  <r_i_glide_esite>  (47) 
0

>  <r_i_glide_emodel>  (47) 
-12.6452

>  <r_i_glide_energy>  (47) 
-11.072

>  <r_i_glide_einternal>  (47) 
0

>  <r_i_glide_intrahb_reward>  (47) 
-0

>  <i_i_glide_confnum>  (47) 
2

>  <i_i_glide_posenum>  (47) 
5

>  <r_i_glide_eff_state_penalty>  (47) 
0

>  <ligand_id>  (47) 
9

>  <original_smiles>  (47) 
CC1CC=CC12C1COC1(C)CC1(C)CCOC12C

>  <smiles>  (47) 
[H]C1=C([H])C2(C([H])(C([H])([H])[H])C1([H])[H])C1([H])C([H])([H])OC1(C([H])([H])[H])C([H])([H])C1(C([H])([H])[H])C([H])([H])C([H])([H])OC21C([H])([H])[H]

$$$$
10:0:0
     RDKit          3D

 23 24  0  0  1  0  0  0  0  0999 V2000
   -8.3164   -4.6908   -5.8356 C   0  0  0  0  0  0  0  0  0  0  0  0
   -6.9966   -4.4732   -5.6380 C   0  0  0  0  0  0  0  0  0  0  0  0
   -6.1841   -4.9593   -4.4306 C   0  0  0  0  0  0  0  0  0  0  0  0
   -5.1068   -5.8773   -4.7397 O   0  0  0  0  0  0  0  0  0  0  0  0
   -5.4078   -7.1287   -5.2380 C   0  0  0  0  0  0  0  0  0  0  0  0
   -6.6578   -7.4008   -5.8256 C   0  0  0  0  0  0  0  0  0  0  0  0
   -6.9687   -8.6209   -6.3950 C   0  0  0  0  0  0  0  0  0  0  0  0
   -6.0350   -9.6428   -6.3359 C   0  0  0  0  0  0  0  0  0  0  0  0
   -6.2011  -10.9242   -6.8122 O   0  0  0  0  0  0  0  0  0  0  0  0
   -5.0468  -11.5864   -6.5224 C   0  0  0  0  0  0  0  0  0  0  0  0
   -4.1385  -10.7739   -5.8787 C   0  0  0  0  0  0  0  0  0  0  0  0
   -4.7637   -9.4781   -5.7295 C   0  0  0  0  0  0  0  0  0  0  0  0
   -4.4450   -8.1863   -5.1837 C   0  0  0  0  0  0  0  0  0  0  0  0
   -8.9110   -5.2049   -5.0915 H   0  0  0  0  0  0  0  0  0  0  0  0
   -8.8485   -4.3839   -6.7295 H   0  0  0  0  0  0  0  0  0  0  0  0
   -6.4611   -3.9011   -6.3759 H   0  0  0  0  0  0  0  0  0  0  0  0
   -5.7989   -4.0663   -3.9248 H   0  0  0  0  0  0  0  0  0  0  0  0
   -6.8432   -5.4294   -3.6907 H   0  0  0  0  0  0  0  0  0  0  0  0
   -7.4859   -6.8011   -5.9307 H   0  0  0  0  0  0  0  0  0  0  0  0
   -7.9267   -8.7398   -6.8487 H   0  0  0  0  0  0  0  0  0  0  0  0
   -5.0732  -12.6022   -6.8459 H   0  0  0  0  0  0  0  0  0  0  0  0
   -3.1593  -11.0269   -5.5276 H   0  0  0  0  0  0  0  0  0  0  0  0
   -3.4499   -8.0385   -4.7355 H   0  0  0  0  0  0  0  0  0  0  0  0
  1  2  2  0
  1 14  1  0
  1 15  1  0
  2  3  1  0
  2 16  1  0
  3  4  1  0
  3 17  1  0
  3 18  1  0
  4  5  1  0
  5 13  2  0
  5  6  1  0
  6  7  2  0
  6 19  1  0
  7  8  1  0
  7 20  1  0
  8 12  2  0
  8  9  1  0
  9 10  1  0
 10 11  2  0
 10 21  1  0
 11 12  1  0
 11 22  1  0
 12 13  1  0
 13 23  1  0
M  END
>  <i_m_ct_stereo_status>  (48) 
1

>  <s_m_source_file>  (48) 
/var/tmp/pbs.5076255.sched01/tmpuhafuy1n/0xc5aj8_e.sdf

>  <i_m_source_file_index>  (48) 
19

>  <i_lp_mmshare_version>  (48) 
48012

>  <i_f3d_flags>  (48) 
0

>  <s_epik_input>  (48) 
W0NIMl09W0NIXVtDSDJdT2MoW2NIXVtjSF0xKVtjSF1jKGMxMilbY0hdW2NIXW8y

>  <s_epik_cmdline>  (48) 
J2VwaWtfcHl0aG9uJywgJy1waHQnLCAnMi4wJywgJy1waCcsICc3LjAnLCAnLXRuJywgJzgnLCAnLW1hJywgJzIwMCcsICctaW1hZScsICc8aW5maWxlLm1hZT4nLCAnLW9tYWUnLCAnPG91dGZpbGUubWFlPic=

>  <r_lp_tautomer_probability>  (48) 
1

>  <r_epik_Ionization_Penalty>  (48) 
0

>  <r_epik_Ionization_Penalty_Charging>  (48) 
0

>  <r_epik_Ionization_Penalty_Neutral>  (48) 
0

>  <r_epik_State_Penalty>  (48) 
-0

>  <r_epik_Charging_Adjusted_Penalty>  (48) 
0

>  <i_epik_Tot_Q>  (48) 
0

>  <i_epik_Tot_abs_Q>  (48) 
0

>  <s_lp_Force_Field>  (48) 
OPLS3e

>  <r_lp_Energy>  (48) 
12.5702

>  <b_lp_Chiralities_Consistent>  (48) 
1

>  <s_lp_Variant>  (48) 
10:0-1

>  <s_i_glide_gridfile>  (48) 
pfpi4k_grid

>  <i_i_glide_lignum>  (48) 
19

>  <i_i_glide_rotatable_bonds>  (48) 
3

>  <r_i_docking_score>  (48) 
-5.83734

>  <r_i_glide_ligand_efficiency>  (48) 
-0.449026

>  <r_i_glide_ligand_efficiency_sa>  (48) 
-1.05581

>  <r_i_glide_ligand_efficiency_ln>  (48) 
-1.63743

>  <r_i_glide_gscore>  (48) 
-5.83734

>  <r_i_glide_lipo>  (48) 
-2.35147

>  <r_i_glide_hbond>  (48) 
-0.32

>  <r_i_glide_metal>  (48) 
-0

>  <r_i_glide_rewards>  (48) 
-2.58806

>  <r_i_glide_evdw>  (48) 
-24.5984

>  <r_i_glide_ecoul>  (48) 
-2.49181

>  <r_i_glide_erotb>  (48) 
1.02588

>  <r_i_glide_esite>  (48) 
0

>  <r_i_glide_emodel>  (48) 
-32.2018

>  <r_i_glide_energy>  (48) 
-27.0902

>  <r_i_glide_einternal>  (48) 
4.97873

>  <r_i_glide_intrahb_reward>  (48) 
-0

>  <i_i_glide_confnum>  (48) 
3

>  <i_i_glide_posenum>  (48) 
9

>  <r_i_glide_eff_state_penalty>  (48) 
0

>  <ligand_id>  (48) 
10

>  <original_smiles>  (48) 
C=CCOc1ccc2occc2c1

>  <smiles>  (48) 
[H]C([H])=C([H])C([H])([H])Oc1c([H])c([H])c2oc([H])c([H])c2c1[H]

$$$$
10:0:1
     RDKit          3D

 23 24  0  0  1  0  0  0  0  0999 V2000
   -8.0330   -4.3491   -5.1224 C   0  0  0  0  0  0  0  0  0  0  0  0
   -6.9738   -4.8303   -4.4507 C   0  0  0  0  0  0  0  0  0  0  0  0
   -6.1854   -6.0709   -4.8251 C   0  0  0  0  0  0  0  0  0  0  0  0
   -6.6605   -6.6383   -6.0374 O   0  0  0  0  0  0  0  0  0  0  0  0
   -6.2469   -7.9003   -6.3985 C   0  0  0  0  0  0  0  0  0  0  0  0
   -6.7875   -8.4089   -7.5989 C   0  0  0  0  0  0  0  0  0  0  0  0
   -6.4452   -9.6967   -8.0519 C   0  0  0  0  0  0  0  0  0  0  0  0
   -5.5504  -10.4601   -7.2885 C   0  0  0  0  0  0  0  0  0  0  0  0
   -5.0861  -11.7299   -7.5644 O   0  0  0  0  0  0  0  0  0  0  0  0
   -4.2414  -12.0679   -6.5440 C   0  0  0  0  0  0  0  0  0  0  0  0
   -4.1279  -11.0604   -5.6225 C   0  0  0  0  0  0  0  0  0  0  0  0
   -4.9748   -9.9976   -6.0810 C   0  0  0  0  0  0  0  0  0  0  0  0
   -5.3373   -8.6983   -5.6485 C   0  0  0  0  0  0  0  0  0  0  0  0
   -8.4097   -4.8260   -6.0163 H   0  0  0  0  0  0  0  0  0  0  0  0
   -8.5446   -3.4615   -4.7779 H   0  0  0  0  0  0  0  0  0  0  0  0
   -6.6437   -4.3120   -3.5615 H   0  0  0  0  0  0  0  0  0  0  0  0
   -5.1323   -5.8015   -4.9307 H   0  0  0  0  0  0  0  0  0  0  0  0
   -6.2801   -6.7708   -3.9945 H   0  0  0  0  0  0  0  0  0  0  0  0
   -7.4731   -7.8054   -8.1732 H   0  0  0  0  0  0  0  0  0  0  0  0
   -6.8540  -10.0900   -8.9684 H   0  0  0  0  0  0  0  0  0  0  0  0
   -3.7988  -13.0522   -6.6056 H   0  0  0  0  0  0  0  0  0  0  0  0
   -3.5305  -11.0657   -4.7262 H   0  0  0  0  0  0  0  0  0  0  0  0
   -4.8977   -8.3487   -4.7287 H   0  0  0  0  0  0  0  0  0  0  0  0
  1  2  2  0
  1 14  1  0
  1 15  1  0
  2  3  1  0
  2 16  1  0
  3  4  1  0
  3 17  1  0
  3 18  1  0
  4  5  1  0
  5 13  2  0
  5  6  1  0
  6  7  2  0
  6 19  1  0
  7  8  1  0
  7 20  1  0
  8 12  2  0
  8  9  1  0
  9 10  1  0
 10 11  2  0
 10 21  1  0
 11 12  1  0
 11 22  1  0
 12 13  1  0
 13 23  1  0
M  END
>  <i_m_ct_stereo_status>  (49) 
1

>  <s_m_source_file>  (49) 
/var/tmp/pbs.5076255.sched01/tmpuhafuy1n/0xc5aj8_e.sdf

>  <i_m_source_file_index>  (49) 
19

>  <i_lp_mmshare_version>  (49) 
48012

>  <i_f3d_flags>  (49) 
0

>  <s_epik_input>  (49) 
W0NIMl09W0NIXVtDSDJdT2MoW2NIXVtjSF0xKVtjSF1jKGMxMilbY0hdW2NIXW8y

>  <s_epik_cmdline>  (49) 
J2VwaWtfcHl0aG9uJywgJy1waHQnLCAnMi4wJywgJy1waCcsICc3LjAnLCAnLXRuJywgJzgnLCAnLW1hJywgJzIwMCcsICctaW1hZScsICc8aW5maWxlLm1hZT4nLCAnLW9tYWUnLCAnPG91dGZpbGUubWFlPic=

>  <r_lp_tautomer_probability>  (49) 
1

>  <r_epik_Ionization_Penalty>  (49) 
0

>  <r_epik_Ionization_Penalty_Charging>  (49) 
0

>  <r_epik_Ionization_Penalty_Neutral>  (49) 
0

>  <r_epik_State_Penalty>  (49) 
-0

>  <r_epik_Charging_Adjusted_Penalty>  (49) 
0

>  <i_epik_Tot_Q>  (49) 
0

>  <i_epik_Tot_abs_Q>  (49) 
0

>  <s_lp_Force_Field>  (49) 
OPLS3e

>  <r_lp_Energy>  (49) 
12.5702

>  <b_lp_Chiralities_Consistent>  (49) 
1

>  <s_lp_Variant>  (49) 
10:0-1

>  <s_i_glide_gridfile>  (49) 
pfpi4k_grid

>  <i_i_glide_lignum>  (49) 
19

>  <i_i_glide_rotatable_bonds>  (49) 
3

>  <r_i_docking_score>  (49) 
-4.86706

>  <r_i_glide_ligand_efficiency>  (49) 
-0.374389

>  <r_i_glide_ligand_efficiency_sa>  (49) 
-0.880314

>  <r_i_glide_ligand_efficiency_ln>  (49) 
-1.36525

>  <r_i_glide_gscore>  (49) 
-4.86706

>  <r_i_glide_lipo>  (49) 
-2.07391

>  <r_i_glide_hbond>  (49) 
0

>  <r_i_glide_metal>  (49) 
-0

>  <r_i_glide_rewards>  (49) 
-2.46306

>  <r_i_glide_evdw>  (49) 
-23.2981

>  <r_i_glide_ecoul>  (49) 
-1.27378

>  <r_i_glide_erotb>  (49) 
1.02588

>  <r_i_glide_esite>  (49) 
0

>  <r_i_glide_emodel>  (49) 
-31.6446

>  <r_i_glide_energy>  (49) 
-24.5719

>  <r_i_glide_einternal>  (49) 
1.6997

>  <r_i_glide_intrahb_reward>  (49) 
-0

>  <i_i_glide_confnum>  (49) 
2

>  <i_i_glide_posenum>  (49) 
8

>  <r_i_glide_eff_state_penalty>  (49) 
0

>  <ligand_id>  (49) 
10

>  <original_smiles>  (49) 
C=CCOc1ccc2occc2c1

>  <smiles>  (49) 
[H]C([H])=C([H])C([H])([H])Oc1c([H])c([H])c2oc([H])c([H])c2c1[H]

$$$$
10:0:2
     RDKit          3D

 23 24  0  0  1  0  0  0  0  0999 V2000
   -6.1363   -4.2662   -4.7211 C   0  0  0  0  0  0  0  0  0  0  0  0
   -6.2139   -5.5624   -4.3847 C   0  0  0  0  0  0  0  0  0  0  0  0
   -6.3523   -6.7117   -5.3599 C   0  0  0  0  0  0  0  0  0  0  0  0
   -5.2468   -7.5992   -5.2383 O   0  0  0  0  0  0  0  0  0  0  0  0
   -5.3669   -8.8944   -5.7026 C   0  0  0  0  0  0  0  0  0  0  0  0
   -4.2440   -9.7274   -5.5201 C   0  0  0  0  0  0  0  0  0  0  0  0
   -4.2693  -11.0754   -5.9235 C   0  0  0  0  0  0  0  0  0  0  0  0
   -5.4366  -11.5727   -6.5182 C   0  0  0  0  0  0  0  0  0  0  0  0
   -5.6641  -12.8526   -6.9774 O   0  0  0  0  0  0  0  0  0  0  0  0
   -6.9362  -12.8700   -7.4789 C   0  0  0  0  0  0  0  0  0  0  0  0
   -7.5518  -11.6483   -7.3550 C   0  0  0  0  0  0  0  0  0  0  0  0
   -6.5898  -10.7808   -6.7337 C   0  0  0  0  0  0  0  0  0  0  0  0
   -6.5321   -9.4284   -6.3206 C   0  0  0  0  0  0  0  0  0  0  0  0
   -6.1628   -3.9475   -5.7535 H   0  0  0  0  0  0  0  0  0  0  0  0
   -6.0432   -3.5011   -3.9602 H   0  0  0  0  0  0  0  0  0  0  0  0
   -6.1862   -5.8375   -3.3403 H   0  0  0  0  0  0  0  0  0  0  0  0
   -7.2957   -7.1934   -5.1096 H   0  0  0  0  0  0  0  0  0  0  0  0
   -6.4162   -6.3393   -6.3829 H   0  0  0  0  0  0  0  0  0  0  0  0
   -3.3597   -9.3327   -5.0424 H   0  0  0  0  0  0  0  0  0  0  0  0
   -3.4156  -11.7165   -5.7624 H   0  0  0  0  0  0  0  0  0  0  0  0
   -7.2566  -13.8176   -7.8911 H   0  0  0  0  0  0  0  0  0  0  0  0
   -8.5517  -11.3816   -7.6641 H   0  0  0  0  0  0  0  0  0  0  0  0
   -7.4129   -8.8301   -6.4837 H   0  0  0  0  0  0  0  0  0  0  0  0
  1  2  2  0
  1 14  1  0
  1 15  1  0
  2  3  1  0
  2 16  1  0
  3  4  1  0
  3 17  1  0
  3 18  1  0
  4  5  1  0
  5 13  2  0
  5  6  1  0
  6  7  2  0
  6 19  1  0
  7  8  1  0
  7 20  1  0
  8 12  2  0
  8  9  1  0
  9 10  1  0
 10 11  2  0
 10 21  1  0
 11 12  1  0
 11 22  1  0
 12 13  1  0
 13 23  1  0
M  END
>  <i_m_ct_stereo_status>  (50) 
1

>  <s_m_source_file>  (50) 
/var/tmp/pbs.5076255.sched01/tmpuhafuy1n/0xc5aj8_e.sdf

>  <i_m_source_file_index>  (50) 
19

>  <i_lp_mmshare_version>  (50) 
48012

>  <i_f3d_flags>  (50) 
0

>  <s_epik_input>  (50) 
W0NIMl09W0NIXVtDSDJdT2MoW2NIXVtjSF0xKVtjSF1jKGMxMilbY0hdW2NIXW8y

>  <s_epik_cmdline>  (50) 
J2VwaWtfcHl0aG9uJywgJy1waHQnLCAnMi4wJywgJy1waCcsICc3LjAnLCAnLXRuJywgJzgnLCAnLW1hJywgJzIwMCcsICctaW1hZScsICc8aW5maWxlLm1hZT4nLCAnLW9tYWUnLCAnPG91dGZpbGUubWFlPic=

>  <r_lp_tautomer_probability>  (50) 
1

>  <r_epik_Ionization_Penalty>  (50) 
0

>  <r_epik_Ionization_Penalty_Charging>  (50) 
0

>  <r_epik_Ionization_Penalty_Neutral>  (50) 
0

>  <r_epik_State_Penalty>  (50) 
-0

>  <r_epik_Charging_Adjusted_Penalty>  (50) 
0

>  <i_epik_Tot_Q>  (50) 
0

>  <i_epik_Tot_abs_Q>  (50) 
0

>  <s_lp_Force_Field>  (50) 
OPLS3e

>  <r_lp_Energy>  (50) 
12.5702

>  <b_lp_Chiralities_Consistent>  (50) 
1

>  <s_lp_Variant>  (50) 
10:0-1

>  <s_i_glide_gridfile>  (50) 
pfpi4k_grid

>  <i_i_glide_lignum>  (50) 
19

>  <i_i_glide_rotatable_bonds>  (50) 
3

>  <r_i_docking_score>  (50) 
-4.66207

>  <r_i_glide_ligand_efficiency>  (50) 
-0.358621

>  <r_i_glide_ligand_efficiency_sa>  (50) 
-0.843237

>  <r_i_glide_ligand_efficiency_ln>  (50) 
-1.30775

>  <r_i_glide_gscore>  (50) 
-4.66207

>  <r_i_glide_lipo>  (50) 
-1.93705

>  <r_i_glide_hbond>  (50) 
0

>  <r_i_glide_metal>  (50) 
-0

>  <r_i_glide_rewards>  (50) 
-2.35923

>  <r_i_glide_evdw>  (50) 
-23.399

>  <r_i_glide_ecoul>  (50) 
-1.47811

>  <r_i_glide_erotb>  (50) 
1.02588

>  <r_i_glide_esite>  (50) 
0

>  <r_i_glide_emodel>  (50) 
-31.9993

>  <r_i_glide_energy>  (50) 
-24.8771

>  <r_i_glide_einternal>  (50) 
0.884523

>  <r_i_glide_intrahb_reward>  (50) 
-0

>  <i_i_glide_confnum>  (50) 
3

>  <i_i_glide_posenum>  (50) 
35

>  <r_i_glide_eff_state_penalty>  (50) 
0

>  <ligand_id>  (50) 
10

>  <original_smiles>  (50) 
C=CCOc1ccc2occc2c1

>  <smiles>  (50) 
[H]C([H])=C([H])C([H])([H])Oc1c([H])c([H])c2oc([H])c([H])c2c1[H]

$$$$
11:0:0
     RDKit          3D

 44 48  0  0  1  0  0  0  0  0999 V2000
    4.2948   -5.4357    2.5417 C   0  0  0  0  0  0  0  0  0  0  0  0
    4.5684   -4.6828    1.4577 C   0  0  0  0  0  0  0  0  0  0  0  0
    3.5616   -4.7005    0.2496 C   0  0  0  0  0  0  0  0  0  0  0  0
    2.6892   -3.4498   -0.2582 C   0  0  0  0  0  0  0  0  0  0  0  0
    3.2798   -2.3346   -1.1294 N   0  0  2  0  0  0  0  0  0  0  0  0
    3.7474   -2.9176   -2.4175 C   0  0  0  0  0  0  0  0  0  0  0  0
    5.0974   -3.6926   -2.2986 C   0  0  0  0  0  0  0  0  0  0  0  0
    6.0431   -3.1976   -1.1706 C   0  0  2  0  0  0  0  0  0  0  0  0
    6.5961   -4.1132   -0.0151 C   0  0  1  0  0  0  0  0  0  0  0  0
    8.1505   -4.0809    0.0874 C   0  0  0  0  0  0  0  0  0  0  0  0
    8.8155   -2.6982    0.1009 C   0  0  0  0  0  0  0  0  0  0  0  0
    5.9325   -3.8984    1.4165 C   0  0  1  0  0  0  0  0  0  0  0  0
    5.7114   -2.4321    2.0343 C   0  0  2  0  0  0  0  0  0  0  0  0
    5.9878   -0.8903    1.7686 C   0  0  0  0  0  0  0  0  0  0  0  0
    4.6731   -0.6864    0.8458 C   0  0  2  0  0  0  0  0  0  0  0  0
    4.8632   -2.0911    0.9337 C   0  0  1  0  0  0  0  0  0  0  0  0
    5.5359   -1.9759   -0.4977 C   0  0  2  0  0  0  0  0  0  0  0  0
    4.2922   -1.2391   -0.6868 C   0  0  1  0  0  0  0  0  0  0  0  0
    4.9735   -5.4738    3.3817 H   0  0  0  0  0  0  0  0  0  0  0  0
    3.3950   -6.0317    2.6114 H   0  0  0  0  0  0  0  0  0  0  0  0
    4.0229   -5.2411   -0.5629 H   0  0  0  0  0  0  0  0  0  0  0  0
    2.7972   -5.4231    0.5428 H   0  0  0  0  0  0  0  0  0  0  0  0
    1.9190   -3.8925   -0.8865 H   0  0  0  0  0  0  0  0  0  0  0  0
    2.1045   -3.0242    0.5582 H   0  0  0  0  0  0  0  0  0  0  0  0
    2.9887   -3.5683   -2.8513 H   0  0  0  0  0  0  0  0  0  0  0  0
    3.8738   -2.0992   -3.1267 H   0  0  0  0  0  0  0  0  0  0  0  0
    4.9704   -4.7705   -2.2795 H   0  0  0  0  0  0  0  0  0  0  0  0
    5.6106   -3.5377   -3.2529 H   0  0  0  0  0  0  0  0  0  0  0  0
    6.9147   -2.9258   -1.7624 H   0  0  0  0  0  0  0  0  0  0  0  0
    6.3719   -5.1442   -0.2939 H   0  0  0  0  0  0  0  0  0  0  0  0
    8.4591   -4.6237    0.9815 H   0  0  0  0  0  0  0  0  0  0  0  0
    8.5905   -4.6370   -0.7360 H   0  0  0  0  0  0  0  0  0  0  0  0
    9.8818   -2.7604    0.3021 H   0  0  0  0  0  0  0  0  0  0  0  0
    8.3908   -2.0770    0.8784 H   0  0  0  0  0  0  0  0  0  0  0  0
    8.7051   -2.1630   -0.8376 H   0  0  0  0  0  0  0  0  0  0  0  0
    6.5667   -4.4335    2.1232 H   0  0  0  0  0  0  0  0  0  0  0  0
    5.1542   -2.4803    2.9726 H   0  0  0  0  0  0  0  0  0  0  0  0
    5.9117   -0.3152    2.6934 H   0  0  0  0  0  0  0  0  0  0  0  0
    6.9480   -0.6537    1.3084 H   0  0  0  0  0  0  0  0  0  0  0  0
    3.8145   -0.3253    1.4159 H   0  0  0  0  0  0  0  0  0  0  0  0
    3.8718   -2.3436    1.2784 H   0  0  0  0  0  0  0  0  0  0  0  0
    6.3426   -1.2460   -0.6093 H   0  0  0  0  0  0  0  0  0  0  0  0
    4.4000   -0.4594   -1.4407 H   0  0  0  0  0  0  0  0  0  0  0  0
    2.4431   -1.7941   -1.3354 H   0  0  0  0  0  0  0  0  0  0  0  0
  1  2  2  0
  1 19  1  0
  1 20  1  0
  2 12  1  0
  2  3  1  0
  3  4  1  0
  3 21  1  0
  3 22  1  0
  4  5  1  0
  4 23  1  0
  4 24  1  0
  5 18  1  0
  5  6  1  0
  5 44  1  6
  6  7  1  0
  6 25  1  0
  6 26  1  0
  7  8  1  0
  7 27  1  0
  7 28  1  0
  8 17  1  0
  8  9  1  0
  8 29  1  6
  9 10  1  0
  9 12  1  0
  9 30  1  6
 10 11  1  0
 10 31  1  0
 10 32  1  0
 11 33  1  0
 11 34  1  0
 11 35  1  0
 12 13  1  0
 12 36  1  1
 13 16  1  0
 13 14  1  0
 13 37  1  1
 14 15  1  0
 14 38  1  0
 14 39  1  0
 15 18  1  0
 15 16  1  0
 15 40  1  1
 16 17  1  0
 16 41  1  6
 17 18  1  0
 17 42  1  1
 18 43  1  6
M  CHG  1   5   1
M  END
>  <i_m_ct_stereo_status>  (51) 
1

>  <s_m_source_file>  (51) 
/var/tmp/pbs.5076255.sched01/tmpuhafuy1n/0xc5aj8_e.sdf

>  <i_m_source_file_index>  (51) 
20

>  <i_lp_mmshare_version>  (51) 
48012

>  <i_f3d_flags>  (51) 
0

>  <s_epik_input>  (51) 
W0NIMl0xW0NIMl1bQ0BASF0oW0NASF0yMylbQ0BASF0oW0NIMl1bQ0gzXSlbQ0BIXShDKD1bQ0gyXSlbQ0gyXVtDSDJdNClbQ0BASF0oW0NIMl01KVtDQEhdMltDQEBIXTVbQ0BASF0zTjE0

>  <s_epik_cmdline>  (51) 
J2VwaWtfcHl0aG9uJywgJy1waHQnLCAnMi4wJywgJy1waCcsICc3LjAnLCAnLXRuJywgJzgnLCAnLW1hJywgJzIwMCcsICctaW1hZScsICc8aW5maWxlLm1hZT4nLCAnLW9tYWUnLCAnPG91dGZpbGUubWFlPic=

>  <r_lp_tautomer_probability>  (51) 
1

>  <r_epik_Ionization_Penalty>  (51) 
0.000155301

>  <r_epik_Ionization_Penalty_Charging>  (51) 
0.000155301

>  <r_epik_Ionization_Penalty_Neutral>  (51) 
0

>  <r_epik_State_Penalty>  (51) 
-0

>  <r_epik_Charging_Adjusted_Penalty>  (51) 
0.000155301

>  <i_epik_Tot_Q>  (51) 
1

>  <i_epik_Tot_abs_Q>  (51) 
1

>  <s_lp_Force_Field>  (51) 
OPLS3e

>  <r_lp_Energy>  (51) 
233.497

>  <b_lp_Chiralities_Consistent>  (51) 
1

>  <s_lp_Variant>  (51) 
11:0-1

>  <s_i_glide_gridfile>  (51) 
pfpi4k_grid

>  <i_i_glide_lignum>  (51) 
20

>  <i_i_glide_rotatable_bonds>  (51) 
1

>  <r_i_docking_score>  (51) 
-4.39713

>  <r_i_glide_ligand_efficiency>  (51) 
-0.244285

>  <r_i_glide_ligand_efficiency_sa>  (51) 
-0.640207

>  <r_i_glide_ligand_efficiency_ln>  (51) 
-1.13026

>  <r_i_glide_gscore>  (51) 
-4.39713

>  <r_i_glide_lipo>  (51) 
-0.769424

>  <r_i_glide_hbond>  (51) 
-0.2

>  <r_i_glide_metal>  (51) 
-0

>  <r_i_glide_rewards>  (51) 
-1.74276

>  <r_i_glide_evdw>  (51) 
-18.161

>  <r_i_glide_ecoul>  (51) 
-4.72714

>  <r_i_glide_erotb>  (51) 
0

>  <r_i_glide_esite>  (51) 
-0.0678183

>  <r_i_glide_emodel>  (51) 
-28.9087

>  <r_i_glide_energy>  (51) 
-22.8882

>  <r_i_glide_einternal>  (51) 
1.68415

>  <r_i_glide_intrahb_reward>  (51) 
-0

>  <i_i_glide_confnum>  (51) 
1

>  <i_i_glide_posenum>  (51) 
9

>  <r_i_glide_eff_state_penalty>  (51) 
0

>  <ligand_id>  (51) 
11

>  <original_smiles>  (51) 
C=C1CCN2CCC3C(CC)C1C1CC4C1C3C42

>  <smiles>  (51) 
[H]C([H])=C1C([H])([H])C([H])([H])[N+]2([H])C([H])([H])C([H])([H])C3([H])C([H])(C([H])([H])C([H])([H])[H])C1([H])C1([H])C([H])([H])C4([H])C1([H])C3([H])C42[H]

$$$$
11:0:1
     RDKit          3D

 44 48  0  0  1  0  0  0  0  0999 V2000
    2.6210   -3.7195   -3.6983 C   0  0  0  0  0  0  0  0  0  0  0  0
    3.2024   -3.1995   -2.6018 C   0  0  0  0  0  0  0  0  0  0  0  0
    2.6278   -3.4891   -1.1425 C   0  0  0  0  0  0  0  0  0  0  0  0
    3.3895   -4.1334    0.1112 C   0  0  0  0  0  0  0  0  0  0  0  0
    4.3649   -3.3179    0.9572 N   0  0  2  0  0  0  0  0  0  0  0  0
    3.7198   -2.1751    1.6184 C   0  0  0  0  0  0  0  0  0  0  0  0
    3.4943   -0.9506    0.6890 C   0  0  0  0  0  0  0  0  0  0  0  0
    4.4303   -0.8825   -0.5502 C   0  0  2  0  0  0  0  0  0  0  0  0
    3.9206   -0.9280   -2.0519 C   0  0  1  0  0  0  0  0  0  0  0  0
    4.5186    0.1639   -2.8857 C   0  0  0  0  0  0  0  0  0  0  0  0
    4.0968    0.3487   -4.3521 C   0  0  0  0  0  0  0  0  0  0  0  0
    4.3288   -2.2165   -2.8445 C   0  0  1  0  0  0  0  0  0  0  0  0
    5.7403   -2.9440   -2.7489 C   0  0  2  0  0  0  0  0  0  0  0  0
    7.1733   -2.8593   -2.0932 C   0  0  0  0  0  0  0  0  0  0  0  0
    6.7489   -3.4538   -0.6501 C   0  0  2  0  0  0  0  0  0  0  0  0
    5.5500   -3.1259   -1.3438 C   0  0  1  0  0  0  0  0  0  0  0  0
    5.5427   -1.8447   -0.4363 C   0  0  2  0  0  0  0  0  0  0  0  0
    5.7685   -2.8879    0.5528 C   0  0  1  0  0  0  0  0  0  0  0  0
    2.9872   -3.5162   -4.6962 H   0  0  0  0  0  0  0  0  0  0  0  0
    1.8181   -4.3653   -3.5617 H   0  0  0  0  0  0  0  0  0  0  0  0
    2.2320   -2.5502   -0.8009 H   0  0  0  0  0  0  0  0  0  0  0  0
    1.7400   -4.1167   -1.3229 H   0  0  0  0  0  0  0  0  0  0  0  0
    2.5622   -4.3335    0.7711 H   0  0  0  0  0  0  0  0  0  0  0  0
    3.7427   -5.1216   -0.1551 H   0  0  0  0  0  0  0  0  0  0  0  0
    2.7656   -2.4352    2.0573 H   0  0  0  0  0  0  0  0  0  0  0  0
    4.3533   -1.8338    2.4351 H   0  0  0  0  0  0  0  0  0  0  0  0
    2.4550   -0.9134    0.4075 H   0  0  0  0  0  0  0  0  0  0  0  0
    3.6194   -0.0215    1.2760 H   0  0  0  0  0  0  0  0  0  0  0  0
    4.8906    0.0835   -0.3832 H   0  0  0  0  0  0  0  0  0  0  0  0
    2.8445   -0.7396   -2.0822 H   0  0  0  0  0  0  0  0  0  0  0  0
    4.1993    1.1070   -2.5846 H   0  0  0  0  0  0  0  0  0  0  0  0
    5.5441    0.1716   -2.5790 H   0  0  0  0  0  0  0  0  0  0  0  0
    4.3978    1.3370   -4.6642 H   0  0  0  0  0  0  0  0  0  0  0  0
    3.0103    0.3044   -4.4979 H   0  0  0  0  0  0  0  0  0  0  0  0
    4.5833   -0.3534   -5.0079 H   0  0  0  0  0  0  0  0  0  0  0  0
    4.1911   -2.0477   -3.8997 H   0  0  0  0  0  0  0  0  0  0  0  0
    5.7332   -3.8965   -3.2722 H   0  0  0  0  0  0  0  0  0  0  0  0
    7.8069   -3.6362   -2.5307 H   0  0  0  0  0  0  0  0  0  0  0  0
    7.6564   -1.8758   -2.1327 H   0  0  0  0  0  0  0  0  0  0  0  0
    6.8717   -4.5375   -0.5954 H   0  0  0  0  0  0  0  0  0  0  0  0
    5.1024   -4.1054   -1.2899 H   0  0  0  0  0  0  0  0  0  0  0  0
    6.4569   -1.2233   -0.4228 H   0  0  0  0  0  0  0  0  0  0  0  0
    6.3799   -2.5122    1.3668 H   0  0  0  0  0  0  0  0  0  0  0  0
    4.5426   -3.9583    1.6952 H   0  0  0  0  0  0  0  0  0  0  0  0
  1  2  2  0
  1 19  1  0
  1 20  1  0
  2 12  1  0
  2  3  1  0
  3  4  1  0
  3 21  1  0
  3 22  1  0
  4  5  1  0
  4 23  1  0
  4 24  1  0
  5 18  1  0
  5  6  1  0
  5 44  1  1
  6  7  1  0
  6 25  1  0
  6 26  1  0
  7  8  1  0
  7 27  1  0
  7 28  1  0
  8 17  1  0
  8  9  1  0
  8 29  1  6
  9 10  1  0
  9 12  1  0
  9 30  1  1
 10 11  1  0
 10 31  1  0
 10 32  1  0
 11 33  1  0
 11 34  1  0
 11 35  1  0
 12 13  1  0
 12 36  1  6
 13 16  1  0
 13 14  1  0
 13 37  1  6
 14 15  1  0
 14 38  1  0
 14 39  1  0
 15 18  1  0
 15 16  1  0
 15 40  1  1
 16 17  1  0
 16 41  1  6
 17 18  1  0
 17 42  1  6
 18 43  1  1
M  CHG  1   5   1
M  END
>  <i_m_ct_stereo_status>  (52) 
1

>  <s_m_source_file>  (52) 
/var/tmp/pbs.5076255.sched01/tmpuhafuy1n/0xc5aj8_e.sdf

>  <i_m_source_file_index>  (52) 
20

>  <i_lp_mmshare_version>  (52) 
48012

>  <i_f3d_flags>  (52) 
0

>  <s_epik_input>  (52) 
W0NIMl0xW0NIMl1bQ0BASF0oW0NASF0yMylbQ0BASF0oW0NIMl1bQ0gzXSlbQ0BIXShDKD1bQ0gyXSlbQ0gyXVtDSDJdNClbQ0BASF0oW0NIMl01KVtDQEhdMltDQEBIXTVbQ0BASF0zTjE0

>  <s_epik_cmdline>  (52) 
J2VwaWtfcHl0aG9uJywgJy1waHQnLCAnMi4wJywgJy1waCcsICc3LjAnLCAnLXRuJywgJzgnLCAnLW1hJywgJzIwMCcsICctaW1hZScsICc8aW5maWxlLm1hZT4nLCAnLW9tYWUnLCAnPG91dGZpbGUubWFlPic=

>  <r_lp_tautomer_probability>  (52) 
1

>  <r_epik_Ionization_Penalty>  (52) 
0.000155301

>  <r_epik_Ionization_Penalty_Charging>  (52) 
0.000155301

>  <r_epik_Ionization_Penalty_Neutral>  (52) 
0

>  <r_epik_State_Penalty>  (52) 
-0

>  <r_epik_Charging_Adjusted_Penalty>  (52) 
0.000155301

>  <i_epik_Tot_Q>  (52) 
1

>  <i_epik_Tot_abs_Q>  (52) 
1

>  <s_lp_Force_Field>  (52) 
OPLS3e

>  <r_lp_Energy>  (52) 
233.497

>  <b_lp_Chiralities_Consistent>  (52) 
1

>  <s_lp_Variant>  (52) 
11:0-1

>  <s_i_glide_gridfile>  (52) 
pfpi4k_grid

>  <i_i_glide_lignum>  (52) 
20

>  <i_i_glide_rotatable_bonds>  (52) 
1

>  <r_i_docking_score>  (52) 
-3.10603

>  <r_i_glide_ligand_efficiency>  (52) 
-0.172557

>  <r_i_glide_ligand_efficiency_sa>  (52) 
-0.452228

>  <r_i_glide_ligand_efficiency_ln>  (52) 
-0.798389

>  <r_i_glide_gscore>  (52) 
-3.10603

>  <r_i_glide_lipo>  (52) 
-0.844815

>  <r_i_glide_hbond>  (52) 
0

>  <r_i_glide_metal>  (52) 
-0

>  <r_i_glide_rewards>  (52) 
-1.74276

>  <r_i_glide_evdw>  (52) 
-2.02749

>  <r_i_glide_ecoul>  (52) 
-2.78054

>  <r_i_glide_erotb>  (52) 
0

>  <r_i_glide_esite>  (52) 
0

>  <r_i_glide_emodel>  (52) 
-5.67856

>  <r_i_glide_energy>  (52) 
-4.80802

>  <r_i_glide_einternal>  (52) 
1.20373

>  <r_i_glide_intrahb_reward>  (52) 
-0

>  <i_i_glide_confnum>  (52) 
2

>  <i_i_glide_posenum>  (52) 
6

>  <r_i_glide_eff_state_penalty>  (52) 
0

>  <ligand_id>  (52) 
11

>  <original_smiles>  (52) 
C=C1CCN2CCC3C(CC)C1C1CC4C1C3C42

>  <smiles>  (52) 
[H]C([H])=C1C([H])([H])C([H])([H])[N+]2([H])C([H])([H])C([H])([H])C3([H])C([H])(C([H])([H])C([H])([H])[H])C1([H])C1([H])C([H])([H])C4([H])C1([H])C3([H])C42[H]

$$$$
12:0:0
     RDKit          3D

 73 79  0  0  1  0  0  0  0  0999 V2000
    5.1059   -3.1837    7.1149 C   0  0  0  0  0  0  0  0  0  0  0  0
    5.2059   -1.8164    7.0923 C   0  0  0  0  0  0  0  0  0  0  0  0
    6.0804   -1.0057    7.8304 O   0  0  0  0  0  0  0  0  0  0  0  0
    5.6130    0.1123    7.0874 C   0  0  1  0  0  0  0  0  0  0  0  0
    6.7799    0.6350    6.2507 C   0  0  0  0  0  0  0  0  0  0  0  0
    4.4431   -0.6939    6.4169 C   0  0  1  0  0  0  0  0  0  0  0  0
    4.4129   -0.6646    4.8707 C   0  0  2  0  0  0  0  0  0  0  0  0
    4.4201    0.6779    4.4166 O   0  0  0  0  0  0  0  0  0  0  0  0
    3.2416    1.3844    4.6204 C   0  0  1  0  0  0  0  0  0  0  0  0
    3.4043    2.6961    4.0930 O   0  0  0  0  0  0  0  0  0  0  0  0
    1.9184    0.6784    4.0460 C   0  0  1  0  0  0  0  0  0  0  0  0
    1.7253    0.7210    2.5653 C   0  0  2  0  0  0  0  0  0  0  0  0
    2.8917    0.0775    1.9001 C   0  0  0  0  0  0  0  0  0  0  0  0
    3.6204   -0.9196    2.5213 C   0  0  0  0  0  0  0  0  0  0  0  0
    4.8553   -1.4911    1.7930 C   0  0  2  0  0  0  0  0  0  0  0  0
    5.4500   -0.4995    0.7398 C   0  0  0  0  0  0  0  0  0  0  0  0
    4.8410   -0.9706   -0.6088 C   0  0  0  0  0  0  0  0  0  0  0  0
    4.4379   -2.4207   -0.4271 C   0  0  2  0  0  0  0  0  0  0  0  0
    4.4755   -2.7526    1.0294 C   0  0  1  0  0  0  0  0  0  0  0  0
    5.3631   -3.5098    0.0630 C   0  0  0  0  0  0  0  0  0  0  0  0
    5.0060   -4.9507   -0.2615 C   0  0  0  0  0  0  0  0  0  0  0  0
    6.8875   -3.3122    0.0292 C   0  0  0  0  0  0  0  0  0  0  0  0
    3.3038   -1.3582    4.0325 C   0  0  1  0  0  0  0  0  0  0  0  0
    3.5064   -2.8932    4.1915 C   0  0  0  0  0  0  0  0  0  0  0  0
    2.7399   -3.6252    4.8177 O   0  0  0  0  0  0  0  0  0  0  0  0
    1.8452   -0.8298    4.4010 C   0  0  2  0  0  0  0  0  0  0  0  0
    0.7730   -1.7289    3.6880 C   0  0  0  0  0  0  0  0  0  0  0  0
    1.1630   -0.6131    5.7514 C   0  0  0  0  0  0  0  0  0  0  0  0
    1.2633   -1.3602    6.7149 O   0  0  0  0  0  0  0  0  0  0  0  0
    0.3161    0.4824    5.6338 O   0  0  0  0  0  0  0  0  0  0  0  0
    0.7802    1.4409    4.6699 C   0  0  2  0  0  0  0  0  0  0  0  0
    0.0068    2.0798    3.4585 C   0  0  0  0  0  0  0  0  0  0  0  0
   -1.2987    1.3407    3.1098 C   0  0  0  0  0  0  0  0  0  0  0  0
   -0.3319    3.5427    3.7763 C   0  0  0  0  0  0  0  0  0  0  0  0
    1.0298    2.0359    2.2626 C   0  0  0  0  0  0  0  0  0  0  0  0
    4.3797   -3.7039    6.5670 H   0  0  0  0  0  0  0  0  0  0  0  0
    5.7659   -3.7275    7.7816 H   0  0  0  0  0  0  0  0  0  0  0  0
    5.2120    0.8501    7.7647 H   0  0  0  0  0  0  0  0  0  0  0  0
    6.4561    1.3975    5.5279 H   0  0  0  0  0  0  0  0  0  0  0  0
    7.2248   -0.1739    5.6833 H   0  0  0  0  0  0  0  0  0  0  0  0
    7.5900    1.0820    6.8535 H   0  0  0  0  0  0  0  0  0  0  0  0
    3.5370   -0.3817    6.9359 H   0  0  0  0  0  0  0  0  0  0  0  0
    5.3623   -1.0666    4.5314 H   0  0  0  0  0  0  0  0  0  0  0  0
    3.1459    1.5350    5.6929 H   0  0  0  0  0  0  0  0  0  0  0  0
    3.7323    2.6220    3.2235 H   0  0  0  0  0  0  0  0  0  0  0  0
    0.9617    0.0666    2.1763 H   0  0  0  0  0  0  0  0  0  0  0  0
    3.0583    0.4448    0.9119 H   0  0  0  0  0  0  0  0  0  0  0  0
    5.6474   -1.7613    2.4906 H   0  0  0  0  0  0  0  0  0  0  0  0
    5.1997    0.5491    0.9578 H   0  0  0  0  0  0  0  0  0  0  0  0
    6.5261   -0.5341    0.7384 H   0  0  0  0  0  0  0  0  0  0  0  0
    3.9345   -0.4246   -0.8659 H   0  0  0  0  0  0  0  0  0  0  0  0
    5.5197   -0.8740   -1.4512 H   0  0  0  0  0  0  0  0  0  0  0  0
    3.5347   -2.7177   -0.9607 H   0  0  0  0  0  0  0  0  0  0  0  0
    3.6410   -3.3250    1.4424 H   0  0  0  0  0  0  0  0  0  0  0  0
    5.4750   -5.6205    0.4549 H   0  0  0  0  0  0  0  0  0  0  0  0
    5.3479   -5.1909   -1.2629 H   0  0  0  0  0  0  0  0  0  0  0  0
    3.9275   -5.0997   -0.2288 H   0  0  0  0  0  0  0  0  0  0  0  0
    7.3509   -4.0100    0.7530 H   0  0  0  0  0  0  0  0  0  0  0  0
    7.1738   -2.3275    0.2502 H   0  0  0  0  0  0  0  0  0  0  0  0
    7.2601   -3.6010   -0.9741 H   0  0  0  0  0  0  0  0  0  0  0  0
    4.4438   -3.2577    3.7649 H   0  0  0  0  0  0  0  0  0  0  0  0
    1.0683   -1.9945    2.6677 H   0  0  0  0  0  0  0  0  0  0  0  0
   -0.2084   -1.2644    3.6658 H   0  0  0  0  0  0  0  0  0  0  0  0
    0.6143   -2.6725    4.2062 H   0  0  0  0  0  0  0  0  0  0  0  0
    1.1665    2.2801    5.2601 H   0  0  0  0  0  0  0  0  0  0  0  0
   -1.8627    1.8834    2.3525 H   0  0  0  0  0  0  0  0  0  0  0  0
   -1.9288    1.2490    3.9903 H   0  0  0  0  0  0  0  0  0  0  0  0
   -1.1381    0.3460    2.7079 H   0  0  0  0  0  0  0  0  0  0  0  0
   -0.8126    4.0282    2.9257 H   0  0  0  0  0  0  0  0  0  0  0  0
    0.5689    4.1099    4.0135 H   0  0  0  0  0  0  0  0  0  0  0  0
   -1.0016    3.5954    4.6323 H   0  0  0  0  0  0  0  0  0  0  0  0
    1.7275    2.8792    2.2588 H   0  0  0  0  0  0  0  0  0  0  0  0
    0.5454    2.0070    1.2853 H   0  0  0  0  0  0  0  0  0  0  0  0
  1  2  2  0
  1 36  1  0
  1 37  1  0
  2  6  1  0
  2  3  1  0
  3  4  1  0
  4  5  1  0
  4  6  1  0
  4 38  1  1
  5 39  1  0
  5 40  1  0
  5 41  1  0
  6  7  1  0
  6 42  1  1
  7 23  1  0
  7  8  1  0
  7 43  1  6
  8  9  1  0
  9 10  1  0
  9 11  1  0
  9 44  1  1
 10 45  1  0
 11 26  1  1
 11 31  1  0
 11 12  1  0
 12 35  1  0
 12 13  1  0
 12 46  1  1
 13 14  2  0
 13 47  1  0
 14 15  1  0
 14 23  1  0
 15 19  1  0
 15 16  1  0
 15 48  1  1
 16 17  1  0
 16 49  1  0
 16 50  1  0
 17 18  1  0
 17 51  1  0
 17 52  1  0
 18 20  1  0
 18 19  1  0
 18 53  1  6
 19 20  1  0
 19 54  1  1
 20 21  1  0
 20 22  1  0
 21 55  1  0
 21 56  1  0
 21 57  1  0
 22 58  1  0
 22 59  1  0
 22 60  1  0
 23 24  1  6
 23 26  1  0
 24 25  2  0
 24 61  1  0
 26 27  1  6
 26 28  1  0
 27 62  1  0
 27 63  1  0
 27 64  1  0
 28 29  2  0
 28 30  1  0
 30 31  1  0
 31 32  1  0
 31 65  1  1
 32 33  1  0
 32 34  1  0
 32 35  1  0
 33 66  1  0
 33 67  1  0
 33 68  1  0
 34 69  1  0
 34 70  1  0
 34 71  1  0
 35 72  1  0
 35 73  1  0
M  END
>  <i_m_ct_stereo_status>  (53) 
1

>  <s_m_source_file>  (53) 
/var/tmp/pbs.5076255.sched01/tmpuhafuy1n/0xc5aj8_e.sdf

>  <i_m_source_file_index>  (53) 
21

>  <i_lp_mmshare_version>  (53) 
48012

>  <i_f3d_flags>  (53) 
0

>  <s_epik_input>  (53) 
W0NIMl09QzFPW0NAQEhdKFtDSDNdKVtDQEhdMVtDQEhdKE9bQ0BIXTJbT0hdKVtDQF0oW0NIXT1PKShDKD1bQ0hdW0NASF0zW0NAXTI0NSlbQ0BIXShbQ0gyXVtDSDJdNilbQ0BASF0oW0NAQEhdNjcpQzcoW0NIM10pW0NIM10pW0NAQF00KFtDSDNdKUMoPU8pT1tDQEBIXTVDKFtDSDNdKShbQ0gzXSlbQ0gyXTM=

>  <s_epik_cmdline>  (53) 
J2VwaWtfcHl0aG9uJywgJy1waHQnLCAnMi4wJywgJy1waCcsICc3LjAnLCAnLXRuJywgJzgnLCAnLW1hJywgJzIwMCcsICctaW1hZScsICc8aW5maWxlLm1hZT4nLCAnLW9tYWUnLCAnPG91dGZpbGUubWFlPic=

>  <r_lp_tautomer_probability>  (53) 
1

>  <r_epik_Ionization_Penalty>  (53) 
9.54516e-07

>  <r_epik_Ionization_Penalty_Charging>  (53) 
0

>  <r_epik_Ionization_Penalty_Neutral>  (53) 
9.54516e-07

>  <r_epik_State_Penalty>  (53) 
-0

>  <r_epik_Charging_Adjusted_Penalty>  (53) 
0

>  <i_epik_Tot_Q>  (53) 
0

>  <i_epik_Tot_abs_Q>  (53) 
0

>  <s_epik_Chemistry_Notes>  (53) 
This compound has an ester and may undergo hydrolysis at high or low pH. This compound contains an acetal/aminal-like group ( X-CH(R)-Y where X, Y are N, S, or O) that may be acid/base labile, releasing an aldehyde.

>  <s_lp_Force_Field>  (53) 
OPLS3e

>  <r_lp_Energy>  (53) 
85.8166

>  <b_lp_Chiralities_Consistent>  (53) 
1

>  <s_lp_Variant>  (53) 
12:0-1

>  <s_i_glide_gridfile>  (53) 
pfpi4k_grid

>  <i_i_glide_lignum>  (53) 
21

>  <i_i_glide_rotatable_bonds>  (53) 
4

>  <r_i_docking_score>  (53) 
-2.30518

>  <r_i_glide_ligand_efficiency>  (53) 
-0.0658624

>  <r_i_glide_ligand_efficiency_sa>  (53) 
-0.21544

>  <r_i_glide_ligand_efficiency_ln>  (53) 
-0.506039

>  <r_i_glide_gscore>  (53) 
-2.30518

>  <r_i_glide_lipo>  (53) 
-0.57153

>  <r_i_glide_hbond>  (53) 
0

>  <r_i_glide_metal>  (53) 
-0

>  <r_i_glide_rewards>  (53) 
-0.118579

>  <r_i_glide_evdw>  (53) 
-24.8243

>  <r_i_glide_ecoul>  (53) 
-3.63749

>  <r_i_glide_erotb>  (53) 
0.174271

>  <r_i_glide_esite>  (53) 
-0.0025043

>  <r_i_glide_emodel>  (53) 
-31.1618

>  <r_i_glide_energy>  (53) 
-28.4618

>  <r_i_glide_einternal>  (53) 
1.6519

>  <r_i_glide_intrahb_reward>  (53) 
-0

>  <i_i_glide_confnum>  (53) 
5

>  <i_i_glide_posenum>  (53) 
39

>  <r_i_glide_eff_state_penalty>  (53) 
0

>  <ligand_id>  (53) 
12

>  <original_smiles>  (53) 
C=C1OC(C)C1C1OC(O)C23C4C=C(C5CCC6C5C6(C)C)C1(C=O)C2(C)C(=O)OC3C(C)(C)C4

>  <smiles>  (53) 
[H]OC1([H])OC([H])(C2([H])C(=C([H])[H])OC2([H])C([H])([H])[H])C2(C([H])=O)C(C3([H])C([H])([H])C([H])([H])C4([H])C3([H])C4(C([H])([H])[H])C([H])([H])[H])=C([H])C3([H])C([H])([H])C(C([H])([H])[H])(C([H])([H])[H])C4([H])OC(=O)C2(C([H])([H])[H])C143

$$$$
12:0:1
     RDKit          3D

 73 79  0  0  1  0  0  0  0  0999 V2000
    0.0459   -3.2201    7.2979 C   0  0  0  0  0  0  0  0  0  0  0  0
    0.8027   -2.2144    7.7836 C   0  0  0  0  0  0  0  0  0  0  0  0
    1.5381   -2.1574    8.9756 O   0  0  0  0  0  0  0  0  0  0  0  0
    2.0826   -0.8855    8.5520 C   0  0  1  0  0  0  0  0  0  0  0  0
    3.5636   -1.0699    8.2591 C   0  0  0  0  0  0  0  0  0  0  0  0
    1.1024   -0.7700    7.3581 C   0  0  1  0  0  0  0  0  0  0  0  0
    1.8035   -0.4906    5.9841 C   0  0  2  0  0  0  0  0  0  0  0  0
    2.5513    0.7314    6.0432 O   0  0  0  0  0  0  0  0  0  0  0  0
    1.8148    1.9019    6.0848 C   0  0  1  0  0  0  0  0  0  0  0  0
    2.7022    3.0012    6.0958 O   0  0  0  0  0  0  0  0  0  0  0  0
    0.7398    2.0609    4.9100 C   0  0  1  0  0  0  0  0  0  0  0  0
    1.2673    2.4020    3.5469 C   0  0  2  0  0  0  0  0  0  0  0  0
    2.2375    1.3368    3.1228 C   0  0  0  0  0  0  0  0  0  0  0  0
    2.1150    0.0398    3.5665 C   0  0  0  0  0  0  0  0  0  0  0  0
    3.1599   -0.9923    3.1131 C   0  0  2  0  0  0  0  0  0  0  0  0
    4.5325   -0.3120    2.8277 C   0  0  0  0  0  0  0  0  0  0  0  0
    4.5526   -0.0900    1.2884 C   0  0  0  0  0  0  0  0  0  0  0  0
    3.5495   -1.0633    0.6968 C   0  0  2  0  0  0  0  0  0  0  0  0
    2.7177   -1.6282    1.8018 C   0  0  1  0  0  0  0  0  0  0  0  0
    3.5823   -2.5564    0.9657 C   0  0  0  0  0  0  0  0  0  0  0  0
    2.8895   -3.4715   -0.0379 C   0  0  0  0  0  0  0  0  0  0  0  0
    4.8400   -3.2252    1.5382 C   0  0  0  0  0  0  0  0  0  0  0  0
    1.0087   -0.3825    4.6418 C   0  0  1  0  0  0  0  0  0  0  0  0
    0.4430   -1.7384    4.2272 C   0  0  0  0  0  0  0  0  0  0  0  0
   -0.7311   -2.0674    4.5569 O   0  0  0  0  0  0  0  0  0  0  0  0
   -0.0860    0.7739    4.6930 C   0  0  2  0  0  0  0  0  0  0  0  0
   -1.0019    0.6517    3.4184 C   0  0  0  0  0  0  0  0  0  0  0  0
   -1.1423    1.1186    5.7488 C   0  0  0  0  0  0  0  0  0  0  0  0
   -1.7848    0.3098    6.4223 O   0  0  0  0  0  0  0  0  0  0  0  0
   -1.3275    2.4858    5.7182 O   0  0  0  0  0  0  0  0  0  0  0  0
   -0.1445    3.2015    5.3423 C   0  0  2  0  0  0  0  0  0  0  0  0
    0.0500    4.3166    4.2481 C   0  0  0  0  0  0  0  0  0  0  0  0
   -1.1497    4.4188    3.2865 C   0  0  0  0  0  0  0  0  0  0  0  0
    0.2388    5.6810    4.9323 C   0  0  0  0  0  0  0  0  0  0  0  0
    1.3803    3.9212    3.4942 C   0  0  0  0  0  0  0  0  0  0  0  0
   -0.5346   -3.0914    6.3925 H   0  0  0  0  0  0  0  0  0  0  0  0
   -0.0069   -4.1602    7.8429 H   0  0  0  0  0  0  0  0  0  0  0  0
    1.8844   -0.1261    9.3037 H   0  0  0  0  0  0  0  0  0  0  0  0
    3.9509   -0.1733    7.7802 H   0  0  0  0  0  0  0  0  0  0  0  0
    3.7211   -1.8987    7.5688 H   0  0  0  0  0  0  0  0  0  0  0  0
    4.1674   -1.2598    9.1439 H   0  0  0  0  0  0  0  0  0  0  0  0
    0.3515   -0.0342    7.6347 H   0  0  0  0  0  0  0  0  0  0  0  0
    2.5676   -1.2520    5.8425 H   0  0  0  0  0  0  0  0  0  0  0  0
    1.3353    1.9274    7.0587 H   0  0  0  0  0  0  0  0  0  0  0  0
    3.0950    3.0629    5.2455 H   0  0  0  0  0  0  0  0  0  0  0  0
    0.5564    2.2871    2.7344 H   0  0  0  0  0  0  0  0  0  0  0  0
    2.9728    1.6531    2.4096 H   0  0  0  0  0  0  0  0  0  0  0  0
    3.2814   -1.7856    3.8561 H   0  0  0  0  0  0  0  0  0  0  0  0
    4.6755    0.6039    3.4036 H   0  0  0  0  0  0  0  0  0  0  0  0
    5.3618   -0.9353    3.1560 H   0  0  0  0  0  0  0  0  0  0  0  0
    4.2280    0.9164    1.0143 H   0  0  0  0  0  0  0  0  0  0  0  0
    5.5363   -0.2348    0.8430 H   0  0  0  0  0  0  0  0  0  0  0  0
    3.0221   -0.7188   -0.2004 H   0  0  0  0  0  0  0  0  0  0  0  0
    1.6339   -1.7092    1.6428 H   0  0  0  0  0  0  0  0  0  0  0  0
    2.6014   -4.4071    0.4413 H   0  0  0  0  0  0  0  0  0  0  0  0
    3.5526   -3.6894   -0.8772 H   0  0  0  0  0  0  0  0  0  0  0  0
    1.9826   -3.0069   -0.4447 H   0  0  0  0  0  0  0  0  0  0  0  0
    4.5628   -4.1378    2.0689 H   0  0  0  0  0  0  0  0  0  0  0  0
    5.3542   -2.5996    2.2485 H   0  0  0  0  0  0  0  0  0  0  0  0
    5.5505   -3.4326    0.7341 H   0  0  0  0  0  0  0  0  0  0  0  0
    1.0862   -2.4149    3.7135 H   0  0  0  0  0  0  0  0  0  0  0  0
   -0.4455    0.4431    2.5040 H   0  0  0  0  0  0  0  0  0  0  0  0
   -1.6237    1.5235    3.2514 H   0  0  0  0  0  0  0  0  0  0  0  0
   -1.7207   -0.1617    3.5102 H   0  0  0  0  0  0  0  0  0  0  0  0
    0.2244    3.6143    6.2761 H   0  0  0  0  0  0  0  0  0  0  0  0
   -1.0410    5.2788    2.6228 H   0  0  0  0  0  0  0  0  0  0  0  0
   -2.0841    4.5371    3.8319 H   0  0  0  0  0  0  0  0  0  0  0  0
   -1.2582    3.5510    2.6378 H   0  0  0  0  0  0  0  0  0  0  0  0
    0.4310    6.4676    4.2027 H   0  0  0  0  0  0  0  0  0  0  0  0
    1.0785    5.6687    5.6262 H   0  0  0  0  0  0  0  0  0  0  0  0
   -0.6425    5.9584    5.5040 H   0  0  0  0  0  0  0  0  0  0  0  0
    2.2754    4.2749    4.0062 H   0  0  0  0  0  0  0  0  0  0  0  0
    1.4256    4.3018    2.4711 H   0  0  0  0  0  0  0  0  0  0  0  0
  1  2  2  0
  1 36  1  0
  1 37  1  0
  2  6  1  0
  2  3  1  0
  3  4  1  0
  4  5  1  0
  4  6  1  0
  4 38  1  1
  5 39  1  0
  5 40  1  0
  5 41  1  0
  6  7  1  0
  6 42  1  1
  7 23  1  0
  7  8  1  0
  7 43  1  6
  8  9  1  0
  9 10  1  0
  9 11  1  0
  9 44  1  1
 10 45  1  0
 11 26  1  6
 11 31  1  0
 11 12  1  0
 12 35  1  0
 12 13  1  0
 12 46  1  6
 13 14  2  0
 13 47  1  0
 14 15  1  0
 14 23  1  0
 15 19  1  0
 15 16  1  0
 15 48  1  1
 16 17  1  0
 16 49  1  0
 16 50  1  0
 17 18  1  0
 17 51  1  0
 17 52  1  0
 18 20  1  0
 18 19  1  0
 18 53  1  6
 19 20  1  0
 19 54  1  6
 20 21  1  0
 20 22  1  0
 21 55  1  0
 21 56  1  0
 21 57  1  0
 22 58  1  0
 22 59  1  0
 22 60  1  0
 23 24  1  6
 23 26  1  0
 24 25  2  0
 24 61  1  0
 26 27  1  6
 26 28  1  0
 27 62  1  0
 27 63  1  0
 27 64  1  0
 28 29  2  0
 28 30  1  0
 30 31  1  0
 31 32  1  0
 31 65  1  1
 32 33  1  0
 32 34  1  0
 32 35  1  0
 33 66  1  0
 33 67  1  0
 33 68  1  0
 34 69  1  0
 34 70  1  0
 34 71  1  0
 35 72  1  0
 35 73  1  0
M  END
>  <i_m_ct_stereo_status>  (54) 
1

>  <s_m_source_file>  (54) 
/var/tmp/pbs.5076255.sched01/tmpuhafuy1n/0xc5aj8_e.sdf

>  <i_m_source_file_index>  (54) 
21

>  <i_lp_mmshare_version>  (54) 
48012

>  <i_f3d_flags>  (54) 
0

>  <s_epik_input>  (54) 
W0NIMl09QzFPW0NAQEhdKFtDSDNdKVtDQEhdMVtDQEhdKE9bQ0BIXTJbT0hdKVtDQF0oW0NIXT1PKShDKD1bQ0hdW0NASF0zW0NAXTI0NSlbQ0BIXShbQ0gyXVtDSDJdNilbQ0BASF0oW0NAQEhdNjcpQzcoW0NIM10pW0NIM10pW0NAQF00KFtDSDNdKUMoPU8pT1tDQEBIXTVDKFtDSDNdKShbQ0gzXSlbQ0gyXTM=

>  <s_epik_cmdline>  (54) 
J2VwaWtfcHl0aG9uJywgJy1waHQnLCAnMi4wJywgJy1waCcsICc3LjAnLCAnLXRuJywgJzgnLCAnLW1hJywgJzIwMCcsICctaW1hZScsICc8aW5maWxlLm1hZT4nLCAnLW9tYWUnLCAnPG91dGZpbGUubWFlPic=

>  <r_lp_tautomer_probability>  (54) 
1

>  <r_epik_Ionization_Penalty>  (54) 
9.54516e-07

>  <r_epik_Ionization_Penalty_Charging>  (54) 
0

>  <r_epik_Ionization_Penalty_Neutral>  (54) 
9.54516e-07

>  <r_epik_State_Penalty>  (54) 
-0

>  <r_epik_Charging_Adjusted_Penalty>  (54) 
0

>  <i_epik_Tot_Q>  (54) 
0

>  <i_epik_Tot_abs_Q>  (54) 
0

>  <s_epik_Chemistry_Notes>  (54) 
This compound has an ester and may undergo hydrolysis at high or low pH. This compound contains an acetal/aminal-like group ( X-CH(R)-Y where X, Y are N, S, or O) that may be acid/base labile, releasing an aldehyde.

>  <s_lp_Force_Field>  (54) 
OPLS3e

>  <r_lp_Energy>  (54) 
85.8166

>  <b_lp_Chiralities_Consistent>  (54) 
1

>  <s_lp_Variant>  (54) 
12:0-1

>  <s_i_glide_gridfile>  (54) 
pfpi4k_grid

>  <i_i_glide_lignum>  (54) 
21

>  <i_i_glide_rotatable_bonds>  (54) 
4

>  <r_i_docking_score>  (54) 
-2.25238

>  <r_i_glide_ligand_efficiency>  (54) 
-0.0643536

>  <r_i_glide_ligand_efficiency_sa>  (54) 
-0.210505

>  <r_i_glide_ligand_efficiency_ln>  (54) 
-0.494447

>  <r_i_glide_gscore>  (54) 
-2.25238

>  <r_i_glide_lipo>  (54) 
-0.210326

>  <r_i_glide_hbond>  (54) 
-0.16

>  <r_i_glide_metal>  (54) 
-0

>  <r_i_glide_rewards>  (54) 
-0.125653

>  <r_i_glide_evdw>  (54) 
-23.109

>  <r_i_glide_ecoul>  (54) 
-4.98814

>  <r_i_glide_erotb>  (54) 
0.174271

>  <r_i_glide_esite>  (54) 
-0.0270008

>  <r_i_glide_emodel>  (54) 
-29.978

>  <r_i_glide_energy>  (54) 
-28.0971

>  <r_i_glide_einternal>  (54) 
1.21624

>  <r_i_glide_intrahb_reward>  (54) 
-0

>  <i_i_glide_confnum>  (54) 
5

>  <i_i_glide_posenum>  (54) 
31

>  <r_i_glide_eff_state_penalty>  (54) 
0

>  <ligand_id>  (54) 
12

>  <original_smiles>  (54) 
C=C1OC(C)C1C1OC(O)C23C4C=C(C5CCC6C5C6(C)C)C1(C=O)C2(C)C(=O)OC3C(C)(C)C4

>  <smiles>  (54) 
[H]OC1([H])OC([H])(C2([H])C(=C([H])[H])OC2([H])C([H])([H])[H])C2(C([H])=O)C(C3([H])C([H])([H])C([H])([H])C4([H])C3([H])C4(C([H])([H])[H])C([H])([H])[H])=C([H])C3([H])C([H])([H])C(C([H])([H])[H])(C([H])([H])[H])C4([H])OC(=O)C2(C([H])([H])[H])C143

$$$$
12:0:2
     RDKit          3D

 73 79  0  0  1  0  0  0  0  0999 V2000
    3.9965   -3.1048    7.7349 C   0  0  0  0  0  0  0  0  0  0  0  0
    4.3211   -1.7920    7.5360 C   0  0  0  0  0  0  0  0  0  0  0  0
    5.3327   -1.0606    8.1540 O   0  0  0  0  0  0  0  0  0  0  0  0
    4.9957    0.0618    7.3090 C   0  0  1  0  0  0  0  0  0  0  0  0
    6.2144    0.3252    6.4284 C   0  0  0  0  0  0  0  0  0  0  0  0
    3.7334   -0.6322    6.7377 C   0  0  1  0  0  0  0  0  0  0  0  0
    3.7036   -0.6831    5.1705 C   0  0  2  0  0  0  0  0  0  0  0  0
    3.8407    0.6319    4.6306 O   0  0  0  0  0  0  0  0  0  0  0  0
    2.7428    1.4703    4.7584 C   0  0  1  0  0  0  0  0  0  0  0  0
    3.0219    2.6982    4.1517 O   0  0  0  0  0  0  0  0  0  0  0  0
    1.3653    0.8484    4.2174 C   0  0  1  0  0  0  0  0  0  0  0  0
    1.1840    0.7980    2.7232 C   0  0  2  0  0  0  0  0  0  0  0  0
    2.2995   -0.0201    2.1177 C   0  0  0  0  0  0  0  0  0  0  0  0
    2.8997   -1.0350    2.8317 C   0  0  0  0  0  0  0  0  0  0  0  0
    4.0793   -1.7856    2.1900 C   0  0  2  0  0  0  0  0  0  0  0  0
    5.3261   -0.8671    2.1080 C   0  0  0  0  0  0  0  0  0  0  0  0
    5.3000   -0.3398    0.6644 C   0  0  0  0  0  0  0  0  0  0  0  0
    4.4526   -1.2861   -0.1602 C   0  0  2  0  0  0  0  0  0  0  0  0
    3.7139   -2.1871    0.7752 C   0  0  1  0  0  0  0  0  0  0  0  0
    4.6808   -2.7892   -0.2289 C   0  0  0  0  0  0  0  0  0  0  0  0
    4.0811   -3.5336   -1.4113 C   0  0  0  0  0  0  0  0  0  0  0  0
    6.0060   -3.4186    0.1907 C   0  0  0  0  0  0  0  0  0  0  0  0
    2.5438   -1.3289    4.3632 C   0  0  1  0  0  0  0  0  0  0  0  0
    2.5293   -2.8392    4.5900 C   0  0  0  0  0  0  0  0  0  0  0  0
    1.9972   -3.5882    3.7509 O   0  0  0  0  0  0  0  0  0  0  0  0
    1.1506   -0.6075    4.6853 C   0  0  2  0  0  0  0  0  0  0  0  0
   -0.0112   -1.4668    4.0803 C   0  0  0  0  0  0  0  0  0  0  0  0
    0.4931   -0.2300    6.0196 C   0  0  0  0  0  0  0  0  0  0  0  0
    0.5268   -0.9014    7.0482 O   0  0  0  0  0  0  0  0  0  0  0  0
   -0.2443    0.9222    5.8226 O   0  0  0  0  0  0  0  0  0  0  0  0
    0.2949    1.7588    4.7857 C   0  0  2  0  0  0  0  0  0  0  0  0
   -0.4054    2.3843    3.5282 C   0  0  0  0  0  0  0  0  0  0  0  0
   -1.7806    1.7576    3.2420 C   0  0  0  0  0  0  0  0  0  0  0  0
   -0.5936    3.8914    3.7534 C   0  0  0  0  0  0  0  0  0  0  0  0
    0.6033    2.1485    2.3372 C   0  0  0  0  0  0  0  0  0  0  0  0
    3.1039   -3.5586    7.2908 H   0  0  0  0  0  0  0  0  0  0  0  0
    4.6256   -3.6828    8.4035 H   0  0  0  0  0  0  0  0  0  0  0  0
    4.7338    0.9196    7.9245 H   0  0  0  0  0  0  0  0  0  0  0  0
    5.9760    1.0504    5.6566 H   0  0  0  0  0  0  0  0  0  0  0  0
    6.5145   -0.5939    5.9293 H   0  0  0  0  0  0  0  0  0  0  0  0
    7.0841    0.6989    6.9691 H   0  0  0  0  0  0  0  0  0  0  0  0
    2.8800   -0.1304    7.1956 H   0  0  0  0  0  0  0  0  0  0  0  0
    4.6023   -1.2010    4.8508 H   0  0  0  0  0  0  0  0  0  0  0  0
    2.6643    1.7019    5.8219 H   0  0  0  0  0  0  0  0  0  0  0  0
    3.1719    2.5438    3.2236 H   0  0  0  0  0  0  0  0  0  0  0  0
    0.3544    0.1773    2.3996 H   0  0  0  0  0  0  0  0  0  0  0  0
    2.5520    0.1910    1.0854 H   0  0  0  0  0  0  0  0  0  0  0  0
    4.3278   -2.7010    2.7235 H   0  0  0  0  0  0  0  0  0  0  0  0
    5.3164   -0.0535    2.8365 H   0  0  0  0  0  0  0  0  0  0  0  0
    6.2334   -1.4326    2.3167 H   0  0  0  0  0  0  0  0  0  0  0  0
    4.8135    0.6334    0.6507 H   0  0  0  0  0  0  0  0  0  0  0  0
    6.2845   -0.2334    0.2197 H   0  0  0  0  0  0  0  0  0  0  0  0
    3.8747   -0.8259   -0.9646 H   0  0  0  0  0  0  0  0  0  0  0  0
    2.6488   -2.3792    0.5980 H   0  0  0  0  0  0  0  0  0  0  0  0
    3.9132   -4.5772   -1.1359 H   0  0  0  0  0  0  0  0  0  0  0  0
    4.7535   -3.4924   -2.2724 H   0  0  0  0  0  0  0  0  0  0  0  0
    3.1154   -3.1045   -1.7158 H   0  0  0  0  0  0  0  0  0  0  0  0
    5.8361   -4.4565    0.4785 H   0  0  0  0  0  0  0  0  0  0  0  0
    6.4478   -2.9077    1.0295 H   0  0  0  0  0  0  0  0  0  0  0  0
    6.7087   -3.3789   -0.6436 H   0  0  0  0  0  0  0  0  0  0  0  0
    3.0582   -3.1606    5.4554 H   0  0  0  0  0  0  0  0  0  0  0  0
    0.2267   -1.8152    3.0767 H   0  0  0  0  0  0  0  0  0  0  0  0
   -0.9636   -0.9395    4.0466 H   0  0  0  0  0  0  0  0  0  0  0  0
   -0.1804   -2.3732    4.6690 H   0  0  0  0  0  0  0  0  0  0  0  0
    0.7625    2.5791    5.3236 H   0  0  0  0  0  0  0  0  0  0  0  0
   -2.2949    2.2985    2.4489 H   0  0  0  0  0  0  0  0  0  0  0  0
   -2.4178    1.7945    4.1244 H   0  0  0  0  0  0  0  0  0  0  0  0
   -1.7256    0.7214    2.9182 H   0  0  0  0  0  0  0  0  0  0  0  0
   -1.0287    4.3689    2.8781 H   0  0  0  0  0  0  0  0  0  0  0  0
    0.3582    4.3861    3.9501 H   0  0  0  0  0  0  0  0  0  0  0  0
   -1.2509    4.0787    4.6002 H   0  0  0  0  0  0  0  0  0  0  0  0
    1.3777    2.9123    2.2791 H   0  0  0  0  0  0  0  0  0  0  0  0
    0.1161    2.1042    1.3639 H   0  0  0  0  0  0  0  0  0  0  0  0
  1  2  2  0
  1 36  1  0
  1 37  1  0
  2  6  1  0
  2  3  1  0
  3  4  1  0
  4  5  1  0
  4  6  1  0
  4 38  1  1
  5 39  1  0
  5 40  1  0
  5 41  1  0
  6  7  1  0
  6 42  1  1
  7 23  1  0
  7  8  1  0
  7 43  1  6
  8  9  1  0
  9 10  1  0
  9 11  1  0
  9 44  1  1
 10 45  1  0
 11 26  1  1
 11 31  1  0
 11 12  1  0
 12 35  1  0
 12 13  1  0
 12 46  1  1
 13 14  2  0
 13 47  1  0
 14 15  1  0
 14 23  1  0
 15 19  1  0
 15 16  1  0
 15 48  1  1
 16 17  1  0
 16 49  1  0
 16 50  1  0
 17 18  1  0
 17 51  1  0
 17 52  1  0
 18 20  1  0
 18 19  1  0
 18 53  1  6
 19 20  1  0
 19 54  1  1
 20 21  1  0
 20 22  1  0
 21 55  1  0
 21 56  1  0
 21 57  1  0
 22 58  1  0
 22 59  1  0
 22 60  1  0
 23 24  1  6
 23 26  1  0
 24 25  2  0
 24 61  1  0
 26 27  1  6
 26 28  1  0
 27 62  1  0
 27 63  1  0
 27 64  1  0
 28 29  2  0
 28 30  1  0
 30 31  1  0
 31 32  1  0
 31 65  1  1
 32 33  1  0
 32 34  1  0
 32 35  1  0
 33 66  1  0
 33 67  1  0
 33 68  1  0
 34 69  1  0
 34 70  1  0
 34 71  1  0
 35 72  1  0
 35 73  1  0
M  END
>  <i_m_ct_stereo_status>  (55) 
1

>  <s_m_source_file>  (55) 
/var/tmp/pbs.5076255.sched01/tmpuhafuy1n/0xc5aj8_e.sdf

>  <i_m_source_file_index>  (55) 
21

>  <i_lp_mmshare_version>  (55) 
48012

>  <i_f3d_flags>  (55) 
0

>  <s_epik_input>  (55) 
W0NIMl09QzFPW0NAQEhdKFtDSDNdKVtDQEhdMVtDQEhdKE9bQ0BIXTJbT0hdKVtDQF0oW0NIXT1PKShDKD1bQ0hdW0NASF0zW0NAXTI0NSlbQ0BIXShbQ0gyXVtDSDJdNilbQ0BASF0oW0NAQEhdNjcpQzcoW0NIM10pW0NIM10pW0NAQF00KFtDSDNdKUMoPU8pT1tDQEBIXTVDKFtDSDNdKShbQ0gzXSlbQ0gyXTM=

>  <s_epik_cmdline>  (55) 
J2VwaWtfcHl0aG9uJywgJy1waHQnLCAnMi4wJywgJy1waCcsICc3LjAnLCAnLXRuJywgJzgnLCAnLW1hJywgJzIwMCcsICctaW1hZScsICc8aW5maWxlLm1hZT4nLCAnLW9tYWUnLCAnPG91dGZpbGUubWFlPic=

>  <r_lp_tautomer_probability>  (55) 
1

>  <r_epik_Ionization_Penalty>  (55) 
9.54516e-07

>  <r_epik_Ionization_Penalty_Charging>  (55) 
0

>  <r_epik_Ionization_Penalty_Neutral>  (55) 
9.54516e-07

>  <r_epik_State_Penalty>  (55) 
-0

>  <r_epik_Charging_Adjusted_Penalty>  (55) 
0

>  <i_epik_Tot_Q>  (55) 
0

>  <i_epik_Tot_abs_Q>  (55) 
0

>  <s_epik_Chemistry_Notes>  (55) 
This compound has an ester and may undergo hydrolysis at high or low pH. This compound contains an acetal/aminal-like group ( X-CH(R)-Y where X, Y are N, S, or O) that may be acid/base labile, releasing an aldehyde.

>  <s_lp_Force_Field>  (55) 
OPLS3e

>  <r_lp_Energy>  (55) 
85.8166

>  <b_lp_Chiralities_Consistent>  (55) 
1

>  <s_lp_Variant>  (55) 
12:0-1

>  <s_i_glide_gridfile>  (55) 
pfpi4k_grid

>  <i_i_glide_lignum>  (55) 
21

>  <i_i_glide_rotatable_bonds>  (55) 
4

>  <r_i_docking_score>  (55) 
-1.95457

>  <r_i_glide_ligand_efficiency>  (55) 
-0.0558447

>  <r_i_glide_ligand_efficiency_sa>  (55) 
-0.182672

>  <r_i_glide_ligand_efficiency_ln>  (55) 
-0.429071

>  <r_i_glide_gscore>  (55) 
-1.95457

>  <r_i_glide_lipo>  (55) 
-0.416064

>  <r_i_glide_hbond>  (55) 
0

>  <r_i_glide_metal>  (55) 
-0

>  <r_i_glide_rewards>  (55) 
-0.118579

>  <r_i_glide_evdw>  (55) 
-24.6336

>  <r_i_glide_ecoul>  (55) 
-2.33446

>  <r_i_glide_erotb>  (55) 
0.174271

>  <r_i_glide_esite>  (55) 
-0.0123455

>  <r_i_glide_emodel>  (55) 
-29.6029

>  <r_i_glide_energy>  (55) 
-26.968

>  <r_i_glide_einternal>  (55) 
0.903494

>  <r_i_glide_intrahb_reward>  (55) 
-0

>  <i_i_glide_confnum>  (55) 
5

>  <i_i_glide_posenum>  (55) 
24

>  <r_i_glide_eff_state_penalty>  (55) 
0

>  <ligand_id>  (55) 
12

>  <original_smiles>  (55) 
C=C1OC(C)C1C1OC(O)C23C4C=C(C5CCC6C5C6(C)C)C1(C=O)C2(C)C(=O)OC3C(C)(C)C4

>  <smiles>  (55) 
[H]OC1([H])OC([H])(C2([H])C(=C([H])[H])OC2([H])C([H])([H])[H])C2(C([H])=O)C(C3([H])C([H])([H])C([H])([H])C4([H])C3([H])C4(C([H])([H])[H])C([H])([H])[H])=C([H])C3([H])C([H])([H])C(C([H])([H])[H])(C([H])([H])[H])C4([H])OC(=O)C2(C([H])([H])[H])C143

$$$$
14:0:0
     RDKit          3D

 28 30  0  0  1  0  0  0  0  0999 V2000
    5.0506    0.5028    4.6262 C   0  0  0  0  0  0  0  0  0  0  0  0
    4.6596    0.1441    3.1977 C   0  0  0  0  0  0  0  0  0  0  0  0
    5.6008   -0.4368    2.4139 C   0  0  0  0  0  0  0  0  0  0  0  0
    5.3453   -0.7991    1.0071 C   0  0  0  0  0  0  0  0  0  0  0  0
    6.2028   -1.3359    0.3068 O   0  0  0  0  0  0  0  0  0  0  0  0
    4.0225   -0.4673    0.4724 C   0  0  0  0  0  0  0  0  0  0  0  0
    3.0926    0.1106    1.2512 C   0  0  0  0  0  0  0  0  0  0  0  0
    3.3117    0.4349    2.6657 C   0  0  0  0  0  0  0  0  0  0  0  0
    2.3706    0.9904    3.4871 C   0  0  0  0  0  0  0  0  0  0  0  0
    1.0039    1.2968    3.2038 N   0  0  0  0  0  0  0  0  0  0  0  0
    0.3812    0.9056    2.0609 N   0  0  0  0  0  0  0  0  0  0  0  0
   -0.8510    1.3431    2.1191 C   0  0  0  0  0  0  0  0  0  0  0  0
   -1.1070    1.9894    3.3619 C   0  0  0  0  0  0  0  0  0  0  0  0
   -2.1820    2.6104    4.0263 C   0  0  0  0  0  0  0  0  0  0  0  0
   -1.9826    3.1130    5.2659 N   0  0  0  0  0  0  0  0  0  0  0  0
   -0.7704    3.0060    5.8169 C   0  0  0  0  0  0  0  0  0  0  0  0
    0.3364    2.4524    5.3143 N   0  0  0  0  0  0  0  0  0  0  0  0
    0.1231    1.9555    4.0615 C   0  0  0  0  0  0  0  0  0  0  0  0
    4.4275   -0.0403    5.3382 H   0  0  0  0  0  0  0  0  0  0  0  0
    4.9380    1.5748    4.7921 H   0  0  0  0  0  0  0  0  0  0  0  0
    6.0905    0.2470    4.8349 H   0  0  0  0  0  0  0  0  0  0  0  0
    6.5952   -0.6478    2.7882 H   0  0  0  0  0  0  0  0  0  0  0  0
    3.8153   -0.6785   -0.5668 H   0  0  0  0  0  0  0  0  0  0  0  0
    2.1820    0.3390    0.7277 H   0  0  0  0  0  0  0  0  0  0  0  0
    2.5946    1.2494    4.5117 H   0  0  0  0  0  0  0  0  0  0  0  0
   -1.5240    1.1598    1.2924 H   0  0  0  0  0  0  0  0  0  0  0  0
   -3.1680    2.6823    3.5866 H   0  0  0  0  0  0  0  0  0  0  0  0
   -0.6829    3.4224    6.8101 H   0  0  0  0  0  0  0  0  0  0  0  0
  1  2  1  0
  1 19  1  0
  1 20  1  0
  1 21  1  0
  2  8  1  0
  2  3  2  0
  3  4  1  0
  3 22  1  0
  4  5  2  0
  4  6  1  0
  6  7  2  0
  6 23  1  0
  7  8  1  0
  7 24  1  0
  8  9  2  3
  9 10  1  0
  9 25  1  0
 10 18  1  0
 10 11  1  0
 11 12  2  0
 12 13  1  0
 12 26  1  0
 13 18  2  0
 13 14  1  0
 14 15  2  0
 14 27  1  0
 15 16  1  0
 16 17  2  0
 16 28  1  0
 17 18  1  0
M  END
>  <i_m_ct_stereo_status>  (56) 
1

>  <s_m_source_file>  (56) 
/var/tmp/pbs.5076255.sched01/tmpuhafuy1n/0xc5aj8_e.sdf

>  <i_m_source_file_index>  (56) 
23

>  <i_lp_mmshare_version>  (56) 
48012

>  <i_f3d_flags>  (56) 
0

>  <s_epik_input>  (56) 
W0NIM11DMT1bQ0hdQyg9TylbQ0hdPVtDSF1DXDE9W0NIXS9uKG5bY0hdMiljKGMyMyluW2NIXW5bY0hdMw==

>  <s_epik_cmdline>  (56) 
J2VwaWtfcHl0aG9uJywgJy1waHQnLCAnMi4wJywgJy1waCcsICc3LjAnLCAnLXRuJywgJzgnLCAnLW1hJywgJzIwMCcsICctaW1hZScsICc8aW5maWxlLm1hZT4nLCAnLW9tYWUnLCAnPG91dGZpbGUubWFlPic=

>  <r_lp_tautomer_probability>  (56) 
1

>  <r_epik_Ionization_Penalty>  (56) 
2.82301e-09

>  <r_epik_Ionization_Penalty_Charging>  (56) 
0

>  <r_epik_Ionization_Penalty_Neutral>  (56) 
2.82301e-09

>  <r_epik_State_Penalty>  (56) 
-0

>  <r_epik_Charging_Adjusted_Penalty>  (56) 
0

>  <i_epik_Tot_Q>  (56) 
0

>  <i_epik_Tot_abs_Q>  (56) 
0

>  <s_lp_Force_Field>  (56) 
OPLS3e

>  <r_lp_Energy>  (56) 
31.146

>  <b_lp_Chiralities_Consistent>  (56) 
1

>  <s_lp_Variant>  (56) 
14:0-1

>  <s_i_glide_gridfile>  (56) 
pfpi4k_grid

>  <i_i_glide_lignum>  (56) 
23

>  <i_i_glide_rotatable_bonds>  (56) 
1

>  <r_i_docking_score>  (56) 
-3.69043

>  <r_i_glide_ligand_efficiency>  (56) 
-0.205024

>  <r_i_glide_ligand_efficiency_sa>  (56) 
-0.537315

>  <r_i_glide_ligand_efficiency_ln>  (56) 
-0.948607

>  <r_i_glide_gscore>  (56) 
-3.69043

>  <r_i_glide_lipo>  (56) 
-0.305015

>  <r_i_glide_hbond>  (56) 
0

>  <r_i_glide_metal>  (56) 
-0

>  <r_i_glide_rewards>  (56) 
-1.96056

>  <r_i_glide_evdw>  (56) 
-21.5516

>  <r_i_glide_ecoul>  (56) 
-1.95331

>  <r_i_glide_erotb>  (56) 
0

>  <r_i_glide_esite>  (56) 
-0.0542808

>  <r_i_glide_emodel>  (56) 
-29.7222

>  <r_i_glide_energy>  (56) 
-23.5049

>  <r_i_glide_einternal>  (56) 
0.0733807

>  <r_i_glide_intrahb_reward>  (56) 
-0

>  <i_i_glide_confnum>  (56) 
2

>  <i_i_glide_posenum>  (56) 
12

>  <r_i_glide_eff_state_penalty>  (56) 
0

>  <ligand_id>  (56) 
14

>  <original_smiles>  (56) 
CC1=CC(=O)C=CC1=Cn1ncc2cncnc21

>  <smiles>  (56) 
[H]C1=C([H])C(=C([H])n2nc([H])c3c([H])nc([H])nc32)C(C([H])([H])[H])=C([H])C1=O

$$$$
14:0:1
     RDKit          3D

 28 30  0  0  1  0  0  0  0  0999 V2000
    0.4179    1.3711    2.1239 C   0  0  0  0  0  0  0  0  0  0  0  0
    0.2296    0.1038    2.9525 C   0  0  0  0  0  0  0  0  0  0  0  0
   -0.7145    0.1204    3.9285 C   0  0  0  0  0  0  0  0  0  0  0  0
   -0.9767   -1.0415    4.7989 C   0  0  0  0  0  0  0  0  0  0  0  0
   -1.8547   -1.0352    5.6577 O   0  0  0  0  0  0  0  0  0  0  0  0
   -0.1386   -2.2244    4.5831 C   0  0  0  0  0  0  0  0  0  0  0  0
    0.7954   -2.2405    3.6163 C   0  0  0  0  0  0  0  0  0  0  0  0
    1.0398   -1.1102    2.7087 C   0  0  0  0  0  0  0  0  0  0  0  0
    1.9469   -1.1175    1.6843 C   0  0  0  0  0  0  0  0  0  0  0  0
    2.7876   -2.1843    1.2374 N   0  0  0  0  0  0  0  0  0  0  0  0
    2.7287   -3.4452    1.7491 N   0  0  0  0  0  0  0  0  0  0  0  0
    3.6062   -4.1683    1.0969 C   0  0  0  0  0  0  0  0  0  0  0  0
    4.2704   -3.3995    0.0971 C   0  0  0  0  0  0  0  0  0  0  0  0
    5.2573   -3.5738   -0.8975 C   0  0  0  0  0  0  0  0  0  0  0  0
    5.6075   -2.5224   -1.6720 N   0  0  0  0  0  0  0  0  0  0  0  0
    4.9973   -1.3537   -1.4773 C   0  0  0  0  0  0  0  0  0  0  0  0
    4.0748   -1.0327   -0.5718 N   0  0  0  0  0  0  0  0  0  0  0  0
    3.7204   -2.0983    0.1985 C   0  0  0  0  0  0  0  0  0  0  0  0
    0.2019    1.1861    1.0698 H   0  0  0  0  0  0  0  0  0  0  0  0
    1.4394    1.7419    2.2249 H   0  0  0  0  0  0  0  0  0  0  0  0
   -0.2482    2.1683    2.4530 H   0  0  0  0  0  0  0  0  0  0  0  0
   -1.3207    1.0008    4.1060 H   0  0  0  0  0  0  0  0  0  0  0  0
   -0.2752   -3.0782    5.2273 H   0  0  0  0  0  0  0  0  0  0  0  0
    1.3629   -3.1544    3.5917 H   0  0  0  0  0  0  0  0  0  0  0  0
    2.0959   -0.2492    1.0568 H   0  0  0  0  0  0  0  0  0  0  0  0
    3.7446   -5.2070    1.3503 H   0  0  0  0  0  0  0  0  0  0  0  0
    5.7458   -4.5247   -1.0610 H   0  0  0  0  0  0  0  0  0  0  0  0
    5.3171   -0.5602   -2.1374 H   0  0  0  0  0  0  0  0  0  0  0  0
  1  2  1  0
  1 19  1  0
  1 20  1  0
  1 21  1  0
  2  8  1  0
  2  3  2  0
  3  4  1  0
  3 22  1  0
  4  5  2  0
  4  6  1  0
  6  7  2  0
  6 23  1  0
  7  8  1  0
  7 24  1  0
  8  9  2  3
  9 10  1  0
  9 25  1  0
 10 18  1  0
 10 11  1  0
 11 12  2  0
 12 13  1  0
 12 26  1  0
 13 18  2  0
 13 14  1  0
 14 15  2  0
 14 27  1  0
 15 16  1  0
 16 17  2  0
 16 28  1  0
 17 18  1  0
M  END
>  <i_m_ct_stereo_status>  (57) 
1

>  <s_m_source_file>  (57) 
/var/tmp/pbs.5076255.sched01/tmpuhafuy1n/0xc5aj8_e.sdf

>  <i_m_source_file_index>  (57) 
23

>  <i_lp_mmshare_version>  (57) 
48012

>  <i_f3d_flags>  (57) 
0

>  <s_epik_input>  (57) 
W0NIM11DMT1bQ0hdQyg9TylbQ0hdPVtDSF1DXDE9W0NIXS9uKG5bY0hdMiljKGMyMyluW2NIXW5bY0hdMw==

>  <s_epik_cmdline>  (57) 
J2VwaWtfcHl0aG9uJywgJy1waHQnLCAnMi4wJywgJy1waCcsICc3LjAnLCAnLXRuJywgJzgnLCAnLW1hJywgJzIwMCcsICctaW1hZScsICc8aW5maWxlLm1hZT4nLCAnLW9tYWUnLCAnPG91dGZpbGUubWFlPic=

>  <r_lp_tautomer_probability>  (57) 
1

>  <r_epik_Ionization_Penalty>  (57) 
2.82301e-09

>  <r_epik_Ionization_Penalty_Charging>  (57) 
0

>  <r_epik_Ionization_Penalty_Neutral>  (57) 
2.82301e-09

>  <r_epik_State_Penalty>  (57) 
-0

>  <r_epik_Charging_Adjusted_Penalty>  (57) 
0

>  <i_epik_Tot_Q>  (57) 
0

>  <i_epik_Tot_abs_Q>  (57) 
0

>  <s_lp_Force_Field>  (57) 
OPLS3e

>  <r_lp_Energy>  (57) 
31.146

>  <b_lp_Chiralities_Consistent>  (57) 
1

>  <s_lp_Variant>  (57) 
14:0-1

>  <s_i_glide_gridfile>  (57) 
pfpi4k_grid

>  <i_i_glide_lignum>  (57) 
23

>  <i_i_glide_rotatable_bonds>  (57) 
1

>  <r_i_docking_score>  (57) 
-3.64898

>  <r_i_glide_ligand_efficiency>  (57) 
-0.202721

>  <r_i_glide_ligand_efficiency_sa>  (57) 
-0.531279

>  <r_i_glide_ligand_efficiency_ln>  (57) 
-0.93795

>  <r_i_glide_gscore>  (57) 
-3.64898

>  <r_i_glide_lipo>  (57) 
-0.149844

>  <r_i_glide_hbond>  (57) 
-0.0265886

>  <r_i_glide_metal>  (57) 
-0

>  <r_i_glide_rewards>  (57) 
-1.7847

>  <r_i_glide_evdw>  (57) 
-22.0503

>  <r_i_glide_ecoul>  (57) 
-2.88185

>  <r_i_glide_erotb>  (57) 
0

>  <r_i_glide_esite>  (57) 
-0.153055

>  <r_i_glide_emodel>  (57) 
-31.1183

>  <r_i_glide_energy>  (57) 
-24.9321

>  <r_i_glide_einternal>  (57) 
0.0067107

>  <r_i_glide_intrahb_reward>  (57) 
-0

>  <i_i_glide_confnum>  (57) 
1

>  <i_i_glide_posenum>  (57) 
38

>  <r_i_glide_eff_state_penalty>  (57) 
0

>  <ligand_id>  (57) 
14

>  <original_smiles>  (57) 
CC1=CC(=O)C=CC1=Cn1ncc2cncnc21

>  <smiles>  (57) 
[H]C1=C([H])C(=C([H])n2nc([H])c3c([H])nc([H])nc32)C(C([H])([H])[H])=C([H])C1=O

$$$$
14:0:2
     RDKit          3D

 28 30  0  0  1  0  0  0  0  0999 V2000
   -1.7627    0.3842    5.1821 C   0  0  0  0  0  0  0  0  0  0  0  0
   -0.5915   -0.0590    4.3173 C   0  0  0  0  0  0  0  0  0  0  0  0
   -0.1149    0.8194    3.4006 C   0  0  0  0  0  0  0  0  0  0  0  0
    1.0178    0.4999    2.5159 C   0  0  0  0  0  0  0  0  0  0  0  0
    1.4818    1.3201    1.7302 O   0  0  0  0  0  0  0  0  0  0  0  0
    1.5872   -0.8462    2.6297 C   0  0  0  0  0  0  0  0  0  0  0  0
    1.1204   -1.7141    3.5441 C   0  0  0  0  0  0  0  0  0  0  0  0
    0.0219   -1.3968    4.4648 C   0  0  0  0  0  0  0  0  0  0  0  0
   -0.4319   -2.2370    5.4405 C   0  0  0  0  0  0  0  0  0  0  0  0
    0.0444   -3.5354    5.7873 N   0  0  0  0  0  0  0  0  0  0  0  0
    0.7422   -4.3203    4.9198 N   0  0  0  0  0  0  0  0  0  0  0  0
    1.0546   -5.4183    5.5692 C   0  0  0  0  0  0  0  0  0  0  0  0
    0.5107   -5.4112    6.8856 C   0  0  0  0  0  0  0  0  0  0  0  0
    0.4733   -6.2532    8.0172 C   0  0  0  0  0  0  0  0  0  0  0  0
   -0.1830   -5.8358    9.1204 N   0  0  0  0  0  0  0  0  0  0  0  0
   -0.7911   -4.6461    9.1007 C   0  0  0  0  0  0  0  0  0  0  0  0
   -0.8492   -3.7426    8.1138 N   0  0  0  0  0  0  0  0  0  0  0  0
   -0.1662   -4.1742    7.0113 C   0  0  0  0  0  0  0  0  0  0  0  0
   -1.4803    0.4085    6.2364 H   0  0  0  0  0  0  0  0  0  0  0  0
   -2.6054   -0.2904    5.0354 H   0  0  0  0  0  0  0  0  0  0  0  0
   -2.0979    1.3883    4.9137 H   0  0  0  0  0  0  0  0  0  0  0  0
   -0.5423    1.8087    3.2877 H   0  0  0  0  0  0  0  0  0  0  0  0
    2.3895   -1.1164    1.9607 H   0  0  0  0  0  0  0  0  0  0  0  0
    1.6248   -2.6645    3.5364 H   0  0  0  0  0  0  0  0  0  0  0  0
   -1.2208   -1.9482    6.1195 H   0  0  0  0  0  0  0  0  0  0  0  0
    1.6510   -6.1773    5.0884 H   0  0  0  0  0  0  0  0  0  0  0  0
    0.9497   -7.2224    8.0372 H   0  0  0  0  0  0  0  0  0  0  0  0
   -1.2970   -4.3788   10.0174 H   0  0  0  0  0  0  0  0  0  0  0  0
  1  2  1  0
  1 19  1  0
  1 20  1  0
  1 21  1  0
  2  8  1  0
  2  3  2  0
  3  4  1  0
  3 22  1  0
  4  5  2  0
  4  6  1  0
  6  7  2  0
  6 23  1  0
  7  8  1  0
  7 24  1  0
  8  9  2  3
  9 10  1  0
  9 25  1  0
 10 18  1  0
 10 11  1  0
 11 12  2  0
 12 13  1  0
 12 26  1  0
 13 18  2  0
 13 14  1  0
 14 15  2  0
 14 27  1  0
 15 16  1  0
 16 17  2  0
 16 28  1  0
 17 18  1  0
M  END
>  <i_m_ct_stereo_status>  (58) 
1

>  <s_m_source_file>  (58) 
/var/tmp/pbs.5076255.sched01/tmpuhafuy1n/0xc5aj8_e.sdf

>  <i_m_source_file_index>  (58) 
23

>  <i_lp_mmshare_version>  (58) 
48012

>  <i_f3d_flags>  (58) 
0

>  <s_epik_input>  (58) 
W0NIM11DMT1bQ0hdQyg9TylbQ0hdPVtDSF1DXDE9W0NIXS9uKG5bY0hdMiljKGMyMyluW2NIXW5bY0hdMw==

>  <s_epik_cmdline>  (58) 
J2VwaWtfcHl0aG9uJywgJy1waHQnLCAnMi4wJywgJy1waCcsICc3LjAnLCAnLXRuJywgJzgnLCAnLW1hJywgJzIwMCcsICctaW1hZScsICc8aW5maWxlLm1hZT4nLCAnLW9tYWUnLCAnPG91dGZpbGUubWFlPic=

>  <r_lp_tautomer_probability>  (58) 
1

>  <r_epik_Ionization_Penalty>  (58) 
2.82301e-09

>  <r_epik_Ionization_Penalty_Charging>  (58) 
0

>  <r_epik_Ionization_Penalty_Neutral>  (58) 
2.82301e-09

>  <r_epik_State_Penalty>  (58) 
-0

>  <r_epik_Charging_Adjusted_Penalty>  (58) 
0

>  <i_epik_Tot_Q>  (58) 
0

>  <i_epik_Tot_abs_Q>  (58) 
0

>  <s_lp_Force_Field>  (58) 
OPLS3e

>  <r_lp_Energy>  (58) 
31.146

>  <b_lp_Chiralities_Consistent>  (58) 
1

>  <s_lp_Variant>  (58) 
14:0-1

>  <s_i_glide_gridfile>  (58) 
pfpi4k_grid

>  <i_i_glide_lignum>  (58) 
23

>  <i_i_glide_rotatable_bonds>  (58) 
1

>  <r_i_docking_score>  (58) 
-3.35998

>  <r_i_glide_ligand_efficiency>  (58) 
-0.186666

>  <r_i_glide_ligand_efficiency_sa>  (58) 
-0.489202

>  <r_i_glide_ligand_efficiency_ln>  (58) 
-0.863666

>  <r_i_glide_gscore>  (58) 
-3.35998

>  <r_i_glide_lipo>  (58) 
-0.00675269

>  <r_i_glide_hbond>  (58) 
-0.221569

>  <r_i_glide_metal>  (58) 
-0

>  <r_i_glide_rewards>  (58) 
-1.7847

>  <r_i_glide_evdw>  (58) 
-16.6926

>  <r_i_glide_ecoul>  (58) 
-2.9228

>  <r_i_glide_erotb>  (58) 
0

>  <r_i_glide_esite>  (58) 
-0.0739127

>  <r_i_glide_emodel>  (58) 
-24.6624

>  <r_i_glide_energy>  (58) 
-19.6154

>  <r_i_glide_einternal>  (58) 
1.2531

>  <r_i_glide_intrahb_reward>  (58) 
-0

>  <i_i_glide_confnum>  (58) 
2

>  <i_i_glide_posenum>  (58) 
4

>  <r_i_glide_eff_state_penalty>  (58) 
0

>  <ligand_id>  (58) 
14

>  <original_smiles>  (58) 
CC1=CC(=O)C=CC1=Cn1ncc2cncnc21

>  <smiles>  (58) 
[H]C1=C([H])C(=C([H])n2nc([H])c3c([H])nc([H])nc32)C(C([H])([H])[H])=C([H])C1=O

$$$$
14:1:0
     RDKit          3D

 28 30  0  0  1  0  0  0  0  0999 V2000
    2.3217   -2.3672    4.2148 C   0  0  0  0  0  0  0  0  0  0  0  0
    1.1573   -1.4459    3.8770 C   0  0  0  0  0  0  0  0  0  0  0  0
    1.4090   -0.5558    2.8896 C   0  0  0  0  0  0  0  0  0  0  0  0
    0.5053    0.5578    2.5677 C   0  0  0  0  0  0  0  0  0  0  0  0
    0.7481    1.3341    1.6509 O   0  0  0  0  0  0  0  0  0  0  0  0
   -0.6676    0.7270    3.4285 C   0  0  0  0  0  0  0  0  0  0  0  0
   -0.9337   -0.1625    4.4039 C   0  0  0  0  0  0  0  0  0  0  0  0
   -0.1151   -1.3496    4.6416 C   0  0  0  0  0  0  0  0  0  0  0  0
   -0.6090   -2.2212    5.5719 C   0  0  0  0  0  0  0  0  0  0  0  0
   -0.1326   -3.5055    5.9288 N   0  0  0  0  0  0  0  0  0  0  0  0
    0.4057   -4.3266    4.9966 N   0  0  0  0  0  0  0  0  0  0  0  0
    0.8484   -5.3842    5.6406 C   0  0  0  0  0  0  0  0  0  0  0  0
    0.4131   -5.3814    6.9903 C   0  0  0  0  0  0  0  0  0  0  0  0
    0.4550   -6.2234    8.1187 C   0  0  0  0  0  0  0  0  0  0  0  0
   -0.1866   -5.8431    9.2416 N   0  0  0  0  0  0  0  0  0  0  0  0
   -0.7817   -4.6463    9.2797 C   0  0  0  0  0  0  0  0  0  0  0  0
   -0.8549   -3.7178    8.3102 N   0  0  0  0  0  0  0  0  0  0  0  0
   -0.2538   -4.1429    7.1631 C   0  0  0  0  0  0  0  0  0  0  0  0
    2.3877   -2.5081    5.2925 H   0  0  0  0  0  0  0  0  0  0  0  0
    3.2772   -1.9711    3.8745 H   0  0  0  0  0  0  0  0  0  0  0  0
    2.1987   -3.3202    3.7048 H   0  0  0  0  0  0  0  0  0  0  0  0
    2.3365   -0.5916    2.3371 H   0  0  0  0  0  0  0  0  0  0  0  0
   -1.2836    1.6036    3.2637 H   0  0  0  0  0  0  0  0  0  0  0  0
   -1.8077    0.0344    5.0174 H   0  0  0  0  0  0  0  0  0  0  0  0
   -1.4954   -1.9862    6.1422 H   0  0  0  0  0  0  0  0  0  0  0  0
    1.4426   -6.1220    5.1218 H   0  0  0  0  0  0  0  0  0  0  0  0
    0.9125   -7.2007    8.0849 H   0  0  0  0  0  0  0  0  0  0  0  0
   -1.2807   -4.4034   10.2148 H   0  0  0  0  0  0  0  0  0  0  0  0
  1  2  1  0
  1 19  1  0
  1 20  1  0
  1 21  1  0
  2  8  1  0
  2  3  2  0
  3  4  1  0
  3 22  1  0
  4  5  2  0
  4  6  1  0
  6  7  2  0
  6 23  1  0
  7  8  1  0
  7 24  1  0
  8  9  2  3
  9 10  1  0
  9 25  1  0
 10 18  1  0
 10 11  1  0
 11 12  2  0
 12 13  1  0
 12 26  1  0
 13 18  2  0
 13 14  1  0
 14 15  2  0
 14 27  1  0
 15 16  1  0
 16 17  2  0
 16 28  1  0
 17 18  1  0
M  END
>  <i_m_ct_stereo_status>  (59) 
1

>  <s_m_source_file>  (59) 
/var/tmp/pbs.5076255.sched01/tmpuhafuy1n/0xc5aj8_e.sdf

>  <i_m_source_file_index>  (59) 
24

>  <i_lp_mmshare_version>  (59) 
48012

>  <i_f3d_flags>  (59) 
0

>  <s_epik_input>  (59) 
W0NIM11DMT1bQ0hdQyg9TylbQ0hdPVtDSF1DXDE9W0NIXS9uKG5bY0hdMiljKGMyMyluW2NIXW5bY0hdMw==

>  <s_epik_cmdline>  (59) 
J2VwaWtfcHl0aG9uJywgJy1waHQnLCAnMi4wJywgJy1waCcsICc3LjAnLCAnLXRuJywgJzgnLCAnLW1hJywgJzIwMCcsICctaW1hZScsICc8aW5maWxlLm1hZT4nLCAnLW9tYWUnLCAnPG91dGZpbGUubWFlPic=

>  <r_lp_tautomer_probability>  (59) 
1

>  <r_epik_Ionization_Penalty>  (59) 
2.82301e-09

>  <r_epik_Ionization_Penalty_Charging>  (59) 
0

>  <r_epik_Ionization_Penalty_Neutral>  (59) 
2.82301e-09

>  <r_epik_State_Penalty>  (59) 
-0

>  <r_epik_Charging_Adjusted_Penalty>  (59) 
0

>  <i_epik_Tot_Q>  (59) 
0

>  <i_epik_Tot_abs_Q>  (59) 
0

>  <s_lp_Force_Field>  (59) 
OPLS3e

>  <r_lp_Energy>  (59) 
35.0434

>  <b_lp_Chiralities_Consistent>  (59) 
1

>  <s_lp_Variant>  (59) 
14:0-2

>  <s_i_glide_gridfile>  (59) 
pfpi4k_grid

>  <i_i_glide_lignum>  (59) 
24

>  <i_i_glide_rotatable_bonds>  (59) 
1

>  <r_i_docking_score>  (59) 
-3.32344

>  <r_i_glide_ligand_efficiency>  (59) 
-0.184635

>  <r_i_glide_ligand_efficiency_sa>  (59) 
-0.483882

>  <r_i_glide_ligand_efficiency_ln>  (59) 
-0.854272

>  <r_i_glide_gscore>  (59) 
-3.32344

>  <r_i_glide_lipo>  (59) 
-6.18509e-06

>  <r_i_glide_hbond>  (59) 
-0.281937

>  <r_i_glide_metal>  (59) 
-0

>  <r_i_glide_rewards>  (59) 
-1.7847

>  <r_i_glide_evdw>  (59) 
-15.4754

>  <r_i_glide_ecoul>  (59) 
-2.63441

>  <r_i_glide_erotb>  (59) 
0

>  <r_i_glide_esite>  (59) 
-0.0878651

>  <r_i_glide_emodel>  (59) 
-20.3185

>  <r_i_glide_energy>  (59) 
-18.1099

>  <r_i_glide_einternal>  (59) 
1.73367

>  <r_i_glide_intrahb_reward>  (59) 
-0

>  <i_i_glide_confnum>  (59) 
2

>  <i_i_glide_posenum>  (59) 
5

>  <r_i_glide_eff_state_penalty>  (59) 
0

>  <ligand_id>  (59) 
14

>  <original_smiles>  (59) 
CC1=CC(=O)C=CC1=Cn1ncc2cncnc21

>  <smiles>  (59) 
[H]C1=C([H])C(=C([H])n2nc([H])c3c([H])nc([H])nc32)C(C([H])([H])[H])=C([H])C1=O

$$$$
16:0:0
     RDKit          3D

 30 33  0  0  1  0  0  0  0  0999 V2000
    1.9433   -4.2559    2.8566 C   0  0  0  0  0  0  0  0  0  0  0  0
    1.8588   -5.6916    2.3221 C   0  0  0  0  0  0  0  0  0  0  0  0
    0.5925   -6.2834    2.1231 N   0  0  0  0  0  0  0  0  0  0  0  0
    0.7492   -7.5805    1.7677 C   0  0  0  0  0  0  0  0  0  0  0  0
    2.0800   -7.8578    1.6767 N   0  0  0  0  0  0  0  0  0  0  0  0
    2.6061   -9.0414    1.3422 N   0  0  0  0  0  0  0  0  0  0  0  0
    3.9642   -8.9942    1.3303 C   0  0  0  0  0  0  0  0  0  0  0  0
    4.7769   -7.9317    1.6089 N   0  0  0  0  0  0  0  0  0  0  0  0
    4.1818   -6.7568    1.9444 C   0  0  0  0  0  0  0  0  0  0  0  0
    5.0247   -5.7297    2.2716 O   0  0  0  0  0  0  0  0  0  0  0  0
    5.3115   -4.8001    1.3009 C   0  0  0  0  0  0  0  0  0  0  0  0
    6.6520   -4.5583    0.9544 C   0  0  0  0  0  0  0  0  0  0  0  0
    6.9552   -3.5777   -0.0171 C   0  0  0  0  0  0  0  0  0  0  0  0
    5.9186   -2.8105   -0.5869 C   0  0  0  0  0  0  0  0  0  0  0  0
    6.0080   -1.8210   -1.5469 O   0  0  0  0  0  0  0  0  0  0  0  0
    4.7212   -1.3902   -1.7783 C   0  0  0  0  0  0  0  0  0  0  0  0
    3.7986   -2.0652   -1.0157 C   0  0  0  0  0  0  0  0  0  0  0  0
    4.5613   -3.0209   -0.2613 C   0  0  0  0  0  0  0  0  0  0  0  0
    4.2959   -4.0854    0.6164 C   0  0  0  0  0  0  0  0  0  0  0  0
    2.7676   -6.6939    1.9913 C   0  0  0  0  0  0  0  0  0  0  0  0
    2.5381   -4.2132    3.7666 H   0  0  0  0  0  0  0  0  0  0  0  0
    0.9365   -3.8474    2.9817 H   0  0  0  0  0  0  0  0  0  0  0  0
    2.3646   -3.4837    2.1754 H   0  0  0  0  0  0  0  0  0  0  0  0
   -0.0639   -8.2713    1.5827 H   0  0  0  0  0  0  0  0  0  0  0  0
    4.4496   -9.9207    1.0606 H   0  0  0  0  0  0  0  0  0  0  0  0
    7.4316   -5.1672    1.4095 H   0  0  0  0  0  0  0  0  0  0  0  0
    7.9733   -3.4112   -0.3334 H   0  0  0  0  0  0  0  0  0  0  0  0
    4.6230   -0.5976   -2.5098 H   0  0  0  0  0  0  0  0  0  0  0  0
    2.7166   -1.9235   -1.0013 H   0  0  0  0  0  0  0  0  0  0  0  0
    3.2525   -4.3734    0.6894 H   0  0  0  0  0  0  0  0  0  0  0  0
  1  2  1  0
  1 21  1  0
  1 22  1  0
  1 23  1  0
  2 20  2  0
  2  3  1  0
  3  4  2  0
  4  5  1  0
  4 24  1  0
  5 20  1  0
  5  6  1  0
  6  7  2  0
  7  8  1  0
  7 25  1  0
  8  9  2  0
  9 10  1  0
  9 20  1  0
 10 11  1  0
 11 19  1  0
 11 12  2  0
 12 13  1  0
 12 26  1  0
 13 14  2  0
 13 27  1  0
 14 18  1  0
 14 15  1  0
 15 16  1  0
 16 17  2  0
 16 28  1  0
 17 18  1  0
 17 29  1  0
 18 19  2  0
 19 30  1  0
M  END
>  <i_m_ct_stereo_status>  (60) 
1

>  <s_m_source_file>  (60) 
/var/tmp/pbs.5076255.sched01/tmpuhafuy1n/0xc5aj8_e.sdf

>  <i_m_source_file_index>  (60) 
26

>  <i_lp_mmshare_version>  (60) 
48012

>  <i_f3d_flags>  (60) 
0

>  <s_epik_input>  (60) 
W2NIXTFuYyhbQ0gzXSljKG4xMiljKG5bY0hdbjIpT2MoW2NIXVtjSF0zKVtjSF1jKGMzNClbY0hdW2NIXW80

>  <s_epik_cmdline>  (60) 
J2VwaWtfcHl0aG9uJywgJy1waHQnLCAnMi4wJywgJy1waCcsICc3LjAnLCAnLXRuJywgJzgnLCAnLW1hJywgJzIwMCcsICctaW1hZScsICc8aW5maWxlLm1hZT4nLCAnLW9tYWUnLCAnPG91dGZpbGUubWFlPic=

>  <r_epik_Ionization_Penalty>  (60) 
0.00648814

>  <r_epik_Ionization_Penalty_Charging>  (60) 
0

>  <r_epik_Ionization_Penalty_Neutral>  (60) 
0.00648814

>  <r_epik_State_Penalty>  (60) 
0.00480042

>  <r_epik_Charging_Adjusted_Penalty>  (60) 
0.00480042

>  <i_epik_Tot_Q>  (60) 
0

>  <i_epik_Tot_abs_Q>  (60) 
0

>  <s_lp_Force_Field>  (60) 
OPLS3e

>  <r_lp_Energy>  (60) 
25.376

>  <b_lp_Chiralities_Consistent>  (60) 
1

>  <s_lp_Variant>  (60) 
16:0-1

>  <s_i_glide_gridfile>  (60) 
pfpi4k_grid

>  <i_i_glide_lignum>  (60) 
26

>  <i_i_glide_rotatable_bonds>  (60) 
2

>  <r_i_docking_score>  (60) 
-3.79599

>  <r_i_glide_ligand_efficiency>  (60) 
-0.189799

>  <r_i_glide_ligand_efficiency_sa>  (60) 
-0.515195

>  <r_i_glide_ligand_efficiency_ln>  (60) 
-0.95001

>  <r_i_glide_gscore>  (60) 
-3.79599

>  <r_i_glide_lipo>  (60) 
-0.361726

>  <r_i_glide_hbond>  (60) 
-0.191013

>  <r_i_glide_metal>  (60) 
-0

>  <r_i_glide_rewards>  (60) 
-1.59372

>  <r_i_glide_evdw>  (60) 
-22.95

>  <r_i_glide_ecoul>  (60) 
-5.81547

>  <r_i_glide_erotb>  (60) 
0.502476

>  <r_i_glide_esite>  (60) 
-0.132185

>  <r_i_glide_emodel>  (60) 
-33.2404

>  <r_i_glide_energy>  (60) 
-28.7655

>  <r_i_glide_einternal>  (60) 
2.89032

>  <r_i_glide_intrahb_reward>  (60) 
-0

>  <i_i_glide_confnum>  (60) 
1

>  <i_i_glide_posenum>  (60) 
10

>  <r_i_glide_eff_state_penalty>  (60) 
0

>  <ligand_id>  (60) 
16

>  <original_smiles>  (60) 
Cc1ncn2ncnc(Oc3ccc4occc4c3)c12

>  <smiles>  (60) 
[H]c1nc(Oc2c([H])c([H])c3oc([H])c([H])c3c2[H])c2c(C([H])([H])[H])nc([H])n2n1

$$$$
16:0:1
     RDKit          3D

 30 33  0  0  1  0  0  0  0  0999 V2000
    4.4892   -7.6966    0.6366 C   0  0  0  0  0  0  0  0  0  0  0  0
    3.4827   -7.1756    1.6201 C   0  0  0  0  0  0  0  0  0  0  0  0
    2.7360   -8.0513    2.4275 N   0  0  0  0  0  0  0  0  0  0  0  0
    1.9184   -7.3174    3.2050 C   0  0  0  0  0  0  0  0  0  0  0  0
    2.0998   -5.9949    2.9301 N   0  0  0  0  0  0  0  0  0  0  0  0
    1.4607   -4.9792    3.5076 N   0  0  0  0  0  0  0  0  0  0  0  0
    1.8821   -3.7812    3.0116 C   0  0  0  0  0  0  0  0  0  0  0  0
    2.8173   -3.5406    2.0432 N   0  0  0  0  0  0  0  0  0  0  0  0
    3.4325   -4.6260    1.4959 C   0  0  0  0  0  0  0  0  0  0  0  0
    4.4055   -4.4505    0.5385 O   0  0  0  0  0  0  0  0  0  0  0  0
    4.3608   -3.3506   -0.2803 C   0  0  0  0  0  0  0  0  0  0  0  0
    5.1742   -2.2331   -0.0014 C   0  0  0  0  0  0  0  0  0  0  0  0
    5.1643   -1.1281   -0.8742 C   0  0  0  0  0  0  0  0  0  0  0  0
    4.3486   -1.1764   -2.0159 C   0  0  0  0  0  0  0  0  0  0  0  0
    4.2154   -0.2099   -2.9884 O   0  0  0  0  0  0  0  0  0  0  0  0
    3.3136   -0.6861   -3.9036 C   0  0  0  0  0  0  0  0  0  0  0  0
    2.8677   -1.9431   -3.5706 C   0  0  0  0  0  0  0  0  0  0  0  0
    3.5194   -2.2798   -2.3325 C   0  0  0  0  0  0  0  0  0  0  0  0
    3.5375   -3.3669   -1.4300 C   0  0  0  0  0  0  0  0  0  0  0  0
    3.0666   -5.9091    1.9524 C   0  0  0  0  0  0  0  0  0  0  0  0
    4.2345   -7.4226   -0.3874 H   0  0  0  0  0  0  0  0  0  0  0  0
    4.5308   -8.7843    0.6736 H   0  0  0  0  0  0  0  0  0  0  0  0
    5.4951   -7.3290    0.8438 H   0  0  0  0  0  0  0  0  0  0  0  0
    1.2305   -7.7199    3.9300 H   0  0  0  0  0  0  0  0  0  0  0  0
    1.4040   -2.9112    3.4343 H   0  0  0  0  0  0  0  0  0  0  0  0
    5.7971   -2.2337    0.8800 H   0  0  0  0  0  0  0  0  0  0  0  0
    5.7657   -0.2581   -0.6654 H   0  0  0  0  0  0  0  0  0  0  0  0
    3.0825   -0.0056   -4.7110 H   0  0  0  0  0  0  0  0  0  0  0  0
    2.1456   -2.5427   -4.0997 H   0  0  0  0  0  0  0  0  0  0  0  0
    2.9256   -4.2337   -1.6315 H   0  0  0  0  0  0  0  0  0  0  0  0
  1  2  1  0
  1 21  1  0
  1 22  1  0
  1 23  1  0
  2 20  2  0
  2  3  1  0
  3  4  2  0
  4  5  1  0
  4 24  1  0
  5 20  1  0
  5  6  1  0
  6  7  2  0
  7  8  1  0
  7 25  1  0
  8  9  2  0
  9 10  1  0
  9 20  1  0
 10 11  1  0
 11 19  1  0
 11 12  2  0
 12 13  1  0
 12 26  1  0
 13 14  2  0
 13 27  1  0
 14 18  1  0
 14 15  1  0
 15 16  1  0
 16 17  2  0
 16 28  1  0
 17 18  1  0
 17 29  1  0
 18 19  2  0
 19 30  1  0
M  END
>  <i_m_ct_stereo_status>  (61) 
1

>  <s_m_source_file>  (61) 
/var/tmp/pbs.5076255.sched01/tmpuhafuy1n/0xc5aj8_e.sdf

>  <i_m_source_file_index>  (61) 
26

>  <i_lp_mmshare_version>  (61) 
48012

>  <i_f3d_flags>  (61) 
0

>  <s_epik_input>  (61) 
W2NIXTFuYyhbQ0gzXSljKG4xMiljKG5bY0hdbjIpT2MoW2NIXVtjSF0zKVtjSF1jKGMzNClbY0hdW2NIXW80

>  <s_epik_cmdline>  (61) 
J2VwaWtfcHl0aG9uJywgJy1waHQnLCAnMi4wJywgJy1waCcsICc3LjAnLCAnLXRuJywgJzgnLCAnLW1hJywgJzIwMCcsICctaW1hZScsICc8aW5maWxlLm1hZT4nLCAnLW9tYWUnLCAnPG91dGZpbGUubWFlPic=

>  <r_epik_Ionization_Penalty>  (61) 
0.00648814

>  <r_epik_Ionization_Penalty_Charging>  (61) 
0

>  <r_epik_Ionization_Penalty_Neutral>  (61) 
0.00648814

>  <r_epik_State_Penalty>  (61) 
0.00480042

>  <r_epik_Charging_Adjusted_Penalty>  (61) 
0.00480042

>  <i_epik_Tot_Q>  (61) 
0

>  <i_epik_Tot_abs_Q>  (61) 
0

>  <s_lp_Force_Field>  (61) 
OPLS3e

>  <r_lp_Energy>  (61) 
25.376

>  <b_lp_Chiralities_Consistent>  (61) 
1

>  <s_lp_Variant>  (61) 
16:0-1

>  <s_i_glide_gridfile>  (61) 
pfpi4k_grid

>  <i_i_glide_lignum>  (61) 
26

>  <i_i_glide_rotatable_bonds>  (61) 
2

>  <r_i_docking_score>  (61) 
-3.25896

>  <r_i_glide_ligand_efficiency>  (61) 
-0.162948

>  <r_i_glide_ligand_efficiency_sa>  (61) 
-0.44231

>  <r_i_glide_ligand_efficiency_ln>  (61) 
-0.815611

>  <r_i_glide_gscore>  (61) 
-3.25896

>  <r_i_glide_lipo>  (61) 
-0.666289

>  <r_i_glide_hbond>  (61) 
0

>  <r_i_glide_metal>  (61) 
-0

>  <r_i_glide_rewards>  (61) 
-1.59372

>  <r_i_glide_evdw>  (61) 
-24.4589

>  <r_i_glide_ecoul>  (61) 
-1.74837

>  <r_i_glide_erotb>  (61) 
0.502476

>  <r_i_glide_esite>  (61) 
-0.0162352

>  <r_i_glide_emodel>  (61) 
-32.4753

>  <r_i_glide_energy>  (61) 
-26.2072

>  <r_i_glide_einternal>  (61) 
0.391506

>  <r_i_glide_intrahb_reward>  (61) 
-0

>  <i_i_glide_confnum>  (61) 
4

>  <i_i_glide_posenum>  (61) 
3

>  <r_i_glide_eff_state_penalty>  (61) 
0

>  <ligand_id>  (61) 
16

>  <original_smiles>  (61) 
Cc1ncn2ncnc(Oc3ccc4occc4c3)c12

>  <smiles>  (61) 
[H]c1nc(Oc2c([H])c([H])c3oc([H])c([H])c3c2[H])c2c(C([H])([H])[H])nc([H])n2n1

$$$$
16:0:2
     RDKit          3D

 30 33  0  0  1  0  0  0  0  0999 V2000
    1.8975   -5.3657    5.7691 C   0  0  0  0  0  0  0  0  0  0  0  0
    0.9980   -6.3280    5.0484 C   0  0  0  0  0  0  0  0  0  0  0  0
    0.2029   -7.2431    5.7569 N   0  0  0  0  0  0  0  0  0  0  0  0
   -0.4881   -7.9833    4.8682 C   0  0  0  0  0  0  0  0  0  0  0  0
   -0.1831   -7.5704    3.6062 N   0  0  0  0  0  0  0  0  0  0  0  0
   -0.6892   -8.0646    2.4820 N   0  0  0  0  0  0  0  0  0  0  0  0
   -0.1693   -7.4417    1.3883 C   0  0  0  0  0  0  0  0  0  0  0  0
    0.7266   -6.4087    1.3365 N   0  0  0  0  0  0  0  0  0  0  0  0
    1.2102   -5.9567    2.5288 C   0  0  0  0  0  0  0  0  0  0  0  0
    2.1076   -4.9140    2.5527 O   0  0  0  0  0  0  0  0  0  0  0  0
    2.9403   -4.6960    1.4816 C   0  0  0  0  0  0  0  0  0  0  0  0
    3.9620   -5.6173    1.1605 C   0  0  0  0  0  0  0  0  0  0  0  0
    4.8357   -5.3452    0.0904 C   0  0  0  0  0  0  0  0  0  0  0  0
    4.6654   -4.1547   -0.6351 C   0  0  0  0  0  0  0  0  0  0  0  0
    5.4129   -3.7077   -1.7044 O   0  0  0  0  0  0  0  0  0  0  0  0
    4.8795   -2.5052   -2.0840 C   0  0  0  0  0  0  0  0  0  0  0  0
    3.8155   -2.1416   -1.2943 C   0  0  0  0  0  0  0  0  0  0  0  0
    3.6539   -3.2059   -0.3431 C   0  0  0  0  0  0  0  0  0  0  0  0
    2.7971   -3.5024    0.7406 C   0  0  0  0  0  0  0  0  0  0  0  0
    0.7387   -6.5524    3.7166 C   0  0  0  0  0  0  0  0  0  0  0  0
    2.9450   -5.5189    5.5104 H   0  0  0  0  0  0  0  0  0  0  0  0
    1.8155   -5.5010    6.8467 H   0  0  0  0  0  0  0  0  0  0  0  0
    1.6432   -4.3271    5.5572 H   0  0  0  0  0  0  0  0  0  0  0  0
   -1.1799   -8.7713    5.1163 H   0  0  0  0  0  0  0  0  0  0  0  0
   -0.5414   -7.8014    0.4421 H   0  0  0  0  0  0  0  0  0  0  0  0
    4.0772   -6.5221    1.7379 H   0  0  0  0  0  0  0  0  0  0  0  0
    5.6247   -6.0317   -0.1697 H   0  0  0  0  0  0  0  0  0  0  0  0
    5.3640   -2.0395   -2.9287 H   0  0  0  0  0  0  0  0  0  0  0  0
    3.2001   -1.2550   -1.3614 H   0  0  0  0  0  0  0  0  0  0  0  0
    2.0252   -2.7944    1.0068 H   0  0  0  0  0  0  0  0  0  0  0  0
  1  2  1  0
  1 21  1  0
  1 22  1  0
  1 23  1  0
  2 20  2  0
  2  3  1  0
  3  4  2  0
  4  5  1  0
  4 24  1  0
  5 20  1  0
  5  6  1  0
  6  7  2  0
  7  8  1  0
  7 25  1  0
  8  9  2  0
  9 10  1  0
  9 20  1  0
 10 11  1  0
 11 19  1  0
 11 12  2  0
 12 13  1  0
 12 26  1  0
 13 14  2  0
 13 27  1  0
 14 18  1  0
 14 15  1  0
 15 16  1  0
 16 17  2  0
 16 28  1  0
 17 18  1  0
 17 29  1  0
 18 19  2  0
 19 30  1  0
M  END
>  <i_m_ct_stereo_status>  (62) 
1

>  <s_m_source_file>  (62) 
/var/tmp/pbs.5076255.sched01/tmpuhafuy1n/0xc5aj8_e.sdf

>  <i_m_source_file_index>  (62) 
26

>  <i_lp_mmshare_version>  (62) 
48012

>  <i_f3d_flags>  (62) 
0

>  <s_epik_input>  (62) 
W2NIXTFuYyhbQ0gzXSljKG4xMiljKG5bY0hdbjIpT2MoW2NIXVtjSF0zKVtjSF1jKGMzNClbY0hdW2NIXW80

>  <s_epik_cmdline>  (62) 
J2VwaWtfcHl0aG9uJywgJy1waHQnLCAnMi4wJywgJy1waCcsICc3LjAnLCAnLXRuJywgJzgnLCAnLW1hJywgJzIwMCcsICctaW1hZScsICc8aW5maWxlLm1hZT4nLCAnLW9tYWUnLCAnPG91dGZpbGUubWFlPic=

>  <r_epik_Ionization_Penalty>  (62) 
0.00648814

>  <r_epik_Ionization_Penalty_Charging>  (62) 
0

>  <r_epik_Ionization_Penalty_Neutral>  (62) 
0.00648814

>  <r_epik_State_Penalty>  (62) 
0.00480042

>  <r_epik_Charging_Adjusted_Penalty>  (62) 
0.00480042

>  <i_epik_Tot_Q>  (62) 
0

>  <i_epik_Tot_abs_Q>  (62) 
0

>  <s_lp_Force_Field>  (62) 
OPLS3e

>  <r_lp_Energy>  (62) 
25.376

>  <b_lp_Chiralities_Consistent>  (62) 
1

>  <s_lp_Variant>  (62) 
16:0-1

>  <s_i_glide_gridfile>  (62) 
pfpi4k_grid

>  <i_i_glide_lignum>  (62) 
26

>  <i_i_glide_rotatable_bonds>  (62) 
2

>  <r_i_docking_score>  (62) 
-3.21822

>  <r_i_glide_ligand_efficiency>  (62) 
-0.160911

>  <r_i_glide_ligand_efficiency_sa>  (62) 
-0.436779

>  <r_i_glide_ligand_efficiency_ln>  (62) 
-0.805414

>  <r_i_glide_gscore>  (62) 
-3.21822

>  <r_i_glide_lipo>  (62) 
-0.12366

>  <r_i_glide_hbond>  (62) 
-0.16

>  <r_i_glide_metal>  (62) 
-0

>  <r_i_glide_rewards>  (62) 
-1.59372

>  <r_i_glide_evdw>  (62) 
-22.471

>  <r_i_glide_ecoul>  (62) 
-3.54268

>  <r_i_glide_erotb>  (62) 
0.502476

>  <r_i_glide_esite>  (62) 
-0.188364

>  <r_i_glide_emodel>  (62) 
-32.2398

>  <r_i_glide_energy>  (62) 
-26.0137

>  <r_i_glide_einternal>  (62) 
0.302569

>  <r_i_glide_intrahb_reward>  (62) 
-0

>  <i_i_glide_confnum>  (62) 
5

>  <i_i_glide_posenum>  (62) 
22

>  <r_i_glide_eff_state_penalty>  (62) 
0

>  <ligand_id>  (62) 
16

>  <original_smiles>  (62) 
Cc1ncn2ncnc(Oc3ccc4occc4c3)c12

>  <smiles>  (62) 
[H]c1nc(Oc2c([H])c([H])c3oc([H])c([H])c3c2[H])c2c(C([H])([H])[H])nc([H])n2n1

$$$$
17:0:0
     RDKit          3D

 34 37  0  0  1  0  0  0  0  0999 V2000
    4.0135   -1.0292   -3.2771 C   0  0  0  0  0  0  0  0  0  0  0  0
    3.0540   -2.0294   -3.9045 C   0  0  0  0  0  0  0  0  0  0  0  0
    2.7557   -3.0222   -2.7846 C   0  0  0  0  0  0  0  0  0  0  0  0
    3.0712   -2.2978   -1.5480 N   0  0  0  0  0  0  0  0  0  0  0  0
    3.1818   -3.1383   -0.3311 C   0  0  0  0  0  0  0  0  0  0  0  0
    3.3811   -2.3338    0.9844 C   0  0  2  0  0  0  0  0  0  0  0  0
    3.4600   -0.7945    0.8474 C   0  0  1  0  0  0  0  0  0  0  0  0
    2.9496   -0.0966    2.1024 C   0  0  0  0  0  0  0  0  0  0  0  0
    3.9548   -0.5134    3.2044 C   0  0  0  0  0  0  0  0  0  0  0  0
    5.0936   -1.1750    2.4201 C   0  0  2  0  0  0  0  0  0  0  0  0
    4.9739   -0.6785    1.0012 C   0  0  1  0  0  0  0  0  0  0  0  0
    5.5731   -1.9124    0.5494 O   0  0  0  0  0  0  0  0  0  0  0  0
    4.7726   -2.4616    1.6055 C   0  0  2  0  0  0  0  0  0  0  0  0
    4.3000   -1.5377   -1.8981 C   0  0  0  0  0  0  0  0  0  0  0  0
    3.5905   -0.0287   -3.2048 H   0  0  0  0  0  0  0  0  0  0  0  0
    4.8966   -0.9255   -3.8652 H   0  0  0  0  0  0  0  0  0  0  0  0
    2.1794   -1.4746   -4.2124 H   0  0  0  0  0  0  0  0  0  0  0  0
    3.5131   -2.5087   -4.7727 H   0  0  0  0  0  0  0  0  0  0  0  0
    1.7355   -3.4326   -2.8239 H   0  0  0  0  0  0  0  0  0  0  0  0
    3.4490   -3.8637   -2.8600 H   0  0  0  0  0  0  0  0  0  0  0  0
    2.2525   -3.7102   -0.2312 H   0  0  0  0  0  0  0  0  0  0  0  0
    3.9506   -3.9024   -0.4519 H   0  0  0  0  0  0  0  0  0  0  0  0
    2.6153   -2.6311    1.7047 H   0  0  0  0  0  0  0  0  0  0  0  0
    3.0026   -0.3407   -0.0304 H   0  0  0  0  0  0  0  0  0  0  0  0
    3.0111    0.9769    1.9128 H   0  0  0  0  0  0  0  0  0  0  0  0
    1.9074   -0.3349    2.3116 H   0  0  0  0  0  0  0  0  0  0  0  0
    4.2971    0.3586    3.7722 H   0  0  0  0  0  0  0  0  0  0  0  0
    3.4804   -1.2348    3.8758 H   0  0  0  0  0  0  0  0  0  0  0  0
    6.1075   -1.1238    2.8232 H   0  0  0  0  0  0  0  0  0  0  0  0
    5.4917    0.2491    0.7406 H   0  0  0  0  0  0  0  0  0  0  0  0
    5.1186   -3.4292    1.9802 H   0  0  0  0  0  0  0  0  0  0  0  0
    5.1431   -2.2395   -1.9105 H   0  0  0  0  0  0  0  0  0  0  0  0
    4.5289   -0.6447   -1.3258 H   0  0  0  0  0  0  0  0  0  0  0  0
    2.3029   -1.6457   -1.3962 H   0  0  0  0  0  0  0  0  0  0  0  0
  1 14  1  0
  1  2  1  0
  1 15  1  0
  1 16  1  0
  2  3  1  0
  2 17  1  0
  2 18  1  0
  3  4  1  0
  3 19  1  0
  3 20  1  0
  4  5  1  0
  4 14  1  0
  4 34  1  0
  5  6  1  0
  5 21  1  0
  5 22  1  0
  6 13  1  0
  6  7  1  0
  6 23  1  1
  7 11  1  0
  7  8  1  0
  7 24  1  6
  8  9  1  0
  8 25  1  0
  8 26  1  0
  9 10  1  0
  9 27  1  0
  9 28  1  0
 10 13  1  0
 10 11  1  0
 10 29  1  1
 11 12  1  0
 11 30  1  1
 12 13  1  0
 13 31  1  1
 14 32  1  0
 14 33  1  0
M  CHG  1   4   1
M  END
>  <i_m_ct_stereo_status>  (63) 
1

>  <s_m_source_file>  (63) 
/var/tmp/pbs.5076255.sched01/tmpuhafuy1n/0xc5aj8_e.sdf

>  <i_m_source_file_index>  (63) 
27

>  <i_lp_mmshare_version>  (63) 
48012

>  <i_f3d_flags>  (63) 
2

>  <s_epik_input>  (63) 
W0NIMl0xW0NIMl1bQ0gyXVtDSDJdTjFbQ0gyXVtDQEhdMltDQEBIXShPMylbQ0BASF0oW0NIMl1bQ0gyXTQpW0NASF0zW0NASF0yNA==

>  <s_epik_cmdline>  (63) 
J2VwaWtfcHl0aG9uJywgJy1waHQnLCAnMi4wJywgJy1waCcsICc3LjAnLCAnLXRuJywgJzgnLCAnLW1hJywgJzIwMCcsICctaW1hZScsICc8aW5maWxlLm1hZT4nLCAnLW9tYWUnLCAnPG91dGZpbGUubWFlPic=

>  <r_epik_Ionization_Penalty>  (63) 
0.000412174

>  <r_epik_Ionization_Penalty_Charging>  (63) 
0.000412174

>  <r_epik_Ionization_Penalty_Neutral>  (63) 
6.72315e-12

>  <r_epik_State_Penalty>  (63) 
0.000253125

>  <r_epik_Charging_Adjusted_Penalty>  (63) 
0.000665299

>  <i_epik_Tot_Q>  (63) 
1

>  <i_epik_Tot_abs_Q>  (63) 
1

>  <s_lp_Force_Field>  (63) 
OPLS3e

>  <r_lp_Energy>  (63) 
59.3847

>  <b_lp_Chiralities_Consistent>  (63) 
0

>  <s_lp_Variant>  (63) 
17:0-1

>  <s_i_glide_gridfile>  (63) 
pfpi4k_grid

>  <i_i_glide_lignum>  (63) 
27

>  <i_i_glide_rotatable_bonds>  (63) 
2

>  <r_i_docking_score>  (63) 
-3.92129

>  <r_i_glide_ligand_efficiency>  (63) 
-0.280092

>  <r_i_glide_ligand_efficiency_sa>  (63) 
-0.675062

>  <r_i_glide_ligand_efficiency_ln>  (63) 
-1.07756

>  <r_i_glide_gscore>  (63) 
-3.92129

>  <r_i_glide_lipo>  (63) 
-0.568288

>  <r_i_glide_hbond>  (63) 
-0.2

>  <r_i_glide_metal>  (63) 
-0

>  <r_i_glide_rewards>  (63) 
-2.08436

>  <r_i_glide_evdw>  (63) 
-20.1114

>  <r_i_glide_ecoul>  (63) 
-5.64069

>  <r_i_glide_erotb>  (63) 
0.856955

>  <r_i_glide_esite>  (63) 
-0.0739186

>  <r_i_glide_emodel>  (63) 
-24.8545

>  <r_i_glide_energy>  (63) 
-25.7521

>  <r_i_glide_einternal>  (63) 
12.8936

>  <r_i_glide_intrahb_reward>  (63) 
-0

>  <i_i_glide_confnum>  (63) 
4

>  <i_i_glide_posenum>  (63) 
35

>  <r_i_glide_eff_state_penalty>  (63) 
0

>  <ligand_id>  (63) 
17

>  <original_smiles>  (63) 
C1CCN(CC2C3CCC4C3OC24)C1

>  <smiles>  (63) 
[H]C1([H])C([H])([H])C2([H])C3([H])OC([H])(C13[H])C2([H])C([H])([H])[N+]1([H])C([H])([H])C([H])([H])C([H])([H])C1([H])[H]

$$$$
17:0:1
     RDKit          3D

 34 37  0  0  1  0  0  0  0  0999 V2000
    3.5576   -0.9906   -3.4192 C   0  0  0  0  0  0  0  0  0  0  0  0
    2.8523   -2.2925   -3.8106 C   0  0  0  0  0  0  0  0  0  0  0  0
    2.8814   -3.1596   -2.5491 C   0  0  0  0  0  0  0  0  0  0  0  0
    3.0460   -2.2258   -1.4272 N   0  0  0  0  0  0  0  0  0  0  0  0
    3.4613   -2.8404   -0.1461 C   0  0  0  0  0  0  0  0  0  0  0  0
    3.0350   -1.9702    1.0392 C   0  0  2  0  0  0  0  0  0  0  0  0
    3.9550   -0.7854    1.3816 C   0  0  1  0  0  0  0  0  0  0  0  0
    3.0825    0.3458    1.9696 C   0  0  0  0  0  0  0  0  0  0  0  0
    2.5353   -0.2511    3.2980 C   0  0  0  0  0  0  0  0  0  0  0  0
    3.3483   -1.5353    3.4671 C   0  0  2  0  0  0  0  0  0  0  0  0
    4.5861   -1.3879    2.6118 C   0  0  1  0  0  0  0  0  0  0  0  0
    4.6013   -2.8119    2.4459 O   0  0  0  0  0  0  0  0  0  0  0  0
    3.1717   -2.6320    2.3954 C   0  0  2  0  0  0  0  0  0  0  0  0
    3.9608   -1.2020   -1.9631 C   0  0  0  0  0  0  0  0  0  0  0  0
    2.8682   -0.1485   -3.4862 H   0  0  0  0  0  0  0  0  0  0  0  0
    4.4228   -0.7628   -4.0408 H   0  0  0  0  0  0  0  0  0  0  0  0
    1.8181   -2.0915   -4.0858 H   0  0  0  0  0  0  0  0  0  0  0  0
    3.3260   -2.7952   -4.6498 H   0  0  0  0  0  0  0  0  0  0  0  0
    2.0011   -3.8024   -2.4449 H   0  0  0  0  0  0  0  0  0  0  0  0
    3.7632   -3.8073   -2.5805 H   0  0  0  0  0  0  0  0  0  0  0  0
    2.9908   -3.8197   -0.0365 H   0  0  0  0  0  0  0  0  0  0  0  0
    4.5370   -3.0429   -0.1275 H   0  0  0  0  0  0  0  0  0  0  0  0
    1.9957   -1.6742    0.8949 H   0  0  0  0  0  0  0  0  0  0  0  0
    4.6794   -0.4868    0.6260 H   0  0  0  0  0  0  0  0  0  0  0  0
    3.7181    1.1998    2.1989 H   0  0  0  0  0  0  0  0  0  0  0  0
    2.2933    0.6944    1.2954 H   0  0  0  0  0  0  0  0  0  0  0  0
    2.6704    0.4483    4.1276 H   0  0  0  0  0  0  0  0  0  0  0  0
    1.4652   -0.4630    3.2144 H   0  0  0  0  0  0  0  0  0  0  0  0
    3.5324   -1.9046    4.4762 H   0  0  0  0  0  0  0  0  0  0  0  0
    5.4599   -0.9243    3.0689 H   0  0  0  0  0  0  0  0  0  0  0  0
    2.5754   -3.5157    2.6537 H   0  0  0  0  0  0  0  0  0  0  0  0
    4.9857   -1.5740   -1.9224 H   0  0  0  0  0  0  0  0  0  0  0  0
    3.9433   -0.2672   -1.4079 H   0  0  0  0  0  0  0  0  0  0  0  0
    2.1273   -1.7688   -1.2852 H   0  0  0  0  0  0  0  0  0  0  0  0
  1 14  1  0
  1  2  1  0
  1 15  1  0
  1 16  1  0
  2  3  1  0
  2 17  1  0
  2 18  1  0
  3  4  1  0
  3 19  1  0
  3 20  1  0
  4  5  1  0
  4 14  1  0
  4 34  1  0
  5  6  1  0
  5 21  1  0
  5 22  1  0
  6 13  1  0
  6  7  1  0
  6 23  1  6
  7 11  1  0
  7  8  1  0
  7 24  1  6
  8  9  1  0
  8 25  1  0
  8 26  1  0
  9 10  1  0
  9 27  1  0
  9 28  1  0
 10 13  1  0
 10 11  1  0
 10 29  1  1
 11 12  1  0
 11 30  1  1
 12 13  1  0
 13 31  1  1
 14 32  1  0
 14 33  1  0
M  CHG  1   4   1
M  END
>  <i_m_ct_stereo_status>  (64) 
1

>  <s_m_source_file>  (64) 
/var/tmp/pbs.5076255.sched01/tmpuhafuy1n/0xc5aj8_e.sdf

>  <i_m_source_file_index>  (64) 
27

>  <i_lp_mmshare_version>  (64) 
48012

>  <i_f3d_flags>  (64) 
2

>  <s_epik_input>  (64) 
W0NIMl0xW0NIMl1bQ0gyXVtDSDJdTjFbQ0gyXVtDQEhdMltDQEBIXShPMylbQ0BASF0oW0NIMl1bQ0gyXTQpW0NASF0zW0NASF0yNA==

>  <s_epik_cmdline>  (64) 
J2VwaWtfcHl0aG9uJywgJy1waHQnLCAnMi4wJywgJy1waCcsICc3LjAnLCAnLXRuJywgJzgnLCAnLW1hJywgJzIwMCcsICctaW1hZScsICc8aW5maWxlLm1hZT4nLCAnLW9tYWUnLCAnPG91dGZpbGUubWFlPic=

>  <r_epik_Ionization_Penalty>  (64) 
0.000412174

>  <r_epik_Ionization_Penalty_Charging>  (64) 
0.000412174

>  <r_epik_Ionization_Penalty_Neutral>  (64) 
6.72315e-12

>  <r_epik_State_Penalty>  (64) 
0.000253125

>  <r_epik_Charging_Adjusted_Penalty>  (64) 
0.000665299

>  <i_epik_Tot_Q>  (64) 
1

>  <i_epik_Tot_abs_Q>  (64) 
1

>  <s_lp_Force_Field>  (64) 
OPLS3e

>  <r_lp_Energy>  (64) 
59.3847

>  <b_lp_Chiralities_Consistent>  (64) 
0

>  <s_lp_Variant>  (64) 
17:0-1

>  <s_i_glide_gridfile>  (64) 
pfpi4k_grid

>  <i_i_glide_lignum>  (64) 
27

>  <i_i_glide_rotatable_bonds>  (64) 
2

>  <r_i_docking_score>  (64) 
-3.88522

>  <r_i_glide_ligand_efficiency>  (64) 
-0.277516

>  <r_i_glide_ligand_efficiency_sa>  (64) 
-0.668853

>  <r_i_glide_ligand_efficiency_ln>  (64) 
-1.06764

>  <r_i_glide_gscore>  (64) 
-3.88522

>  <r_i_glide_lipo>  (64) 
-0.500195

>  <r_i_glide_hbond>  (64) 
-0.2

>  <r_i_glide_metal>  (64) 
-0

>  <r_i_glide_rewards>  (64) 
-2.08436

>  <r_i_glide_evdw>  (64) 
-17.151

>  <r_i_glide_ecoul>  (64) 
-6.79909

>  <r_i_glide_erotb>  (64) 
0.856955

>  <r_i_glide_esite>  (64) 
-0.080205

>  <r_i_glide_emodel>  (64) 
-30.6657

>  <r_i_glide_energy>  (64) 
-23.9501

>  <r_i_glide_einternal>  (64) 
1.56018

>  <r_i_glide_intrahb_reward>  (64) 
-0

>  <i_i_glide_confnum>  (64) 
4

>  <i_i_glide_posenum>  (64) 
10

>  <r_i_glide_eff_state_penalty>  (64) 
0

>  <ligand_id>  (64) 
17

>  <original_smiles>  (64) 
C1CCN(CC2C3CCC4C3OC24)C1

>  <smiles>  (64) 
[H]C1([H])C([H])([H])C2([H])C3([H])OC([H])(C13[H])C2([H])C([H])([H])[N+]1([H])C([H])([H])C([H])([H])C([H])([H])C1([H])[H]

$$$$
18:0:0
     RDKit          3D

 39 45  0  0  1  0  0  0  0  0999 V2000
    1.8116   -0.8469    2.8143 N   0  0  0  0  0  0  0  0  0  0  0  0
    2.6739   -1.3942    1.7528 C   0  0  2  0  0  0  0  0  0  0  0  0
    2.6548   -2.9413    1.6556 C   0  0  0  0  0  0  0  0  0  0  0  0
    4.0251   -3.3332    1.0827 C   0  0  1  0  0  0  0  0  0  0  0  0
    5.5414   -3.3585    1.4965 C   0  0  1  0  0  0  0  0  0  0  0  0
    6.7257   -2.6276    0.8821 C   0  0  0  0  0  0  0  0  0  0  0  0
    6.4372   -2.0499   -0.5046 C   0  0  2  0  0  0  0  0  0  0  0  0
    5.1752   -1.1063   -0.5407 C   0  0  2  0  0  0  0  0  0  0  0  0
    4.8510   -0.3165    0.7595 C   0  0  0  0  0  0  0  0  0  0  0  0
    4.1680   -1.0667    1.9354 C   0  0  2  0  0  0  0  0  0  0  0  0
    4.6957   -2.4476    2.1831 C   0  0  1  0  0  0  0  0  0  0  0  0
    3.9549   -1.8561   -1.1209 C   0  0  1  0  0  0  0  0  0  0  0  0
    4.2337   -2.1551   -2.6133 C   0  0  0  0  0  0  0  0  0  0  0  0
    5.2312   -3.2739   -2.5329 C   0  0  1  0  0  0  0  0  0  0  0  0
    6.2891   -3.2305   -1.4528 C   0  0  2  0  0  0  0  0  0  0  0  0
    5.0009   -3.9846   -1.2376 C   0  0  1  0  0  0  0  0  0  0  0  0
    3.8998   -3.2677   -0.4706 C   0  0  1  0  0  0  0  0  0  0  0  0
    2.0871   -1.1917    3.7175 H   0  0  0  0  0  0  0  0  0  0  0  0
    0.8543   -1.1000    2.6207 H   0  0  0  0  0  0  0  0  0  0  0  0
    2.2833   -0.9466    0.8486 H   0  0  0  0  0  0  0  0  0  0  0  0
    2.5244   -3.4116    2.6324 H   0  0  0  0  0  0  0  0  0  0  0  0
    1.8344   -3.3014    1.0409 H   0  0  0  0  0  0  0  0  0  0  0  0
    5.8419   -4.2475    2.0458 H   0  0  0  0  0  0  0  0  0  0  0  0
    7.0285   -1.8199    1.5507 H   0  0  0  0  0  0  0  0  0  0  0  0
    7.5824   -3.3039    0.8377 H   0  0  0  0  0  0  0  0  0  0  0  0
    7.3288   -1.4916   -0.7833 H   0  0  0  0  0  0  0  0  0  0  0  0
    5.4228   -0.3320   -1.2668 H   0  0  0  0  0  0  0  0  0  0  0  0
    5.7830    0.1290    1.1188 H   0  0  0  0  0  0  0  0  0  0  0  0
    4.2161    0.5291    0.4873 H   0  0  0  0  0  0  0  0  0  0  0  0
    4.3220   -0.4812    2.8448 H   0  0  0  0  0  0  0  0  0  0  0  0
    4.5845   -2.7389    3.2292 H   0  0  0  0  0  0  0  0  0  0  0  0
    3.0307   -1.2780   -1.0512 H   0  0  0  0  0  0  0  0  0  0  0  0
    3.3319   -2.5071   -3.1229 H   0  0  0  0  0  0  0  0  0  0  0  0
    4.6423   -1.3138   -3.1730 H   0  0  0  0  0  0  0  0  0  0  0  0
    5.4066   -3.8730   -3.4251 H   0  0  0  0  0  0  0  0  0  0  0  0
    7.1898   -3.8153   -1.6250 H   0  0  0  0  0  0  0  0  0  0  0  0
    5.0189   -5.0725   -1.2207 H   0  0  0  0  0  0  0  0  0  0  0  0
    2.9725   -3.7602   -0.7668 H   0  0  0  0  0  0  0  0  0  0  0  0
    1.8907    0.1612    2.7961 H   0  0  0  0  0  0  0  0  0  0  0  0
  1  2  1  0
  1 18  1  0
  1 19  1  0
  1 39  1  0
  2 10  1  0
  2  3  1  0
  2 20  1  6
  4  3  1  1
  3 21  1  0
  3 22  1  0
  4 11  1  0
  4 17  1  0
  4  5  1  0
  5 11  1  0
  5  6  1  0
  5 23  1  1
  6  7  1  0
  6 24  1  0
  6 25  1  0
  7 15  1  0
  7  8  1  0
  7 26  1  6
  8  9  1  0
  8 12  1  0
  8 27  1  6
  9 10  1  0
  9 28  1  0
  9 29  1  0
 10 11  1  0
 10 30  1  1
 11 31  1  1
 12 17  1  0
 12 13  1  0
 12 32  1  6
 13 14  1  0
 13 33  1  0
 13 34  1  0
 14 16  1  0
 14 15  1  0
 14 35  1  6
 15 16  1  0
 15 36  1  6
 16 17  1  0
 16 37  1  6
 17 38  1  1
M  CHG  1   1   1
M  END
>  <i_m_ct_stereo_status>  (65) 
1

>  <s_m_source_file>  (65) 
/var/tmp/pbs.5076255.sched01/tmpuhafuy1n/0xc5aj8_e.sdf

>  <i_m_source_file_index>  (65) 
28

>  <i_lp_mmshare_version>  (65) 
48012

>  <i_f3d_flags>  (65) 
0

>  <s_epik_input>  (65) 
W0NAXTEyM1tDQEBIXTRbQ0BIXTJbQ0BIXShbQ0BIXShbTkgyXSlbQ0gyXTEpW0NIMl1bQ0BIXTVbQ0BASF0oW0NIMl00KVtDQEBIXTZbQ0BIXTdbQ0BASF02W0NAQEhdM1tDQEBIXTVbQ0gyXTc=

>  <s_epik_cmdline>  (65) 
J2VwaWtfcHl0aG9uJywgJy1waHQnLCAnMi4wJywgJy1waCcsICc3LjAnLCAnLXRuJywgJzgnLCAnLW1hJywgJzIwMCcsICctaW1hZScsICc8aW5maWxlLm1hZT4nLCAnLW9tYWUnLCAnPG91dGZpbGUubWFlPic=

>  <r_lp_tautomer_probability>  (65) 
1

>  <r_epik_Ionization_Penalty>  (65) 
0.000125716

>  <r_epik_Ionization_Penalty_Charging>  (65) 
0.000125716

>  <r_epik_Ionization_Penalty_Neutral>  (65) 
0

>  <r_epik_State_Penalty>  (65) 
-0

>  <r_epik_Charging_Adjusted_Penalty>  (65) 
0.000125716

>  <i_epik_Tot_Q>  (65) 
1

>  <i_epik_Tot_abs_Q>  (65) 
1

>  <s_lp_Force_Field>  (65) 
OPLS3e

>  <r_lp_Energy>  (65) 
117.41

>  <b_lp_Chiralities_Consistent>  (65) 
1

>  <s_lp_Variant>  (65) 
18:0-1

>  <s_i_glide_gridfile>  (65) 
pfpi4k_grid

>  <i_i_glide_lignum>  (65) 
28

>  <i_i_glide_rotatable_bonds>  (65) 
0

>  <r_i_docking_score>  (65) 
-4.20862

>  <r_i_glide_ligand_efficiency>  (65) 
-0.247566

>  <r_i_glide_ligand_efficiency_sa>  (65) 
-0.636561

>  <r_i_glide_ligand_efficiency_ln>  (65) 
-1.09794

>  <r_i_glide_gscore>  (65) 
-4.20862

>  <r_i_glide_lipo>  (65) 
-0.797771

>  <r_i_glide_hbond>  (65) 
0

>  <r_i_glide_metal>  (65) 
-0

>  <r_i_glide_rewards>  (65) 
-1.85214

>  <r_i_glide_evdw>  (65) 
-20.1692

>  <r_i_glide_ecoul>  (65) 
-3.5434

>  <r_i_glide_erotb>  (65) 
0

>  <r_i_glide_esite>  (65) 
-0.0187365

>  <r_i_glide_emodel>  (65) 
-30.0921

>  <r_i_glide_energy>  (65) 
-23.7126

>  <r_i_glide_einternal>  (65) 
0

>  <r_i_glide_intrahb_reward>  (65) 
-0

>  <i_i_glide_confnum>  (65) 
1

>  <i_i_glide_posenum>  (65) 
14

>  <r_i_glide_eff_state_penalty>  (65) 
0

>  <ligand_id>  (65) 
18

>  <original_smiles>  (65) 
NC1CC23C4CC5C(CC1C42)C1CC2C5C2C13

>  <smiles>  (65) 
[H]C1([H])C2([H])C3([H])C4([H])C([H])([H])C5([H])C6([H])C7([H])C([H])([H])C4([H])C1([H])C([H])(C23[H])C56C([H])([H])C7([H])[N+]([H])([H])[H]

$$$$
18:0:1
     RDKit          3D

 39 45  0  0  1  0  0  0  0  0999 V2000
    2.6615   -1.3661    3.6568 N   0  0  0  0  0  0  0  0  0  0  0  0
    3.2745   -1.6319    2.3408 C   0  0  2  0  0  0  0  0  0  0  0  0
    2.7352   -2.9074    1.6480 C   0  0  0  0  0  0  0  0  0  0  0  0
    3.8897   -3.4169    0.7689 C   0  0  1  0  0  0  0  0  0  0  0  0
    5.3189   -4.0637    0.9031 C   0  0  1  0  0  0  0  0  0  0  0  0
    6.6780   -3.5348    0.4452 C   0  0  0  0  0  0  0  0  0  0  0  0
    6.5837   -2.3657   -0.5412 C   0  0  2  0  0  0  0  0  0  0  0  0
    5.7038   -1.1724    0.0010 C   0  0  2  0  0  0  0  0  0  0  0  0
    5.6785   -0.9510    1.5400 C   0  0  0  0  0  0  0  0  0  0  0  0
    4.7935   -1.8809    2.4144 C   0  0  2  0  0  0  0  0  0  0  0  0
    4.8329   -3.3227    2.0114 C   0  0  1  0  0  0  0  0  0  0  0  0
    4.2929   -1.2083   -0.6304 C   0  0  1  0  0  0  0  0  0  0  0  0
    4.4252   -0.9191   -2.1416 C   0  0  0  0  0  0  0  0  0  0  0  0
    4.9891   -2.2070   -2.6674 C   0  0  1  0  0  0  0  0  0  0  0  0
    6.0200   -2.9406   -1.8419 C   0  0  2  0  0  0  0  0  0  0  0  0
    4.5567   -3.2931   -1.7380 C   0  0  1  0  0  0  0  0  0  0  0  0
    3.7749   -2.6731   -0.5916 C   0  0  1  0  0  0  0  0  0  0  0  0
    2.8226   -2.1319    4.2882 H   0  0  0  0  0  0  0  0  0  0  0  0
    1.6717   -1.2207    3.5349 H   0  0  0  0  0  0  0  0  0  0  0  0
    3.0405   -0.7534    1.7522 H   0  0  0  0  0  0  0  0  0  0  0  0
    2.4663   -3.6805    2.3696 H   0  0  0  0  0  0  0  0  0  0  0  0
    1.8336   -2.7039    1.0758 H   0  0  0  0  0  0  0  0  0  0  0  0
    5.3077   -5.1442    1.0034 H   0  0  0  0  0  0  0  0  0  0  0  0
    7.2608   -3.2349    1.3210 H   0  0  0  0  0  0  0  0  0  0  0  0
    7.2466   -4.3563    0.0048 H   0  0  0  0  0  0  0  0  0  0  0  0
    7.6008   -2.0145   -0.7332 H   0  0  0  0  0  0  0  0  0  0  0  0
    6.1861   -0.2691   -0.3706 H   0  0  0  0  0  0  0  0  0  0  0  0
    6.7084   -1.0012    1.9080 H   0  0  0  0  0  0  0  0  0  0  0  0
    5.3563    0.0764    1.7224 H   0  0  0  0  0  0  0  0  0  0  0  0
    5.1447   -1.8128    3.4448 H   0  0  0  0  0  0  0  0  0  0  0  0
    4.6430   -3.9813    2.8618 H   0  0  0  0  0  0  0  0  0  0  0  0
    3.6194   -0.4708   -0.1941 H   0  0  0  0  0  0  0  0  0  0  0  0
    3.4501   -0.7313   -2.5986 H   0  0  0  0  0  0  0  0  0  0  0  0
    5.0811   -0.0816   -2.3753 H   0  0  0  0  0  0  0  0  0  0  0  0
    4.9412   -2.3891   -3.7383 H   0  0  0  0  0  0  0  0  0  0  0  0
    6.6675   -3.6302   -2.3795 H   0  0  0  0  0  0  0  0  0  0  0  0
    4.2169   -4.2421   -2.1485 H   0  0  0  0  0  0  0  0  0  0  0  0
    2.7281   -2.6860   -0.9098 H   0  0  0  0  0  0  0  0  0  0  0  0
    3.0752   -0.5252    4.0361 H   0  0  0  0  0  0  0  0  0  0  0  0
  1  2  1  0
  1 18  1  0
  1 19  1  0
  1 39  1  0
  2 10  1  0
  2  3  1  0
  2 20  1  6
  4  3  1  1
  3 21  1  0
  3 22  1  0
  4 11  1  0
  4 17  1  0
  4  5  1  0
  5 11  1  0
  5  6  1  0
  5 23  1  1
  6  7  1  0
  6 24  1  0
  6 25  1  0
  7 15  1  0
  7  8  1  0
  7 26  1  6
  8  9  1  0
  8 12  1  0
  8 27  1  6
  9 10  1  0
  9 28  1  0
  9 29  1  0
 10 11  1  0
 10 30  1  1
 11 31  1  1
 12 17  1  0
 12 13  1  0
 12 32  1  1
 13 14  1  0
 13 33  1  0
 13 34  1  0
 14 16  1  0
 14 15  1  0
 14 35  1  6
 15 16  1  0
 15 36  1  6
 16 17  1  0
 16 37  1  6
 17 38  1  6
M  CHG  1   1   1
M  END
>  <i_m_ct_stereo_status>  (66) 
1

>  <s_m_source_file>  (66) 
/var/tmp/pbs.5076255.sched01/tmpuhafuy1n/0xc5aj8_e.sdf

>  <i_m_source_file_index>  (66) 
28

>  <i_lp_mmshare_version>  (66) 
48012

>  <i_f3d_flags>  (66) 
0

>  <s_epik_input>  (66) 
W0NAXTEyM1tDQEBIXTRbQ0BIXTJbQ0BIXShbQ0BIXShbTkgyXSlbQ0gyXTEpW0NIMl1bQ0BIXTVbQ0BASF0oW0NIMl00KVtDQEBIXTZbQ0BIXTdbQ0BASF02W0NAQEhdM1tDQEBIXTVbQ0gyXTc=

>  <s_epik_cmdline>  (66) 
J2VwaWtfcHl0aG9uJywgJy1waHQnLCAnMi4wJywgJy1waCcsICc3LjAnLCAnLXRuJywgJzgnLCAnLW1hJywgJzIwMCcsICctaW1hZScsICc8aW5maWxlLm1hZT4nLCAnLW9tYWUnLCAnPG91dGZpbGUubWFlPic=

>  <r_lp_tautomer_probability>  (66) 
1

>  <r_epik_Ionization_Penalty>  (66) 
0.000125716

>  <r_epik_Ionization_Penalty_Charging>  (66) 
0.000125716

>  <r_epik_Ionization_Penalty_Neutral>  (66) 
0

>  <r_epik_State_Penalty>  (66) 
-0

>  <r_epik_Charging_Adjusted_Penalty>  (66) 
0.000125716

>  <i_epik_Tot_Q>  (66) 
1

>  <i_epik_Tot_abs_Q>  (66) 
1

>  <s_lp_Force_Field>  (66) 
OPLS3e

>  <r_lp_Energy>  (66) 
117.41

>  <b_lp_Chiralities_Consistent>  (66) 
1

>  <s_lp_Variant>  (66) 
18:0-1

>  <s_i_glide_gridfile>  (66) 
pfpi4k_grid

>  <i_i_glide_lignum>  (66) 
28

>  <i_i_glide_rotatable_bonds>  (66) 
0

>  <r_i_docking_score>  (66) 
-3.85738

>  <r_i_glide_ligand_efficiency>  (66) 
-0.226905

>  <r_i_glide_ligand_efficiency_sa>  (66) 
-0.583437

>  <r_i_glide_ligand_efficiency_ln>  (66) 
-1.00631

>  <r_i_glide_gscore>  (66) 
-3.85738

>  <r_i_glide_lipo>  (66) 
-0.56271

>  <r_i_glide_hbond>  (66) 
0

>  <r_i_glide_metal>  (66) 
-0

>  <r_i_glide_rewards>  (66) 
-1.85214

>  <r_i_glide_evdw>  (66) 
-21.3455

>  <r_i_glide_ecoul>  (66) 
-2.50171

>  <r_i_glide_erotb>  (66) 
0

>  <r_i_glide_esite>  (66) 
0

>  <r_i_glide_emodel>  (66) 
-29.7109

>  <r_i_glide_energy>  (66) 
-23.8473

>  <r_i_glide_einternal>  (66) 
0

>  <r_i_glide_intrahb_reward>  (66) 
-0

>  <i_i_glide_confnum>  (66) 
1

>  <i_i_glide_posenum>  (66) 
39

>  <r_i_glide_eff_state_penalty>  (66) 
0

>  <ligand_id>  (66) 
18

>  <original_smiles>  (66) 
NC1CC23C4CC5C(CC1C42)C1CC2C5C2C13

>  <smiles>  (66) 
[H]C1([H])C2([H])C3([H])C4([H])C([H])([H])C5([H])C6([H])C7([H])C([H])([H])C4([H])C1([H])C([H])(C23[H])C56C([H])([H])C7([H])[N+]([H])([H])[H]

$$$$
18:0:2
     RDKit          3D

 39 45  0  0  1  0  0  0  0  0999 V2000
    4.0962   -0.3335    3.7942 N   0  0  0  0  0  0  0  0  0  0  0  0
    4.1484   -0.9312    2.4483 C   0  0  2  0  0  0  0  0  0  0  0  0
    3.1521   -2.1019    2.2453 C   0  0  0  0  0  0  0  0  0  0  0  0
    3.8055   -3.0193    1.1994 C   0  0  1  0  0  0  0  0  0  0  0  0
    5.0214   -4.0024    1.0411 C   0  0  1  0  0  0  0  0  0  0  0  0
    6.2168   -3.9334    0.0919 C   0  0  0  0  0  0  0  0  0  0  0  0
    6.0395   -2.9326   -1.0574 C   0  0  2  0  0  0  0  0  0  0  0  0
    5.6680   -1.4833   -0.5531 C   0  0  2  0  0  0  0  0  0  0  0  0
    6.2195   -1.0516    0.8343 C   0  0  0  0  0  0  0  0  0  0  0  0
    5.5115   -1.5690    2.1164 C   0  0  2  0  0  0  0  0  0  0  0  0
    5.1127   -3.0111    2.0524 C   0  0  1  0  0  0  0  0  0  0  0  0
    4.1569   -1.2134   -0.7080 C   0  0  1  0  0  0  0  0  0  0  0  0
    3.8251   -1.1764   -2.2173 C   0  0  0  0  0  0  0  0  0  0  0  0
    3.8879   -2.6271   -2.5898 C   0  0  1  0  0  0  0  0  0  0  0  0
    4.9546   -3.5004   -1.9660 C   0  0  2  0  0  0  0  0  0  0  0  0
    3.5759   -3.4163   -1.3549 C   0  0  1  0  0  0  0  0  0  0  0  0
    3.3955   -2.4596   -0.1901 C   0  0  1  0  0  0  0  0  0  0  0  0
    4.2993   -1.0207    4.5016 H   0  0  0  0  0  0  0  0  0  0  0  0
    3.1801    0.0581    3.9492 H   0  0  0  0  0  0  0  0  0  0  0  0
    3.9148   -0.1115    1.7774 H   0  0  0  0  0  0  0  0  0  0  0  0
    2.9901   -2.6642    3.1672 H   0  0  0  0  0  0  0  0  0  0  0  0
    2.1674   -1.7552    1.9359 H   0  0  0  0  0  0  0  0  0  0  0  0
    4.8137   -5.0147    1.3748 H   0  0  0  0  0  0  0  0  0  0  0  0
    7.1138   -3.6885    0.6670 H   0  0  0  0  0  0  0  0  0  0  0  0
    6.4017   -4.9332   -0.3058 H   0  0  0  0  0  0  0  0  0  0  0  0
    6.9726   -2.8939   -1.6261 H   0  0  0  0  0  0  0  0  0  0  0  0
    6.1586   -0.8156   -1.2571 H   0  0  0  0  0  0  0  0  0  0  0  0
    7.2781   -1.3243    0.8866 H   0  0  0  0  0  0  0  0  0  0  0  0
    6.2028    0.0382    0.8689 H   0  0  0  0  0  0  0  0  0  0  0  0
    6.2029   -1.4511    2.9520 H   0  0  0  0  0  0  0  0  0  0  0  0
    5.0881   -3.4672    3.0442 H   0  0  0  0  0  0  0  0  0  0  0  0
    3.8506   -0.2665   -0.2648 H   0  0  0  0  0  0  0  0  0  0  0  0
    2.8133   -0.8025   -2.3928 H   0  0  0  0  0  0  0  0  0  0  0  0
    4.5188   -0.5915   -2.8238 H   0  0  0  0  0  0  0  0  0  0  0  0
    3.4303   -2.9396   -3.5248 H   0  0  0  0  0  0  0  0  0  0  0  0
    5.2024   -4.4198   -2.4948 H   0  0  0  0  0  0  0  0  0  0  0  0
    2.8960   -4.2532   -1.4426 H   0  0  0  0  0  0  0  0  0  0  0  0
    2.3257   -2.2519   -0.1624 H   0  0  0  0  0  0  0  0  0  0  0  0
    4.7824    0.4072    3.8420 H   0  0  0  0  0  0  0  0  0  0  0  0
  1  2  1  0
  1 18  1  0
  1 19  1  0
  1 39  1  0
  2 10  1  0
  2  3  1  0
  2 20  1  6
  4  3  1  1
  3 21  1  0
  3 22  1  0
  4 11  1  0
  4 17  1  0
  4  5  1  0
  5 11  1  0
  5  6  1  0
  5 23  1  1
  6  7  1  0
  6 24  1  0
  6 25  1  0
  7 15  1  0
  7  8  1  0
  7 26  1  6
  8  9  1  0
  8 12  1  0
  8 27  1  6
  9 10  1  0
  9 28  1  0
  9 29  1  0
 10 11  1  0
 10 30  1  1
 11 31  1  1
 12 17  1  0
 12 13  1  0
 12 32  1  1
 13 14  1  0
 13 33  1  0
 13 34  1  0
 14 16  1  0
 14 15  1  0
 14 35  1  6
 15 16  1  0
 15 36  1  6
 16 17  1  0
 16 37  1  6
 17 38  1  1
M  CHG  1   1   1
M  END
>  <i_m_ct_stereo_status>  (67) 
1

>  <s_m_source_file>  (67) 
/var/tmp/pbs.5076255.sched01/tmpuhafuy1n/0xc5aj8_e.sdf

>  <i_m_source_file_index>  (67) 
28

>  <i_lp_mmshare_version>  (67) 
48012

>  <i_f3d_flags>  (67) 
0

>  <s_epik_input>  (67) 
W0NAXTEyM1tDQEBIXTRbQ0BIXTJbQ0BIXShbQ0BIXShbTkgyXSlbQ0gyXTEpW0NIMl1bQ0BIXTVbQ0BASF0oW0NIMl00KVtDQEBIXTZbQ0BIXTdbQ0BASF02W0NAQEhdM1tDQEBIXTVbQ0gyXTc=

>  <s_epik_cmdline>  (67) 
J2VwaWtfcHl0aG9uJywgJy1waHQnLCAnMi4wJywgJy1waCcsICc3LjAnLCAnLXRuJywgJzgnLCAnLW1hJywgJzIwMCcsICctaW1hZScsICc8aW5maWxlLm1hZT4nLCAnLW9tYWUnLCAnPG91dGZpbGUubWFlPic=

>  <r_lp_tautomer_probability>  (67) 
1

>  <r_epik_Ionization_Penalty>  (67) 
0.000125716

>  <r_epik_Ionization_Penalty_Charging>  (67) 
0.000125716

>  <r_epik_Ionization_Penalty_Neutral>  (67) 
0

>  <r_epik_State_Penalty>  (67) 
-0

>  <r_epik_Charging_Adjusted_Penalty>  (67) 
0.000125716

>  <i_epik_Tot_Q>  (67) 
1

>  <i_epik_Tot_abs_Q>  (67) 
1

>  <s_lp_Force_Field>  (67) 
OPLS3e

>  <r_lp_Energy>  (67) 
117.41

>  <b_lp_Chiralities_Consistent>  (67) 
1

>  <s_lp_Variant>  (67) 
18:0-1

>  <s_i_glide_gridfile>  (67) 
pfpi4k_grid

>  <i_i_glide_lignum>  (67) 
28

>  <i_i_glide_rotatable_bonds>  (67) 
0

>  <r_i_docking_score>  (67) 
-3.68172

>  <r_i_glide_ligand_efficiency>  (67) 
-0.216572

>  <r_i_glide_ligand_efficiency_sa>  (67) 
-0.556867

>  <r_i_glide_ligand_efficiency_ln>  (67) 
-0.960478

>  <r_i_glide_gscore>  (67) 
-3.68172

>  <r_i_glide_lipo>  (67) 
-0.530861

>  <r_i_glide_hbond>  (67) 
0

>  <r_i_glide_metal>  (67) 
-0

>  <r_i_glide_rewards>  (67) 
-1.85214

>  <r_i_glide_evdw>  (67) 
-20.0757

>  <r_i_glide_ecoul>  (67) 
-1.96621

>  <r_i_glide_erotb>  (67) 
0

>  <r_i_glide_esite>  (67) 
0

>  <r_i_glide_emodel>  (67) 
-27.621

>  <r_i_glide_energy>  (67) 
-22.0419

>  <r_i_glide_einternal>  (67) 
0

>  <r_i_glide_intrahb_reward>  (67) 
-0

>  <i_i_glide_confnum>  (67) 
1

>  <i_i_glide_posenum>  (67) 
1

>  <r_i_glide_eff_state_penalty>  (67) 
0

>  <ligand_id>  (67) 
18

>  <original_smiles>  (67) 
NC1CC23C4CC5C(CC1C42)C1CC2C5C2C13

>  <smiles>  (67) 
[H]C1([H])C2([H])C3([H])C4([H])C([H])([H])C5([H])C6([H])C7([H])C([H])([H])C4([H])C1([H])C([H])(C23[H])C56C([H])([H])C7([H])[N+]([H])([H])[H]

$$$$
19:0:0
     RDKit          3D

 57 61  0  0  1  0  0  0  0  0999 V2000
    3.1681   -3.7129   -4.1379 C   0  0  0  0  0  0  0  0  0  0  0  0
    3.0826   -3.0158   -3.0142 C   0  0  0  0  0  0  0  0  0  0  0  0
    2.2181   -3.4231   -1.8761 C   0  0  0  0  0  0  0  0  0  0  0  0
    3.0538   -3.5728   -0.5817 C   0  0  0  0  0  0  0  0  0  0  0  0
    3.8980   -2.3155   -0.2485 C   0  0  2  0  0  0  0  0  0  0  0  0
    3.0165   -1.1925   -0.0690 O   0  0  0  0  0  0  0  0  0  0  0  0
    4.7976   -1.9485   -1.5119 C   0  0  1  0  0  0  0  0  0  0  0  0
    5.3830   -0.6599   -1.3614 O   0  0  0  0  0  0  0  0  0  0  0  0
    5.9405   -2.9521   -1.8417 C   0  0  0  0  0  0  0  0  0  0  0  0
    7.0199   -3.1032   -0.7580 C   0  0  0  0  0  0  0  0  0  0  0  0
    6.6323   -4.0255    0.3871 C   0  0  0  0  0  0  0  0  0  0  0  0
    7.2761   -5.0757    0.4918 O   0  0  0  0  0  0  0  0  0  0  0  0
    5.4943   -3.6974    1.2730 C   0  0  0  0  0  0  0  0  0  0  0  0
    5.0129   -4.5779    2.1518 C   0  0  0  0  0  0  0  0  0  0  0  0
    3.7515   -4.1444    2.8638 C   0  0  1  0  0  0  0  0  0  0  0  0
    3.8417   -4.1298    4.4192 C   0  0  0  0  0  0  0  0  0  0  0  0
    2.4168   -3.9978    4.9998 C   0  0  0  0  0  0  0  0  0  0  0  0
    4.4925   -5.3749    5.0362 C   0  0  0  0  0  0  0  0  0  0  0  0
    4.6377   -2.8553    4.7231 C   0  0  0  0  0  0  0  0  0  0  0  0
    4.3139   -1.8666    3.5805 C   0  0  1  0  0  0  0  0  0  0  0  0
    5.5384   -1.1609    3.0180 C   0  0  0  0  0  0  0  0  0  0  0  0
    5.3975   -1.1350    1.5239 C   0  0  0  0  0  0  0  0  0  0  0  0
    4.6265   -2.4351    1.1499 C   0  0  1  0  0  0  0  0  0  0  0  0
    3.6925   -2.6645    2.4214 C   0  0  1  0  0  0  0  0  0  0  0  0
    2.3474   -2.2179    2.3275 O   0  0  0  0  0  0  0  0  0  0  0  0
    3.8770   -1.7686   -2.7670 C   0  0  1  0  0  0  0  0  0  0  0  0
    4.5954   -1.4000   -3.9258 O   0  0  0  0  0  0  0  0  0  0  0  0
    3.8574   -3.4559   -4.9198 H   0  0  0  0  0  0  0  0  0  0  0  0
    2.5411   -4.5919   -4.2724 H   0  0  0  0  0  0  0  0  0  0  0  0
    1.4644   -2.6814   -1.8127 H   0  0  0  0  0  0  0  0  0  0  0  0
    1.6757   -4.3515   -2.0802 H   0  0  0  0  0  0  0  0  0  0  0  0
    2.3788   -3.7977    0.2418 H   0  0  0  0  0  0  0  0  0  0  0  0
    3.7058   -4.4305   -0.7106 H   0  0  0  0  0  0  0  0  0  0  0  0
    2.0864   -1.3572   -0.3549 H   0  0  0  0  0  0  0  0  0  0  0  0
    4.6942   -0.0739   -1.0996 H   0  0  0  0  0  0  0  0  0  0  0  0
    5.5510   -3.9282   -2.1186 H   0  0  0  0  0  0  0  0  0  0  0  0
    6.4794   -2.6285   -2.7333 H   0  0  0  0  0  0  0  0  0  0  0  0
    7.9005   -3.5389   -1.2245 H   0  0  0  0  0  0  0  0  0  0  0  0
    7.3548   -2.1519   -0.3526 H   0  0  0  0  0  0  0  0  0  0  0  0
    5.4252   -5.5567    2.3022 H   0  0  0  0  0  0  0  0  0  0  0  0
    2.9120   -4.7202    2.4674 H   0  0  0  0  0  0  0  0  0  0  0  0
    2.4323   -4.0007    6.0947 H   0  0  0  0  0  0  0  0  0  0  0  0
    1.7931   -4.8291    4.6681 H   0  0  0  0  0  0  0  0  0  0  0  0
    1.9419   -3.0711    4.6860 H   0  0  0  0  0  0  0  0  0  0  0  0
    4.4950   -5.2990    6.1247 H   0  0  0  0  0  0  0  0  0  0  0  0
    5.5331   -5.5203    4.7387 H   0  0  0  0  0  0  0  0  0  0  0  0
    3.9394   -6.2807    4.7911 H   0  0  0  0  0  0  0  0  0  0  0  0
    4.3765   -2.4321    5.6916 H   0  0  0  0  0  0  0  0  0  0  0  0
    5.7087   -3.0823    4.7918 H   0  0  0  0  0  0  0  0  0  0  0  0
    3.6251   -1.1039    3.9449 H   0  0  0  0  0  0  0  0  0  0  0  0
    5.7680   -0.1942    3.4749 H   0  0  0  0  0  0  0  0  0  0  0  0
    6.3922   -1.8040    3.1146 H   0  0  0  0  0  0  0  0  0  0  0  0
    4.7901   -0.2624    1.3166 H   0  0  0  0  0  0  0  0  0  0  0  0
    6.3598   -0.9996    1.0284 H   0  0  0  0  0  0  0  0  0  0  0  0
    2.3704   -1.4384    1.7727 H   0  0  0  0  0  0  0  0  0  0  0  0
    3.1476   -0.9642   -2.6019 H   0  0  0  0  0  0  0  0  0  0  0  0
    4.2106   -0.5998   -4.2646 H   0  0  0  0  0  0  0  0  0  0  0  0
  1  2  2  0
  1 28  1  0
  1 29  1  0
  2 26  1  0
  2  3  1  0
  3  4  1  0
  3 30  1  0
  3 31  1  0
  4  5  1  0
  4 32  1  0
  4 33  1  0
  5 23  1  0
  5  6  1  1
  5  7  1  0
  6 34  1  0
  7  8  1  1
  7  9  1  0
  7 26  1  0
  8 35  1  0
  9 10  1  0
  9 36  1  0
  9 37  1  0
 10 11  1  0
 10 38  1  0
 10 39  1  0
 11 12  2  0
 11 13  1  0
 13 23  1  0
 13 14  2  0
 14 15  1  0
 14 40  1  0
 15 24  1  0
 15 16  1  0
 15 41  1  1
 16 17  1  0
 16 18  1  0
 16 19  1  0
 17 42  1  0
 17 43  1  0
 17 44  1  0
 18 45  1  0
 18 46  1  0
 18 47  1  0
 19 20  1  0
 19 48  1  0
 19 49  1  0
 20 24  1  0
 20 21  1  0
 20 50  1  1
 21 22  1  0
 21 51  1  0
 21 52  1  0
 23 22  1  1
 22 53  1  0
 22 54  1  0
 23 24  1  0
 24 25  1  6
 25 55  1  0
 26 27  1  0
 26 56  1  1
 27 57  1  0
M  END
>  <i_m_ct_stereo_status>  (68) 
1

>  <s_m_source_file>  (68) 
/var/tmp/pbs.5076255.sched01/tmpuhafuy1n/0xc5aj8_e.sdf

>  <i_m_source_file_index>  (68) 
29

>  <i_lp_mmshare_version>  (68) 
48012

>  <i_f3d_flags>  (68) 
0

>  <s_epik_input>  (68) 
W0NIMl0xW0NIMl1DKD1bQ0gyXSlbQ0BIXShbT0hdKVtDQEBdKFtPSF0pKFtDQEBdMShbQ0BAXTIzNClbT0hdKVtDSDJdW0NIMl1DKD1PKUMyPVtDSF1bQ0BASF01W0NAQF00KFtPSF0pW0NASF0oW0NIMl1bQ0gyXTMpW0NIMl1DNShbQ0gzXSlbQ0gzXQ==

>  <s_epik_cmdline>  (68) 
J2VwaWtfcHl0aG9uJywgJy1waHQnLCAnMi4wJywgJy1waCcsICc3LjAnLCAnLXRuJywgJzgnLCAnLW1hJywgJzIwMCcsICctaW1hZScsICc8aW5maWxlLm1hZT4nLCAnLW9tYWUnLCAnPG91dGZpbGUubWFlPic=

>  <r_lp_tautomer_probability>  (68) 
1

>  <r_epik_Ionization_Penalty>  (68) 
3.36261e-07

>  <r_epik_Ionization_Penalty_Charging>  (68) 
0

>  <r_epik_Ionization_Penalty_Neutral>  (68) 
3.36261e-07

>  <r_epik_State_Penalty>  (68) 
-0

>  <r_epik_Charging_Adjusted_Penalty>  (68) 
0

>  <i_epik_Tot_Q>  (68) 
0

>  <i_epik_Tot_abs_Q>  (68) 
0

>  <s_lp_Force_Field>  (68) 
OPLS3e

>  <r_lp_Energy>  (68) 
41.2414

>  <b_lp_Chiralities_Consistent>  (68) 
1

>  <s_lp_Variant>  (68) 
19:0-1

>  <s_i_glide_gridfile>  (68) 
pfpi4k_grid

>  <i_i_glide_lignum>  (68) 
29

>  <i_i_glide_rotatable_bonds>  (68) 
4

>  <r_i_docking_score>  (68) 
-4.03675

>  <r_i_glide_ligand_efficiency>  (68) 
-0.149509

>  <r_i_glide_ligand_efficiency_sa>  (68) 
-0.448528

>  <r_i_glide_ligand_efficiency_ln>  (68) 
-0.93969

>  <r_i_glide_gscore>  (68) 
-4.03675

>  <r_i_glide_lipo>  (68) 
-0.688167

>  <r_i_glide_hbond>  (68) 
0

>  <r_i_glide_metal>  (68) 
-0

>  <r_i_glide_rewards>  (68) 
-1.01581

>  <r_i_glide_evdw>  (68) 
-14.3632

>  <r_i_glide_ecoul>  (68) 
-10.7641

>  <r_i_glide_erotb>  (68) 
0

>  <r_i_glide_esite>  (68) 
0

>  <r_i_glide_emodel>  (68) 
-29.7599

>  <r_i_glide_energy>  (68) 
-25.1273

>  <r_i_glide_einternal>  (68) 
2.25517

>  <r_i_glide_intrahb_reward>  (68) 
-0

>  <i_i_glide_confnum>  (68) 
2

>  <i_i_glide_posenum>  (68) 
29

>  <r_i_glide_eff_state_penalty>  (68) 
0

>  <ligand_id>  (68) 
19

>  <original_smiles>  (68) 
C=C1CCC2(O)C(O)(CCC(=O)C3=CC4C(C)(C)CC5CCC32C54O)C1O

>  <smiles>  (68) 
[H]OC1([H])C(=C([H])[H])C([H])([H])C([H])([H])C2(O[H])C1(O[H])C([H])([H])C([H])([H])C(=O)C1=C([H])C3([H])C4(O[H])C([H])(C([H])([H])C([H])([H])C142)C([H])([H])C3(C([H])([H])[H])C([H])([H])[H]

$$$$
19:0:1
     RDKit          3D

 57 61  0  0  1  0  0  0  0  0999 V2000
    3.5463   -2.8655    0.4106 C   0  0  0  0  0  0  0  0  0  0  0  0
    3.8231   -1.9176    1.3199 C   0  0  0  0  0  0  0  0  0  0  0  0
    3.5542   -0.4582    1.0524 C   0  0  0  0  0  0  0  0  0  0  0  0
    2.6142    0.1274    2.1195 C   0  0  0  0  0  0  0  0  0  0  0  0
    3.1079   -0.0908    3.5760 C   0  0  2  0  0  0  0  0  0  0  0  0
    4.3878    0.5027    3.6463 O   0  0  0  0  0  0  0  0  0  0  0  0
    3.3804   -1.6356    3.8115 C   0  0  1  0  0  0  0  0  0  0  0  0
    4.0652   -1.8469    5.0334 O   0  0  0  0  0  0  0  0  0  0  0  0
    2.1130   -2.5300    3.8431 C   0  0  0  0  0  0  0  0  0  0  0  0
    1.0985   -2.2267    4.9536 C   0  0  0  0  0  0  0  0  0  0  0  0
    0.1707   -1.0682    4.6448 C   0  0  0  0  0  0  0  0  0  0  0  0
   -1.0342   -1.3287    4.5134 O   0  0  0  0  0  0  0  0  0  0  0  0
    0.7039    0.3033    4.4838 C   0  0  0  0  0  0  0  0  0  0  0  0
   -0.0605    1.3090    4.0528 C   0  0  0  0  0  0  0  0  0  0  0  0
    0.6781    2.5914    3.8112 C   0  0  1  0  0  0  0  0  0  0  0  0
    0.1394    3.8416    4.5604 C   0  0  0  0  0  0  0  0  0  0  0  0
    0.7389    5.1308    3.9609 C   0  0  0  0  0  0  0  0  0  0  0  0
   -1.3969    3.9943    4.5477 C   0  0  0  0  0  0  0  0  0  0  0  0
    0.6589    3.6643    5.9946 C   0  0  0  0  0  0  0  0  0  0  0  0
    1.9672    2.8688    5.8718 C   0  0  1  0  0  0  0  0  0  0  0  0
    2.0445    1.7141    6.8762 C   0  0  0  0  0  0  0  0  0  0  0  0
    2.6835    0.5772    6.0893 C   0  0  0  0  0  0  0  0  0  0  0  0
    2.1790    0.6807    4.6293 C   0  0  1  0  0  0  0  0  0  0  0  0
    2.0364    2.2424    4.4503 C   0  0  1  0  0  0  0  0  0  0  0  0
    3.0540    2.8748    3.7375 O   0  0  0  0  0  0  0  0  0  0  0  0
    4.3699   -2.1825    2.7141 C   0  0  1  0  0  0  0  0  0  0  0  0
    4.6668   -3.5564    2.8846 O   0  0  0  0  0  0  0  0  0  0  0  0
    3.7081   -3.9213    0.6035 H   0  0  0  0  0  0  0  0  0  0  0  0
    3.1278   -2.5935   -0.5492 H   0  0  0  0  0  0  0  0  0  0  0  0
    4.5115    0.0677    1.0499 H   0  0  0  0  0  0  0  0  0  0  0  0
    3.1121   -0.3434    0.0643 H   0  0  0  0  0  0  0  0  0  0  0  0
    2.4857    1.1765    1.8855 H   0  0  0  0  0  0  0  0  0  0  0  0
    1.6385   -0.3355    1.9804 H   0  0  0  0  0  0  0  0  0  0  0  0
    4.3110    1.4342    3.4953 H   0  0  0  0  0  0  0  0  0  0  0  0
    3.5101   -1.5461    5.7368 H   0  0  0  0  0  0  0  0  0  0  0  0
    1.6139   -2.5297    2.8713 H   0  0  0  0  0  0  0  0  0  0  0  0
    2.4171   -3.5631    3.9950 H   0  0  0  0  0  0  0  0  0  0  0  0
    0.4684   -3.1107    5.0669 H   0  0  0  0  0  0  0  0  0  0  0  0
    1.5705   -2.0842    5.9238 H   0  0  0  0  0  0  0  0  0  0  0  0
   -1.1181    1.2169    3.8102 H   0  0  0  0  0  0  0  0  0  0  0  0
    0.7427    2.7562    2.7315 H   0  0  0  0  0  0  0  0  0  0  0  0
    0.3787    6.0334    4.4607 H   0  0  0  0  0  0  0  0  0  0  0  0
    0.4912    5.2154    2.8939 H   0  0  0  0  0  0  0  0  0  0  0  0
    1.8360    5.1355    4.0386 H   0  0  0  0  0  0  0  0  0  0  0  0
   -1.6718    4.8907    5.0906 H   0  0  0  0  0  0  0  0  0  0  0  0
   -1.9156    3.1684    5.0214 H   0  0  0  0  0  0  0  0  0  0  0  0
   -1.7687    4.0994    3.5294 H   0  0  0  0  0  0  0  0  0  0  0  0
    0.8282    4.6119    6.5000 H   0  0  0  0  0  0  0  0  0  0  0  0
   -0.0690    3.1324    6.5947 H   0  0  0  0  0  0  0  0  0  0  0  0
    2.8198    3.5326    6.0127 H   0  0  0  0  0  0  0  0  0  0  0  0
    2.6371    1.9796    7.7511 H   0  0  0  0  0  0  0  0  0  0  0  0
    1.0658    1.3956    7.2258 H   0  0  0  0  0  0  0  0  0  0  0  0
    3.7559    0.7665    6.0918 H   0  0  0  0  0  0  0  0  0  0  0  0
    2.5210   -0.3820    6.5818 H   0  0  0  0  0  0  0  0  0  0  0  0
    2.9361    2.7223    2.8047 H   0  0  0  0  0  0  0  0  0  0  0  0
    5.3230   -1.6563    2.7878 H   0  0  0  0  0  0  0  0  0  0  0  0
    5.3518   -3.7809    2.2701 H   0  0  0  0  0  0  0  0  0  0  0  0
  1  2  2  0
  1 28  1  0
  1 29  1  0
  2 26  1  0
  2  3  1  0
  3  4  1  0
  3 30  1  0
  3 31  1  0
  4  5  1  0
  4 32  1  0
  4 33  1  0
  5 23  1  0
  5  6  1  6
  5  7  1  0
  6 34  1  0
  7  8  1  1
  7  9  1  0
  7 26  1  0
  8 35  1  0
  9 10  1  0
  9 36  1  0
  9 37  1  0
 10 11  1  0
 10 38  1  0
 10 39  1  0
 11 12  2  0
 11 13  1  0
 13 23  1  0
 13 14  2  0
 14 15  1  0
 14 40  1  0
 15 24  1  0
 15 16  1  0
 15 41  1  6
 16 17  1  0
 16 18  1  0
 16 19  1  0
 17 42  1  0
 17 43  1  0
 17 44  1  0
 18 45  1  0
 18 46  1  0
 18 47  1  0
 19 20  1  0
 19 48  1  0
 19 49  1  0
 20 24  1  0
 20 21  1  0
 20 50  1  1
 21 22  1  0
 21 51  1  0
 21 52  1  0
 23 22  1  1
 22 53  1  0
 22 54  1  0
 23 24  1  0
 24 25  1  6
 25 55  1  0
 26 27  1  0
 26 56  1  6
 27 57  1  0
M  END
>  <i_m_ct_stereo_status>  (69) 
1

>  <s_m_source_file>  (69) 
/var/tmp/pbs.5076255.sched01/tmpuhafuy1n/0xc5aj8_e.sdf

>  <i_m_source_file_index>  (69) 
29

>  <i_lp_mmshare_version>  (69) 
48012

>  <i_f3d_flags>  (69) 
0

>  <s_epik_input>  (69) 
W0NIMl0xW0NIMl1DKD1bQ0gyXSlbQ0BIXShbT0hdKVtDQEBdKFtPSF0pKFtDQEBdMShbQ0BAXTIzNClbT0hdKVtDSDJdW0NIMl1DKD1PKUMyPVtDSF1bQ0BASF01W0NAQF00KFtPSF0pW0NASF0oW0NIMl1bQ0gyXTMpW0NIMl1DNShbQ0gzXSlbQ0gzXQ==

>  <s_epik_cmdline>  (69) 
J2VwaWtfcHl0aG9uJywgJy1waHQnLCAnMi4wJywgJy1waCcsICc3LjAnLCAnLXRuJywgJzgnLCAnLW1hJywgJzIwMCcsICctaW1hZScsICc8aW5maWxlLm1hZT4nLCAnLW9tYWUnLCAnPG91dGZpbGUubWFlPic=

>  <r_lp_tautomer_probability>  (69) 
1

>  <r_epik_Ionization_Penalty>  (69) 
3.36261e-07

>  <r_epik_Ionization_Penalty_Charging>  (69) 
0

>  <r_epik_Ionization_Penalty_Neutral>  (69) 
3.36261e-07

>  <r_epik_State_Penalty>  (69) 
-0

>  <r_epik_Charging_Adjusted_Penalty>  (69) 
0

>  <i_epik_Tot_Q>  (69) 
0

>  <i_epik_Tot_abs_Q>  (69) 
0

>  <s_lp_Force_Field>  (69) 
OPLS3e

>  <r_lp_Energy>  (69) 
41.2414

>  <b_lp_Chiralities_Consistent>  (69) 
1

>  <s_lp_Variant>  (69) 
19:0-1

>  <s_i_glide_gridfile>  (69) 
pfpi4k_grid

>  <i_i_glide_lignum>  (69) 
29

>  <i_i_glide_rotatable_bonds>  (69) 
4

>  <r_i_docking_score>  (69) 
-2.36803

>  <r_i_glide_ligand_efficiency>  (69) 
-0.0877048

>  <r_i_glide_ligand_efficiency_sa>  (69) 
-0.263115

>  <r_i_glide_ligand_efficiency_ln>  (69) 
-0.551239

>  <r_i_glide_gscore>  (69) 
-2.36803

>  <r_i_glide_lipo>  (69) 
-0.0190274

>  <r_i_glide_hbond>  (69) 
0

>  <r_i_glide_metal>  (69) 
-0

>  <r_i_glide_rewards>  (69) 
-0.855882

>  <r_i_glide_evdw>  (69) 
-21.9507

>  <r_i_glide_ecoul>  (69) 
-2.56261

>  <r_i_glide_erotb>  (69) 
0

>  <r_i_glide_esite>  (69) 
-0.0111949

>  <r_i_glide_emodel>  (69) 
-27.9225

>  <r_i_glide_energy>  (69) 
-24.5133

>  <r_i_glide_einternal>  (69) 
0.459383

>  <r_i_glide_intrahb_reward>  (69) 
-0

>  <i_i_glide_confnum>  (69) 
1

>  <i_i_glide_posenum>  (69) 
22

>  <r_i_glide_eff_state_penalty>  (69) 
0

>  <ligand_id>  (69) 
19

>  <original_smiles>  (69) 
C=C1CCC2(O)C(O)(CCC(=O)C3=CC4C(C)(C)CC5CCC32C54O)C1O

>  <smiles>  (69) 
[H]OC1([H])C(=C([H])[H])C([H])([H])C([H])([H])C2(O[H])C1(O[H])C([H])([H])C([H])([H])C(=O)C1=C([H])C3([H])C4(O[H])C([H])(C([H])([H])C([H])([H])C142)C([H])([H])C3(C([H])([H])[H])C([H])([H])[H]

$$$$
19:0:2
     RDKit          3D

 57 61  0  0  1  0  0  0  0  0999 V2000
    5.1896   -0.9213    4.2209 C   0  0  0  0  0  0  0  0  0  0  0  0
    4.5277    0.1288    4.7217 C   0  0  0  0  0  0  0  0  0  0  0  0
    3.9414    1.1840    3.8403 C   0  0  0  0  0  0  0  0  0  0  0  0
    2.4474    1.3616    4.0826 C   0  0  0  0  0  0  0  0  0  0  0  0
    2.1057    1.6538    5.5728 C   0  0  2  0  0  0  0  0  0  0  0  0
    2.8175    2.8469    5.8926 O   0  0  0  0  0  0  0  0  0  0  0  0
    2.7635    0.5302    6.4772 C   0  0  1  0  0  0  0  0  0  0  0  0
    2.6749    0.8761    7.8474 O   0  0  0  0  0  0  0  0  0  0  0  0
    2.1182   -0.8670    6.3141 C   0  0  0  0  0  0  0  0  0  0  0  0
    0.6323   -0.9864    6.6918 C   0  0  0  0  0  0  0  0  0  0  0  0
   -0.3213   -0.5296    5.6024 C   0  0  0  0  0  0  0  0  0  0  0  0
   -1.0568   -1.3723    5.0805 O   0  0  0  0  0  0  0  0  0  0  0  0
   -0.3055    0.8571    5.1335 C   0  0  0  0  0  0  0  0  0  0  0  0
   -0.9680    1.2301    4.0394 C   0  0  0  0  0  0  0  0  0  0  0  0
   -0.7674    2.6665    3.6524 C   0  0  1  0  0  0  0  0  0  0  0  0
   -2.0453    3.5544    3.5793 C   0  0  0  0  0  0  0  0  0  0  0  0
   -1.7845    4.9196    2.8936 C   0  0  0  0  0  0  0  0  0  0  0  0
   -3.2893    2.9835    2.8805 C   0  0  0  0  0  0  0  0  0  0  0  0
   -2.3720    3.7099    5.0476 C   0  0  0  0  0  0  0  0  0  0  0  0
   -1.0475    3.8218    5.7999 C   0  0  1  0  0  0  0  0  0  0  0  0
   -1.1123    3.0869    7.1361 C   0  0  0  0  0  0  0  0  0  0  0  0
    0.2070    2.3605    7.2121 C   0  0  0  0  0  0  0  0  0  0  0  0
    0.5632    1.9562    5.7592 C   0  0  1  0  0  0  0  0  0  0  0  0
    0.0226    3.1714    4.9105 C   0  0  1  0  0  0  0  0  0  0  0  0
    0.9680    4.1693    4.4960 O   0  0  0  0  0  0  0  0  0  0  0  0
    4.2959    0.4106    6.1978 C   0  0  1  0  0  0  0  0  0  0  0  0
    4.9439   -0.5629    7.0061 O   0  0  0  0  0  0  0  0  0  0  0  0
    5.6175   -1.6860    4.8559 H   0  0  0  0  0  0  0  0  0  0  0  0
    5.3132   -1.0211    3.1507 H   0  0  0  0  0  0  0  0  0  0  0  0
    4.4547    2.1140    4.0920 H   0  0  0  0  0  0  0  0  0  0  0  0
    4.1162    0.9272    2.7951 H   0  0  0  0  0  0  0  0  0  0  0  0
    2.1194    2.1715    3.4321 H   0  0  0  0  0  0  0  0  0  0  0  0
    1.9247    0.4679    3.7372 H   0  0  0  0  0  0  0  0  0  0  0  0
    2.4366    3.5662    5.3927 H   0  0  0  0  0  0  0  0  0  0  0  0
    1.7603    0.9713    8.0649 H   0  0  0  0  0  0  0  0  0  0  0  0
    2.2744   -1.2611    5.3075 H   0  0  0  0  0  0  0  0  0  0  0  0
    2.6370   -1.5685    6.9627 H   0  0  0  0  0  0  0  0  0  0  0  0
    0.4199   -2.0403    6.8587 H   0  0  0  0  0  0  0  0  0  0  0  0
    0.4004   -0.4768    7.6195 H   0  0  0  0  0  0  0  0  0  0  0  0
   -1.6547    0.6345    3.4866 H   0  0  0  0  0  0  0  0  0  0  0  0
   -0.1783    2.7155    2.7214 H   0  0  0  0  0  0  0  0  0  0  0  0
   -2.7161    5.5008    2.8399 H   0  0  0  0  0  0  0  0  0  0  0  0
   -1.4599    4.7655    1.8942 H   0  0  0  0  0  0  0  0  0  0  0  0
   -1.0180    5.4969    3.4268 H   0  0  0  0  0  0  0  0  0  0  0  0
   -4.0733    3.7433    2.8301 H   0  0  0  0  0  0  0  0  0  0  0  0
   -3.7353    2.1578    3.4381 H   0  0  0  0  0  0  0  0  0  0  0  0
   -3.0869    2.6700    1.8564 H   0  0  0  0  0  0  0  0  0  0  0  0
   -2.8454    4.6507    5.0826 H   0  0  0  0  0  0  0  0  0  0  0  0
   -3.0552    2.9367    5.4710 H   0  0  0  0  0  0  0  0  0  0  0  0
   -0.8093    4.8661    5.9855 H   0  0  0  0  0  0  0  0  0  0  0  0
   -1.2659    3.7625    7.9841 H   0  0  0  0  0  0  0  0  0  0  0  0
   -1.9441    2.3697    7.1587 H   0  0  0  0  0  0  0  0  0  0  0  0
    0.9333    3.0883    7.5734 H   0  0  0  0  0  0  0  0  0  0  0  0
    0.1441    1.5328    7.9081 H   0  0  0  0  0  0  0  0  0  0  0  0
    1.2031    3.9995    3.5851 H   0  0  0  0  0  0  0  0  0  0  0  0
    4.7826    1.3614    6.4321 H   0  0  0  0  0  0  0  0  0  0  0  0
    5.8771   -0.4476    6.8819 H   0  0  0  0  0  0  0  0  0  0  0  0
  1  2  2  0
  1 28  1  0
  1 29  1  0
  2 26  1  0
  2  3  1  0
  3  4  1  0
  3 30  1  0
  3 31  1  0
  4  5  1  0
  4 32  1  0
  4 33  1  0
  5 23  1  0
  5  6  1  1
  5  7  1  0
  6 34  1  0
  7  8  1  1
  7  9  1  0
  7 26  1  0
  8 35  1  0
  9 10  1  0
  9 36  1  0
  9 37  1  0
 10 11  1  0
 10 38  1  0
 10 39  1  0
 11 12  2  0
 11 13  1  0
 13 23  1  0
 13 14  2  0
 14 15  1  0
 14 40  1  0
 15 24  1  0
 15 16  1  0
 15 41  1  6
 16 17  1  0
 16 18  1  0
 16 19  1  0
 17 42  1  0
 17 43  1  0
 17 44  1  0
 18 45  1  0
 18 46  1  0
 18 47  1  0
 19 20  1  0
 19 48  1  0
 19 49  1  0
 20 24  1  0
 20 21  1  0
 20 50  1  1
 21 22  1  0
 21 51  1  0
 21 52  1  0
 23 22  1  1
 22 53  1  0
 22 54  1  0
 23 24  1  0
 24 25  1  6
 25 55  1  0
 26 27  1  0
 26 56  1  1
 27 57  1  0
M  END
>  <i_m_ct_stereo_status>  (70) 
1

>  <s_m_source_file>  (70) 
/var/tmp/pbs.5076255.sched01/tmpuhafuy1n/0xc5aj8_e.sdf

>  <i_m_source_file_index>  (70) 
29

>  <i_lp_mmshare_version>  (70) 
48012

>  <i_f3d_flags>  (70) 
0

>  <s_epik_input>  (70) 
W0NIMl0xW0NIMl1DKD1bQ0gyXSlbQ0BIXShbT0hdKVtDQEBdKFtPSF0pKFtDQEBdMShbQ0BAXTIzNClbT0hdKVtDSDJdW0NIMl1DKD1PKUMyPVtDSF1bQ0BASF01W0NAQF00KFtPSF0pW0NASF0oW0NIMl1bQ0gyXTMpW0NIMl1DNShbQ0gzXSlbQ0gzXQ==

>  <s_epik_cmdline>  (70) 
J2VwaWtfcHl0aG9uJywgJy1waHQnLCAnMi4wJywgJy1waCcsICc3LjAnLCAnLXRuJywgJzgnLCAnLW1hJywgJzIwMCcsICctaW1hZScsICc8aW5maWxlLm1hZT4nLCAnLW9tYWUnLCAnPG91dGZpbGUubWFlPic=

>  <r_lp_tautomer_probability>  (70) 
1

>  <r_epik_Ionization_Penalty>  (70) 
3.36261e-07

>  <r_epik_Ionization_Penalty_Charging>  (70) 
0

>  <r_epik_Ionization_Penalty_Neutral>  (70) 
3.36261e-07

>  <r_epik_State_Penalty>  (70) 
-0

>  <r_epik_Charging_Adjusted_Penalty>  (70) 
0

>  <i_epik_Tot_Q>  (70) 
0

>  <i_epik_Tot_abs_Q>  (70) 
0

>  <s_lp_Force_Field>  (70) 
OPLS3e

>  <r_lp_Energy>  (70) 
41.2414

>  <b_lp_Chiralities_Consistent>  (70) 
1

>  <s_lp_Variant>  (70) 
19:0-1

>  <s_i_glide_gridfile>  (70) 
pfpi4k_grid

>  <i_i_glide_lignum>  (70) 
29

>  <i_i_glide_rotatable_bonds>  (70) 
4

>  <r_i_docking_score>  (70) 
-1.84788

>  <r_i_glide_ligand_efficiency>  (70) 
-0.0684402

>  <r_i_glide_ligand_efficiency_sa>  (70) 
-0.20532

>  <r_i_glide_ligand_efficiency_ln>  (70) 
-0.430157

>  <r_i_glide_gscore>  (70) 
-1.84788

>  <r_i_glide_lipo>  (70) 
-0.11816

>  <r_i_glide_hbond>  (70) 
0

>  <r_i_glide_metal>  (70) 
-0

>  <r_i_glide_rewards>  (70) 
-1.35588

>  <r_i_glide_evdw>  (70) 
-4.19491

>  <r_i_glide_ecoul>  (70) 
-0.917024

>  <r_i_glide_erotb>  (70) 
0

>  <r_i_glide_esite>  (70) 
-0.0265436

>  <r_i_glide_emodel>  (70) 
-11.0051

>  <r_i_glide_energy>  (70) 
-5.11193

>  <r_i_glide_einternal>  (70) 
0.889686

>  <r_i_glide_intrahb_reward>  (70) 
-0.5

>  <i_i_glide_confnum>  (70) 
2

>  <i_i_glide_posenum>  (70) 
3

>  <r_i_glide_eff_state_penalty>  (70) 
0

>  <ligand_id>  (70) 
19

>  <original_smiles>  (70) 
C=C1CCC2(O)C(O)(CCC(=O)C3=CC4C(C)(C)CC5CCC32C54O)C1O

>  <smiles>  (70) 
[H]OC1([H])C(=C([H])[H])C([H])([H])C([H])([H])C2(O[H])C1(O[H])C([H])([H])C([H])([H])C(=O)C1=C([H])C3([H])C4(O[H])C([H])(C([H])([H])C([H])([H])C142)C([H])([H])C3(C([H])([H])[H])C([H])([H])[H]

$$$$
21:0:0
     RDKit          3D

 24 24  0  0  1  0  0  0  0  0999 V2000
   -0.4253   -8.7680    4.6774 C   0  0  0  0  0  0  0  0  0  0  0  0
   -0.9769   -8.2090    3.3742 C   0  0  0  0  0  0  0  0  0  0  0  0
   -1.9396   -7.4482    3.3530 O   0  0  0  0  0  0  0  0  0  0  0  0
   -0.2493   -8.5917    2.0916 C   0  0  0  0  0  0  0  0  0  0  0  0
    0.7837   -7.6610    1.6981 N   0  0  0  0  0  0  0  0  0  0  0  0
    0.5085   -6.5426    0.9979 N   0  0  0  0  0  0  0  0  0  0  0  0
    1.6124   -5.8768    0.9554 N   0  0  0  0  0  0  0  0  0  0  0  0
    2.5453   -6.6437    1.5908 C   0  0  0  0  0  0  0  0  0  0  0  0
    3.9801   -6.2513    1.7525 C   0  0  0  0  0  0  0  0  0  0  0  0
    4.7848   -6.2700    0.4394 C   0  0  0  0  0  0  0  0  0  0  0  0
    4.4768   -5.0655   -0.4625 C   0  0  0  0  0  0  0  0  0  0  0  0
    6.0789   -6.2081    0.7457 F   0  0  0  0  0  0  0  0  0  0  0  0
    4.5683   -7.4130   -0.2153 F   0  0  0  0  0  0  0  0  0  0  0  0
    2.0673   -7.7771    2.0781 N   0  0  0  0  0  0  0  0  0  0  0  0
    0.6097   -8.4627    4.8196 H   0  0  0  0  0  0  0  0  0  0  0  0
   -0.4581   -9.8566    4.6541 H   0  0  0  0  0  0  0  0  0  0  0  0
   -1.0120   -8.4276    5.5278 H   0  0  0  0  0  0  0  0  0  0  0  0
    0.1984   -9.5786    2.2077 H   0  0  0  0  0  0  0  0  0  0  0  0
   -0.9772   -8.6462    1.2863 H   0  0  0  0  0  0  0  0  0  0  0  0
    4.0315   -5.2634    2.2103 H   0  0  0  0  0  0  0  0  0  0  0  0
    4.4396   -6.9416    2.4612 H   0  0  0  0  0  0  0  0  0  0  0  0
    5.0444   -5.0969   -1.3932 H   0  0  0  0  0  0  0  0  0  0  0  0
    4.7014   -4.1293    0.0470 H   0  0  0  0  0  0  0  0  0  0  0  0
    3.4219   -5.0337   -0.7181 H   0  0  0  0  0  0  0  0  0  0  0  0
  1  2  1  0
  1 15  1  0
  1 16  1  0
  1 17  1  0
  2  3  2  0
  2  4  1  0
  4  5  1  0
  4 18  1  0
  4 19  1  0
  5 14  1  0
  5  6  1  0
  6  7  2  0
  7  8  1  0
  8  9  1  0
  8 14  2  0
  9 10  1  0
  9 20  1  0
  9 21  1  0
 10 11  1  0
 10 12  1  0
 10 13  1  0
 11 22  1  0
 11 23  1  0
 11 24  1  0
M  END
>  <i_m_ct_stereo_status>  (71) 
1

>  <s_m_source_file>  (71) 
/var/tmp/pbs.5076255.sched01/tmpuhafuy1n/0xc5aj8_e.sdf

>  <i_m_source_file_index>  (71) 
31

>  <i_lp_mmshare_version>  (71) 
48012

>  <i_f3d_flags>  (71) 
0

>  <s_epik_input>  (71) 
W0NIM11DKD1PKVtDSDJdbjFubmMobjEpW0NIMl1DKEYpKEYpW0NIM10=

>  <s_epik_cmdline>  (71) 
J2VwaWtfcHl0aG9uJywgJy1waHQnLCAnMi4wJywgJy1waCcsICc3LjAnLCAnLXRuJywgJzgnLCAnLW1hJywgJzIwMCcsICctaW1hZScsICc8aW5maWxlLm1hZT4nLCAnLW9tYWUnLCAnPG91dGZpbGUubWFlPic=

>  <r_lp_tautomer_probability>  (71) 
1

>  <r_epik_Ionization_Penalty>  (71) 
4.89922e-08

>  <r_epik_Ionization_Penalty_Charging>  (71) 
0

>  <r_epik_Ionization_Penalty_Neutral>  (71) 
4.89922e-08

>  <r_epik_State_Penalty>  (71) 
-0

>  <r_epik_Charging_Adjusted_Penalty>  (71) 
0

>  <i_epik_Tot_Q>  (71) 
0

>  <i_epik_Tot_abs_Q>  (71) 
0

>  <s_lp_Force_Field>  (71) 
OPLS3e

>  <r_lp_Energy>  (71) 
-4.20574

>  <b_lp_Chiralities_Consistent>  (71) 
1

>  <s_lp_Variant>  (71) 
21:0-1

>  <s_i_glide_gridfile>  (71) 
pfpi4k_grid

>  <i_i_glide_lignum>  (71) 
31

>  <i_i_glide_rotatable_bonds>  (71) 
4

>  <r_i_docking_score>  (71) 
-3.63369

>  <r_i_glide_ligand_efficiency>  (71) 
-0.25955

>  <r_i_glide_ligand_efficiency_sa>  (71) 
-0.625551

>  <r_i_glide_ligand_efficiency_ln>  (71) 
-0.998526

>  <r_i_glide_gscore>  (71) 
-3.63369

>  <r_i_glide_lipo>  (71) 
-0.186608

>  <r_i_glide_hbond>  (71) 
0

>  <r_i_glide_metal>  (71) 
-0

>  <r_i_glide_rewards>  (71) 
-2.1441

>  <r_i_glide_evdw>  (71) 
-16.2573

>  <r_i_glide_ecoul>  (71) 
-6.48944

>  <r_i_glide_erotb>  (71) 
0.788972

>  <r_i_glide_esite>  (71) 
-0.30568

>  <r_i_glide_emodel>  (71) 
-27.4666

>  <r_i_glide_energy>  (71) 
-22.7467

>  <r_i_glide_einternal>  (71) 
2.50556

>  <r_i_glide_intrahb_reward>  (71) 
-0

>  <i_i_glide_confnum>  (71) 
3

>  <i_i_glide_posenum>  (71) 
40

>  <r_i_glide_eff_state_penalty>  (71) 
0

>  <ligand_id>  (71) 
21

>  <original_smiles>  (71) 
CC(=O)Cn1nnc(CC(C)(F)F)n1

>  <smiles>  (71) 
[H]C([H])([H])C(=O)C([H])([H])n1nnc(C([H])([H])C(F)(F)C([H])([H])[H])n1

$$$$
21:0:1
     RDKit          3D

 24 24  0  0  1  0  0  0  0  0999 V2000
   -1.5073   -8.9744    3.8315 C   0  0  0  0  0  0  0  0  0  0  0  0
   -0.9091   -7.8502    3.0105 C   0  0  0  0  0  0  0  0  0  0  0  0
   -0.9890   -6.6742    3.3715 O   0  0  0  0  0  0  0  0  0  0  0  0
   -0.2138   -8.2364    1.7153 C   0  0  0  0  0  0  0  0  0  0  0  0
    0.8637   -7.3637    1.3154 N   0  0  0  0  0  0  0  0  0  0  0  0
    0.6664   -6.2666    0.5560 N   0  0  0  0  0  0  0  0  0  0  0  0
    1.8040   -5.6479    0.5290 N   0  0  0  0  0  0  0  0  0  0  0  0
    2.6582   -6.4022    1.2693 C   0  0  0  0  0  0  0  0  0  0  0  0
    4.0856   -6.0278    1.4931 C   0  0  0  0  0  0  0  0  0  0  0  0
    4.9239   -6.0498    0.2020 C   0  0  0  0  0  0  0  0  0  0  0  0
    4.7637   -4.7711   -0.6345 C   0  0  0  0  0  0  0  0  0  0  0  0
    6.2074   -6.1374    0.5445 F   0  0  0  0  0  0  0  0  0  0  0  0
    4.6112   -7.1252   -0.5228 F   0  0  0  0  0  0  0  0  0  0  0  0
    2.1228   -7.5033    1.7718 N   0  0  0  0  0  0  0  0  0  0  0  0
   -0.7222   -9.6757    4.1163 H   0  0  0  0  0  0  0  0  0  0  0  0
   -2.2652   -9.5152    3.2649 H   0  0  0  0  0  0  0  0  0  0  0  0
   -1.9658   -8.5866    4.7392 H   0  0  0  0  0  0  0  0  0  0  0  0
    0.1751   -9.2543    1.8059 H   0  0  0  0  0  0  0  0  0  0  0  0
   -0.9662   -8.2346    0.9256 H   0  0  0  0  0  0  0  0  0  0  0  0
    4.1294   -5.0415    1.9602 H   0  0  0  0  0  0  0  0  0  0  0  0
    4.5037   -6.7330    2.2088 H   0  0  0  0  0  0  0  0  0  0  0  0
    5.3698   -4.7982   -1.5388 H   0  0  0  0  0  0  0  0  0  0  0  0
    5.0609   -3.8946   -0.0577 H   0  0  0  0  0  0  0  0  0  0  0  0
    3.7311   -4.6223   -0.9430 H   0  0  0  0  0  0  0  0  0  0  0  0
  1  2  1  0
  1 15  1  0
  1 16  1  0
  1 17  1  0
  2  3  2  0
  2  4  1  0
  4  5  1  0
  4 18  1  0
  4 19  1  0
  5 14  1  0
  5  6  1  0
  6  7  2  0
  7  8  1  0
  8  9  1  0
  8 14  2  0
  9 10  1  0
  9 20  1  0
  9 21  1  0
 10 11  1  0
 10 12  1  0
 10 13  1  0
 11 22  1  0
 11 23  1  0
 11 24  1  0
M  END
>  <i_m_ct_stereo_status>  (72) 
1

>  <s_m_source_file>  (72) 
/var/tmp/pbs.5076255.sched01/tmpuhafuy1n/0xc5aj8_e.sdf

>  <i_m_source_file_index>  (72) 
31

>  <i_lp_mmshare_version>  (72) 
48012

>  <i_f3d_flags>  (72) 
0

>  <s_epik_input>  (72) 
W0NIM11DKD1PKVtDSDJdbjFubmMobjEpW0NIMl1DKEYpKEYpW0NIM10=

>  <s_epik_cmdline>  (72) 
J2VwaWtfcHl0aG9uJywgJy1waHQnLCAnMi4wJywgJy1waCcsICc3LjAnLCAnLXRuJywgJzgnLCAnLW1hJywgJzIwMCcsICctaW1hZScsICc8aW5maWxlLm1hZT4nLCAnLW9tYWUnLCAnPG91dGZpbGUubWFlPic=

>  <r_lp_tautomer_probability>  (72) 
1

>  <r_epik_Ionization_Penalty>  (72) 
4.89922e-08

>  <r_epik_Ionization_Penalty_Charging>  (72) 
0

>  <r_epik_Ionization_Penalty_Neutral>  (72) 
4.89922e-08

>  <r_epik_State_Penalty>  (72) 
-0

>  <r_epik_Charging_Adjusted_Penalty>  (72) 
0

>  <i_epik_Tot_Q>  (72) 
0

>  <i_epik_Tot_abs_Q>  (72) 
0

>  <s_lp_Force_Field>  (72) 
OPLS3e

>  <r_lp_Energy>  (72) 
-4.20574

>  <b_lp_Chiralities_Consistent>  (72) 
1

>  <s_lp_Variant>  (72) 
21:0-1

>  <s_i_glide_gridfile>  (72) 
pfpi4k_grid

>  <i_i_glide_lignum>  (72) 
31

>  <i_i_glide_rotatable_bonds>  (72) 
4

>  <r_i_docking_score>  (72) 
-3.61545

>  <r_i_glide_ligand_efficiency>  (72) 
-0.258247

>  <r_i_glide_ligand_efficiency_sa>  (72) 
-0.622411

>  <r_i_glide_ligand_efficiency_ln>  (72) 
-0.993514

>  <r_i_glide_gscore>  (72) 
-3.61545

>  <r_i_glide_lipo>  (72) 
-0.151045

>  <r_i_glide_hbond>  (72) 
-0.140633

>  <r_i_glide_metal>  (72) 
-0

>  <r_i_glide_rewards>  (72) 
-2.07267

>  <r_i_glide_evdw>  (72) 
-13.4996

>  <r_i_glide_ecoul>  (72) 
-6.95723

>  <r_i_glide_erotb>  (72) 
0.788972

>  <r_i_glide_esite>  (72) 
-0.321519

>  <r_i_glide_emodel>  (72) 
-25.1891

>  <r_i_glide_energy>  (72) 
-20.4568

>  <r_i_glide_einternal>  (72) 
2.42937

>  <r_i_glide_intrahb_reward>  (72) 
-0

>  <i_i_glide_confnum>  (72) 
3

>  <i_i_glide_posenum>  (72) 
39

>  <r_i_glide_eff_state_penalty>  (72) 
0

>  <ligand_id>  (72) 
21

>  <original_smiles>  (72) 
CC(=O)Cn1nnc(CC(C)(F)F)n1

>  <smiles>  (72) 
[H]C([H])([H])C(=O)C([H])([H])n1nnc(C([H])([H])C(F)(F)C([H])([H])[H])n1

$$$$
21:0:2
     RDKit          3D

 24 24  0  0  1  0  0  0  0  0999 V2000
   -0.3914   -8.7455    4.7267 C   0  0  0  0  0  0  0  0  0  0  0  0
   -1.1655   -8.2564    3.5050 C   0  0  0  0  0  0  0  0  0  0  0  0
   -2.1741   -7.5609    3.6068 O   0  0  0  0  0  0  0  0  0  0  0  0
   -0.5861   -8.6070    2.1406 C   0  0  0  0  0  0  0  0  0  0  0  0
    0.5041   -7.7398    1.7486 N   0  0  0  0  0  0  0  0  0  0  0  0
    0.3430   -6.6612    0.9505 N   0  0  0  0  0  0  0  0  0  0  0  0
    1.5130   -6.1125    0.8657 N   0  0  0  0  0  0  0  0  0  0  0  0
    2.3429   -6.8636    1.6512 C   0  0  0  0  0  0  0  0  0  0  0  0
    3.8030   -6.5957    1.8342 C   0  0  0  0  0  0  0  0  0  0  0  0
    4.7240   -7.4594    0.9457 C   0  0  0  0  0  0  0  0  0  0  0  0
    4.5132   -8.9776    1.0955 C   0  0  0  0  0  0  0  0  0  0  0  0
    4.5383   -7.1114   -0.3255 F   0  0  0  0  0  0  0  0  0  0  0  0
    5.9862   -7.1814    1.2718 F   0  0  0  0  0  0  0  0  0  0  0  0
    1.7482   -7.8836    2.2444 N   0  0  0  0  0  0  0  0  0  0  0  0
    0.6202   -8.3397    4.7242 H   0  0  0  0  0  0  0  0  0  0  0  0
   -0.3117   -9.8334    4.7220 H   0  0  0  0  0  0  0  0  0  0  0  0
   -0.8849   -8.4394    5.6475 H   0  0  0  0  0  0  0  0  0  0  0  0
   -0.2368   -9.6416    2.1471 H   0  0  0  0  0  0  0  0  0  0  0  0
   -1.3703   -8.5441    1.3877 H   0  0  0  0  0  0  0  0  0  0  0  0
    3.9962   -5.5359    1.6453 H   0  0  0  0  0  0  0  0  0  0  0  0
    4.0550   -6.7738    2.8813 H   0  0  0  0  0  0  0  0  0  0  0  0
    5.2089   -9.5537    0.4878 H   0  0  0  0  0  0  0  0  0  0  0  0
    3.5120   -9.2797    0.7932 H   0  0  0  0  0  0  0  0  0  0  0  0
    4.6558   -9.2768    2.1340 H   0  0  0  0  0  0  0  0  0  0  0  0
  1  2  1  0
  1 15  1  0
  1 16  1  0
  1 17  1  0
  2  3  2  0
  2  4  1  0
  4  5  1  0
  4 18  1  0
  4 19  1  0
  5 14  1  0
  5  6  1  0
  6  7  2  0
  7  8  1  0
  8  9  1  0
  8 14  2  0
  9 10  1  0
  9 20  1  0
  9 21  1  0
 10 11  1  0
 10 12  1  0
 10 13  1  0
 11 22  1  0
 11 23  1  0
 11 24  1  0
M  END
>  <i_m_ct_stereo_status>  (73) 
1

>  <s_m_source_file>  (73) 
/var/tmp/pbs.5076255.sched01/tmpuhafuy1n/0xc5aj8_e.sdf

>  <i_m_source_file_index>  (73) 
31

>  <i_lp_mmshare_version>  (73) 
48012

>  <i_f3d_flags>  (73) 
0

>  <s_epik_input>  (73) 
W0NIM11DKD1PKVtDSDJdbjFubmMobjEpW0NIMl1DKEYpKEYpW0NIM10=

>  <s_epik_cmdline>  (73) 
J2VwaWtfcHl0aG9uJywgJy1waHQnLCAnMi4wJywgJy1waCcsICc3LjAnLCAnLXRuJywgJzgnLCAnLW1hJywgJzIwMCcsICctaW1hZScsICc8aW5maWxlLm1hZT4nLCAnLW9tYWUnLCAnPG91dGZpbGUubWFlPic=

>  <r_lp_tautomer_probability>  (73) 
1

>  <r_epik_Ionization_Penalty>  (73) 
4.89922e-08

>  <r_epik_Ionization_Penalty_Charging>  (73) 
0

>  <r_epik_Ionization_Penalty_Neutral>  (73) 
4.89922e-08

>  <r_epik_State_Penalty>  (73) 
-0

>  <r_epik_Charging_Adjusted_Penalty>  (73) 
0

>  <i_epik_Tot_Q>  (73) 
0

>  <i_epik_Tot_abs_Q>  (73) 
0

>  <s_lp_Force_Field>  (73) 
OPLS3e

>  <r_lp_Energy>  (73) 
-4.20574

>  <b_lp_Chiralities_Consistent>  (73) 
1

>  <s_lp_Variant>  (73) 
21:0-1

>  <s_i_glide_gridfile>  (73) 
pfpi4k_grid

>  <i_i_glide_lignum>  (73) 
31

>  <i_i_glide_rotatable_bonds>  (73) 
4

>  <r_i_docking_score>  (73) 
-3.52417

>  <r_i_glide_ligand_efficiency>  (73) 
-0.251727

>  <r_i_glide_ligand_efficiency_sa>  (73) 
-0.606697

>  <r_i_glide_ligand_efficiency_ln>  (73) 
-0.96843

>  <r_i_glide_gscore>  (73) 
-3.52417

>  <r_i_glide_lipo>  (73) 
-0.112962

>  <r_i_glide_hbond>  (73) 
0

>  <r_i_glide_metal>  (73) 
-0

>  <r_i_glide_rewards>  (73) 
-2.17396

>  <r_i_glide_evdw>  (73) 
-18.4271

>  <r_i_glide_ecoul>  (73) 
-5.22317

>  <r_i_glide_erotb>  (73) 
0.788972

>  <r_i_glide_esite>  (73) 
-0.321397

>  <r_i_glide_emodel>  (73) 
-28.8038

>  <r_i_glide_energy>  (73) 
-23.6502

>  <r_i_glide_einternal>  (73) 
1.32971

>  <r_i_glide_intrahb_reward>  (73) 
-0

>  <i_i_glide_confnum>  (73) 
3

>  <i_i_glide_posenum>  (73) 
6

>  <r_i_glide_eff_state_penalty>  (73) 
0

>  <ligand_id>  (73) 
21

>  <original_smiles>  (73) 
CC(=O)Cn1nnc(CC(C)(F)F)n1

>  <smiles>  (73) 
[H]C([H])([H])C(=O)C([H])([H])n1nnc(C([H])([H])C(F)(F)C([H])([H])[H])n1

$$$$
22:0:0
     RDKit          3D

 24 27  0  0  1  0  0  0  0  0999 V2000
   -1.3251    0.9489    1.7034 O   0  0  0  0  0  0  0  0  0  0  0  0
   -0.3343    1.7394    2.3198 C   0  0  2  0  0  0  0  0  0  0  0  0
    0.8926    0.9280    2.7117 C   0  0  0  0  0  0  0  0  0  0  0  0
    2.0128    1.2377    2.0206 N   0  0  0  0  0  0  0  0  0  0  0  0
    3.1352    0.5455    2.2810 C   0  0  0  0  0  0  0  0  0  0  0  0
    3.2105   -0.4664    3.2528 C   0  0  0  0  0  0  0  0  0  0  0  0
    2.0478   -0.7911    3.9738 C   0  0  0  0  0  0  0  0  0  0  0  0
    0.8545   -0.0893    3.7078 C   0  0  0  0  0  0  0  0  0  0  0  0
   -0.3143   -0.4104    4.4397 N   0  0  0  0  0  0  0  0  0  0  0  0
   -0.6534   -1.6137    4.9107 C   0  0  0  0  0  0  0  0  0  0  0  0
   -1.7588   -1.5883    5.6573 N   0  0  0  0  0  0  0  0  0  0  0  0
   -2.1731   -0.2589    5.6379 N   0  0  0  0  0  0  0  0  0  0  0  0
   -1.2875    0.4097    4.8811 C   0  0  0  0  0  0  0  0  0  0  0  0
   -1.3733    1.8239    4.6006 C   0  0  0  0  0  0  0  0  0  0  0  0
   -1.8849    2.7521    5.3949 N   0  0  0  0  0  0  0  0  0  0  0  0
   -1.7286    3.9188    4.6854 N   0  0  0  0  0  0  0  0  0  0  0  0
   -1.1788    3.7020    3.5308 N   0  0  0  0  0  0  0  0  0  0  0  0
   -0.9394    2.3741    3.4695 N   0  0  0  0  0  0  0  0  0  0  0  0
   -1.1613    0.9287    0.7491 H   0  0  0  0  0  0  0  0  0  0  0  0
   -0.0336    2.5332    1.6435 H   0  0  0  0  0  0  0  0  0  0  0  0
    4.0040    0.8238    1.7089 H   0  0  0  0  0  0  0  0  0  0  0  0
    4.1459   -0.9756    3.4392 H   0  0  0  0  0  0  0  0  0  0  0  0
    2.0863   -1.5620    4.7278 H   0  0  0  0  0  0  0  0  0  0  0  0
   -0.0885   -2.5113    4.7124 H   0  0  0  0  0  0  0  0  0  0  0  0
  1  2  1  0
  1 19  1  0
  2 18  1  0
  2  3  1  0
  2 20  1  6
  3  8  2  0
  3  4  1  0
  4  5  2  0
  5  6  1  0
  5 21  1  0
  6  7  2  0
  6 22  1  0
  7  8  1  0
  7 23  1  0
  8  9  1  0
  9 13  1  0
  9 10  1  0
 10 11  2  0
 10 24  1  0
 11 12  1  0
 12 13  2  0
 13 14  1  0
 14 18  1  0
 14 15  2  0
 15 16  1  0
 16 17  2  0
 17 18  1  0
M  END
>  <i_m_ct_stereo_status>  (74) 
1

>  <s_m_source_file>  (74) 
/var/tmp/pbs.5076255.sched01/tmpuhafuy1n/0xc5aj8_e.sdf

>  <i_m_source_file_index>  (74) 
32

>  <i_lp_mmshare_version>  (74) 
48012

>  <i_f3d_flags>  (74) 
0

>  <s_epik_input>  (74) 
bjFubm4oW0NAQEhdMltPSF0pYzFjKG5uW2NIXTMpbjNjKGMyNClbY0hdW2NIXVtjSF1uNA==

>  <s_epik_cmdline>  (74) 
J2VwaWtfcHl0aG9uJywgJy1waHQnLCAnMi4wJywgJy1waCcsICc3LjAnLCAnLXRuJywgJzgnLCAnLW1hJywgJzIwMCcsICctaW1hZScsICc8aW5maWxlLm1hZT4nLCAnLW9tYWUnLCAnPG91dGZpbGUubWFlPic=

>  <r_lp_tautomer_probability>  (74) 
1

>  <r_epik_Ionization_Penalty>  (74) 
0.259339

>  <r_epik_Ionization_Penalty_Charging>  (74) 
0

>  <r_epik_Ionization_Penalty_Neutral>  (74) 
0.259339

>  <r_epik_State_Penalty>  (74) 
0.251004

>  <r_epik_Charging_Adjusted_Penalty>  (74) 
0.251004

>  <i_epik_Tot_Q>  (74) 
0

>  <i_epik_Tot_abs_Q>  (74) 
0

>  <s_epik_Chemistry_Notes>  (74) 
This compound contains an acetal/aminal-like group ( X-CH(R)-Y where X, Y are N, S, or O) that may be acid/base labile, releasing an aldehyde.

>  <s_lp_Force_Field>  (74) 
OPLS3e

>  <r_lp_Energy>  (74) 
22.697

>  <b_lp_Chiralities_Consistent>  (74) 
1

>  <s_lp_Variant>  (74) 
22:0-1

>  <s_i_glide_gridfile>  (74) 
pfpi4k_grid

>  <i_i_glide_lignum>  (74) 
32

>  <i_i_glide_rotatable_bonds>  (74) 
1

>  <r_i_docking_score>  (74) 
-4.99557

>  <r_i_glide_ligand_efficiency>  (74) 
-0.277532

>  <r_i_glide_ligand_efficiency_sa>  (74) 
-0.727339

>  <r_i_glide_ligand_efficiency_ln>  (74) 
-1.28409

>  <r_i_glide_gscore>  (74) 
-4.99557

>  <r_i_glide_lipo>  (74) 
-0.0939373

>  <r_i_glide_hbond>  (74) 
-0.17374

>  <r_i_glide_metal>  (74) 
-0

>  <r_i_glide_rewards>  (74) 
-1.75775

>  <r_i_glide_evdw>  (74) 
-19.1373

>  <r_i_glide_ecoul>  (74) 
-10.1302

>  <r_i_glide_erotb>  (74) 
0

>  <r_i_glide_esite>  (74) 
-0.493749

>  <r_i_glide_emodel>  (74) 
-40.4558

>  <r_i_glide_energy>  (74) 
-29.2675

>  <r_i_glide_einternal>  (74) 
0.0110012

>  <r_i_glide_intrahb_reward>  (74) 
-0

>  <i_i_glide_confnum>  (74) 
2

>  <i_i_glide_posenum>  (74) 
19

>  <r_i_glide_eff_state_penalty>  (74) 
0

>  <ligand_id>  (74) 
22

>  <original_smiles>  (74) 
OC1c2ncccc2-n2cnnc2-c2nnnn21

>  <smiles>  (74) 
[H]OC1([H])c2nc([H])c([H])c([H])c2-n2c([H])nnc2-c2nnnn21

$$$$
22:0:1
     RDKit          3D

 24 27  0  0  1  0  0  0  0  0999 V2000
   -1.3899    4.6110    2.9030 O   0  0  0  0  0  0  0  0  0  0  0  0
   -1.2657    3.4277    3.6822 C   0  0  2  0  0  0  0  0  0  0  0  0
   -0.9111    3.7413    5.1327 C   0  0  0  0  0  0  0  0  0  0  0  0
   -1.8864    3.4533    6.0267 N   0  0  0  0  0  0  0  0  0  0  0  0
   -1.6697    3.7304    7.3274 C   0  0  0  0  0  0  0  0  0  0  0  0
   -0.4805    4.3083    7.8025 C   0  0  0  0  0  0  0  0  0  0  0  0
    0.5353    4.6136    6.8803 C   0  0  0  0  0  0  0  0  0  0  0  0
    0.3304    4.3298    5.5118 C   0  0  0  0  0  0  0  0  0  0  0  0
    1.3621    4.6377    4.5817 N   0  0  0  0  0  0  0  0  0  0  0  0
    2.2217    5.6597    4.6525 C   0  0  0  0  0  0  0  0  0  0  0  0
    3.1227    5.6493    3.6717 N   0  0  0  0  0  0  0  0  0  0  0  0
    2.8045    4.5329    2.9038 N   0  0  0  0  0  0  0  0  0  0  0  0
    1.7383    3.9572    3.4827 C   0  0  0  0  0  0  0  0  0  0  0  0
    1.0686    2.7703    2.9785 C   0  0  0  0  0  0  0  0  0  0  0  0
    1.6343    1.7480    2.3459 N   0  0  0  0  0  0  0  0  0  0  0  0
    0.5732    0.9033    2.0739 N   0  0  0  0  0  0  0  0  0  0  0  0
   -0.5495    1.3881    2.5111 N   0  0  0  0  0  0  0  0  0  0  0  0
   -0.2489    2.5757    3.0849 N   0  0  0  0  0  0  0  0  0  0  0  0
   -0.8105    4.5443    2.1375 H   0  0  0  0  0  0  0  0  0  0  0  0
   -2.2213    2.8969    3.6370 H   0  0  0  0  0  0  0  0  0  0  0  0
   -2.4685    3.4840    8.0111 H   0  0  0  0  0  0  0  0  0  0  0  0
   -0.3487    4.5058    8.8555 H   0  0  0  0  0  0  0  0  0  0  0  0
    1.4597    5.0511    7.2304 H   0  0  0  0  0  0  0  0  0  0  0  0
    2.2072    6.4124    5.4255 H   0  0  0  0  0  0  0  0  0  0  0  0
  1  2  1  0
  1 19  1  0
  2 18  1  0
  2  3  1  0
  2 20  1  1
  3  8  2  0
  3  4  1  0
  4  5  2  0
  5  6  1  0
  5 21  1  0
  6  7  2  0
  6 22  1  0
  7  8  1  0
  7 23  1  0
  8  9  1  0
  9 13  1  0
  9 10  1  0
 10 11  2  0
 10 24  1  0
 11 12  1  0
 12 13  2  0
 13 14  1  0
 14 18  1  0
 14 15  2  0
 15 16  1  0
 16 17  2  0
 17 18  1  0
M  END
>  <i_m_ct_stereo_status>  (75) 
1

>  <s_m_source_file>  (75) 
/var/tmp/pbs.5076255.sched01/tmpuhafuy1n/0xc5aj8_e.sdf

>  <i_m_source_file_index>  (75) 
32

>  <i_lp_mmshare_version>  (75) 
48012

>  <i_f3d_flags>  (75) 
0

>  <s_epik_input>  (75) 
bjFubm4oW0NAQEhdMltPSF0pYzFjKG5uW2NIXTMpbjNjKGMyNClbY0hdW2NIXVtjSF1uNA==

>  <s_epik_cmdline>  (75) 
J2VwaWtfcHl0aG9uJywgJy1waHQnLCAnMi4wJywgJy1waCcsICc3LjAnLCAnLXRuJywgJzgnLCAnLW1hJywgJzIwMCcsICctaW1hZScsICc8aW5maWxlLm1hZT4nLCAnLW9tYWUnLCAnPG91dGZpbGUubWFlPic=

>  <r_lp_tautomer_probability>  (75) 
1

>  <r_epik_Ionization_Penalty>  (75) 
0.259339

>  <r_epik_Ionization_Penalty_Charging>  (75) 
0

>  <r_epik_Ionization_Penalty_Neutral>  (75) 
0.259339

>  <r_epik_State_Penalty>  (75) 
0.251004

>  <r_epik_Charging_Adjusted_Penalty>  (75) 
0.251004

>  <i_epik_Tot_Q>  (75) 
0

>  <i_epik_Tot_abs_Q>  (75) 
0

>  <s_epik_Chemistry_Notes>  (75) 
This compound contains an acetal/aminal-like group ( X-CH(R)-Y where X, Y are N, S, or O) that may be acid/base labile, releasing an aldehyde.

>  <s_lp_Force_Field>  (75) 
OPLS3e

>  <r_lp_Energy>  (75) 
22.697

>  <b_lp_Chiralities_Consistent>  (75) 
1

>  <s_lp_Variant>  (75) 
22:0-1

>  <s_i_glide_gridfile>  (75) 
pfpi4k_grid

>  <i_i_glide_lignum>  (75) 
32

>  <i_i_glide_rotatable_bonds>  (75) 
1

>  <r_i_docking_score>  (75) 
-4.41491

>  <r_i_glide_ligand_efficiency>  (75) 
-0.245273

>  <r_i_glide_ligand_efficiency_sa>  (75) 
-0.642797

>  <r_i_glide_ligand_efficiency_ln>  (75) 
-1.13483

>  <r_i_glide_gscore>  (75) 
-4.41491

>  <r_i_glide_lipo>  (75) 
-0.0401289

>  <r_i_glide_hbond>  (75) 
-0.236145

>  <r_i_glide_metal>  (75) 
-0

>  <r_i_glide_rewards>  (75) 
-1.75775

>  <r_i_glide_evdw>  (75) 
-19.8278

>  <r_i_glide_ecoul>  (75) 
-6.1532

>  <r_i_glide_erotb>  (75) 
0

>  <r_i_glide_esite>  (75) 
-0.466521

>  <r_i_glide_emodel>  (75) 
-35.476

>  <r_i_glide_energy>  (75) 
-25.981

>  <r_i_glide_einternal>  (75) 
0.783451

>  <r_i_glide_intrahb_reward>  (75) 
-0

>  <i_i_glide_confnum>  (75) 
2

>  <i_i_glide_posenum>  (75) 
2

>  <r_i_glide_eff_state_penalty>  (75) 
0

>  <ligand_id>  (75) 
22

>  <original_smiles>  (75) 
OC1c2ncccc2-n2cnnc2-c2nnnn21

>  <smiles>  (75) 
[H]OC1([H])c2nc([H])c([H])c([H])c2-n2c([H])nnc2-c2nnnn21

$$$$
22:0:2
     RDKit          3D

 24 27  0  0  1  0  0  0  0  0999 V2000
    1.4160    4.8723    2.8862 O   0  0  0  0  0  0  0  0  0  0  0  0
    2.1935    3.8104    3.4128 C   0  0  2  0  0  0  0  0  0  0  0  0
    1.6657    2.4409    2.9954 C   0  0  0  0  0  0  0  0  0  0  0  0
    2.5018    1.7420    2.1974 N   0  0  0  0  0  0  0  0  0  0  0  0
    2.1134    0.5374    1.7440 C   0  0  0  0  0  0  0  0  0  0  0  0
    0.8850   -0.0464    2.0872 C   0  0  0  0  0  0  0  0  0  0  0  0
    0.0090    0.6696    2.9189 C   0  0  0  0  0  0  0  0  0  0  0  0
    0.3936    1.9408    3.3946 C   0  0  0  0  0  0  0  0  0  0  0  0
   -0.4919    2.6507    4.2510 N   0  0  0  0  0  0  0  0  0  0  0  0
   -1.8281    2.6279    4.2125 C   0  0  0  0  0  0  0  0  0  0  0  0
   -2.3815    3.3432    5.1928 N   0  0  0  0  0  0  0  0  0  0  0  0
   -1.3083    3.8682    5.9081 N   0  0  0  0  0  0  0  0  0  0  0  0
   -0.1909    3.4390    5.2983 C   0  0  0  0  0  0  0  0  0  0  0  0
    1.1561    3.7916    5.7116 C   0  0  0  0  0  0  0  0  0  0  0  0
    1.5599    4.0244    6.9550 N   0  0  0  0  0  0  0  0  0  0  0  0
    2.9027    4.3138    6.8202 N   0  0  0  0  0  0  0  0  0  0  0  0
    3.2769    4.2677    5.5748 N   0  0  0  0  0  0  0  0  0  0  0  0
    2.1742    3.9369    4.8598 N   0  0  0  0  0  0  0  0  0  0  0  0
    0.9378    4.5619    2.1113 H   0  0  0  0  0  0  0  0  0  0  0  0
    3.2231    3.9387    3.0652 H   0  0  0  0  0  0  0  0  0  0  0  0
    2.8048    0.0212    1.0952 H   0  0  0  0  0  0  0  0  0  0  0  0
    0.6256   -1.0188    1.6984 H   0  0  0  0  0  0  0  0  0  0  0  0
   -0.9411    0.2339    3.1917 H   0  0  0  0  0  0  0  0  0  0  0  0
   -2.4034    2.0871    3.4775 H   0  0  0  0  0  0  0  0  0  0  0  0
  1  2  1  0
  1 19  1  0
  2 18  1  0
  2  3  1  0
  2 20  1  6
  3  8  2  0
  3  4  1  0
  4  5  2  0
  5  6  1  0
  5 21  1  0
  6  7  2  0
  6 22  1  0
  7  8  1  0
  7 23  1  0
  8  9  1  0
  9 13  1  0
  9 10  1  0
 10 11  2  0
 10 24  1  0
 11 12  1  0
 12 13  2  0
 13 14  1  0
 14 18  1  0
 14 15  2  0
 15 16  1  0
 16 17  2  0
 17 18  1  0
M  END
>  <i_m_ct_stereo_status>  (76) 
1

>  <s_m_source_file>  (76) 
/var/tmp/pbs.5076255.sched01/tmpuhafuy1n/0xc5aj8_e.sdf

>  <i_m_source_file_index>  (76) 
32

>  <i_lp_mmshare_version>  (76) 
48012

>  <i_f3d_flags>  (76) 
0

>  <s_epik_input>  (76) 
bjFubm4oW0NAQEhdMltPSF0pYzFjKG5uW2NIXTMpbjNjKGMyNClbY0hdW2NIXVtjSF1uNA==

>  <s_epik_cmdline>  (76) 
J2VwaWtfcHl0aG9uJywgJy1waHQnLCAnMi4wJywgJy1waCcsICc3LjAnLCAnLXRuJywgJzgnLCAnLW1hJywgJzIwMCcsICctaW1hZScsICc8aW5maWxlLm1hZT4nLCAnLW9tYWUnLCAnPG91dGZpbGUubWFlPic=

>  <r_lp_tautomer_probability>  (76) 
1

>  <r_epik_Ionization_Penalty>  (76) 
0.259339

>  <r_epik_Ionization_Penalty_Charging>  (76) 
0

>  <r_epik_Ionization_Penalty_Neutral>  (76) 
0.259339

>  <r_epik_State_Penalty>  (76) 
0.251004

>  <r_epik_Charging_Adjusted_Penalty>  (76) 
0.251004

>  <i_epik_Tot_Q>  (76) 
0

>  <i_epik_Tot_abs_Q>  (76) 
0

>  <s_epik_Chemistry_Notes>  (76) 
This compound contains an acetal/aminal-like group ( X-CH(R)-Y where X, Y are N, S, or O) that may be acid/base labile, releasing an aldehyde.

>  <s_lp_Force_Field>  (76) 
OPLS3e

>  <r_lp_Energy>  (76) 
22.697

>  <b_lp_Chiralities_Consistent>  (76) 
1

>  <s_lp_Variant>  (76) 
22:0-1

>  <s_i_glide_gridfile>  (76) 
pfpi4k_grid

>  <i_i_glide_lignum>  (76) 
32

>  <i_i_glide_rotatable_bonds>  (76) 
1

>  <r_i_docking_score>  (76) 
-4.23215

>  <r_i_glide_ligand_efficiency>  (76) 
-0.23512

>  <r_i_glide_ligand_efficiency_sa>  (76) 
-0.616187

>  <r_i_glide_ligand_efficiency_ln>  (76) 
-1.08785

>  <r_i_glide_gscore>  (76) 
-4.23215

>  <r_i_glide_lipo>  (76) 
0

>  <r_i_glide_hbond>  (76) 
-0.16

>  <r_i_glide_metal>  (76) 
-0

>  <r_i_glide_rewards>  (76) 
-1.75775

>  <r_i_glide_evdw>  (76) 
-16.6881

>  <r_i_glide_ecoul>  (76) 
-8.98038

>  <r_i_glide_erotb>  (76) 
0

>  <r_i_glide_esite>  (76) 
-0.132942

>  <r_i_glide_emodel>  (76) 
-34.7437

>  <r_i_glide_energy>  (76) 
-25.6685

>  <r_i_glide_einternal>  (76) 
0.777102

>  <r_i_glide_intrahb_reward>  (76) 
-0

>  <i_i_glide_confnum>  (76) 
1

>  <i_i_glide_posenum>  (76) 
32

>  <r_i_glide_eff_state_penalty>  (76) 
0

>  <ligand_id>  (76) 
22

>  <original_smiles>  (76) 
OC1c2ncccc2-n2cnnc2-c2nnnn21

>  <smiles>  (76) 
[H]OC1([H])c2nc([H])c([H])c([H])c2-n2c([H])nnc2-c2nnnn21

$$$$
22:1:0
     RDKit          3D

 23 26  0  0  1  0  0  0  0  0999 V2000
    5.9899   -4.0732    0.8477 O   0  0  0  0  0  0  0  0  0  0  0  0
    5.0955   -4.6120    0.0529 C   0  0  2  0  0  0  0  0  0  0  0  0
    4.6276   -3.5742   -0.9927 C   0  0  0  0  0  0  0  0  0  0  0  0
    5.0277   -3.8552   -2.2580 N   0  0  0  0  0  0  0  0  0  0  0  0
    4.6841   -3.0345   -3.2665 C   0  0  0  0  0  0  0  0  0  0  0  0
    3.9429   -1.8597   -3.0782 C   0  0  0  0  0  0  0  0  0  0  0  0
    3.5277   -1.5501   -1.7770 C   0  0  0  0  0  0  0  0  0  0  0  0
    3.8671   -2.3973   -0.6982 C   0  0  0  0  0  0  0  0  0  0  0  0
    3.4184   -2.0163    0.6042 N   0  0  0  0  0  0  0  0  0  0  0  0
    3.2460   -0.7736    1.0633 C   0  0  0  0  0  0  0  0  0  0  0  0
    2.7508   -0.7443    2.3023 N   0  0  0  0  0  0  0  0  0  0  0  0
    2.6028   -2.0807    2.6633 N   0  0  0  0  0  0  0  0  0  0  0  0
    3.0365   -2.8094    1.6197 C   0  0  0  0  0  0  0  0  0  0  0  0
    3.0811   -4.2653    1.5954 C   0  0  0  0  0  0  0  0  0  0  0  0
    2.2416   -5.0574    2.2601 N   0  0  0  0  0  0  0  0  0  0  0  0
    2.6558   -6.3331    1.9449 N   0  0  0  0  0  0  0  0  0  0  0  0
    3.6810   -6.3079    1.1442 N   0  0  0  0  0  0  0  0  0  0  0  0
    3.9663   -5.0028    0.9038 N   0  0  0  0  0  0  0  0  0  0  0  0
    5.3364   -5.5129   -0.5183 H   0  0  0  0  0  0  0  0  0  0  0  0
    5.0151   -3.3189   -4.2540 H   0  0  0  0  0  0  0  0  0  0  0  0
    3.6888   -1.2167   -3.9051 H   0  0  0  0  0  0  0  0  0  0  0  0
    2.9351   -0.6669   -1.6200 H   0  0  0  0  0  0  0  0  0  0  0  0
    3.4700    0.1180    0.4976 H   0  0  0  0  0  0  0  0  0  0  0  0
  1  2  1  0
  2 18  1  0
  2  3  1  0
  2 19  1  6
  3  8  2  0
  3  4  1  0
  4  5  2  0
  5  6  1  0
  5 20  1  0
  6  7  2  0
  6 21  1  0
  7  8  1  0
  7 22  1  0
  8  9  1  0
  9 13  1  0
  9 10  1  0
 10 11  2  0
 10 23  1  0
 11 12  1  0
 12 13  2  0
 13 14  1  0
 14 18  1  0
 14 15  2  0
 15 16  1  0
 16 17  2  0
 17 18  1  0
M  CHG  1   1  -1
M  END
>  <i_m_ct_stereo_status>  (77) 
1

>  <s_m_source_file>  (77) 
/var/tmp/pbs.5076255.sched01/tmpuhafuy1n/0xc5aj8_e.sdf

>  <i_m_source_file_index>  (77) 
33

>  <i_lp_mmshare_version>  (77) 
48012

>  <i_f3d_flags>  (77) 
0

>  <s_epik_input>  (77) 
bjFubm4oW0NAQEhdMltPSF0pYzFjKG5uW2NIXTMpbjNjKGMyNClbY0hdW2NIXVtjSF1uNA==

>  <s_epik_cmdline>  (77) 
J2VwaWtfcHl0aG9uJywgJy1waHQnLCAnMi4wJywgJy1waCcsICc3LjAnLCAnLXRuJywgJzgnLCAnLW1hJywgJzIwMCcsICctaW1hZScsICc8aW5maWxlLm1hZT4nLCAnLW9tYWUnLCAnPG91dGZpbGUubWFlPic=

>  <r_lp_tautomer_probability>  (77) 
1

>  <r_epik_Ionization_Penalty>  (77) 
0.614454

>  <r_epik_Ionization_Penalty_Charging>  (77) 
0.614453

>  <r_epik_Ionization_Penalty_Neutral>  (77) 
1.19263e-06

>  <r_epik_State_Penalty>  (77) 
0.629939

>  <r_epik_Charging_Adjusted_Penalty>  (77) 
1.24439

>  <i_epik_Tot_Q>  (77) 
-1

>  <i_epik_Tot_abs_Q>  (77) 
1

>  <s_epik_Chemistry_Notes>  (77) 
This compound contains an acetal/aminal-like group ( X-CH(R)-Y where X, Y are N, S, or O) that may be acid/base labile, releasing an aldehyde.

>  <s_lp_Force_Field>  (77) 
OPLS3e

>  <r_lp_Energy>  (77) 
34.5193

>  <b_lp_Chiralities_Consistent>  (77) 
1

>  <s_lp_Variant>  (77) 
22:0-2

>  <s_i_glide_gridfile>  (77) 
pfpi4k_grid

>  <i_i_glide_lignum>  (77) 
33

>  <i_i_glide_rotatable_bonds>  (77) 
0

>  <r_i_docking_score>  (77) 
-3.21249

>  <r_i_glide_ligand_efficiency>  (77) 
-0.178472

>  <r_i_glide_ligand_efficiency_sa>  (77) 
-0.467728

>  <r_i_glide_ligand_efficiency_ln>  (77) 
-0.825754

>  <r_i_glide_gscore>  (77) 
-3.21249

>  <r_i_glide_lipo>  (77) 
-0.254006

>  <r_i_glide_hbond>  (77) 
0

>  <r_i_glide_metal>  (77) 
-0

>  <r_i_glide_rewards>  (77) 
-1.86356

>  <r_i_glide_evdw>  (77) 
-23.7585

>  <r_i_glide_ecoul>  (77) 
1.54593

>  <r_i_glide_erotb>  (77) 
0

>  <r_i_glide_esite>  (77) 
-0.138884

>  <r_i_glide_emodel>  (77) 
-29.0522

>  <r_i_glide_energy>  (77) 
-22.2126

>  <r_i_glide_einternal>  (77) 
0

>  <r_i_glide_intrahb_reward>  (77) 
-0

>  <i_i_glide_confnum>  (77) 
1

>  <i_i_glide_posenum>  (77) 
3

>  <r_i_glide_eff_state_penalty>  (77) 
0

>  <ligand_id>  (77) 
22

>  <original_smiles>  (77) 
OC1c2ncccc2-n2cnnc2-c2nnnn21

>  <smiles>  (77) 
[H]c1nc2c(c([H])c1[H])-n1c([H])nnc1-c1nnnn1C2([H])[O-]

$$$$
22:1:1
     RDKit          3D

 23 26  0  0  1  0  0  0  0  0999 V2000
   -1.0826   -0.1927    6.4773 O   0  0  0  0  0  0  0  0  0  0  0  0
   -1.3760    0.8225    5.6944 C   0  0  2  0  0  0  0  0  0  0  0  0
   -0.2773    1.0537    4.6360 C   0  0  0  0  0  0  0  0  0  0  0  0
   -0.6754    0.7474    3.3757 N   0  0  0  0  0  0  0  0  0  0  0  0
    0.1793    0.9143    2.3485 C   0  0  0  0  0  0  0  0  0  0  0  0
    1.4879    1.3848    2.5127 C   0  0  0  0  0  0  0  0  0  0  0  0
    1.9174    1.7101    3.8049 C   0  0  0  0  0  0  0  0  0  0  0  0
    1.0415    1.5469    4.9022 C   0  0  0  0  0  0  0  0  0  0  0  0
    1.5383    1.8984    6.1938 N   0  0  0  0  0  0  0  0  0  0  0  0
    2.8003    1.7979    6.6249 C   0  0  0  0  0  0  0  0  0  0  0  0
    2.9595    2.2646    7.8628 N   0  0  0  0  0  0  0  0  0  0  0  0
    1.6930    2.6829    8.2583 N   0  0  0  0  0  0  0  0  0  0  0  0
    0.8669    2.4293    7.2291 C   0  0  0  0  0  0  0  0  0  0  0  0
   -0.5660    2.6992    7.2379 C   0  0  0  0  0  0  0  0  0  0  0  0
   -1.1437    3.6737    7.9337 N   0  0  0  0  0  0  0  0  0  0  0  0
   -2.4892    3.5332    7.6634 N   0  0  0  0  0  0  0  0  0  0  0  0
   -2.7029    2.5341    6.8626 N   0  0  0  0  0  0  0  0  0  0  0  0
   -1.4907    1.9965    6.5617 N   0  0  0  0  0  0  0  0  0  0  0  0
   -2.3071    0.8046    5.1296 H   0  0  0  0  0  0  0  0  0  0  0  0
   -0.1857    0.6517    1.3688 H   0  0  0  0  0  0  0  0  0  0  0  0
    2.1448    1.4937    1.6662 H   0  0  0  0  0  0  0  0  0  0  0  0
    2.9185    2.0896    3.9421 H   0  0  0  0  0  0  0  0  0  0  0  0
    3.6057    1.3893    6.0338 H   0  0  0  0  0  0  0  0  0  0  0  0
  1  2  1  0
  2 18  1  0
  2  3  1  0
  2 19  1  6
  3  8  2  0
  3  4  1  0
  4  5  2  0
  5  6  1  0
  5 20  1  0
  6  7  2  0
  6 21  1  0
  7  8  1  0
  7 22  1  0
  8  9  1  0
  9 13  1  0
  9 10  1  0
 10 11  2  0
 10 23  1  0
 11 12  1  0
 12 13  2  0
 13 14  1  0
 14 18  1  0
 14 15  2  0
 15 16  1  0
 16 17  2  0
 17 18  1  0
M  CHG  1   1  -1
M  END
>  <i_m_ct_stereo_status>  (78) 
1

>  <s_m_source_file>  (78) 
/var/tmp/pbs.5076255.sched01/tmpuhafuy1n/0xc5aj8_e.sdf

>  <i_m_source_file_index>  (78) 
33

>  <i_lp_mmshare_version>  (78) 
48012

>  <i_f3d_flags>  (78) 
0

>  <s_epik_input>  (78) 
bjFubm4oW0NAQEhdMltPSF0pYzFjKG5uW2NIXTMpbjNjKGMyNClbY0hdW2NIXVtjSF1uNA==

>  <s_epik_cmdline>  (78) 
J2VwaWtfcHl0aG9uJywgJy1waHQnLCAnMi4wJywgJy1waCcsICc3LjAnLCAnLXRuJywgJzgnLCAnLW1hJywgJzIwMCcsICctaW1hZScsICc8aW5maWxlLm1hZT4nLCAnLW9tYWUnLCAnPG91dGZpbGUubWFlPic=

>  <r_lp_tautomer_probability>  (78) 
1

>  <r_epik_Ionization_Penalty>  (78) 
0.614454

>  <r_epik_Ionization_Penalty_Charging>  (78) 
0.614453

>  <r_epik_Ionization_Penalty_Neutral>  (78) 
1.19263e-06

>  <r_epik_State_Penalty>  (78) 
0.629939

>  <r_epik_Charging_Adjusted_Penalty>  (78) 
1.24439

>  <i_epik_Tot_Q>  (78) 
-1

>  <i_epik_Tot_abs_Q>  (78) 
1

>  <s_epik_Chemistry_Notes>  (78) 
This compound contains an acetal/aminal-like group ( X-CH(R)-Y where X, Y are N, S, or O) that may be acid/base labile, releasing an aldehyde.

>  <s_lp_Force_Field>  (78) 
OPLS3e

>  <r_lp_Energy>  (78) 
34.5193

>  <b_lp_Chiralities_Consistent>  (78) 
1

>  <s_lp_Variant>  (78) 
22:0-2

>  <s_i_glide_gridfile>  (78) 
pfpi4k_grid

>  <i_i_glide_lignum>  (78) 
33

>  <i_i_glide_rotatable_bonds>  (78) 
0

>  <r_i_docking_score>  (78) 
-3.10781

>  <r_i_glide_ligand_efficiency>  (78) 
-0.172656

>  <r_i_glide_ligand_efficiency_sa>  (78) 
-0.452487

>  <r_i_glide_ligand_efficiency_ln>  (78) 
-0.798847

>  <r_i_glide_gscore>  (78) 
-3.10781

>  <r_i_glide_lipo>  (78) 
0

>  <r_i_glide_hbond>  (78) 
-0.141629

>  <r_i_glide_metal>  (78) 
-0

>  <r_i_glide_rewards>  (78) 
-1.76462

>  <r_i_glide_evdw>  (78) 
-17.6107

>  <r_i_glide_ecoul>  (78) 
-1.80245

>  <r_i_glide_erotb>  (78) 
0

>  <r_i_glide_esite>  (78) 
-0.0506619

>  <r_i_glide_emodel>  (78) 
-26.0221

>  <r_i_glide_energy>  (78) 
-19.4131

>  <r_i_glide_einternal>  (78) 
0

>  <r_i_glide_intrahb_reward>  (78) 
-0

>  <i_i_glide_confnum>  (78) 
1

>  <i_i_glide_posenum>  (78) 
2

>  <r_i_glide_eff_state_penalty>  (78) 
0

>  <ligand_id>  (78) 
22

>  <original_smiles>  (78) 
OC1c2ncccc2-n2cnnc2-c2nnnn21

>  <smiles>  (78) 
[H]c1nc2c(c([H])c1[H])-n1c([H])nnc1-c1nnnn1C2([H])[O-]

$$$$
22:1:2
     RDKit          3D

 23 26  0  0  1  0  0  0  0  0999 V2000
   -2.0942   -1.0221    5.4853 O   0  0  0  0  0  0  0  0  0  0  0  0
   -0.8160   -0.7853    5.6801 C   0  0  2  0  0  0  0  0  0  0  0  0
   -0.6426    0.3895    6.6663 C   0  0  0  0  0  0  0  0  0  0  0  0
   -0.1802    0.0048    7.8833 N   0  0  0  0  0  0  0  0  0  0  0  0
   -0.0173    0.9255    8.8535 C   0  0  0  0  0  0  0  0  0  0  0  0
   -0.3151    2.2829    8.6752 C   0  0  0  0  0  0  0  0  0  0  0  0
   -0.8017    2.6977    7.4284 C   0  0  0  0  0  0  0  0  0  0  0  0
   -0.9863    1.7531    6.3921 C   0  0  0  0  0  0  0  0  0  0  0  0
   -1.4976    2.2357    5.1468 N   0  0  0  0  0  0  0  0  0  0  0  0
   -2.3324    3.2626    4.9671 C   0  0  0  0  0  0  0  0  0  0  0  0
   -2.5735    3.5174    3.6811 N   0  0  0  0  0  0  0  0  0  0  0  0
   -1.8414    2.5618    2.9851 N   0  0  0  0  0  0  0  0  0  0  0  0
   -1.2274    1.7995    3.9049 C   0  0  0  0  0  0  0  0  0  0  0  0
   -0.3803    0.6557    3.5974 C   0  0  0  0  0  0  0  0  0  0  0  0
    0.3655    0.5401    2.5009 N   0  0  0  0  0  0  0  0  0  0  0  0
    1.0135   -0.6695    2.6532 N   0  0  0  0  0  0  0  0  0  0  0  0
    0.6499   -1.2564    3.7559 N   0  0  0  0  0  0  0  0  0  0  0  0
   -0.2266   -0.4266    4.3813 N   0  0  0  0  0  0  0  0  0  0  0  0
   -0.1709   -1.5830    6.0589 H   0  0  0  0  0  0  0  0  0  0  0  0
    0.3536    0.5689    9.8005 H   0  0  0  0  0  0  0  0  0  0  0  0
   -0.1701    2.9897    9.4772 H   0  0  0  0  0  0  0  0  0  0  0  0
   -1.0233    3.7428    7.2779 H   0  0  0  0  0  0  0  0  0  0  0  0
   -2.7677    3.8312    5.7746 H   0  0  0  0  0  0  0  0  0  0  0  0
  1  2  1  0
  2 18  1  0
  2  3  1  0
  2 19  1  1
  3  8  2  0
  3  4  1  0
  4  5  2  0
  5  6  1  0
  5 20  1  0
  6  7  2  0
  6 21  1  0
  7  8  1  0
  7 22  1  0
  8  9  1  0
  9 13  1  0
  9 10  1  0
 10 11  2  0
 10 23  1  0
 11 12  1  0
 12 13  2  0
 13 14  1  0
 14 18  1  0
 14 15  2  0
 15 16  1  0
 16 17  2  0
 17 18  1  0
M  CHG  1   1  -1
M  END
>  <i_m_ct_stereo_status>  (79) 
1

>  <s_m_source_file>  (79) 
/var/tmp/pbs.5076255.sched01/tmpuhafuy1n/0xc5aj8_e.sdf

>  <i_m_source_file_index>  (79) 
33

>  <i_lp_mmshare_version>  (79) 
48012

>  <i_f3d_flags>  (79) 
0

>  <s_epik_input>  (79) 
bjFubm4oW0NAQEhdMltPSF0pYzFjKG5uW2NIXTMpbjNjKGMyNClbY0hdW2NIXVtjSF1uNA==

>  <s_epik_cmdline>  (79) 
J2VwaWtfcHl0aG9uJywgJy1waHQnLCAnMi4wJywgJy1waCcsICc3LjAnLCAnLXRuJywgJzgnLCAnLW1hJywgJzIwMCcsICctaW1hZScsICc8aW5maWxlLm1hZT4nLCAnLW9tYWUnLCAnPG91dGZpbGUubWFlPic=

>  <r_lp_tautomer_probability>  (79) 
1

>  <r_epik_Ionization_Penalty>  (79) 
0.614454

>  <r_epik_Ionization_Penalty_Charging>  (79) 
0.614453

>  <r_epik_Ionization_Penalty_Neutral>  (79) 
1.19263e-06

>  <r_epik_State_Penalty>  (79) 
0.629939

>  <r_epik_Charging_Adjusted_Penalty>  (79) 
1.24439

>  <i_epik_Tot_Q>  (79) 
-1

>  <i_epik_Tot_abs_Q>  (79) 
1

>  <s_epik_Chemistry_Notes>  (79) 
This compound contains an acetal/aminal-like group ( X-CH(R)-Y where X, Y are N, S, or O) that may be acid/base labile, releasing an aldehyde.

>  <s_lp_Force_Field>  (79) 
OPLS3e

>  <r_lp_Energy>  (79) 
34.5193

>  <b_lp_Chiralities_Consistent>  (79) 
1

>  <s_lp_Variant>  (79) 
22:0-2

>  <s_i_glide_gridfile>  (79) 
pfpi4k_grid

>  <i_i_glide_lignum>  (79) 
33

>  <i_i_glide_rotatable_bonds>  (79) 
0

>  <r_i_docking_score>  (79) 
-3.0501

>  <r_i_glide_ligand_efficiency>  (79) 
-0.16945

>  <r_i_glide_ligand_efficiency_sa>  (79) 
-0.444084

>  <r_i_glide_ligand_efficiency_ln>  (79) 
-0.784012

>  <r_i_glide_gscore>  (79) 
-3.0501

>  <r_i_glide_lipo>  (79) 
0

>  <r_i_glide_hbond>  (79) 
-0.00945205

>  <r_i_glide_metal>  (79) 
-0

>  <r_i_glide_rewards>  (79) 
-1.76462

>  <r_i_glide_evdw>  (79) 
-20.7419

>  <r_i_glide_ecoul>  (79) 
0.539574

>  <r_i_glide_erotb>  (79) 
0

>  <r_i_glide_esite>  (79) 
-0.319865

>  <r_i_glide_emodel>  (79) 
-26.6907

>  <r_i_glide_energy>  (79) 
-20.2023

>  <r_i_glide_einternal>  (79) 
0

>  <r_i_glide_intrahb_reward>  (79) 
-0

>  <i_i_glide_confnum>  (79) 
2

>  <i_i_glide_posenum>  (79) 
19

>  <r_i_glide_eff_state_penalty>  (79) 
0

>  <ligand_id>  (79) 
22

>  <original_smiles>  (79) 
OC1c2ncccc2-n2cnnc2-c2nnnn21

>  <smiles>  (79) 
[H]c1nc2c(c([H])c1[H])-n1c([H])nnc1-c1nnnn1C2([H])[O-]

$$$$
23:0:0
     RDKit          3D

 70 74  0  0  1  0  0  0  0  0999 V2000
    5.9493   -0.5037    3.2724 C   0  0  0  0  0  0  0  0  0  0  0  0
    5.0212   -1.6514    2.8720 C   0  0  0  0  0  0  0  0  0  0  0  0
    3.5885   -1.4643    3.4237 C   0  0  0  0  0  0  0  0  0  0  0  0
    2.5652   -2.5461    2.9782 C   0  0  1  0  0  0  0  0  0  0  0  0
    1.1109   -2.1977    3.4363 C   0  0  0  0  0  0  0  0  0  0  0  0
    0.9115   -1.9358    4.9275 C   0  0  0  0  0  0  0  0  0  0  0  0
    0.5301   -3.0506    5.8805 C   0  0  0  0  0  0  0  0  0  0  0  0
   -0.4707   -1.9751    5.5383 C   0  0  0  0  0  0  0  0  0  0  0  0
    2.5630   -2.5879    1.4631 C   0  0  0  0  0  0  0  0  0  0  0  0
    2.9720   -3.6708    0.7778 C   0  0  0  0  0  0  0  0  0  0  0  0
    3.1178   -3.8119   -0.7196 C   0  0  0  0  0  0  0  0  0  0  0  0
    3.4274   -2.5145   -1.5049 C   0  0  0  0  0  0  0  0  0  0  0  0
    3.6131   -2.7470   -2.9630 N   0  0  0  0  0  0  0  0  0  0  0  0
    4.7993   -3.5857   -3.2827 C   0  0  0  0  0  0  0  0  0  0  0  0
    2.3838   -3.2220   -3.6467 C   0  0  0  0  0  0  0  0  0  0  0  0
    3.3560   -4.8201    1.4316 O   0  0  0  0  0  0  0  0  0  0  0  0
    2.8831   -4.9833    2.7606 N   0  0  0  0  0  0  0  0  0  0  0  0
    2.7945   -6.4071    3.1313 C   0  0  2  0  0  0  0  0  0  0  0  0
    2.5257   -7.3479    1.9213 C   0  0  2  0  0  0  0  0  0  0  0  0
    1.1038   -7.1206    1.3466 C   0  0  0  0  0  0  0  0  0  0  0  0
    0.0508   -7.4201    2.4338 C   0  0  1  0  0  0  0  0  0  0  0  0
    0.1882   -8.8869    2.8952 C   0  0  0  0  0  0  0  0  0  0  0  0
    1.6054   -9.1181    3.4577 C   0  0  1  0  0  0  0  0  0  0  0  0
    2.6663   -8.8136    2.3820 C   0  0  0  0  0  0  0  0  0  0  0  0
    1.8319   -8.1860    4.6627 C   0  0  0  0  0  0  0  0  0  0  0  0
    1.7052   -6.7151    4.2064 C   0  0  2  0  0  0  0  0  0  0  0  0
    0.2832   -6.4850    3.6407 C   0  0  0  0  0  0  0  0  0  0  0  0
    2.9363   -3.9180    3.5829 C   0  0  0  0  0  0  0  0  0  0  0  0
    3.1865   -4.0089    4.7834 O   0  0  0  0  0  0  0  0  0  0  0  0
    6.9417   -0.6478    2.8453 H   0  0  0  0  0  0  0  0  0  0  0  0
    6.0527   -0.4309    4.3549 H   0  0  0  0  0  0  0  0  0  0  0  0
    5.5767    0.4496    2.9056 H   0  0  0  0  0  0  0  0  0  0  0  0
    5.0144   -1.7098    1.7842 H   0  0  0  0  0  0  0  0  0  0  0  0
    5.4378   -2.5962    3.2245 H   0  0  0  0  0  0  0  0  0  0  0  0
    3.6622   -1.4473    4.5111 H   0  0  0  0  0  0  0  0  0  0  0  0
    3.2136   -0.4801    3.1356 H   0  0  0  0  0  0  0  0  0  0  0  0
    0.7146   -1.3416    2.8838 H   0  0  0  0  0  0  0  0  0  0  0  0
    0.4587   -3.0307    3.1669 H   0  0  0  0  0  0  0  0  0  0  0  0
    1.5559   -1.1562    5.3308 H   0  0  0  0  0  0  0  0  0  0  0  0
    0.3845   -4.0424    5.4555 H   0  0  0  0  0  0  0  0  0  0  0  0
    0.9914   -3.0329    6.8667 H   0  0  0  0  0  0  0  0  0  0  0  0
   -0.6949   -1.2451    6.3130 H   0  0  0  0  0  0  0  0  0  0  0  0
   -1.3008   -2.2431    4.8879 H   0  0  0  0  0  0  0  0  0  0  0  0
    2.2327   -1.6902    0.9536 H   0  0  0  0  0  0  0  0  0  0  0  0
    3.9178   -4.5459   -0.8670 H   0  0  0  0  0  0  0  0  0  0  0  0
    2.1895   -4.2733   -1.0643 H   0  0  0  0  0  0  0  0  0  0  0  0
    2.6241   -1.7870   -1.3793 H   0  0  0  0  0  0  0  0  0  0  0  0
    4.3300   -2.0431   -1.1049 H   0  0  0  0  0  0  0  0  0  0  0  0
    4.6900   -4.6060   -2.9122 H   0  0  0  0  0  0  0  0  0  0  0  0
    5.7109   -3.1567   -2.8533 H   0  0  0  0  0  0  0  0  0  0  0  0
    4.9364   -3.6649   -4.3639 H   0  0  0  0  0  0  0  0  0  0  0  0
    2.0589   -4.1888   -3.2649 H   0  0  0  0  0  0  0  0  0  0  0  0
    2.5629   -3.3470   -4.7188 H   0  0  0  0  0  0  0  0  0  0  0  0
    1.5632   -2.5103   -3.5155 H   0  0  0  0  0  0  0  0  0  0  0  0
    3.7754   -6.6366    3.5481 H   0  0  0  0  0  0  0  0  0  0  0  0
    3.2652   -7.1853    1.1375 H   0  0  0  0  0  0  0  0  0  0  0  0
    0.9980   -6.0970    0.9866 H   0  0  0  0  0  0  0  0  0  0  0  0
    0.9393   -7.7687    0.4858 H   0  0  0  0  0  0  0  0  0  0  0  0
   -0.9495   -7.2684    2.0256 H   0  0  0  0  0  0  0  0  0  0  0  0
   -0.5556   -9.1143    3.6602 H   0  0  0  0  0  0  0  0  0  0  0  0
   -0.0058   -9.5737    2.0752 H   0  0  0  0  0  0  0  0  0  0  0  0
    1.7041  -10.1560    3.7759 H   0  0  0  0  0  0  0  0  0  0  0  0
    2.5637   -9.4954    1.5374 H   0  0  0  0  0  0  0  0  0  0  0  0
    3.6661   -8.9709    2.7890 H   0  0  0  0  0  0  0  0  0  0  0  0
    1.0991   -8.4061    5.4389 H   0  0  0  0  0  0  0  0  0  0  0  0
    2.8128   -8.3661    5.1050 H   0  0  0  0  0  0  0  0  0  0  0  0
    1.8341   -6.0971    5.0958 H   0  0  0  0  0  0  0  0  0  0  0  0
    0.1696   -5.4439    3.3468 H   0  0  0  0  0  0  0  0  0  0  0  0
   -0.4640   -6.6786    4.4128 H   0  0  0  0  0  0  0  0  0  0  0  0
    3.7965   -1.8306   -3.3482 H   0  0  0  0  0  0  0  0  0  0  0  0
  1  2  1  0
  1 30  1  0
  1 31  1  0
  1 32  1  0
  2  3  1  0
  2 33  1  0
  2 34  1  0
  4  3  1  6
  3 35  1  0
  3 36  1  0
  4 28  1  0
  4  5  1  0
  4  9  1  0
  5  6  1  0
  5 37  1  0
  5 38  1  0
  6  8  1  0
  6  7  1  0
  6 39  1  0
  7  8  1  0
  7 40  1  0
  7 41  1  0
  8 42  1  0
  8 43  1  0
  9 10  2  0
  9 44  1  0
 10 11  1  0
 10 16  1  0
 11 12  1  0
 11 45  1  0
 11 46  1  0
 12 13  1  0
 12 47  1  0
 12 48  1  0
 13 14  1  0
 13 15  1  0
 13 70  1  0
 14 49  1  0
 14 50  1  0
 14 51  1  0
 15 52  1  0
 15 53  1  0
 15 54  1  0
 16 17  1  0
 17 18  1  0
 17 28  1  0
 18 26  1  0
 18 19  1  0
 18 55  1  1
 19 24  1  0
 19 20  1  0
 19 56  1  6
 20 21  1  0
 20 57  1  0
 20 58  1  0
 21 27  1  0
 21 22  1  0
 21 59  1  6
 22 23  1  0
 22 60  1  0
 22 61  1  0
 23 24  1  0
 23 25  1  0
 23 62  1  1
 24 63  1  0
 24 64  1  0
 25 26  1  0
 25 65  1  0
 25 66  1  0
 26 27  1  0
 26 67  1  1
 27 68  1  0
 27 69  1  0
 28 29  2  0
M  CHG  1  13   1
M  END
>  <i_m_ct_stereo_status>  (80) 
1

>  <s_m_source_file>  (80) 
/var/tmp/pbs.5076255.sched01/tmpuhafuy1n/0xc5aj8_e.sdf

>  <i_m_source_file_index>  (80) 
34

>  <i_lp_mmshare_version>  (80) 
48012

>  <i_f3d_flags>  (80) 
0

>  <s_epik_input>  (80) 
W0NIMl0xW0NIMl1bQ0hdMVtDSDJdW0NAXTIoW0NIMl1bQ0gyXVtDSDNdKVtDSF09QyhbQ0gyXVtDSDJdTihbQ0gzXSlbQ0gzXSlPTihDMj1PKVtDQEhdKFtDQEBIXTM0KVtDQEhdNVtDSDJdW0NAQEhdKFtDSDJdNClbQ0gyXVtDQEBIXShbQ0gyXTMpW0NIMl01

>  <s_epik_cmdline>  (80) 
J2VwaWtfcHl0aG9uJywgJy1waHQnLCAnMi4wJywgJy1waCcsICc3LjAnLCAnLXRuJywgJzgnLCAnLW1hJywgJzIwMCcsICctaW1hZScsICc8aW5maWxlLm1hZT4nLCAnLW9tYWUnLCAnPG91dGZpbGUubWFlPic=

>  <r_epik_Ionization_Penalty>  (80) 
0.0233049

>  <r_epik_Ionization_Penalty_Charging>  (80) 
0.0232975

>  <r_epik_Ionization_Penalty_Neutral>  (80) 
7.39548e-06

>  <r_epik_State_Penalty>  (80) 
0.0188474

>  <r_epik_Charging_Adjusted_Penalty>  (80) 
0.0421449

>  <i_epik_Tot_Q>  (80) 
1

>  <i_epik_Tot_abs_Q>  (80) 
1

>  <s_epik_Chemistry_Notes>  (80) 
This compound has a N-S or N-O group and may undergo hydrolysis at high or low pH.

>  <s_lp_Force_Field>  (80) 
OPLS3e

>  <r_lp_Energy>  (80) 
47.5373

>  <b_lp_Chiralities_Consistent>  (80) 
1

>  <s_lp_Variant>  (80) 
23:0-1

>  <s_i_glide_gridfile>  (80) 
pfpi4k_grid

>  <i_i_glide_lignum>  (80) 
34

>  <i_i_glide_rotatable_bonds>  (80) 
8

>  <r_i_docking_score>  (80) 
-2.40116

>  <r_i_glide_ligand_efficiency>  (80) 
-0.0827986

>  <r_i_glide_ligand_efficiency_sa>  (80) 
-0.254384

>  <r_i_glide_ligand_efficiency_ln>  (80) 
-0.549805

>  <r_i_glide_gscore>  (80) 
-2.40116

>  <r_i_glide_lipo>  (80) 
-0.620506

>  <r_i_glide_hbond>  (80) 
0

>  <r_i_glide_metal>  (80) 
-0

>  <r_i_glide_rewards>  (80) 
-0.671229

>  <r_i_glide_evdw>  (80) 
-24.0718

>  <r_i_glide_ecoul>  (80) 
-4.22326

>  <r_i_glide_erotb>  (80) 
0.729719

>  <r_i_glide_esite>  (80) 
-0.00206277

>  <r_i_glide_emodel>  (80) 
-32.3324

>  <r_i_glide_energy>  (80) 
-28.2951

>  <r_i_glide_einternal>  (80) 
1.90392

>  <r_i_glide_intrahb_reward>  (80) 
-0

>  <i_i_glide_confnum>  (80) 
6

>  <i_i_glide_posenum>  (80) 
13

>  <r_i_glide_eff_state_penalty>  (80) 
0

>  <ligand_id>  (80) 
23

>  <original_smiles>  (80) 
CCCC1(CC2CC2)C=C(CCN(C)C)ON(C2C3CC4CC(C3)CC2C4)C1=O

>  <smiles>  (80) 
[H]C1=C(C([H])([H])C([H])([H])[N+]([H])(C([H])([H])[H])C([H])([H])[H])ON(C2([H])C3([H])C([H])([H])C4([H])C([H])([H])C([H])(C3([H])[H])C([H])([H])C2([H])C4([H])[H])C(=O)C1(C([H])([H])C([H])([H])C([H])([H])[H])C([H])([H])C1([H])C([H])([H])C1([H])[H]

$$$$
23:0:1
     RDKit          3D

 70 74  0  0  1  0  0  0  0  0999 V2000
    5.8324   -0.4661    3.2870 C   0  0  0  0  0  0  0  0  0  0  0  0
    4.9630   -1.6633    2.9036 C   0  0  0  0  0  0  0  0  0  0  0  0
    3.5098   -1.5235    3.4218 C   0  0  0  0  0  0  0  0  0  0  0  0
    2.5337   -2.6358    2.9416 C   0  0  1  0  0  0  0  0  0  0  0  0
    1.0599   -2.3196    3.3379 C   0  0  0  0  0  0  0  0  0  0  0  0
    0.7969   -1.9834    4.7961 C   0  0  0  0  0  0  0  0  0  0  0  0
   -0.5179   -1.3767    5.2204 C   0  0  0  0  0  0  0  0  0  0  0  0
    0.7465   -0.5488    5.2539 C   0  0  0  0  0  0  0  0  0  0  0  0
    2.5697   -2.6827    1.4319 C   0  0  0  0  0  0  0  0  0  0  0  0
    3.0046   -3.7680    0.7610 C   0  0  0  0  0  0  0  0  0  0  0  0
    3.2591   -3.9115   -0.7101 C   0  0  0  0  0  0  0  0  0  0  0  0
    3.2623   -2.6199   -1.5600 C   0  0  0  0  0  0  0  0  0  0  0  0
    3.6799   -2.8300   -2.9636 N   0  0  0  0  0  0  0  0  0  0  0  0
    4.9116   -3.6287   -3.1409 C   0  0  0  0  0  0  0  0  0  0  0  0
    2.5811   -3.2842   -3.8294 C   0  0  0  0  0  0  0  0  0  0  0  0
    3.3971   -4.9043    1.4406 O   0  0  0  0  0  0  0  0  0  0  0  0
    2.9146   -5.0658    2.7578 N   0  0  0  0  0  0  0  0  0  0  0  0
    2.8328   -6.4853    3.1303 C   0  0  2  0  0  0  0  0  0  0  0  0
    2.5755   -7.4306    1.9258 C   0  0  2  0  0  0  0  0  0  0  0  0
    1.1542   -7.2173    1.3418 C   0  0  0  0  0  0  0  0  0  0  0  0
    0.1005   -7.5234    2.4264 C   0  0  1  0  0  0  0  0  0  0  0  0
    0.2497   -8.9866    2.8953 C   0  0  0  0  0  0  0  0  0  0  0  0
    1.6651   -9.2036    3.4656 C   0  0  1  0  0  0  0  0  0  0  0  0
    2.7269   -8.8971    2.3899 C   0  0  0  0  0  0  0  0  0  0  0  0
    1.8789   -8.2641    4.6658 C   0  0  0  0  0  0  0  0  0  0  0  0
    1.7421   -6.7981    4.2006 C   0  0  2  0  0  0  0  0  0  0  0  0
    0.3195   -6.5812    3.6293 C   0  0  0  0  0  0  0  0  0  0  0  0
    2.9151   -3.9887    3.5752 C   0  0  0  0  0  0  0  0  0  0  0  0
    3.1207   -4.0702    4.7774 O   0  0  0  0  0  0  0  0  0  0  0  0
    6.8377   -0.5849    2.8803 H   0  0  0  0  0  0  0  0  0  0  0  0
    5.9163   -0.3600    4.3673 H   0  0  0  0  0  0  0  0  0  0  0  0
    5.4235    0.4595    2.8868 H   0  0  0  0  0  0  0  0  0  0  0  0
    4.9851   -1.7452    1.8179 H   0  0  0  0  0  0  0  0  0  0  0  0
    5.4123   -2.5810    3.2847 H   0  0  0  0  0  0  0  0  0  0  0  0
    3.5458   -1.5101    4.5124 H   0  0  0  0  0  0  0  0  0  0  0  0
    3.1126   -0.5508    3.1306 H   0  0  0  0  0  0  0  0  0  0  0  0
    0.6690   -1.5084    2.7177 H   0  0  0  0  0  0  0  0  0  0  0  0
    0.4386   -3.1823    3.0995 H   0  0  0  0  0  0  0  0  0  0  0  0
    1.1854   -2.7045    5.5140 H   0  0  0  0  0  0  0  0  0  0  0  0
   -1.2477   -1.1730    4.4382 H   0  0  0  0  0  0  0  0  0  0  0  0
   -0.9278   -1.6949    6.1749 H   0  0  0  0  0  0  0  0  0  0  0  0
    1.1904   -0.3283    6.2210 H   0  0  0  0  0  0  0  0  0  0  0  0
    0.8896    0.2084    4.4833 H   0  0  0  0  0  0  0  0  0  0  0  0
    2.2604   -1.7847    0.9089 H   0  0  0  0  0  0  0  0  0  0  0  0
    4.2377   -4.4027   -0.7267 H   0  0  0  0  0  0  0  0  0  0  0  0
    2.5143   -4.6120   -1.1036 H   0  0  0  0  0  0  0  0  0  0  0  0
    2.2503   -2.2275   -1.5607 H   0  0  0  0  0  0  0  0  0  0  0  0
    3.9074   -1.8627   -1.1043 H   0  0  0  0  0  0  0  0  0  0  0  0
    4.7504   -4.6711   -2.8623 H   0  0  0  0  0  0  0  0  0  0  0  0
    5.7263   -3.2356   -2.5273 H   0  0  0  0  0  0  0  0  0  0  0  0
    5.2419   -3.6644   -4.1802 H   0  0  0  0  0  0  0  0  0  0  0  0
    2.1997   -4.2552   -3.5117 H   0  0  0  0  0  0  0  0  0  0  0  0
    2.9487   -3.3975   -4.8447 H   0  0  0  0  0  0  0  0  0  0  0  0
    1.7527   -2.5701   -3.8531 H   0  0  0  0  0  0  0  0  0  0  0  0
    3.8157   -6.7053    3.5512 H   0  0  0  0  0  0  0  0  0  0  0  0
    3.3168   -7.2692    1.1415 H   0  0  0  0  0  0  0  0  0  0  0  0
    1.0382   -6.1957    0.9798 H   0  0  0  0  0  0  0  0  0  0  0  0
    0.9981   -7.8571    0.4796 H   0  0  0  0  0  0  0  0  0  0  0  0
   -0.9008   -7.3841    2.0142 H   0  0  0  0  0  0  0  0  0  0  0  0
   -0.4968   -9.2191    3.6572 H   0  0  0  0  0  0  0  0  0  0  0  0
    0.0639   -9.6770    2.0749 H   0  0  0  0  0  0  0  0  0  0  0  0
    1.7704  -10.2402    3.7911 H   0  0  0  0  0  0  0  0  0  0  0  0
    2.6323   -9.5857    1.5520 H   0  0  0  0  0  0  0  0  0  0  0  0
    3.7263   -9.0447    2.8043 H   0  0  0  0  0  0  0  0  0  0  0  0
    1.1461   -8.4854    5.4416 H   0  0  0  0  0  0  0  0  0  0  0  0
    2.8600   -8.4331    5.1125 H   0  0  0  0  0  0  0  0  0  0  0  0
    1.8566   -6.1825    5.0919 H   0  0  0  0  0  0  0  0  0  0  0  0
    0.1964   -5.5416    3.3315 H   0  0  0  0  0  0  0  0  0  0  0  0
   -0.4283   -6.7766    4.4010 H   0  0  0  0  0  0  0  0  0  0  0  0
    3.9008   -1.8902   -3.3036 H   0  0  0  0  0  0  0  0  0  0  0  0
  1  2  1  0
  1 30  1  0
  1 31  1  0
  1 32  1  0
  2  3  1  0
  2 33  1  0
  2 34  1  0
  4  3  1  1
  3 35  1  0
  3 36  1  0
  4 28  1  0
  4  5  1  0
  4  9  1  0
  5  6  1  0
  5 37  1  0
  5 38  1  0
  6  8  1  0
  6  7  1  0
  6 39  1  0
  7  8  1  0
  7 40  1  0
  7 41  1  0
  8 42  1  0
  8 43  1  0
  9 10  2  0
  9 44  1  0
 10 11  1  0
 10 16  1  0
 11 12  1  0
 11 45  1  0
 11 46  1  0
 12 13  1  0
 12 47  1  0
 12 48  1  0
 13 14  1  0
 13 15  1  0
 13 70  1  0
 14 49  1  0
 14 50  1  0
 14 51  1  0
 15 52  1  0
 15 53  1  0
 15 54  1  0
 16 17  1  0
 17 18  1  0
 17 28  1  0
 18 26  1  0
 18 19  1  0
 18 55  1  1
 19 24  1  0
 19 20  1  0
 19 56  1  6
 20 21  1  0
 20 57  1  0
 20 58  1  0
 21 27  1  0
 21 22  1  0
 21 59  1  6
 22 23  1  0
 22 60  1  0
 22 61  1  0
 23 24  1  0
 23 25  1  0
 23 62  1  1
 24 63  1  0
 24 64  1  0
 25 26  1  0
 25 65  1  0
 25 66  1  0
 26 27  1  0
 26 67  1  1
 27 68  1  0
 27 69  1  0
 28 29  2  0
M  CHG  1  13   1
M  END
>  <i_m_ct_stereo_status>  (81) 
1

>  <s_m_source_file>  (81) 
/var/tmp/pbs.5076255.sched01/tmpuhafuy1n/0xc5aj8_e.sdf

>  <i_m_source_file_index>  (81) 
34

>  <i_lp_mmshare_version>  (81) 
48012

>  <i_f3d_flags>  (81) 
0

>  <s_epik_input>  (81) 
W0NIMl0xW0NIMl1bQ0hdMVtDSDJdW0NAXTIoW0NIMl1bQ0gyXVtDSDNdKVtDSF09QyhbQ0gyXVtDSDJdTihbQ0gzXSlbQ0gzXSlPTihDMj1PKVtDQEhdKFtDQEBIXTM0KVtDQEhdNVtDSDJdW0NAQEhdKFtDSDJdNClbQ0gyXVtDQEBIXShbQ0gyXTMpW0NIMl01

>  <s_epik_cmdline>  (81) 
J2VwaWtfcHl0aG9uJywgJy1waHQnLCAnMi4wJywgJy1waCcsICc3LjAnLCAnLXRuJywgJzgnLCAnLW1hJywgJzIwMCcsICctaW1hZScsICc8aW5maWxlLm1hZT4nLCAnLW9tYWUnLCAnPG91dGZpbGUubWFlPic=

>  <r_epik_Ionization_Penalty>  (81) 
0.0233049

>  <r_epik_Ionization_Penalty_Charging>  (81) 
0.0232975

>  <r_epik_Ionization_Penalty_Neutral>  (81) 
7.39548e-06

>  <r_epik_State_Penalty>  (81) 
0.0188474

>  <r_epik_Charging_Adjusted_Penalty>  (81) 
0.0421449

>  <i_epik_Tot_Q>  (81) 
1

>  <i_epik_Tot_abs_Q>  (81) 
1

>  <s_epik_Chemistry_Notes>  (81) 
This compound has a N-S or N-O group and may undergo hydrolysis at high or low pH.

>  <s_lp_Force_Field>  (81) 
OPLS3e

>  <r_lp_Energy>  (81) 
47.5373

>  <b_lp_Chiralities_Consistent>  (81) 
1

>  <s_lp_Variant>  (81) 
23:0-1

>  <s_i_glide_gridfile>  (81) 
pfpi4k_grid

>  <i_i_glide_lignum>  (81) 
34

>  <i_i_glide_rotatable_bonds>  (81) 
8

>  <r_i_docking_score>  (81) 
-2.28834

>  <r_i_glide_ligand_efficiency>  (81) 
-0.0789083

>  <r_i_glide_ligand_efficiency_sa>  (81) 
-0.242431

>  <r_i_glide_ligand_efficiency_ln>  (81) 
-0.523972

>  <r_i_glide_gscore>  (81) 
-2.28834

>  <r_i_glide_lipo>  (81) 
-0.542703

>  <r_i_glide_hbond>  (81) 
0

>  <r_i_glide_metal>  (81) 
-0

>  <r_i_glide_rewards>  (81) 
-0.67121

>  <r_i_glide_evdw>  (81) 
-23.3665

>  <r_i_glide_ecoul>  (81) 
-4.22656

>  <r_i_glide_erotb>  (81) 
0.729719

>  <r_i_glide_esite>  (81) 
-0.00183689

>  <r_i_glide_emodel>  (81) 
-30.364

>  <r_i_glide_energy>  (81) 
-27.5931

>  <r_i_glide_einternal>  (81) 
3.38063

>  <r_i_glide_intrahb_reward>  (81) 
-0

>  <i_i_glide_confnum>  (81) 
6

>  <i_i_glide_posenum>  (81) 
1

>  <r_i_glide_eff_state_penalty>  (81) 
0

>  <ligand_id>  (81) 
23

>  <original_smiles>  (81) 
CCCC1(CC2CC2)C=C(CCN(C)C)ON(C2C3CC4CC(C3)CC2C4)C1=O

>  <smiles>  (81) 
[H]C1=C(C([H])([H])C([H])([H])[N+]([H])(C([H])([H])[H])C([H])([H])[H])ON(C2([H])C3([H])C([H])([H])C4([H])C([H])([H])C([H])(C3([H])[H])C([H])([H])C2([H])C4([H])[H])C(=O)C1(C([H])([H])C([H])([H])C([H])([H])[H])C([H])([H])C1([H])C([H])([H])C1([H])[H]

$$$$
23:0:2
     RDKit          3D

 70 74  0  0  1  0  0  0  0  0999 V2000
    0.1052   -4.2129    7.1687 C   0  0  0  0  0  0  0  0  0  0  0  0
    1.0090   -4.6241    6.0015 C   0  0  0  0  0  0  0  0  0  0  0  0
    0.3450   -5.6580    5.0617 C   0  0  0  0  0  0  0  0  0  0  0  0
    1.2219   -6.1210    3.8634 C   0  0  1  0  0  0  0  0  0  0  0  0
    0.4710   -7.1383    2.9422 C   0  0  0  0  0  0  0  0  0  0  0  0
   -0.2232   -8.3002    3.6414 C   0  0  0  0  0  0  0  0  0  0  0  0
   -1.1874   -9.1814    2.8849 C   0  0  0  0  0  0  0  0  0  0  0  0
   -1.6994   -8.2326    3.9435 C   0  0  0  0  0  0  0  0  0  0  0  0
    1.5493   -4.9059    3.0183 C   0  0  0  0  0  0  0  0  0  0  0  0
    2.8009   -4.4354    2.8705 C   0  0  0  0  0  0  0  0  0  0  0  0
    3.2171   -3.1722    2.1281 C   0  0  0  0  0  0  0  0  0  0  0  0
    2.3151   -1.9298    2.3503 C   0  0  0  0  0  0  0  0  0  0  0  0
    2.6152   -0.8092    1.4143 N   0  0  0  0  0  0  0  0  0  0  0  0
    1.7411    0.3601    1.6628 C   0  0  0  0  0  0  0  0  0  0  0  0
    4.0481   -0.4100    1.3797 C   0  0  0  0  0  0  0  0  0  0  0  0
    3.8653   -5.0897    3.4489 O   0  0  0  0  0  0  0  0  0  0  0  0
    3.6600   -6.4616    3.7769 N   0  0  0  0  0  0  0  0  0  0  0  0
    4.9257   -7.2103    3.7729 C   0  0  2  0  0  0  0  0  0  0  0  0
    5.9597   -6.6632    2.7500 C   0  0  2  0  0  0  0  0  0  0  0  0
    5.4868   -6.9117    1.2940 C   0  0  0  0  0  0  0  0  0  0  0  0
    5.3204   -8.4280    1.0611 C   0  0  1  0  0  0  0  0  0  0  0  0
    6.6719   -9.1359    1.2836 C   0  0  0  0  0  0  0  0  0  0  0  0
    7.1495   -8.8814    2.7288 C   0  0  1  0  0  0  0  0  0  0  0  0
    7.3118   -7.3701    2.9813 C   0  0  0  0  0  0  0  0  0  0  0  0
    6.1111   -9.4478    3.7146 C   0  0  0  0  0  0  0  0  0  0  0  0
    4.7572   -8.7373    3.4978 C   0  0  2  0  0  0  0  0  0  0  0  0
    4.2800   -8.9940    2.0475 C   0  0  0  0  0  0  0  0  0  0  0  0
    2.5017   -6.8086    4.3735 C   0  0  0  0  0  0  0  0  0  0  0  0
    2.4216   -7.6740    5.2407 O   0  0  0  0  0  0  0  0  0  0  0  0
    0.6063   -3.4803    7.8034 H   0  0  0  0  0  0  0  0  0  0  0  0
   -0.1466   -5.0712    7.7924 H   0  0  0  0  0  0  0  0  0  0  0  0
   -0.8227   -3.7679    6.8108 H   0  0  0  0  0  0  0  0  0  0  0  0
    1.2888   -3.7296    5.4450 H   0  0  0  0  0  0  0  0  0  0  0  0
    1.9361   -5.0273    6.4102 H   0  0  0  0  0  0  0  0  0  0  0  0
    0.0549   -6.5191    5.6627 H   0  0  0  0  0  0  0  0  0  0  0  0
   -0.5823   -5.2401    4.6796 H   0  0  0  0  0  0  0  0  0  0  0  0
   -0.2674   -6.6335    2.3163 H   0  0  0  0  0  0  0  0  0  0  0  0
    1.1767   -7.5774    2.2322 H   0  0  0  0  0  0  0  0  0  0  0  0
    0.3894   -8.8438    4.3604 H   0  0  0  0  0  0  0  0  0  0  0  0
   -1.3706   -8.9431    1.8387 H   0  0  0  0  0  0  0  0  0  0  0  0
   -1.1737  -10.2424    3.1270 H   0  0  0  0  0  0  0  0  0  0  0  0
   -2.0235   -8.6555    4.8911 H   0  0  0  0  0  0  0  0  0  0  0  0
   -2.2267   -7.3360    3.6246 H   0  0  0  0  0  0  0  0  0  0  0  0
    0.7129   -4.4113    2.5601 H   0  0  0  0  0  0  0  0  0  0  0  0
    4.2307   -2.9343    2.4675 H   0  0  0  0  0  0  0  0  0  0  0  0
    3.2827   -3.4213    1.0677 H   0  0  0  0  0  0  0  0  0  0  0  0
    1.2659   -2.1924    2.2083 H   0  0  0  0  0  0  0  0  0  0  0  0
    2.4138   -1.5906    3.3823 H   0  0  0  0  0  0  0  0  0  0  0  0
    1.9233    0.7953    2.6472 H   0  0  0  0  0  0  0  0  0  0  0  0
    0.6847    0.0841    1.5865 H   0  0  0  0  0  0  0  0  0  0  0  0
    1.9277    1.1296    0.9116 H   0  0  0  0  0  0  0  0  0  0  0  0
    4.3888   -0.0833    2.3648 H   0  0  0  0  0  0  0  0  0  0  0  0
    4.2023    0.4129    0.6751 H   0  0  0  0  0  0  0  0  0  0  0  0
    4.6892   -1.2311    1.0453 H   0  0  0  0  0  0  0  0  0  0  0  0
    5.3129   -7.0728    4.7824 H   0  0  0  0  0  0  0  0  0  0  0  0
    6.1232   -5.5959    2.9004 H   0  0  0  0  0  0  0  0  0  0  0  0
    4.5419   -6.4015    1.1001 H   0  0  0  0  0  0  0  0  0  0  0  0
    6.2053   -6.4962    0.5869 H   0  0  0  0  0  0  0  0  0  0  0  0
    4.9758   -8.6081    0.0442 H   0  0  0  0  0  0  0  0  0  0  0  0
    6.5623  -10.2072    1.1101 H   0  0  0  0  0  0  0  0  0  0  0  0
    7.4159   -8.7810    0.5697 H   0  0  0  0  0  0  0  0  0  0  0  0
    8.1076   -9.3717    2.8941 H   0  0  0  0  0  0  0  0  0  0  0  0
    8.0824   -6.9553    2.3329 H   0  0  0  0  0  0  0  0  0  0  0  0
    7.6410   -7.1971    4.0074 H   0  0  0  0  0  0  0  0  0  0  0  0
    6.0003  -10.5209    3.5591 H   0  0  0  0  0  0  0  0  0  0  0  0
    6.4503   -9.3175    4.7437 H   0  0  0  0  0  0  0  0  0  0  0  0
    4.0499   -9.2026    4.1855 H   0  0  0  0  0  0  0  0  0  0  0  0
    3.3067   -8.5378    1.8697 H   0  0  0  0  0  0  0  0  0  0  0  0
    4.1466  -10.0649    1.8778 H   0  0  0  0  0  0  0  0  0  0  0  0
    2.3561   -1.1200    0.4794 H   0  0  0  0  0  0  0  0  0  0  0  0
  1  2  1  0
  1 30  1  0
  1 31  1  0
  1 32  1  0
  2  3  1  0
  2 33  1  0
  2 34  1  0
  4  3  1  1
  3 35  1  0
  3 36  1  0
  4 28  1  0
  4  5  1  0
  4  9  1  0
  5  6  1  0
  5 37  1  0
  5 38  1  0
  6  8  1  0
  6  7  1  0
  6 39  1  0
  7  8  1  0
  7 40  1  0
  7 41  1  0
  8 42  1  0
  8 43  1  0
  9 10  2  0
  9 44  1  0
 10 11  1  0
 10 16  1  0
 11 12  1  0
 11 45  1  0
 11 46  1  0
 12 13  1  0
 12 47  1  0
 12 48  1  0
 13 14  1  0
 13 15  1  0
 13 70  1  0
 14 49  1  0
 14 50  1  0
 14 51  1  0
 15 52  1  0
 15 53  1  0
 15 54  1  0
 16 17  1  0
 17 18  1  0
 17 28  1  0
 18 26  1  0
 18 19  1  0
 18 55  1  1
 19 24  1  0
 19 20  1  0
 19 56  1  1
 20 21  1  0
 20 57  1  0
 20 58  1  0
 21 27  1  0
 21 22  1  0
 21 59  1  6
 22 23  1  0
 22 60  1  0
 22 61  1  0
 23 24  1  0
 23 25  1  0
 23 62  1  6
 24 63  1  0
 24 64  1  0
 25 26  1  0
 25 65  1  0
 25 66  1  0
 26 27  1  0
 26 67  1  1
 27 68  1  0
 27 69  1  0
 28 29  2  0
M  CHG  1  13   1
M  END
>  <i_m_ct_stereo_status>  (82) 
1

>  <s_m_source_file>  (82) 
/var/tmp/pbs.5076255.sched01/tmpuhafuy1n/0xc5aj8_e.sdf

>  <i_m_source_file_index>  (82) 
34

>  <i_lp_mmshare_version>  (82) 
48012

>  <i_f3d_flags>  (82) 
0

>  <s_epik_input>  (82) 
W0NIMl0xW0NIMl1bQ0hdMVtDSDJdW0NAXTIoW0NIMl1bQ0gyXVtDSDNdKVtDSF09QyhbQ0gyXVtDSDJdTihbQ0gzXSlbQ0gzXSlPTihDMj1PKVtDQEhdKFtDQEBIXTM0KVtDQEhdNVtDSDJdW0NAQEhdKFtDSDJdNClbQ0gyXVtDQEBIXShbQ0gyXTMpW0NIMl01

>  <s_epik_cmdline>  (82) 
J2VwaWtfcHl0aG9uJywgJy1waHQnLCAnMi4wJywgJy1waCcsICc3LjAnLCAnLXRuJywgJzgnLCAnLW1hJywgJzIwMCcsICctaW1hZScsICc8aW5maWxlLm1hZT4nLCAnLW9tYWUnLCAnPG91dGZpbGUubWFlPic=

>  <r_epik_Ionization_Penalty>  (82) 
0.0233049

>  <r_epik_Ionization_Penalty_Charging>  (82) 
0.0232975

>  <r_epik_Ionization_Penalty_Neutral>  (82) 
7.39548e-06

>  <r_epik_State_Penalty>  (82) 
0.0188474

>  <r_epik_Charging_Adjusted_Penalty>  (82) 
0.0421449

>  <i_epik_Tot_Q>  (82) 
1

>  <i_epik_Tot_abs_Q>  (82) 
1

>  <s_epik_Chemistry_Notes>  (82) 
This compound has a N-S or N-O group and may undergo hydrolysis at high or low pH.

>  <s_lp_Force_Field>  (82) 
OPLS3e

>  <r_lp_Energy>  (82) 
47.5373

>  <b_lp_Chiralities_Consistent>  (82) 
1

>  <s_lp_Variant>  (82) 
23:0-1

>  <s_i_glide_gridfile>  (82) 
pfpi4k_grid

>  <i_i_glide_lignum>  (82) 
34

>  <i_i_glide_rotatable_bonds>  (82) 
8

>  <r_i_docking_score>  (82) 
-2.24363

>  <r_i_glide_ligand_efficiency>  (82) 
-0.0773665

>  <r_i_glide_ligand_efficiency_sa>  (82) 
-0.237694

>  <r_i_glide_ligand_efficiency_ln>  (82) 
-0.513734

>  <r_i_glide_gscore>  (82) 
-2.24363

>  <r_i_glide_lipo>  (82) 
-0.356292

>  <r_i_glide_hbond>  (82) 
-0.134786

>  <r_i_glide_metal>  (82) 
-0

>  <r_i_glide_rewards>  (82) 
-0.670873

>  <r_i_glide_evdw>  (82) 
-21.1028

>  <r_i_glide_ecoul>  (82) 
-4.59448

>  <r_i_glide_erotb>  (82) 
0.729719

>  <r_i_glide_esite>  (82) 
-0.0670831

>  <r_i_glide_emodel>  (82) 
-29.4651

>  <r_i_glide_energy>  (82) 
-25.6973

>  <r_i_glide_einternal>  (82) 
1.5774

>  <r_i_glide_intrahb_reward>  (82) 
-0

>  <i_i_glide_confnum>  (82) 
6

>  <i_i_glide_posenum>  (82) 
17

>  <r_i_glide_eff_state_penalty>  (82) 
0

>  <ligand_id>  (82) 
23

>  <original_smiles>  (82) 
CCCC1(CC2CC2)C=C(CCN(C)C)ON(C2C3CC4CC(C3)CC2C4)C1=O

>  <smiles>  (82) 
[H]C1=C(C([H])([H])C([H])([H])[N+]([H])(C([H])([H])[H])C([H])([H])[H])ON(C2([H])C3([H])C([H])([H])C4([H])C([H])([H])C([H])(C3([H])[H])C([H])([H])C2([H])C4([H])[H])C(=O)C1(C([H])([H])C([H])([H])C([H])([H])[H])C([H])([H])C1([H])C([H])([H])C1([H])[H]

$$$$
23:1:0
     RDKit          3D

 69 73  0  0  1  0  0  0  0  0999 V2000
    4.5300   -2.9726   -0.3599 C   0  0  0  0  0  0  0  0  0  0  0  0
    5.1182   -4.3714   -0.6162 C   0  0  0  0  0  0  0  0  0  0  0  0
    5.8961   -5.0207    0.5707 C   0  0  0  0  0  0  0  0  0  0  0  0
    5.0828   -5.4820    1.8214 C   0  0  1  0  0  0  0  0  0  0  0  0
    6.0381   -6.0710    2.9109 C   0  0  0  0  0  0  0  0  0  0  0  0
    5.3229   -6.4291    4.2101 C   0  0  0  0  0  0  0  0  0  0  0  0
    5.1015   -5.3879    5.2782 C   0  0  0  0  0  0  0  0  0  0  0  0
    6.0292   -6.5528    5.5055 C   0  0  0  0  0  0  0  0  0  0  0  0
    4.3976   -4.2783    2.4324 C   0  0  0  0  0  0  0  0  0  0  0  0
    3.0482   -4.1318    2.4532 C   0  0  0  0  0  0  0  0  0  0  0  0
    2.2712   -2.8873    2.8231 C   0  0  0  0  0  0  0  0  0  0  0  0
    3.0702   -1.5560    2.7569 C   0  0  0  0  0  0  0  0  0  0  0  0
    2.2340   -0.3991    3.0715 N   0  0  0  0  0  0  0  0  0  0  0  0
    3.0597    0.7939    3.2473 C   0  0  0  0  0  0  0  0  0  0  0  0
    1.2893   -0.1233    1.9915 C   0  0  0  0  0  0  0  0  0  0  0  0
    2.2498   -5.0830    1.8829 O   0  0  0  0  0  0  0  0  0  0  0  0
    2.7729   -6.4062    1.8355 N   0  0  0  0  0  0  0  0  0  0  0  0
    1.7099   -7.4239    1.9320 C   0  0  2  0  0  0  0  0  0  0  0  0
    0.3611   -6.8383    2.4706 C   0  0  2  0  0  0  0  0  0  0  0  0
    0.4988   -6.4271    3.9572 C   0  0  0  0  0  0  0  0  0  0  0  0
    0.8396   -7.6662    4.8102 C   0  0  1  0  0  0  0  0  0  0  0  0
   -0.2651   -8.7189    4.6806 C   0  0  0  0  0  0  0  0  0  0  0  0
   -0.3823   -9.1300    3.1896 C   0  0  1  0  0  0  0  0  0  0  0  0
   -0.7347   -7.9092    2.3268 C   0  0  0  0  0  0  0  0  0  0  0  0
    0.9623   -9.7146    2.7061 C   0  0  0  0  0  0  0  0  0  0  0  0
    2.0743   -8.6479    2.8448 C   0  0  2  0  0  0  0  0  0  0  0  0
    2.1643   -8.2471    4.3427 C   0  0  0  0  0  0  0  0  0  0  0  0
    4.0553   -6.5695    1.3915 C   0  0  0  0  0  0  0  0  0  0  0  0
    4.4347   -7.5621    0.7638 O   0  0  0  0  0  0  0  0  0  0  0  0
    4.0581   -2.5606   -1.2505 H   0  0  0  0  0  0  0  0  0  0  0  0
    5.2876   -2.2972    0.0299 H   0  0  0  0  0  0  0  0  0  0  0  0
    3.7026   -3.0274    0.3407 H   0  0  0  0  0  0  0  0  0  0  0  0
    4.3397   -5.0599   -0.9640 H   0  0  0  0  0  0  0  0  0  0  0  0
    5.8154   -4.2924   -1.4568 H   0  0  0  0  0  0  0  0  0  0  0  0
    6.4253   -5.8958    0.1899 H   0  0  0  0  0  0  0  0  0  0  0  0
    6.6971   -4.3511    0.8887 H   0  0  0  0  0  0  0  0  0  0  0  0
    6.4651   -6.9984    2.5343 H   0  0  0  0  0  0  0  0  0  0  0  0
    6.8802   -5.3766    3.0994 H   0  0  0  0  0  0  0  0  0  0  0  0
    4.6532   -7.2544    4.0223 H   0  0  0  0  0  0  0  0  0  0  0  0
    5.5368   -4.3824    5.1549 H   0  0  0  0  0  0  0  0  0  0  0  0
    4.1546   -5.3843    5.8218 H   0  0  0  0  0  0  0  0  0  0  0  0
    5.6605   -7.3269    6.1765 H   0  0  0  0  0  0  0  0  0  0  0  0
    7.1162   -6.4183    5.5099 H   0  0  0  0  0  0  0  0  0  0  0  0
    5.0352   -3.4963    2.8194 H   0  0  0  0  0  0  0  0  0  0  0  0
    1.4535   -2.8691    2.0973 H   0  0  0  0  0  0  0  0  0  0  0  0
    1.8168   -3.0172    3.8098 H   0  0  0  0  0  0  0  0  0  0  0  0
    3.8825   -1.6060    3.4801 H   0  0  0  0  0  0  0  0  0  0  0  0
    3.5376   -1.3876    1.7837 H   0  0  0  0  0  0  0  0  0  0  0  0
    2.4362    1.6714    3.4310 H   0  0  0  0  0  0  0  0  0  0  0  0
    3.6639    1.0035    2.3624 H   0  0  0  0  0  0  0  0  0  0  0  0
    3.7324    0.6918    4.0996 H   0  0  0  0  0  0  0  0  0  0  0  0
    0.6698    0.7470    2.2201 H   0  0  0  0  0  0  0  0  0  0  0  0
    0.5982   -0.9488    1.8360 H   0  0  0  0  0  0  0  0  0  0  0  0
    1.8120    0.0611    1.0499 H   0  0  0  0  0  0  0  0  0  0  0  0
    1.5570   -7.7578    0.8945 H   0  0  0  0  0  0  0  0  0  0  0  0
    0.0759   -5.9818    1.8663 H   0  0  0  0  0  0  0  0  0  0  0  0
    1.2757   -5.6738    4.0856 H   0  0  0  0  0  0  0  0  0  0  0  0
   -0.4204   -5.9481    4.3067 H   0  0  0  0  0  0  0  0  0  0  0  0
    0.9528   -7.3657    5.8482 H   0  0  0  0  0  0  0  0  0  0  0  0
    0.0067   -9.5870    5.2915 H   0  0  0  0  0  0  0  0  0  0  0  0
   -1.2139   -8.3286    5.0748 H   0  0  0  0  0  0  0  0  0  0  0  0
   -1.1682   -9.8766    3.1052 H   0  0  0  0  0  0  0  0  0  0  0  0
   -1.6941   -7.4911    2.6209 H   0  0  0  0  0  0  0  0  0  0  0  0
   -0.8162   -8.2031    1.2828 H   0  0  0  0  0  0  0  0  0  0  0  0
    1.2209  -10.5958    3.2879 H   0  0  0  0  0  0  0  0  0  0  0  0
    0.8767  -10.0804    1.6768 H   0  0  0  0  0  0  0  0  0  0  0  0
    3.0106   -9.0845    2.4990 H   0  0  0  0  0  0  0  0  0  0  0  0
    2.8110   -7.4395    4.5519 H   0  0  0  0  0  0  0  0  0  0  0  0
    2.4431   -9.1302    4.9243 H   0  0  0  0  0  0  0  0  0  0  0  0
  1  2  1  0
  1 30  1  0
  1 31  1  0
  1 32  1  0
  2  3  1  0
  2 33  1  0
  2 34  1  0
  4  3  1  6
  3 35  1  0
  3 36  1  0
  4 28  1  0
  4  5  1  0
  4  9  1  0
  5  6  1  0
  5 37  1  0
  5 38  1  0
  6  8  1  0
  6  7  1  0
  6 39  1  0
  7  8  1  0
  7 40  1  0
  7 41  1  0
  8 42  1  0
  8 43  1  0
  9 10  2  0
  9 44  1  0
 10 11  1  0
 10 16  1  0
 11 12  1  0
 11 45  1  0
 11 46  1  0
 12 13  1  0
 12 47  1  0
 12 48  1  0
 13 14  1  0
 13 15  1  0
 14 49  1  0
 14 50  1  0
 14 51  1  0
 15 52  1  0
 15 53  1  0
 15 54  1  0
 16 17  1  0
 17 18  1  0
 17 28  1  0
 18 26  1  0
 18 19  1  0
 18 55  1  6
 19 24  1  0
 19 20  1  0
 19 56  1  6
 20 21  1  0
 20 57  1  0
 20 58  1  0
 21 27  1  0
 21 22  1  0
 21 59  1  1
 22 23  1  0
 22 60  1  0
 22 61  1  0
 23 24  1  0
 23 25  1  0
 23 62  1  1
 24 63  1  0
 24 64  1  0
 25 26  1  0
 25 65  1  0
 25 66  1  0
 26 27  1  0
 26 67  1  6
 27 68  1  0
 27 69  1  0
 28 29  2  0
M  END
>  <i_m_ct_stereo_status>  (83) 
1

>  <s_m_source_file>  (83) 
/var/tmp/pbs.5076255.sched01/tmppm3sokcv/34yi_btuhz.sdf

>  <i_m_source_file_index>  (83) 
1

>  <i_lp_mmshare_version>  (83) 
48012

>  <i_f3d_flags>  (83) 
0

>  <s_epik_input>  (83) 
W0NIMl0xW0NIMl1bQ0hdMVtDSDJdW0NAXTIoW0NIMl1bQ0gyXVtDSDNdKVtDSF09QyhbQ0gyXVtDSDJdTihbQ0gzXSlbQ0gzXSlPTihDMj1PKVtDQEhdKFtDQEBIXTM0KVtDQEhdNVtDSDJdW0NAQEhdKFtDSDJdNClbQ0gyXVtDQEBIXShbQ0gyXTMpW0NIMl01

>  <s_epik_cmdline>  (83) 
J2VwaWtfcHl0aG9uJywgJy1waHQnLCAnMi4wJywgJy1waCcsICc3LjAnLCAnLXRuJywgJzgnLCAnLW1hJywgJzIwMCcsICctaW1hZScsICc8aW5maWxlLm1hZT4nLCAnLW9tYWUnLCAnPG91dGZpbGUubWFlPic=

>  <r_epik_Ionization_Penalty>  (83) 
1.92894

>  <r_epik_Ionization_Penalty_Charging>  (83) 
0

>  <r_epik_Ionization_Penalty_Neutral>  (83) 
1.92894

>  <r_epik_State_Penalty>  (83) 
2.05226

>  <r_epik_Charging_Adjusted_Penalty>  (83) 
2.05226

>  <i_epik_Tot_Q>  (83) 
0

>  <i_epik_Tot_abs_Q>  (83) 
0

>  <s_epik_Chemistry_Notes>  (83) 
This compound has a N-S or N-O group and may undergo hydrolysis at high or low pH.

>  <s_lp_Force_Field>  (83) 
OPLS3e

>  <r_lp_Energy>  (83) 
39.028

>  <b_lp_Chiralities_Consistent>  (83) 
1

>  <s_lp_Variant>  (83) 
23:0-2

>  <s_i_glide_gridfile>  (83) 
pfpi4k_grid

>  <i_i_glide_lignum>  (83) 
1

>  <i_i_glide_rotatable_bonds>  (83) 
8

>  <r_i_docking_score>  (83) 
-1.7226

>  <r_i_glide_ligand_efficiency>  (83) 
-0.0594001

>  <r_i_glide_ligand_efficiency_sa>  (83) 
-0.182496

>  <r_i_glide_ligand_efficiency_ln>  (83) 
-0.394432

>  <r_i_glide_gscore>  (83) 
-1.7226

>  <r_i_glide_lipo>  (83) 
-0.31631

>  <r_i_glide_hbond>  (83) 
0

>  <r_i_glide_metal>  (83) 
-0

>  <r_i_glide_rewards>  (83) 
-0.771779

>  <r_i_glide_evdw>  (83) 
-23.4477

>  <r_i_glide_ecoul>  (83) 
-1.29839

>  <r_i_glide_erotb>  (83) 
0.733028

>  <r_i_glide_esite>  (83) 
-0.000396523

>  <r_i_glide_emodel>  (83) 
-23.2352

>  <r_i_glide_energy>  (83) 
-24.7461

>  <r_i_glide_einternal>  (83) 
1.50252

>  <r_i_glide_intrahb_reward>  (83) 
-0

>  <i_i_glide_confnum>  (83) 
6

>  <i_i_glide_posenum>  (83) 
25

>  <r_i_glide_eff_state_penalty>  (83) 
0

>  <ligand_id>  (83) 
23

>  <original_smiles>  (83) 
CCCC1(CC2CC2)C=C(CCN(C)C)ON(C2C3CC4CC(C3)CC2C4)C1=O

>  <smiles>  (83) 
[H]C1=C(C([H])([H])C([H])([H])N(C([H])([H])[H])C([H])([H])[H])ON(C2([H])C3([H])C([H])([H])C4([H])C([H])([H])C([H])(C3([H])[H])C([H])([H])C2([H])C4([H])[H])C(=O)C1(C([H])([H])C([H])([H])C([H])([H])[H])C([H])([H])C1([H])C([H])([H])C1([H])[H]

$$$$
23:1:1
     RDKit          3D

 69 73  0  0  1  0  0  0  0  0999 V2000
    5.2858   -3.4412   -1.9585 C   0  0  0  0  0  0  0  0  0  0  0  0
    4.5578   -3.9396   -0.7094 C   0  0  0  0  0  0  0  0  0  0  0  0
    5.5075   -4.5860    0.3223 C   0  0  0  0  0  0  0  0  0  0  0  0
    4.8351   -5.1314    1.6099 C   0  0  1  0  0  0  0  0  0  0  0  0
    5.9484   -5.6553    2.5891 C   0  0  0  0  0  0  0  0  0  0  0  0
    5.4066   -6.1178    3.9341 C   0  0  0  0  0  0  0  0  0  0  0  0
    5.2134   -5.1506    5.0951 C   0  0  0  0  0  0  0  0  0  0  0  0
    6.2532   -6.2467    5.1724 C   0  0  0  0  0  0  0  0  0  0  0  0
    4.0623   -4.0039    2.2816 C   0  0  0  0  0  0  0  0  0  0  0  0
    2.7342   -3.9995    2.3775 C   0  0  0  0  0  0  0  0  0  0  0  0
    1.8711   -2.8907    2.9615 C   0  0  0  0  0  0  0  0  0  0  0  0
    2.0541   -1.5382    2.2398 C   0  0  0  0  0  0  0  0  0  0  0  0
    1.1576   -0.5028    2.7646 N   0  0  0  0  0  0  0  0  0  0  0  0
    1.4796   -0.1515    4.1439 C   0  0  0  0  0  0  0  0  0  0  0  0
    1.2827    0.6994    1.9438 C   0  0  0  0  0  0  0  0  0  0  0  0
    1.9700   -5.0446    1.9076 O   0  0  0  0  0  0  0  0  0  0  0  0
    2.6391   -6.2975    1.8024 N   0  0  0  0  0  0  0  0  0  0  0  0
    1.7026   -7.4341    1.9587 C   0  0  2  0  0  0  0  0  0  0  0  0
    0.3546   -7.0159    2.6233 C   0  0  2  0  0  0  0  0  0  0  0  0
    0.5600   -6.6305    4.1089 C   0  0  0  0  0  0  0  0  0  0  0  0
    1.0764   -7.8615    4.8862 C   0  0  1  0  0  0  0  0  0  0  0  0
    0.0836   -9.0185    4.7990 C   0  0  0  0  0  0  0  0  0  0  0  0
   -0.1013   -9.3865    3.3109 C   0  0  1  0  0  0  0  0  0  0  0  0
   -0.6416   -8.1798    2.5271 C   0  0  0  0  0  0  0  0  0  0  0  0
    1.2488   -9.8171    2.6964 C   0  0  0  0  0  0  0  0  0  0  0  0
    2.2551   -8.6426    2.7895 C   0  0  2  0  0  0  0  0  0  0  0  0
    2.4069   -8.3043    4.2990 C   0  0  0  0  0  0  0  0  0  0  0  0
    3.8914   -6.3163    1.2375 C   0  0  0  0  0  0  0  0  0  0  0  0
    4.3043   -7.2438    0.5622 O   0  0  0  0  0  0  0  0  0  0  0  0
    4.5850   -2.9987   -2.6636 H   0  0  0  0  0  0  0  0  0  0  0  0
    5.7888   -4.2572   -2.4748 H   0  0  0  0  0  0  0  0  0  0  0  0
    6.0303   -2.6860   -1.7127 H   0  0  0  0  0  0  0  0  0  0  0  0
    4.0283   -3.1006   -0.2608 H   0  0  0  0  0  0  0  0  0  0  0  0
    3.7914   -4.6518   -1.0110 H   0  0  0  0  0  0  0  0  0  0  0  0
    6.0536   -5.3993   -0.1541 H   0  0  0  0  0  0  0  0  0  0  0  0
    6.2605   -3.8598    0.6227 H   0  0  0  0  0  0  0  0  0  0  0  0
    6.4008   -6.5568    2.1573 H   0  0  0  0  0  0  0  0  0  0  0  0
    6.7512   -4.9082    2.7290 H   0  0  0  0  0  0  0  0  0  0  0  0
    4.8023   -7.0216    3.7817 H   0  0  0  0  0  0  0  0  0  0  0  0
    5.5448   -4.1136    4.9577 H   0  0  0  0  0  0  0  0  0  0  0  0
    4.3250   -5.2633    5.7167 H   0  0  0  0  0  0  0  0  0  0  0  0
    6.0095   -7.0778    5.8334 H   0  0  0  0  0  0  0  0  0  0  0  0
    7.3210   -6.0309    5.0697 H   0  0  0  0  0  0  0  0  0  0  0  0
    4.6669   -3.1959    2.6719 H   0  0  0  0  0  0  0  0  0  0  0  0
    0.8258   -3.1933    2.9004 H   0  0  0  0  0  0  0  0  0  0  0  0
    2.1248   -2.8224    4.0165 H   0  0  0  0  0  0  0  0  0  0  0  0
    3.0911   -1.2001    2.2888 H   0  0  0  0  0  0  0  0  0  0  0  0
    1.8267   -1.6798    1.1818 H   0  0  0  0  0  0  0  0  0  0  0  0
    0.8417    0.6629    4.4886 H   0  0  0  0  0  0  0  0  0  0  0  0
    2.5206    0.1600    4.2492 H   0  0  0  0  0  0  0  0  0  0  0  0
    1.2999   -0.9879    4.8182 H   0  0  0  0  0  0  0  0  0  0  0  0
    0.6162    1.4848    2.3000 H   0  0  0  0  0  0  0  0  0  0  0  0
    1.0171    0.5094    0.9042 H   0  0  0  0  0  0  0  0  0  0  0  0
    2.3000    1.0917    1.9600 H   0  0  0  0  0  0  0  0  0  0  0  0
    1.5011   -7.7537    0.9255 H   0  0  0  0  0  0  0  0  0  0  0  0
   -0.0778   -6.1884    2.0723 H   0  0  0  0  0  0  0  0  0  0  0  0
    1.2671   -5.8048    4.2046 H   0  0  0  0  0  0  0  0  0  0  0  0
   -0.3681   -6.2616    4.5425 H   0  0  0  0  0  0  0  0  0  0  0  0
    1.2612   -7.5732    5.9200 H   0  0  0  0  0  0  0  0  0  0  0  0
    0.5004   -9.8606    5.3583 H   0  0  0  0  0  0  0  0  0  0  0  0
   -0.8549   -8.7256    5.2814 H   0  0  0  0  0  0  0  0  0  0  0  0
   -0.8044  -10.2093    3.2615 H   0  0  0  0  0  0  0  0  0  0  0  0
   -1.6117   -7.8787    2.9126 H   0  0  0  0  0  0  0  0  0  0  0  0
   -0.7833   -8.4487    1.4837 H   0  0  0  0  0  0  0  0  0  0  0  0
    1.6444  -10.6783    3.2274 H   0  0  0  0  0  0  0  0  0  0  0  0
    1.1065  -10.1569    1.6746 H   0  0  0  0  0  0  0  0  0  0  0  0
    3.2042   -8.9712    2.3594 H   0  0  0  0  0  0  0  0  0  0  0  0
    2.9771   -7.4065    4.5077 H   0  0  0  0  0  0  0  0  0  0  0  0
    2.8407   -9.1655    4.8229 H   0  0  0  0  0  0  0  0  0  0  0  0
  1  2  1  0
  1 30  1  0
  1 31  1  0
  1 32  1  0
  2  3  1  0
  2 33  1  0
  2 34  1  0
  4  3  1  6
  3 35  1  0
  3 36  1  0
  4 28  1  0
  4  5  1  0
  4  9  1  0
  5  6  1  0
  5 37  1  0
  5 38  1  0
  6  8  1  0
  6  7  1  0
  6 39  1  0
  7  8  1  0
  7 40  1  0
  7 41  1  0
  8 42  1  0
  8 43  1  0
  9 10  2  0
  9 44  1  0
 10 11  1  0
 10 16  1  0
 11 12  1  0
 11 45  1  0
 11 46  1  0
 12 13  1  0
 12 47  1  0
 12 48  1  0
 13 14  1  0
 13 15  1  0
 14 49  1  0
 14 50  1  0
 14 51  1  0
 15 52  1  0
 15 53  1  0
 15 54  1  0
 16 17  1  0
 17 18  1  0
 17 28  1  0
 18 26  1  0
 18 19  1  0
 18 55  1  6
 19 24  1  0
 19 20  1  0
 19 56  1  6
 20 21  1  0
 20 57  1  0
 20 58  1  0
 21 27  1  0
 21 22  1  0
 21 59  1  1
 22 23  1  0
 22 60  1  0
 22 61  1  0
 23 24  1  0
 23 25  1  0
 23 62  1  1
 24 63  1  0
 24 64  1  0
 25 26  1  0
 25 65  1  0
 25 66  1  0
 26 27  1  0
 26 67  1  6
 27 68  1  0
 27 69  1  0
 28 29  2  0
M  END
>  <i_m_ct_stereo_status>  (84) 
1

>  <s_m_source_file>  (84) 
/var/tmp/pbs.5076255.sched01/tmppm3sokcv/34yi_btuhz.sdf

>  <i_m_source_file_index>  (84) 
1

>  <i_lp_mmshare_version>  (84) 
48012

>  <i_f3d_flags>  (84) 
0

>  <s_epik_input>  (84) 
W0NIMl0xW0NIMl1bQ0hdMVtDSDJdW0NAXTIoW0NIMl1bQ0gyXVtDSDNdKVtDSF09QyhbQ0gyXVtDSDJdTihbQ0gzXSlbQ0gzXSlPTihDMj1PKVtDQEhdKFtDQEBIXTM0KVtDQEhdNVtDSDJdW0NAQEhdKFtDSDJdNClbQ0gyXVtDQEBIXShbQ0gyXTMpW0NIMl01

>  <s_epik_cmdline>  (84) 
J2VwaWtfcHl0aG9uJywgJy1waHQnLCAnMi4wJywgJy1waCcsICc3LjAnLCAnLXRuJywgJzgnLCAnLW1hJywgJzIwMCcsICctaW1hZScsICc8aW5maWxlLm1hZT4nLCAnLW9tYWUnLCAnPG91dGZpbGUubWFlPic=

>  <r_epik_Ionization_Penalty>  (84) 
1.92894

>  <r_epik_Ionization_Penalty_Charging>  (84) 
0

>  <r_epik_Ionization_Penalty_Neutral>  (84) 
1.92894

>  <r_epik_State_Penalty>  (84) 
2.05226

>  <r_epik_Charging_Adjusted_Penalty>  (84) 
2.05226

>  <i_epik_Tot_Q>  (84) 
0

>  <i_epik_Tot_abs_Q>  (84) 
0

>  <s_epik_Chemistry_Notes>  (84) 
This compound has a N-S or N-O group and may undergo hydrolysis at high or low pH.

>  <s_lp_Force_Field>  (84) 
OPLS3e

>  <r_lp_Energy>  (84) 
39.028

>  <b_lp_Chiralities_Consistent>  (84) 
1

>  <s_lp_Variant>  (84) 
23:0-2

>  <s_i_glide_gridfile>  (84) 
pfpi4k_grid

>  <i_i_glide_lignum>  (84) 
1

>  <i_i_glide_rotatable_bonds>  (84) 
8

>  <r_i_docking_score>  (84) 
-1.60276

>  <r_i_glide_ligand_efficiency>  (84) 
-0.0552677

>  <r_i_glide_ligand_efficiency_sa>  (84) 
-0.1698

>  <r_i_glide_ligand_efficiency_ln>  (84) 
-0.366992

>  <r_i_glide_gscore>  (84) 
-1.60276

>  <r_i_glide_lipo>  (84) 
-0.36304

>  <r_i_glide_hbond>  (84) 
-0.00740231

>  <r_i_glide_metal>  (84) 
-0

>  <r_i_glide_rewards>  (84) 
-0.769061

>  <r_i_glide_evdw>  (84) 
-23.9731

>  <r_i_glide_ecoul>  (84) 
0.0475481

>  <r_i_glide_erotb>  (84) 
0.733028

>  <r_i_glide_esite>  (84) 
-0.00476665

>  <r_i_glide_emodel>  (84) 
-23.976

>  <r_i_glide_energy>  (84) 
-23.9255

>  <r_i_glide_einternal>  (84) 
0.483509

>  <r_i_glide_intrahb_reward>  (84) 
-0

>  <i_i_glide_confnum>  (84) 
6

>  <i_i_glide_posenum>  (84) 
14

>  <r_i_glide_eff_state_penalty>  (84) 
0

>  <ligand_id>  (84) 
23

>  <original_smiles>  (84) 
CCCC1(CC2CC2)C=C(CCN(C)C)ON(C2C3CC4CC(C3)CC2C4)C1=O

>  <smiles>  (84) 
[H]C1=C(C([H])([H])C([H])([H])N(C([H])([H])[H])C([H])([H])[H])ON(C2([H])C3([H])C([H])([H])C4([H])C([H])([H])C([H])(C3([H])[H])C([H])([H])C2([H])C4([H])[H])C(=O)C1(C([H])([H])C([H])([H])C([H])([H])[H])C([H])([H])C1([H])C([H])([H])C1([H])[H]

$$$$
23:1:2
     RDKit          3D

 69 73  0  0  1  0  0  0  0  0999 V2000
    3.8092   -1.6236   -0.4253 C   0  0  0  0  0  0  0  0  0  0  0  0
    3.5240   -2.7937    0.5190 C   0  0  0  0  0  0  0  0  0  0  0  0
    4.1968   -4.1158    0.0715 C   0  0  0  0  0  0  0  0  0  0  0  0
    3.9552   -5.3375    1.0035 C   0  0  1  0  0  0  0  0  0  0  0  0
    4.7334   -6.5764    0.4468 C   0  0  0  0  0  0  0  0  0  0  0  0
    4.5008   -7.8825    1.2289 C   0  0  0  0  0  0  0  0  0  0  0  0
    5.3411   -8.1690    2.4675 C   0  0  0  0  0  0  0  0  0  0  0  0
    5.4966   -9.0191    1.2225 C   0  0  0  0  0  0  0  0  0  0  0  0
    4.5059   -4.9983    2.3813 C   0  0  0  0  0  0  0  0  0  0  0  0
    3.7035   -4.8648    3.4533 C   0  0  0  0  0  0  0  0  0  0  0  0
    4.1373   -4.4777    4.8542 C   0  0  0  0  0  0  0  0  0  0  0  0
    4.6779   -3.0361    4.9333 C   0  0  0  0  0  0  0  0  0  0  0  0
    5.0417   -2.6549    6.2984 N   0  0  0  0  0  0  0  0  0  0  0  0
    6.1978   -3.4027    6.7819 C   0  0  0  0  0  0  0  0  0  0  0  0
    5.3679   -1.2349    6.3305 C   0  0  0  0  0  0  0  0  0  0  0  0
    2.3539   -5.0519    3.3703 O   0  0  0  0  0  0  0  0  0  0  0  0
    1.9382   -5.9205    2.3109 N   0  0  0  0  0  0  0  0  0  0  0  0
    0.6836   -6.6395    2.6252 C   0  0  2  0  0  0  0  0  0  0  0  0
    0.3245   -6.5863    4.1267 C   0  0  2  0  0  0  0  0  0  0  0  0
    1.3370   -7.4164    4.9678 C   0  0  0  0  0  0  0  0  0  0  0  0
    1.2950   -8.8844    4.5190 C   0  0  1  0  0  0  0  0  0  0  0  0
   -0.1221   -9.4388    4.7338 C   0  0  0  0  0  0  0  0  0  0  0  0
   -1.1241   -8.6210    3.8904 C   0  0  1  0  0  0  0  0  0  0  0  0
   -1.0902   -7.1403    4.3019 C   0  0  0  0  0  0  0  0  0  0  0  0
   -0.7540   -8.7067    2.3926 C   0  0  0  0  0  0  0  0  0  0  0  0
    0.6758   -8.1375    2.1892 C   0  0  2  0  0  0  0  0  0  0  0  0
    1.6808   -8.9691    3.0239 C   0  0  0  0  0  0  0  0  0  0  0  0
    2.4432   -5.6902    1.0839 C   0  0  0  0  0  0  0  0  0  0  0  0
    1.7575   -5.8338    0.0607 O   0  0  0  0  0  0  0  0  0  0  0  0
    3.3024   -0.7252   -0.0745 H   0  0  0  0  0  0  0  0  0  0  0  0
    3.4407   -1.8313   -1.4298 H   0  0  0  0  0  0  0  0  0  0  0  0
    4.8755   -1.4055   -0.4831 H   0  0  0  0  0  0  0  0  0  0  0  0
    3.8592   -2.5224    1.5190 H   0  0  0  0  0  0  0  0  0  0  0  0
    2.4459   -2.9303    0.5859 H   0  0  0  0  0  0  0  0  0  0  0  0
    3.8559   -4.3649   -0.9372 H   0  0  0  0  0  0  0  0  0  0  0  0
    5.2728   -3.9587   -0.0185 H   0  0  0  0  0  0  0  0  0  0  0  0
    4.4149   -6.7615   -0.5813 H   0  0  0  0  0  0  0  0  0  0  0  0
    5.8060   -6.3279    0.3752 H   0  0  0  0  0  0  0  0  0  0  0  0
    3.4873   -8.2831    1.2027 H   0  0  0  0  0  0  0  0  0  0  0  0
    6.1573   -7.4967    2.7292 H   0  0  0  0  0  0  0  0  0  0  0  0
    4.8593   -8.6399    3.3171 H   0  0  0  0  0  0  0  0  0  0  0  0
    5.0596  -10.0099    1.2688 H   0  0  0  0  0  0  0  0  0  0  0  0
    6.3983   -8.9324    0.6188 H   0  0  0  0  0  0  0  0  0  0  0  0
    5.5651   -4.8571    2.4476 H   0  0  0  0  0  0  0  0  0  0  0  0
    3.2773   -4.5755    5.5276 H   0  0  0  0  0  0  0  0  0  0  0  0
    4.8707   -5.2150    5.1746 H   0  0  0  0  0  0  0  0  0  0  0  0
    5.5251   -2.8977    4.2611 H   0  0  0  0  0  0  0  0  0  0  0  0
    3.8931   -2.3617    4.5888 H   0  0  0  0  0  0  0  0  0  0  0  0
    6.4892   -3.0531    7.7729 H   0  0  0  0  0  0  0  0  0  0  0  0
    7.0508   -3.2916    6.1124 H   0  0  0  0  0  0  0  0  0  0  0  0
    5.9731   -4.4638    6.8816 H   0  0  0  0  0  0  0  0  0  0  0  0
    5.6300   -0.9251    7.3429 H   0  0  0  0  0  0  0  0  0  0  0  0
    4.5140   -0.6340    6.0136 H   0  0  0  0  0  0  0  0  0  0  0  0
    6.2101   -1.0028    5.6780 H   0  0  0  0  0  0  0  0  0  0  0  0
   -0.0918   -6.1189    2.0492 H   0  0  0  0  0  0  0  0  0  0  0  0
    0.3011   -5.5509    4.4668 H   0  0  0  0  0  0  0  0  0  0  0  0
    2.3607   -7.0658    4.8432 H   0  0  0  0  0  0  0  0  0  0  0  0
    1.1207   -7.3207    6.0285 H   0  0  0  0  0  0  0  0  0  0  0  0
    1.9969   -9.4719    5.1094 H   0  0  0  0  0  0  0  0  0  0  0  0
   -0.1477  -10.4816    4.4212 H   0  0  0  0  0  0  0  0  0  0  0  0
   -0.3799   -9.4134    5.7980 H   0  0  0  0  0  0  0  0  0  0  0  0
   -2.1297   -9.0144    4.0531 H   0  0  0  0  0  0  0  0  0  0  0  0
   -1.3768   -7.0186    5.3316 H   0  0  0  0  0  0  0  0  0  0  0  0
   -1.8037   -6.5718    3.7065 H   0  0  0  0  0  0  0  0  0  0  0  0
   -0.7925   -9.7423    2.0773 H   0  0  0  0  0  0  0  0  0  0  0  0
   -1.4948   -8.1770    1.7870 H   0  0  0  0  0  0  0  0  0  0  0  0
    0.9345   -8.2221    1.1341 H   0  0  0  0  0  0  0  0  0  0  0  0
    2.6957   -8.6026    2.8862 H   0  0  0  0  0  0  0  0  0  0  0  0
    1.6317  -10.0116    2.7014 H   0  0  0  0  0  0  0  0  0  0  0  0
  1  2  1  0
  1 30  1  0
  1 31  1  0
  1 32  1  0
  2  3  1  0
  2 33  1  0
  2 34  1  0
  4  3  1  6
  3 35  1  0
  3 36  1  0
  4 28  1  0
  4  5  1  0
  4  9  1  0
  5  6  1  0
  5 37  1  0
  5 38  1  0
  6  8  1  0
  6  7  1  0
  6 39  1  0
  7  8  1  0
  7 40  1  0
  7 41  1  0
  8 42  1  0
  8 43  1  0
  9 10  2  0
  9 44  1  0
 10 11  1  0
 10 16  1  0
 11 12  1  0
 11 45  1  0
 11 46  1  0
 12 13  1  0
 12 47  1  0
 12 48  1  0
 13 14  1  0
 13 15  1  0
 14 49  1  0
 14 50  1  0
 14 51  1  0
 15 52  1  0
 15 53  1  0
 15 54  1  0
 16 17  1  0
 17 18  1  0
 17 28  1  0
 18 26  1  0
 18 19  1  0
 18 55  1  6
 19 24  1  0
 19 20  1  0
 19 56  1  1
 20 21  1  0
 20 57  1  0
 20 58  1  0
 21 27  1  0
 21 22  1  0
 21 59  1  1
 22 23  1  0
 22 60  1  0
 22 61  1  0
 23 24  1  0
 23 25  1  0
 23 62  1  6
 24 63  1  0
 24 64  1  0
 25 26  1  0
 25 65  1  0
 25 66  1  0
 26 27  1  0
 26 67  1  6
 27 68  1  0
 27 69  1  0
 28 29  2  0
M  END
>  <i_m_ct_stereo_status>  (85) 
1

>  <s_m_source_file>  (85) 
/var/tmp/pbs.5076255.sched01/tmppm3sokcv/34yi_btuhz.sdf

>  <i_m_source_file_index>  (85) 
1

>  <i_lp_mmshare_version>  (85) 
48012

>  <i_f3d_flags>  (85) 
0

>  <s_epik_input>  (85) 
W0NIMl0xW0NIMl1bQ0hdMVtDSDJdW0NAXTIoW0NIMl1bQ0gyXVtDSDNdKVtDSF09QyhbQ0gyXVtDSDJdTihbQ0gzXSlbQ0gzXSlPTihDMj1PKVtDQEhdKFtDQEBIXTM0KVtDQEhdNVtDSDJdW0NAQEhdKFtDSDJdNClbQ0gyXVtDQEBIXShbQ0gyXTMpW0NIMl01

>  <s_epik_cmdline>  (85) 
J2VwaWtfcHl0aG9uJywgJy1waHQnLCAnMi4wJywgJy1waCcsICc3LjAnLCAnLXRuJywgJzgnLCAnLW1hJywgJzIwMCcsICctaW1hZScsICc8aW5maWxlLm1hZT4nLCAnLW9tYWUnLCAnPG91dGZpbGUubWFlPic=

>  <r_epik_Ionization_Penalty>  (85) 
1.92894

>  <r_epik_Ionization_Penalty_Charging>  (85) 
0

>  <r_epik_Ionization_Penalty_Neutral>  (85) 
1.92894

>  <r_epik_State_Penalty>  (85) 
2.05226

>  <r_epik_Charging_Adjusted_Penalty>  (85) 
2.05226

>  <i_epik_Tot_Q>  (85) 
0

>  <i_epik_Tot_abs_Q>  (85) 
0

>  <s_epik_Chemistry_Notes>  (85) 
This compound has a N-S or N-O group and may undergo hydrolysis at high or low pH.

>  <s_lp_Force_Field>  (85) 
OPLS3e

>  <r_lp_Energy>  (85) 
39.028

>  <b_lp_Chiralities_Consistent>  (85) 
1

>  <s_lp_Variant>  (85) 
23:0-2

>  <s_i_glide_gridfile>  (85) 
pfpi4k_grid

>  <i_i_glide_lignum>  (85) 
1

>  <i_i_glide_rotatable_bonds>  (85) 
8

>  <r_i_docking_score>  (85) 
-1.58774

>  <r_i_glide_ligand_efficiency>  (85) 
-0.0547496

>  <r_i_glide_ligand_efficiency_sa>  (85) 
-0.168208

>  <r_i_glide_ligand_efficiency_ln>  (85) 
-0.363552

>  <r_i_glide_gscore>  (85) 
-1.58774

>  <r_i_glide_lipo>  (85) 
-0.257013

>  <r_i_glide_hbond>  (85) 
-0.0529839

>  <r_i_glide_metal>  (85) 
-0

>  <r_i_glide_rewards>  (85) 
-0.677746

>  <r_i_glide_evdw>  (85) 
-24.2209

>  <r_i_glide_ecoul>  (85) 
-0.467467

>  <r_i_glide_erotb>  (85) 
0.733028

>  <r_i_glide_esite>  (85) 
-0.0518609

>  <r_i_glide_emodel>  (85) 
-25.0667

>  <r_i_glide_energy>  (85) 
-24.6883

>  <r_i_glide_einternal>  (85) 
0.902718

>  <r_i_glide_intrahb_reward>  (85) 
-0

>  <i_i_glide_confnum>  (85) 
6

>  <i_i_glide_posenum>  (85) 
23

>  <r_i_glide_eff_state_penalty>  (85) 
0

>  <ligand_id>  (85) 
23

>  <original_smiles>  (85) 
CCCC1(CC2CC2)C=C(CCN(C)C)ON(C2C3CC4CC(C3)CC2C4)C1=O

>  <smiles>  (85) 
[H]C1=C(C([H])([H])C([H])([H])N(C([H])([H])[H])C([H])([H])[H])ON(C2([H])C3([H])C([H])([H])C4([H])C([H])([H])C([H])(C3([H])[H])C([H])([H])C2([H])C4([H])[H])C(=O)C1(C([H])([H])C([H])([H])C([H])([H])[H])C([H])([H])C1([H])C([H])([H])C1([H])[H]

$$$$
24:0:0
     RDKit          3D

 34 37  0  0  1  0  0  0  0  0999 V2000
    2.9077   -6.8391    2.6043 C   0  0  0  0  0  0  0  0  0  0  0  0
    2.6895   -5.9704    1.4287 C   0  0  0  0  0  0  0  0  0  0  0  0
    1.5580   -6.0325    0.7392 N   0  0  0  0  0  0  0  0  0  0  0  0
    1.7771   -5.1106   -0.2930 O   0  0  0  0  0  0  0  0  0  0  0  0
    3.0023   -4.5723   -0.0723 C   0  0  0  0  0  0  0  0  0  0  0  0
    3.4973   -3.4950   -0.9918 C   0  0  1  0  0  0  0  0  0  0  0  0
    2.5134   -3.2554   -2.1861 C   0  0  0  0  0  0  0  0  0  0  0  0
    3.0601   -2.1783   -3.1325 C   0  0  2  0  0  0  0  0  0  0  0  0
    4.4316   -2.6078   -3.6691 C   0  0  0  0  0  0  0  0  0  0  0  0
    5.4167   -2.7867   -2.4962 C   0  0  1  0  0  0  0  0  0  0  0  0
    5.5437   -1.4758   -1.6946 C   0  0  0  0  0  0  0  0  0  0  0  0
    4.1648   -1.0534   -1.1739 C   0  0  1  0  0  0  0  0  0  0  0  0
    3.2201   -0.8475   -2.3827 C   0  0  0  0  0  0  0  0  0  0  0  0
    3.6266   -2.1487   -0.2279 C   0  0  0  0  0  0  0  0  0  0  0  0
    4.8915   -3.8890   -1.5566 C   0  0  0  0  0  0  0  0  0  0  0  0
    3.6133   -5.0721    1.0011 N   0  0  0  0  0  0  0  0  0  0  0  0
    2.0440   -7.4849    2.7792 H   0  0  0  0  0  0  0  0  0  0  0  0
    3.0639   -6.2187    3.4920 H   0  0  0  0  0  0  0  0  0  0  0  0
    3.7845   -7.4721    2.4415 H   0  0  0  0  0  0  0  0  0  0  0  0
    2.3352   -4.1562   -2.7764 H   0  0  0  0  0  0  0  0  0  0  0  0
    1.5306   -2.9588   -1.8194 H   0  0  0  0  0  0  0  0  0  0  0  0
    2.3665   -2.0437   -3.9611 H   0  0  0  0  0  0  0  0  0  0  0  0
    4.3441   -3.5332   -4.2415 H   0  0  0  0  0  0  0  0  0  0  0  0
    4.7837   -1.8232   -4.3355 H   0  0  0  0  0  0  0  0  0  0  0  0
    6.3929   -3.0774   -2.8911 H   0  0  0  0  0  0  0  0  0  0  0  0
    6.2489   -1.6001   -0.8722 H   0  0  0  0  0  0  0  0  0  0  0  0
    5.8965   -0.6680   -2.3234 H   0  0  0  0  0  0  0  0  0  0  0  0
    4.2665   -0.1263   -0.6161 H   0  0  0  0  0  0  0  0  0  0  0  0
    3.6048   -0.0695   -3.0483 H   0  0  0  0  0  0  0  0  0  0  0  0
    2.2387   -0.5049   -2.0836 H   0  0  0  0  0  0  0  0  0  0  0  0
    2.6643   -1.8428    0.1825 H   0  0  0  0  0  0  0  0  0  0  0  0
    4.3034   -2.2529    0.6241 H   0  0  0  0  0  0  0  0  0  0  0  0
    5.6065   -4.0406   -0.7468 H   0  0  0  0  0  0  0  0  0  0  0  0
    4.8393   -4.8347   -2.0971 H   0  0  0  0  0  0  0  0  0  0  0  0
  1  2  1  0
  1 17  1  0
  1 18  1  0
  1 19  1  0
  2 16  1  0
  2  3  2  0
  3  4  1  0
  4  5  1  0
  6  5  1  1
  5 16  2  0
  6 14  1  0
  6 15  1  0
  6  7  1  0
  7  8  1  0
  7 20  1  0
  7 21  1  0
  8 13  1  0
  8  9  1  0
  8 22  1  6
  9 10  1  0
  9 23  1  0
  9 24  1  0
 10 11  1  0
 10 15  1  0
 10 25  1  6
 11 12  1  0
 11 26  1  0
 11 27  1  0
 12 13  1  0
 12 14  1  0
 12 28  1  1
 13 29  1  0
 13 30  1  0
 14 31  1  0
 14 32  1  0
 15 33  1  0
 15 34  1  0
M  END
>  <i_m_ct_stereo_status>  (86) 
1

>  <s_m_source_file>  (86) 
/var/tmp/pbs.5076255.sched01/tmppm3sokcv/34yi_btuhz.sdf

>  <i_m_source_file_index>  (86) 
2

>  <i_lp_mmshare_version>  (86) 
48012

>  <i_f3d_flags>  (86) 
0

>  <s_epik_input>  (86) 
W0NIM11jMW5vYyhuMSlDMjNbQ0gyXVtDQEhdNFtDSDJdW0NAQEhdKFtDSDJdMylbQ0gyXVtDQEhdKFtDSDJdNClbQ0gyXTI=

>  <s_epik_cmdline>  (86) 
J2VwaWtfcHl0aG9uJywgJy1waHQnLCAnMi4wJywgJy1waCcsICc3LjAnLCAnLXRuJywgJzgnLCAnLW1hJywgJzIwMCcsICctaW1hZScsICc8aW5maWxlLm1hZT4nLCAnLW9tYWUnLCAnPG91dGZpbGUubWFlPic=

>  <r_lp_tautomer_probability>  (86) 
1

>  <r_epik_Ionization_Penalty>  (86) 
2.90446e-10

>  <r_epik_Ionization_Penalty_Charging>  (86) 
0

>  <r_epik_Ionization_Penalty_Neutral>  (86) 
2.90446e-10

>  <r_epik_State_Penalty>  (86) 
-0

>  <r_epik_Charging_Adjusted_Penalty>  (86) 
0

>  <i_epik_Tot_Q>  (86) 
0

>  <i_epik_Tot_abs_Q>  (86) 
0

>  <s_lp_Force_Field>  (86) 
OPLS3e

>  <r_lp_Energy>  (86) 
-1.36945

>  <b_lp_Chiralities_Consistent>  (86) 
1

>  <s_lp_Variant>  (86) 
24:0-1

>  <s_i_glide_gridfile>  (86) 
pfpi4k_grid

>  <i_i_glide_lignum>  (86) 
2

>  <i_i_glide_rotatable_bonds>  (86) 
1

>  <r_i_docking_score>  (86) 
-3.49552

>  <r_i_glide_ligand_efficiency>  (86) 
-0.21847

>  <r_i_glide_ligand_efficiency_sa>  (86) 
-0.55051

>  <r_i_glide_ligand_efficiency_ln>  (86) 
-0.926557

>  <r_i_glide_gscore>  (86) 
-3.49552

>  <r_i_glide_lipo>  (86) 
-0.465496

>  <r_i_glide_hbond>  (86) 
0

>  <r_i_glide_metal>  (86) 
-0

>  <r_i_glide_rewards>  (86) 
-1.92072

>  <r_i_glide_evdw>  (86) 
-13.5899

>  <r_i_glide_ecoul>  (86) 
-3.95659

>  <r_i_glide_erotb>  (86) 
0.352609

>  <r_i_glide_esite>  (86) 
-0.188929

>  <r_i_glide_emodel>  (86) 
-21.4361

>  <r_i_glide_energy>  (86) 
-17.5465

>  <r_i_glide_einternal>  (86) 
1.49298

>  <r_i_glide_intrahb_reward>  (86) 
-0

>  <i_i_glide_confnum>  (86) 
5

>  <i_i_glide_posenum>  (86) 
5

>  <r_i_glide_eff_state_penalty>  (86) 
0

>  <ligand_id>  (86) 
24

>  <original_smiles>  (86) 
Cc1noc(C23CC4CC(CC(C4)C2)C3)n1

>  <smiles>  (86) 
[H]C([H])([H])c1noc(C23C([H])([H])C4([H])C([H])([H])C([H])(C([H])([H])C([H])(C4([H])[H])C2([H])[H])C3([H])[H])n1

$$$$
24:0:1
     RDKit          3D

 34 37  0  0  1  0  0  0  0  0999 V2000
    2.6472   -7.8337    1.8264 C   0  0  0  0  0  0  0  0  0  0  0  0
    2.7435   -6.5208    1.1442 C   0  0  0  0  0  0  0  0  0  0  0  0
    1.6730   -5.8929    0.6752 N   0  0  0  0  0  0  0  0  0  0  0  0
    2.2157   -4.7413    0.0863 O   0  0  0  0  0  0  0  0  0  0  0  0
    3.5533   -4.8025    0.3021 C   0  0  0  0  0  0  0  0  0  0  0  0
    4.4233   -3.6798   -0.1967 C   0  0  1  0  0  0  0  0  0  0  0  0
    4.3356   -3.5697   -1.7404 C   0  0  0  0  0  0  0  0  0  0  0  0
    5.2354   -2.4215   -2.2455 C   0  0  2  0  0  0  0  0  0  0  0  0
    6.6976   -2.7085   -1.8523 C   0  0  0  0  0  0  0  0  0  0  0  0
    6.8050   -2.7869   -0.3145 C   0  0  1  0  0  0  0  0  0  0  0  0
    6.3402   -1.4677    0.3398 C   0  0  0  0  0  0  0  0  0  0  0  0
    4.8827   -1.1842   -0.0786 C   0  0  1  0  0  0  0  0  0  0  0  0
    4.7791   -1.0881   -1.6163 C   0  0  0  0  0  0  0  0  0  0  0  0
    3.9792   -2.3294    0.4274 C   0  0  0  0  0  0  0  0  0  0  0  0
    5.9085   -3.9324    0.1912 C   0  0  0  0  0  0  0  0  0  0  0  0
    3.9377   -5.9025    0.9477 N   0  0  0  0  0  0  0  0  0  0  0  0
    1.6148   -8.1748    1.8772 H   0  0  0  0  0  0  0  0  0  0  0  0
    3.0365   -7.7459    2.8399 H   0  0  0  0  0  0  0  0  0  0  0  0
    3.2285   -8.5763    1.2800 H   0  0  0  0  0  0  0  0  0  0  0  0
    4.6349   -4.5122   -2.2018 H   0  0  0  0  0  0  0  0  0  0  0  0
    3.3037   -3.3908   -2.0502 H   0  0  0  0  0  0  0  0  0  0  0  0
    5.1581   -2.3583   -3.3307 H   0  0  0  0  0  0  0  0  0  0  0  0
    7.0253   -3.6454   -2.3024 H   0  0  0  0  0  0  0  0  0  0  0  0
    7.3629   -1.9460   -2.2495 H   0  0  0  0  0  0  0  0  0  0  0  0
    7.8381   -2.9884   -0.0323 H   0  0  0  0  0  0  0  0  0  0  0  0
    6.4043   -1.5480    1.4260 H   0  0  0  0  0  0  0  0  0  0  0  0
    6.9930   -0.6385    0.0749 H   0  0  0  0  0  0  0  0  0  0  0  0
    4.5522   -0.2441    0.3631 H   0  0  0  0  0  0  0  0  0  0  0  0
    5.3871   -0.2629   -1.9876 H   0  0  0  0  0  0  0  0  0  0  0  0
    3.7511   -0.8687   -1.9095 H   0  0  0  0  0  0  0  0  0  0  0  0
    2.9405   -2.1120    0.1687 H   0  0  0  0  0  0  0  0  0  0  0  0
    4.0186   -2.3845    1.5166 H   0  0  0  0  0  0  0  0  0  0  0  0
    6.0068   -4.0244    1.2743 H   0  0  0  0  0  0  0  0  0  0  0  0
    6.2507   -4.8797   -0.2279 H   0  0  0  0  0  0  0  0  0  0  0  0
  1  2  1  0
  1 17  1  0
  1 18  1  0
  1 19  1  0
  2 16  1  0
  2  3  2  0
  3  4  1  0
  4  5  1  0
  6  5  1  1
  5 16  2  0
  6 14  1  0
  6 15  1  0
  6  7  1  0
  7  8  1  0
  7 20  1  0
  7 21  1  0
  8 13  1  0
  8  9  1  0
  8 22  1  6
  9 10  1  0
  9 23  1  0
  9 24  1  0
 10 11  1  0
 10 15  1  0
 10 25  1  6
 11 12  1  0
 11 26  1  0
 11 27  1  0
 12 13  1  0
 12 14  1  0
 12 28  1  1
 13 29  1  0
 13 30  1  0
 14 31  1  0
 14 32  1  0
 15 33  1  0
 15 34  1  0
M  END
>  <i_m_ct_stereo_status>  (87) 
1

>  <s_m_source_file>  (87) 
/var/tmp/pbs.5076255.sched01/tmppm3sokcv/34yi_btuhz.sdf

>  <i_m_source_file_index>  (87) 
2

>  <i_lp_mmshare_version>  (87) 
48012

>  <i_f3d_flags>  (87) 
0

>  <s_epik_input>  (87) 
W0NIM11jMW5vYyhuMSlDMjNbQ0gyXVtDQEhdNFtDSDJdW0NAQEhdKFtDSDJdMylbQ0gyXVtDQEhdKFtDSDJdNClbQ0gyXTI=

>  <s_epik_cmdline>  (87) 
J2VwaWtfcHl0aG9uJywgJy1waHQnLCAnMi4wJywgJy1waCcsICc3LjAnLCAnLXRuJywgJzgnLCAnLW1hJywgJzIwMCcsICctaW1hZScsICc8aW5maWxlLm1hZT4nLCAnLW9tYWUnLCAnPG91dGZpbGUubWFlPic=

>  <r_lp_tautomer_probability>  (87) 
1

>  <r_epik_Ionization_Penalty>  (87) 
2.90446e-10

>  <r_epik_Ionization_Penalty_Charging>  (87) 
0

>  <r_epik_Ionization_Penalty_Neutral>  (87) 
2.90446e-10

>  <r_epik_State_Penalty>  (87) 
-0

>  <r_epik_Charging_Adjusted_Penalty>  (87) 
0

>  <i_epik_Tot_Q>  (87) 
0

>  <i_epik_Tot_abs_Q>  (87) 
0

>  <s_lp_Force_Field>  (87) 
OPLS3e

>  <r_lp_Energy>  (87) 
-1.36945

>  <b_lp_Chiralities_Consistent>  (87) 
1

>  <s_lp_Variant>  (87) 
24:0-1

>  <s_i_glide_gridfile>  (87) 
pfpi4k_grid

>  <i_i_glide_lignum>  (87) 
2

>  <i_i_glide_rotatable_bonds>  (87) 
1

>  <r_i_docking_score>  (87) 
-3.20556

>  <r_i_glide_ligand_efficiency>  (87) 
-0.200348

>  <r_i_glide_ligand_efficiency_sa>  (87) 
-0.504844

>  <r_i_glide_ligand_efficiency_ln>  (87) 
-0.849698

>  <r_i_glide_gscore>  (87) 
-3.20556

>  <r_i_glide_lipo>  (87) 
-0.223948

>  <r_i_glide_hbond>  (87) 
0

>  <r_i_glide_metal>  (87) 
-0

>  <r_i_glide_rewards>  (87) 
-1.92072

>  <r_i_glide_evdw>  (87) 
-17.5848

>  <r_i_glide_ecoul>  (87) 
-2.56457

>  <r_i_glide_erotb>  (87) 
0.352609

>  <r_i_glide_esite>  (87) 
-0.149581

>  <r_i_glide_emodel>  (87) 
-24.4616

>  <r_i_glide_energy>  (87) 
-20.1494

>  <r_i_glide_einternal>  (87) 
0.0178823

>  <r_i_glide_intrahb_reward>  (87) 
-0

>  <i_i_glide_confnum>  (87) 
4

>  <i_i_glide_posenum>  (87) 
1

>  <r_i_glide_eff_state_penalty>  (87) 
0

>  <ligand_id>  (87) 
24

>  <original_smiles>  (87) 
Cc1noc(C23CC4CC(CC(C4)C2)C3)n1

>  <smiles>  (87) 
[H]C([H])([H])c1noc(C23C([H])([H])C4([H])C([H])([H])C([H])(C([H])([H])C([H])(C4([H])[H])C2([H])[H])C3([H])[H])n1

$$$$
24:0:2
     RDKit          3D

 34 37  0  0  1  0  0  0  0  0999 V2000
    3.9056   -5.5183    3.1934 C   0  0  0  0  0  0  0  0  0  0  0  0
    3.4157   -5.0853    1.8690 C   0  0  0  0  0  0  0  0  0  0  0  0
    2.2955   -5.5832    1.3508 N   0  0  0  0  0  0  0  0  0  0  0  0
    2.2189   -4.9630    0.1009 O   0  0  0  0  0  0  0  0  0  0  0  0
    3.2723   -4.0939    0.0550 C   0  0  0  0  0  0  0  0  0  0  0  0
    3.4875   -3.2520   -1.1666 C   0  0  1  0  0  0  0  0  0  0  0  0
    2.2286   -3.2397   -2.0816 C   0  0  0  0  0  0  0  0  0  0  0  0
    2.4303   -2.3409   -3.3108 C   0  0  2  0  0  0  0  0  0  0  0  0
    3.6090   -2.9099   -4.1037 C   0  0  0  0  0  0  0  0  0  0  0  0
    4.8806   -2.8900   -3.2243 C   0  0  1  0  0  0  0  0  0  0  0  0
    5.1430   -1.4610   -2.7421 C   0  0  0  0  0  0  0  0  0  0  0  0
    3.9874   -0.8990   -1.9697 C   0  0  1  0  0  0  0  0  0  0  0  0
    2.7756   -0.8872   -2.9057 C   0  0  0  0  0  0  0  0  0  0  0  0
    3.7587   -1.7756   -0.7323 C   0  0  0  0  0  0  0  0  0  0  0  0
    4.7141   -3.7640   -1.9793 C   0  0  0  0  0  0  0  0  0  0  0  0
    4.0677   -4.1638    1.1122 N   0  0  0  0  0  0  0  0  0  0  0  0
    3.2264   -6.2514    3.6236 H   0  0  0  0  0  0  0  0  0  0  0  0
    3.9570   -4.6561    3.8585 H   0  0  0  0  0  0  0  0  0  0  0  0
    4.8891   -5.9761    3.0827 H   0  0  0  0  0  0  0  0  0  0  0  0
    1.9612   -4.2420   -2.4231 H   0  0  0  0  0  0  0  0  0  0  0  0
    1.3535   -2.9313   -1.5330 H   0  0  0  0  0  0  0  0  0  0  0  0
    1.5407   -2.3793   -3.9425 H   0  0  0  0  0  0  0  0  0  0  0  0
    3.4063   -3.9353   -4.4190 H   0  0  0  0  0  0  0  0  0  0  0  0
    3.7236   -2.2899   -4.9927 H   0  0  0  0  0  0  0  0  0  0  0  0
    5.7263   -3.2585   -3.8041 H   0  0  0  0  0  0  0  0  0  0  0  0
    6.0702   -1.4133   -2.1605 H   0  0  0  0  0  0  0  0  0  0  0  0
    5.1156   -0.7980   -3.5981 H   0  0  0  0  0  0  0  0  0  0  0  0
    4.2554    0.1220   -1.6947 H   0  0  0  0  0  0  0  0  0  0  0  0
    2.9325   -0.2814   -3.7988 H   0  0  0  0  0  0  0  0  0  0  0  0
    2.0058   -0.3671   -2.3768 H   0  0  0  0  0  0  0  0  0  0  0  0
    2.9441   -1.3597   -0.1374 H   0  0  0  0  0  0  0  0  0  0  0  0
    4.6530   -1.7148   -0.1073 H   0  0  0  0  0  0  0  0  0  0  0  0
    5.6255   -3.7032   -1.3761 H   0  0  0  0  0  0  0  0  0  0  0  0
    4.6165   -4.7984   -2.3020 H   0  0  0  0  0  0  0  0  0  0  0  0
  1  2  1  0
  1 17  1  0
  1 18  1  0
  1 19  1  0
  2 16  1  0
  2  3  2  0
  3  4  1  0
  4  5  1  0
  6  5  1  1
  5 16  2  0
  6 14  1  0
  6 15  1  0
  6  7  1  0
  7  8  1  0
  7 20  1  0
  7 21  1  0
  8 13  1  0
  8  9  1  0
  8 22  1  6
  9 10  1  0
  9 23  1  0
  9 24  1  0
 10 11  1  0
 10 15  1  0
 10 25  1  6
 11 12  1  0
 11 26  1  0
 11 27  1  0
 12 13  1  0
 12 14  1  0
 12 28  1  1
 13 29  1  0
 13 30  1  0
 14 31  1  0
 14 32  1  0
 15 33  1  0
 15 34  1  0
M  END
>  <i_m_ct_stereo_status>  (88) 
1

>  <s_m_source_file>  (88) 
/var/tmp/pbs.5076255.sched01/tmppm3sokcv/34yi_btuhz.sdf

>  <i_m_source_file_index>  (88) 
2

>  <i_lp_mmshare_version>  (88) 
48012

>  <i_f3d_flags>  (88) 
0

>  <s_epik_input>  (88) 
W0NIM11jMW5vYyhuMSlDMjNbQ0gyXVtDQEhdNFtDSDJdW0NAQEhdKFtDSDJdMylbQ0gyXVtDQEhdKFtDSDJdNClbQ0gyXTI=

>  <s_epik_cmdline>  (88) 
J2VwaWtfcHl0aG9uJywgJy1waHQnLCAnMi4wJywgJy1waCcsICc3LjAnLCAnLXRuJywgJzgnLCAnLW1hJywgJzIwMCcsICctaW1hZScsICc8aW5maWxlLm1hZT4nLCAnLW9tYWUnLCAnPG91dGZpbGUubWFlPic=

>  <r_lp_tautomer_probability>  (88) 
1

>  <r_epik_Ionization_Penalty>  (88) 
2.90446e-10

>  <r_epik_Ionization_Penalty_Charging>  (88) 
0

>  <r_epik_Ionization_Penalty_Neutral>  (88) 
2.90446e-10

>  <r_epik_State_Penalty>  (88) 
-0

>  <r_epik_Charging_Adjusted_Penalty>  (88) 
0

>  <i_epik_Tot_Q>  (88) 
0

>  <i_epik_Tot_abs_Q>  (88) 
0

>  <s_lp_Force_Field>  (88) 
OPLS3e

>  <r_lp_Energy>  (88) 
-1.36945

>  <b_lp_Chiralities_Consistent>  (88) 
1

>  <s_lp_Variant>  (88) 
24:0-1

>  <s_i_glide_gridfile>  (88) 
pfpi4k_grid

>  <i_i_glide_lignum>  (88) 
2

>  <i_i_glide_rotatable_bonds>  (88) 
1

>  <r_i_docking_score>  (88) 
-2.82984

>  <r_i_glide_ligand_efficiency>  (88) 
-0.176865

>  <r_i_glide_ligand_efficiency_sa>  (88) 
-0.445672

>  <r_i_glide_ligand_efficiency_ln>  (88) 
-0.750105

>  <r_i_glide_gscore>  (88) 
-2.82984

>  <r_i_glide_lipo>  (88) 
-0.47487

>  <r_i_glide_hbond>  (88) 
0

>  <r_i_glide_metal>  (88) 
-0

>  <r_i_glide_rewards>  (88) 
-1.92666

>  <r_i_glide_evdw>  (88) 
-9.40236

>  <r_i_glide_ecoul>  (88) 
-1.41257

>  <r_i_glide_erotb>  (88) 
0.352609

>  <r_i_glide_esite>  (88) 
-0.0989179

>  <r_i_glide_emodel>  (88) 
-12.8193

>  <r_i_glide_energy>  (88) 
-10.8149

>  <r_i_glide_einternal>  (88) 
1.3678

>  <r_i_glide_intrahb_reward>  (88) 
-0

>  <i_i_glide_confnum>  (88) 
2

>  <i_i_glide_posenum>  (88) 
26

>  <r_i_glide_eff_state_penalty>  (88) 
0

>  <ligand_id>  (88) 
24

>  <original_smiles>  (88) 
Cc1noc(C23CC4CC(CC(C4)C2)C3)n1

>  <smiles>  (88) 
[H]C([H])([H])c1noc(C23C([H])([H])C4([H])C([H])([H])C([H])(C([H])([H])C([H])(C4([H])[H])C2([H])[H])C3([H])[H])n1

$$$$
25:0:0
     RDKit          3D

 51 55  0  0  1  0  0  0  0  0999 V2000
    4.7708   -0.6631    5.0380 C   0  0  0  0  0  0  0  0  0  0  0  0
    3.8771   -1.2390    4.0103 N   0  0  1  0  0  0  0  0  0  0  0  0
    3.5408   -0.2696    2.9344 C   0  0  0  0  0  0  0  0  0  0  0  0
    2.7855   -0.9238    1.7466 C   0  0  0  0  0  0  0  0  0  0  0  0
    3.2055   -2.3930    1.4212 C   0  0  2  0  0  0  0  0  0  0  0  0
    2.2379   -2.8345    0.4921 O   0  0  0  0  0  0  0  0  0  0  0  0
    3.0716   -3.1366    2.7578 C   0  0  1  0  0  0  0  0  0  0  0  0
    2.9704   -4.6557    2.6985 C   0  0  0  0  0  0  0  0  0  0  0  0
    3.7602   -5.5450    2.0772 C   0  0  0  0  0  0  0  0  0  0  0  0
    5.0222   -5.2767    1.2970 C   0  0  1  0  0  0  0  0  0  0  0  0
    5.3584   -6.4185    0.5389 O   0  0  0  0  0  0  0  0  0  0  0  0
    5.0451   -4.0175    0.3879 C   0  0  1  0  0  0  0  0  0  0  0  0
    4.3691   -4.2636   -0.9844 C   0  0  0  0  0  0  0  0  0  0  0  0
    4.2207   -3.0433   -1.8705 C   0  0  0  0  0  0  0  0  0  0  0  0
    3.6628   -3.2039   -3.1560 C   0  0  0  0  0  0  0  0  0  0  0  0
    3.4481   -2.0872   -3.9774 C   0  0  0  0  0  0  0  0  0  0  0  0
    3.7875   -0.8067   -3.5310 C   0  0  0  0  0  0  0  0  0  0  0  0
    3.5505    0.2842   -4.3217 O   0  0  0  0  0  0  0  0  0  0  0  0
    4.3663   -0.6536   -2.2635 C   0  0  0  0  0  0  0  0  0  0  0  0
    4.5984   -1.7607   -1.4164 C   0  0  0  0  0  0  0  0  0  0  0  0
    5.2708   -1.6003   -0.0559 C   0  0  1  0  0  0  0  0  0  0  0  0
    5.3376   -0.2718    0.4164 O   0  0  0  0  0  0  0  0  0  0  0  0
    4.7152   -2.6029    1.0126 C   0  0  1  0  0  0  0  0  0  0  0  0
    5.4105   -2.4462    2.4041 C   0  0  0  0  0  0  0  0  0  0  0  0
    4.2989   -2.5699    3.4888 C   0  0  1  0  0  0  0  0  0  0  0  0
    5.7509   -0.4077    4.6329 H   0  0  0  0  0  0  0  0  0  0  0  0
    4.9063   -1.3513    5.8753 H   0  0  0  0  0  0  0  0  0  0  0  0
    4.3296    0.2517    5.4410 H   0  0  0  0  0  0  0  0  0  0  0  0
    2.9318    0.5315    3.3494 H   0  0  0  0  0  0  0  0  0  0  0  0
    4.4486    0.2154    2.5957 H   0  0  0  0  0  0  0  0  0  0  0  0
    1.7203   -0.9189    1.9891 H   0  0  0  0  0  0  0  0  0  0  0  0
    2.8646   -0.2842    0.8633 H   0  0  0  0  0  0  0  0  0  0  0  0
    1.9794   -2.0988   -0.0627 H   0  0  0  0  0  0  0  0  0  0  0  0
    2.1488   -2.8490    3.2671 H   0  0  0  0  0  0  0  0  0  0  0  0
    2.1311   -5.0595    3.2469 H   0  0  0  0  0  0  0  0  0  0  0  0
    3.5104   -6.5910    2.1842 H   0  0  0  0  0  0  0  0  0  0  0  0
    5.8164   -5.2343    2.0404 H   0  0  0  0  0  0  0  0  0  0  0  0
    4.8251   -6.4389   -0.2443 H   0  0  0  0  0  0  0  0  0  0  0  0
    6.1037   -3.9656    0.1341 H   0  0  0  0  0  0  0  0  0  0  0  0
    4.9196   -5.0116   -1.5569 H   0  0  0  0  0  0  0  0  0  0  0  0
    3.3688   -4.6600   -0.8163 H   0  0  0  0  0  0  0  0  0  0  0  0
    3.3758   -4.1831   -3.5212 H   0  0  0  0  0  0  0  0  0  0  0  0
    3.0209   -2.2126   -4.9542 H   0  0  0  0  0  0  0  0  0  0  0  0
    3.3238    1.0710   -3.8375 H   0  0  0  0  0  0  0  0  0  0  0  0
    4.6164    0.3327   -1.9598 H   0  0  0  0  0  0  0  0  0  0  0  0
    6.3131   -1.8569   -0.2510 H   0  0  0  0  0  0  0  0  0  0  0  0
    5.1838    0.3339   -0.3048 H   0  0  0  0  0  0  0  0  0  0  0  0
    6.1797   -3.2030    2.5491 H   0  0  0  0  0  0  0  0  0  0  0  0
    5.9617   -1.5077    2.4974 H   0  0  0  0  0  0  0  0  0  0  0  0
    4.6042   -3.2149    4.3145 H   0  0  0  0  0  0  0  0  0  0  0  0
    3.0146   -1.4159    4.4879 H   0  0  0  0  0  0  0  0  0  0  0  0
  1  2  1  0
  1 26  1  0
  1 27  1  0
  1 28  1  0
  2 25  1  0
  2  3  1  0
  2 51  1  1
  3  4  1  0
  3 29  1  0
  3 30  1  0
  4  5  1  0
  4 31  1  0
  4 32  1  0
  5 23  1  0
  5  6  1  6
  5  7  1  0
  6 33  1  0
  7 25  1  0
  7  8  1  0
  7 34  1  1
  8  9  2  0
  8 35  1  0
  9 10  1  0
  9 36  1  0
 10 11  1  0
 10 12  1  0
 10 37  1  1
 11 38  1  0
 12 23  1  0
 12 13  1  0
 12 39  1  6
 13 14  1  0
 13 40  1  0
 13 41  1  0
 14 20  2  0
 14 15  1  0
 15 16  2  0
 15 42  1  0
 16 17  1  0
 16 43  1  0
 17 18  1  0
 17 19  2  0
 18 44  1  0
 19 20  1  0
 19 45  1  0
 20 21  1  0
 21 22  1  0
 21 23  1  0
 21 46  1  6
 22 47  1  0
 23 24  1  1
 24 25  1  0
 24 48  1  0
 24 49  1  0
 25 50  1  1
M  CHG  1   2   1
M  END
>  <i_m_ct_stereo_status>  (89) 
1

>  <s_m_source_file>  (89) 
/var/tmp/pbs.5076255.sched01/tmppm3sokcv/34yi_btuhz.sdf

>  <i_m_source_file_index>  (89) 
3

>  <i_lp_mmshare_version>  (89) 
48012

>  <i_f3d_flags>  (89) 
0

>  <s_epik_input>  (89) 
W0NIMl0xW0NIMl1OKFtDSDNdKVtDQEhdKFtDSDJdMilbQ0BASF0oW0NAQF0xKFtDQEBdMjM0KVtPSF0pW0NIXT1bQ0hdW0NAQEhdKFtPSF0pW0NASF0zW0NIMl1jNWMoW0NASF00W09IXSlbY0hdYyhbT0hdKVtjSF1bY0hdNQ==

>  <s_epik_cmdline>  (89) 
J2VwaWtfcHl0aG9uJywgJy1waHQnLCAnMi4wJywgJy1waCcsICc3LjAnLCAnLXRuJywgJzgnLCAnLW1hJywgJzIwMCcsICctaW1hZScsICc8aW5maWxlLm1hZT4nLCAnLW9tYWUnLCAnPG91dGZpbGUubWFlPic=

>  <r_lp_tautomer_probability>  (89) 
1

>  <r_epik_Ionization_Penalty>  (89) 
0.00257372

>  <r_epik_Ionization_Penalty_Charging>  (89) 
0.0015455

>  <r_epik_Ionization_Penalty_Neutral>  (89) 
0.00102822

>  <r_epik_State_Penalty>  (89) 
-0

>  <r_epik_Charging_Adjusted_Penalty>  (89) 
0.0015455

>  <i_epik_Tot_Q>  (89) 
1

>  <i_epik_Tot_abs_Q>  (89) 
1

>  <s_lp_Force_Field>  (89) 
OPLS3e

>  <r_lp_Energy>  (89) 
68.8324

>  <b_lp_Chiralities_Consistent>  (89) 
1

>  <s_lp_Variant>  (89) 
25:0-1

>  <s_i_glide_gridfile>  (89) 
pfpi4k_grid

>  <i_i_glide_lignum>  (89) 
3

>  <i_i_glide_rotatable_bonds>  (89) 
4

>  <r_i_docking_score>  (89) 
-5.03385

>  <r_i_glide_ligand_efficiency>  (89) 
-0.201354

>  <r_i_glide_ligand_efficiency_sa>  (89) 
-0.588762

>  <r_i_glide_ligand_efficiency_ln>  (89) 
-1.19317

>  <r_i_glide_gscore>  (89) 
-5.03385

>  <r_i_glide_lipo>  (89) 
-0.564256

>  <r_i_glide_hbond>  (89) 
-0.683891

>  <r_i_glide_metal>  (89) 
-0

>  <r_i_glide_rewards>  (89) 
-1.06074

>  <r_i_glide_evdw>  (89) 
-20.3158

>  <r_i_glide_ecoul>  (89) 
-11.3945

>  <r_i_glide_erotb>  (89) 
0

>  <r_i_glide_esite>  (89) 
0

>  <r_i_glide_emodel>  (89) 
-38.842

>  <r_i_glide_energy>  (89) 
-31.7103

>  <r_i_glide_einternal>  (89) 
3.99298

>  <r_i_glide_intrahb_reward>  (89) 
-0

>  <i_i_glide_confnum>  (89) 
2

>  <i_i_glide_posenum>  (89) 
13

>  <r_i_glide_eff_state_penalty>  (89) 
0

>  <ligand_id>  (89) 
25

>  <original_smiles>  (89) 
CN1CCC2(O)C3C=CC(O)C4Cc5ccc(O)cc5C(O)C42CC31

>  <smiles>  (89) 
[H]Oc1c([H])c([H])c2c(c1[H])C([H])(O[H])C13C([H])([H])C4([H])C([H])(C([H])=C([H])C([H])(O[H])C1([H])C2([H])[H])C3(O[H])C([H])([H])C([H])([H])[N+]4([H])C([H])([H])[H]

$$$$
25:0:1
     RDKit          3D

 51 55  0  0  1  0  0  0  0  0999 V2000
    3.4867   -0.8273    5.3644 C   0  0  0  0  0  0  0  0  0  0  0  0
    2.9516   -1.5928    4.2159 N   0  0  1  0  0  0  0  0  0  0  0  0
    2.5976   -0.7297    3.0571 C   0  0  0  0  0  0  0  0  0  0  0  0
    2.2481   -1.5425    1.7814 C   0  0  0  0  0  0  0  0  0  0  0  0
    3.0516   -2.8711    1.6012 C   0  0  2  0  0  0  0  0  0  0  0  0
    2.4253   -3.5357    0.5299 O   0  0  0  0  0  0  0  0  0  0  0  0
    2.8491   -3.6279    2.9203 C   0  0  1  0  0  0  0  0  0  0  0  0
    3.1183   -5.1247    2.9058 C   0  0  0  0  0  0  0  0  0  0  0  0
    4.1950   -5.8004    2.4725 C   0  0  0  0  0  0  0  0  0  0  0  0
    5.4824   -5.2410    1.9224 C   0  0  1  0  0  0  0  0  0  0  0  0
    6.2086   -6.2737    1.2803 O   0  0  0  0  0  0  0  0  0  0  0  0
    5.3637   -4.0120    0.9741 C   0  0  1  0  0  0  0  0  0  0  0  0
    5.0177   -4.4073   -0.4866 C   0  0  0  0  0  0  0  0  0  0  0  0
    4.7646   -3.2449   -1.4343 C   0  0  0  0  0  0  0  0  0  0  0  0
    4.5113   -3.5228   -2.7891 C   0  0  0  0  0  0  0  0  0  0  0  0
    4.1732   -2.4917   -3.6848 C   0  0  0  0  0  0  0  0  0  0  0  0
    4.1199   -1.1630   -3.2298 C   0  0  0  0  0  0  0  0  0  0  0  0
    3.7899   -0.1598   -4.0979 O   0  0  0  0  0  0  0  0  0  0  0  0
    4.4129   -0.8770   -1.8838 C   0  0  0  0  0  0  0  0  0  0  0  0
    4.7404   -1.9087   -0.9734 C   0  0  0  0  0  0  0  0  0  0  0  0
    5.1031   -1.6017    0.4773 C   0  0  1  0  0  0  0  0  0  0  0  0
    4.8325   -0.2733    0.8807 O   0  0  0  0  0  0  0  0  0  0  0  0
    4.6105   -2.7104    1.4716 C   0  0  1  0  0  0  0  0  0  0  0  0
    4.9789   -2.3934    2.9540 C   0  0  0  0  0  0  0  0  0  0  0  0
    3.7548   -2.7879    3.8310 C   0  0  1  0  0  0  0  0  0  0  0  0
    4.4381   -0.3478    5.1261 H   0  0  0  0  0  0  0  0  0  0  0  0
    3.6226   -1.4694    6.2369 H   0  0  0  0  0  0  0  0  0  0  0  0
    2.7777   -0.0450    5.6432 H   0  0  0  0  0  0  0  0  0  0  0  0
    1.7508   -0.1004    3.3293 H   0  0  0  0  0  0  0  0  0  0  0  0
    3.4141   -0.0387    2.8665 H   0  0  0  0  0  0  0  0  0  0  0  0
    1.1866   -1.7917    1.8390 H   0  0  0  0  0  0  0  0  0  0  0  0
    2.3259   -0.8984    0.9048 H   0  0  0  0  0  0  0  0  0  0  0  0
    2.3786   -2.9319   -0.2007 H   0  0  0  0  0  0  0  0  0  0  0  0
    1.8045   -3.5660    3.2423 H   0  0  0  0  0  0  0  0  0  0  0  0
    2.3077   -5.7159    3.3050 H   0  0  0  0  0  0  0  0  0  0  0  0
    4.1660   -6.8760    2.5672 H   0  0  0  0  0  0  0  0  0  0  0  0
    6.0967   -5.0002    2.7879 H   0  0  0  0  0  0  0  0  0  0  0  0
    6.3513   -6.9838    1.8893 H   0  0  0  0  0  0  0  0  0  0  0  0
    6.4080   -3.7104    0.9007 H   0  0  0  0  0  0  0  0  0  0  0  0
    5.8163   -5.0072   -0.9163 H   0  0  0  0  0  0  0  0  0  0  0  0
    4.1411   -5.0559   -0.5014 H   0  0  0  0  0  0  0  0  0  0  0  0
    4.5470   -4.5429   -3.1459 H   0  0  0  0  0  0  0  0  0  0  0  0
    3.9477   -2.7328   -4.7137 H   0  0  0  0  0  0  0  0  0  0  0  0
    3.5013    0.6391   -3.6771 H   0  0  0  0  0  0  0  0  0  0  0  0
    4.3853    0.1434   -1.5473 H   0  0  0  0  0  0  0  0  0  0  0  0
    6.1934   -1.6174    0.4832 H   0  0  0  0  0  0  0  0  0  0  0  0
    3.9028   -0.1169    0.8205 H   0  0  0  0  0  0  0  0  0  0  0  0
    5.8447   -2.9546    3.2764 H   0  0  0  0  0  0  0  0  0  0  0  0
    5.2766   -1.3523    3.1056 H   0  0  0  0  0  0  0  0  0  0  0  0
    4.0490   -3.3468    4.7207 H   0  0  0  0  0  0  0  0  0  0  0  0
    2.0768   -1.9748    4.5419 H   0  0  0  0  0  0  0  0  0  0  0  0
  1  2  1  0
  1 26  1  0
  1 27  1  0
  1 28  1  0
  2 25  1  0
  2  3  1  0
  2 51  1  1
  3  4  1  0
  3 29  1  0
  3 30  1  0
  4  5  1  0
  4 31  1  0
  4 32  1  0
  5 23  1  0
  5  6  1  6
  5  7  1  0
  6 33  1  0
  7 25  1  0
  7  8  1  0
  7 34  1  1
  8  9  2  0
  8 35  1  0
  9 10  1  0
  9 36  1  0
 10 11  1  0
 10 12  1  0
 10 37  1  1
 11 38  1  0
 12 23  1  0
 12 13  1  0
 12 39  1  6
 13 14  1  0
 13 40  1  0
 13 41  1  0
 14 20  2  0
 14 15  1  0
 15 16  2  0
 15 42  1  0
 16 17  1  0
 16 43  1  0
 17 18  1  0
 17 19  2  0
 18 44  1  0
 19 20  1  0
 19 45  1  0
 20 21  1  0
 21 22  1  0
 21 23  1  0
 21 46  1  6
 22 47  1  0
 23 24  1  1
 24 25  1  0
 24 48  1  0
 24 49  1  0
 25 50  1  1
M  CHG  1   2   1
M  END
>  <i_m_ct_stereo_status>  (90) 
1

>  <s_m_source_file>  (90) 
/var/tmp/pbs.5076255.sched01/tmppm3sokcv/34yi_btuhz.sdf

>  <i_m_source_file_index>  (90) 
3

>  <i_lp_mmshare_version>  (90) 
48012

>  <i_f3d_flags>  (90) 
0

>  <s_epik_input>  (90) 
W0NIMl0xW0NIMl1OKFtDSDNdKVtDQEhdKFtDSDJdMilbQ0BASF0oW0NAQF0xKFtDQEBdMjM0KVtPSF0pW0NIXT1bQ0hdW0NAQEhdKFtPSF0pW0NASF0zW0NIMl1jNWMoW0NASF00W09IXSlbY0hdYyhbT0hdKVtjSF1bY0hdNQ==

>  <s_epik_cmdline>  (90) 
J2VwaWtfcHl0aG9uJywgJy1waHQnLCAnMi4wJywgJy1waCcsICc3LjAnLCAnLXRuJywgJzgnLCAnLW1hJywgJzIwMCcsICctaW1hZScsICc8aW5maWxlLm1hZT4nLCAnLW9tYWUnLCAnPG91dGZpbGUubWFlPic=

>  <r_lp_tautomer_probability>  (90) 
1

>  <r_epik_Ionization_Penalty>  (90) 
0.00257372

>  <r_epik_Ionization_Penalty_Charging>  (90) 
0.0015455

>  <r_epik_Ionization_Penalty_Neutral>  (90) 
0.00102822

>  <r_epik_State_Penalty>  (90) 
-0

>  <r_epik_Charging_Adjusted_Penalty>  (90) 
0.0015455

>  <i_epik_Tot_Q>  (90) 
1

>  <i_epik_Tot_abs_Q>  (90) 
1

>  <s_lp_Force_Field>  (90) 
OPLS3e

>  <r_lp_Energy>  (90) 
68.8324

>  <b_lp_Chiralities_Consistent>  (90) 
1

>  <s_lp_Variant>  (90) 
25:0-1

>  <s_i_glide_gridfile>  (90) 
pfpi4k_grid

>  <i_i_glide_lignum>  (90) 
3

>  <i_i_glide_rotatable_bonds>  (90) 
4

>  <r_i_docking_score>  (90) 
-3.53208

>  <r_i_glide_ligand_efficiency>  (90) 
-0.141283

>  <r_i_glide_ligand_efficiency_sa>  (90) 
-0.413115

>  <r_i_glide_ligand_efficiency_ln>  (90) 
-0.83721

>  <r_i_glide_gscore>  (90) 
-3.53208

>  <r_i_glide_lipo>  (90) 
-0.582548

>  <r_i_glide_hbond>  (90) 
-0.0104296

>  <r_i_glide_metal>  (90) 
-0

>  <r_i_glide_rewards>  (90) 
-1.06074

>  <r_i_glide_evdw>  (90) 
-22.6352

>  <r_i_glide_ecoul>  (90) 
-4.97737

>  <r_i_glide_erotb>  (90) 
0

>  <r_i_glide_esite>  (90) 
0

>  <r_i_glide_emodel>  (90) 
-33.9642

>  <r_i_glide_energy>  (90) 
-27.6126

>  <r_i_glide_einternal>  (90) 
1.14737

>  <r_i_glide_intrahb_reward>  (90) 
-0

>  <i_i_glide_confnum>  (90) 
1

>  <i_i_glide_posenum>  (90) 
6

>  <r_i_glide_eff_state_penalty>  (90) 
0

>  <ligand_id>  (90) 
25

>  <original_smiles>  (90) 
CN1CCC2(O)C3C=CC(O)C4Cc5ccc(O)cc5C(O)C42CC31

>  <smiles>  (90) 
[H]Oc1c([H])c([H])c2c(c1[H])C([H])(O[H])C13C([H])([H])C4([H])C([H])(C([H])=C([H])C([H])(O[H])C1([H])C2([H])[H])C3(O[H])C([H])([H])C([H])([H])[N+]4([H])C([H])([H])[H]

$$$$
25:0:2
     RDKit          3D

 51 55  0  0  1  0  0  0  0  0999 V2000
    3.6682   -0.8047    5.2360 C   0  0  0  0  0  0  0  0  0  0  0  0
    3.0522   -1.5265    4.1002 N   0  0  1  0  0  0  0  0  0  0  0  0
    2.7147   -0.6333    2.9605 C   0  0  0  0  0  0  0  0  0  0  0  0
    2.2775   -1.4093    1.6905 C   0  0  0  0  0  0  0  0  0  0  0  0
    2.9955   -2.7819    1.4669 C   0  0  2  0  0  0  0  0  0  0  0  0
    2.2984   -3.3964    0.4051 O   0  0  0  0  0  0  0  0  0  0  0  0
    2.7911   -3.5391    2.7855 C   0  0  1  0  0  0  0  0  0  0  0  0
    2.9700   -5.0520    2.7505 C   0  0  0  0  0  0  0  0  0  0  0  0
    3.9880   -5.7813    2.2763 C   0  0  0  0  0  0  0  0  0  0  0  0
    5.2867   -5.2924    1.6835 C   0  0  1  0  0  0  0  0  0  0  0  0
    5.9233   -6.3576    1.0091 O   0  0  0  0  0  0  0  0  0  0  0  0
    5.2165   -4.0485    0.7552 C   0  0  1  0  0  0  0  0  0  0  0  0
    4.8054   -4.4081   -0.6967 C   0  0  0  0  0  0  0  0  0  0  0  0
    4.5891   -3.2217   -1.6226 C   0  0  0  0  0  0  0  0  0  0  0  0
    4.2666   -3.4634   -2.9720 C   0  0  0  0  0  0  0  0  0  0  0  0
    3.9569   -2.4071   -3.8409 C   0  0  0  0  0  0  0  0  0  0  0  0
    4.0093   -1.0863   -3.3779 C   0  0  0  0  0  0  0  0  0  0  0  0
    3.7115   -0.0586   -4.2266 O   0  0  0  0  0  0  0  0  0  0  0  0
    4.3657   -0.8434   -2.0407 C   0  0  0  0  0  0  0  0  0  0  0  0
    4.6605   -1.8940   -1.1493 C   0  0  0  0  0  0  0  0  0  0  0  0
    5.0844   -1.6245    0.2928 C   0  0  1  0  0  0  0  0  0  0  0  0
    4.9009   -0.2876    0.7169 O   0  0  0  0  0  0  0  0  0  0  0  0
    4.5581   -2.7129    1.2915 C   0  0  1  0  0  0  0  0  0  0  0  0
    4.9945   -2.4376    2.7674 C   0  0  0  0  0  0  0  0  0  0  0  0
    3.7730   -2.7653    3.6772 C   0  0  1  0  0  0  0  0  0  0  0  0
    4.6372   -0.3801    4.9693 H   0  0  0  0  0  0  0  0  0  0  0  0
    3.7931   -1.4642    6.0957 H   0  0  0  0  0  0  0  0  0  0  0  0
    3.0129    0.0136    5.5405 H   0  0  0  0  0  0  0  0  0  0  0  0
    1.9141    0.0416    3.2616 H   0  0  0  0  0  0  0  0  0  0  0  0
    3.5645    0.0092    2.7475 H   0  0  0  0  0  0  0  0  0  0  0  0
    1.2043   -1.5983    1.7725 H   0  0  0  0  0  0  0  0  0  0  0  0
    2.3755   -0.7575    0.8241 H   0  0  0  0  0  0  0  0  0  0  0  0
    2.2443   -2.7739   -0.3095 H   0  0  0  0  0  0  0  0  0  0  0  0
    1.7644   -3.4192    3.1416 H   0  0  0  0  0  0  0  0  0  0  0  0
    2.1394   -5.5985    3.1764 H   0  0  0  0  0  0  0  0  0  0  0  0
    3.9123   -6.8567    2.3704 H   0  0  0  0  0  0  0  0  0  0  0  0
    5.9436   -5.1060    2.5318 H   0  0  0  0  0  0  0  0  0  0  0  0
    5.3991   -6.6054    0.2613 H   0  0  0  0  0  0  0  0  0  0  0  0
    6.2748   -3.8072    0.6582 H   0  0  0  0  0  0  0  0  0  0  0  0
    5.5568   -5.0448   -1.1522 H   0  0  0  0  0  0  0  0  0  0  0  0
    3.8906   -5.0006   -0.6876 H   0  0  0  0  0  0  0  0  0  0  0  0
    4.2210   -4.4755   -3.3461 H   0  0  0  0  0  0  0  0  0  0  0  0
    3.6596   -2.6205   -4.8512 H   0  0  0  0  0  0  0  0  0  0  0  0
    3.4497    0.7402   -3.7858 H   0  0  0  0  0  0  0  0  0  0  0  0
    4.4107    0.1620   -1.6909 H   0  0  0  0  0  0  0  0  0  0  0  0
    6.1713   -1.7007    0.2663 H   0  0  0  0  0  0  0  0  0  0  0  0
    3.9804   -0.0809    0.6802 H   0  0  0  0  0  0  0  0  0  0  0  0
    5.8426   -3.0502    3.0525 H   0  0  0  0  0  0  0  0  0  0  0  0
    5.3528   -1.4149    2.9173 H   0  0  0  0  0  0  0  0  0  0  0  0
    4.0597   -3.3480    4.5519 H   0  0  0  0  0  0  0  0  0  0  0  0
    2.1658   -1.8632    4.4478 H   0  0  0  0  0  0  0  0  0  0  0  0
  1  2  1  0
  1 26  1  0
  1 27  1  0
  1 28  1  0
  2 25  1  0
  2  3  1  0
  2 51  1  1
  3  4  1  0
  3 29  1  0
  3 30  1  0
  4  5  1  0
  4 31  1  0
  4 32  1  0
  5 23  1  0
  5  6  1  6
  5  7  1  0
  6 33  1  0
  7 25  1  0
  7  8  1  0
  7 34  1  1
  8  9  2  0
  8 35  1  0
  9 10  1  0
  9 36  1  0
 10 11  1  0
 10 12  1  0
 10 37  1  1
 11 38  1  0
 12 23  1  0
 12 13  1  0
 12 39  1  6
 13 14  1  0
 13 40  1  0
 13 41  1  0
 14 20  2  0
 14 15  1  0
 15 16  2  0
 15 42  1  0
 16 17  1  0
 16 43  1  0
 17 18  1  0
 17 19  2  0
 18 44  1  0
 19 20  1  0
 19 45  1  0
 20 21  1  0
 21 22  1  0
 21 23  1  0
 21 46  1  6
 22 47  1  0
 23 24  1  1
 24 25  1  0
 24 48  1  0
 24 49  1  0
 25 50  1  1
M  CHG  1   2   1
M  END
>  <i_m_ct_stereo_status>  (91) 
1

>  <s_m_source_file>  (91) 
/var/tmp/pbs.5076255.sched01/tmppm3sokcv/34yi_btuhz.sdf

>  <i_m_source_file_index>  (91) 
3

>  <i_lp_mmshare_version>  (91) 
48012

>  <i_f3d_flags>  (91) 
0

>  <s_epik_input>  (91) 
W0NIMl0xW0NIMl1OKFtDSDNdKVtDQEhdKFtDSDJdMilbQ0BASF0oW0NAQF0xKFtDQEBdMjM0KVtPSF0pW0NIXT1bQ0hdW0NAQEhdKFtPSF0pW0NASF0zW0NIMl1jNWMoW0NASF00W09IXSlbY0hdYyhbT0hdKVtjSF1bY0hdNQ==

>  <s_epik_cmdline>  (91) 
J2VwaWtfcHl0aG9uJywgJy1waHQnLCAnMi4wJywgJy1waCcsICc3LjAnLCAnLXRuJywgJzgnLCAnLW1hJywgJzIwMCcsICctaW1hZScsICc8aW5maWxlLm1hZT4nLCAnLW9tYWUnLCAnPG91dGZpbGUubWFlPic=

>  <r_lp_tautomer_probability>  (91) 
1

>  <r_epik_Ionization_Penalty>  (91) 
0.00257372

>  <r_epik_Ionization_Penalty_Charging>  (91) 
0.0015455

>  <r_epik_Ionization_Penalty_Neutral>  (91) 
0.00102822

>  <r_epik_State_Penalty>  (91) 
-0

>  <r_epik_Charging_Adjusted_Penalty>  (91) 
0.0015455

>  <i_epik_Tot_Q>  (91) 
1

>  <i_epik_Tot_abs_Q>  (91) 
1

>  <s_lp_Force_Field>  (91) 
OPLS3e

>  <r_lp_Energy>  (91) 
68.8324

>  <b_lp_Chiralities_Consistent>  (91) 
1

>  <s_lp_Variant>  (91) 
25:0-1

>  <s_i_glide_gridfile>  (91) 
pfpi4k_grid

>  <i_i_glide_lignum>  (91) 
3

>  <i_i_glide_rotatable_bonds>  (91) 
4

>  <r_i_docking_score>  (91) 
-3.48938

>  <r_i_glide_ligand_efficiency>  (91) 
-0.139575

>  <r_i_glide_ligand_efficiency_sa>  (91) 
-0.40812

>  <r_i_glide_ligand_efficiency_ln>  (91) 
-0.827087

>  <r_i_glide_gscore>  (91) 
-3.48938

>  <r_i_glide_lipo>  (91) 
-0.461937

>  <r_i_glide_hbond>  (91) 
-0.0683897

>  <r_i_glide_metal>  (91) 
-0

>  <r_i_glide_rewards>  (91) 
-1.06074

>  <r_i_glide_evdw>  (91) 
-21.9008

>  <r_i_glide_ecoul>  (91) 
-5.35513

>  <r_i_glide_erotb>  (91) 
0

>  <r_i_glide_esite>  (91) 
0

>  <r_i_glide_emodel>  (91) 
-33.6089

>  <r_i_glide_energy>  (91) 
-27.2559

>  <r_i_glide_einternal>  (91) 
0.861638

>  <r_i_glide_intrahb_reward>  (91) 
-0

>  <i_i_glide_confnum>  (91) 
2

>  <i_i_glide_posenum>  (91) 
1

>  <r_i_glide_eff_state_penalty>  (91) 
0

>  <ligand_id>  (91) 
25

>  <original_smiles>  (91) 
CN1CCC2(O)C3C=CC(O)C4Cc5ccc(O)cc5C(O)C42CC31

>  <smiles>  (91) 
[H]Oc1c([H])c([H])c2c(c1[H])C([H])(O[H])C13C([H])([H])C4([H])C([H])(C([H])=C([H])C([H])(O[H])C1([H])C2([H])[H])C3(O[H])C([H])([H])C([H])([H])[N+]4([H])C([H])([H])[H]

$$$$
26:0:0
     RDKit          3D

 78 84  0  0  1  0  0  0  0  0999 V2000
   -0.2691   -8.9962    6.0741 C   0  0  0  0  0  0  0  0  0  0  0  0
    0.3259   -7.8281    6.7438 N   0  0  0  0  0  0  0  0  0  0  0  0
    0.2536   -7.7113    8.0991 C   0  0  0  0  0  0  0  0  0  0  0  0
   -0.1900   -8.5901    8.8263 O   0  0  0  0  0  0  0  0  0  0  0  0
    0.7397   -6.4397    8.7978 C   0  0  0  0  0  0  0  0  0  0  0  0
    0.9321   -5.2582    7.8587 C   0  0  0  0  0  0  0  0  0  0  0  0
    1.6545   -5.6733    6.5691 C   0  0  2  0  0  0  0  0  0  0  0  0
    3.0532   -6.2671    6.9029 C   0  0  0  0  0  0  0  0  0  0  0  0
    1.7804   -4.4317    5.6645 C   0  0  1  0  0  0  0  0  0  0  0  0
    2.5697   -3.2699    6.3473 C   0  0  0  0  0  0  0  0  0  0  0  0
    3.2685   -2.3716    5.3259 C   0  0  0  0  0  0  0  0  0  0  0  0
    4.3378   -3.1186    4.4794 C   0  0  1  0  0  0  0  0  0  0  0  0
    5.5450   -3.3808    5.4146 C   0  0  0  0  0  0  0  0  0  0  0  0
    3.7977   -4.5019    3.9511 C   0  0  2  0  0  0  0  0  0  0  0  0
    4.2324   -4.5749    2.4635 C   0  0  0  0  0  0  0  0  0  0  0  0
    5.2628   -3.4532    2.2430 C   0  0  0  0  0  0  0  0  0  0  0  0
    4.8878   -2.3252    3.2285 C   0  0  1  0  0  0  0  0  0  0  0  0
    3.9763   -1.2278    2.5574 C   0  0  2  0  0  0  0  0  0  0  0  0
    3.6963   -0.1560    3.4723 O   0  0  0  0  0  0  0  0  0  0  0  0
    2.3204    0.1078    3.5682 C   0  0  1  0  0  0  0  0  0  0  0  0
    2.0921    1.5501    3.5790 N   0  0  0  0  0  0  0  0  0  0  0  0
    3.0339    2.5620    3.6770 C   0  0  0  0  0  0  0  0  0  0  0  0
    2.5291    3.7656    3.7335 N   0  0  0  0  0  0  0  0  0  0  0  0
    1.1677    3.5508    3.6834 C   0  0  0  0  0  0  0  0  0  0  0  0
    0.0507    4.4052    3.7347 C   0  0  0  0  0  0  0  0  0  0  0  0
    0.1936    5.7258    3.8533 N   0  0  0  0  0  0  0  0  0  0  0  0
   -1.2083    3.8615    3.6952 N   0  0  0  0  0  0  0  0  0  0  0  0
   -1.3382    2.5316    3.6250 C   0  0  0  0  0  0  0  0  0  0  0  0
   -0.3688    1.6038    3.6044 N   0  0  0  0  0  0  0  0  0  0  0  0
    0.8787    2.1780    3.6060 C   0  0  0  0  0  0  0  0  0  0  0  0
    1.6822   -0.5543    2.3231 C   0  0  1  0  0  0  0  0  0  0  0  0
    1.7478    0.2930    1.2134 O   0  0  0  0  0  0  0  0  0  0  0  0
    2.5785   -1.7605    2.1266 C   0  0  1  0  0  0  0  0  0  0  0  0
    2.5007   -2.2954    0.7982 O   0  0  0  0  0  0  0  0  0  0  0  0
    2.2413   -4.7304    4.1975 C   0  0  1  0  0  0  0  0  0  0  0  0
    1.6352   -6.0130    3.5713 C   0  0  0  0  0  0  0  0  0  0  0  0
    1.3806   -7.1787    4.5187 C   0  0  0  0  0  0  0  0  0  0  0  0
    0.7416   -6.7147    5.8567 C   0  0  1  0  0  0  0  0  0  0  0  0
   -0.5840    6.3489    3.7252 H   0  0  0  0  0  0  0  0  0  0  0  0
   -0.6694   -9.7443    6.7529 H   0  0  0  0  0  0  0  0  0  0  0  0
    0.4672   -9.5211    5.4605 H   0  0  0  0  0  0  0  0  0  0  0  0
   -1.1012   -8.6899    5.4327 H   0  0  0  0  0  0  0  0  0  0  0  0
    0.0352   -6.1778    9.5881 H   0  0  0  0  0  0  0  0  0  0  0  0
    1.6773   -6.6782    9.2914 H   0  0  0  0  0  0  0  0  0  0  0  0
   -0.0439   -4.8470    7.6073 H   0  0  0  0  0  0  0  0  0  0  0  0
    1.4720   -4.4645    8.3920 H   0  0  0  0  0  0  0  0  0  0  0  0
    3.6459   -6.4821    6.0227 H   0  0  0  0  0  0  0  0  0  0  0  0
    2.9726   -7.2142    7.4311 H   0  0  0  0  0  0  0  0  0  0  0  0
    3.6436   -5.6094    7.5382 H   0  0  0  0  0  0  0  0  0  0  0  0
    0.7495   -4.0512    5.5176 H   0  0  0  0  0  0  0  0  0  0  0  0
    1.8406   -2.6133    6.8074 H   0  0  0  0  0  0  0  0  0  0  0  0
    3.2554   -3.5813    7.1574 H   0  0  0  0  0  0  0  0  0  0  0  0
    2.4158   -2.0591    4.7399 H   0  0  0  0  0  0  0  0  0  0  0  0
    3.7078   -1.4952    5.8023 H   0  0  0  0  0  0  0  0  0  0  0  0
    6.3534   -3.8999    4.8957 H   0  0  0  0  0  0  0  0  0  0  0  0
    5.2745   -4.0170    6.2648 H   0  0  0  0  0  0  0  0  0  0  0  0
    5.9411   -2.4386    5.8153 H   0  0  0  0  0  0  0  0  0  0  0  0
    4.3660   -5.2894    4.4395 H   0  0  0  0  0  0  0  0  0  0  0  0
    4.6451   -5.5554    2.2028 H   0  0  0  0  0  0  0  0  0  0  0  0
    3.3807   -4.4494    1.7987 H   0  0  0  0  0  0  0  0  0  0  0  0
    6.2494   -3.8510    2.4759 H   0  0  0  0  0  0  0  0  0  0  0  0
    5.3139   -3.1050    1.2053 H   0  0  0  0  0  0  0  0  0  0  0  0
    5.8170   -1.7983    3.4948 H   0  0  0  0  0  0  0  0  0  0  0  0
    4.4977   -0.7968    1.6974 H   0  0  0  0  0  0  0  0  0  0  0  0
    1.9115   -0.2222    4.5195 H   0  0  0  0  0  0  0  0  0  0  0  0
    4.0756    2.3388    3.7189 H   0  0  0  0  0  0  0  0  0  0  0  0
    1.1368    6.0685    3.7780 H   0  0  0  0  0  0  0  0  0  0  0  0
   -2.3499    2.1530    3.5793 H   0  0  0  0  0  0  0  0  0  0  0  0
    0.6869   -0.8857    2.5851 H   0  0  0  0  0  0  0  0  0  0  0  0
    1.2603   -0.1707    0.5276 H   0  0  0  0  0  0  0  0  0  0  0  0
    2.2720   -2.5107    2.7521 H   0  0  0  0  0  0  0  0  0  0  0  0
    2.0955   -1.6978    0.1648 H   0  0  0  0  0  0  0  0  0  0  0  0
    1.7020   -4.0221    3.6449 H   0  0  0  0  0  0  0  0  0  0  0  0
    0.6679   -5.7291    3.1280 H   0  0  0  0  0  0  0  0  0  0  0  0
    2.2345   -6.3470    2.7310 H   0  0  0  0  0  0  0  0  0  0  0  0
    0.7123   -7.8470    3.9779 H   0  0  0  0  0  0  0  0  0  0  0  0
    2.3103   -7.7376    4.6922 H   0  0  0  0  0  0  0  0  0  0  0  0
   -0.1874   -6.2040    5.5975 H   0  0  0  0  0  0  0  0  0  0  0  0
  1  2  1  0
  1 40  1  0
  1 41  1  0
  1 42  1  0
  2 38  1  0
  2  3  1  0
  3  4  2  0
  3  5  1  0
  5  6  1  0
  5 43  1  0
  5 44  1  0
  6  7  1  0
  6 45  1  0
  6 46  1  0
  7 38  1  0
  7  8  1  1
  7  9  1  0
  8 47  1  0
  8 48  1  0
  8 49  1  0
  9 35  1  0
  9 10  1  0
  9 50  1  6
 10 11  1  0
 10 51  1  0
 10 52  1  0
 11 12  1  0
 11 53  1  0
 11 54  1  0
 12 17  1  0
 12 13  1  1
 12 14  1  0
 13 55  1  0
 13 56  1  0
 13 57  1  0
 14 15  1  0
 14 35  1  0
 14 58  1  1
 15 16  1  0
 15 59  1  0
 15 60  1  0
 16 17  1  0
 16 61  1  0
 16 62  1  0
 17 18  1  0
 17 63  1  1
 18 33  1  0
 18 19  1  0
 18 64  1  6
 19 20  1  0
 20 31  1  0
 20 65  1  1
 20 21  1  0
 21 22  1  0
 21 30  1  0
 22 23  2  0
 22 66  1  0
 23 24  1  0
 24 25  1  0
 24 30  2  0
 25 27  2  0
 25 26  1  0
 26 67  1  0
 26 39  1  0
 27 28  1  0
 28 68  1  0
 28 29  2  0
 29 30  1  0
 31 32  1  0
 31 33  1  0
 31 69  1  1
 32 70  1  0
 33 34  1  0
 33 71  1  1
 34 72  1  0
 35 36  1  0
 35 73  1  6
 36 37  1  0
 36 74  1  0
 36 75  1  0
 37 38  1  0
 37 76  1  0
 37 77  1  0
 38 78  1  6
M  END
>  <i_m_ct_stereo_status>  (92) 
1

>  <s_m_source_file>  (92) 
/var/tmp/pbs.5076255.sched01/tmppm3sokcv/34yi_btuhz.sdf

>  <i_m_source_file_index>  (92) 
4

>  <i_lp_mmshare_version>  (92) 
48012

>  <i_f3d_flags>  (92) 
0

>  <s_epik_input>  (92) 
W0NIMl0xW0NIMl1DKD1PKU4oW0NIM10pW0NAQEhdMltDSDJdW0NIMl1bQ0BASF0oW0NASF0zW0NAQF0xMltDSDNdKVtDQEBIXTRbQ0BdKFtDSDNdKShbQ0gyXVtDSDJdMylbQ0BASF0oW0NIMl1bQ0gyXTQpW0NAQEhdNU9bQ0BIXShbQ0BASF0oW09IXSlbQ0BIXTVbT0hdKW4oW2NIXW42KWMoYzY3KW5bY0hdW25IXWNcNz1OL1tIXQ==

>  <s_epik_cmdline>  (92) 
J2VwaWtfcHl0aG9uJywgJy1waHQnLCAnMi4wJywgJy1waCcsICc3LjAnLCAnLXRuJywgJzgnLCAnLW1hJywgJzIwMCcsICctaW1hZScsICc8aW5maWxlLm1hZT4nLCAnLW9tYWUnLCAnPG91dGZpbGUubWFlPic=

>  <r_lp_tautomer_probability>  (92) 
1

>  <r_epik_Ionization_Penalty>  (92) 
0.000452869

>  <r_epik_Ionization_Penalty_Charging>  (92) 
0

>  <r_epik_Ionization_Penalty_Neutral>  (92) 
0.000452869

>  <r_epik_State_Penalty>  (92) 
-0

>  <r_epik_Charging_Adjusted_Penalty>  (92) 
0

>  <i_epik_Tot_Q>  (92) 
0

>  <i_epik_Tot_abs_Q>  (92) 
0

>  <s_epik_Chemistry_Notes>  (92) 
This compound contains an acetal/aminal-like group ( X-CH(R)-Y where X, Y are N, S, or O) that may be acid/base labile, releasing an aldehyde.

>  <s_lp_Force_Field>  (92) 
OPLS3e

>  <r_lp_Energy>  (92) 
76.4059

>  <b_lp_Chiralities_Consistent>  (92) 
1

>  <s_lp_Variant>  (92) 
26:0-1

>  <s_i_glide_gridfile>  (92) 
pfpi4k_grid

>  <i_i_glide_lignum>  (92) 
4

>  <i_i_glide_rotatable_bonds>  (92) 
4

>  <r_i_docking_score>  (92) 
-2.16643

>  <r_i_glide_ligand_efficiency>  (92) 
-0.0570113

>  <r_i_glide_ligand_efficiency_sa>  (92) 
-0.191671

>  <r_i_glide_ligand_efficiency_ln>  (92) 
-0.467146

>  <r_i_glide_gscore>  (92) 
-2.16643

>  <r_i_glide_lipo>  (92) 
-0.116673

>  <r_i_glide_hbond>  (92) 
-0.0322078

>  <r_i_glide_metal>  (92) 
-0

>  <r_i_glide_rewards>  (92) 
0

>  <r_i_glide_evdw>  (92) 
-20.5864

>  <r_i_glide_ecoul>  (92) 
-9.71265

>  <r_i_glide_erotb>  (92) 
0.149514

>  <r_i_glide_esite>  (92) 
-0.258273

>  <r_i_glide_emodel>  (92) 
-27.2238

>  <r_i_glide_energy>  (92) 
-30.299

>  <r_i_glide_einternal>  (92) 
5.26868

>  <r_i_glide_intrahb_reward>  (92) 
-0

>  <i_i_glide_confnum>  (92) 
5

>  <i_i_glide_posenum>  (92) 
6

>  <r_i_glide_eff_state_penalty>  (92) 
0

>  <ligand_id>  (92) 
26

>  <original_smiles>  (92) 
CN1C(=O)CCC2(C)C3CCC4(C)C(CCC4C4OC(n5cnc6c(=N)[nH]cnc65)C(O)C4O)C3CCC12

>  <smiles>  (92) 
[H]OC1([H])C([H])(n2c([H])nc3c(N([H])[H])nc([H])nc32)OC([H])(C2([H])C([H])([H])C([H])([H])C3([H])C4([H])C([H])([H])C([H])([H])C5([H])N(C([H])([H])[H])C(=O)C([H])([H])C([H])([H])C5(C([H])([H])[H])C4([H])C([H])([H])C([H])([H])C23C([H])([H])[H])C1([H])O[H]

$$$$
26:0:1
     RDKit          3D

 78 84  0  0  1  0  0  0  0  0999 V2000
    0.6277  -10.7271    3.6170 C   0  0  0  0  0  0  0  0  0  0  0  0
    2.0064  -10.2154    3.7179 N   0  0  0  0  0  0  0  0  0  0  0  0
    2.9818  -11.0230    4.2183 C   0  0  0  0  0  0  0  0  0  0  0  0
    2.8101  -12.2097    4.4809 O   0  0  0  0  0  0  0  0  0  0  0  0
    4.3892  -10.4722    4.4573 C   0  0  0  0  0  0  0  0  0  0  0  0
    4.4709   -8.9450    4.4382 C   0  0  0  0  0  0  0  0  0  0  0  0
    3.6748   -8.3344    3.2639 C   0  0  2  0  0  0  0  0  0  0  0  0
    4.2271   -8.8903    1.9161 C   0  0  0  0  0  0  0  0  0  0  0  0
    3.7622   -6.7711    3.3460 C   0  0  1  0  0  0  0  0  0  0  0  0
    5.2138   -6.2205    3.3172 C   0  0  0  0  0  0  0  0  0  0  0  0
    5.3082   -4.8198    2.7031 C   0  0  0  0  0  0  0  0  0  0  0  0
    4.8272   -4.7988    1.2253 C   0  0  1  0  0  0  0  0  0  0  0  0
    5.9022   -5.5010    0.3554 C   0  0  0  0  0  0  0  0  0  0  0  0
    3.4652   -5.5493    1.0436 C   0  0  2  0  0  0  0  0  0  0  0  0
    2.5856   -4.6067    0.1992 C   0  0  0  0  0  0  0  0  0  0  0  0
    3.5135   -3.5662   -0.4156 C   0  0  0  0  0  0  0  0  0  0  0  0
    4.6301   -3.3672    0.6235 C   0  0  1  0  0  0  0  0  0  0  0  0
    4.3181   -2.2050    1.6003 C   0  0  2  0  0  0  0  0  0  0  0  0
    3.0170   -2.3485    2.1724 O   0  0  0  0  0  0  0  0  0  0  0  0
    2.3179   -1.1436    2.0569 C   0  0  1  0  0  0  0  0  0  0  0  0
    1.5661   -0.9076    3.3203 N   0  0  0  0  0  0  0  0  0  0  0  0
    1.6927   -1.5653    4.5249 C   0  0  0  0  0  0  0  0  0  0  0  0
    0.8874   -1.1468    5.4701 N   0  0  0  0  0  0  0  0  0  0  0  0
    0.1596   -0.1306    4.8567 C   0  0  0  0  0  0  0  0  0  0  0  0
   -0.8809    0.7257    5.2864 C   0  0  0  0  0  0  0  0  0  0  0  0
   -1.3940    0.6558    6.5144 N   0  0  0  0  0  0  0  0  0  0  0  0
   -1.3790    1.6427    4.4234 N   0  0  0  0  0  0  0  0  0  0  0  0
   -0.8785    1.6955    3.1807 C   0  0  0  0  0  0  0  0  0  0  0  0
    0.0780    0.9404    2.6270 N   0  0  0  0  0  0  0  0  0  0  0  0
    0.5829    0.0353    3.5112 C   0  0  0  0  0  0  0  0  0  0  0  0
    3.3625   -0.0481    1.7919 C   0  0  1  0  0  0  0  0  0  0  0  0
    3.9596    0.4451    2.9801 O   0  0  0  0  0  0  0  0  0  0  0  0
    4.3486   -0.8217    0.9372 C   0  0  1  0  0  0  0  0  0  0  0  0
    5.6536   -0.2731    0.9096 O   0  0  0  0  0  0  0  0  0  0  0  0
    2.8092   -5.9919    2.3863 C   0  0  1  0  0  0  0  0  0  0  0  0
    1.3952   -6.6241    2.2905 C   0  0  0  0  0  0  0  0  0  0  0  0
    1.3076   -8.1625    2.3606 C   0  0  0  0  0  0  0  0  0  0  0  0
    2.1924   -8.7552    3.4855 C   0  0  1  0  0  0  0  0  0  0  0  0
   -2.0628    1.3493    6.8078 H   0  0  0  0  0  0  0  0  0  0  0  0
    0.5149  -11.7743    3.9005 H   0  0  0  0  0  0  0  0  0  0  0  0
    0.2534  -10.6530    2.5970 H   0  0  0  0  0  0  0  0  0  0  0  0
   -0.0349  -10.1648    4.2758 H   0  0  0  0  0  0  0  0  0  0  0  0
    4.7607  -10.8549    5.4076 H   0  0  0  0  0  0  0  0  0  0  0  0
    5.0357  -10.8938    3.6880 H   0  0  0  0  0  0  0  0  0  0  0  0
    4.0708   -8.5686    5.3821 H   0  0  0  0  0  0  0  0  0  0  0  0
    5.5203   -8.6513    4.4078 H   0  0  0  0  0  0  0  0  0  0  0  0
    3.7668   -8.4329    1.0447 H   0  0  0  0  0  0  0  0  0  0  0  0
    4.0399   -9.9574    1.8027 H   0  0  0  0  0  0  0  0  0  0  0  0
    5.3042   -8.7591    1.8244 H   0  0  0  0  0  0  0  0  0  0  0  0
    3.3907   -6.5145    4.3416 H   0  0  0  0  0  0  0  0  0  0  0  0
    5.5928   -6.1770    4.3371 H   0  0  0  0  0  0  0  0  0  0  0  0
    5.8970   -6.8900    2.8012 H   0  0  0  0  0  0  0  0  0  0  0  0
    4.7211   -4.1558    3.3355 H   0  0  0  0  0  0  0  0  0  0  0  0
    6.3322   -4.4583    2.7704 H   0  0  0  0  0  0  0  0  0  0  0  0
    5.6395   -5.4516   -0.7010 H   0  0  0  0  0  0  0  0  0  0  0  0
    6.0148   -6.5572    0.5993 H   0  0  0  0  0  0  0  0  0  0  0  0
    6.8828   -5.0335    0.4657 H   0  0  0  0  0  0  0  0  0  0  0  0
    3.6335   -6.4277    0.4229 H   0  0  0  0  0  0  0  0  0  0  0  0
    2.0309   -5.1358   -0.5751 H   0  0  0  0  0  0  0  0  0  0  0  0
    1.8556   -4.0970    0.8277 H   0  0  0  0  0  0  0  0  0  0  0  0
    3.9341   -3.9461   -1.3480 H   0  0  0  0  0  0  0  0  0  0  0  0
    2.9622   -2.6624   -0.6634 H   0  0  0  0  0  0  0  0  0  0  0  0
    5.5492   -3.0775    0.1075 H   0  0  0  0  0  0  0  0  0  0  0  0
    5.0376   -2.1816    2.4197 H   0  0  0  0  0  0  0  0  0  0  0  0
    1.5574   -1.2309    1.2816 H   0  0  0  0  0  0  0  0  0  0  0  0
    2.4132   -2.3597    4.6754 H   0  0  0  0  0  0  0  0  0  0  0  0
   -0.9065    0.0620    7.1685 H   0  0  0  0  0  0  0  0  0  0  0  0
   -1.3202    2.4432    2.5312 H   0  0  0  0  0  0  0  0  0  0  0  0
    2.9083    0.7712    1.2422 H   0  0  0  0  0  0  0  0  0  0  0  0
    4.2826    1.3189    2.8074 H   0  0  0  0  0  0  0  0  0  0  0  0
    3.9770   -0.8574   -0.0871 H   0  0  0  0  0  0  0  0  0  0  0  0
    6.0116   -0.2951    1.7863 H   0  0  0  0  0  0  0  0  0  0  0  0
    2.6240   -5.0410    2.8886 H   0  0  0  0  0  0  0  0  0  0  0  0
    0.8021   -6.2239    3.1162 H   0  0  0  0  0  0  0  0  0  0  0  0
    0.8887   -6.2905    1.3870 H   0  0  0  0  0  0  0  0  0  0  0  0
    0.2564   -8.3928    2.5379 H   0  0  0  0  0  0  0  0  0  0  0  0
    1.5413   -8.6115    1.3952 H   0  0  0  0  0  0  0  0  0  0  0  0
    1.8540   -8.2980    4.4156 H   0  0  0  0  0  0  0  0  0  0  0  0
  1  2  1  0
  1 40  1  0
  1 41  1  0
  1 42  1  0
  2 38  1  0
  2  3  1  0
  3  4  2  0
  3  5  1  0
  5  6  1  0
  5 43  1  0
  5 44  1  0
  6  7  1  0
  6 45  1  0
  6 46  1  0
  7 38  1  0
  7  8  1  6
  7  9  1  0
  8 47  1  0
  8 48  1  0
  8 49  1  0
  9 35  1  0
  9 10  1  0
  9 50  1  1
 10 11  1  0
 10 51  1  0
 10 52  1  0
 11 12  1  0
 11 53  1  0
 11 54  1  0
 12 17  1  0
 12 13  1  6
 12 14  1  0
 13 55  1  0
 13 56  1  0
 13 57  1  0
 14 15  1  0
 14 35  1  0
 14 58  1  6
 15 16  1  0
 15 59  1  0
 15 60  1  0
 16 17  1  0
 16 61  1  0
 16 62  1  0
 17 18  1  0
 17 63  1  6
 18 33  1  0
 18 19  1  0
 18 64  1  1
 19 20  1  0
 20 31  1  0
 20 65  1  6
 20 21  1  0
 21 22  1  0
 21 30  1  0
 22 23  2  0
 22 66  1  0
 23 24  1  0
 24 25  1  0
 24 30  2  0
 25 27  2  0
 25 26  1  0
 26 67  1  0
 26 39  1  0
 27 28  1  0
 28 68  1  0
 28 29  2  0
 29 30  1  0
 31 32  1  0
 31 33  1  0
 31 69  1  6
 32 70  1  0
 33 34  1  0
 33 71  1  6
 34 72  1  0
 35 36  1  0
 35 73  1  1
 36 37  1  0
 36 74  1  0
 36 75  1  0
 37 38  1  0
 37 76  1  0
 37 77  1  0
 38 78  1  1
M  END
>  <i_m_ct_stereo_status>  (93) 
1

>  <s_m_source_file>  (93) 
/var/tmp/pbs.5076255.sched01/tmppm3sokcv/34yi_btuhz.sdf

>  <i_m_source_file_index>  (93) 
4

>  <i_lp_mmshare_version>  (93) 
48012

>  <i_f3d_flags>  (93) 
0

>  <s_epik_input>  (93) 
W0NIMl0xW0NIMl1DKD1PKU4oW0NIM10pW0NAQEhdMltDSDJdW0NIMl1bQ0BASF0oW0NASF0zW0NAQF0xMltDSDNdKVtDQEBIXTRbQ0BdKFtDSDNdKShbQ0gyXVtDSDJdMylbQ0BASF0oW0NIMl1bQ0gyXTQpW0NAQEhdNU9bQ0BIXShbQ0BASF0oW09IXSlbQ0BIXTVbT0hdKW4oW2NIXW42KWMoYzY3KW5bY0hdW25IXWNcNz1OL1tIXQ==

>  <s_epik_cmdline>  (93) 
J2VwaWtfcHl0aG9uJywgJy1waHQnLCAnMi4wJywgJy1waCcsICc3LjAnLCAnLXRuJywgJzgnLCAnLW1hJywgJzIwMCcsICctaW1hZScsICc8aW5maWxlLm1hZT4nLCAnLW9tYWUnLCAnPG91dGZpbGUubWFlPic=

>  <r_lp_tautomer_probability>  (93) 
1

>  <r_epik_Ionization_Penalty>  (93) 
0.000452869

>  <r_epik_Ionization_Penalty_Charging>  (93) 
0

>  <r_epik_Ionization_Penalty_Neutral>  (93) 
0.000452869

>  <r_epik_State_Penalty>  (93) 
-0

>  <r_epik_Charging_Adjusted_Penalty>  (93) 
0

>  <i_epik_Tot_Q>  (93) 
0

>  <i_epik_Tot_abs_Q>  (93) 
0

>  <s_epik_Chemistry_Notes>  (93) 
This compound contains an acetal/aminal-like group ( X-CH(R)-Y where X, Y are N, S, or O) that may be acid/base labile, releasing an aldehyde.

>  <s_lp_Force_Field>  (93) 
OPLS3e

>  <r_lp_Energy>  (93) 
76.4059

>  <b_lp_Chiralities_Consistent>  (93) 
1

>  <s_lp_Variant>  (93) 
26:0-1

>  <s_i_glide_gridfile>  (93) 
pfpi4k_grid

>  <i_i_glide_lignum>  (93) 
4

>  <i_i_glide_rotatable_bonds>  (93) 
4

>  <r_i_docking_score>  (93) 
-2.1071

>  <r_i_glide_ligand_efficiency>  (93) 
-0.0554499

>  <r_i_glide_ligand_efficiency_sa>  (93) 
-0.186421

>  <r_i_glide_ligand_efficiency_ln>  (93) 
-0.454352

>  <r_i_glide_gscore>  (93) 
-2.1071

>  <r_i_glide_lipo>  (93) 
-0.294961

>  <r_i_glide_hbond>  (93) 
0

>  <r_i_glide_metal>  (93) 
-0

>  <r_i_glide_rewards>  (93) 
-0.00551021

>  <r_i_glide_evdw>  (93) 
-32.4071

>  <r_i_glide_ecoul>  (93) 
-0.931154

>  <r_i_glide_erotb>  (93) 
0.149514

>  <r_i_glide_esite>  (93) 
-0.196112

>  <r_i_glide_emodel>  (93) 
-36.1942

>  <r_i_glide_energy>  (93) 
-33.3382

>  <r_i_glide_einternal>  (93) 
1.05138

>  <r_i_glide_intrahb_reward>  (93) 
-0

>  <i_i_glide_confnum>  (93) 
4

>  <i_i_glide_posenum>  (93) 
2

>  <r_i_glide_eff_state_penalty>  (93) 
0

>  <ligand_id>  (93) 
26

>  <original_smiles>  (93) 
CN1C(=O)CCC2(C)C3CCC4(C)C(CCC4C4OC(n5cnc6c(=N)[nH]cnc65)C(O)C4O)C3CCC12

>  <smiles>  (93) 
[H]OC1([H])C([H])(n2c([H])nc3c(N([H])[H])nc([H])nc32)OC([H])(C2([H])C([H])([H])C([H])([H])C3([H])C4([H])C([H])([H])C([H])([H])C5([H])N(C([H])([H])[H])C(=O)C([H])([H])C([H])([H])C5(C([H])([H])[H])C4([H])C([H])([H])C([H])([H])C23C([H])([H])[H])C1([H])O[H]

$$$$
26:0:2
     RDKit          3D

 78 84  0  0  1  0  0  0  0  0999 V2000
    0.5017  -10.4537    2.4337 C   0  0  0  0  0  0  0  0  0  0  0  0
    0.9908   -9.6450    3.5481 N   0  0  0  0  0  0  0  0  0  0  0  0
    0.9429  -10.1562    4.8018 C   0  0  0  0  0  0  0  0  0  0  0  0
    0.6349  -11.3148    5.0094 O   0  0  0  0  0  0  0  0  0  0  0  0
    1.2995   -9.2823    6.0058 C   0  0  0  0  0  0  0  0  0  0  0  0
    1.3687   -7.7879    5.6916 C   0  0  0  0  0  0  0  0  0  0  0  0
    2.1136   -7.5330    4.3581 C   0  0  2  0  0  0  0  0  0  0  0  0
    3.5625   -8.0660    4.4516 C   0  0  0  0  0  0  0  0  0  0  0  0
    2.0845   -6.0141    4.0876 C   0  0  1  0  0  0  0  0  0  0  0  0
    2.7923   -5.2086    5.2241 C   0  0  0  0  0  0  0  0  0  0  0  0
    3.3458   -3.9098    4.6779 C   0  0  0  0  0  0  0  0  0  0  0  0
    4.4956   -4.0831    3.6539 C   0  0  1  0  0  0  0  0  0  0  0  0
    5.7413   -4.5967    4.4306 C   0  0  0  0  0  0  0  0  0  0  0  0
    4.0855   -5.1439    2.5725 C   0  0  2  0  0  0  0  0  0  0  0  0
    4.5091   -4.5187    1.2157 C   0  0  0  0  0  0  0  0  0  0  0  0
    5.4060   -3.3063    1.5438 C   0  0  0  0  0  0  0  0  0  0  0  0
    4.9270   -2.7506    2.9104 C   0  0  1  0  0  0  0  0  0  0  0  0
    3.8719   -1.5847    2.7425 C   0  0  2  0  0  0  0  0  0  0  0  0
    3.4374   -1.0827    4.0210 O   0  0  0  0  0  0  0  0  0  0  0  0
    2.0499   -1.0244    4.0671 C   0  0  1  0  0  0  0  0  0  0  0  0
    1.6643    0.2183    4.7642 N   0  0  0  0  0  0  0  0  0  0  0  0
    2.4461    1.2898    5.1406 C   0  0  0  0  0  0  0  0  0  0  0  0
    1.8092    2.2225    5.7801 N   0  0  0  0  0  0  0  0  0  0  0  0
    0.4812    1.7425    5.8466 C   0  0  0  0  0  0  0  0  0  0  0  0
   -0.7255    2.2243    6.3918 C   0  0  0  0  0  0  0  0  0  0  0  0
   -0.7701    3.4027    6.9778 N   0  0  0  0  0  0  0  0  0  0  0  0
   -1.8243    1.4722    6.3073 N   0  0  0  0  0  0  0  0  0  0  0  0
   -1.7817    0.2832    5.6863 C   0  0  0  0  0  0  0  0  0  0  0  0
   -0.7071   -0.2988    5.1310 N   0  0  0  0  0  0  0  0  0  0  0  0
    0.4031    0.4785    5.2182 C   0  0  0  0  0  0  0  0  0  0  0  0
    1.5135   -1.1047    2.6520 C   0  0  1  0  0  0  0  0  0  0  0  0
    1.4830    0.1812    2.0354 O   0  0  0  0  0  0  0  0  0  0  0  0
    2.5792   -1.9503    1.9812 C   0  0  1  0  0  0  0  0  0  0  0  0
    2.6530   -1.7597    0.5680 O   0  0  0  0  0  0  0  0  0  0  0  0
    2.5817   -5.6090    2.6508 C   0  0  1  0  0  0  0  0  0  0  0  0
    2.0746   -6.5343    1.5102 C   0  0  0  0  0  0  0  0  0  0  0  0
    1.9818   -8.0245    1.8527 C   0  0  0  0  0  0  0  0  0  0  0  0
    1.2998   -8.2312    3.2366 C   0  0  1  0  0  0  0  0  0  0  0  0
   -1.6403    3.7338    7.3907 H   0  0  0  0  0  0  0  0  0  0  0  0
    0.2320  -11.4823    2.6806 H   0  0  0  0  0  0  0  0  0  0  0  0
    1.2929  -10.5092    1.6977 H   0  0  0  0  0  0  0  0  0  0  0  0
   -0.3847   -9.9954    1.9966 H   0  0  0  0  0  0  0  0  0  0  0  0
    0.5797   -9.4625    6.8026 H   0  0  0  0  0  0  0  0  0  0  0  0
    2.2674   -9.6195    6.3805 H   0  0  0  0  0  0  0  0  0  0  0  0
    0.3474   -7.4089    5.5984 H   0  0  0  0  0  0  0  0  0  0  0  0
    1.8283   -7.2574    6.5173 H   0  0  0  0  0  0  0  0  0  0  0  0
    4.1652   -7.8132    3.5782 H   0  0  0  0  0  0  0  0  0  0  0  0
    3.5913   -9.1505    4.5139 H   0  0  0  0  0  0  0  0  0  0  0  0
    4.0919   -7.6911    5.3243 H   0  0  0  0  0  0  0  0  0  0  0  0
    1.0360   -5.7220    4.1020 H   0  0  0  0  0  0  0  0  0  0  0  0
    1.9929   -4.8734    5.8928 H   0  0  0  0  0  0  0  0  0  0  0  0
    3.4801   -5.7737    5.8563 H   0  0  0  0  0  0  0  0  0  0  0  0
    2.4840   -3.4801    4.2246 H   0  0  0  0  0  0  0  0  0  0  0  0
    3.6739   -3.2469    5.5032 H   0  0  0  0  0  0  0  0  0  0  0  0
    6.5970   -4.7478    3.7656 H   0  0  0  0  0  0  0  0  0  0  0  0
    5.5460   -5.5578    4.9230 H   0  0  0  0  0  0  0  0  0  0  0  0
    6.0289   -3.8812    5.2131 H   0  0  0  0  0  0  0  0  0  0  0  0
    4.7517   -6.0063    2.6900 H   0  0  0  0  0  0  0  0  0  0  0  0
    5.0211   -5.2377    0.5741 H   0  0  0  0  0  0  0  0  0  0  0  0
    3.6313   -4.1958    0.6455 H   0  0  0  0  0  0  0  0  0  0  0  0
    6.4458   -3.6603    1.6222 H   0  0  0  0  0  0  0  0  0  0  0  0
    5.4130   -2.5400    0.7733 H   0  0  0  0  0  0  0  0  0  0  0  0
    5.8039   -2.3253    3.4035 H   0  0  0  0  0  0  0  0  0  0  0  0
    4.3807   -0.7455    2.2344 H   0  0  0  0  0  0  0  0  0  0  0  0
    1.6491   -1.8108    4.7380 H   0  0  0  0  0  0  0  0  0  0  0  0
    3.5113    1.3182    4.9424 H   0  0  0  0  0  0  0  0  0  0  0  0
    0.0957    3.9261    7.0442 H   0  0  0  0  0  0  0  0  0  0  0  0
   -2.7114   -0.2575    5.6036 H   0  0  0  0  0  0  0  0  0  0  0  0
    0.5631   -1.6188    2.6298 H   0  0  0  0  0  0  0  0  0  0  0  0
    2.3583    0.4643    1.9768 H   0  0  0  0  0  0  0  0  0  0  0  0
    2.3171   -2.9708    2.1667 H   0  0  0  0  0  0  0  0  0  0  0  0
    1.8411   -1.3950    0.1963 H   0  0  0  0  0  0  0  0  0  0  0  0
    1.9551   -4.7522    2.4450 H   0  0  0  0  0  0  0  0  0  0  0  0
    1.0933   -6.2033    1.1968 H   0  0  0  0  0  0  0  0  0  0  0  0
    2.7090   -6.4196    0.6308 H   0  0  0  0  0  0  0  0  0  0  0  0
    1.3798   -8.4508    1.0453 H   0  0  0  0  0  0  0  0  0  0  0  0
    2.9553   -8.4972    1.7962 H   0  0  0  0  0  0  0  0  0  0  0  0
    0.3172   -7.7628    3.1875 H   0  0  0  0  0  0  0  0  0  0  0  0
  1  2  1  0
  1 40  1  0
  1 41  1  0
  1 42  1  0
  2 38  1  0
  2  3  1  0
  3  4  2  0
  3  5  1  0
  5  6  1  0
  5 43  1  0
  5 44  1  0
  6  7  1  0
  6 45  1  0
  6 46  1  0
  7 38  1  0
  7  8  1  1
  7  9  1  0
  8 47  1  0
  8 48  1  0
  8 49  1  0
  9 35  1  0
  9 10  1  0
  9 50  1  6
 10 11  1  0
 10 51  1  0
 10 52  1  0
 11 12  1  0
 11 53  1  0
 11 54  1  0
 12 17  1  0
 12 13  1  1
 12 14  1  0
 13 55  1  0
 13 56  1  0
 13 57  1  0
 14 15  1  0
 14 35  1  0
 14 58  1  1
 15 16  1  0
 15 59  1  0
 15 60  1  0
 16 17  1  0
 16 61  1  0
 16 62  1  0
 17 18  1  0
 17 63  1  1
 18 33  1  0
 18 19  1  0
 18 64  1  6
 19 20  1  0
 20 31  1  0
 20 65  1  1
 20 21  1  0
 21 22  1  0
 21 30  1  0
 22 23  2  0
 22 66  1  0
 23 24  1  0
 24 25  1  0
 24 30  2  0
 25 27  2  0
 25 26  1  0
 26 67  1  0
 26 39  1  0
 27 28  1  0
 28 68  1  0
 28 29  2  0
 29 30  1  0
 31 32  1  0
 31 33  1  0
 31 69  1  1
 32 70  1  0
 33 34  1  0
 33 71  1  6
 34 72  1  0
 35 36  1  0
 35 73  1  6
 36 37  1  0
 36 74  1  0
 36 75  1  0
 37 38  1  0
 37 76  1  0
 37 77  1  0
 38 78  1  6
M  END
>  <i_m_ct_stereo_status>  (94) 
1

>  <s_m_source_file>  (94) 
/var/tmp/pbs.5076255.sched01/tmppm3sokcv/34yi_btuhz.sdf

>  <i_m_source_file_index>  (94) 
4

>  <i_lp_mmshare_version>  (94) 
48012

>  <i_f3d_flags>  (94) 
0

>  <s_epik_input>  (94) 
W0NIMl0xW0NIMl1DKD1PKU4oW0NIM10pW0NAQEhdMltDSDJdW0NIMl1bQ0BASF0oW0NASF0zW0NAQF0xMltDSDNdKVtDQEBIXTRbQ0BdKFtDSDNdKShbQ0gyXVtDSDJdMylbQ0BASF0oW0NIMl1bQ0gyXTQpW0NAQEhdNU9bQ0BIXShbQ0BASF0oW09IXSlbQ0BIXTVbT0hdKW4oW2NIXW42KWMoYzY3KW5bY0hdW25IXWNcNz1OL1tIXQ==

>  <s_epik_cmdline>  (94) 
J2VwaWtfcHl0aG9uJywgJy1waHQnLCAnMi4wJywgJy1waCcsICc3LjAnLCAnLXRuJywgJzgnLCAnLW1hJywgJzIwMCcsICctaW1hZScsICc8aW5maWxlLm1hZT4nLCAnLW9tYWUnLCAnPG91dGZpbGUubWFlPic=

>  <r_lp_tautomer_probability>  (94) 
1

>  <r_epik_Ionization_Penalty>  (94) 
0.000452869

>  <r_epik_Ionization_Penalty_Charging>  (94) 
0

>  <r_epik_Ionization_Penalty_Neutral>  (94) 
0.000452869

>  <r_epik_State_Penalty>  (94) 
-0

>  <r_epik_Charging_Adjusted_Penalty>  (94) 
0

>  <i_epik_Tot_Q>  (94) 
0

>  <i_epik_Tot_abs_Q>  (94) 
0

>  <s_epik_Chemistry_Notes>  (94) 
This compound contains an acetal/aminal-like group ( X-CH(R)-Y where X, Y are N, S, or O) that may be acid/base labile, releasing an aldehyde.

>  <s_lp_Force_Field>  (94) 
OPLS3e

>  <r_lp_Energy>  (94) 
76.4059

>  <b_lp_Chiralities_Consistent>  (94) 
1

>  <s_lp_Variant>  (94) 
26:0-1

>  <s_i_glide_gridfile>  (94) 
pfpi4k_grid

>  <i_i_glide_lignum>  (94) 
4

>  <i_i_glide_rotatable_bonds>  (94) 
4

>  <r_i_docking_score>  (94) 
-2.07903

>  <r_i_glide_ligand_efficiency>  (94) 
-0.0547113

>  <r_i_glide_ligand_efficiency_sa>  (94) 
-0.183938

>  <r_i_glide_ligand_efficiency_ln>  (94) 
-0.4483

>  <r_i_glide_gscore>  (94) 
-2.07903

>  <r_i_glide_lipo>  (94) 
-0.344777

>  <r_i_glide_hbond>  (94) 
0

>  <r_i_glide_metal>  (94) 
-0

>  <r_i_glide_rewards>  (94) 
0

>  <r_i_glide_evdw>  (94) 
-21.395

>  <r_i_glide_ecoul>  (94) 
-4.53639

>  <r_i_glide_erotb>  (94) 
0.149514

>  <r_i_glide_esite>  (94) 
-0.133557

>  <r_i_glide_emodel>  (94) 
-23.9657

>  <r_i_glide_energy>  (94) 
-25.9314

>  <r_i_glide_einternal>  (94) 
5.19511

>  <r_i_glide_intrahb_reward>  (94) 
-0

>  <i_i_glide_confnum>  (94) 
5

>  <i_i_glide_posenum>  (94) 
14

>  <r_i_glide_eff_state_penalty>  (94) 
0

>  <ligand_id>  (94) 
26

>  <original_smiles>  (94) 
CN1C(=O)CCC2(C)C3CCC4(C)C(CCC4C4OC(n5cnc6c(=N)[nH]cnc65)C(O)C4O)C3CCC12

>  <smiles>  (94) 
[H]OC1([H])C([H])(n2c([H])nc3c(N([H])[H])nc([H])nc32)OC([H])(C2([H])C([H])([H])C([H])([H])C3([H])C4([H])C([H])([H])C([H])([H])C5([H])N(C([H])([H])[H])C(=O)C([H])([H])C([H])([H])C5(C([H])([H])[H])C4([H])C([H])([H])C([H])([H])C23C([H])([H])[H])C1([H])O[H]

$$$$
27:0:0
     RDKit          3D

 81 85  0  0  1  0  0  0  0  0999 V2000
    0.4658   -8.8808    6.0755 C   0  0  0  0  0  0  0  0  0  0  0  0
    0.5354   -9.6371    4.7355 C   0  0  2  0  0  0  0  0  0  0  0  0
    1.2673  -10.9738    4.8391 C   0  0  0  0  0  0  0  0  0  0  0  0
    2.7484  -10.7294    5.1435 C   0  0  0  0  0  0  0  0  0  0  0  0
    3.4574   -9.8430    4.0875 C   0  0  2  0  0  0  0  0  0  0  0  0
    3.7370  -10.7210    2.8555 C   0  0  0  0  0  0  0  0  0  0  0  0
    4.8040   -9.4121    4.6979 C   0  0  0  0  0  0  0  0  0  0  0  0
    5.5468   -8.4210    3.8058 C   0  0  0  0  0  0  0  0  0  0  0  0
    4.7443   -7.1165    3.5097 C   0  0  2  0  0  0  0  0  0  0  0  0
    4.9304   -6.2347    4.7797 C   0  0  0  0  0  0  0  0  0  0  0  0
    3.2209   -7.3853    3.4233 C   0  0  0  0  0  0  0  0  0  0  0  0
    2.6485   -8.5881    3.6706 C   0  0  0  0  0  0  0  0  0  0  0  0
    1.1190   -8.7760    3.6134 C   0  0  1  0  0  0  0  0  0  0  0  0
    0.6766   -9.2650    2.2384 C   0  0  0  0  0  0  0  0  0  0  0  0
    2.4054   -6.1343    3.0520 C   0  0  0  0  0  0  0  0  0  0  0  0
    2.9967   -5.3283    1.8989 C   0  0  0  0  0  0  0  0  0  0  0  0
    2.2569   -4.9149    1.0144 O   0  0  0  0  0  0  0  0  0  0  0  0
    4.5178   -5.0460    1.9433 C   0  0  2  0  0  0  0  0  0  0  0  0
    5.1043   -3.9327    0.9485 C   0  0  2  0  0  0  0  0  0  0  0  0
    4.4604   -2.5968    1.4331 C   0  0  0  0  0  0  0  0  0  0  0  0
    4.7554   -4.1469   -0.5705 C   0  0  0  0  0  0  0  0  0  0  0  0
    5.4539   -3.2172   -1.5863 C   0  0  1  0  0  0  0  0  0  0  0  0
    4.8046   -1.9713   -1.7087 O   0  0  0  0  0  0  0  0  0  0  0  0
    6.9563   -3.0701   -1.2726 C   0  0  1  0  0  0  0  0  0  0  0  0
    7.6215   -2.2561   -2.1662 O   0  0  0  0  0  0  0  0  0  0  0  0
    7.4128   -2.8264    0.1621 C   0  0  0  0  0  0  0  0  0  0  0  0
    8.9613   -3.0307    0.2237 C   0  0  0  0  0  0  0  0  0  0  0  0
    7.1880   -1.3465    0.5295 C   0  0  0  0  0  0  0  0  0  0  0  0
    6.6697   -3.8400    1.1018 C   0  0  2  0  0  0  0  0  0  0  0  0
    7.3052   -5.2556    1.1046 C   0  0  0  0  0  0  0  0  0  0  0  0
    6.7749   -6.1205    2.2492 C   0  0  0  0  0  0  0  0  0  0  0  0
    5.2592   -6.4140    2.1660 C   0  0  1  0  0  0  0  0  0  0  0  0
    5.0070   -7.3809    0.9679 C   0  0  0  0  0  0  0  0  0  0  0  0
    1.4406   -8.5065    6.3857 H   0  0  0  0  0  0  0  0  0  0  0  0
    0.0799   -9.5211    6.8689 H   0  0  0  0  0  0  0  0  0  0  0  0
   -0.1999   -8.0203    5.9967 H   0  0  0  0  0  0  0  0  0  0  0  0
   -0.5012   -9.8415    4.4661 H   0  0  0  0  0  0  0  0  0  0  0  0
    0.7982  -11.5770    5.6097 H   0  0  0  0  0  0  0  0  0  0  0  0
    1.1530  -11.5593    3.9263 H   0  0  0  0  0  0  0  0  0  0  0  0
    2.8360  -10.2807    6.1314 H   0  0  0  0  0  0  0  0  0  0  0  0
    3.2591  -11.6893    5.2309 H   0  0  0  0  0  0  0  0  0  0  0  0
    4.5203  -11.4584    3.0413 H   0  0  0  0  0  0  0  0  0  0  0  0
    4.0479  -10.1251    1.9963 H   0  0  0  0  0  0  0  0  0  0  0  0
    2.8645  -11.2864    2.5319 H   0  0  0  0  0  0  0  0  0  0  0  0
    4.6402   -8.9695    5.6781 H   0  0  0  0  0  0  0  0  0  0  0  0
    5.4289  -10.2873    4.8729 H   0  0  0  0  0  0  0  0  0  0  0  0
    6.4992   -8.1734    4.2776 H   0  0  0  0  0  0  0  0  0  0  0  0
    5.8307   -8.9634    2.9108 H   0  0  0  0  0  0  0  0  0  0  0  0
    5.9770   -6.0266    5.0048 H   0  0  0  0  0  0  0  0  0  0  0  0
    4.5272   -6.7422    5.6571 H   0  0  0  0  0  0  0  0  0  0  0  0
    4.4034   -5.2825    4.7446 H   0  0  0  0  0  0  0  0  0  0  0  0
    0.6171   -7.8263    3.7528 H   0  0  0  0  0  0  0  0  0  0  0  0
    1.0444   -8.6044    1.4509 H   0  0  0  0  0  0  0  0  0  0  0  0
   -0.4136   -9.3003    2.1532 H   0  0  0  0  0  0  0  0  0  0  0  0
    1.0319  -10.2689    2.0071 H   0  0  0  0  0  0  0  0  0  0  0  0
    1.3986   -6.3808    2.7206 H   0  0  0  0  0  0  0  0  0  0  0  0
    2.3126   -5.4886    3.9233 H   0  0  0  0  0  0  0  0  0  0  0  0
    4.6361   -4.5332    2.8893 H   0  0  0  0  0  0  0  0  0  0  0  0
    4.6106   -1.7542    0.7735 H   0  0  0  0  0  0  0  0  0  0  0  0
    4.8529   -2.2935    2.4050 H   0  0  0  0  0  0  0  0  0  0  0  0
    3.3794   -2.6599    1.5354 H   0  0  0  0  0  0  0  0  0  0  0  0
    5.0648   -5.1416   -0.8599 H   0  0  0  0  0  0  0  0  0  0  0  0
    3.6807   -4.1032   -0.7587 H   0  0  0  0  0  0  0  0  0  0  0  0
    5.3634   -3.6825   -2.5711 H   0  0  0  0  0  0  0  0  0  0  0  0
    4.6488   -1.6393   -0.8322 H   0  0  0  0  0  0  0  0  0  0  0  0
    7.4373   -3.9814   -1.4919 H   0  0  0  0  0  0  0  0  0  0  0  0
    7.8866   -2.7365   -2.9487 H   0  0  0  0  0  0  0  0  0  0  0  0
    9.3348   -3.0364    1.2470 H   0  0  0  0  0  0  0  0  0  0  0  0
    9.4994   -2.2507   -0.3155 H   0  0  0  0  0  0  0  0  0  0  0  0
    9.2840   -3.9580   -0.2476 H   0  0  0  0  0  0  0  0  0  0  0  0
    7.0257   -1.2163    1.5991 H   0  0  0  0  0  0  0  0  0  0  0  0
    6.3516   -0.8980   -0.0046 H   0  0  0  0  0  0  0  0  0  0  0  0
    8.0496   -0.7285    0.2611 H   0  0  0  0  0  0  0  0  0  0  0  0
    6.8665   -3.4495    2.0780 H   0  0  0  0  0  0  0  0  0  0  0  0
    7.1663   -5.7588    0.1453 H   0  0  0  0  0  0  0  0  0  0  0  0
    8.3823   -5.2226    1.2705 H   0  0  0  0  0  0  0  0  0  0  0  0
    7.3408   -7.0535    2.2745 H   0  0  0  0  0  0  0  0  0  0  0  0
    7.0115   -5.5963    3.1741 H   0  0  0  0  0  0  0  0  0  0  0  0
    5.2857   -6.9270    0.0353 H   0  0  0  0  0  0  0  0  0  0  0  0
    3.9676   -7.6892    0.8586 H   0  0  0  0  0  0  0  0  0  0  0  0
    5.6061   -8.2880    1.0053 H   0  0  0  0  0  0  0  0  0  0  0  0
  1  2  1  0
  1 34  1  0
  1 35  1  0
  1 36  1  0
  2 13  1  0
  2  3  1  0
  2 37  1  6
  3  4  1  0
  3 38  1  0
  3 39  1  0
  4  5  1  0
  4 40  1  0
  4 41  1  0
  5 12  1  0
  5  6  1  6
  5  7  1  0
  6 42  1  0
  6 43  1  0
  6 44  1  0
  7  8  1  0
  7 45  1  0
  7 46  1  0
  8  9  1  0
  8 47  1  0
  8 48  1  0
  9 32  1  0
  9 10  1  1
  9 11  1  0
 10 49  1  0
 10 50  1  0
 10 51  1  0
 11 12  2  0
 11 15  1  0
 12 13  1  0
 13 14  1  0
 13 52  1  1
 14 53  1  0
 14 54  1  0
 14 55  1  0
 15 16  1  0
 15 56  1  0
 15 57  1  0
 16 17  2  0
 16 18  1  0
 18 32  1  0
 18 19  1  0
 18 58  1  1
 19 29  1  0
 19 20  1  1
 19 21  1  0
 20 59  1  0
 20 60  1  0
 20 61  1  0
 21 22  1  0
 21 62  1  0
 21 63  1  0
 22 23  1  0
 22 24  1  0
 22 64  1  6
 23 65  1  0
 24 25  1  0
 24 26  1  0
 24 66  1  6
 25 67  1  0
 26 27  1  0
 26 28  1  0
 26 29  1  0
 27 68  1  0
 27 69  1  0
 27 70  1  0
 28 71  1  0
 28 72  1  0
 28 73  1  0
 29 30  1  0
 29 74  1  1
 30 31  1  0
 30 75  1  0
 30 76  1  0
 31 32  1  0
 31 77  1  0
 31 78  1  0
 32 33  1  6
 33 79  1  0
 33 80  1  0
 33 81  1  0
M  END
>  <i_m_ct_stereo_status>  (95) 
1

>  <s_m_source_file>  (95) 
/var/tmp/pbs.5076255.sched01/tmppm3sokcv/34yi_btuhz.sdf

>  <i_m_source_file_index>  (95) 
5

>  <i_lp_mmshare_version>  (95) 
48012

>  <i_f3d_flags>  (95) 
0

>  <s_epik_input>  (95) 
W0NIMl0xW0NIMl1bQ0BASF0oW0NIM10pW0NASF0oW0NIM10pQyhbQ0BdMTJbQ0gzXSk9QzNbQ0BAXShbQ0gzXSkoW0NIMl1bQ0gyXTIpW0NAQF00KFtDSDNdKVtDQEhdKEMoPU8pW0NIMl0zKVtDQEBdNShbQ0gzXSlbQ0BASF0oW0NIMl1bQ0gyXTQpQyhbQ0gzXSkoW0NIM10pW0NASF0oW09IXSlbQ0BASF0oW0NIMl01KVtPSF0=

>  <s_epik_cmdline>  (95) 
J2VwaWtfcHl0aG9uJywgJy1waHQnLCAnMi4wJywgJy1waCcsICc3LjAnLCAnLXRuJywgJzgnLCAnLW1hJywgJzIwMCcsICctaW1hZScsICc8aW5maWxlLm1hZT4nLCAnLW9tYWUnLCAnPG91dGZpbGUubWFlPic=

>  <r_lp_tautomer_probability>  (95) 
1

>  <r_epik_Ionization_Penalty>  (95) 
1.08567e-06

>  <r_epik_Ionization_Penalty_Charging>  (95) 
0

>  <r_epik_Ionization_Penalty_Neutral>  (95) 
1.08567e-06

>  <r_epik_State_Penalty>  (95) 
-0

>  <r_epik_Charging_Adjusted_Penalty>  (95) 
0

>  <i_epik_Tot_Q>  (95) 
0

>  <i_epik_Tot_abs_Q>  (95) 
0

>  <s_lp_Force_Field>  (95) 
OPLS3e

>  <r_lp_Energy>  (95) 
94.8742

>  <b_lp_Chiralities_Consistent>  (95) 
1

>  <s_lp_Variant>  (95) 
27:0-1

>  <s_i_glide_gridfile>  (95) 
pfpi4k_grid

>  <i_i_glide_lignum>  (95) 
5

>  <i_i_glide_rotatable_bonds>  (95) 
2

>  <r_i_docking_score>  (95) 
-3.35039

>  <r_i_glide_ligand_efficiency>  (95) 
-0.101527

>  <r_i_glide_ligand_efficiency_sa>  (95) 
-0.325651

>  <r_i_glide_ligand_efficiency_ln>  (95) 
-0.745109

>  <r_i_glide_gscore>  (95) 
-3.35039

>  <r_i_glide_lipo>  (95) 
-0.696172

>  <r_i_glide_hbond>  (95) 
-0.0118751

>  <r_i_glide_metal>  (95) 
-0

>  <r_i_glide_rewards>  (95) 
-0.295225

>  <r_i_glide_evdw>  (95) 
-20.7058

>  <r_i_glide_ecoul>  (95) 
-8.72568

>  <r_i_glide_erotb>  (95) 
0

>  <r_i_glide_esite>  (95) 
-0.00297361

>  <r_i_glide_emodel>  (95) 
-35.5733

>  <r_i_glide_energy>  (95) 
-29.4315

>  <r_i_glide_einternal>  (95) 
1.38451

>  <r_i_glide_intrahb_reward>  (95) 
-0

>  <i_i_glide_confnum>  (95) 
1

>  <i_i_glide_posenum>  (95) 
15

>  <r_i_glide_eff_state_penalty>  (95) 
0

>  <ligand_id>  (95) 
27

>  <original_smiles>  (95) 
CC1CCC2(C)CCC3(C)C(=C2C1C)CC(=O)C1C2(C)CC(O)C(O)C(C)(C)C2CCC13C

>  <smiles>  (95) 
[H]OC1([H])C([H])([H])C2(C([H])([H])[H])C3([H])C(=O)C([H])([H])C4=C5C([H])(C([H])([H])[H])C([H])(C([H])([H])[H])C([H])([H])C([H])([H])C5(C([H])([H])[H])C([H])([H])C([H])([H])C4(C([H])([H])[H])C3(C([H])([H])[H])C([H])([H])C([H])([H])C2([H])C(C([H])([H])[H])(C([H])([H])[H])C1([H])O[H]

$$$$
27:0:1
     RDKit          3D

 81 85  0  0  1  0  0  0  0  0999 V2000
    0.8788   -9.8520    6.0318 C   0  0  0  0  0  0  0  0  0  0  0  0
    1.3842  -10.5721    4.7615 C   0  0  2  0  0  0  0  0  0  0  0  0
    2.5902  -11.4993    4.9529 C   0  0  0  0  0  0  0  0  0  0  0  0
    3.8118  -10.7062    5.3961 C   0  0  0  0  0  0  0  0  0  0  0  0
    4.2236   -9.6332    4.3634 C   0  0  2  0  0  0  0  0  0  0  0  0
    4.9380  -10.3455    3.1918 C   0  0  0  0  0  0  0  0  0  0  0  0
    5.2249   -8.7155    5.0845 C   0  0  0  0  0  0  0  0  0  0  0  0
    5.6124   -7.5168    4.2263 C   0  0  0  0  0  0  0  0  0  0  0  0
    4.4015   -6.6303    3.8082 C   0  0  2  0  0  0  0  0  0  0  0  0
    4.1108   -5.7362    5.0481 C   0  0  0  0  0  0  0  0  0  0  0  0
    3.1154   -7.4570    3.5990 C   0  0  0  0  0  0  0  0  0  0  0  0
    3.0247   -8.7951    3.8470 C   0  0  0  0  0  0  0  0  0  0  0  0
    1.6926   -9.5468    3.6654 C   0  0  1  0  0  0  0  0  0  0  0  0
    1.6217  -10.1856    2.2937 C   0  0  0  0  0  0  0  0  0  0  0  0
    1.9197   -6.6251    3.1105 C   0  0  0  0  0  0  0  0  0  0  0  0
    2.2728   -5.6749    1.9726 C   0  0  0  0  0  0  0  0  0  0  0  0
    1.5346   -5.6177    0.9906 O   0  0  0  0  0  0  0  0  0  0  0  0
    3.5466   -4.8181    2.1440 C   0  0  2  0  0  0  0  0  0  0  0  0
    3.7626   -3.5647    1.1598 C   0  0  2  0  0  0  0  0  0  0  0  0
    2.6307   -2.5758    1.5431 C   0  0  0  0  0  0  0  0  0  0  0  0
    3.6779   -3.8999   -0.3707 C   0  0  0  0  0  0  0  0  0  0  0  0
    4.1215   -2.8098   -1.3690 C   0  0  1  0  0  0  0  0  0  0  0  0
    3.1460   -1.8333   -1.6579 O   0  0  0  0  0  0  0  0  0  0  0  0
    5.4509   -2.1531   -0.9811 C   0  0  1  0  0  0  0  0  0  0  0  0
    5.6773   -1.0676   -1.8541 O   0  0  0  0  0  0  0  0  0  0  0  0
    5.5461   -1.6862    0.4932 C   0  0  0  0  0  0  0  0  0  0  0  0
    7.0123   -1.2560    0.7177 C   0  0  0  0  0  0  0  0  0  0  0  0
    4.7350   -0.3915    0.7954 C   0  0  0  0  0  0  0  0  0  0  0  0
    5.1525   -2.8747    1.4585 C   0  0  2  0  0  0  0  0  0  0  0  0
    6.2592   -3.9481    1.5529 C   0  0  0  0  0  0  0  0  0  0  0  0
    5.9984   -4.9442    2.6850 C   0  0  0  0  0  0  0  0  0  0  0  0
    4.7308   -5.7981    2.4751 C   0  0  1  0  0  0  0  0  0  0  0  0
    5.0063   -6.7874    1.2951 C   0  0  0  0  0  0  0  0  0  0  0  0
    1.6101   -9.1401    6.4253 H   0  0  0  0  0  0  0  0  0  0  0  0
    0.6321  -10.5637    6.8082 H   0  0  0  0  0  0  0  0  0  0  0  0
   -0.0477   -9.3044    5.8385 H   0  0  0  0  0  0  0  0  0  0  0  0
    0.5586  -11.2024    4.4359 H   0  0  0  0  0  0  0  0  0  0  0  0
    2.3699  -12.2727    5.6789 H   0  0  0  0  0  0  0  0  0  0  0  0
    2.7965  -12.0772    4.0505 H   0  0  0  0  0  0  0  0  0  0  0  0
    3.6117  -10.2498    6.3668 H   0  0  0  0  0  0  0  0  0  0  0  0
    4.6424  -11.3920    5.5708 H   0  0  0  0  0  0  0  0  0  0  0  0
    5.9128  -10.7267    3.4949 H   0  0  0  0  0  0  0  0  0  0  0  0
    5.0810   -9.6824    2.3413 H   0  0  0  0  0  0  0  0  0  0  0  0
    4.3873  -11.2082    2.8266 H   0  0  0  0  0  0  0  0  0  0  0  0
    4.8008   -8.3657    6.0246 H   0  0  0  0  0  0  0  0  0  0  0  0
    6.1180   -9.2791    5.3544 H   0  0  0  0  0  0  0  0  0  0  0  0
    6.3415   -6.9140    4.7703 H   0  0  0  0  0  0  0  0  0  0  0  0
    6.1679   -7.9107    3.3810 H   0  0  0  0  0  0  0  0  0  0  0  0
    4.9678   -5.1421    5.3536 H   0  0  0  0  0  0  0  0  0  0  0  0
    3.8518   -6.3550    5.9044 H   0  0  0  0  0  0  0  0  0  0  0  0
    3.2641   -5.0629    4.9291 H   0  0  0  0  0  0  0  0  0  0  0  0
    0.8491   -8.8641    3.7216 H   0  0  0  0  0  0  0  0  0  0  0  0
    1.8004   -9.4554    1.5024 H   0  0  0  0  0  0  0  0  0  0  0  0
    0.6407  -10.6335    2.1251 H   0  0  0  0  0  0  0  0  0  0  0  0
    2.3631  -10.9726    2.1831 H   0  0  0  0  0  0  0  0  0  0  0  0
    1.1317   -7.2487    2.7013 H   0  0  0  0  0  0  0  0  0  0  0  0
    1.4897   -6.0674    3.9416 H   0  0  0  0  0  0  0  0  0  0  0  0
    3.3730   -4.2992    3.0826 H   0  0  0  0  0  0  0  0  0  0  0  0
    2.4993   -1.7616    0.8437 H   0  0  0  0  0  0  0  0  0  0  0  0
    2.7926   -2.1302    2.5266 H   0  0  0  0  0  0  0  0  0  0  0  0
    1.6674   -3.0626    1.5919 H   0  0  0  0  0  0  0  0  0  0  0  0
    4.3404   -4.7295   -0.5738 H   0  0  0  0  0  0  0  0  0  0  0  0
    2.6935   -4.2541   -0.6574 H   0  0  0  0  0  0  0  0  0  0  0  0
    4.2777   -3.3083   -2.3236 H   0  0  0  0  0  0  0  0  0  0  0  0
    2.4919   -1.7637   -0.9667 H   0  0  0  0  0  0  0  0  0  0  0  0
    6.2359   -2.8929   -1.1536 H   0  0  0  0  0  0  0  0  0  0  0  0
    4.8942   -0.5364   -1.8192 H   0  0  0  0  0  0  0  0  0  0  0  0
    7.2027   -1.0549    1.7714 H   0  0  0  0  0  0  0  0  0  0  0  0
    7.2374   -0.3390    0.1710 H   0  0  0  0  0  0  0  0  0  0  0  0
    7.7306   -1.9918    0.3583 H   0  0  0  0  0  0  0  0  0  0  0  0
    4.4520   -0.3143    1.8451 H   0  0  0  0  0  0  0  0  0  0  0  0
    3.8347   -0.2912    0.2004 H   0  0  0  0  0  0  0  0  0  0  0  0
    5.3000    0.5112    0.5654 H   0  0  0  0  0  0  0  0  0  0  0  0
    5.0994   -2.4364    2.4584 H   0  0  0  0  0  0  0  0  0  0  0  0
    6.3957   -4.4606    0.6010 H   0  0  0  0  0  0  0  0  0  0  0  0
    7.2221   -3.5038    1.7747 H   0  0  0  0  0  0  0  0  0  0  0  0
    6.8780   -5.5809    2.7973 H   0  0  0  0  0  0  0  0  0  0  0  0
    5.9126   -4.3648    3.6044 H   0  0  0  0  0  0  0  0  0  0  0  0
    5.2080   -6.2882    0.3575 H   0  0  0  0  0  0  0  0  0  0  0  0
    4.1785   -7.4707    1.1134 H   0  0  0  0  0  0  0  0  0  0  0  0
    5.8962   -7.3944    1.4418 H   0  0  0  0  0  0  0  0  0  0  0  0
  1  2  1  0
  1 34  1  0
  1 35  1  0
  1 36  1  0
  2 13  1  0
  2  3  1  0
  2 37  1  6
  3  4  1  0
  3 38  1  0
  3 39  1  0
  4  5  1  0
  4 40  1  0
  4 41  1  0
  5 12  1  0
  5  6  1  6
  5  7  1  0
  6 42  1  0
  6 43  1  0
  6 44  1  0
  7  8  1  0
  7 45  1  0
  7 46  1  0
  8  9  1  0
  8 47  1  0
  8 48  1  0
  9 32  1  0
  9 10  1  1
  9 11  1  0
 10 49  1  0
 10 50  1  0
 10 51  1  0
 11 12  2  0
 11 15  1  0
 12 13  1  0
 13 14  1  0
 13 52  1  6
 14 53  1  0
 14 54  1  0
 14 55  1  0
 15 16  1  0
 15 56  1  0
 15 57  1  0
 16 17  2  0
 16 18  1  0
 18 32  1  0
 18 19  1  0
 18 58  1  1
 19 29  1  0
 19 20  1  1
 19 21  1  0
 20 59  1  0
 20 60  1  0
 20 61  1  0
 21 22  1  0
 21 62  1  0
 21 63  1  0
 22 23  1  0
 22 24  1  0
 22 64  1  6
 23 65  1  0
 24 25  1  0
 24 26  1  0
 24 66  1  1
 25 67  1  0
 26 27  1  0
 26 28  1  0
 26 29  1  0
 27 68  1  0
 27 69  1  0
 27 70  1  0
 28 71  1  0
 28 72  1  0
 28 73  1  0
 29 30  1  0
 29 74  1  1
 30 31  1  0
 30 75  1  0
 30 76  1  0
 31 32  1  0
 31 77  1  0
 31 78  1  0
 32 33  1  6
 33 79  1  0
 33 80  1  0
 33 81  1  0
M  END
>  <i_m_ct_stereo_status>  (96) 
1

>  <s_m_source_file>  (96) 
/var/tmp/pbs.5076255.sched01/tmppm3sokcv/34yi_btuhz.sdf

>  <i_m_source_file_index>  (96) 
5

>  <i_lp_mmshare_version>  (96) 
48012

>  <i_f3d_flags>  (96) 
0

>  <s_epik_input>  (96) 
W0NIMl0xW0NIMl1bQ0BASF0oW0NIM10pW0NASF0oW0NIM10pQyhbQ0BdMTJbQ0gzXSk9QzNbQ0BAXShbQ0gzXSkoW0NIMl1bQ0gyXTIpW0NAQF00KFtDSDNdKVtDQEhdKEMoPU8pW0NIMl0zKVtDQEBdNShbQ0gzXSlbQ0BASF0oW0NIMl1bQ0gyXTQpQyhbQ0gzXSkoW0NIM10pW0NASF0oW09IXSlbQ0BASF0oW0NIMl01KVtPSF0=

>  <s_epik_cmdline>  (96) 
J2VwaWtfcHl0aG9uJywgJy1waHQnLCAnMi4wJywgJy1waCcsICc3LjAnLCAnLXRuJywgJzgnLCAnLW1hJywgJzIwMCcsICctaW1hZScsICc8aW5maWxlLm1hZT4nLCAnLW9tYWUnLCAnPG91dGZpbGUubWFlPic=

>  <r_lp_tautomer_probability>  (96) 
1

>  <r_epik_Ionization_Penalty>  (96) 
1.08567e-06

>  <r_epik_Ionization_Penalty_Charging>  (96) 
0

>  <r_epik_Ionization_Penalty_Neutral>  (96) 
1.08567e-06

>  <r_epik_State_Penalty>  (96) 
-0

>  <r_epik_Charging_Adjusted_Penalty>  (96) 
0

>  <i_epik_Tot_Q>  (96) 
0

>  <i_epik_Tot_abs_Q>  (96) 
0

>  <s_lp_Force_Field>  (96) 
OPLS3e

>  <r_lp_Energy>  (96) 
94.8742

>  <b_lp_Chiralities_Consistent>  (96) 
1

>  <s_lp_Variant>  (96) 
27:0-1

>  <s_i_glide_gridfile>  (96) 
pfpi4k_grid

>  <i_i_glide_lignum>  (96) 
5

>  <i_i_glide_rotatable_bonds>  (96) 
2

>  <r_i_docking_score>  (96) 
-3.29927

>  <r_i_glide_ligand_efficiency>  (96) 
-0.099978

>  <r_i_glide_ligand_efficiency_sa>  (96) 
-0.320683

>  <r_i_glide_ligand_efficiency_ln>  (96) 
-0.733741

>  <r_i_glide_gscore>  (96) 
-3.29927

>  <r_i_glide_lipo>  (96) 
-0.586839

>  <r_i_glide_hbond>  (96) 
-0.128284

>  <r_i_glide_metal>  (96) 
-0

>  <r_i_glide_rewards>  (96) 
-0.295225

>  <r_i_glide_evdw>  (96) 
-21.4318

>  <r_i_glide_ecoul>  (96) 
-7.98631

>  <r_i_glide_erotb>  (96) 
0

>  <r_i_glide_esite>  (96) 
-0.0193893

>  <r_i_glide_emodel>  (96) 
-34.6041

>  <r_i_glide_energy>  (96) 
-29.4181

>  <r_i_glide_einternal>  (96) 
0.773367

>  <r_i_glide_intrahb_reward>  (96) 
-0

>  <i_i_glide_confnum>  (96) 
2

>  <i_i_glide_posenum>  (96) 
33

>  <r_i_glide_eff_state_penalty>  (96) 
0

>  <ligand_id>  (96) 
27

>  <original_smiles>  (96) 
CC1CCC2(C)CCC3(C)C(=C2C1C)CC(=O)C1C2(C)CC(O)C(O)C(C)(C)C2CCC13C

>  <smiles>  (96) 
[H]OC1([H])C([H])([H])C2(C([H])([H])[H])C3([H])C(=O)C([H])([H])C4=C5C([H])(C([H])([H])[H])C([H])(C([H])([H])[H])C([H])([H])C([H])([H])C5(C([H])([H])[H])C([H])([H])C([H])([H])C4(C([H])([H])[H])C3(C([H])([H])[H])C([H])([H])C([H])([H])C2([H])C(C([H])([H])[H])(C([H])([H])[H])C1([H])O[H]

$$$$
27:0:2
     RDKit          3D

 81 85  0  0  1  0  0  0  0  0999 V2000
    0.9464   -8.9840    7.1611 C   0  0  0  0  0  0  0  0  0  0  0  0
    0.2617   -9.2941    5.8158 C   0  0  2  0  0  0  0  0  0  0  0  0
    0.6218  -10.6737    5.2767 C   0  0  0  0  0  0  0  0  0  0  0  0
    2.1040  -10.7373    4.9046 C   0  0  0  0  0  0  0  0  0  0  0  0
    2.5172   -9.6736    3.8545 C   0  0  2  0  0  0  0  0  0  0  0  0
    2.0319  -10.1495    2.4749 C   0  0  0  0  0  0  0  0  0  0  0  0
    4.0566   -9.6406    3.8550 C   0  0  0  0  0  0  0  0  0  0  0  0
    4.6075   -8.5339    2.9637 C   0  0  0  0  0  0  0  0  0  0  0  0
    4.1218   -7.1066    3.3681 C   0  0  2  0  0  0  0  0  0  0  0  0
    5.0289   -6.6966    4.5656 C   0  0  0  0  0  0  0  0  0  0  0  0
    2.6782   -7.1252    3.9320 C   0  0  0  0  0  0  0  0  0  0  0  0
    1.9529   -8.2595    4.1498 C   0  0  0  0  0  0  0  0  0  0  0  0
    0.5300   -8.2139    4.7516 C   0  0  1  0  0  0  0  0  0  0  0  0
   -0.5551   -8.1886    3.6580 C   0  0  0  0  0  0  0  0  0  0  0  0
    2.1483   -5.7252    4.2726 C   0  0  0  0  0  0  0  0  0  0  0  0
    2.4140   -4.6789    3.1960 C   0  0  0  0  0  0  0  0  0  0  0  0
    1.5163   -3.9083    2.8830 O   0  0  0  0  0  0  0  0  0  0  0  0
    3.8364   -4.6413    2.5898 C   0  0  2  0  0  0  0  0  0  0  0  0
    4.2357   -3.3687    1.6998 C   0  0  2  0  0  0  0  0  0  0  0  0
    4.2091   -2.1774    2.7060 C   0  0  0  0  0  0  0  0  0  0  0  0
    3.2623   -3.0778    0.5076 C   0  0  0  0  0  0  0  0  0  0  0  0
    3.7052   -1.9945   -0.4858 C   0  0  1  0  0  0  0  0  0  0  0  0
    3.4097   -0.7117    0.0321 O   0  0  0  0  0  0  0  0  0  0  0  0
    5.1544   -2.1755   -0.9707 C   0  0  1  0  0  0  0  0  0  0  0  0
    5.4959   -1.1044   -1.8298 O   0  0  0  0  0  0  0  0  0  0  0  0
    6.2127   -2.3969    0.1462 C   0  0  0  0  0  0  0  0  0  0  0  0
    7.5547   -2.8019   -0.5259 C   0  0  0  0  0  0  0  0  0  0  0  0
    6.5383   -1.0810    0.8997 C   0  0  0  0  0  0  0  0  0  0  0  0
    5.7047   -3.5367    1.1272 C   0  0  2  0  0  0  0  0  0  0  0  0
    5.8781   -4.9541    0.5273 C   0  0  0  0  0  0  0  0  0  0  0  0
    5.6554   -6.0532    1.5669 C   0  0  0  0  0  0  0  0  0  0  0  0
    4.2132   -6.0925    2.1255 C   0  0  1  0  0  0  0  0  0  0  0  0
    3.2664   -6.5913    0.9868 C   0  0  0  0  0  0  0  0  0  0  0  0
    2.0246   -8.8599    7.0564 H   0  0  0  0  0  0  0  0  0  0  0  0
    0.7772   -9.7903    7.8794 H   0  0  0  0  0  0  0  0  0  0  0  0
    0.5546   -8.0672    7.6041 H   0  0  0  0  0  0  0  0  0  0  0  0
   -0.8092   -9.3155    6.0238 H   0  0  0  0  0  0  0  0  0  0  0  0
    0.3584  -11.4154    6.0252 H   0  0  0  0  0  0  0  0  0  0  0  0
    0.0103  -10.9265    4.4075 H   0  0  0  0  0  0  0  0  0  0  0  0
    2.7024  -10.6332    5.8066 H   0  0  0  0  0  0  0  0  0  0  0  0
    2.3350  -11.7336    4.5268 H   0  0  0  0  0  0  0  0  0  0  0  0
    2.6235  -11.0004    2.1314 H   0  0  0  0  0  0  0  0  0  0  0  0
    2.1139   -9.3668    1.7208 H   0  0  0  0  0  0  0  0  0  0  0  0
    0.9960  -10.4760    2.4832 H   0  0  0  0  0  0  0  0  0  0  0  0
    4.4282   -9.5077    4.8695 H   0  0  0  0  0  0  0  0  0  0  0  0
    4.4496  -10.6011    3.5230 H   0  0  0  0  0  0  0  0  0  0  0  0
    5.6977   -8.5714    2.9830 H   0  0  0  0  0  0  0  0  0  0  0  0
    4.3530   -8.8024    1.9451 H   0  0  0  0  0  0  0  0  0  0  0  0
    6.0907   -6.7116    4.3176 H   0  0  0  0  0  0  0  0  0  0  0  0
    4.9032   -7.3948    5.3925 H   0  0  0  0  0  0  0  0  0  0  0  0
    4.8025   -5.7213    4.9883 H   0  0  0  0  0  0  0  0  0  0  0  0
    0.4028   -7.2956    5.3159 H   0  0  0  0  0  0  0  0  0  0  0  0
   -0.3766   -7.3715    2.9581 H   0  0  0  0  0  0  0  0  0  0  0  0
   -1.5447   -8.0445    4.0961 H   0  0  0  0  0  0  0  0  0  0  0  0
   -0.6001   -9.1133    3.0816 H   0  0  0  0  0  0  0  0  0  0  0  0
    1.0677   -5.7167    4.3996 H   0  0  0  0  0  0  0  0  0  0  0  0
    2.5755   -5.3802    5.2147 H   0  0  0  0  0  0  0  0  0  0  0  0
    4.4626   -4.4709    3.4592 H   0  0  0  0  0  0  0  0  0  0  0  0
    4.2896   -1.1988    2.2518 H   0  0  0  0  0  0  0  0  0  0  0  0
    5.0240   -2.2406    3.4259 H   0  0  0  0  0  0  0  0  0  0  0  0
    3.2830   -2.1209    3.2758 H   0  0  0  0  0  0  0  0  0  0  0  0
    3.1376   -3.9624   -0.1012 H   0  0  0  0  0  0  0  0  0  0  0  0
    2.2646   -2.8108    0.8516 H   0  0  0  0  0  0  0  0  0  0  0  0
    3.0662   -2.0700   -1.3647 H   0  0  0  0  0  0  0  0  0  0  0  0
    2.4694   -0.6029   -0.0790 H   0  0  0  0  0  0  0  0  0  0  0  0
    5.1524   -3.0717   -1.5983 H   0  0  0  0  0  0  0  0  0  0  0  0
    4.7565   -0.9427   -2.3985 H   0  0  0  0  0  0  0  0  0  0  0  0
    8.2852   -3.1438    0.2109 H   0  0  0  0  0  0  0  0  0  0  0  0
    8.0203   -1.9787   -1.0699 H   0  0  0  0  0  0  0  0  0  0  0  0
    7.4204   -3.5859   -1.2712 H   0  0  0  0  0  0  0  0  0  0  0  0
    6.8693   -1.2703    1.9211 H   0  0  0  0  0  0  0  0  0  0  0  0
    5.7062   -0.3844    0.9384 H   0  0  0  0  0  0  0  0  0  0  0  0
    7.3447   -0.5273    0.4210 H   0  0  0  0  0  0  0  0  0  0  0  0
    6.3862   -3.5115    1.9791 H   0  0  0  0  0  0  0  0  0  0  0  0
    5.2370   -5.0940   -0.3380 H   0  0  0  0  0  0  0  0  0  0  0  0
    6.8959   -5.1141    0.1738 H   0  0  0  0  0  0  0  0  0  0  0  0
    5.9140   -7.0115    1.1176 H   0  0  0  0  0  0  0  0  0  0  0  0
    6.3749   -5.8818    2.3673 H   0  0  0  0  0  0  0  0  0  0  0  0
    3.2468   -5.9433    0.1227 H   0  0  0  0  0  0  0  0  0  0  0  0
    2.2315   -6.7103    1.3143 H   0  0  0  0  0  0  0  0  0  0  0  0
    3.5807   -7.5416    0.5682 H   0  0  0  0  0  0  0  0  0  0  0  0
  1  2  1  0
  1 34  1  0
  1 35  1  0
  1 36  1  0
  2 13  1  0
  2  3  1  0
  2 37  1  1
  3  4  1  0
  3 38  1  0
  3 39  1  0
  4  5  1  0
  4 40  1  0
  4 41  1  0
  5 12  1  0
  5  6  1  6
  5  7  1  0
  6 42  1  0
  6 43  1  0
  6 44  1  0
  7  8  1  0
  7 45  1  0
  7 46  1  0
  8  9  1  0
  8 47  1  0
  8 48  1  0
  9 32  1  0
  9 10  1  1
  9 11  1  0
 10 49  1  0
 10 50  1  0
 10 51  1  0
 11 12  2  0
 11 15  1  0
 12 13  1  0
 13 14  1  0
 13 52  1  1
 14 53  1  0
 14 54  1  0
 14 55  1  0
 15 16  1  0
 15 56  1  0
 15 57  1  0
 16 17  2  0
 16 18  1  0
 18 32  1  0
 18 19  1  0
 18 58  1  1
 19 29  1  0
 19 20  1  1
 19 21  1  0
 20 59  1  0
 20 60  1  0
 20 61  1  0
 21 22  1  0
 21 62  1  0
 21 63  1  0
 22 23  1  0
 22 24  1  0
 22 64  1  6
 23 65  1  0
 24 25  1  0
 24 26  1  0
 24 66  1  6
 25 67  1  0
 26 27  1  0
 26 28  1  0
 26 29  1  0
 27 68  1  0
 27 69  1  0
 27 70  1  0
 28 71  1  0
 28 72  1  0
 28 73  1  0
 29 30  1  0
 29 74  1  1
 30 31  1  0
 30 75  1  0
 30 76  1  0
 31 32  1  0
 31 77  1  0
 31 78  1  0
 32 33  1  6
 33 79  1  0
 33 80  1  0
 33 81  1  0
M  END
>  <i_m_ct_stereo_status>  (97) 
1

>  <s_m_source_file>  (97) 
/var/tmp/pbs.5076255.sched01/tmppm3sokcv/34yi_btuhz.sdf

>  <i_m_source_file_index>  (97) 
5

>  <i_lp_mmshare_version>  (97) 
48012

>  <i_f3d_flags>  (97) 
0

>  <s_epik_input>  (97) 
W0NIMl0xW0NIMl1bQ0BASF0oW0NIM10pW0NASF0oW0NIM10pQyhbQ0BdMTJbQ0gzXSk9QzNbQ0BAXShbQ0gzXSkoW0NIMl1bQ0gyXTIpW0NAQF00KFtDSDNdKVtDQEhdKEMoPU8pW0NIMl0zKVtDQEBdNShbQ0gzXSlbQ0BASF0oW0NIMl1bQ0gyXTQpQyhbQ0gzXSkoW0NIM10pW0NASF0oW09IXSlbQ0BASF0oW0NIMl01KVtPSF0=

>  <s_epik_cmdline>  (97) 
J2VwaWtfcHl0aG9uJywgJy1waHQnLCAnMi4wJywgJy1waCcsICc3LjAnLCAnLXRuJywgJzgnLCAnLW1hJywgJzIwMCcsICctaW1hZScsICc8aW5maWxlLm1hZT4nLCAnLW9tYWUnLCAnPG91dGZpbGUubWFlPic=

>  <r_lp_tautomer_probability>  (97) 
1

>  <r_epik_Ionization_Penalty>  (97) 
1.08567e-06

>  <r_epik_Ionization_Penalty_Charging>  (97) 
0

>  <r_epik_Ionization_Penalty_Neutral>  (97) 
1.08567e-06

>  <r_epik_State_Penalty>  (97) 
-0

>  <r_epik_Charging_Adjusted_Penalty>  (97) 
0

>  <i_epik_Tot_Q>  (97) 
0

>  <i_epik_Tot_abs_Q>  (97) 
0

>  <s_lp_Force_Field>  (97) 
OPLS3e

>  <r_lp_Energy>  (97) 
94.8742

>  <b_lp_Chiralities_Consistent>  (97) 
1

>  <s_lp_Variant>  (97) 
27:0-1

>  <s_i_glide_gridfile>  (97) 
pfpi4k_grid

>  <i_i_glide_lignum>  (97) 
5

>  <i_i_glide_rotatable_bonds>  (97) 
2

>  <r_i_docking_score>  (97) 
-2.63339

>  <r_i_glide_ligand_efficiency>  (97) 
-0.0797997

>  <r_i_glide_ligand_efficiency_sa>  (97) 
-0.25596

>  <r_i_glide_ligand_efficiency_ln>  (97) 
-0.585652

>  <r_i_glide_gscore>  (97) 
-2.63339

>  <r_i_glide_lipo>  (97) 
-0.460866

>  <r_i_glide_hbond>  (97) 
0

>  <r_i_glide_metal>  (97) 
-0

>  <r_i_glide_rewards>  (97) 
-0.295225

>  <r_i_glide_evdw>  (97) 
-29.3516

>  <r_i_glide_ecoul>  (97) 
-2.7203

>  <r_i_glide_erotb>  (97) 
0

>  <r_i_glide_esite>  (97) 
-0.00167365

>  <r_i_glide_emodel>  (97) 
-37.0382

>  <r_i_glide_energy>  (97) 
-32.0719

>  <r_i_glide_einternal>  (97) 
1.03145

>  <r_i_glide_intrahb_reward>  (97) 
-0

>  <i_i_glide_confnum>  (97) 
2

>  <i_i_glide_posenum>  (97) 
26

>  <r_i_glide_eff_state_penalty>  (97) 
0

>  <ligand_id>  (97) 
27

>  <original_smiles>  (97) 
CC1CCC2(C)CCC3(C)C(=C2C1C)CC(=O)C1C2(C)CC(O)C(O)C(C)(C)C2CCC13C

>  <smiles>  (97) 
[H]OC1([H])C([H])([H])C2(C([H])([H])[H])C3([H])C(=O)C([H])([H])C4=C5C([H])(C([H])([H])[H])C([H])(C([H])([H])[H])C([H])([H])C([H])([H])C5(C([H])([H])[H])C([H])([H])C([H])([H])C4(C([H])([H])[H])C3(C([H])([H])[H])C([H])([H])C([H])([H])C2([H])C(C([H])([H])[H])(C([H])([H])[H])C1([H])O[H]

$$$$
28:0:0
     RDKit          3D

 75 80  0  0  1  0  0  0  0  0999 V2000
    5.7770   -1.6152    1.6885 C   0  0  0  0  0  0  0  0  0  0  0  0
    5.7291   -2.9508    1.8115 C   0  0  0  0  0  0  0  0  0  0  0  0
    6.8637   -3.8529    1.4172 C   0  0  0  0  0  0  0  0  0  0  0  0
    6.6845   -5.0993    2.0673 O   0  0  0  0  0  0  0  0  0  0  0  0
    5.3426   -5.2008    2.5074 C   0  0  1  0  0  0  0  0  0  0  0  0
    4.6660   -3.7731    2.5051 C   0  0  1  0  0  0  0  0  0  0  0  0
    4.4835   -3.3772    3.8781 O   0  0  0  0  0  0  0  0  0  0  0  0
    3.8456   -2.1572    4.2179 C   0  0  0  0  0  0  0  0  0  0  0  0
    3.2732   -4.0331    1.8111 C   0  0  0  0  0  0  0  0  0  0  0  0
    3.1835   -5.5105    2.0736 C   0  0  1  0  0  0  0  0  0  0  0  0
    2.4486   -6.6665    1.4623 C   0  0  2  0  0  0  0  0  0  0  0  0
    0.9909   -6.9564    1.9693 C   0  0  0  0  0  0  0  0  0  0  0  0
    0.9787   -8.0143    3.0351 C   0  0  2  0  0  0  0  0  0  0  0  0
    0.2162   -9.3292    3.0867 C   0  0  0  0  0  0  0  0  0  0  0  0
   -1.3148   -9.2850    2.9656 C   0  0  0  0  0  0  0  0  0  0  0  0
    0.6324  -10.4768    2.1834 C   0  0  0  0  0  0  0  0  0  0  0  0
    0.8741   -9.3598    4.5189 C   0  0  2  0  0  0  0  0  0  0  0  0
    0.8068   -7.8378    4.5805 C   0  0  2  0  0  0  0  0  0  0  0  0
   -0.4457   -7.3954    5.0804 O   0  0  0  0  0  0  0  0  0  0  0  0
   -0.6501   -5.9949    5.0935 C   0  0  0  0  0  0  0  0  0  0  0  0
    1.9078   -7.3844    5.5463 C   0  0  0  0  0  0  0  0  0  0  0  0
    2.6932   -8.6373    5.9831 C   0  0  1  0  0  0  0  0  0  0  0  0
    2.2394   -9.0805    7.3875 C   0  0  0  0  0  0  0  0  0  0  0  0
    2.4037   -9.6681    4.8665 C   0  0  1  0  0  0  0  0  0  0  0  0
    2.4984  -11.0114    5.3396 O   0  0  0  0  0  0  0  0  0  0  0  0
    3.6126   -9.5638    3.8055 C   0  0  1  0  0  0  0  0  0  0  0  0
    3.5541  -10.5575    2.8080 O   0  0  0  0  0  0  0  0  0  0  0  0
    4.2409   -8.1963    3.2382 C   0  0  1  0  0  0  0  0  0  0  0  0
    5.7745   -8.4441    3.1974 C   0  0  0  0  0  0  0  0  0  0  0  0
    3.8018   -7.4872    1.8492 C   0  0  1  0  0  0  0  0  0  0  0  0
    4.1539   -8.4718    0.8862 O   0  0  0  0  0  0  0  0  0  0  0  0
    4.4815   -6.0941    1.5830 C   0  0  2  0  0  0  0  0  0  0  0  0
    4.9061   -5.8798    0.1003 C   0  0  0  0  0  0  0  0  0  0  0  0
    4.9568   -0.9944    2.0160 H   0  0  0  0  0  0  0  0  0  0  0  0
    6.6629   -1.2056    1.2589 H   0  0  0  0  0  0  0  0  0  0  0  0
    6.8866   -3.9930    0.3361 H   0  0  0  0  0  0  0  0  0  0  0  0
    7.8214   -3.4388    1.6995 H   0  0  0  0  0  0  0  0  0  0  0  0
    5.3687   -5.6193    3.5219 H   0  0  0  0  0  0  0  0  0  0  0  0
    3.6248   -2.1253    5.2928 H   0  0  0  0  0  0  0  0  0  0  0  0
    2.8691   -2.1107    3.7605 H   0  0  0  0  0  0  0  0  0  0  0  0
    4.4371   -1.3098    3.8758 H   0  0  0  0  0  0  0  0  0  0  0  0
    2.4099   -3.5041    2.2294 H   0  0  0  0  0  0  0  0  0  0  0  0
    3.3057   -3.7589    0.7504 H   0  0  0  0  0  0  0  0  0  0  0  0
    3.0553   -5.6414    3.1451 H   0  0  0  0  0  0  0  0  0  0  0  0
    2.3700   -6.5370    0.3691 H   0  0  0  0  0  0  0  0  0  0  0  0
    0.4994   -6.0321    2.3060 H   0  0  0  0  0  0  0  0  0  0  0  0
    0.3727   -7.3077    1.1263 H   0  0  0  0  0  0  0  0  0  0  0  0
    1.8875   -8.4481    2.7500 H   0  0  0  0  0  0  0  0  0  0  0  0
   -1.7343  -10.2446    3.2357 H   0  0  0  0  0  0  0  0  0  0  0  0
   -1.6159   -9.0929    1.9330 H   0  0  0  0  0  0  0  0  0  0  0  0
   -1.8046   -8.5443    3.5979 H   0  0  0  0  0  0  0  0  0  0  0  0
    1.0600  -11.2949    2.7639 H   0  0  0  0  0  0  0  0  0  0  0  0
    1.3717  -10.1408    1.4506 H   0  0  0  0  0  0  0  0  0  0  0  0
   -0.2149  -10.9299    1.6704 H   0  0  0  0  0  0  0  0  0  0  0  0
    0.1802   -9.8156    5.2342 H   0  0  0  0  0  0  0  0  0  0  0  0
   -1.5453   -5.8018    5.6816 H   0  0  0  0  0  0  0  0  0  0  0  0
   -0.8051   -5.6355    4.0792 H   0  0  0  0  0  0  0  0  0  0  0  0
    0.1675   -5.4178    5.5201 H   0  0  0  0  0  0  0  0  0  0  0  0
    2.5327   -6.6291    5.0753 H   0  0  0  0  0  0  0  0  0  0  0  0
    1.5020   -6.9054    6.4477 H   0  0  0  0  0  0  0  0  0  0  0  0
    3.7496   -8.4080    6.0534 H   0  0  0  0  0  0  0  0  0  0  0  0
    1.1689   -9.3243    7.4182 H   0  0  0  0  0  0  0  0  0  0  0  0
    2.4103   -8.2761    8.1108 H   0  0  0  0  0  0  0  0  0  0  0  0
    2.7941   -9.9559    7.7437 H   0  0  0  0  0  0  0  0  0  0  0  0
    1.9192  -11.1513    6.0855 H   0  0  0  0  0  0  0  0  0  0  0  0
    4.4202   -9.9614    4.4235 H   0  0  0  0  0  0  0  0  0  0  0  0
    3.3430  -11.3723    3.2397 H   0  0  0  0  0  0  0  0  0  0  0  0
    4.1292   -7.4653    4.0294 H   0  0  0  0  0  0  0  0  0  0  0  0
    6.0466   -9.3251    2.6065 H   0  0  0  0  0  0  0  0  0  0  0  0
    6.1679   -8.5948    4.2035 H   0  0  0  0  0  0  0  0  0  0  0  0
    6.3298   -7.6130    2.7724 H   0  0  0  0  0  0  0  0  0  0  0  0
    4.3326   -9.2537    1.3880 H   0  0  0  0  0  0  0  0  0  0  0  0
    4.2601   -6.3933   -0.6139 H   0  0  0  0  0  0  0  0  0  0  0  0
    5.9192   -6.2456   -0.0719 H   0  0  0  0  0  0  0  0  0  0  0  0
    4.8984   -4.8366   -0.2006 H   0  0  0  0  0  0  0  0  0  0  0  0
  1  2  2  0
  1 34  1  0
  1 35  1  0
  2  6  1  0
  2  3  1  0
  3  4  1  0
  3 36  1  0
  3 37  1  0
  4  5  1  0
  5 32  1  0
  5  6  1  0
  5 38  1  1
  6  7  1  1
  6  9  1  0
  7  8  1  0
  8 39  1  0
  8 40  1  0
  8 41  1  0
  9 10  1  0
  9 42  1  0
  9 43  1  0
 10 32  1  0
 10 11  1  0
 10 44  1  1
 11 30  1  0
 11 12  1  0
 11 45  1  6
 12 13  1  0
 12 46  1  0
 12 47  1  0
 13 18  1  0
 13 14  1  0
 13 48  1  1
 14 15  1  0
 14 16  1  0
 14 17  1  0
 15 49  1  0
 15 50  1  0
 15 51  1  0
 16 52  1  0
 16 53  1  0
 16 54  1  0
 17 24  1  0
 17 18  1  0
 17 55  1  1
 18 19  1  6
 18 21  1  0
 19 20  1  0
 20 56  1  0
 20 57  1  0
 20 58  1  0
 21 22  1  0
 21 59  1  0
 21 60  1  0
 22 23  1  0
 22 24  1  0
 22 61  1  1
 23 62  1  0
 23 63  1  0
 23 64  1  0
 24 25  1  1
 24 26  1  0
 25 65  1  0
 26 27  1  0
 26 28  1  0
 26 66  1  1
 27 67  1  0
 28 29  1  0
 28 30  1  0
 28 68  1  1
 29 69  1  0
 29 70  1  0
 29 71  1  0
 30 31  1  6
 30 32  1  0
 31 72  1  0
 32 33  1  6
 33 73  1  0
 33 74  1  0
 33 75  1  0
M  END
>  <i_m_ct_stereo_status>  (98) 
1

>  <s_m_source_file>  (98) 
/var/tmp/pbs.5076255.sched01/tmppm3sokcv/34yi_btuhz.sdf

>  <i_m_source_file_index>  (98) 
6

>  <i_lp_mmshare_version>  (98) 
48012

>  <i_f3d_flags>  (98) 
0

>  <s_epik_input>  (98) 
W0NIMl09QzFbQ0gyXU9bQ0BASF0oW0NAQF0xMk9bQ0gzXSlbQ0BdMyhbQ0gzXSlbQ0BASF0oW0NIMl0yKVtDQEhdNFtDQF0zKFtPSF0pW0NASF0oW0NIM10pW0NASF0oW09IXSlbQ0BdNShbT0hdKVtDQEhdNltDQF0oT1tDSDNdKShbQ0BIXShbQ0gyXTQpQzYoW0NIM10pW0NIM10pW0NIMl1bQ0BIXTVbQ0gzXQ==

>  <s_epik_cmdline>  (98) 
J2VwaWtfcHl0aG9uJywgJy1waHQnLCAnMi4wJywgJy1waCcsICc3LjAnLCAnLXRuJywgJzgnLCAnLW1hJywgJzIwMCcsICctaW1hZScsICc8aW5maWxlLm1hZT4nLCAnLW9tYWUnLCAnPG91dGZpbGUubWFlPic=

>  <r_lp_tautomer_probability>  (98) 
1

>  <r_epik_Ionization_Penalty>  (98) 
8.64544e-07

>  <r_epik_Ionization_Penalty_Charging>  (98) 
0

>  <r_epik_Ionization_Penalty_Neutral>  (98) 
8.64544e-07

>  <r_epik_State_Penalty>  (98) 
-0

>  <r_epik_Charging_Adjusted_Penalty>  (98) 
0

>  <i_epik_Tot_Q>  (98) 
0

>  <i_epik_Tot_abs_Q>  (98) 
0

>  <s_lp_Force_Field>  (98) 
OPLS3e

>  <r_lp_Energy>  (98) 
174.448

>  <b_lp_Chiralities_Consistent>  (98) 
1

>  <s_lp_Variant>  (98) 
28:0-1

>  <s_i_glide_gridfile>  (98) 
pfpi4k_grid

>  <i_i_glide_lignum>  (98) 
6

>  <i_i_glide_rotatable_bonds>  (98) 
5

>  <r_i_docking_score>  (98) 
-2.81586

>  <r_i_glide_ligand_efficiency>  (98) 
-0.085329

>  <r_i_glide_ligand_efficiency_sa>  (98) 
-0.273696

>  <r_i_glide_ligand_efficiency_ln>  (98) 
-0.626232

>  <r_i_glide_gscore>  (98) 
-2.81586

>  <r_i_glide_lipo>  (98) 
-0.627961

>  <r_i_glide_hbond>  (98) 
0

>  <r_i_glide_metal>  (98) 
-0

>  <r_i_glide_rewards>  (98) 
-0.754872

>  <r_i_glide_evdw>  (98) 
-20.292

>  <r_i_glide_ecoul>  (98) 
-2.78951

>  <r_i_glide_erotb>  (98) 
0

>  <r_i_glide_esite>  (98) 
0

>  <r_i_glide_emodel>  (98) 
-28.9981

>  <r_i_glide_energy>  (98) 
-23.0815

>  <r_i_glide_einternal>  (98) 
4.33001

>  <r_i_glide_intrahb_reward>  (98) 
-0.5

>  <i_i_glide_confnum>  (98) 
2

>  <i_i_glide_posenum>  (98) 
21

>  <r_i_glide_eff_state_penalty>  (98) 
0

>  <ligand_id>  (98) 
28

>  <original_smiles>  (98) 
C=C1COC2C1(OC)CC1C3CC4C(C)(C)C5C4(OC)CC(C)C5(O)C(O)C(C)C3(O)C12C

>  <smiles>  (98) 
[H]OC1([H])C([H])(C([H])([H])[H])C2(O[H])C([H])(C([H])([H])C3([H])C4(OC([H])([H])[H])C([H])([H])C([H])(C([H])([H])[H])C1(O[H])C4([H])C3(C([H])([H])[H])C([H])([H])[H])C1([H])C([H])([H])C3(OC([H])([H])[H])C(=C([H])[H])C([H])([H])OC3([H])C12C([H])([H])[H]

$$$$
28:0:1
     RDKit          3D

 75 80  0  0  1  0  0  0  0  0999 V2000
    8.6183   -5.6833    2.2228 C   0  0  0  0  0  0  0  0  0  0  0  0
    7.7700   -6.6968    2.4683 C   0  0  0  0  0  0  0  0  0  0  0  0
    8.1805   -8.1364    2.4187 C   0  0  0  0  0  0  0  0  0  0  0  0
    7.2452   -8.8961    3.1707 O   0  0  0  0  0  0  0  0  0  0  0  0
    6.0629   -8.1298    3.3793 C   0  0  1  0  0  0  0  0  0  0  0  0
    6.4061   -6.6216    3.1014 C   0  0  1  0  0  0  0  0  0  0  0  0
    6.3605   -5.7795    4.2657 O   0  0  0  0  0  0  0  0  0  0  0  0
    7.2603   -6.0503    5.3162 C   0  0  0  0  0  0  0  0  0  0  0  0
    5.2493   -6.0941    2.1958 C   0  0  0  0  0  0  0  0  0  0  0  0
    4.2226   -7.1263    2.6081 C   0  0  1  0  0  0  0  0  0  0  0  0
    2.9490   -7.7161    2.0798 C   0  0  2  0  0  0  0  0  0  0  0  0
    1.6099   -6.9662    2.3355 C   0  0  0  0  0  0  0  0  0  0  0  0
    0.9111   -7.5449    3.5270 C   0  0  2  0  0  0  0  0  0  0  0  0
   -0.4812   -8.1515    3.6327 C   0  0  0  0  0  0  0  0  0  0  0  0
   -1.6983   -7.2662    3.3048 C   0  0  0  0  0  0  0  0  0  0  0  0
   -0.7641   -9.4692    2.9124 C   0  0  0  0  0  0  0  0  0  0  0  0
   -0.0430   -8.2725    5.1394 C   0  0  2  0  0  0  0  0  0  0  0  0
    0.7874   -6.9908    4.9801 C   0  0  2  0  0  0  0  0  0  0  0  0
    0.0281   -5.7975    5.1634 O   0  0  0  0  0  0  0  0  0  0  0  0
    0.6413   -4.6003    4.6893 C   0  0  0  0  0  0  0  0  0  0  0  0
    1.8876   -7.0381    6.0403 C   0  0  0  0  0  0  0  0  0  0  0  0
    1.7440   -8.3882    6.7888 C   0  0  1  0  0  0  0  0  0  0  0  0
    1.0530   -8.1647    8.1589 C   0  0  0  0  0  0  0  0  0  0  0  0
    0.9544   -9.3039    5.8094 C   0  0  1  0  0  0  0  0  0  0  0  0
    0.1919  -10.2416    6.5535 O   0  0  0  0  0  0  0  0  0  0  0  0
    1.9919  -10.1782    4.9703 C   0  0  1  0  0  0  0  0  0  0  0  0
    1.3738  -11.1423    4.1560 O   0  0  0  0  0  0  0  0  0  0  0  0
    3.3487   -9.5982    4.3294 C   0  0  1  0  0  0  0  0  0  0  0  0
    4.4267  -10.6879    4.5831 C   0  0  0  0  0  0  0  0  0  0  0  0
    3.4780   -9.0637    2.8225 C   0  0  1  0  0  0  0  0  0  0  0  0
    3.0742  -10.1790    2.0636 O   0  0  0  0  0  0  0  0  0  0  0  0
    4.8844   -8.4809    2.4475 C   0  0  2  0  0  0  0  0  0  0  0  0
    5.4234   -8.8891    1.0545 C   0  0  0  0  0  0  0  0  0  0  0  0
    8.3436   -4.6587    2.3605 H   0  0  0  0  0  0  0  0  0  0  0  0
    9.6275   -5.9052    1.8998 H   0  0  0  0  0  0  0  0  0  0  0  0
    8.1462   -8.4447    1.3784 H   0  0  0  0  0  0  0  0  0  0  0  0
    9.1840   -8.2909    2.8183 H   0  0  0  0  0  0  0  0  0  0  0  0
    5.7742   -8.2379    4.4176 H   0  0  0  0  0  0  0  0  0  0  0  0
    6.9796   -5.4355    6.1701 H   0  0  0  0  0  0  0  0  0  0  0  0
    8.2844   -5.7955    5.0530 H   0  0  0  0  0  0  0  0  0  0  0  0
    7.2325   -7.0859    5.6483 H   0  0  0  0  0  0  0  0  0  0  0  0
    4.9324   -5.0814    2.4506 H   0  0  0  0  0  0  0  0  0  0  0  0
    5.4545   -6.1066    1.1192 H   0  0  0  0  0  0  0  0  0  0  0  0
    3.9888   -6.9309    3.6607 H   0  0  0  0  0  0  0  0  0  0  0  0
    3.0452   -7.8196    0.9965 H   0  0  0  0  0  0  0  0  0  0  0  0
    1.7849   -5.9046    2.4492 H   0  0  0  0  0  0  0  0  0  0  0  0
    0.9591   -7.0869    1.4662 H   0  0  0  0  0  0  0  0  0  0  0  0
    1.3726   -8.4906    3.5028 H   0  0  0  0  0  0  0  0  0  0  0  0
   -2.6291   -7.7181    3.6523 H   0  0  0  0  0  0  0  0  0  0  0  0
   -1.7871   -7.1308    2.2258 H   0  0  0  0  0  0  0  0  0  0  0  0
   -1.6626   -6.2756    3.7361 H   0  0  0  0  0  0  0  0  0  0  0  0
   -0.9687  -10.2427    3.6454 H   0  0  0  0  0  0  0  0  0  0  0  0
    0.0863   -9.8043    2.3161 H   0  0  0  0  0  0  0  0  0  0  0  0
   -1.6253   -9.4396    2.2425 H   0  0  0  0  0  0  0  0  0  0  0  0
   -0.9264   -8.0964    5.7222 H   0  0  0  0  0  0  0  0  0  0  0  0
    0.1174   -3.7357    5.0936 H   0  0  0  0  0  0  0  0  0  0  0  0
    0.5801   -4.5292    3.6055 H   0  0  0  0  0  0  0  0  0  0  0  0
    1.6866   -4.5266    4.9868 H   0  0  0  0  0  0  0  0  0  0  0  0
    2.8625   -6.9341    5.5807 H   0  0  0  0  0  0  0  0  0  0  0  0
    1.8143   -6.2050    6.7476 H   0  0  0  0  0  0  0  0  0  0  0  0
    2.7271   -8.8112    7.0181 H   0  0  0  0  0  0  0  0  0  0  0  0
    0.0552   -7.7299    8.0482 H   0  0  0  0  0  0  0  0  0  0  0  0
    1.6395   -7.4839    8.7797 H   0  0  0  0  0  0  0  0  0  0  0  0
    0.9504   -9.0916    8.7244 H   0  0  0  0  0  0  0  0  0  0  0  0
    0.7418  -10.9534    6.9065 H   0  0  0  0  0  0  0  0  0  0  0  0
    2.3806  -10.8245    5.7582 H   0  0  0  0  0  0  0  0  0  0  0  0
    0.7968  -11.6689    4.6985 H   0  0  0  0  0  0  0  0  0  0  0  0
    3.6682   -8.7883    4.9668 H   0  0  0  0  0  0  0  0  0  0  0  0
    4.1253  -11.6558    4.1837 H   0  0  0  0  0  0  0  0  0  0  0  0
    4.5963  -10.8131    5.6554 H   0  0  0  0  0  0  0  0  0  0  0  0
    5.3970  -10.4682    4.1504 H   0  0  0  0  0  0  0  0  0  0  0  0
    3.8231  -10.7152    1.8684 H   0  0  0  0  0  0  0  0  0  0  0  0
    4.6385   -9.0347    0.3129 H   0  0  0  0  0  0  0  0  0  0  0  0
    6.0059   -9.8123    1.0748 H   0  0  0  0  0  0  0  0  0  0  0  0
    6.0649   -8.1163    0.6423 H   0  0  0  0  0  0  0  0  0  0  0  0
  1  2  2  0
  1 34  1  0
  1 35  1  0
  2  6  1  0
  2  3  1  0
  3  4  1  0
  3 36  1  0
  3 37  1  0
  4  5  1  0
  5 32  1  0
  5  6  1  0
  5 38  1  1
  6  7  1  1
  6  9  1  0
  7  8  1  0
  8 39  1  0
  8 40  1  0
  8 41  1  0
  9 10  1  0
  9 42  1  0
  9 43  1  0
 10 32  1  0
 10 11  1  0
 10 44  1  1
 11 30  1  0
 11 12  1  0
 11 45  1  6
 12 13  1  0
 12 46  1  0
 12 47  1  0
 13 18  1  0
 13 14  1  0
 13 48  1  1
 14 15  1  0
 14 16  1  0
 14 17  1  0
 15 49  1  0
 15 50  1  0
 15 51  1  0
 16 52  1  0
 16 53  1  0
 16 54  1  0
 17 24  1  0
 17 18  1  0
 17 55  1  1
 18 19  1  6
 18 21  1  0
 19 20  1  0
 20 56  1  0
 20 57  1  0
 20 58  1  0
 21 22  1  0
 21 59  1  0
 21 60  1  0
 22 23  1  0
 22 24  1  0
 22 61  1  1
 23 62  1  0
 23 63  1  0
 23 64  1  0
 24 25  1  1
 24 26  1  0
 25 65  1  0
 26 27  1  0
 26 28  1  0
 26 66  1  1
 27 67  1  0
 28 29  1  0
 28 30  1  0
 28 68  1  1
 29 69  1  0
 29 70  1  0
 29 71  1  0
 30 31  1  6
 30 32  1  0
 31 72  1  0
 32 33  1  6
 33 73  1  0
 33 74  1  0
 33 75  1  0
M  END
>  <i_m_ct_stereo_status>  (99) 
1

>  <s_m_source_file>  (99) 
/var/tmp/pbs.5076255.sched01/tmppm3sokcv/34yi_btuhz.sdf

>  <i_m_source_file_index>  (99) 
6

>  <i_lp_mmshare_version>  (99) 
48012

>  <i_f3d_flags>  (99) 
0

>  <s_epik_input>  (99) 
W0NIMl09QzFbQ0gyXU9bQ0BASF0oW0NAQF0xMk9bQ0gzXSlbQ0BdMyhbQ0gzXSlbQ0BASF0oW0NIMl0yKVtDQEhdNFtDQF0zKFtPSF0pW0NASF0oW0NIM10pW0NASF0oW09IXSlbQ0BdNShbT0hdKVtDQEhdNltDQF0oT1tDSDNdKShbQ0BIXShbQ0gyXTQpQzYoW0NIM10pW0NIM10pW0NIMl1bQ0BIXTVbQ0gzXQ==

>  <s_epik_cmdline>  (99) 
J2VwaWtfcHl0aG9uJywgJy1waHQnLCAnMi4wJywgJy1waCcsICc3LjAnLCAnLXRuJywgJzgnLCAnLW1hJywgJzIwMCcsICctaW1hZScsICc8aW5maWxlLm1hZT4nLCAnLW9tYWUnLCAnPG91dGZpbGUubWFlPic=

>  <r_lp_tautomer_probability>  (99) 
1

>  <r_epik_Ionization_Penalty>  (99) 
8.64544e-07

>  <r_epik_Ionization_Penalty_Charging>  (99) 
0

>  <r_epik_Ionization_Penalty_Neutral>  (99) 
8.64544e-07

>  <r_epik_State_Penalty>  (99) 
-0

>  <r_epik_Charging_Adjusted_Penalty>  (99) 
0

>  <i_epik_Tot_Q>  (99) 
0

>  <i_epik_Tot_abs_Q>  (99) 
0

>  <s_lp_Force_Field>  (99) 
OPLS3e

>  <r_lp_Energy>  (99) 
174.448

>  <b_lp_Chiralities_Consistent>  (99) 
1

>  <s_lp_Variant>  (99) 
28:0-1

>  <s_i_glide_gridfile>  (99) 
pfpi4k_grid

>  <i_i_glide_lignum>  (99) 
6

>  <i_i_glide_rotatable_bonds>  (99) 
5

>  <r_i_docking_score>  (99) 
-2.10613

>  <r_i_glide_ligand_efficiency>  (99) 
-0.063822

>  <r_i_glide_ligand_efficiency_sa>  (99) 
-0.204711

>  <r_i_glide_ligand_efficiency_ln>  (99) 
-0.468391

>  <r_i_glide_gscore>  (99) 
-2.10613

>  <r_i_glide_lipo>  (99) 
-0.0309077

>  <r_i_glide_hbond>  (99) 
0

>  <r_i_glide_metal>  (99) 
-0

>  <r_i_glide_rewards>  (99) 
-0.254872

>  <r_i_glide_evdw>  (99) 
-20.0618

>  <r_i_glide_ecoul>  (99) 
-5.44836

>  <r_i_glide_erotb>  (99) 
0

>  <r_i_glide_esite>  (99) 
0

>  <r_i_glide_emodel>  (99) 
-27.4202

>  <r_i_glide_energy>  (99) 
-25.5102

>  <r_i_glide_einternal>  (99) 
1.12544

>  <r_i_glide_intrahb_reward>  (99) 
-0

>  <i_i_glide_confnum>  (99) 
2

>  <i_i_glide_posenum>  (99) 
37

>  <r_i_glide_eff_state_penalty>  (99) 
0

>  <ligand_id>  (99) 
28

>  <original_smiles>  (99) 
C=C1COC2C1(OC)CC1C3CC4C(C)(C)C5C4(OC)CC(C)C5(O)C(O)C(C)C3(O)C12C

>  <smiles>  (99) 
[H]OC1([H])C([H])(C([H])([H])[H])C2(O[H])C([H])(C([H])([H])C3([H])C4(OC([H])([H])[H])C([H])([H])C([H])(C([H])([H])[H])C1(O[H])C4([H])C3(C([H])([H])[H])C([H])([H])[H])C1([H])C([H])([H])C3(OC([H])([H])[H])C(=C([H])[H])C([H])([H])OC3([H])C12C([H])([H])[H]

$$$$
28:0:2
     RDKit          3D

 75 80  0  0  1  0  0  0  0  0999 V2000
    4.3148   -2.8007   -0.3894 C   0  0  0  0  0  0  0  0  0  0  0  0
    4.6795   -3.6829    0.5587 C   0  0  0  0  0  0  0  0  0  0  0  0
    6.0295   -3.6552    1.2303 C   0  0  0  0  0  0  0  0  0  0  0  0
    5.8937   -4.3033    2.4873 O   0  0  0  0  0  0  0  0  0  0  0  0
    4.7004   -5.0906    2.5109 C   0  0  1  0  0  0  0  0  0  0  0  0
    3.7658   -4.5738    1.3694 C   0  0  1  0  0  0  0  0  0  0  0  0
    2.5697   -3.9447    1.8196 O   0  0  0  0  0  0  0  0  0  0  0  0
    2.6945   -2.7486    2.5626 C   0  0  0  0  0  0  0  0  0  0  0  0
    3.2716   -5.8723    0.6272 C   0  0  0  0  0  0  0  0  0  0  0  0
    3.4848   -6.8271    1.7801 C   0  0  1  0  0  0  0  0  0  0  0  0
    3.6610   -8.3093    2.0178 C   0  0  2  0  0  0  0  0  0  0  0  0
    2.4046   -9.2069    2.1261 C   0  0  0  0  0  0  0  0  0  0  0  0
    2.0323   -9.4344    3.5597 C   0  0  2  0  0  0  0  0  0  0  0  0
    1.8762  -10.7439    4.3538 C   0  0  0  0  0  0  0  0  0  0  0  0
    0.8402  -11.7569    3.8705 C   0  0  0  0  0  0  0  0  0  0  0  0
    3.1137  -11.6150    4.6144 C   0  0  0  0  0  0  0  0  0  0  0  0
    1.4700   -9.7277    5.4726 C   0  0  2  0  0  0  0  0  0  0  0  0
    0.9025   -8.7820    4.4224 C   0  0  2  0  0  0  0  0  0  0  0  0
   -0.4591   -9.0563    4.0837 O   0  0  0  0  0  0  0  0  0  0  0  0
   -0.8366   -8.8214    2.7344 C   0  0  0  0  0  0  0  0  0  0  0  0
    0.9244   -7.3794    5.0116 C   0  0  0  0  0  0  0  0  0  0  0  0
    1.6092   -7.4938    6.4109 C   0  0  1  0  0  0  0  0  0  0  0  0
    0.5445   -7.4583    7.5365 C   0  0  0  0  0  0  0  0  0  0  0  0
    2.4135   -8.8285    6.3347 C   0  0  1  0  0  0  0  0  0  0  0  0
    2.5154   -9.4532    7.6070 O   0  0  0  0  0  0  0  0  0  0  0  0
    3.9197   -8.4553    5.9066 C   0  0  1  0  0  0  0  0  0  0  0  0
    4.7650   -9.5799    5.9308 O   0  0  0  0  0  0  0  0  0  0  0  0
    4.3316   -7.4105    4.7491 C   0  0  1  0  0  0  0  0  0  0  0  0
    5.5264   -6.5938    5.3142 C   0  0  0  0  0  0  0  0  0  0  0  0
    4.6468   -7.8093    3.2232 C   0  0  1  0  0  0  0  0  0  0  0  0
    5.7696   -8.6652    3.3137 O   0  0  0  0  0  0  0  0  0  0  0  0
    4.8988   -6.5959    2.2538 C   0  0  2  0  0  0  0  0  0  0  0  0
    6.0669   -6.7989    1.2498 C   0  0  0  0  0  0  0  0  0  0  0  0
    3.3017   -2.7562   -0.7737 H   0  0  0  0  0  0  0  0  0  0  0  0
    5.0426   -2.1056   -0.7875 H   0  0  0  0  0  0  0  0  0  0  0  0
    6.7554   -4.2029    0.6249 H   0  0  0  0  0  0  0  0  0  0  0  0
    6.4046   -2.6443    1.3505 H   0  0  0  0  0  0  0  0  0  0  0  0
    4.2101   -4.9291    3.4685 H   0  0  0  0  0  0  0  0  0  0  0  0
    1.7120   -2.4908    2.9664 H   0  0  0  0  0  0  0  0  0  0  0  0
    3.0178   -1.9149    1.9472 H   0  0  0  0  0  0  0  0  0  0  0  0
    3.3708   -2.8411    3.4103 H   0  0  0  0  0  0  0  0  0  0  0  0
    2.2202   -5.8129    0.3359 H   0  0  0  0  0  0  0  0  0  0  0  0
    3.8413   -6.1486   -0.2573 H   0  0  0  0  0  0  0  0  0  0  0  0
    2.7658   -6.5423    2.5738 H   0  0  0  0  0  0  0  0  0  0  0  0
    4.2569   -8.7060    1.1877 H   0  0  0  0  0  0  0  0  0  0  0  0
    1.5799   -8.7686    1.5703 H   0  0  0  0  0  0  0  0  0  0  0  0
    2.5933  -10.1771    1.6606 H   0  0  0  0  0  0  0  0  0  0  0  0
    2.9880   -9.2482    3.9680 H   0  0  0  0  0  0  0  0  0  0  0  0
    0.6210  -12.5224    4.6190 H   0  0  0  0  0  0  0  0  0  0  0  0
    1.1598  -12.2506    2.9533 H   0  0  0  0  0  0  0  0  0  0  0  0
   -0.0967  -11.2786    3.6422 H   0  0  0  0  0  0  0  0  0  0  0  0
    3.2888  -11.7221    5.6896 H   0  0  0  0  0  0  0  0  0  0  0  0
    4.0051  -11.1886    4.1554 H   0  0  0  0  0  0  0  0  0  0  0  0
    3.0331  -12.6256    4.2187 H   0  0  0  0  0  0  0  0  0  0  0  0
    0.6394  -10.1521    6.0584 H   0  0  0  0  0  0  0  0  0  0  0  0
   -1.9172   -8.8670    2.6399 H   0  0  0  0  0  0  0  0  0  0  0  0
   -0.4316   -9.6072    2.0955 H   0  0  0  0  0  0  0  0  0  0  0  0
   -0.4932   -7.8531    2.3764 H   0  0  0  0  0  0  0  0  0  0  0  0
    1.4577   -6.6945    4.3617 H   0  0  0  0  0  0  0  0  0  0  0  0
   -0.0741   -6.9605    5.1149 H   0  0  0  0  0  0  0  0  0  0  0  0
    2.2606   -6.6362    6.5880 H   0  0  0  0  0  0  0  0  0  0  0  0
   -0.1623   -8.2840    7.4483 H   0  0  0  0  0  0  0  0  0  0  0  0
   -0.0270   -6.5250    7.4924 H   0  0  0  0  0  0  0  0  0  0  0  0
    0.9989   -7.5046    8.5243 H   0  0  0  0  0  0  0  0  0  0  0  0
    2.2583  -10.3687    7.5282 H   0  0  0  0  0  0  0  0  0  0  0  0
    4.2475   -7.9377    6.8152 H   0  0  0  0  0  0  0  0  0  0  0  0
    4.5203  -10.0876    6.6802 H   0  0  0  0  0  0  0  0  0  0  0  0
    3.5351   -6.6794    4.7196 H   0  0  0  0  0  0  0  0  0  0  0  0
    6.3507   -7.2352    5.6152 H   0  0  0  0  0  0  0  0  0  0  0  0
    5.2189   -6.0093    6.1867 H   0  0  0  0  0  0  0  0  0  0  0  0
    5.9401   -5.8801    4.6088 H   0  0  0  0  0  0  0  0  0  0  0  0
    5.4296   -9.4999    3.5947 H   0  0  0  0  0  0  0  0  0  0  0  0
    6.1874   -7.8397    0.9438 H   0  0  0  0  0  0  0  0  0  0  0  0
    7.0291   -6.4997    1.6660 H   0  0  0  0  0  0  0  0  0  0  0  0
    5.9307   -6.2480    0.3178 H   0  0  0  0  0  0  0  0  0  0  0  0
  1  2  2  0
  1 34  1  0
  1 35  1  0
  2  6  1  0
  2  3  1  0
  3  4  1  0
  3 36  1  0
  3 37  1  0
  4  5  1  0
  5 32  1  0
  5  6  1  0
  5 38  1  1
  6  7  1  1
  6  9  1  0
  7  8  1  0
  8 39  1  0
  8 40  1  0
  8 41  1  0
  9 10  1  0
  9 42  1  0
  9 43  1  0
 10 32  1  0
 10 11  1  0
 10 44  1  1
 11 30  1  0
 11 12  1  0
 11 45  1  6
 12 13  1  0
 12 46  1  0
 12 47  1  0
 13 18  1  0
 13 14  1  0
 13 48  1  1
 14 15  1  0
 14 16  1  0
 14 17  1  0
 15 49  1  0
 15 50  1  0
 15 51  1  0
 16 52  1  0
 16 53  1  0
 16 54  1  0
 17 24  1  0
 17 18  1  0
 17 55  1  1
 18 19  1  6
 18 21  1  0
 19 20  1  0
 20 56  1  0
 20 57  1  0
 20 58  1  0
 21 22  1  0
 21 59  1  0
 21 60  1  0
 22 23  1  0
 22 24  1  0
 22 61  1  1
 23 62  1  0
 23 63  1  0
 23 64  1  0
 24 25  1  1
 24 26  1  0
 25 65  1  0
 26 27  1  0
 26 28  1  0
 26 66  1  1
 27 67  1  0
 28 29  1  0
 28 30  1  0
 28 68  1  6
 29 69  1  0
 29 70  1  0
 29 71  1  0
 30 31  1  1
 30 32  1  0
 31 72  1  0
 32 33  1  6
 33 73  1  0
 33 74  1  0
 33 75  1  0
M  END
>  <i_m_ct_stereo_status>  (100) 
1

>  <s_m_source_file>  (100) 
/var/tmp/pbs.5076255.sched01/tmppm3sokcv/34yi_btuhz.sdf

>  <i_m_source_file_index>  (100) 
6

>  <i_lp_mmshare_version>  (100) 
48012

>  <i_f3d_flags>  (100) 
0

>  <s_epik_input>  (100) 
W0NIMl09QzFbQ0gyXU9bQ0BASF0oW0NAQF0xMk9bQ0gzXSlbQ0BdMyhbQ0gzXSlbQ0BASF0oW0NIMl0yKVtDQEhdNFtDQF0zKFtPSF0pW0NASF0oW0NIM10pW0NASF0oW09IXSlbQ0BdNShbT0hdKVtDQEhdNltDQF0oT1tDSDNdKShbQ0BIXShbQ0gyXTQpQzYoW0NIM10pW0NIM10pW0NIMl1bQ0BIXTVbQ0gzXQ==

>  <s_epik_cmdline>  (100) 
J2VwaWtfcHl0aG9uJywgJy1waHQnLCAnMi4wJywgJy1waCcsICc3LjAnLCAnLXRuJywgJzgnLCAnLW1hJywgJzIwMCcsICctaW1hZScsICc8aW5maWxlLm1hZT4nLCAnLW9tYWUnLCAnPG91dGZpbGUubWFlPic=

>  <r_lp_tautomer_probability>  (100) 
1

>  <r_epik_Ionization_Penalty>  (100) 
8.64544e-07

>  <r_epik_Ionization_Penalty_Charging>  (100) 
0

>  <r_epik_Ionization_Penalty_Neutral>  (100) 
8.64544e-07

>  <r_epik_State_Penalty>  (100) 
-0

>  <r_epik_Charging_Adjusted_Penalty>  (100) 
0

>  <i_epik_Tot_Q>  (100) 
0

>  <i_epik_Tot_abs_Q>  (100) 
0

>  <s_lp_Force_Field>  (100) 
OPLS3e

>  <r_lp_Energy>  (100) 
174.448

>  <b_lp_Chiralities_Consistent>  (100) 
1

>  <s_lp_Variant>  (100) 
28:0-1

>  <s_i_glide_gridfile>  (100) 
pfpi4k_grid

>  <i_i_glide_lignum>  (100) 
6

>  <i_i_glide_rotatable_bonds>  (100) 
5

>  <r_i_docking_score>  (100) 
-2.08152

>  <r_i_glide_ligand_efficiency>  (100) 
-0.0630764

>  <r_i_glide_ligand_efficiency_sa>  (100) 
-0.20232

>  <r_i_glide_ligand_efficiency_ln>  (100) 
-0.46292

>  <r_i_glide_gscore>  (100) 
-2.08152

>  <r_i_glide_lipo>  (100) 
-0.306355

>  <r_i_glide_hbond>  (100) 
0

>  <r_i_glide_metal>  (100) 
-0

>  <r_i_glide_rewards>  (100) 
-0.254872

>  <r_i_glide_evdw>  (100) 
-23.598

>  <r_i_glide_ecoul>  (100) 
-2.26931

>  <r_i_glide_erotb>  (100) 
0

>  <r_i_glide_esite>  (100) 
0

>  <r_i_glide_emodel>  (100) 
-26.6971

>  <r_i_glide_energy>  (100) 
-25.8673

>  <r_i_glide_einternal>  (100) 
2.7594

>  <r_i_glide_intrahb_reward>  (100) 
-0

>  <i_i_glide_confnum>  (100) 
2

>  <i_i_glide_posenum>  (100) 
26

>  <r_i_glide_eff_state_penalty>  (100) 
0

>  <ligand_id>  (100) 
28

>  <original_smiles>  (100) 
C=C1COC2C1(OC)CC1C3CC4C(C)(C)C5C4(OC)CC(C)C5(O)C(O)C(C)C3(O)C12C

>  <smiles>  (100) 
[H]OC1([H])C([H])(C([H])([H])[H])C2(O[H])C([H])(C([H])([H])C3([H])C4(OC([H])([H])[H])C([H])([H])C([H])(C([H])([H])[H])C1(O[H])C4([H])C3(C([H])([H])[H])C([H])([H])[H])C1([H])C([H])([H])C3(OC([H])([H])[H])C(=C([H])[H])C([H])([H])OC3([H])C12C([H])([H])[H]

$$$$
29:0:0
     RDKit          3D

 39 43  0  0  1  0  0  0  0  0999 V2000
    5.1498   -4.9664    3.8107 C   0  0  0  0  0  0  0  0  0  0  0  0
    5.1179   -5.1562    2.3039 C   0  0  0  0  0  0  0  0  0  0  0  0
    4.0413   -5.1331    1.5226 C   0  0  0  0  0  0  0  0  0  0  0  0
    2.6572   -4.7852    1.6183 C   0  0  0  0  0  0  0  0  0  0  0  0
    1.8620   -4.6690    2.5441 O   0  0  0  0  0  0  0  0  0  0  0  0
    2.5811   -4.5264    0.2685 O   0  0  0  0  0  0  0  0  0  0  0  0
    3.8939   -5.1498    0.0728 C   0  0  1  0  0  0  0  0  0  0  0  0
    5.0705   -4.3980   -0.6071 C   0  0  1  0  0  0  0  0  0  0  0  0
    4.6317   -3.1709   -1.4172 C   0  0  0  0  0  0  0  0  0  0  0  0
    3.5914   -3.3001   -2.3589 C   0  0  0  0  0  0  0  0  0  0  0  0
    3.1472   -2.2051   -3.1256 C   0  0  0  0  0  0  0  0  0  0  0  0
    3.7566   -0.9518   -2.9555 C   0  0  0  0  0  0  0  0  0  0  0  0
    3.3314    0.1161   -3.6808 O   0  0  0  0  0  0  0  0  0  0  0  0
    4.8118   -0.8210   -2.0377 C   0  0  0  0  0  0  0  0  0  0  0  0
    5.2663   -1.9153   -1.2760 C   0  0  0  0  0  0  0  0  0  0  0  0
    6.4329   -1.7437   -0.3306 C   0  0  0  0  0  0  0  0  0  0  0  0
    6.3809   -2.7221    0.8367 C   0  0  0  0  0  0  0  0  0  0  0  0
    6.3134   -4.1754    0.3416 C   0  0  1  0  0  0  0  0  0  0  0  0
    6.3879   -5.1586    1.5306 C   0  0  0  0  0  0  0  0  0  0  0  0
    7.7141   -5.4551    2.2177 C   0  0  0  0  0  0  0  0  0  0  0  0
    7.0948   -6.4893    1.3228 C   0  0  0  0  0  0  0  0  0  0  0  0
    5.7961   -4.1305    4.0768 H   0  0  0  0  0  0  0  0  0  0  0  0
    5.5475   -5.8613    4.2885 H   0  0  0  0  0  0  0  0  0  0  0  0
    4.1594   -4.7711    4.2222 H   0  0  0  0  0  0  0  0  0  0  0  0
    3.7841   -6.1588   -0.3281 H   0  0  0  0  0  0  0  0  0  0  0  0
    5.4178   -5.0813   -1.3753 H   0  0  0  0  0  0  0  0  0  0  0  0
    3.1088   -4.2542   -2.4884 H   0  0  0  0  0  0  0  0  0  0  0  0
    2.3260   -2.3348   -3.8176 H   0  0  0  0  0  0  0  0  0  0  0  0
    2.9789    0.8313   -3.1591 H   0  0  0  0  0  0  0  0  0  0  0  0
    5.2877    0.1386   -1.9303 H   0  0  0  0  0  0  0  0  0  0  0  0
    7.3556   -1.9061   -0.8909 H   0  0  0  0  0  0  0  0  0  0  0  0
    6.4611   -0.7219    0.0440 H   0  0  0  0  0  0  0  0  0  0  0  0
    7.2558   -2.5775    1.4682 H   0  0  0  0  0  0  0  0  0  0  0  0
    5.5014   -2.4930    1.4386 H   0  0  0  0  0  0  0  0  0  0  0  0
    7.2117   -4.3232   -0.2583 H   0  0  0  0  0  0  0  0  0  0  0  0
    8.6016   -4.9465    1.8578 H   0  0  0  0  0  0  0  0  0  0  0  0
    7.7103   -5.6565    3.2885 H   0  0  0  0  0  0  0  0  0  0  0  0
    6.6804   -7.3745    1.7995 H   0  0  0  0  0  0  0  0  0  0  0  0
    7.6295   -6.6631    0.3920 H   0  0  0  0  0  0  0  0  0  0  0  0
  1  2  1  0
  1 22  1  0
  1 23  1  0
  1 24  1  0
  2 19  1  0
  2  3  2  0
  3  7  1  0
  3  4  1  0
  4  5  2  0
  4  6  1  0
  6  7  1  0
  7  8  1  0
  7 25  1  6
  8 18  1  0
  8  9  1  0
  8 26  1  6
  9 15  2  0
  9 10  1  0
 10 11  2  0
 10 27  1  0
 11 12  1  0
 11 28  1  0
 12 13  1  0
 12 14  2  0
 13 29  1  0
 14 15  1  0
 14 30  1  0
 15 16  1  0
 16 17  1  0
 16 31  1  0
 16 32  1  0
 17 18  1  0
 17 33  1  0
 17 34  1  0
 18 19  1  0
 18 35  1  6
 19 21  1  0
 19 20  1  0
 20 21  1  0
 20 36  1  0
 20 37  1  0
 21 38  1  0
 21 39  1  0
M  END
>  <i_m_ct_stereo_status>  (101) 
1

>  <s_m_source_file>  (101) 
/var/tmp/pbs.5076255.sched01/tmppm3sokcv/34yi_btuhz.sdf

>  <i_m_source_file_index>  (101) 
7

>  <i_lp_mmshare_version>  (101) 
48012

>  <i_f3d_flags>  (101) 
0

>  <s_epik_input>  (101) 
W0NIM11DMT1DKEMoPU8pTzIpW0NAQEhdMltDQEhdKFtDQEBIXTNDMTRbQ0gyXVtDSDJdNCljNWMoW0NIMl1bQ0gyXTMpW2NIXWMoW09IXSlbY0hdW2NIXTU=

>  <s_epik_cmdline>  (101) 
J2VwaWtfcHl0aG9uJywgJy1waHQnLCAnMi4wJywgJy1waCcsICc3LjAnLCAnLXRuJywgJzgnLCAnLW1hJywgJzIwMCcsICctaW1hZScsICc8aW5maWxlLm1hZT4nLCAnLW9tYWUnLCAnPG91dGZpbGUubWFlPic=

>  <r_lp_tautomer_probability>  (101) 
1

>  <r_epik_Ionization_Penalty>  (101) 
0.00029735

>  <r_epik_Ionization_Penalty_Charging>  (101) 
0

>  <r_epik_Ionization_Penalty_Neutral>  (101) 
0.00029735

>  <r_epik_State_Penalty>  (101) 
0.000178646

>  <r_epik_Charging_Adjusted_Penalty>  (101) 
0.000178646

>  <i_epik_Tot_Q>  (101) 
0

>  <i_epik_Tot_abs_Q>  (101) 
0

>  <s_epik_Chemistry_Notes>  (101) 
This compound has an ester and may undergo hydrolysis at high or low pH.

>  <s_lp_Force_Field>  (101) 
OPLS3e

>  <r_lp_Energy>  (101) 
42.7327

>  <b_lp_Chiralities_Consistent>  (101) 
1

>  <s_lp_Variant>  (101) 
29:0-1

>  <s_i_glide_gridfile>  (101) 
pfpi4k_grid

>  <i_i_glide_lignum>  (101) 
7

>  <i_i_glide_rotatable_bonds>  (101) 
1

>  <r_i_docking_score>  (101) 
-4.09694

>  <r_i_glide_ligand_efficiency>  (101) 
-0.195092

>  <r_i_glide_ligand_efficiency_sa>  (101) 
-0.538244

>  <r_i_glide_ligand_efficiency_ln>  (101) 
-1.01296

>  <r_i_glide_gscore>  (101) 
-4.09694

>  <r_i_glide_lipo>  (101) 
-0.568695

>  <r_i_glide_hbond>  (101) 
-0.32

>  <r_i_glide_metal>  (101) 
-0

>  <r_i_glide_rewards>  (101) 
-1.48409

>  <r_i_glide_evdw>  (101) 
-19.5782

>  <r_i_glide_ecoul>  (101) 
-4.87219

>  <r_i_glide_erotb>  (101) 
0

>  <r_i_glide_esite>  (101) 
-0.014413

>  <r_i_glide_emodel>  (101) 
-28.6362

>  <r_i_glide_energy>  (101) 
-24.4504

>  <r_i_glide_einternal>  (101) 
2.58504

>  <r_i_glide_intrahb_reward>  (101) 
-0

>  <i_i_glide_confnum>  (101) 
2

>  <i_i_glide_posenum>  (101) 
8

>  <r_i_glide_eff_state_penalty>  (101) 
0

>  <ligand_id>  (101) 
29

>  <original_smiles>  (101) 
CC1=C2C(=O)OC2C2c3ccc(O)cc3CCC2C12CC2

>  <smiles>  (101) 
[H]Oc1c([H])c([H])c2c(c1[H])C([H])([H])C([H])([H])C1([H])C2([H])C2([H])OC(=O)C2=C(C([H])([H])[H])C12C([H])([H])C2([H])[H]

$$$$
29:0:1
     RDKit          3D

 39 43  0  0  1  0  0  0  0  0999 V2000
    1.6675   -0.6036    5.4891 C   0  0  0  0  0  0  0  0  0  0  0  0
    2.8483   -1.3913    4.9554 C   0  0  0  0  0  0  0  0  0  0  0  0
    2.8505   -2.6401    4.4776 C   0  0  0  0  0  0  0  0  0  0  0  0
    1.8826   -3.5932    4.0587 C   0  0  0  0  0  0  0  0  0  0  0  0
    0.6783   -3.7667    4.3015 O   0  0  0  0  0  0  0  0  0  0  0  0
    2.7790   -4.1844    3.1999 O   0  0  0  0  0  0  0  0  0  0  0  0
    3.8570   -3.4259    3.7962 C   0  0  1  0  0  0  0  0  0  0  0  0
    4.7977   -2.5103    2.9523 C   0  0  1  0  0  0  0  0  0  0  0  0
    4.7546   -2.8349    1.4580 C   0  0  0  0  0  0  0  0  0  0  0  0
    4.9207   -4.1829    1.0474 C   0  0  0  0  0  0  0  0  0  0  0  0
    4.8732   -4.5239   -0.3238 C   0  0  0  0  0  0  0  0  0  0  0  0
    4.6824   -3.5220   -1.3009 C   0  0  0  0  0  0  0  0  0  0  0  0
    4.6164   -3.8578   -2.6121 O   0  0  0  0  0  0  0  0  0  0  0  0
    4.5493   -2.1658   -0.9020 C   0  0  0  0  0  0  0  0  0  0  0  0
    4.5958   -1.8284    0.4737 C   0  0  0  0  0  0  0  0  0  0  0  0
    4.4700   -0.3762    0.8661 C   0  0  0  0  0  0  0  0  0  0  0  0
    3.8733   -0.2006    2.2598 C   0  0  0  0  0  0  0  0  0  0  0  0
    4.6878   -0.9763    3.3156 C   0  0  1  0  0  0  0  0  0  0  0  0
    4.1386   -0.7001    4.7288 C   0  0  0  0  0  0  0  0  0  0  0  0
    4.4606    0.6186    5.4297 C   0  0  0  0  0  0  0  0  0  0  0  0
    5.1419   -0.6427    5.8815 C   0  0  0  0  0  0  0  0  0  0  0  0
    1.5571    0.3309    4.9427 H   0  0  0  0  0  0  0  0  0  0  0  0
    1.8219   -0.3551    6.5379 H   0  0  0  0  0  0  0  0  0  0  0  0
    0.7329   -1.1545    5.4051 H   0  0  0  0  0  0  0  0  0  0  0  0
    4.4520   -4.0502    4.4841 H   0  0  0  0  0  0  0  0  0  0  0  0
    5.8110   -2.7808    3.2392 H   0  0  0  0  0  0  0  0  0  0  0  0
    5.0687   -4.9570    1.7744 H   0  0  0  0  0  0  0  0  0  0  0  0
    4.9810   -5.5521   -0.6237 H   0  0  0  0  0  0  0  0  0  0  0  0
    4.3253   -4.7525   -2.7222 H   0  0  0  0  0  0  0  0  0  0  0  0
    4.3979   -1.4075   -1.6447 H   0  0  0  0  0  0  0  0  0  0  0  0
    5.4649    0.0773    0.8270 H   0  0  0  0  0  0  0  0  0  0  0  0
    3.8549    0.1408    0.1335 H   0  0  0  0  0  0  0  0  0  0  0  0
    3.8164    0.8581    2.5149 H   0  0  0  0  0  0  0  0  0  0  0  0
    2.8441   -0.5718    2.2458 H   0  0  0  0  0  0  0  0  0  0  0  0
    5.6975   -0.5593    3.2685 H   0  0  0  0  0  0  0  0  0  0  0  0
    5.0719    1.3413    4.9044 H   0  0  0  0  0  0  0  0  0  0  0  0
    3.7241    1.0440    6.1096 H   0  0  0  0  0  0  0  0  0  0  0  0
    4.8364   -1.0685    6.8377 H   0  0  0  0  0  0  0  0  0  0  0  0
    6.2037   -0.7169    5.6583 H   0  0  0  0  0  0  0  0  0  0  0  0
  1  2  1  0
  1 22  1  0
  1 23  1  0
  1 24  1  0
  2 19  1  0
  2  3  2  0
  3  7  1  0
  3  4  1  0
  4  5  2  0
  4  6  1  0
  6  7  1  0
  7  8  1  0
  7 25  1  1
  8 18  1  0
  8  9  1  0
  8 26  1  1
  9 15  2  0
  9 10  1  0
 10 11  2  0
 10 27  1  0
 11 12  1  0
 11 28  1  0
 12 13  1  0
 12 14  2  0
 13 29  1  0
 14 15  1  0
 14 30  1  0
 15 16  1  0
 16 17  1  0
 16 31  1  0
 16 32  1  0
 17 18  1  0
 17 33  1  0
 17 34  1  0
 18 19  1  0
 18 35  1  1
 19 21  1  0
 19 20  1  0
 20 21  1  0
 20 36  1  0
 20 37  1  0
 21 38  1  0
 21 39  1  0
M  END
>  <i_m_ct_stereo_status>  (102) 
1

>  <s_m_source_file>  (102) 
/var/tmp/pbs.5076255.sched01/tmppm3sokcv/34yi_btuhz.sdf

>  <i_m_source_file_index>  (102) 
7

>  <i_lp_mmshare_version>  (102) 
48012

>  <i_f3d_flags>  (102) 
0

>  <s_epik_input>  (102) 
W0NIM11DMT1DKEMoPU8pTzIpW0NAQEhdMltDQEhdKFtDQEBIXTNDMTRbQ0gyXVtDSDJdNCljNWMoW0NIMl1bQ0gyXTMpW2NIXWMoW09IXSlbY0hdW2NIXTU=

>  <s_epik_cmdline>  (102) 
J2VwaWtfcHl0aG9uJywgJy1waHQnLCAnMi4wJywgJy1waCcsICc3LjAnLCAnLXRuJywgJzgnLCAnLW1hJywgJzIwMCcsICctaW1hZScsICc8aW5maWxlLm1hZT4nLCAnLW9tYWUnLCAnPG91dGZpbGUubWFlPic=

>  <r_lp_tautomer_probability>  (102) 
1

>  <r_epik_Ionization_Penalty>  (102) 
0.00029735

>  <r_epik_Ionization_Penalty_Charging>  (102) 
0

>  <r_epik_Ionization_Penalty_Neutral>  (102) 
0.00029735

>  <r_epik_State_Penalty>  (102) 
0.000178646

>  <r_epik_Charging_Adjusted_Penalty>  (102) 
0.000178646

>  <i_epik_Tot_Q>  (102) 
0

>  <i_epik_Tot_abs_Q>  (102) 
0

>  <s_epik_Chemistry_Notes>  (102) 
This compound has an ester and may undergo hydrolysis at high or low pH.

>  <s_lp_Force_Field>  (102) 
OPLS3e

>  <r_lp_Energy>  (102) 
42.7327

>  <b_lp_Chiralities_Consistent>  (102) 
1

>  <s_lp_Variant>  (102) 
29:0-1

>  <s_i_glide_gridfile>  (102) 
pfpi4k_grid

>  <i_i_glide_lignum>  (102) 
7

>  <i_i_glide_rotatable_bonds>  (102) 
1

>  <r_i_docking_score>  (102) 
-3.55429

>  <r_i_glide_ligand_efficiency>  (102) 
-0.169252

>  <r_i_glide_ligand_efficiency_sa>  (102) 
-0.466953

>  <r_i_glide_ligand_efficiency_ln>  (102) 
-0.87879

>  <r_i_glide_gscore>  (102) 
-3.55429

>  <r_i_glide_lipo>  (102) 
-0.416089

>  <r_i_glide_hbond>  (102) 
-0.32

>  <r_i_glide_metal>  (102) 
-0

>  <r_i_glide_rewards>  (102) 
-1.49285

>  <r_i_glide_evdw>  (102) 
-18.7128

>  <r_i_glide_ecoul>  (102) 
-2.59801

>  <r_i_glide_erotb>  (102) 
0

>  <r_i_glide_esite>  (102) 
0

>  <r_i_glide_emodel>  (102) 
-26.4071

>  <r_i_glide_energy>  (102) 
-21.3108

>  <r_i_glide_einternal>  (102) 
0.623272

>  <r_i_glide_intrahb_reward>  (102) 
-0

>  <i_i_glide_confnum>  (102) 
1

>  <i_i_glide_posenum>  (102) 
13

>  <r_i_glide_eff_state_penalty>  (102) 
0

>  <ligand_id>  (102) 
29

>  <original_smiles>  (102) 
CC1=C2C(=O)OC2C2c3ccc(O)cc3CCC2C12CC2

>  <smiles>  (102) 
[H]Oc1c([H])c([H])c2c(c1[H])C([H])([H])C([H])([H])C1([H])C2([H])C2([H])OC(=O)C2=C(C([H])([H])[H])C12C([H])([H])C2([H])[H]

$$$$
29:0:2
     RDKit          3D

 39 43  0  0  1  0  0  0  0  0999 V2000
    5.1755   -4.8219    4.2607 C   0  0  0  0  0  0  0  0  0  0  0  0
    4.9640   -5.1261    2.7923 C   0  0  0  0  0  0  0  0  0  0  0  0
    3.8390   -4.9712    2.0998 C   0  0  0  0  0  0  0  0  0  0  0  0
    2.5772   -4.3280    2.2758 C   0  0  0  0  0  0  0  0  0  0  0  0
    1.9286   -3.9711    3.2500 O   0  0  0  0  0  0  0  0  0  0  0  0
    2.4118   -4.1747    0.9213 O   0  0  0  0  0  0  0  0  0  0  0  0
    3.5484   -5.0828    0.6626 C   0  0  1  0  0  0  0  0  0  0  0  0
    4.7752   -4.6345   -0.1850 C   0  0  1  0  0  0  0  0  0  0  0  0
    4.4746   -3.4080   -1.0579 C   0  0  0  0  0  0  0  0  0  0  0  0
    3.3200   -3.4029   -1.8637 C   0  0  0  0  0  0  0  0  0  0  0  0
    3.0209   -2.3170   -2.7046 C   0  0  0  0  0  0  0  0  0  0  0  0
    3.8833   -1.2041   -2.7343 C   0  0  0  0  0  0  0  0  0  0  0  0
    3.6157   -0.1497   -3.5451 O   0  0  0  0  0  0  0  0  0  0  0  0
    5.0331   -1.1922   -1.9229 C   0  0  0  0  0  0  0  0  0  0  0  0
    5.3496   -2.2951   -1.1051 C   0  0  0  0  0  0  0  0  0  0  0  0
    6.6317   -2.2756   -0.2945 C   0  0  0  0  0  0  0  0  0  0  0  0
    6.5093   -3.1215    0.9683 C   0  0  0  0  0  0  0  0  0  0  0  0
    6.1163   -4.5725    0.6407 C   0  0  1  0  0  0  0  0  0  0  0  0
    6.1293   -5.4433    1.9169 C   0  0  0  0  0  0  0  0  0  0  0  0
    7.4346   -5.9153    2.5310 C   0  0  0  0  0  0  0  0  0  0  0  0
    6.5411   -6.8965    1.8125 C   0  0  0  0  0  0  0  0  0  0  0  0
    5.9946   -4.1186    4.3896 H   0  0  0  0  0  0  0  0  0  0  0  0
    5.4433   -5.7331    4.7949 H   0  0  0  0  0  0  0  0  0  0  0  0
    4.2931   -4.3962    4.7373 H   0  0  0  0  0  0  0  0  0  0  0  0
    3.1897   -6.0748    0.3626 H   0  0  0  0  0  0  0  0  0  0  0  0
    4.9224   -5.4345   -0.8970 H   0  0  0  0  0  0  0  0  0  0  0  0
    2.6474   -4.2441   -1.8455 H   0  0  0  0  0  0  0  0  0  0  0  0
    2.1350   -2.3392   -3.3165 H   0  0  0  0  0  0  0  0  0  0  0  0
    2.6860   -0.0415   -3.7078 H   0  0  0  0  0  0  0  0  0  0  0  0
    5.6780   -0.3289   -1.9500 H   0  0  0  0  0  0  0  0  0  0  0  0
    7.4453   -2.6541   -0.9192 H   0  0  0  0  0  0  0  0  0  0  0  0
    6.8834   -1.2520   -0.0159 H   0  0  0  0  0  0  0  0  0  0  0  0
    7.4531   -3.1122    1.5152 H   0  0  0  0  0  0  0  0  0  0  0  0
    5.7607   -2.6711    1.6220 H   0  0  0  0  0  0  0  0  0  0  0  0
    6.9053   -4.9613    0.0089 H   0  0  0  0  0  0  0  0  0  0  0  0
    8.3511   -5.6454    2.0216 H   0  0  0  0  0  0  0  0  0  0  0  0
    7.5132   -6.0406    3.6044 H   0  0  0  0  0  0  0  0  0  0  0  0
    6.0079   -7.6288    2.4127 H   0  0  0  0  0  0  0  0  0  0  0  0
    6.9315   -7.2595    0.8716 H   0  0  0  0  0  0  0  0  0  0  0  0
  1  2  1  0
  1 22  1  0
  1 23  1  0
  1 24  1  0
  2 19  1  0
  2  3  2  0
  3  7  1  0
  3  4  1  0
  4  5  2  0
  4  6  1  0
  6  7  1  0
  7  8  1  0
  7 25  1  1
  8 18  1  0
  8  9  1  0
  8 26  1  6
  9 15  2  0
  9 10  1  0
 10 11  2  0
 10 27  1  0
 11 12  1  0
 11 28  1  0
 12 13  1  0
 12 14  2  0
 13 29  1  0
 14 15  1  0
 14 30  1  0
 15 16  1  0
 16 17  1  0
 16 31  1  0
 16 32  1  0
 17 18  1  0
 17 33  1  0
 17 34  1  0
 18 19  1  0
 18 35  1  6
 19 21  1  0
 19 20  1  0
 20 21  1  0
 20 36  1  0
 20 37  1  0
 21 38  1  0
 21 39  1  0
M  END
>  <i_m_ct_stereo_status>  (103) 
1

>  <s_m_source_file>  (103) 
/var/tmp/pbs.5076255.sched01/tmppm3sokcv/34yi_btuhz.sdf

>  <i_m_source_file_index>  (103) 
7

>  <i_lp_mmshare_version>  (103) 
48012

>  <i_f3d_flags>  (103) 
0

>  <s_epik_input>  (103) 
W0NIM11DMT1DKEMoPU8pTzIpW0NAQEhdMltDQEhdKFtDQEBIXTNDMTRbQ0gyXVtDSDJdNCljNWMoW0NIMl1bQ0gyXTMpW2NIXWMoW09IXSlbY0hdW2NIXTU=

>  <s_epik_cmdline>  (103) 
J2VwaWtfcHl0aG9uJywgJy1waHQnLCAnMi4wJywgJy1waCcsICc3LjAnLCAnLXRuJywgJzgnLCAnLW1hJywgJzIwMCcsICctaW1hZScsICc8aW5maWxlLm1hZT4nLCAnLW9tYWUnLCAnPG91dGZpbGUubWFlPic=

>  <r_lp_tautomer_probability>  (103) 
1

>  <r_epik_Ionization_Penalty>  (103) 
0.00029735

>  <r_epik_Ionization_Penalty_Charging>  (103) 
0

>  <r_epik_Ionization_Penalty_Neutral>  (103) 
0.00029735

>  <r_epik_State_Penalty>  (103) 
0.000178646

>  <r_epik_Charging_Adjusted_Penalty>  (103) 
0.000178646

>  <i_epik_Tot_Q>  (103) 
0

>  <i_epik_Tot_abs_Q>  (103) 
0

>  <s_epik_Chemistry_Notes>  (103) 
This compound has an ester and may undergo hydrolysis at high or low pH.

>  <s_lp_Force_Field>  (103) 
OPLS3e

>  <r_lp_Energy>  (103) 
42.7327

>  <b_lp_Chiralities_Consistent>  (103) 
1

>  <s_lp_Variant>  (103) 
29:0-1

>  <s_i_glide_gridfile>  (103) 
pfpi4k_grid

>  <i_i_glide_lignum>  (103) 
7

>  <i_i_glide_rotatable_bonds>  (103) 
1

>  <r_i_docking_score>  (103) 
-3.1025

>  <r_i_glide_ligand_efficiency>  (103) 
-0.147738

>  <r_i_glide_ligand_efficiency_sa>  (103) 
-0.407598

>  <r_i_glide_ligand_efficiency_ln>  (103) 
-0.767086

>  <r_i_glide_gscore>  (103) 
-3.1025

>  <r_i_glide_lipo>  (103) 
-0.372038

>  <r_i_glide_hbond>  (103) 
0

>  <r_i_glide_metal>  (103) 
-0

>  <r_i_glide_rewards>  (103) 
-1.48409

>  <r_i_glide_evdw>  (103) 
-22.7883

>  <r_i_glide_ecoul>  (103) 
-0.663959

>  <r_i_glide_erotb>  (103) 
0

>  <r_i_glide_esite>  (103) 
-0.00736026

>  <r_i_glide_emodel>  (103) 
-27.7972

>  <r_i_glide_energy>  (103) 
-23.4522

>  <r_i_glide_einternal>  (103) 
0.54965

>  <r_i_glide_intrahb_reward>  (103) 
-0

>  <i_i_glide_confnum>  (103) 
1

>  <i_i_glide_posenum>  (103) 
18

>  <r_i_glide_eff_state_penalty>  (103) 
0

>  <ligand_id>  (103) 
29

>  <original_smiles>  (103) 
CC1=C2C(=O)OC2C2c3ccc(O)cc3CCC2C12CC2

>  <smiles>  (103) 
[H]Oc1c([H])c([H])c2c(c1[H])C([H])([H])C([H])([H])C1([H])C2([H])C2([H])OC(=O)C2=C(C([H])([H])[H])C12C([H])([H])C2([H])[H]

$$$$
30:0:0
     RDKit          3D

 63 69  0  0  1  0  0  0  0  0999 V2000
    8.6710   -6.2081    0.9336 C   0  0  0  0  0  0  0  0  0  0  0  0
    7.8286   -5.1566    0.4838 O   0  0  0  0  0  0  0  0  0  0  0  0
    7.2922   -4.3837    1.5543 C   0  0  0  0  0  0  0  0  0  0  0  0
    5.8463   -3.9270    1.2597 C   0  0  2  0  0  0  0  0  0  0  0  0
    6.0500   -3.0019    0.1616 O   0  0  0  0  0  0  0  0  0  0  0  0
    6.2166   -1.5929    0.2925 C   0  0  0  0  0  0  0  0  0  0  0  0
    4.9771   -1.2925    1.0680 C   0  0  2  0  0  0  0  0  0  0  0  0
    4.0662   -0.0309    1.2072 C   0  0  0  0  0  0  0  0  0  0  0  0
    2.9544   -1.0918    1.4209 C   0  0  2  0  0  0  0  0  0  0  0  0
    2.7840   -1.9649    2.7063 C   0  0  0  0  0  0  0  0  0  0  0  0
    3.6281   -3.3446    2.9079 C   0  0  2  0  0  0  0  0  0  0  0  0
    5.1601   -3.4676    2.6030 C   0  0  2  0  0  0  0  0  0  0  0  0
    5.7457   -2.3770    3.1073 O   0  0  0  0  0  0  0  0  0  0  0  0
    5.5756   -1.2399    2.5208 C   0  0  0  0  0  0  0  0  0  0  0  0
    6.0122   -0.2475    3.1014 O   0  0  0  0  0  0  0  0  0  0  0  0
    3.0260   -4.7426    2.5842 C   0  0  1  0  0  0  0  0  0  0  0  0
    1.6024   -4.7004    2.5992 O   0  0  0  0  0  0  0  0  0  0  0  0
    1.0196   -4.7920    3.8865 C   0  0  0  0  0  0  0  0  0  0  0  0
    3.5704   -5.3481    1.2769 C   0  0  1  0  0  0  0  0  0  0  0  0
    3.1011   -6.8109    1.3104 C   0  0  0  0  0  0  0  0  0  0  0  0
    4.1718   -7.9148    1.4940 C   0  0  0  0  0  0  0  0  0  0  0  0
    1.9343   -7.2092    1.2722 O   0  0  0  0  0  0  0  0  0  0  0  0
    3.1477   -4.5854    0.0013 C   0  0  1  0  0  0  0  0  0  0  0  0
    2.6918   -3.1402    0.0942 C   0  0  0  0  0  0  0  0  0  0  0  0
    3.6027   -1.8357    0.2836 C   0  0  2  0  0  0  0  0  0  0  0  0
    3.6067   -1.3471   -1.2189 C   0  0  0  0  0  0  0  0  0  0  0  0
    4.5209   -2.0098   -2.0943 O   0  0  0  0  0  0  0  0  0  0  0  0
    4.1464   -3.2703   -2.6143 C   0  0  0  0  0  0  0  0  0  0  0  0
    4.9948   -4.3873   -1.9735 C   0  0  0  0  0  0  0  0  0  0  0  0
    4.4317   -5.0256   -0.6871 C   0  0  1  0  0  0  0  0  0  0  0  0
    5.0329   -5.0876    0.7258 C   0  0  1  0  0  0  0  0  0  0  0  0
    9.0574   -6.7493    0.0712 H   0  0  0  0  0  0  0  0  0  0  0  0
    8.1171   -6.9197    1.5511 H   0  0  0  0  0  0  0  0  0  0  0  0
    9.5117   -5.8306    1.5211 H   0  0  0  0  0  0  0  0  0  0  0  0
    7.3161   -4.9641    2.4757 H   0  0  0  0  0  0  0  0  0  0  0  0
    7.9484   -3.5284    1.6826 H   0  0  0  0  0  0  0  0  0  0  0  0
    7.1677   -1.3454    0.7625 H   0  0  0  0  0  0  0  0  0  0  0  0
    6.2266   -1.1096   -0.6858 H   0  0  0  0  0  0  0  0  0  0  0  0
    4.0981    0.6008    2.1036 H   0  0  0  0  0  0  0  0  0  0  0  0
    3.9955    0.6446    0.3682 H   0  0  0  0  0  0  0  0  0  0  0  0
    2.0092   -0.6262    1.0929 H   0  0  0  0  0  0  0  0  0  0  0  0
    3.0183   -1.3391    3.5664 H   0  0  0  0  0  0  0  0  0  0  0  0
    1.7284   -2.1773    2.8580 H   0  0  0  0  0  0  0  0  0  0  0  0
    3.6030   -3.3714    4.0002 H   0  0  0  0  0  0  0  0  0  0  0  0
    5.4503   -4.2446    3.2993 H   0  0  0  0  0  0  0  0  0  0  0  0
    3.3477   -5.4053    3.3836 H   0  0  0  0  0  0  0  0  0  0  0  0
   -0.0628   -4.8047    3.8028 H   0  0  0  0  0  0  0  0  0  0  0  0
    1.2913   -3.9426    4.5107 H   0  0  0  0  0  0  0  0  0  0  0  0
    1.3009   -5.7179    4.3856 H   0  0  0  0  0  0  0  0  0  0  0  0
    4.8902   -7.6408    2.2735 H   0  0  0  0  0  0  0  0  0  0  0  0
    4.7101   -8.0933    0.5546 H   0  0  0  0  0  0  0  0  0  0  0  0
    3.7071   -8.8632    1.7860 H   0  0  0  0  0  0  0  0  0  0  0  0
    2.3372   -5.1558   -0.4770 H   0  0  0  0  0  0  0  0  0  0  0  0
    2.0591   -3.0124   -0.7684 H   0  0  0  0  0  0  0  0  0  0  0  0
    1.8646   -3.1080    0.7914 H   0  0  0  0  0  0  0  0  0  0  0  0
    2.6329   -1.2415   -1.6819 H   0  0  0  0  0  0  0  0  0  0  0  0
    4.0327   -0.3587   -1.3288 H   0  0  0  0  0  0  0  0  0  0  0  0
    3.0735   -3.4657   -2.6083 H   0  0  0  0  0  0  0  0  0  0  0  0
    4.4143   -3.2230   -3.6727 H   0  0  0  0  0  0  0  0  0  0  0  0
    5.0183   -5.1424   -2.7457 H   0  0  0  0  0  0  0  0  0  0  0  0
    6.0302   -4.0692   -1.8877 H   0  0  0  0  0  0  0  0  0  0  0  0
    4.3359   -6.0913   -0.9184 H   0  0  0  0  0  0  0  0  0  0  0  0
    5.6088   -6.0138    0.7753 H   0  0  0  0  0  0  0  0  0  0  0  0
  1  2  1  0
  1 32  1  0
  1 33  1  0
  1 34  1  0
  2  3  1  0
  4  3  1  1
  3 35  1  0
  3 36  1  0
  4 12  1  0
  4 31  1  0
  4  5  1  0
  5  6  1  0
  7  6  1  6
  6 37  1  0
  6 38  1  0
  7 14  1  0
  7 25  1  0
  7  8  1  0
  8  9  1  0
  8 39  1  0
  8 40  1  0
  9 25  1  0
  9 10  1  0
  9 41  1  6
 10 11  1  0
 10 42  1  0
 10 43  1  0
 11 12  1  0
 11 16  1  0
 11 44  1  1
 12 13  1  0
 12 45  1  1
 13 14  1  0
 14 15  2  0
 16 17  1  0
 16 19  1  0
 16 46  1  1
 17 18  1  0
 18 47  1  0
 18 48  1  0
 18 49  1  0
 19 31  1  0
 19 20  1  6
 19 23  1  0
 20 21  1  0
 20 22  2  0
 21 50  1  0
 21 51  1  0
 21 52  1  0
 23 30  1  0
 23 24  1  0
 23 53  1  6
 24 25  1  0
 24 54  1  0
 24 55  1  0
 25 26  1  6
 26 27  1  0
 26 56  1  0
 26 57  1  0
 27 28  1  0
 28 29  1  0
 28 58  1  0
 28 59  1  0
 29 30  1  0
 29 60  1  0
 29 61  1  0
 30 31  1  0
 30 62  1  6
 31 63  1  6
M  END
>  <i_m_ct_stereo_status>  (104) 
1

>  <s_m_source_file>  (104) 
/var/tmp/pbs.5076255.sched01/tmppm3sokcv/34yi_btuhz.sdf

>  <i_m_source_file_index>  (104) 
8

>  <i_lp_mmshare_version>  (104) 
48012

>  <i_f3d_flags>  (104) 
0

>  <s_epik_input>  (104) 
W0NAXTEyM1tDQF00NVtDQEhdKFtDSDJdMilbQ0gyXVtDQEBIXTZbQ0BIXShPQzM9TylbQ0BAXShPW0NIMl0xKShbQ0gyXU9bQ0gzXSlbQ0BIXTdbQ0BAXShDKD1PKVtDSDNdKShbQ0BASF02T1tDSDNdKVtDQEBIXShbQ0gyXTQpW0NASF03W0NIMl1bQ0gyXU9bQ0gyXTU=

>  <s_epik_cmdline>  (104) 
J2VwaWtfcHl0aG9uJywgJy1waHQnLCAnMi4wJywgJy1waCcsICc3LjAnLCAnLXRuJywgJzgnLCAnLW1hJywgJzIwMCcsICctaW1hZScsICc8aW5maWxlLm1hZT4nLCAnLW9tYWUnLCAnPG91dGZpbGUubWFlPic=

>  <r_lp_tautomer_probability>  (104) 
1

>  <r_epik_Ionization_Penalty>  (104) 
2.34882e-11

>  <r_epik_Ionization_Penalty_Charging>  (104) 
0

>  <r_epik_Ionization_Penalty_Neutral>  (104) 
2.34882e-11

>  <r_epik_State_Penalty>  (104) 
-0

>  <r_epik_Charging_Adjusted_Penalty>  (104) 
0

>  <i_epik_Tot_Q>  (104) 
0

>  <i_epik_Tot_abs_Q>  (104) 
0

>  <s_epik_Chemistry_Notes>  (104) 
This compound has an ester and may undergo hydrolysis at high or low pH.

>  <s_lp_Force_Field>  (104) 
OPLS3e

>  <r_lp_Energy>  (104) 
228.733

>  <b_lp_Chiralities_Consistent>  (104) 
1

>  <s_lp_Variant>  (104) 
30:0-1

>  <s_i_glide_gridfile>  (104) 
pfpi4k_grid

>  <i_i_glide_lignum>  (104) 
8

>  <i_i_glide_rotatable_bonds>  (104) 
4

>  <r_i_docking_score>  (104) 
-2.52122

>  <r_i_glide_ligand_efficiency>  (104) 
-0.0813296

>  <r_i_glide_ligand_efficiency_sa>  (104) 
-0.255487

>  <r_i_glide_ligand_efficiency_ln>  (104) 
-0.568612

>  <r_i_glide_gscore>  (104) 
-2.52122

>  <r_i_glide_lipo>  (104) 
-0.480751

>  <r_i_glide_hbond>  (104) 
-0.0500622

>  <r_i_glide_metal>  (104) 
-0

>  <r_i_glide_rewards>  (104) 
-0.684536

>  <r_i_glide_evdw>  (104) 
-19.309

>  <r_i_glide_ecoul>  (104) 
-2.97864

>  <r_i_glide_erotb>  (104) 
0.106377

>  <r_i_glide_esite>  (104) 
0

>  <r_i_glide_emodel>  (104) 
-21.975

>  <r_i_glide_energy>  (104) 
-22.2877

>  <r_i_glide_einternal>  (104) 
5.26925

>  <r_i_glide_intrahb_reward>  (104) 
-0

>  <i_i_glide_confnum>  (104) 
3

>  <i_i_glide_posenum>  (104) 
13

>  <r_i_glide_eff_state_penalty>  (104) 
0

>  <ligand_id>  (104) 
30

>  <original_smiles>  (104) 
COCC12OCC34CC5CC(C1OC3=O)C(OC)C1(C(C)=O)C3CC54COCCC3C21

>  <smiles>  (104) 
[H]C([H])([H])OC([H])([H])C12OC([H])([H])C34C(=O)OC1([H])C1([H])C([H])([H])C([H])(C3([H])[H])C43C([H])([H])OC([H])([H])C([H])([H])C4([H])C([H])(C3([H])[H])C(C(=O)C([H])([H])[H])(C1([H])OC([H])([H])[H])C42[H]

$$$$
30:0:1
     RDKit          3D

 63 69  0  0  1  0  0  0  0  0999 V2000
    9.5502   -3.1034    0.1795 C   0  0  0  0  0  0  0  0  0  0  0  0
    8.2107   -3.5134    0.0291 O   0  0  0  0  0  0  0  0  0  0  0  0
    7.4365   -3.1217    1.1251 C   0  0  0  0  0  0  0  0  0  0  0  0
    5.9497   -3.3386    0.9159 C   0  0  2  0  0  0  0  0  0  0  0  0
    5.7269   -2.4030   -0.1712 O   0  0  0  0  0  0  0  0  0  0  0  0
    5.2915   -1.0474   -0.0389 C   0  0  0  0  0  0  0  0  0  0  0  0
    4.0756   -1.3010    0.8035 C   0  0  2  0  0  0  0  0  0  0  0  0
    2.7347   -0.5455    0.9818 C   0  0  0  0  0  0  0  0  0  0  0  0
    2.1983   -1.9750    1.2229 C   0  0  2  0  0  0  0  0  0  0  0  0
    2.4531   -2.8281    2.5132 C   0  0  0  0  0  0  0  0  0  0  0  0
    3.7912   -3.7224    2.6780 C   0  0  2  0  0  0  0  0  0  0  0  0
    5.2166   -3.1902    2.3078 C   0  0  2  0  0  0  0  0  0  0  0  0
    5.3689   -1.9379    2.7921 O   0  0  0  0  0  0  0  0  0  0  0  0
    4.6865   -0.9857    2.2384 C   0  0  0  0  0  0  0  0  0  0  0  0
    4.6513    0.0731    2.8164 O   0  0  0  0  0  0  0  0  0  0  0  0
    3.8005   -5.2285    2.3635 C   0  0  1  0  0  0  0  0  0  0  0  0
    2.4993   -5.8179    2.3977 O   0  0  0  0  0  0  0  0  0  0  0  0
    1.9813   -6.0282    3.7006 C   0  0  0  0  0  0  0  0  0  0  0  0
    4.5081   -5.5756    1.0234 C   0  0  1  0  0  0  0  0  0  0  0  0
    4.7968   -7.0975    1.0620 C   0  0  0  0  0  0  0  0  0  0  0  0
    5.9478   -7.5836    1.9569 C   0  0  0  0  0  0  0  0  0  0  0  0
    4.2256   -7.9841    0.4434 O   0  0  0  0  0  0  0  0  0  0  0  0
    3.7452   -5.0636   -0.2149 C   0  0  1  0  0  0  0  0  0  0  0  0
    2.7417   -3.9522   -0.1000 C   0  0  0  0  0  0  0  0  0  0  0  0
    3.0437   -2.3891    0.0352 C   0  0  2  0  0  0  0  0  0  0  0  0
    2.8298   -1.9610   -1.4907 C   0  0  0  0  0  0  0  0  0  0  0  0
    3.9203   -2.1302   -2.3771 O   0  0  0  0  0  0  0  0  0  0  0  0
    4.0450   -3.4153   -2.9147 C   0  0  0  0  0  0  0  0  0  0  0  0
    5.2636   -4.0732   -2.2742 C   0  0  0  0  0  0  0  0  0  0  0  0
    5.0425   -4.9277   -0.9830 C   0  0  1  0  0  0  0  0  0  0  0  0
    5.6934   -4.7392    0.4048 C   0  0  1  0  0  0  0  0  0  0  0  0
   10.0404   -3.5630   -0.6662 H   0  0  0  0  0  0  0  0  0  0  0  0
   10.0326   -3.4506    1.0988 H   0  0  0  0  0  0  0  0  0  0  0  0
    9.6611   -2.0223    0.1166 H   0  0  0  0  0  0  0  0  0  0  0  0
    7.7725   -3.7361    1.9540 H   0  0  0  0  0  0  0  0  0  0  0  0
    7.6119   -2.0530    1.2827 H   0  0  0  0  0  0  0  0  0  0  0  0
    6.0687   -0.4089    0.3946 H   0  0  0  0  0  0  0  0  0  0  0  0
    5.0532   -0.6064   -1.0054 H   0  0  0  0  0  0  0  0  0  0  0  0
    2.5293    0.0462    1.8777 H   0  0  0  0  0  0  0  0  0  0  0  0
    2.2976   -0.0078    0.1588 H   0  0  0  0  0  0  0  0  0  0  0  0
    1.1396   -1.9400    0.9904 H   0  0  0  0  0  0  0  0  0  0  0  0
    2.4067   -2.1592    3.3697 H   0  0  0  0  0  0  0  0  0  0  0  0
    1.5810   -3.4560    2.6701 H   0  0  0  0  0  0  0  0  0  0  0  0
    3.8182   -3.7392    3.7639 H   0  0  0  0  0  0  0  0  0  0  0  0
    5.8346   -3.7824    2.9750 H   0  0  0  0  0  0  0  0  0  0  0  0
    4.3811   -5.6928    3.1662 H   0  0  0  0  0  0  0  0  0  0  0  0
    1.0012   -6.4961    3.6246 H   0  0  0  0  0  0  0  0  0  0  0  0
    1.8594   -5.0928    4.2446 H   0  0  0  0  0  0  0  0  0  0  0  0
    2.6239   -6.6858    4.2846 H   0  0  0  0  0  0  0  0  0  0  0  0
    5.9459   -7.1115    2.9362 H   0  0  0  0  0  0  0  0  0  0  0  0
    6.9020   -7.4266    1.4554 H   0  0  0  0  0  0  0  0  0  0  0  0
    5.8236   -8.6617    2.1014 H   0  0  0  0  0  0  0  0  0  0  0  0
    3.2318   -5.9353   -0.5990 H   0  0  0  0  0  0  0  0  0  0  0  0
    2.0796   -4.1195   -0.9443 H   0  0  0  0  0  0  0  0  0  0  0  0
    2.0028   -4.2658    0.6187 H   0  0  0  0  0  0  0  0  0  0  0  0
    1.9427   -2.3865   -1.9824 H   0  0  0  0  0  0  0  0  0  0  0  0
    2.6838   -0.8885   -1.6100 H   0  0  0  0  0  0  0  0  0  0  0  0
    3.1266   -3.9783   -2.8606 H   0  0  0  0  0  0  0  0  0  0  0  0
    4.2208   -3.3047   -3.9837 H   0  0  0  0  0  0  0  0  0  0  0  0
    5.5691   -4.6690   -3.0989 H   0  0  0  0  0  0  0  0  0  0  0  0
    6.0928   -3.3643   -2.1941 H   0  0  0  0  0  0  0  0  0  0  0  0
    5.2723   -5.9398   -1.2558 H   0  0  0  0  0  0  0  0  0  0  0  0
    6.5973   -5.3574    0.4426 H   0  0  0  0  0  0  0  0  0  0  0  0
  1  2  1  0
  1 32  1  0
  1 33  1  0
  1 34  1  0
  2  3  1  0
  4  3  1  1
  3 35  1  0
  3 36  1  0
  4 12  1  0
  4 31  1  0
  4  5  1  0
  5  6  1  0
  7  6  1  6
  6 37  1  0
  6 38  1  0
  7 14  1  0
  7 25  1  0
  7  8  1  0
  8  9  1  0
  8 39  1  0
  8 40  1  0
  9 25  1  0
  9 10  1  0
  9 41  1  6
 10 11  1  0
 10 42  1  0
 10 43  1  0
 11 12  1  0
 11 16  1  0
 11 44  1  1
 12 13  1  0
 12 45  1  1
 13 14  1  0
 14 15  2  0
 16 17  1  0
 16 19  1  0
 16 46  1  1
 17 18  1  0
 18 47  1  0
 18 48  1  0
 18 49  1  0
 19 31  1  0
 19 20  1  6
 19 23  1  0
 20 21  1  0
 20 22  2  0
 21 50  1  0
 21 51  1  0
 21 52  1  0
 23 30  1  0
 23 24  1  0
 23 53  1  6
 24 25  1  0
 24 54  1  0
 24 55  1  0
 25 26  1  6
 26 27  1  0
 26 56  1  0
 26 57  1  0
 27 28  1  0
 28 29  1  0
 28 58  1  0
 28 59  1  0
 29 30  1  0
 29 60  1  0
 29 61  1  0
 30 31  1  0
 30 62  1  6
 31 63  1  6
M  END
>  <i_m_ct_stereo_status>  (105) 
1

>  <s_m_source_file>  (105) 
/var/tmp/pbs.5076255.sched01/tmppm3sokcv/34yi_btuhz.sdf

>  <i_m_source_file_index>  (105) 
8

>  <i_lp_mmshare_version>  (105) 
48012

>  <i_f3d_flags>  (105) 
0

>  <s_epik_input>  (105) 
W0NAXTEyM1tDQF00NVtDQEhdKFtDSDJdMilbQ0gyXVtDQEBIXTZbQ0BIXShPQzM9TylbQ0BAXShPW0NIMl0xKShbQ0gyXU9bQ0gzXSlbQ0BIXTdbQ0BAXShDKD1PKVtDSDNdKShbQ0BASF02T1tDSDNdKVtDQEBIXShbQ0gyXTQpW0NASF03W0NIMl1bQ0gyXU9bQ0gyXTU=

>  <s_epik_cmdline>  (105) 
J2VwaWtfcHl0aG9uJywgJy1waHQnLCAnMi4wJywgJy1waCcsICc3LjAnLCAnLXRuJywgJzgnLCAnLW1hJywgJzIwMCcsICctaW1hZScsICc8aW5maWxlLm1hZT4nLCAnLW9tYWUnLCAnPG91dGZpbGUubWFlPic=

>  <r_lp_tautomer_probability>  (105) 
1

>  <r_epik_Ionization_Penalty>  (105) 
2.34882e-11

>  <r_epik_Ionization_Penalty_Charging>  (105) 
0

>  <r_epik_Ionization_Penalty_Neutral>  (105) 
2.34882e-11

>  <r_epik_State_Penalty>  (105) 
-0

>  <r_epik_Charging_Adjusted_Penalty>  (105) 
0

>  <i_epik_Tot_Q>  (105) 
0

>  <i_epik_Tot_abs_Q>  (105) 
0

>  <s_epik_Chemistry_Notes>  (105) 
This compound has an ester and may undergo hydrolysis at high or low pH.

>  <s_lp_Force_Field>  (105) 
OPLS3e

>  <r_lp_Energy>  (105) 
228.733

>  <b_lp_Chiralities_Consistent>  (105) 
1

>  <s_lp_Variant>  (105) 
30:0-1

>  <s_i_glide_gridfile>  (105) 
pfpi4k_grid

>  <i_i_glide_lignum>  (105) 
8

>  <i_i_glide_rotatable_bonds>  (105) 
4

>  <r_i_docking_score>  (105) 
-1.72539

>  <r_i_glide_ligand_efficiency>  (105) 
-0.0556578

>  <r_i_glide_ligand_efficiency_sa>  (105) 
-0.174842

>  <r_i_glide_ligand_efficiency_ln>  (105) 
-0.389129

>  <r_i_glide_gscore>  (105) 
-1.72539

>  <r_i_glide_lipo>  (105) 
-0.390481

>  <r_i_glide_hbond>  (105) 
-0.0263912

>  <r_i_glide_metal>  (105) 
-0

>  <r_i_glide_rewards>  (105) 
-0.688136

>  <r_i_glide_evdw>  (105) 
-7.21801

>  <r_i_glide_ecoul>  (105) 
-2.43908

>  <r_i_glide_erotb>  (105) 
0.106377

>  <r_i_glide_esite>  (105) 
0

>  <r_i_glide_emodel>  (105) 
-10.6777

>  <r_i_glide_energy>  (105) 
-9.65709

>  <r_i_glide_einternal>  (105) 
0.760748

>  <r_i_glide_intrahb_reward>  (105) 
-0

>  <i_i_glide_confnum>  (105) 
3

>  <i_i_glide_posenum>  (105) 
34

>  <r_i_glide_eff_state_penalty>  (105) 
0

>  <ligand_id>  (105) 
30

>  <original_smiles>  (105) 
COCC12OCC34CC5CC(C1OC3=O)C(OC)C1(C(C)=O)C3CC54COCCC3C21

>  <smiles>  (105) 
[H]C([H])([H])OC([H])([H])C12OC([H])([H])C34C(=O)OC1([H])C1([H])C([H])([H])C([H])(C3([H])[H])C43C([H])([H])OC([H])([H])C([H])([H])C4([H])C([H])(C3([H])[H])C(C(=O)C([H])([H])[H])(C1([H])OC([H])([H])[H])C42[H]

$$$$
32:0:0
     RDKit          3D

 58 63  0  0  1  0  0  0  0  0999 V2000
    9.9315   -7.8109    4.7686 C   0  0  0  0  0  0  0  0  0  0  0  0
    8.6351   -8.3777    4.6194 O   0  0  0  0  0  0  0  0  0  0  0  0
    8.6508   -9.7961    4.5077 C   0  0  0  0  0  0  0  0  0  0  0  0
    7.2220  -10.3353    4.2739 C   0  0  2  0  0  0  0  0  0  0  0  0
    6.6778   -9.8140    2.8780 C   0  0  0  0  0  0  0  0  0  0  0  0
    5.1316   -9.8881    2.6754 C   0  0  2  0  0  0  0  0  0  0  0  0
    4.8764  -11.2786    2.4769 O   0  0  0  0  0  0  0  0  0  0  0  0
    4.4492   -9.0416    1.5435 C   0  0  1  0  0  0  0  0  0  0  0  0
    2.8950   -9.2989    1.5227 C   0  0  0  0  0  0  0  0  0  0  0  0
    2.1735   -9.3561    2.8769 C   0  0  0  0  0  0  0  0  0  0  0  0
    0.7965   -9.3338    3.1623 C   0  0  0  0  0  0  0  0  0  0  0  0
    0.3761   -9.4705    4.5125 C   0  0  0  0  0  0  0  0  0  0  0  0
    1.2984   -9.6877    5.5798 C   0  0  0  0  0  0  0  0  0  0  0  0
    0.8399   -9.8572    6.8552 O   0  0  0  0  0  0  0  0  0  0  0  0
    2.6800   -9.7408    5.3027 C   0  0  0  0  0  0  0  0  0  0  0  0
    3.0175   -9.5199    3.9838 C   0  0  0  0  0  0  0  0  0  0  0  0
    4.4900   -9.4107    3.9702 C   0  0  2  0  0  0  0  0  0  0  0  0
    4.8431   -7.9069    4.1756 C   0  0  0  0  0  0  0  0  0  0  0  0
    4.3422   -7.0324    3.0228 C   0  0  0  0  0  0  0  0  0  0  0  0
    4.7687   -7.5813    1.7052 N   0  0  2  0  0  0  0  0  0  0  0  0
    4.3430   -6.7291    0.5573 C   0  0  0  0  0  0  0  0  0  0  0  0
    4.9252   -5.3210    0.5892 C   0  0  0  0  0  0  0  0  0  0  0  0
    4.0479   -4.1349    0.2427 C   0  0  0  0  0  0  0  0  0  0  0  0
    5.1391   -4.5629   -0.6986 C   0  0  0  0  0  0  0  0  0  0  0  0
    4.8387  -10.2851    5.1779 C   0  0  2  0  0  0  0  0  0  0  0  0
    3.7842   -9.9514    6.1076 O   0  0  0  0  0  0  0  0  0  0  0  0
    6.3152  -10.0779    5.5389 C   0  0  1  0  0  0  0  0  0  0  0  0
    6.6350  -11.0304    6.5322 O   0  0  0  0  0  0  0  0  0  0  0  0
    9.8558   -6.7264    4.8511 H   0  0  0  0  0  0  0  0  0  0  0  0
   10.5692   -8.0273    3.9105 H   0  0  0  0  0  0  0  0  0  0  0  0
   10.4326   -8.1715    5.6683 H   0  0  0  0  0  0  0  0  0  0  0  0
    9.2985  -10.0863    3.6819 H   0  0  0  0  0  0  0  0  0  0  0  0
    9.0822  -10.2261    5.4111 H   0  0  0  0  0  0  0  0  0  0  0  0
    7.3092  -11.4271    4.1784 H   0  0  0  0  0  0  0  0  0  0  0  0
    7.0266   -8.7968    2.6982 H   0  0  0  0  0  0  0  0  0  0  0  0
    7.1480  -10.4045    2.0959 H   0  0  0  0  0  0  0  0  0  0  0  0
    4.6204  -11.4955    1.5660 H   0  0  0  0  0  0  0  0  0  0  0  0
    4.8631   -9.3482    0.5823 H   0  0  0  0  0  0  0  0  0  0  0  0
    2.3786   -8.5839    0.8925 H   0  0  0  0  0  0  0  0  0  0  0  0
    2.7154  -10.2540    1.0289 H   0  0  0  0  0  0  0  0  0  0  0  0
    0.0718   -9.2152    2.3589 H   0  0  0  0  0  0  0  0  0  0  0  0
   -0.6779   -9.4445    4.7318 H   0  0  0  0  0  0  0  0  0  0  0  0
    1.0250  -10.7453    7.1882 H   0  0  0  0  0  0  0  0  0  0  0  0
    4.4302   -7.5276    5.1115 H   0  0  0  0  0  0  0  0  0  0  0  0
    5.9125   -7.7380    4.2692 H   0  0  0  0  0  0  0  0  0  0  0  0
    3.2616   -6.9183    3.0568 H   0  0  0  0  0  0  0  0  0  0  0  0
    4.7291   -6.0294    3.1625 H   0  0  0  0  0  0  0  0  0  0  0  0
    4.6344   -7.2045   -0.3796 H   0  0  0  0  0  0  0  0  0  0  0  0
    3.2591   -6.6362    0.5195 H   0  0  0  0  0  0  0  0  0  0  0  0
    5.6862   -5.1429    1.3431 H   0  0  0  0  0  0  0  0  0  0  0  0
    3.0191   -4.3182   -0.0658 H   0  0  0  0  0  0  0  0  0  0  0  0
    4.2042   -3.2091    0.7927 H   0  0  0  0  0  0  0  0  0  0  0  0
    6.0166   -3.9241   -0.7640 H   0  0  0  0  0  0  0  0  0  0  0  0
    4.8493   -5.0436   -1.6298 H   0  0  0  0  0  0  0  0  0  0  0  0
    4.6862  -11.3448    4.9492 H   0  0  0  0  0  0  0  0  0  0  0  0
    6.4693   -9.0812    5.9618 H   0  0  0  0  0  0  0  0  0  0  0  0
    6.0098  -10.9416    7.2394 H   0  0  0  0  0  0  0  0  0  0  0  0
    5.7747   -7.5301    1.7053 H   0  0  0  0  0  0  0  0  0  0  0  0
  1  2  1  0
  1 29  1  0
  1 30  1  0
  1 31  1  0
  2  3  1  0
  3  4  1  0
  3 32  1  0
  3 33  1  0
  4 27  1  0
  4  5  1  0
  4 34  1  6
  5  6  1  0
  5 35  1  0
  5 36  1  0
  6 17  1  0
  6  7  1  6
  6  8  1  0
  7 37  1  0
  8 20  1  0
  8  9  1  0
  8 38  1  6
  9 10  1  0
  9 39  1  0
  9 40  1  0
 10 16  2  0
 10 11  1  0
 11 12  2  0
 11 41  1  0
 12 13  1  0
 12 42  1  0
 13 14  1  0
 13 15  2  0
 14 43  1  0
 15 26  1  0
 15 16  1  0
 16 17  1  0
 17 18  1  1
 17 25  1  0
 18 19  1  0
 18 44  1  0
 18 45  1  0
 19 20  1  0
 19 46  1  0
 19 47  1  0
 20 21  1  0
 20 58  1  1
 21 22  1  0
 21 48  1  0
 21 49  1  0
 22 24  1  0
 22 23  1  0
 22 50  1  0
 23 24  1  0
 23 51  1  0
 23 52  1  0
 24 53  1  0
 24 54  1  0
 25 26  1  0
 25 27  1  0
 25 55  1  6
 27 28  1  0
 27 56  1  1
 28 57  1  0
M  CHG  1  20   1
M  END
>  <i_m_ct_stereo_status>  (106) 
1

>  <s_m_source_file>  (106) 
/var/tmp/pbs.5076255.sched01/tmppm3sokcv/34yi_btuhz.sdf

>  <i_m_source_file_index>  (106) 
10

>  <i_lp_mmshare_version>  (106) 
48012

>  <i_f3d_flags>  (106) 
0

>  <s_epik_input>  (106) 
W0NIM11PW0NIMl1bQ0BIXShbQ0gyXTEpW0NASF0oW09IXSlbQ0BIXTJPYyhjKFtPSF0pW2NIXVtjSF0zKWM0YzNbQ0gyXVtDQEhdKFtDQEBdMShbQ0BdMjQ1KVtPSF0pTihbQ0gyXVtDSDJdNSlbQ0gyXVtDSF02W0NIMl1bQ0gyXTY=

>  <s_epik_cmdline>  (106) 
J2VwaWtfcHl0aG9uJywgJy1waHQnLCAnMi4wJywgJy1waCcsICc3LjAnLCAnLXRuJywgJzgnLCAnLW1hJywgJzIwMCcsICctaW1hZScsICc8aW5maWxlLm1hZT4nLCAnLW9tYWUnLCAnPG91dGZpbGUubWFlPic=

>  <r_lp_tautomer_probability>  (106) 
1

>  <r_epik_Ionization_Penalty>  (106) 
0.0381123

>  <r_epik_Ionization_Penalty_Charging>  (106) 
0.0276459

>  <r_epik_Ionization_Penalty_Neutral>  (106) 
0.0104664

>  <r_epik_State_Penalty>  (106) 
0.0303466

>  <r_epik_Charging_Adjusted_Penalty>  (106) 
0.0579926

>  <i_epik_Tot_Q>  (106) 
1

>  <i_epik_Tot_abs_Q>  (106) 
1

>  <s_lp_Force_Field>  (106) 
OPLS3e

>  <r_lp_Energy>  (106) 
76.3785

>  <b_lp_Chiralities_Consistent>  (106) 
1

>  <s_lp_Variant>  (106) 
32:0-1

>  <s_i_glide_gridfile>  (106) 
pfpi4k_grid

>  <i_i_glide_lignum>  (106) 
10

>  <i_i_glide_rotatable_bonds>  (106) 
7

>  <r_i_docking_score>  (106) 
-3.41889

>  <r_i_glide_ligand_efficiency>  (106) 
-0.122103

>  <r_i_glide_ligand_efficiency_sa>  (106) 
-0.370778

>  <r_i_glide_ligand_efficiency_ln>  (106) 
-0.789181

>  <r_i_glide_gscore>  (106) 
-3.41889

>  <r_i_glide_lipo>  (106) 
-0.304106

>  <r_i_glide_hbond>  (106) 
-0.140783

>  <r_i_glide_metal>  (106) 
-0

>  <r_i_glide_rewards>  (106) 
-0.760382

>  <r_i_glide_evdw>  (106) 
-15.0137

>  <r_i_glide_ecoul>  (106) 
-12.3351

>  <r_i_glide_erotb>  (106) 
0.387327

>  <r_i_glide_esite>  (106) 
0

>  <r_i_glide_emodel>  (106) 
-31.1259

>  <r_i_glide_energy>  (106) 
-27.3488

>  <r_i_glide_einternal>  (106) 
5.21791

>  <r_i_glide_intrahb_reward>  (106) 
-0

>  <i_i_glide_confnum>  (106) 
2

>  <i_i_glide_posenum>  (106) 
1

>  <r_i_glide_eff_state_penalty>  (106) 
0

>  <ligand_id>  (106) 
32

>  <original_smiles>  (106) 
COCC1CC2(O)C3Cc4ccc(O)c5c4C2(CCN3CC2CC2)C(O5)C1O

>  <smiles>  (106) 
[H]Oc1c([H])c([H])c2c3c1OC1([H])C([H])(O[H])C([H])(C([H])([H])OC([H])([H])[H])C([H])([H])C4(O[H])C31C([H])([H])C([H])([H])[N+]([H])(C([H])([H])C1([H])C([H])([H])C1([H])[H])C4([H])C2([H])[H]

$$$$
32:0:1
     RDKit          3D

 58 63  0  0  1  0  0  0  0  0999 V2000
    9.0066   -9.4513    6.4156 C   0  0  0  0  0  0  0  0  0  0  0  0
    7.6972   -9.7153    5.9279 O   0  0  0  0  0  0  0  0  0  0  0  0
    7.4271  -11.1044    5.7635 C   0  0  0  0  0  0  0  0  0  0  0  0
    6.0034  -11.3180    5.1940 C   0  0  2  0  0  0  0  0  0  0  0  0
    5.9086  -10.7063    3.7358 C   0  0  0  0  0  0  0  0  0  0  0  0
    4.4644  -10.4367    3.2071 C   0  0  2  0  0  0  0  0  0  0  0  0
    3.9289  -11.7124    2.8828 O   0  0  0  0  0  0  0  0  0  0  0  0
    4.2691   -9.4604    1.9923 C   0  0  1  0  0  0  0  0  0  0  0  0
    2.7469   -9.3565    1.6077 C   0  0  0  0  0  0  0  0  0  0  0  0
    1.7353   -9.2508    2.7608 C   0  0  0  0  0  0  0  0  0  0  0  0
    0.3671   -8.9257    2.7543 C   0  0  0  0  0  0  0  0  0  0  0  0
   -0.3664   -8.9675    3.9727 C   0  0  0  0  0  0  0  0  0  0  0  0
    0.2290   -9.3664    5.2018 C   0  0  0  0  0  0  0  0  0  0  0  0
   -0.5185   -9.4654    6.3356 O   0  0  0  0  0  0  0  0  0  0  0  0
    1.6079   -9.7073    5.2298 C   0  0  0  0  0  0  0  0  0  0  0  0
    2.2542   -9.5803    4.0207 C   0  0  0  0  0  0  0  0  0  0  0  0
    3.6770   -9.8119    4.3428 C   0  0  2  0  0  0  0  0  0  0  0  0
    4.2989   -8.4166    4.6828 C   0  0  0  0  0  0  0  0  0  0  0  0
    4.2810   -7.4623    3.4768 C   0  0  0  0  0  0  0  0  0  0  0  0
    4.8494   -8.1094    2.2725 N   0  0  2  0  0  0  0  0  0  0  0  0
    4.8687   -7.1993    1.1050 C   0  0  0  0  0  0  0  0  0  0  0  0
    5.9729   -6.1533    1.1875 C   0  0  0  0  0  0  0  0  0  0  0  0
    5.6795   -4.7466    1.6698 C   0  0  0  0  0  0  0  0  0  0  0  0
    5.9975   -4.9814    0.2203 C   0  0  0  0  0  0  0  0  0  0  0  0
    3.5467  -10.7369    5.5609 C   0  0  2  0  0  0  0  0  0  0  0  0
    2.4222  -10.1482    6.2426 O   0  0  0  0  0  0  0  0  0  0  0  0
    4.9121  -10.8727    6.2414 C   0  0  1  0  0  0  0  0  0  0  0  0
    4.8054  -11.8789    7.2338 O   0  0  0  0  0  0  0  0  0  0  0  0
    9.1505   -8.3763    6.5239 H   0  0  0  0  0  0  0  0  0  0  0  0
    9.7716   -9.8153    5.7289 H   0  0  0  0  0  0  0  0  0  0  0  0
    9.1769   -9.9046    7.3930 H   0  0  0  0  0  0  0  0  0  0  0  0
    8.1676  -11.5387    5.0900 H   0  0  0  0  0  0  0  0  0  0  0  0
    7.5370  -11.6139    6.7229 H   0  0  0  0  0  0  0  0  0  0  0  0
    5.8750  -12.3978    5.0700 H   0  0  0  0  0  0  0  0  0  0  0  0
    6.4928   -9.7874    3.6879 H   0  0  0  0  0  0  0  0  0  0  0  0
    6.4224  -11.3791    3.0472 H   0  0  0  0  0  0  0  0  0  0  0  0
    3.9189  -11.8525    1.9537 H   0  0  0  0  0  0  0  0  0  0  0  0
    4.8037   -9.8601    1.1296 H   0  0  0  0  0  0  0  0  0  0  0  0
    2.5562   -8.5378    0.9189 H   0  0  0  0  0  0  0  0  0  0  0  0
    2.4739  -10.2511    1.0441 H   0  0  0  0  0  0  0  0  0  0  0  0
   -0.1130   -8.6577    1.8224 H   0  0  0  0  0  0  0  0  0  0  0  0
   -1.4172   -8.7137    3.9486 H   0  0  0  0  0  0  0  0  0  0  0  0
   -1.3241   -9.9446    6.1074 H   0  0  0  0  0  0  0  0  0  0  0  0
    3.7717   -7.9567    5.5260 H   0  0  0  0  0  0  0  0  0  0  0  0
    5.3311   -8.4956    5.0249 H   0  0  0  0  0  0  0  0  0  0  0  0
    3.2631   -7.1135    3.2952 H   0  0  0  0  0  0  0  0  0  0  0  0
    4.8433   -6.5658    3.7340 H   0  0  0  0  0  0  0  0  0  0  0  0
    5.0182   -7.7569    0.1821 H   0  0  0  0  0  0  0  0  0  0  0  0
    3.9157   -6.6815    0.9858 H   0  0  0  0  0  0  0  0  0  0  0  0
    6.9592   -6.5532    1.4270 H   0  0  0  0  0  0  0  0  0  0  0  0
    4.6490   -4.5156    1.9364 H   0  0  0  0  0  0  0  0  0  0  0  0
    6.4378   -4.2551    2.2795 H   0  0  0  0  0  0  0  0  0  0  0  0
    6.9622   -4.6146   -0.1300 H   0  0  0  0  0  0  0  0  0  0  0  0
    5.1842   -4.8915   -0.4980 H   0  0  0  0  0  0  0  0  0  0  0  0
    3.2167  -11.7331    5.2551 H   0  0  0  0  0  0  0  0  0  0  0  0
    5.1846   -9.9378    6.7320 H   0  0  0  0  0  0  0  0  0  0  0  0
    4.0209  -12.3920    7.0766 H   0  0  0  0  0  0  0  0  0  0  0  0
    5.8151   -8.2822    2.4924 H   0  0  0  0  0  0  0  0  0  0  0  0
  1  2  1  0
  1 29  1  0
  1 30  1  0
  1 31  1  0
  2  3  1  0
  3  4  1  0
  3 32  1  0
  3 33  1  0
  4 27  1  0
  4  5  1  0
  4 34  1  6
  5  6  1  0
  5 35  1  0
  5 36  1  0
  6 17  1  0
  6  7  1  6
  6  8  1  0
  7 37  1  0
  8 20  1  0
  8  9  1  0
  8 38  1  6
  9 10  1  0
  9 39  1  0
  9 40  1  0
 10 16  2  0
 10 11  1  0
 11 12  2  0
 11 41  1  0
 12 13  1  0
 12 42  1  0
 13 14  1  0
 13 15  2  0
 14 43  1  0
 15 26  1  0
 15 16  1  0
 16 17  1  0
 17 18  1  1
 17 25  1  0
 18 19  1  0
 18 44  1  0
 18 45  1  0
 19 20  1  0
 19 46  1  0
 19 47  1  0
 20 21  1  0
 20 58  1  1
 21 22  1  0
 21 48  1  0
 21 49  1  0
 22 24  1  0
 22 23  1  0
 22 50  1  0
 23 24  1  0
 23 51  1  0
 23 52  1  0
 24 53  1  0
 24 54  1  0
 25 26  1  0
 25 27  1  0
 25 55  1  6
 27 28  1  0
 27 56  1  1
 28 57  1  0
M  CHG  1  20   1
M  END
>  <i_m_ct_stereo_status>  (107) 
1

>  <s_m_source_file>  (107) 
/var/tmp/pbs.5076255.sched01/tmppm3sokcv/34yi_btuhz.sdf

>  <i_m_source_file_index>  (107) 
10

>  <i_lp_mmshare_version>  (107) 
48012

>  <i_f3d_flags>  (107) 
0

>  <s_epik_input>  (107) 
W0NIM11PW0NIMl1bQ0BIXShbQ0gyXTEpW0NASF0oW09IXSlbQ0BIXTJPYyhjKFtPSF0pW2NIXVtjSF0zKWM0YzNbQ0gyXVtDQEhdKFtDQEBdMShbQ0BdMjQ1KVtPSF0pTihbQ0gyXVtDSDJdNSlbQ0gyXVtDSF02W0NIMl1bQ0gyXTY=

>  <s_epik_cmdline>  (107) 
J2VwaWtfcHl0aG9uJywgJy1waHQnLCAnMi4wJywgJy1waCcsICc3LjAnLCAnLXRuJywgJzgnLCAnLW1hJywgJzIwMCcsICctaW1hZScsICc8aW5maWxlLm1hZT4nLCAnLW9tYWUnLCAnPG91dGZpbGUubWFlPic=

>  <r_lp_tautomer_probability>  (107) 
1

>  <r_epik_Ionization_Penalty>  (107) 
0.0381123

>  <r_epik_Ionization_Penalty_Charging>  (107) 
0.0276459

>  <r_epik_Ionization_Penalty_Neutral>  (107) 
0.0104664

>  <r_epik_State_Penalty>  (107) 
0.0303466

>  <r_epik_Charging_Adjusted_Penalty>  (107) 
0.0579926

>  <i_epik_Tot_Q>  (107) 
1

>  <i_epik_Tot_abs_Q>  (107) 
1

>  <s_lp_Force_Field>  (107) 
OPLS3e

>  <r_lp_Energy>  (107) 
76.3785

>  <b_lp_Chiralities_Consistent>  (107) 
1

>  <s_lp_Variant>  (107) 
32:0-1

>  <s_i_glide_gridfile>  (107) 
pfpi4k_grid

>  <i_i_glide_lignum>  (107) 
10

>  <i_i_glide_rotatable_bonds>  (107) 
7

>  <r_i_docking_score>  (107) 
-3.08942

>  <r_i_glide_ligand_efficiency>  (107) 
-0.110336

>  <r_i_glide_ligand_efficiency_sa>  (107) 
-0.335046

>  <r_i_glide_ligand_efficiency_ln>  (107) 
-0.713128

>  <r_i_glide_gscore>  (107) 
-3.08942

>  <r_i_glide_lipo>  (107) 
-0.345002

>  <r_i_glide_hbond>  (107) 
-0.152

>  <r_i_glide_metal>  (107) 
-0

>  <r_i_glide_rewards>  (107) 
-0.760382

>  <r_i_glide_evdw>  (107) 
-15.6801

>  <r_i_glide_ecoul>  (107) 
-9.56903

>  <r_i_glide_erotb>  (107) 
0.387327

>  <r_i_glide_esite>  (107) 
0

>  <r_i_glide_emodel>  (107) 
-28.4215

>  <r_i_glide_energy>  (107) 
-25.2491

>  <r_i_glide_einternal>  (107) 
3.95487

>  <r_i_glide_intrahb_reward>  (107) 
-0

>  <i_i_glide_confnum>  (107) 
2

>  <i_i_glide_posenum>  (107) 
28

>  <r_i_glide_eff_state_penalty>  (107) 
0

>  <ligand_id>  (107) 
32

>  <original_smiles>  (107) 
COCC1CC2(O)C3Cc4ccc(O)c5c4C2(CCN3CC2CC2)C(O5)C1O

>  <smiles>  (107) 
[H]Oc1c([H])c([H])c2c3c1OC1([H])C([H])(O[H])C([H])(C([H])([H])OC([H])([H])[H])C([H])([H])C4(O[H])C31C([H])([H])C([H])([H])[N+]([H])(C([H])([H])C1([H])C([H])([H])C1([H])[H])C4([H])C2([H])[H]

$$$$
32:0:2
     RDKit          3D

 58 63  0  0  1  0  0  0  0  0999 V2000
    4.9595   -5.7033   -0.1210 C   0  0  0  0  0  0  0  0  0  0  0  0
    4.7538   -4.6795    0.8403 O   0  0  0  0  0  0  0  0  0  0  0  0
    5.9557   -4.0221    1.2194 C   0  0  0  0  0  0  0  0  0  0  0  0
    5.6278   -2.7975    2.1036 C   0  0  2  0  0  0  0  0  0  0  0  0
    4.8801   -3.2644    3.4192 C   0  0  0  0  0  0  0  0  0  0  0  0
    4.1020   -2.1570    4.1902 C   0  0  2  0  0  0  0  0  0  0  0  0
    5.0874   -1.4085    4.8833 O   0  0  0  0  0  0  0  0  0  0  0  0
    3.0039   -2.5716    5.2339 C   0  0  1  0  0  0  0  0  0  0  0  0
    2.3767   -1.2969    5.9105 C   0  0  0  0  0  0  0  0  0  0  0  0
    2.0515   -0.1031    4.9988 C   0  0  0  0  0  0  0  0  0  0  0  0
    1.2903    1.0548    5.2532 C   0  0  0  0  0  0  0  0  0  0  0  0
    1.1971    2.0585    4.2479 C   0  0  0  0  0  0  0  0  0  0  0  0
    1.8863    1.9424    3.0102 C   0  0  0  0  0  0  0  0  0  0  0  0
    1.8257    2.9353    2.0818 O   0  0  0  0  0  0  0  0  0  0  0  0
    2.6760    0.7989    2.7479 C   0  0  0  0  0  0  0  0  0  0  0  0
    2.6626   -0.1557    3.7397 C   0  0  0  0  0  0  0  0  0  0  0  0
    3.3713   -1.3150    3.1607 C   0  0  2  0  0  0  0  0  0  0  0  0
    2.2964   -2.2041    2.4547 C   0  0  0  0  0  0  0  0  0  0  0  0
    1.2760   -2.7722    3.4510 C   0  0  0  0  0  0  0  0  0  0  0  0
    1.9530   -3.4347    4.5997 N   0  0  2  0  0  0  0  0  0  0  0  0
    0.9938   -4.0301    5.5709 C   0  0  0  0  0  0  0  0  0  0  0  0
    0.2821   -5.2624    5.0261 C   0  0  0  0  0  0  0  0  0  0  0  0
   -0.8666   -5.8721    5.8085 C   0  0  0  0  0  0  0  0  0  0  0  0
    0.4429   -6.6034    5.7102 C   0  0  0  0  0  0  0  0  0  0  0  0
    4.3114   -0.6080    2.1683 C   0  0  2  0  0  0  0  0  0  0  0  0
    3.4588    0.4436    1.6677 O   0  0  0  0  0  0  0  0  0  0  0  0
    4.9550   -1.6595    1.2471 C   0  0  1  0  0  0  0  0  0  0  0  0
    5.9747   -1.0294    0.4851 O   0  0  0  0  0  0  0  0  0  0  0  0
    4.0132   -6.1948   -0.3407 H   0  0  0  0  0  0  0  0  0  0  0  0
    5.6495   -6.4690    0.2337 H   0  0  0  0  0  0  0  0  0  0  0  0
    5.3440   -5.2918   -1.0543 H   0  0  0  0  0  0  0  0  0  0  0  0
    6.6037   -4.7183    1.7558 H   0  0  0  0  0  0  0  0  0  0  0  0
    6.4998   -3.7032    0.3299 H   0  0  0  0  0  0  0  0  0  0  0  0
    6.5824   -2.3862    2.4325 H   0  0  0  0  0  0  0  0  0  0  0  0
    4.2085   -4.0908    3.1886 H   0  0  0  0  0  0  0  0  0  0  0  0
    5.6130   -3.7040    4.0938 H   0  0  0  0  0  0  0  0  0  0  0  0
    5.6699   -1.0090    4.2562 H   0  0  0  0  0  0  0  0  0  0  0  0
    3.4795   -3.1652    6.0132 H   0  0  0  0  0  0  0  0  0  0  0  0
    1.4784   -1.5486    6.4774 H   0  0  0  0  0  0  0  0  0  0  0  0
    3.0795   -0.9260    6.6593 H   0  0  0  0  0  0  0  0  0  0  0  0
    0.7856    1.1823    6.1996 H   0  0  0  0  0  0  0  0  0  0  0  0
    0.6063    2.9378    4.4349 H   0  0  0  0  0  0  0  0  0  0  0  0
    0.9973    3.3724    1.8912 H   0  0  0  0  0  0  0  0  0  0  0  0
    1.7671   -1.6441    1.6825 H   0  0  0  0  0  0  0  0  0  0  0  0
    2.7452   -3.0482    1.9277 H   0  0  0  0  0  0  0  0  0  0  0  0
    0.5995   -1.9903    3.7965 H   0  0  0  0  0  0  0  0  0  0  0  0
    0.6529   -3.4820    2.9180 H   0  0  0  0  0  0  0  0  0  0  0  0
    1.5159   -4.3146    6.4839 H   0  0  0  0  0  0  0  0  0  0  0  0
    0.2356   -3.3030    5.8595 H   0  0  0  0  0  0  0  0  0  0  0  0
    0.1373   -5.2982    3.9465 H   0  0  0  0  0  0  0  0  0  0  0  0
   -1.1318   -5.4429    6.7733 H   0  0  0  0  0  0  0  0  0  0  0  0
   -1.6984   -6.2966    5.2483 H   0  0  0  0  0  0  0  0  0  0  0  0
    0.4852   -7.4798    5.0652 H   0  0  0  0  0  0  0  0  0  0  0  0
    1.0727   -6.6441    6.5975 H   0  0  0  0  0  0  0  0  0  0  0  0
    5.1096   -0.1015    2.7112 H   0  0  0  0  0  0  0  0  0  0  0  0
    4.2111   -2.0655    0.5637 H   0  0  0  0  0  0  0  0  0  0  0  0
    6.5077   -0.4930    1.0556 H   0  0  0  0  0  0  0  0  0  0  0  0
    2.4654   -4.2195    4.2171 H   0  0  0  0  0  0  0  0  0  0  0  0
  1  2  1  0
  1 29  1  0
  1 30  1  0
  1 31  1  0
  2  3  1  0
  3  4  1  0
  3 32  1  0
  3 33  1  0
  4 27  1  0
  4  5  1  0
  4 34  1  1
  5  6  1  0
  5 35  1  0
  5 36  1  0
  6 17  1  0
  6  7  1  1
  6  8  1  0
  7 37  1  0
  8 20  1  0
  8  9  1  0
  8 38  1  1
  9 10  1  0
  9 39  1  0
  9 40  1  0
 10 16  2  0
 10 11  1  0
 11 12  2  0
 11 41  1  0
 12 13  1  0
 12 42  1  0
 13 14  1  0
 13 15  2  0
 14 43  1  0
 15 26  1  0
 15 16  1  0
 16 17  1  0
 17 18  1  6
 17 25  1  0
 18 19  1  0
 18 44  1  0
 18 45  1  0
 19 20  1  0
 19 46  1  0
 19 47  1  0
 20 21  1  0
 20 58  1  6
 21 22  1  0
 21 48  1  0
 21 49  1  0
 22 24  1  0
 22 23  1  0
 22 50  1  0
 23 24  1  0
 23 51  1  0
 23 52  1  0
 24 53  1  0
 24 54  1  0
 25 26  1  0
 25 27  1  0
 25 55  1  1
 27 28  1  0
 27 56  1  6
 28 57  1  0
M  CHG  1  20   1
M  END
>  <i_m_ct_stereo_status>  (108) 
1

>  <s_m_source_file>  (108) 
/var/tmp/pbs.5076255.sched01/tmppm3sokcv/34yi_btuhz.sdf

>  <i_m_source_file_index>  (108) 
10

>  <i_lp_mmshare_version>  (108) 
48012

>  <i_f3d_flags>  (108) 
0

>  <s_epik_input>  (108) 
W0NIM11PW0NIMl1bQ0BIXShbQ0gyXTEpW0NASF0oW09IXSlbQ0BIXTJPYyhjKFtPSF0pW2NIXVtjSF0zKWM0YzNbQ0gyXVtDQEhdKFtDQEBdMShbQ0BdMjQ1KVtPSF0pTihbQ0gyXVtDSDJdNSlbQ0gyXVtDSF02W0NIMl1bQ0gyXTY=

>  <s_epik_cmdline>  (108) 
J2VwaWtfcHl0aG9uJywgJy1waHQnLCAnMi4wJywgJy1waCcsICc3LjAnLCAnLXRuJywgJzgnLCAnLW1hJywgJzIwMCcsICctaW1hZScsICc8aW5maWxlLm1hZT4nLCAnLW9tYWUnLCAnPG91dGZpbGUubWFlPic=

>  <r_lp_tautomer_probability>  (108) 
1

>  <r_epik_Ionization_Penalty>  (108) 
0.0381123

>  <r_epik_Ionization_Penalty_Charging>  (108) 
0.0276459

>  <r_epik_Ionization_Penalty_Neutral>  (108) 
0.0104664

>  <r_epik_State_Penalty>  (108) 
0.0303466

>  <r_epik_Charging_Adjusted_Penalty>  (108) 
0.0579926

>  <i_epik_Tot_Q>  (108) 
1

>  <i_epik_Tot_abs_Q>  (108) 
1

>  <s_lp_Force_Field>  (108) 
OPLS3e

>  <r_lp_Energy>  (108) 
76.3785

>  <b_lp_Chiralities_Consistent>  (108) 
1

>  <s_lp_Variant>  (108) 
32:0-1

>  <s_i_glide_gridfile>  (108) 
pfpi4k_grid

>  <i_i_glide_lignum>  (108) 
10

>  <i_i_glide_rotatable_bonds>  (108) 
7

>  <r_i_docking_score>  (108) 
-2.66544

>  <r_i_glide_ligand_efficiency>  (108) 
-0.0951942

>  <r_i_glide_ligand_efficiency_sa>  (108) 
-0.289066

>  <r_i_glide_ligand_efficiency_ln>  (108) 
-0.615261

>  <r_i_glide_gscore>  (108) 
-2.66544

>  <r_i_glide_lipo>  (108) 
-0.363426

>  <r_i_glide_hbond>  (108) 
0

>  <r_i_glide_metal>  (108) 
-0

>  <r_i_glide_rewards>  (108) 
-0.760382

>  <r_i_glide_evdw>  (108) 
-17.9427

>  <r_i_glide_ecoul>  (108) 
-6.87881

>  <r_i_glide_erotb>  (108) 
0.387327

>  <r_i_glide_esite>  (108) 
0

>  <r_i_glide_emodel>  (108) 
-28.6698

>  <r_i_glide_energy>  (108) 
-24.8215

>  <r_i_glide_einternal>  (108) 
2.36187

>  <r_i_glide_intrahb_reward>  (108) 
-0

>  <i_i_glide_confnum>  (108) 
2

>  <i_i_glide_posenum>  (108) 
13

>  <r_i_glide_eff_state_penalty>  (108) 
0

>  <ligand_id>  (108) 
32

>  <original_smiles>  (108) 
COCC1CC2(O)C3Cc4ccc(O)c5c4C2(CCN3CC2CC2)C(O5)C1O

>  <smiles>  (108) 
[H]Oc1c([H])c([H])c2c3c1OC1([H])C([H])(O[H])C([H])(C([H])([H])OC([H])([H])[H])C([H])([H])C4(O[H])C31C([H])([H])C([H])([H])[N+]([H])(C([H])([H])C1([H])C([H])([H])C1([H])[H])C4([H])C2([H])[H]

$$$$
32:1:0
     RDKit          3D

 57 62  0  0  1  0  0  0  0  0999 V2000
    3.7705   -4.7466    1.9779 C   0  0  0  0  0  0  0  0  0  0  0  0
    3.5737   -3.5324    2.6843 O   0  0  0  0  0  0  0  0  0  0  0  0
    2.5276   -2.7350    2.1452 C   0  0  0  0  0  0  0  0  0  0  0  0
    2.4238   -1.4111    2.9358 C   0  0  2  0  0  0  0  0  0  0  0  0
    2.0334   -1.7025    4.4348 C   0  0  0  0  0  0  0  0  0  0  0  0
    1.5488   -0.4770    5.2659 C   0  0  2  0  0  0  0  0  0  0  0  0
    2.7379    0.2485    5.5479 O   0  0  0  0  0  0  0  0  0  0  0  0
    0.7639   -0.6635    6.6215 C   0  0  1  0  0  0  0  0  0  0  0  0
    0.4813    0.7319    7.2903 C   0  0  0  0  0  0  0  0  0  0  0  0
    0.0113    1.8538    6.3609 C   0  0  0  0  0  0  0  0  0  0  0  0
   -0.5220    3.1240    6.6703 C   0  0  0  0  0  0  0  0  0  0  0  0
   -0.8326    4.0242    5.6215 C   0  0  0  0  0  0  0  0  0  0  0  0
   -0.5916    3.7077    4.2543 C   0  0  0  0  0  0  0  0  0  0  0  0
   -0.8753    4.6222    3.2781 O   0  0  0  0  0  0  0  0  0  0  0  0
   -0.0409    2.4514    3.9250 C   0  0  0  0  0  0  0  0  0  0  0  0
    0.1827    1.6092    4.9930 C   0  0  0  0  0  0  0  0  0  0  0  0
    0.6010    0.3225    4.3913 C   0  0  2  0  0  0  0  0  0  0  0  0
   -0.6849   -0.5293    4.1524 C   0  0  0  0  0  0  0  0  0  0  0  0
   -1.4071   -0.8438    5.4601 C   0  0  0  0  0  0  0  0  0  0  0  0
   -0.5286   -1.3850    6.5065 N   0  0  0  0  0  0  0  0  0  0  0  0
   -0.4530   -2.8412    6.6203 C   0  0  0  0  0  0  0  0  0  0  0  0
   -1.7847   -3.5224    6.9111 C   0  0  0  0  0  0  0  0  0  0  0  0
   -1.9929   -4.2815    8.2052 C   0  0  0  0  0  0  0  0  0  0  0  0
   -1.8646   -5.0289    6.9014 C   0  0  0  0  0  0  0  0  0  0  0  0
    1.2338    0.8299    3.0930 C   0  0  2  0  0  0  0  0  0  0  0  0
    0.3375    1.9006    2.7173 O   0  0  0  0  0  0  0  0  0  0  0  0
    1.5175   -0.3705    2.1846 C   0  0  1  0  0  0  0  0  0  0  0  0
    2.2221    0.1166    1.0683 O   0  0  0  0  0  0  0  0  0  0  0  0
    4.5893   -5.2969    2.4382 H   0  0  0  0  0  0  0  0  0  0  0  0
    4.0363   -4.5712    0.9353 H   0  0  0  0  0  0  0  0  0  0  0  0
    2.8851   -5.3813    2.0105 H   0  0  0  0  0  0  0  0  0  0  0  0
    2.7256   -2.5348    1.0890 H   0  0  0  0  0  0  0  0  0  0  0  0
    1.5802   -3.2754    2.1961 H   0  0  0  0  0  0  0  0  0  0  0  0
    3.4293   -0.9797    2.9607 H   0  0  0  0  0  0  0  0  0  0  0  0
    1.2798   -2.4864    4.4221 H   0  0  0  0  0  0  0  0  0  0  0  0
    2.8793   -2.1543    4.9425 H   0  0  0  0  0  0  0  0  0  0  0  0
    3.1131    0.5466    4.7315 H   0  0  0  0  0  0  0  0  0  0  0  0
    1.4071   -1.2033    7.3209 H   0  0  0  0  0  0  0  0  0  0  0  0
   -0.2621    0.6065    8.0786 H   0  0  0  0  0  0  0  0  0  0  0  0
    1.3845    1.0759    7.7908 H   0  0  0  0  0  0  0  0  0  0  0  0
   -0.6839    3.4034    7.7024 H   0  0  0  0  0  0  0  0  0  0  0  0
   -1.2555    4.9778    5.8705 H   0  0  0  0  0  0  0  0  0  0  0  0
   -0.5423    4.3944    2.3978 H   0  0  0  0  0  0  0  0  0  0  0  0
   -1.3796   -0.0216    3.4781 H   0  0  0  0  0  0  0  0  0  0  0  0
   -0.4613   -1.4836    3.6810 H   0  0  0  0  0  0  0  0  0  0  0  0
   -1.8788    0.0681    5.8290 H   0  0  0  0  0  0  0  0  0  0  0  0
   -2.2179   -1.5224    5.2277 H   0  0  0  0  0  0  0  0  0  0  0  0
   -0.0417   -3.2954    5.7236 H   0  0  0  0  0  0  0  0  0  0  0  0
    0.2314   -3.0996    7.4326 H   0  0  0  0  0  0  0  0  0  0  0  0
   -2.6694   -3.0371    6.4989 H   0  0  0  0  0  0  0  0  0  0  0  0
   -1.1577   -4.3169    8.9083 H   0  0  0  0  0  0  0  0  0  0  0  0
   -2.9852   -4.2274    8.6529 H   0  0  0  0  0  0  0  0  0  0  0  0
   -2.7703   -5.4595    6.4753 H   0  0  0  0  0  0  0  0  0  0  0  0
   -0.9435   -5.5780    6.7006 H   0  0  0  0  0  0  0  0  0  0  0  0
    2.1917    1.3133    3.3049 H   0  0  0  0  0  0  0  0  0  0  0  0
    0.5937   -0.8174    1.8221 H   0  0  0  0  0  0  0  0  0  0  0  0
    1.7342   -0.1893    0.2928 H   0  0  0  0  0  0  0  0  0  0  0  0
  1  2  1  0
  1 29  1  0
  1 30  1  0
  1 31  1  0
  2  3  1  0
  3  4  1  0
  3 32  1  0
  3 33  1  0
  4 27  1  0
  4  5  1  0
  4 34  1  1
  5  6  1  0
  5 35  1  0
  5 36  1  0
  6 17  1  0
  6  7  1  1
  6  8  1  0
  7 37  1  0
  8 20  1  0
  8  9  1  0
  8 38  1  1
  9 10  1  0
  9 39  1  0
  9 40  1  0
 10 16  2  0
 10 11  1  0
 11 12  2  0
 11 41  1  0
 12 13  1  0
 12 42  1  0
 13 14  1  0
 13 15  2  0
 14 43  1  0
 15 26  1  0
 15 16  1  0
 16 17  1  0
 17 18  1  6
 17 25  1  0
 18 19  1  0
 18 44  1  0
 18 45  1  0
 19 20  1  0
 19 46  1  0
 19 47  1  0
 20 21  1  0
 21 22  1  0
 21 48  1  0
 21 49  1  0
 22 24  1  0
 22 23  1  0
 22 50  1  0
 23 24  1  0
 23 51  1  0
 23 52  1  0
 24 53  1  0
 24 54  1  0
 25 26  1  0
 25 27  1  0
 25 55  1  1
 27 28  1  0
 27 56  1  6
 28 57  1  0
M  END
>  <i_m_ct_stereo_status>  (109) 
1

>  <s_m_source_file>  (109) 
/var/tmp/pbs.5076255.sched01/tmppm3sokcv/34yi_btuhz.sdf

>  <i_m_source_file_index>  (109) 
11

>  <i_lp_mmshare_version>  (109) 
48012

>  <i_f3d_flags>  (109) 
0

>  <s_epik_input>  (109) 
W0NIM11PW0NIMl1bQ0BIXShbQ0gyXTEpW0NASF0oW09IXSlbQ0BIXTJPYyhjKFtPSF0pW2NIXVtjSF0zKWM0YzNbQ0gyXVtDQEhdKFtDQEBdMShbQ0BdMjQ1KVtPSF0pTihbQ0gyXVtDSDJdNSlbQ0gyXVtDSF02W0NIMl1bQ0gyXTY=

>  <s_epik_cmdline>  (109) 
J2VwaWtfcHl0aG9uJywgJy1waHQnLCAnMi4wJywgJy1waCcsICc3LjAnLCAnLXRuJywgJzgnLCAnLW1hJywgJzIwMCcsICctaW1hZScsICc8aW5maWxlLm1hZT4nLCAnLW9tYWUnLCAnPG91dGZpbGUubWFlPic=

>  <r_lp_tautomer_probability>  (109) 
1

>  <r_epik_Ionization_Penalty>  (109) 
1.83028

>  <r_epik_Ionization_Penalty_Charging>  (109) 
0

>  <r_epik_Ionization_Penalty_Neutral>  (109) 
1.83028

>  <r_epik_State_Penalty>  (109) 
1.95323

>  <r_epik_Charging_Adjusted_Penalty>  (109) 
1.95323

>  <i_epik_Tot_Q>  (109) 
0

>  <i_epik_Tot_abs_Q>  (109) 
0

>  <s_lp_Force_Field>  (109) 
OPLS3e

>  <r_lp_Energy>  (109) 
85.5814

>  <b_lp_Chiralities_Consistent>  (109) 
1

>  <s_lp_Variant>  (109) 
32:0-2

>  <s_i_glide_gridfile>  (109) 
pfpi4k_grid

>  <i_i_glide_lignum>  (109) 
11

>  <i_i_glide_rotatable_bonds>  (109) 
7

>  <r_i_docking_score>  (109) 
-3.10248

>  <r_i_glide_ligand_efficiency>  (109) 
-0.110803

>  <r_i_glide_ligand_efficiency_sa>  (109) 
-0.336462

>  <r_i_glide_ligand_efficiency_ln>  (109) 
-0.716143

>  <r_i_glide_gscore>  (109) 
-3.10248

>  <r_i_glide_lipo>  (109) 
-0.0289696

>  <r_i_glide_hbond>  (109) 
0

>  <r_i_glide_metal>  (109) 
-0

>  <r_i_glide_rewards>  (109) 
-0.767254

>  <r_i_glide_evdw>  (109) 
-17.8537

>  <r_i_glide_ecoul>  (109) 
-12.018

>  <r_i_glide_erotb>  (109) 
0.389137

>  <r_i_glide_esite>  (109) 
0

>  <r_i_glide_emodel>  (109) 
-34.8813

>  <r_i_glide_energy>  (109) 
-29.8718

>  <r_i_glide_einternal>  (109) 
1.95477

>  <r_i_glide_intrahb_reward>  (109) 
-0

>  <i_i_glide_confnum>  (109) 
1

>  <i_i_glide_posenum>  (109) 
37

>  <r_i_glide_eff_state_penalty>  (109) 
0

>  <ligand_id>  (109) 
32

>  <original_smiles>  (109) 
COCC1CC2(O)C3Cc4ccc(O)c5c4C2(CCN3CC2CC2)C(O5)C1O

>  <smiles>  (109) 
[H]Oc1c([H])c([H])c2c3c1OC1([H])C([H])(O[H])C([H])(C([H])([H])OC([H])([H])[H])C([H])([H])C4(O[H])C([H])(N(C([H])([H])C5([H])C([H])([H])C5([H])[H])C([H])([H])C([H])([H])C314)C2([H])[H]

$$$$
32:1:1
     RDKit          3D

 57 62  0  0  1  0  0  0  0  0999 V2000
    6.6743    7.2938    5.9472 C   0  0  0  0  0  0  0  0  0  0  0  0
    5.3837    6.7280    6.1161 O   0  0  0  0  0  0  0  0  0  0  0  0
    4.5761    6.8096    4.9458 C   0  0  0  0  0  0  0  0  0  0  0  0
    3.1705    6.2288    5.2365 C   0  0  2  0  0  0  0  0  0  0  0  0
    3.2943    4.7094    5.6586 C   0  0  0  0  0  0  0  0  0  0  0  0
    1.9644    3.8891    5.6447 C   0  0  2  0  0  0  0  0  0  0  0  0
    1.2483    4.3130    6.7967 O   0  0  0  0  0  0  0  0  0  0  0  0
    1.9785    2.3123    5.6577 C   0  0  1  0  0  0  0  0  0  0  0  0
    0.5223    1.7511    5.7292 C   0  0  0  0  0  0  0  0  0  0  0  0
   -0.5303    2.4396    4.8503 C   0  0  0  0  0  0  0  0  0  0  0  0
   -1.8427    2.0527    4.5276 C   0  0  0  0  0  0  0  0  0  0  0  0
   -2.6550    2.8946    3.7212 C   0  0  0  0  0  0  0  0  0  0  0  0
   -2.1775    4.1488    3.2455 C   0  0  0  0  0  0  0  0  0  0  0  0
   -2.9748    4.9461    2.4808 O   0  0  0  0  0  0  0  0  0  0  0  0
   -0.8781    4.5682    3.5825 C   0  0  0  0  0  0  0  0  0  0  0  0
   -0.1322    3.6681    4.3098 C   0  0  0  0  0  0  0  0  0  0  0  0
    1.2252    4.2510    4.3713 C   0  0  2  0  0  0  0  0  0  0  0  0
    2.0586    3.7191    3.1606 C   0  0  0  0  0  0  0  0  0  0  0  0
    2.1932    2.1960    3.2066 C   0  0  0  0  0  0  0  0  0  0  0  0
    2.6468    1.6749    4.5043 N   0  0  0  0  0  0  0  0  0  0  0  0
    4.0787    1.4568    4.6355 C   0  0  0  0  0  0  0  0  0  0  0  0
    4.6357    0.3853    3.7117 C   0  0  0  0  0  0  0  0  0  0  0  0
    5.0058   -0.9740    4.2549 C   0  0  0  0  0  0  0  0  0  0  0  0
    6.0859   -0.0155    3.8180 C   0  0  0  0  0  0  0  0  0  0  0  0
    0.8818    5.7460    4.2683 C   0  0  2  0  0  0  0  0  0  0  0  0
   -0.2018    5.7432    3.3154 O   0  0  0  0  0  0  0  0  0  0  0  0
    2.1722    6.5476    4.0527 C   0  0  1  0  0  0  0  0  0  0  0  0
    1.8146    7.9224    4.1009 O   0  0  0  0  0  0  0  0  0  0  0  0
    7.2304    7.1993    6.8789 H   0  0  0  0  0  0  0  0  0  0  0  0
    6.6198    8.3550    5.7026 H   0  0  0  0  0  0  0  0  0  0  0  0
    7.2411    6.7825    5.1687 H   0  0  0  0  0  0  0  0  0  0  0  0
    4.4967    7.8534    4.6349 H   0  0  0  0  0  0  0  0  0  0  0  0
    5.0486    6.2686    4.1243 H   0  0  0  0  0  0  0  0  0  0  0  0
    2.7896    6.7527    6.1142 H   0  0  0  0  0  0  0  0  0  0  0  0
    4.0379    4.2519    5.0157 H   0  0  0  0  0  0  0  0  0  0  0  0
    3.7285    4.6507    6.6552 H   0  0  0  0  0  0  0  0  0  0  0  0
    0.3524    4.0233    6.7010 H   0  0  0  0  0  0  0  0  0  0  0  0
    2.4719    1.9759    6.5675 H   0  0  0  0  0  0  0  0  0  0  0  0
    0.5240    0.6911    5.4706 H   0  0  0  0  0  0  0  0  0  0  0  0
    0.1619    1.8022    6.7542 H   0  0  0  0  0  0  0  0  0  0  0  0
   -2.2221    1.1069    4.8854 H   0  0  0  0  0  0  0  0  0  0  0  0
   -3.6459    2.5715    3.4506 H   0  0  0  0  0  0  0  0  0  0  0  0
   -2.4651    5.3816    1.8041 H   0  0  0  0  0  0  0  0  0  0  0  0
    1.6058    3.9966    2.2162 H   0  0  0  0  0  0  0  0  0  0  0  0
    3.0586    4.1505    3.1058 H   0  0  0  0  0  0  0  0  0  0  0  0
    1.2319    1.7483    2.9521 H   0  0  0  0  0  0  0  0  0  0  0  0
    2.8596    1.9072    2.3991 H   0  0  0  0  0  0  0  0  0  0  0  0
    4.6155    2.3767    4.4557 H   0  0  0  0  0  0  0  0  0  0  0  0
    4.3069    1.1565    5.6591 H   0  0  0  0  0  0  0  0  0  0  0  0
    4.2572    0.3946    2.6918 H   0  0  0  0  0  0  0  0  0  0  0  0
    4.8552   -1.1373    5.3207 H   0  0  0  0  0  0  0  0  0  0  0  0
    4.7934   -1.8268    3.6140 H   0  0  0  0  0  0  0  0  0  0  0  0
    6.6096   -0.2540    2.8952 H   0  0  0  0  0  0  0  0  0  0  0  0
    6.6842    0.4727    4.5843 H   0  0  0  0  0  0  0  0  0  0  0  0
    0.4356    6.0920    5.2043 H   0  0  0  0  0  0  0  0  0  0  0  0
    2.6125    6.3293    3.0812 H   0  0  0  0  0  0  0  0  0  0  0  0
    1.1817    8.1196    3.4040 H   0  0  0  0  0  0  0  0  0  0  0  0
  1  2  1  0
  1 29  1  0
  1 30  1  0
  1 31  1  0
  2  3  1  0
  3  4  1  0
  3 32  1  0
  3 33  1  0
  4 27  1  0
  4  5  1  0
  4 34  1  1
  5  6  1  0
  5 35  1  0
  5 36  1  0
  6 17  1  0
  6  7  1  1
  6  8  1  0
  7 37  1  0
  8 20  1  0
  8  9  1  0
  8 38  1  1
  9 10  1  0
  9 39  1  0
  9 40  1  0
 10 16  2  0
 10 11  1  0
 11 12  2  0
 11 41  1  0
 12 13  1  0
 12 42  1  0
 13 14  1  0
 13 15  2  0
 14 43  1  0
 15 26  1  0
 15 16  1  0
 16 17  1  0
 17 18  1  6
 17 25  1  0
 18 19  1  0
 18 44  1  0
 18 45  1  0
 19 20  1  0
 19 46  1  0
 19 47  1  0
 20 21  1  0
 21 22  1  0
 21 48  1  0
 21 49  1  0
 22 24  1  0
 22 23  1  0
 22 50  1  0
 23 24  1  0
 23 51  1  0
 23 52  1  0
 24 53  1  0
 24 54  1  0
 25 26  1  0
 25 27  1  0
 25 55  1  1
 27 28  1  0
 27 56  1  6
 28 57  1  0
M  END
>  <i_m_ct_stereo_status>  (110) 
1

>  <s_m_source_file>  (110) 
/var/tmp/pbs.5076255.sched01/tmppm3sokcv/34yi_btuhz.sdf

>  <i_m_source_file_index>  (110) 
11

>  <i_lp_mmshare_version>  (110) 
48012

>  <i_f3d_flags>  (110) 
0

>  <s_epik_input>  (110) 
W0NIM11PW0NIMl1bQ0BIXShbQ0gyXTEpW0NASF0oW09IXSlbQ0BIXTJPYyhjKFtPSF0pW2NIXVtjSF0zKWM0YzNbQ0gyXVtDQEhdKFtDQEBdMShbQ0BdMjQ1KVtPSF0pTihbQ0gyXVtDSDJdNSlbQ0gyXVtDSF02W0NIMl1bQ0gyXTY=

>  <s_epik_cmdline>  (110) 
J2VwaWtfcHl0aG9uJywgJy1waHQnLCAnMi4wJywgJy1waCcsICc3LjAnLCAnLXRuJywgJzgnLCAnLW1hJywgJzIwMCcsICctaW1hZScsICc8aW5maWxlLm1hZT4nLCAnLW9tYWUnLCAnPG91dGZpbGUubWFlPic=

>  <r_lp_tautomer_probability>  (110) 
1

>  <r_epik_Ionization_Penalty>  (110) 
1.83028

>  <r_epik_Ionization_Penalty_Charging>  (110) 
0

>  <r_epik_Ionization_Penalty_Neutral>  (110) 
1.83028

>  <r_epik_State_Penalty>  (110) 
1.95323

>  <r_epik_Charging_Adjusted_Penalty>  (110) 
1.95323

>  <i_epik_Tot_Q>  (110) 
0

>  <i_epik_Tot_abs_Q>  (110) 
0

>  <s_lp_Force_Field>  (110) 
OPLS3e

>  <r_lp_Energy>  (110) 
85.5814

>  <b_lp_Chiralities_Consistent>  (110) 
1

>  <s_lp_Variant>  (110) 
32:0-2

>  <s_i_glide_gridfile>  (110) 
pfpi4k_grid

>  <i_i_glide_lignum>  (110) 
11

>  <i_i_glide_rotatable_bonds>  (110) 
7

>  <r_i_docking_score>  (110) 
-2.52532

>  <r_i_glide_ligand_efficiency>  (110) 
-0.0901899

>  <r_i_glide_ligand_efficiency_sa>  (110) 
-0.27387

>  <r_i_glide_ligand_efficiency_ln>  (110) 
-0.582918

>  <r_i_glide_gscore>  (110) 
-2.52532

>  <r_i_glide_lipo>  (110) 
-0.203717

>  <r_i_glide_hbond>  (110) 
-0.0139265

>  <r_i_glide_metal>  (110) 
-0

>  <r_i_glide_rewards>  (110) 
-0.767254

>  <r_i_glide_evdw>  (110) 
-18.3142

>  <r_i_glide_ecoul>  (110) 
-6.75897

>  <r_i_glide_erotb>  (110) 
0.389137

>  <r_i_glide_esite>  (110) 
0

>  <r_i_glide_emodel>  (110) 
-28.43

>  <r_i_glide_energy>  (110) 
-25.0732

>  <r_i_glide_einternal>  (110) 
1.97993

>  <r_i_glide_intrahb_reward>  (110) 
-0

>  <i_i_glide_confnum>  (110) 
2

>  <i_i_glide_posenum>  (110) 
35

>  <r_i_glide_eff_state_penalty>  (110) 
0

>  <ligand_id>  (110) 
32

>  <original_smiles>  (110) 
COCC1CC2(O)C3Cc4ccc(O)c5c4C2(CCN3CC2CC2)C(O5)C1O

>  <smiles>  (110) 
[H]Oc1c([H])c([H])c2c3c1OC1([H])C([H])(O[H])C([H])(C([H])([H])OC([H])([H])[H])C([H])([H])C4(O[H])C([H])(N(C([H])([H])C5([H])C([H])([H])C5([H])[H])C([H])([H])C([H])([H])C314)C2([H])[H]

$$$$
32:1:2
     RDKit          3D

 57 62  0  0  1  0  0  0  0  0999 V2000
    2.4287   -4.7873    1.9468 C   0  0  0  0  0  0  0  0  0  0  0  0
    2.1236   -3.5288    2.5277 O   0  0  0  0  0  0  0  0  0  0  0  0
    3.2456   -2.6566    2.5898 C   0  0  0  0  0  0  0  0  0  0  0  0
    2.8550   -1.3208    3.2699 C   0  0  2  0  0  0  0  0  0  0  0  0
    2.3959   -1.5703    4.7558 C   0  0  0  0  0  0  0  0  0  0  0  0
    1.6440   -0.3899    5.4491 C   0  0  2  0  0  0  0  0  0  0  0  0
    2.6572    0.5614    5.7608 O   0  0  0  0  0  0  0  0  0  0  0  0
    0.7719   -0.6284    6.7445 C   0  0  1  0  0  0  0  0  0  0  0  0
    0.2065    0.7364    7.2769 C   0  0  0  0  0  0  0  0  0  0  0  0
   -0.3547    1.7030    6.2251 C   0  0  0  0  0  0  0  0  0  0  0  0
   -1.1152    2.8814    6.3910 C   0  0  0  0  0  0  0  0  0  0  0  0
   -1.4706    3.6540    5.2517 C   0  0  0  0  0  0  0  0  0  0  0  0
   -1.0510    3.2969    3.9378 C   0  0  0  0  0  0  0  0  0  0  0  0
   -1.3876    4.0931    2.8851 O   0  0  0  0  0  0  0  0  0  0  0  0
   -0.2720    2.1396    3.7569 C   0  0  0  0  0  0  0  0  0  0  0  0
   -0.0164    1.4112    4.9021 C   0  0  0  0  0  0  0  0  0  0  0  0
    0.6636    0.1785    4.4358 C   0  0  2  0  0  0  0  0  0  0  0  0
   -0.4349   -0.8908    4.1550 C   0  0  0  0  0  0  0  0  0  0  0  0
   -1.2162   -1.2423    5.4199 C   0  0  0  0  0  0  0  0  0  0  0  0
   -0.3691   -1.5612    6.5769 N   0  0  0  0  0  0  0  0  0  0  0  0
   -0.0822   -2.9749    6.8099 C   0  0  0  0  0  0  0  0  0  0  0  0
   -1.3043   -3.8794    6.9202 C   0  0  0  0  0  0  0  0  0  0  0  0
   -1.4299   -4.8839    8.0421 C   0  0  0  0  0  0  0  0  0  0  0  0
   -1.1395   -5.3581    6.6388 C   0  0  0  0  0  0  0  0  0  0  0  0
    1.3257    0.7037    3.1517 C   0  0  2  0  0  0  0  0  0  0  0  0
    0.3072    1.5854    2.6254 O   0  0  0  0  0  0  0  0  0  0  0  0
    1.8750   -0.4968    2.3627 C   0  0  1  0  0  0  0  0  0  0  0  0
    2.6169   -0.0099    1.2687 O   0  0  0  0  0  0  0  0  0  0  0  0
    1.5355   -5.4092    1.9362 H   0  0  0  0  0  0  0  0  0  0  0  0
    3.1918   -5.3194    2.5142 H   0  0  0  0  0  0  0  0  0  0  0  0
    2.7704   -4.6815    0.9173 H   0  0  0  0  0  0  0  0  0  0  0  0
    4.0532   -3.1330    3.1522 H   0  0  0  0  0  0  0  0  0  0  0  0
    3.6231   -2.4735    1.5792 H   0  0  0  0  0  0  0  0  0  0  0  0
    3.7682   -0.7259    3.3450 H   0  0  0  0  0  0  0  0  0  0  0  0
    1.7766   -2.4593    4.7392 H   0  0  0  0  0  0  0  0  0  0  0  0
    3.2566   -1.8508    5.3544 H   0  0  0  0  0  0  0  0  0  0  0  0
    3.2621    0.1876    6.3837 H   0  0  0  0  0  0  0  0  0  0  0  0
    1.4184   -1.0144    7.5328 H   0  0  0  0  0  0  0  0  0  0  0  0
   -0.5780    0.5378    8.0103 H   0  0  0  0  0  0  0  0  0  0  0  0
    0.9904    1.2618    7.8187 H   0  0  0  0  0  0  0  0  0  0  0  0
   -1.4116    3.1926    7.3805 H   0  0  0  0  0  0  0  0  0  0  0  0
   -2.0613    4.5370    5.3850 H   0  0  0  0  0  0  0  0  0  0  0  0
   -0.7737    4.0476    2.1338 H   0  0  0  0  0  0  0  0  0  0  0  0
   -1.1335   -0.5236    3.4046 H   0  0  0  0  0  0  0  0  0  0  0  0
   -0.0296   -1.8183    3.7463 H   0  0  0  0  0  0  0  0  0  0  0  0
   -1.8605   -0.3993    5.6733 H   0  0  0  0  0  0  0  0  0  0  0  0
   -1.8817   -2.0633    5.1791 H   0  0  0  0  0  0  0  0  0  0  0  0
    0.5636   -3.3879    6.0388 H   0  0  0  0  0  0  0  0  0  0  0  0
    0.4800   -3.0681    7.7414 H   0  0  0  0  0  0  0  0  0  0  0  0
   -2.2524   -3.4376    6.6087 H   0  0  0  0  0  0  0  0  0  0  0  0
   -0.6289   -4.9033    8.7817 H   0  0  0  0  0  0  0  0  0  0  0  0
   -2.4355   -5.0202    8.4334 H   0  0  0  0  0  0  0  0  0  0  0  0
   -1.9411   -5.8306    6.0774 H   0  0  0  0  0  0  0  0  0  0  0  0
   -0.1359   -5.7222    6.4156 H   0  0  0  0  0  0  0  0  0  0  0  0
    2.1711    1.3459    3.4084 H   0  0  0  0  0  0  0  0  0  0  0  0
    1.0696   -1.1119    1.9664 H   0  0  0  0  0  0  0  0  0  0  0  0
    2.0555   -0.0853    0.5009 H   0  0  0  0  0  0  0  0  0  0  0  0
  1  2  1  0
  1 29  1  0
  1 30  1  0
  1 31  1  0
  2  3  1  0
  3  4  1  0
  3 32  1  0
  3 33  1  0
  4 27  1  0
  4  5  1  0
  4 34  1  1
  5  6  1  0
  5 35  1  0
  5 36  1  0
  6 17  1  0
  6  7  1  1
  6  8  1  0
  7 37  1  0
  8 20  1  0
  8  9  1  0
  8 38  1  1
  9 10  1  0
  9 39  1  0
  9 40  1  0
 10 16  2  0
 10 11  1  0
 11 12  2  0
 11 41  1  0
 12 13  1  0
 12 42  1  0
 13 14  1  0
 13 15  2  0
 14 43  1  0
 15 26  1  0
 15 16  1  0
 16 17  1  0
 17 18  1  6
 17 25  1  0
 18 19  1  0
 18 44  1  0
 18 45  1  0
 19 20  1  0
 19 46  1  0
 19 47  1  0
 20 21  1  0
 21 22  1  0
 21 48  1  0
 21 49  1  0
 22 24  1  0
 22 23  1  0
 22 50  1  0
 23 24  1  0
 23 51  1  0
 23 52  1  0
 24 53  1  0
 24 54  1  0
 25 26  1  0
 25 27  1  0
 25 55  1  1
 27 28  1  0
 27 56  1  6
 28 57  1  0
M  END
>  <i_m_ct_stereo_status>  (111) 
1

>  <s_m_source_file>  (111) 
/var/tmp/pbs.5076255.sched01/tmppm3sokcv/34yi_btuhz.sdf

>  <i_m_source_file_index>  (111) 
11

>  <i_lp_mmshare_version>  (111) 
48012

>  <i_f3d_flags>  (111) 
0

>  <s_epik_input>  (111) 
W0NIM11PW0NIMl1bQ0BIXShbQ0gyXTEpW0NASF0oW09IXSlbQ0BIXTJPYyhjKFtPSF0pW2NIXVtjSF0zKWM0YzNbQ0gyXVtDQEhdKFtDQEBdMShbQ0BdMjQ1KVtPSF0pTihbQ0gyXVtDSDJdNSlbQ0gyXVtDSF02W0NIMl1bQ0gyXTY=

>  <s_epik_cmdline>  (111) 
J2VwaWtfcHl0aG9uJywgJy1waHQnLCAnMi4wJywgJy1waCcsICc3LjAnLCAnLXRuJywgJzgnLCAnLW1hJywgJzIwMCcsICctaW1hZScsICc8aW5maWxlLm1hZT4nLCAnLW9tYWUnLCAnPG91dGZpbGUubWFlPic=

>  <r_lp_tautomer_probability>  (111) 
1

>  <r_epik_Ionization_Penalty>  (111) 
1.83028

>  <r_epik_Ionization_Penalty_Charging>  (111) 
0

>  <r_epik_Ionization_Penalty_Neutral>  (111) 
1.83028

>  <r_epik_State_Penalty>  (111) 
1.95323

>  <r_epik_Charging_Adjusted_Penalty>  (111) 
1.95323

>  <i_epik_Tot_Q>  (111) 
0

>  <i_epik_Tot_abs_Q>  (111) 
0

>  <s_lp_Force_Field>  (111) 
OPLS3e

>  <r_lp_Energy>  (111) 
85.5814

>  <b_lp_Chiralities_Consistent>  (111) 
1

>  <s_lp_Variant>  (111) 
32:0-2

>  <s_i_glide_gridfile>  (111) 
pfpi4k_grid

>  <i_i_glide_lignum>  (111) 
11

>  <i_i_glide_rotatable_bonds>  (111) 
7

>  <r_i_docking_score>  (111) 
-2.51658

>  <r_i_glide_ligand_efficiency>  (111) 
-0.0898779

>  <r_i_glide_ligand_efficiency_sa>  (111) 
-0.272922

>  <r_i_glide_ligand_efficiency_ln>  (111) 
-0.580901

>  <r_i_glide_gscore>  (111) 
-2.51658

>  <r_i_glide_lipo>  (111) 
-0.100773

>  <r_i_glide_hbond>  (111) 
0

>  <r_i_glide_metal>  (111) 
-0

>  <r_i_glide_rewards>  (111) 
-0.767254

>  <r_i_glide_evdw>  (111) 
-18.9416

>  <r_i_glide_ecoul>  (111) 
-7.27074

>  <r_i_glide_erotb>  (111) 
0.389137

>  <r_i_glide_esite>  (111) 
0

>  <r_i_glide_emodel>  (111) 
-29.121

>  <r_i_glide_energy>  (111) 
-26.2123

>  <r_i_glide_einternal>  (111) 
2.99503

>  <r_i_glide_intrahb_reward>  (111) 
-0

>  <i_i_glide_confnum>  (111) 
1

>  <i_i_glide_posenum>  (111) 
9

>  <r_i_glide_eff_state_penalty>  (111) 
0

>  <ligand_id>  (111) 
32

>  <original_smiles>  (111) 
COCC1CC2(O)C3Cc4ccc(O)c5c4C2(CCN3CC2CC2)C(O5)C1O

>  <smiles>  (111) 
[H]Oc1c([H])c([H])c2c3c1OC1([H])C([H])(O[H])C([H])(C([H])([H])OC([H])([H])[H])C([H])([H])C4(O[H])C([H])(N(C([H])([H])C5([H])C([H])([H])C5([H])[H])C([H])([H])C([H])([H])C314)C2([H])[H]

$$$$
32:2:0
     RDKit          3D

 57 62  0  0  1  0  0  0  0  0999 V2000
    5.3879    8.0105    4.7969 C   0  0  0  0  0  0  0  0  0  0  0  0
    5.1776    7.0760    3.7490 O   0  0  0  0  0  0  0  0  0  0  0  0
    3.8070    6.8879    3.4259 C   0  0  0  0  0  0  0  0  0  0  0  0
    3.0729    6.0152    4.4751 C   0  0  2  0  0  0  0  0  0  0  0  0
    3.6780    4.5582    4.4579 C   0  0  0  0  0  0  0  0  0  0  0  0
    2.8420    3.4658    5.1737 C   0  0  2  0  0  0  0  0  0  0  0  0
    3.0355    3.6557    6.5662 O   0  0  0  0  0  0  0  0  0  0  0  0
    3.1264    1.9547    4.8544 C   0  0  1  0  0  0  0  0  0  0  0  0
    2.1775    1.0363    5.7056 C   0  0  0  0  0  0  0  0  0  0  0  0
    0.7098    1.4712    5.8225 C   0  0  0  0  0  0  0  0  0  0  0  0
   -0.4088    0.7517    6.2993 C   0  0  0  0  0  0  0  0  0  0  0  0
   -1.6652    1.4084    6.3584 C   0  0  0  0  0  0  0  0  0  0  0  0
   -1.8192    2.7674    5.9880 C   0  0  0  0  0  0  0  0  0  0  0  0
   -3.0350    3.3480    6.0791 O   0  0  0  0  0  0  0  0  0  0  0  0
   -0.7127    3.5115    5.5316 C   0  0  0  0  0  0  0  0  0  0  0  0
    0.4524    2.7919    5.4454 C   0  0  0  0  0  0  0  0  0  0  0  0
    1.4000    3.6959    4.7628 C   0  0  2  0  0  0  0  0  0  0  0  0
    1.2617    3.4402    3.2258 C   0  0  0  0  0  0  0  0  0  0  0  0
    1.6698    2.0146    2.8380 C   0  0  0  0  0  0  0  0  0  0  0  0
    3.0146    1.6765    3.3823 N   0  0  2  0  0  0  0  0  0  0  0  0
    3.4687    0.3114    2.9990 C   0  0  0  0  0  0  0  0  0  0  0  0
    3.7667    0.1870    1.5107 C   0  0  0  0  0  0  0  0  0  0  0  0
    3.8809   -1.1848    0.8699 C   0  0  0  0  0  0  0  0  0  0  0  0
    5.1080   -0.3309    1.0329 C   0  0  0  0  0  0  0  0  0  0  0  0
    0.8442    5.0661    5.1817 C   0  0  2  0  0  0  0  0  0  0  0  0
   -0.5835    4.8273    5.1418 O   0  0  0  0  0  0  0  0  0  0  0  0
    1.5138    6.1525    4.3269 C   0  0  1  0  0  0  0  0  0  0  0  0
    1.1495    7.4104    4.8693 O   0  0  0  0  0  0  0  0  0  0  0  0
    6.4565    8.1080    4.9803 H   0  0  0  0  0  0  0  0  0  0  0  0
    4.9392    7.6895    5.7341 H   0  0  0  0  0  0  0  0  0  0  0  0
    4.9838    8.9911    4.5404 H   0  0  0  0  0  0  0  0  0  0  0  0
    3.3177    7.8538    3.2927 H   0  0  0  0  0  0  0  0  0  0  0  0
    3.7689    6.3886    2.4577 H   0  0  0  0  0  0  0  0  0  0  0  0
    3.2704    6.3938    5.4745 H   0  0  0  0  0  0  0  0  0  0  0  0
    3.8372    4.2581    3.4268 H   0  0  0  0  0  0  0  0  0  0  0  0
    4.6641    4.5954    4.9200 H   0  0  0  0  0  0  0  0  0  0  0  0
    2.3390    3.2099    7.0274 H   0  0  0  0  0  0  0  0  0  0  0  0
    4.1577    1.7378    5.1483 H   0  0  0  0  0  0  0  0  0  0  0  0
    2.1994    0.0051    5.3563 H   0  0  0  0  0  0  0  0  0  0  0  0
    2.5567    0.9943    6.7272 H   0  0  0  0  0  0  0  0  0  0  0  0
   -0.3043   -0.2794    6.6020 H   0  0  0  0  0  0  0  0  0  0  0  0
   -2.5376    0.8747    6.6886 H   0  0  0  0  0  0  0  0  0  0  0  0
    0.2400    3.6156    2.8873 H   0  0  0  0  0  0  0  0  0  0  0  0
    1.8666    4.1233    2.6285 H   0  0  0  0  0  0  0  0  0  0  0  0
    0.9208    1.2964    3.1764 H   0  0  0  0  0  0  0  0  0  0  0  0
    1.6554    1.9611    1.7510 H   0  0  0  0  0  0  0  0  0  0  0  0
    4.3753    0.0549    3.5502 H   0  0  0  0  0  0  0  0  0  0  0  0
    2.7168   -0.4339    3.2584 H   0  0  0  0  0  0  0  0  0  0  0  0
    3.2991    0.9403    0.8815 H   0  0  0  0  0  0  0  0  0  0  0  0
    3.7804   -2.0620    1.5072 H   0  0  0  0  0  0  0  0  0  0  0  0
    3.4821   -1.2950   -0.1380 H   0  0  0  0  0  0  0  0  0  0  0  0
    5.5156    0.1338    0.1377 H   0  0  0  0  0  0  0  0  0  0  0  0
    5.8385   -0.6227    1.7866 H   0  0  0  0  0  0  0  0  0  0  0  0
    1.0869    5.2623    6.2279 H   0  0  0  0  0  0  0  0  0  0  0  0
    1.1819    6.1083    3.2893 H   0  0  0  0  0  0  0  0  0  0  0  0
    1.0075    8.0159    4.1517 H   0  0  0  0  0  0  0  0  0  0  0  0
    3.6759    2.3094    2.9398 H   0  0  0  0  0  0  0  0  0  0  0  0
  1  2  1  0
  1 29  1  0
  1 30  1  0
  1 31  1  0
  2  3  1  0
  3  4  1  0
  3 32  1  0
  3 33  1  0
  4 27  1  0
  4  5  1  0
  4 34  1  1
  5  6  1  0
  5 35  1  0
  5 36  1  0
  6 17  1  0
  6  7  1  1
  6  8  1  0
  7 37  1  0
  8 20  1  0
  8  9  1  0
  8 38  1  1
  9 10  1  0
  9 39  1  0
  9 40  1  0
 10 16  2  0
 10 11  1  0
 11 12  2  0
 11 41  1  0
 12 13  1  0
 12 42  1  0
 13 14  1  0
 13 15  2  0
 15 26  1  0
 15 16  1  0
 16 17  1  0
 17 18  1  6
 17 25  1  0
 18 19  1  0
 18 43  1  0
 18 44  1  0
 19 20  1  0
 19 45  1  0
 19 46  1  0
 20 21  1  0
 20 57  1  6
 21 22  1  0
 21 47  1  0
 21 48  1  0
 22 24  1  0
 22 23  1  0
 22 49  1  0
 23 24  1  0
 23 50  1  0
 23 51  1  0
 24 52  1  0
 24 53  1  0
 25 26  1  0
 25 27  1  0
 25 54  1  1
 27 28  1  0
 27 55  1  6
 28 56  1  0
M  CHG  2  14  -1  20   1
M  END
>  <i_m_ct_stereo_status>  (112) 
1

>  <s_m_source_file>  (112) 
/var/tmp/pbs.5076255.sched01/tmppm3sokcv/34yi_btuhz.sdf

>  <i_m_source_file_index>  (112) 
12

>  <i_lp_mmshare_version>  (112) 
48012

>  <i_f3d_flags>  (112) 
0

>  <s_epik_input>  (112) 
W0NIM11PW0NIMl1bQ0BIXShbQ0gyXTEpW0NASF0oW09IXSlbQ0BIXTJPYyhjKFtPSF0pW2NIXVtjSF0zKWM0YzNbQ0gyXVtDQEhdKFtDQEBdMShbQ0BdMjQ1KVtPSF0pTihbQ0gyXVtDSDJdNSlbQ0gyXVtDSF02W0NIMl1bQ0gyXTY=

>  <s_epik_cmdline>  (112) 
J2VwaWtfcHl0aG9uJywgJy1waHQnLCAnMi4wJywgJy1waCcsICc3LjAnLCAnLXRuJywgJzgnLCAnLW1hJywgJzIwMCcsICctaW1hZScsICc8aW5maWxlLm1hZT4nLCAnLW9tYWUnLCAnPG91dGZpbGUubWFlPic=

>  <r_epik_Ionization_Penalty>  (112) 
2.42202

>  <r_epik_Ionization_Penalty_Charging>  (112) 
2.42202

>  <r_epik_Ionization_Penalty_Neutral>  (112) 
4.27445e-07

>  <r_epik_State_Penalty>  (112) 
2.57656

>  <r_epik_Charging_Adjusted_Penalty>  (112) 
4.99858

>  <i_epik_Tot_Q>  (112) 
0

>  <i_epik_Tot_abs_Q>  (112) 
2

>  <s_lp_Force_Field>  (112) 
OPLS3e

>  <r_lp_Energy>  (112) 
74.0989

>  <b_lp_Chiralities_Consistent>  (112) 
1

>  <s_lp_Variant>  (112) 
32:0-3

>  <s_i_glide_gridfile>  (112) 
pfpi4k_grid

>  <i_i_glide_lignum>  (112) 
12

>  <i_i_glide_rotatable_bonds>  (112) 
6

>  <r_i_docking_score>  (112) 
-2.98571

>  <r_i_glide_ligand_efficiency>  (112) 
-0.106632

>  <r_i_glide_ligand_efficiency_sa>  (112) 
-0.323799

>  <r_i_glide_ligand_efficiency_ln>  (112) 
-0.689189

>  <r_i_glide_gscore>  (112) 
-2.98571

>  <r_i_glide_lipo>  (112) 
-0.428322

>  <r_i_glide_hbond>  (112) 
0

>  <r_i_glide_metal>  (112) 
-0

>  <r_i_glide_rewards>  (112) 
-0.767254

>  <r_i_glide_evdw>  (112) 
-20.4411

>  <r_i_glide_ecoul>  (112) 
-7.60409

>  <r_i_glide_erotb>  (112) 
0.389137

>  <r_i_glide_esite>  (112) 
-0.0166027

>  <r_i_glide_emodel>  (112) 
-33.7742

>  <r_i_glide_energy>  (112) 
-28.0452

>  <r_i_glide_einternal>  (112) 
2.68766

>  <r_i_glide_intrahb_reward>  (112) 
-0

>  <i_i_glide_confnum>  (112) 
2

>  <i_i_glide_posenum>  (112) 
18

>  <r_i_glide_eff_state_penalty>  (112) 
0

>  <ligand_id>  (112) 
32

>  <original_smiles>  (112) 
COCC1CC2(O)C3Cc4ccc(O)c5c4C2(CCN3CC2CC2)C(O5)C1O

>  <smiles>  (112) 
[H]OC1([H])C2([H])Oc3c([O-])c([H])c([H])c4c3C23C([H])([H])C([H])([H])[N+]([H])(C([H])([H])C2([H])C([H])([H])C2([H])[H])C([H])(C4([H])[H])C3(O[H])C([H])([H])C1([H])C([H])([H])OC([H])([H])[H]

$$$$
32:2:1
     RDKit          3D

 57 62  0  0  1  0  0  0  0  0999 V2000
    5.3328    7.9918    4.7590 C   0  0  0  0  0  0  0  0  0  0  0  0
    5.1132    7.0809    3.6927 O   0  0  0  0  0  0  0  0  0  0  0  0
    3.7423    6.8925    3.3714 C   0  0  0  0  0  0  0  0  0  0  0  0
    2.9966    6.0398    4.4255 C   0  0  2  0  0  0  0  0  0  0  0  0
    3.6237    4.5955    4.4392 C   0  0  0  0  0  0  0  0  0  0  0  0
    2.8033    3.5245    5.1925 C   0  0  2  0  0  0  0  0  0  0  0  0
    3.0231    3.7891    6.5725 O   0  0  0  0  0  0  0  0  0  0  0  0
    3.1147    2.0105    4.9315 C   0  0  1  0  0  0  0  0  0  0  0  0
    2.1714    1.1035    5.8023 C   0  0  0  0  0  0  0  0  0  0  0  0
    0.6975    1.5052    5.8996 C   0  0  0  0  0  0  0  0  0  0  0  0
   -0.4176    0.7916    6.3936 C   0  0  0  0  0  0  0  0  0  0  0  0
   -1.6803    1.4353    6.4244 C   0  0  0  0  0  0  0  0  0  0  0  0
   -1.8502    2.7836    6.0105 C   0  0  0  0  0  0  0  0  0  0  0  0
   -3.0754    3.3419    6.0776 O   0  0  0  0  0  0  0  0  0  0  0  0
   -0.7480    3.5219    5.5329 C   0  0  0  0  0  0  0  0  0  0  0  0
    0.4205    2.8162    5.4765 C   0  0  0  0  0  0  0  0  0  0  0  0
    1.3584    3.7112    4.7749 C   0  0  2  0  0  0  0  0  0  0  0  0
    1.2406    3.4039    3.2450 C   0  0  0  0  0  0  0  0  0  0  0  0
    1.6821    1.9749    2.9058 C   0  0  0  0  0  0  0  0  0  0  0  0
    3.0155    1.6779    3.4746 N   0  0  2  0  0  0  0  0  0  0  0  0
    3.4876    0.3112    3.1376 C   0  0  0  0  0  0  0  0  0  0  0  0
    3.9119    0.1789    1.6794 C   0  0  0  0  0  0  0  0  0  0  0  0
    4.1201   -1.1947    1.0660 C   0  0  0  0  0  0  0  0  0  0  0  0
    5.3042   -0.3128    1.3290 C   0  0  0  0  0  0  0  0  0  0  0  0
    0.7802    5.0901    5.1404 C   0  0  2  0  0  0  0  0  0  0  0  0
   -0.6390    4.8325    5.0990 O   0  0  0  0  0  0  0  0  0  0  0  0
    1.4417    6.1496    4.2456 C   0  0  1  0  0  0  0  0  0  0  0  0
    1.0701    7.4242    4.7340 O   0  0  0  0  0  0  0  0  0  0  0  0
    6.4042    8.1104    4.9097 H   0  0  0  0  0  0  0  0  0  0  0  0
    4.9344    7.6284    5.7029 H   0  0  0  0  0  0  0  0  0  0  0  0
    4.8913    8.9675    4.5489 H   0  0  0  0  0  0  0  0  0  0  0  0
    3.2620    7.8603    3.2193 H   0  0  0  0  0  0  0  0  0  0  0  0
    3.7101    6.3669    2.4170 H   0  0  0  0  0  0  0  0  0  0  0  0
    3.1573    6.4427    5.4241 H   0  0  0  0  0  0  0  0  0  0  0  0
    3.8049    4.2673    3.4165 H   0  0  0  0  0  0  0  0  0  0  0  0
    4.6034    4.6624    4.9127 H   0  0  0  0  0  0  0  0  0  0  0  0
    2.6922    4.6516    6.7742 H   0  0  0  0  0  0  0  0  0  0  0  0
    4.1411    1.8149    5.2466 H   0  0  0  0  0  0  0  0  0  0  0  0
    2.2172    0.0636    5.4837 H   0  0  0  0  0  0  0  0  0  0  0  0
    2.5429    1.1048    6.8293 H   0  0  0  0  0  0  0  0  0  0  0  0
   -0.2969   -0.2276    6.7324 H   0  0  0  0  0  0  0  0  0  0  0  0
   -2.5509    0.9052    6.7696 H   0  0  0  0  0  0  0  0  0  0  0  0
    0.2165    3.5539    2.8939 H   0  0  0  0  0  0  0  0  0  0  0  0
    1.8358    4.0823    2.6301 H   0  0  0  0  0  0  0  0  0  0  0  0
    0.9334    1.2644    3.2570 H   0  0  0  0  0  0  0  0  0  0  0  0
    1.6877    1.8774    1.8227 H   0  0  0  0  0  0  0  0  0  0  0  0
    4.3387    0.0351    3.7582 H   0  0  0  0  0  0  0  0  0  0  0  0
    2.7114   -0.4277    3.3326 H   0  0  0  0  0  0  0  0  0  0  0  0
    3.4831    0.9066    0.9880 H   0  0  0  0  0  0  0  0  0  0  0  0
    3.9851   -2.0697    1.6996 H   0  0  0  0  0  0  0  0  0  0  0  0
    3.8212   -1.3252    0.0258 H   0  0  0  0  0  0  0  0  0  0  0  0
    5.7859    0.1471    0.4679 H   0  0  0  0  0  0  0  0  0  0  0  0
    5.9711   -0.5883    2.1454 H   0  0  0  0  0  0  0  0  0  0  0  0
    1.0129    5.3229    6.1818 H   0  0  0  0  0  0  0  0  0  0  0  0
    1.1183    6.0685    3.2069 H   0  0  0  0  0  0  0  0  0  0  0  0
    0.8614    7.9791    3.9868 H   0  0  0  0  0  0  0  0  0  0  0  0
    3.6749    2.3000    3.0181 H   0  0  0  0  0  0  0  0  0  0  0  0
  1  2  1  0
  1 29  1  0
  1 30  1  0
  1 31  1  0
  2  3  1  0
  3  4  1  0
  3 32  1  0
  3 33  1  0
  4 27  1  0
  4  5  1  0
  4 34  1  1
  5  6  1  0
  5 35  1  0
  5 36  1  0
  6 17  1  0
  6  7  1  1
  6  8  1  0
  7 37  1  0
  8 20  1  0
  8  9  1  0
  8 38  1  1
  9 10  1  0
  9 39  1  0
  9 40  1  0
 10 16  2  0
 10 11  1  0
 11 12  2  0
 11 41  1  0
 12 13  1  0
 12 42  1  0
 13 14  1  0
 13 15  2  0
 15 26  1  0
 15 16  1  0
 16 17  1  0
 17 18  1  6
 17 25  1  0
 18 19  1  0
 18 43  1  0
 18 44  1  0
 19 20  1  0
 19 45  1  0
 19 46  1  0
 20 21  1  0
 20 57  1  6
 21 22  1  0
 21 47  1  0
 21 48  1  0
 22 24  1  0
 22 23  1  0
 22 49  1  0
 23 24  1  0
 23 50  1  0
 23 51  1  0
 24 52  1  0
 24 53  1  0
 25 26  1  0
 25 27  1  0
 25 54  1  1
 27 28  1  0
 27 55  1  6
 28 56  1  0
M  CHG  2  14  -1  20   1
M  END
>  <i_m_ct_stereo_status>  (113) 
1

>  <s_m_source_file>  (113) 
/var/tmp/pbs.5076255.sched01/tmppm3sokcv/34yi_btuhz.sdf

>  <i_m_source_file_index>  (113) 
12

>  <i_lp_mmshare_version>  (113) 
48012

>  <i_f3d_flags>  (113) 
0

>  <s_epik_input>  (113) 
W0NIM11PW0NIMl1bQ0BIXShbQ0gyXTEpW0NASF0oW09IXSlbQ0BIXTJPYyhjKFtPSF0pW2NIXVtjSF0zKWM0YzNbQ0gyXVtDQEhdKFtDQEBdMShbQ0BdMjQ1KVtPSF0pTihbQ0gyXVtDSDJdNSlbQ0gyXVtDSF02W0NIMl1bQ0gyXTY=

>  <s_epik_cmdline>  (113) 
J2VwaWtfcHl0aG9uJywgJy1waHQnLCAnMi4wJywgJy1waCcsICc3LjAnLCAnLXRuJywgJzgnLCAnLW1hJywgJzIwMCcsICctaW1hZScsICc8aW5maWxlLm1hZT4nLCAnLW9tYWUnLCAnPG91dGZpbGUubWFlPic=

>  <r_epik_Ionization_Penalty>  (113) 
2.42202

>  <r_epik_Ionization_Penalty_Charging>  (113) 
2.42202

>  <r_epik_Ionization_Penalty_Neutral>  (113) 
4.27445e-07

>  <r_epik_State_Penalty>  (113) 
2.57656

>  <r_epik_Charging_Adjusted_Penalty>  (113) 
4.99858

>  <i_epik_Tot_Q>  (113) 
0

>  <i_epik_Tot_abs_Q>  (113) 
2

>  <s_lp_Force_Field>  (113) 
OPLS3e

>  <r_lp_Energy>  (113) 
74.0989

>  <b_lp_Chiralities_Consistent>  (113) 
1

>  <s_lp_Variant>  (113) 
32:0-3

>  <s_i_glide_gridfile>  (113) 
pfpi4k_grid

>  <i_i_glide_lignum>  (113) 
12

>  <i_i_glide_rotatable_bonds>  (113) 
6

>  <r_i_docking_score>  (113) 
-2.96951

>  <r_i_glide_ligand_efficiency>  (113) 
-0.106054

>  <r_i_glide_ligand_efficiency_sa>  (113) 
-0.322043

>  <r_i_glide_ligand_efficiency_ln>  (113) 
-0.685451

>  <r_i_glide_gscore>  (113) 
-2.96951

>  <r_i_glide_lipo>  (113) 
-0.370335

>  <r_i_glide_hbond>  (113) 
0

>  <r_i_glide_metal>  (113) 
-0

>  <r_i_glide_rewards>  (113) 
-0.767254

>  <r_i_glide_evdw>  (113) 
-19.8866

>  <r_i_glide_ecoul>  (113) 
-8.07592

>  <r_i_glide_erotb>  (113) 
0.389137

>  <r_i_glide_esite>  (113) 
-0.0153412

>  <r_i_glide_emodel>  (113) 
-33.6647

>  <r_i_glide_energy>  (113) 
-27.9625

>  <r_i_glide_einternal>  (113) 
2.68112

>  <r_i_glide_intrahb_reward>  (113) 
-0

>  <i_i_glide_confnum>  (113) 
3

>  <i_i_glide_posenum>  (113) 
38

>  <r_i_glide_eff_state_penalty>  (113) 
0

>  <ligand_id>  (113) 
32

>  <original_smiles>  (113) 
COCC1CC2(O)C3Cc4ccc(O)c5c4C2(CCN3CC2CC2)C(O5)C1O

>  <smiles>  (113) 
[H]OC1([H])C2([H])Oc3c([O-])c([H])c([H])c4c3C23C([H])([H])C([H])([H])[N+]([H])(C([H])([H])C2([H])C([H])([H])C2([H])[H])C([H])(C4([H])[H])C3(O[H])C([H])([H])C1([H])C([H])([H])OC([H])([H])[H]

$$$$
32:2:2
     RDKit          3D

 57 62  0  0  1  0  0  0  0  0999 V2000
    5.4077    7.9175    4.8036 C   0  0  0  0  0  0  0  0  0  0  0  0
    5.1942    6.9975    3.7434 O   0  0  0  0  0  0  0  0  0  0  0  0
    3.8235    6.8164    3.4132 C   0  0  0  0  0  0  0  0  0  0  0  0
    3.0847    5.9480    4.4622 C   0  0  2  0  0  0  0  0  0  0  0  0
    3.6772    4.4871    4.4408 C   0  0  0  0  0  0  0  0  0  0  0  0
    2.8373    3.4072    5.1720 C   0  0  2  0  0  0  0  0  0  0  0  0
    3.0141    3.6197    6.5698 O   0  0  0  0  0  0  0  0  0  0  0  0
    3.1069    1.8908    4.8474 C   0  0  1  0  0  0  0  0  0  0  0  0
    2.1495    0.9793    5.6967 C   0  0  0  0  0  0  0  0  0  0  0  0
    0.6845    1.4247    5.8158 C   0  0  0  0  0  0  0  0  0  0  0  0
   -0.4364    0.7186    6.3003 C   0  0  0  0  0  0  0  0  0  0  0  0
   -1.6854    1.3870    6.3681 C   0  0  0  0  0  0  0  0  0  0  0  0
   -1.8240    2.7464    5.9968 C   0  0  0  0  0  0  0  0  0  0  0  0
   -3.0344    3.3455    6.0905 O   0  0  0  0  0  0  0  0  0  0  0  0
   -0.7145    3.4783    5.5334 C   0  0  0  0  0  0  0  0  0  0  0  0
    0.4427    2.7473    5.4391 C   0  0  0  0  0  0  0  0  0  0  0  0
    1.3970    3.6428    4.7568 C   0  0  2  0  0  0  0  0  0  0  0  0
    1.2520    3.3882    3.2182 C   0  0  0  0  0  0  0  0  0  0  0  0
    1.6519    1.9586    2.8277 C   0  0  0  0  0  0  0  0  0  0  0  0
    2.9914    1.6131    3.3753 N   0  0  2  0  0  0  0  0  0  0  0  0
    3.4255    0.2424    2.9915 C   0  0  0  0  0  0  0  0  0  0  0  0
    3.8599    0.1598    1.5348 C   0  0  0  0  0  0  0  0  0  0  0  0
    4.0544   -1.1936    0.8761 C   0  0  0  0  0  0  0  0  0  0  0  0
    5.2506   -0.3347    1.1801 C   0  0  0  0  0  0  0  0  0  0  0  0
    0.8530    5.0172    5.1774 C   0  0  2  0  0  0  0  0  0  0  0  0
   -0.5769    4.7932    5.1429 O   0  0  0  0  0  0  0  0  0  0  0  0
    1.5265    6.0958    4.3164 C   0  0  1  0  0  0  0  0  0  0  0  0
    1.1784    7.3567    4.8607 O   0  0  0  0  0  0  0  0  0  0  0  0
    6.4781    8.0214    4.9753 H   0  0  0  0  0  0  0  0  0  0  0  0
    4.9722    7.5744    5.7392 H   0  0  0  0  0  0  0  0  0  0  0  0
    4.9926    8.8989    4.5682 H   0  0  0  0  0  0  0  0  0  0  0  0
    3.3400    7.7852    3.2793 H   0  0  0  0  0  0  0  0  0  0  0  0
    3.7823    6.3163    2.4447 H   0  0  0  0  0  0  0  0  0  0  0  0
    3.2821    6.3191    5.4642 H   0  0  0  0  0  0  0  0  0  0  0  0
    3.8251    4.1845    3.4073 H   0  0  0  0  0  0  0  0  0  0  0  0
    4.6686    4.5203    4.8917 H   0  0  0  0  0  0  0  0  0  0  0  0
    3.9144    3.4732    6.8126 H   0  0  0  0  0  0  0  0  0  0  0  0
    4.1387    1.6617    5.1353 H   0  0  0  0  0  0  0  0  0  0  0  0
    2.1692   -0.0505    5.3398 H   0  0  0  0  0  0  0  0  0  0  0  0
    2.5332    0.9397    6.7178 H   0  0  0  0  0  0  0  0  0  0  0  0
   -0.3386   -0.3107    6.6060 H   0  0  0  0  0  0  0  0  0  0  0  0
   -2.5609    0.8648    6.7029 H   0  0  0  0  0  0  0  0  0  0  0  0
    0.2275    3.5708    2.8861 H   0  0  0  0  0  0  0  0  0  0  0  0
    1.8573    4.0706    2.6182 H   0  0  0  0  0  0  0  0  0  0  0  0
    0.8919    1.2512    3.1682 H   0  0  0  0  0  0  0  0  0  0  0  0
    1.6512    1.8913    1.7390 H   0  0  0  0  0  0  0  0  0  0  0  0
    4.2642   -0.0758    3.6132 H   0  0  0  0  0  0  0  0  0  0  0  0
    2.6218   -0.4780    3.1555 H   0  0  0  0  0  0  0  0  0  0  0  0
    3.4413    0.9241    0.8811 H   0  0  0  0  0  0  0  0  0  0  0  0
    3.9051   -2.0875    1.4789 H   0  0  0  0  0  0  0  0  0  0  0  0
    3.7649   -1.2842   -0.1695 H   0  0  0  0  0  0  0  0  0  0  0  0
    5.7449    0.1436    0.3384 H   0  0  0  0  0  0  0  0  0  0  0  0
    5.9051   -0.6470    1.9940 H   0  0  0  0  0  0  0  0  0  0  0  0
    1.1001    5.2138    6.2215 H   0  0  0  0  0  0  0  0  0  0  0  0
    1.1892    6.0558    3.2810 H   0  0  0  0  0  0  0  0  0  0  0  0
    1.0140    7.9611    4.1432 H   0  0  0  0  0  0  0  0  0  0  0  0
    3.6564    2.2374    2.9304 H   0  0  0  0  0  0  0  0  0  0  0  0
  1  2  1  0
  1 29  1  0
  1 30  1  0
  1 31  1  0
  2  3  1  0
  3  4  1  0
  3 32  1  0
  3 33  1  0
  4 27  1  0
  4  5  1  0
  4 34  1  1
  5  6  1  0
  5 35  1  0
  5 36  1  0
  6 17  1  0
  6  7  1  1
  6  8  1  0
  7 37  1  0
  8 20  1  0
  8  9  1  0
  8 38  1  1
  9 10  1  0
  9 39  1  0
  9 40  1  0
 10 16  2  0
 10 11  1  0
 11 12  2  0
 11 41  1  0
 12 13  1  0
 12 42  1  0
 13 14  1  0
 13 15  2  0
 15 26  1  0
 15 16  1  0
 16 17  1  0
 17 18  1  6
 17 25  1  0
 18 19  1  0
 18 43  1  0
 18 44  1  0
 19 20  1  0
 19 45  1  0
 19 46  1  0
 20 21  1  0
 20 57  1  6
 21 22  1  0
 21 47  1  0
 21 48  1  0
 22 24  1  0
 22 23  1  0
 22 49  1  0
 23 24  1  0
 23 50  1  0
 23 51  1  0
 24 52  1  0
 24 53  1  0
 25 26  1  0
 25 27  1  0
 25 54  1  1
 27 28  1  0
 27 55  1  6
 28 56  1  0
M  CHG  2  14  -1  20   1
M  END
>  <i_m_ct_stereo_status>  (114) 
1

>  <s_m_source_file>  (114) 
/var/tmp/pbs.5076255.sched01/tmppm3sokcv/34yi_btuhz.sdf

>  <i_m_source_file_index>  (114) 
12

>  <i_lp_mmshare_version>  (114) 
48012

>  <i_f3d_flags>  (114) 
0

>  <s_epik_input>  (114) 
W0NIM11PW0NIMl1bQ0BIXShbQ0gyXTEpW0NASF0oW09IXSlbQ0BIXTJPYyhjKFtPSF0pW2NIXVtjSF0zKWM0YzNbQ0gyXVtDQEhdKFtDQEBdMShbQ0BdMjQ1KVtPSF0pTihbQ0gyXVtDSDJdNSlbQ0gyXVtDSF02W0NIMl1bQ0gyXTY=

>  <s_epik_cmdline>  (114) 
J2VwaWtfcHl0aG9uJywgJy1waHQnLCAnMi4wJywgJy1waCcsICc3LjAnLCAnLXRuJywgJzgnLCAnLW1hJywgJzIwMCcsICctaW1hZScsICc8aW5maWxlLm1hZT4nLCAnLW9tYWUnLCAnPG91dGZpbGUubWFlPic=

>  <r_epik_Ionization_Penalty>  (114) 
2.42202

>  <r_epik_Ionization_Penalty_Charging>  (114) 
2.42202

>  <r_epik_Ionization_Penalty_Neutral>  (114) 
4.27445e-07

>  <r_epik_State_Penalty>  (114) 
2.57656

>  <r_epik_Charging_Adjusted_Penalty>  (114) 
4.99858

>  <i_epik_Tot_Q>  (114) 
0

>  <i_epik_Tot_abs_Q>  (114) 
2

>  <s_lp_Force_Field>  (114) 
OPLS3e

>  <r_lp_Energy>  (114) 
74.0989

>  <b_lp_Chiralities_Consistent>  (114) 
1

>  <s_lp_Variant>  (114) 
32:0-3

>  <s_i_glide_gridfile>  (114) 
pfpi4k_grid

>  <i_i_glide_lignum>  (114) 
12

>  <i_i_glide_rotatable_bonds>  (114) 
6

>  <r_i_docking_score>  (114) 
-2.95051

>  <r_i_glide_ligand_efficiency>  (114) 
-0.105376

>  <r_i_glide_ligand_efficiency_sa>  (114) 
-0.319982

>  <r_i_glide_ligand_efficiency_ln>  (114) 
-0.681065

>  <r_i_glide_gscore>  (114) 
-2.95051

>  <r_i_glide_lipo>  (114) 
-0.410964

>  <r_i_glide_hbond>  (114) 
0

>  <r_i_glide_metal>  (114) 
-0

>  <r_i_glide_rewards>  (114) 
-0.767254

>  <r_i_glide_evdw>  (114) 
-20.6885

>  <r_i_glide_ecoul>  (114) 
-7.40928

>  <r_i_glide_erotb>  (114) 
0.389137

>  <r_i_glide_esite>  (114) 
-0.0156153

>  <r_i_glide_emodel>  (114) 
-33.8395

>  <r_i_glide_energy>  (114) 
-28.0978

>  <r_i_glide_einternal>  (114) 
2.67656

>  <r_i_glide_intrahb_reward>  (114) 
-0

>  <i_i_glide_confnum>  (114) 
2

>  <i_i_glide_posenum>  (114) 
2

>  <r_i_glide_eff_state_penalty>  (114) 
0

>  <ligand_id>  (114) 
32

>  <original_smiles>  (114) 
COCC1CC2(O)C3Cc4ccc(O)c5c4C2(CCN3CC2CC2)C(O5)C1O

>  <smiles>  (114) 
[H]OC1([H])C2([H])Oc3c([O-])c([H])c([H])c4c3C23C([H])([H])C([H])([H])[N+]([H])(C([H])([H])C2([H])C([H])([H])C2([H])[H])C([H])(C4([H])[H])C3(O[H])C([H])([H])C1([H])C([H])([H])OC([H])([H])[H]

$$$$
33:0:0
     RDKit          3D

 88 94  0  0  1  0  0  0  0  0999 V2000
    0.7866    3.5304    6.4135 C   0  0  0  0  0  0  0  0  0  0  0  0
    0.6768    2.2040    6.2771 C   0  0  0  0  0  0  0  0  0  0  0  0
    1.5121    1.4006    5.2536 C   0  0  1  0  0  0  0  0  0  0  0  0
    2.9728    1.2387    5.7190 C   0  0  1  0  0  0  0  0  0  0  0  0
    3.1448    0.9781    7.0963 O   0  0  0  0  0  0  0  0  0  0  0  0
    3.8469    0.2901    4.8739 C   0  0  1  0  0  0  0  0  0  0  0  0
    3.8083   -1.0807    5.2828 O   0  0  0  0  0  0  0  0  0  0  0  0
    2.6427   -1.8655    5.0275 C   0  0  2  0  0  0  0  0  0  0  0  0
    2.0741   -2.1558    6.4366 C   0  0  0  0  0  0  0  0  0  0  0  0
    3.1901   -3.2718    4.5901 C   0  0  0  0  0  0  0  0  0  0  0  0
    3.7947   -3.6368    3.1955 C   0  0  1  0  0  0  0  0  0  0  0  0
    2.8065   -4.1729    2.1491 C   0  0  1  0  0  0  0  0  0  0  0  0
    3.2409   -5.6082    1.7087 C   0  0  0  0  0  0  0  0  0  0  0  0
    1.5531   -4.5656    2.6526 O   0  0  0  0  0  0  0  0  0  0  0  0
    2.7428   -2.9778    1.0967 C   0  0  2  0  0  0  0  0  0  0  0  0
    3.4435   -3.4782   -0.2189 C   0  0  1  0  0  0  0  0  0  0  0  0
    3.0311   -2.8124   -1.5523 C   0  0  0  0  0  0  0  0  0  0  0  0
    4.9785   -3.6112   -0.0583 C   0  0  0  0  0  0  0  0  0  0  0  0
    5.5516   -3.2557    1.3548 C   0  0  1  0  0  0  0  0  0  0  0  0
    6.7340   -2.5218    1.1022 O   0  0  0  0  0  0  0  0  0  0  0  0
    4.5868   -2.5575    2.4184 C   0  0  2  0  0  0  0  0  0  0  0  0
    5.4082   -1.9074    3.3506 O   0  0  0  0  0  0  0  0  0  0  0  0
    3.4546   -1.7025    1.7596 C   0  0  1  0  0  0  0  0  0  0  0  0
    4.0160   -0.7513    0.6244 C   0  0  0  0  0  0  0  0  0  0  0  0
    2.5940   -0.6946    2.7610 C   0  0  2  0  0  0  0  0  0  0  0  0
    1.7210   -0.0361    1.8352 O   0  0  0  0  0  0  0  0  0  0  0  0
    3.6037    0.3768    3.3508 C   0  0  1  0  0  0  0  0  0  0  0  0
    3.3151    1.6960    2.9454 O   0  0  0  0  0  0  0  0  0  0  0  0
    1.6503   -1.1250    4.0329 C   0  0  1  0  0  0  0  0  0  0  0  0
    0.5368   -2.1079    3.6065 C   0  0  0  0  0  0  0  0  0  0  0  0
    0.7939    0.1118    4.7324 C   0  0  2  0  0  0  0  0  0  0  0  0
   -0.0098    0.6236    3.6845 O   0  0  0  0  0  0  0  0  0  0  0  0
   -0.3173   -0.2470    5.7977 C   0  0  1  0  0  0  0  0  0  0  0  0
    0.2102   -0.0198    7.1450 O   0  0  0  0  0  0  0  0  0  0  0  0
   -0.3103    1.3348    7.0834 C   0  0  1  0  0  0  0  0  0  0  0  0
   -0.6951    1.8654    8.4846 C   0  0  0  0  0  0  0  0  0  0  0  0
   -2.0951    2.1121    8.6222 O   0  0  0  0  0  0  0  0  0  0  0  0
   -2.5950    3.3577    8.6653 C   0  0  0  0  0  0  0  0  0  0  0  0
   -4.1032    3.3846    8.8858 C   0  0  0  0  0  0  0  0  0  0  0  0
   -1.9529    4.4019    8.5320 O   0  0  0  0  0  0  0  0  0  0  0  0
   -1.4065    0.7850    6.1738 C   0  0  1  0  0  0  0  0  0  0  0  0
   -2.1298    1.7146    5.1912 C   0  0  0  0  0  0  0  0  0  0  0  0
    0.1785    4.0806    7.1150 H   0  0  0  0  0  0  0  0  0  0  0  0
    1.4957    4.0843    5.8151 H   0  0  0  0  0  0  0  0  0  0  0  0
    1.5508    2.1057    4.4286 H   0  0  0  0  0  0  0  0  0  0  0  0
    3.4009    2.2369    5.6018 H   0  0  0  0  0  0  0  0  0  0  0  0
    2.7757    0.1258    7.2823 H   0  0  0  0  0  0  0  0  0  0  0  0
    4.8702    0.6150    5.0607 H   0  0  0  0  0  0  0  0  0  0  0  0
    1.0590   -2.5490    6.4129 H   0  0  0  0  0  0  0  0  0  0  0  0
    2.0994   -1.2918    7.0834 H   0  0  0  0  0  0  0  0  0  0  0  0
    2.6726   -2.8960    6.9668 H   0  0  0  0  0  0  0  0  0  0  0  0
    4.0058   -3.4736    5.2879 H   0  0  0  0  0  0  0  0  0  0  0  0
    2.4594   -4.0357    4.8653 H   0  0  0  0  0  0  0  0  0  0  0  0
    4.4881   -4.4393    3.4479 H   0  0  0  0  0  0  0  0  0  0  0  0
    4.2560   -5.6825    1.3262 H   0  0  0  0  0  0  0  0  0  0  0  0
    2.5685   -6.0280    0.9583 H   0  0  0  0  0  0  0  0  0  0  0  0
    3.2107   -6.2926    2.5595 H   0  0  0  0  0  0  0  0  0  0  0  0
    1.1557   -3.8109    3.0589 H   0  0  0  0  0  0  0  0  0  0  0  0
    1.7363   -2.7033    0.8042 H   0  0  0  0  0  0  0  0  0  0  0  0
    3.0677   -4.4757   -0.4292 H   0  0  0  0  0  0  0  0  0  0  0  0
    3.4808   -1.8391   -1.7291 H   0  0  0  0  0  0  0  0  0  0  0  0
    1.9483   -2.7103   -1.6346 H   0  0  0  0  0  0  0  0  0  0  0  0
    3.3471   -3.4456   -2.3837 H   0  0  0  0  0  0  0  0  0  0  0  0
    5.2944   -4.6199   -0.3252 H   0  0  0  0  0  0  0  0  0  0  0  0
    5.4570   -3.0089   -0.8316 H   0  0  0  0  0  0  0  0  0  0  0  0
    5.9189   -4.1808    1.8000 H   0  0  0  0  0  0  0  0  0  0  0  0
    6.4888   -1.6183    0.9534 H   0  0  0  0  0  0  0  0  0  0  0  0
    4.8615   -1.6158    4.0753 H   0  0  0  0  0  0  0  0  0  0  0  0
    4.3936    0.2107    0.9466 H   0  0  0  0  0  0  0  0  0  0  0  0
    3.2266   -0.5052   -0.0765 H   0  0  0  0  0  0  0  0  0  0  0  0
    4.8346   -1.1323    0.0330 H   0  0  0  0  0  0  0  0  0  0  0  0
    1.5598   -0.5890    1.0747 H   0  0  0  0  0  0  0  0  0  0  0  0
    4.6020    0.2482    2.9477 H   0  0  0  0  0  0  0  0  0  0  0  0
    4.1149    2.1022    2.6196 H   0  0  0  0  0  0  0  0  0  0  0  0
   -0.4716   -1.7154    3.6803 H   0  0  0  0  0  0  0  0  0  0  0  0
    0.5009   -3.0042    4.2204 H   0  0  0  0  0  0  0  0  0  0  0  0
    0.6188   -2.3337    2.5548 H   0  0  0  0  0  0  0  0  0  0  0  0
    0.5725    0.8398    2.9559 H   0  0  0  0  0  0  0  0  0  0  0  0
   -0.7745   -1.2335    5.7026 H   0  0  0  0  0  0  0  0  0  0  0  0
   -0.4583    1.1028    9.2169 H   0  0  0  0  0  0  0  0  0  0  0  0
   -0.0915    2.7271    8.7692 H   0  0  0  0  0  0  0  0  0  0  0  0
   -4.6242    2.8444    8.0918 H   0  0  0  0  0  0  0  0  0  0  0  0
   -4.4635    4.4152    8.8865 H   0  0  0  0  0  0  0  0  0  0  0  0
   -4.3539    2.9371    9.8458 H   0  0  0  0  0  0  0  0  0  0  0  0
   -2.1295    0.2356    6.7614 H   0  0  0  0  0  0  0  0  0  0  0  0
   -1.4690    2.4511    4.7297 H   0  0  0  0  0  0  0  0  0  0  0  0
   -2.9042    2.2807    5.7072 H   0  0  0  0  0  0  0  0  0  0  0  0
   -2.5807    1.1342    4.3909 H   0  0  0  0  0  0  0  0  0  0  0  0
  1  2  2  0
  1 43  1  0
  1 44  1  0
  2 35  1  0
  2  3  1  0
  3 31  1  0
  3  4  1  0
  3 45  1  6
  4  5  1  0
  4  6  1  0
  4 46  1  1
  5 47  1  0
  6 27  1  0
  6  7  1  0
  6 48  1  6
  7  8  1  0
  8 29  1  0
  8  9  1  1
  8 10  1  0
  9 49  1  0
  9 50  1  0
  9 51  1  0
 10 11  1  0
 10 52  1  0
 10 53  1  0
 11 21  1  0
 11 12  1  0
 11 54  1  1
 12 13  1  0
 12 14  1  1
 12 15  1  0
 13 55  1  0
 13 56  1  0
 13 57  1  0
 14 58  1  0
 15 23  1  0
 15 16  1  0
 15 59  1  6
 16 17  1  0
 16 18  1  0
 16 60  1  6
 17 61  1  0
 17 62  1  0
 17 63  1  0
 18 19  1  0
 18 64  1  0
 18 65  1  0
 19 20  1  0
 19 21  1  0
 19 66  1  1
 20 67  1  0
 21 22  1  1
 21 23  1  0
 22 68  1  0
 23 24  1  6
 23 25  1  0
 24 69  1  0
 24 70  1  0
 24 71  1  0
 25 26  1  6
 25 27  1  0
 25 29  1  0
 26 72  1  0
 27 28  1  0
 27 73  1  6
 28 74  1  0
 29 30  1  6
 29 31  1  0
 30 75  1  0
 30 76  1  0
 30 77  1  0
 31 32  1  6
 31 33  1  0
 32 78  1  0
 33 41  1  0
 33 34  1  0
 33 79  1  1
 34 35  1  0
 35 36  1  1
 35 41  1  0
 36 37  1  0
 36 80  1  0
 36 81  1  0
 37 38  1  0
 38 39  1  0
 38 40  2  0
 39 82  1  0
 39 83  1  0
 39 84  1  0
 41 42  1  0
 41 85  1  1
 42 86  1  0
 42 87  1  0
 42 88  1  0
M  END
>  <i_m_ct_stereo_status>  (115) 
1

>  <s_m_source_file>  (115) 
/var/tmp/pbs.5076255.sched01/tmppm3sokcv/34yi_btuhz.sdf

>  <i_m_source_file_index>  (115) 
13

>  <i_lp_mmshare_version>  (115) 
48012

>  <i_f3d_flags>  (115) 
0

>  <s_epik_input>  (115) 
W0NIM11DKD1PKU9bQ0gyXVtDQF0oQzE9W0NIMl0pKFtDQEhdMltDSDNdKU9bQ0BASF0yW0NAQF0zKFtPSF0pW0NAQEhdMVtDQEBIXShbT0hdKVtDQEBIXShPNClbQ0BIXShbT0hdKVtDQF0oW09IXSkoW0NAQF0zKFtDSDNdKVtDQF00NVtDSDNdKVtDQF02KFtDSDNdKVtDQEBIXTdbQ0BdKFtDSDNdKShbT0hdKVtDQEhdKFtDSDJdNSlbQ0BAXTYoW09IXSlbQ0BIXShbT0hdKVtDSDJdW0NAQEhdN1tDSDNd

>  <s_epik_cmdline>  (115) 
J2VwaWtfcHl0aG9uJywgJy1waHQnLCAnMi4wJywgJy1waCcsICc3LjAnLCAnLXRuJywgJzgnLCAnLW1hJywgJzIwMCcsICctaW1hZScsICc8aW5maWxlLm1hZT4nLCAnLW9tYWUnLCAnPG91dGZpbGUubWFlPic=

>  <r_lp_tautomer_probability>  (115) 
1

>  <r_epik_Ionization_Penalty>  (115) 
2.65811e-06

>  <r_epik_Ionization_Penalty_Charging>  (115) 
0

>  <r_epik_Ionization_Penalty_Neutral>  (115) 
2.65811e-06

>  <r_epik_State_Penalty>  (115) 
-0

>  <r_epik_Charging_Adjusted_Penalty>  (115) 
0

>  <i_epik_Tot_Q>  (115) 
0

>  <i_epik_Tot_abs_Q>  (115) 
0

>  <s_epik_Chemistry_Notes>  (115) 
This compound has an ester and may undergo hydrolysis at high or low pH.

>  <s_lp_Force_Field>  (115) 
OPLS3e

>  <r_lp_Energy>  (115) 
180.35

>  <b_lp_Chiralities_Consistent>  (115) 
1

>  <s_lp_Variant>  (115) 
33:0-1

>  <s_i_glide_gridfile>  (115) 
pfpi4k_grid

>  <i_i_glide_lignum>  (115) 
13

>  <i_i_glide_rotatable_bonds>  (115) 
10

>  <r_i_docking_score>  (115) 
-3.86827

>  <r_i_glide_ligand_efficiency>  (115) 
-0.0921016

>  <r_i_glide_ligand_efficiency_sa>  (115) 
-0.320148

>  <r_i_glide_ligand_efficiency_ln>  (115) 
-0.816492

>  <r_i_glide_gscore>  (115) 
-3.86827

>  <r_i_glide_lipo>  (115) 
-0.252221

>  <r_i_glide_hbond>  (115) 
0

>  <r_i_glide_metal>  (115) 
-0

>  <r_i_glide_rewards>  (115) 
-1.03521

>  <r_i_glide_evdw>  (115) 
-21.035

>  <r_i_glide_ecoul>  (115) 
-10.2359

>  <r_i_glide_erotb>  (115) 
0.00629768

>  <r_i_glide_esite>  (115) 
0

>  <r_i_glide_emodel>  (115) 
-45.1066

>  <r_i_glide_energy>  (115) 
-31.2709

>  <r_i_glide_einternal>  (115) 
5.40817

>  <r_i_glide_intrahb_reward>  (115) 
-1

>  <i_i_glide_confnum>  (115) 
1

>  <i_i_glide_posenum>  (115) 
28

>  <r_i_glide_eff_state_penalty>  (115) 
0

>  <ligand_id>  (115) 
33

>  <original_smiles>  (115) 
C=C1C2C(O)C3OC4(C)CC5C(C)(O)C6C(C)CC(O)C5(O)C6(C)C(O)(C3O)C4(C)C2(O)C2OC1(COC(C)=O)C2C

>  <smiles>  (115) 
[H]OC1([H])C2([H])OC3(C([H])([H])[H])C([H])([H])C4([H])C(O[H])(C([H])([H])[H])C5([H])C([H])(C([H])([H])[H])C([H])([H])C([H])(O[H])C4(O[H])C5(C([H])([H])[H])C(O[H])(C2([H])O[H])C3(C([H])([H])[H])C2(O[H])C3([H])OC(C([H])([H])OC(=O)C([H])([H])[H])(C(=C([H])[H])C12[H])C3([H])C([H])([H])[H]

$$$$
33:0:1
     RDKit          3D

 88 94  0  0  1  0  0  0  0  0999 V2000
    5.6217   -4.9877    2.5115 C   0  0  0  0  0  0  0  0  0  0  0  0
    4.8555   -3.9871    2.0386 C   0  0  0  0  0  0  0  0  0  0  0  0
    4.1891   -2.9417    2.9628 C   0  0  1  0  0  0  0  0  0  0  0  0
    5.2085   -1.9027    3.4497 C   0  0  1  0  0  0  0  0  0  0  0  0
    6.1350   -1.4609    2.4709 O   0  0  0  0  0  0  0  0  0  0  0  0
    4.6410   -0.7095    4.2422 C   0  0  1  0  0  0  0  0  0  0  0  0
    4.3049    0.4199    3.4376 O   0  0  0  0  0  0  0  0  0  0  0  0
    3.1741    0.3519    2.5757 C   0  0  2  0  0  0  0  0  0  0  0  0
    3.7801    0.3470    1.1616 C   0  0  0  0  0  0  0  0  0  0  0  0
    2.5142    1.7768    2.6551 C   0  0  0  0  0  0  0  0  0  0  0  0
    1.6568    2.3265    3.8370 C   0  0  1  0  0  0  0  0  0  0  0  0
    0.1381    2.1090    3.7320 C   0  0  1  0  0  0  0  0  0  0  0  0
   -0.5930    3.4879    3.7522 C   0  0  0  0  0  0  0  0  0  0  0  0
   -0.3433    1.7062    2.4776 O   0  0  0  0  0  0  0  0  0  0  0  0
   -0.1335    1.0216    4.8543 C   0  0  2  0  0  0  0  0  0  0  0  0
   -0.9448    1.7373    5.9907 C   0  0  1  0  0  0  0  0  0  0  0  0
   -1.8373    0.8566    6.8875 C   0  0  0  0  0  0  0  0  0  0  0  0
   -0.0822    2.7438    6.7923 C   0  0  0  0  0  0  0  0  0  0  0  0
    1.4049    2.9035    6.3284 C   0  0  1  0  0  0  0  0  0  0  0  0
    2.1585    2.9618    7.5267 O   0  0  0  0  0  0  0  0  0  0  0  0
    1.9974    1.8668    5.2736 C   0  0  2  0  0  0  0  0  0  0  0  0
    3.4069    1.9475    5.3977 O   0  0  0  0  0  0  0  0  0  0  0  0
    1.2967    0.4616    5.3427 C   0  0  1  0  0  0  0  0  0  0  0  0
    1.1764   -0.0750    6.8334 C   0  0  0  0  0  0  0  0  0  0  0  0
    2.0299   -0.7837    4.5257 C   0  0  2  0  0  0  0  0  0  0  0  0
    1.1569   -1.8554    4.8561 O   0  0  0  0  0  0  0  0  0  0  0  0
    3.4545   -1.0331    5.1763 C   0  0  1  0  0  0  0  0  0  0  0  0
    3.6055   -2.2660    5.8668 O   0  0  0  0  0  0  0  0  0  0  0  0
    2.2606   -0.8995    2.9136 C   0  0  1  0  0  0  0  0  0  0  0  0
    0.9331   -0.7826    2.1239 C   0  0  0  0  0  0  0  0  0  0  0  0
    2.8657   -2.3485    2.3777 C   0  0  2  0  0  0  0  0  0  0  0  0
    1.9225   -3.3187    2.7774 O   0  0  0  0  0  0  0  0  0  0  0  0
    2.9065   -2.6212    0.8305 C   0  0  1  0  0  0  0  0  0  0  0  0
    4.2589   -2.3697    0.3743 O   0  0  0  0  0  0  0  0  0  0  0  0
    4.5424   -3.7675    0.5486 C   0  0  1  0  0  0  0  0  0  0  0  0
    5.6060   -4.2759   -0.4433 C   0  0  0  0  0  0  0  0  0  0  0  0
    5.1618   -4.0791   -1.7826 O   0  0  0  0  0  0  0  0  0  0  0  0
    5.2830   -2.8842   -2.3784 C   0  0  0  0  0  0  0  0  0  0  0  0
    4.5407   -2.8293   -3.7133 C   0  0  0  0  0  0  0  0  0  0  0  0
    5.8796   -1.9114   -1.9233 O   0  0  0  0  0  0  0  0  0  0  0  0
    3.0687   -4.0540    0.2662 C   0  0  1  0  0  0  0  0  0  0  0  0
    2.4138   -5.3362    0.7868 C   0  0  0  0  0  0  0  0  0  0  0  0
    6.0719   -5.7210    1.8557 H   0  0  0  0  0  0  0  0  0  0  0  0
    5.8073   -5.0781    3.5751 H   0  0  0  0  0  0  0  0  0  0  0  0
    3.9273   -3.5379    3.8334 H   0  0  0  0  0  0  0  0  0  0  0  0
    5.8195   -2.4587    4.1627 H   0  0  0  0  0  0  0  0  0  0  0  0
    5.6732   -0.9988    1.7886 H   0  0  0  0  0  0  0  0  0  0  0  0
    5.4620   -0.3640    4.8697 H   0  0  0  0  0  0  0  0  0  0  0  0
    3.0572    0.0457    0.4170 H   0  0  0  0  0  0  0  0  0  0  0  0
    4.6538   -0.2638    1.0467 H   0  0  0  0  0  0  0  0  0  0  0  0
    4.1559    1.3205    0.8805 H   0  0  0  0  0  0  0  0  0  0  0  0
    3.3524    2.4739    2.6117 H   0  0  0  0  0  0  0  0  0  0  0  0
    1.9910    1.9877    1.7187 H   0  0  0  0  0  0  0  0  0  0  0  0
    1.8421    3.4020    3.7824 H   0  0  0  0  0  0  0  0  0  0  0  0
   -0.3925    4.0951    4.6308 H   0  0  0  0  0  0  0  0  0  0  0  0
   -1.6751    3.3788    3.6706 H   0  0  0  0  0  0  0  0  0  0  0  0
   -0.2863    4.1016    2.9084 H   0  0  0  0  0  0  0  0  0  0  0  0
   -0.1797    2.4044    1.8543 H   0  0  0  0  0  0  0  0  0  0  0  0
   -0.7676    0.2168    4.4868 H   0  0  0  0  0  0  0  0  0  0  0  0
   -1.7410    2.2992    5.5149 H   0  0  0  0  0  0  0  0  0  0  0  0
   -1.2801    0.3467    7.6666 H   0  0  0  0  0  0  0  0  0  0  0  0
   -2.4044    0.1319    6.3008 H   0  0  0  0  0  0  0  0  0  0  0  0
   -2.5635    1.4863    7.4073 H   0  0  0  0  0  0  0  0  0  0  0  0
   -0.5677    3.7183    6.7901 H   0  0  0  0  0  0  0  0  0  0  0  0
   -0.1320    2.4725    7.8471 H   0  0  0  0  0  0  0  0  0  0  0  0
    1.5129    3.9015    5.9044 H   0  0  0  0  0  0  0  0  0  0  0  0
    1.8773    3.7174    8.0177 H   0  0  0  0  0  0  0  0  0  0  0  0
    3.8002    1.4805    4.6686 H   0  0  0  0  0  0  0  0  0  0  0  0
    2.0419   -0.5987    7.2211 H   0  0  0  0  0  0  0  0  0  0  0  0
    0.3718   -0.8009    6.9252 H   0  0  0  0  0  0  0  0  0  0  0  0
    1.0101    0.6687    7.5978 H   0  0  0  0  0  0  0  0  0  0  0  0
    0.3555   -1.7293    4.3746 H   0  0  0  0  0  0  0  0  0  0  0  0
    3.6169   -0.3351    5.9852 H   0  0  0  0  0  0  0  0  0  0  0  0
    3.4428   -2.9707    5.2575 H   0  0  0  0  0  0  0  0  0  0  0  0
    0.6398   -1.6685    1.5816 H   0  0  0  0  0  0  0  0  0  0  0  0
    0.9676   -0.0158    1.3484 H   0  0  0  0  0  0  0  0  0  0  0  0
    0.0800   -0.6359    2.7686 H   0  0  0  0  0  0  0  0  0  0  0  0
    1.1039   -3.0853    2.3736 H   0  0  0  0  0  0  0  0  0  0  0  0
    2.2142   -2.0823    0.2129 H   0  0  0  0  0  0  0  0  0  0  0  0
    6.5781   -3.8176   -0.2744 H   0  0  0  0  0  0  0  0  0  0  0  0
    5.7377   -5.3521   -0.3233 H   0  0  0  0  0  0  0  0  0  0  0  0
    4.8942   -3.6102   -4.3885 H   0  0  0  0  0  0  0  0  0  0  0  0
    4.6843   -1.8557   -4.1824 H   0  0  0  0  0  0  0  0  0  0  0  0
    3.4684   -2.9693   -3.5609 H   0  0  0  0  0  0  0  0  0  0  0  0
    2.8758   -3.9666   -0.7995 H   0  0  0  0  0  0  0  0  0  0  0  0
    2.6759   -5.5618    1.8210 H   0  0  0  0  0  0  0  0  0  0  0  0
    2.7183   -6.1975    0.1925 H   0  0  0  0  0  0  0  0  0  0  0  0
    1.3359   -5.2878    0.7307 H   0  0  0  0  0  0  0  0  0  0  0  0
  1  2  2  0
  1 43  1  0
  1 44  1  0
  2 35  1  0
  2  3  1  0
  3 31  1  0
  3  4  1  0
  3 45  1  1
  4  5  1  0
  4  6  1  0
  4 46  1  1
  5 47  1  0
  6 27  1  0
  6  7  1  0
  6 48  1  1
  7  8  1  0
  8 29  1  0
  8  9  1  6
  8 10  1  0
  9 49  1  0
  9 50  1  0
  9 51  1  0
 10 11  1  0
 10 52  1  0
 10 53  1  0
 11 21  1  0
 11 12  1  0
 11 54  1  1
 12 13  1  0
 12 14  1  6
 12 15  1  0
 13 55  1  0
 13 56  1  0
 13 57  1  0
 14 58  1  0
 15 23  1  0
 15 16  1  0
 15 59  1  6
 16 17  1  0
 16 18  1  0
 16 60  1  6
 17 61  1  0
 17 62  1  0
 17 63  1  0
 18 19  1  0
 18 64  1  0
 18 65  1  0
 19 20  1  0
 19 21  1  0
 19 66  1  6
 20 67  1  0
 21 22  1  6
 21 23  1  0
 22 68  1  0
 23 24  1  1
 23 25  1  0
 24 69  1  0
 24 70  1  0
 24 71  1  0
 25 26  1  1
 25 27  1  0
 25 29  1  0
 26 72  1  0
 27 28  1  0
 27 73  1  1
 28 74  1  0
 29 30  1  6
 29 31  1  0
 30 75  1  0
 30 76  1  0
 30 77  1  0
 31 32  1  1
 31 33  1  0
 32 78  1  0
 33 41  1  0
 33 34  1  0
 33 79  1  6
 34 35  1  0
 35 36  1  6
 35 41  1  0
 36 37  1  0
 36 80  1  0
 36 81  1  0
 37 38  1  0
 38 39  1  0
 38 40  2  0
 39 82  1  0
 39 83  1  0
 39 84  1  0
 41 42  1  0
 41 85  1  6
 42 86  1  0
 42 87  1  0
 42 88  1  0
M  END
>  <i_m_ct_stereo_status>  (116) 
1

>  <s_m_source_file>  (116) 
/var/tmp/pbs.5076255.sched01/tmppm3sokcv/34yi_btuhz.sdf

>  <i_m_source_file_index>  (116) 
13

>  <i_lp_mmshare_version>  (116) 
48012

>  <i_f3d_flags>  (116) 
0

>  <s_epik_input>  (116) 
W0NIM11DKD1PKU9bQ0gyXVtDQF0oQzE9W0NIMl0pKFtDQEhdMltDSDNdKU9bQ0BASF0yW0NAQF0zKFtPSF0pW0NAQEhdMVtDQEBIXShbT0hdKVtDQEBIXShPNClbQ0BIXShbT0hdKVtDQF0oW09IXSkoW0NAQF0zKFtDSDNdKVtDQF00NVtDSDNdKVtDQF02KFtDSDNdKVtDQEBIXTdbQ0BdKFtDSDNdKShbT0hdKVtDQEhdKFtDSDJdNSlbQ0BAXTYoW09IXSlbQ0BIXShbT0hdKVtDSDJdW0NAQEhdN1tDSDNd

>  <s_epik_cmdline>  (116) 
J2VwaWtfcHl0aG9uJywgJy1waHQnLCAnMi4wJywgJy1waCcsICc3LjAnLCAnLXRuJywgJzgnLCAnLW1hJywgJzIwMCcsICctaW1hZScsICc8aW5maWxlLm1hZT4nLCAnLW9tYWUnLCAnPG91dGZpbGUubWFlPic=

>  <r_lp_tautomer_probability>  (116) 
1

>  <r_epik_Ionization_Penalty>  (116) 
2.65811e-06

>  <r_epik_Ionization_Penalty_Charging>  (116) 
0

>  <r_epik_Ionization_Penalty_Neutral>  (116) 
2.65811e-06

>  <r_epik_State_Penalty>  (116) 
-0

>  <r_epik_Charging_Adjusted_Penalty>  (116) 
0

>  <i_epik_Tot_Q>  (116) 
0

>  <i_epik_Tot_abs_Q>  (116) 
0

>  <s_epik_Chemistry_Notes>  (116) 
This compound has an ester and may undergo hydrolysis at high or low pH.

>  <s_lp_Force_Field>  (116) 
OPLS3e

>  <r_lp_Energy>  (116) 
180.35

>  <b_lp_Chiralities_Consistent>  (116) 
1

>  <s_lp_Variant>  (116) 
33:0-1

>  <s_i_glide_gridfile>  (116) 
pfpi4k_grid

>  <i_i_glide_lignum>  (116) 
13

>  <i_i_glide_rotatable_bonds>  (116) 
10

>  <r_i_docking_score>  (116) 
-3.42695

>  <r_i_glide_ligand_efficiency>  (116) 
-0.081594

>  <r_i_glide_ligand_efficiency_sa>  (116) 
-0.283623

>  <r_i_glide_ligand_efficiency_ln>  (116) 
-0.723341

>  <r_i_glide_gscore>  (116) 
-3.42695

>  <r_i_glide_lipo>  (116) 
-0.445112

>  <r_i_glide_hbond>  (116) 
-0.126737

>  <r_i_glide_metal>  (116) 
-0

>  <r_i_glide_rewards>  (116) 
-0.700422

>  <r_i_glide_evdw>  (116) 
-26.2933

>  <r_i_glide_ecoul>  (116) 
-5.64208

>  <r_i_glide_erotb>  (116) 
0.00629768

>  <r_i_glide_esite>  (116) 
0

>  <r_i_glide_emodel>  (116) 
-42.0457

>  <r_i_glide_energy>  (116) 
-31.9354

>  <r_i_glide_einternal>  (116) 
2.24338

>  <r_i_glide_intrahb_reward>  (116) 
-0.5

>  <i_i_glide_confnum>  (116) 
2

>  <i_i_glide_posenum>  (116) 
1

>  <r_i_glide_eff_state_penalty>  (116) 
0

>  <ligand_id>  (116) 
33

>  <original_smiles>  (116) 
C=C1C2C(O)C3OC4(C)CC5C(C)(O)C6C(C)CC(O)C5(O)C6(C)C(O)(C3O)C4(C)C2(O)C2OC1(COC(C)=O)C2C

>  <smiles>  (116) 
[H]OC1([H])C2([H])OC3(C([H])([H])[H])C([H])([H])C4([H])C(O[H])(C([H])([H])[H])C5([H])C([H])(C([H])([H])[H])C([H])([H])C([H])(O[H])C4(O[H])C5(C([H])([H])[H])C(O[H])(C2([H])O[H])C3(C([H])([H])[H])C2(O[H])C3([H])OC(C([H])([H])OC(=O)C([H])([H])[H])(C(=C([H])[H])C12[H])C3([H])C([H])([H])[H]

$$$$
33:0:2
     RDKit          3D

 88 94  0  0  1  0  0  0  0  0999 V2000
   -0.7274    3.5113    4.3111 C   0  0  0  0  0  0  0  0  0  0  0  0
   -0.0692    2.5192    4.9311 C   0  0  0  0  0  0  0  0  0  0  0  0
    0.8011    1.5134    4.1431 C   0  0  1  0  0  0  0  0  0  0  0  0
    2.1191    2.1364    3.6658 C   0  0  1  0  0  0  0  0  0  0  0  0
    2.7611    3.0164    4.5744 O   0  0  0  0  0  0  0  0  0  0  0  0
    3.1214    1.1369    3.0670 C   0  0  1  0  0  0  0  0  0  0  0  0
    4.0276    0.5306    3.9869 O   0  0  0  0  0  0  0  0  0  0  0  0
    3.5475   -0.4472    4.9043 C   0  0  2  0  0  0  0  0  0  0  0  0
    3.6402    0.2356    6.2901 C   0  0  0  0  0  0  0  0  0  0  0  0
    4.7003   -1.4995    4.9774 C   0  0  0  0  0  0  0  0  0  0  0  0
    5.0329   -2.5546    3.8784 C   0  0  1  0  0  0  0  0  0  0  0  0
    4.3611   -3.9248    4.0135 C   0  0  1  0  0  0  0  0  0  0  0  0
    5.4506   -5.0378    4.1816 C   0  0  0  0  0  0  0  0  0  0  0  0
    3.7166   -4.1666    5.2355 O   0  0  0  0  0  0  0  0  0  0  0  0
    3.3525   -3.9378    2.7984 C   0  0  2  0  0  0  0  0  0  0  0  0
    3.8837   -4.9953    1.7704 C   0  0  1  0  0  0  0  0  0  0  0  0
    2.8455   -5.6345    0.8238 C   0  0  0  0  0  0  0  0  0  0  0  0
    5.1790   -4.5327    1.0483 C   0  0  0  0  0  0  0  0  0  0  0  0
    5.7422   -3.1367    1.4746 C   0  0  1  0  0  0  0  0  0  0  0  0
    6.1728   -2.5175    0.2742 O   0  0  0  0  0  0  0  0  0  0  0  0
    4.8381   -2.1909    2.3898 C   0  0  2  0  0  0  0  0  0  0  0  0
    5.3480   -0.8876    2.1951 O   0  0  0  0  0  0  0  0  0  0  0  0
    3.3031   -2.4407    2.2071 C   0  0  1  0  0  0  0  0  0  0  0  0
    2.8918   -2.4882    0.6836 C   0  0  0  0  0  0  0  0  0  0  0  0
    2.2866   -1.3092    2.8772 C   0  0  2  0  0  0  0  0  0  0  0  0
    1.0195   -1.7763    2.4748 O   0  0  0  0  0  0  0  0  0  0  0  0
    2.5302    0.0631    2.1420 C   0  0  1  0  0  0  0  0  0  0  0  0
    1.4587    0.5458    1.3409 O   0  0  0  0  0  0  0  0  0  0  0  0
    2.1093   -0.9513    4.4639 C   0  0  1  0  0  0  0  0  0  0  0  0
    1.7168   -2.1984    5.3030 C   0  0  0  0  0  0  0  0  0  0  0  0
    0.9047    0.1165    4.8272 C   0  0  2  0  0  0  0  0  0  0  0  0
   -0.2735   -0.5057    4.3623 O   0  0  0  0  0  0  0  0  0  0  0  0
    0.5288    0.3190    6.3364 C   0  0  1  0  0  0  0  0  0  0  0  0
    1.1102    1.5868    6.8230 O   0  0  0  0  0  0  0  0  0  0  0  0
   -0.1393    2.2430    6.4499 C   0  0  1  0  0  0  0  0  0  0  0  0
   -0.3983    3.4973    7.3261 C   0  0  0  0  0  0  0  0  0  0  0  0
   -0.7975    3.2183    8.6648 O   0  0  0  0  0  0  0  0  0  0  0  0
   -2.0979    3.0457    8.9909 C   0  0  0  0  0  0  0  0  0  0  0  0
   -2.3127    2.6399   10.4477 C   0  0  0  0  0  0  0  0  0  0  0  0
   -3.0549    3.1488    8.2182 O   0  0  0  0  0  0  0  0  0  0  0  0
   -0.8352    0.9105    6.7374 C   0  0  1  0  0  0  0  0  0  0  0  0
   -2.1916    0.6159    6.0768 C   0  0  0  0  0  0  0  0  0  0  0  0
   -1.3704    4.2047    4.8378 H   0  0  0  0  0  0  0  0  0  0  0  0
   -0.6535    3.6373    3.2329 H   0  0  0  0  0  0  0  0  0  0  0  0
    0.2237    1.3924    3.2272 H   0  0  0  0  0  0  0  0  0  0  0  0
    1.8392    2.7976    2.8436 H   0  0  0  0  0  0  0  0  0  0  0  0
    2.1762    3.7406    4.7430 H   0  0  0  0  0  0  0  0  0  0  0  0
    3.7521    1.7139    2.4125 H   0  0  0  0  0  0  0  0  0  0  0  0
    3.0941   -0.3029    7.0631 H   0  0  0  0  0  0  0  0  0  0  0  0
    3.3025    1.2595    6.2641 H   0  0  0  0  0  0  0  0  0  0  0  0
    4.6708    0.3089    6.6476 H   0  0  0  0  0  0  0  0  0  0  0  0
    5.6173   -0.9130    5.0524 H   0  0  0  0  0  0  0  0  0  0  0  0
    4.6687   -2.0120    5.9462 H   0  0  0  0  0  0  0  0  0  0  0  0
    6.0932   -2.7150    4.0335 H   0  0  0  0  0  0  0  0  0  0  0  0
    6.1893   -5.0781    3.3830 H   0  0  0  0  0  0  0  0  0  0  0  0
    5.0248   -6.0368    4.2832 H   0  0  0  0  0  0  0  0  0  0  0  0
    6.0313   -4.8673    5.0878 H   0  0  0  0  0  0  0  0  0  0  0  0
    3.4290   -5.0674    5.2493 H   0  0  0  0  0  0  0  0  0  0  0  0
    2.3537   -4.2643    3.1012 H   0  0  0  0  0  0  0  0  0  0  0  0
    4.1400   -5.8901    2.3364 H   0  0  0  0  0  0  0  0  0  0  0  0
    2.5771   -5.0194   -0.0346 H   0  0  0  0  0  0  0  0  0  0  0  0
    1.9297   -5.9174    1.3529 H   0  0  0  0  0  0  0  0  0  0  0  0
    3.2635   -6.5482    0.4080 H   0  0  0  0  0  0  0  0  0  0  0  0
    5.9522   -5.2829    1.1801 H   0  0  0  0  0  0  0  0  0  0  0  0
    5.0005   -4.5803   -0.0265 H   0  0  0  0  0  0  0  0  0  0  0  0
    6.6711   -3.3205    2.0074 H   0  0  0  0  0  0  0  0  0  0  0  0
    5.4059   -2.3008   -0.2343 H   0  0  0  0  0  0  0  0  0  0  0  0
    4.9287   -0.3041    2.8254 H   0  0  0  0  0  0  0  0  0  0  0  0
    2.7196   -1.5357    0.2027 H   0  0  0  0  0  0  0  0  0  0  0  0
    1.9651   -3.0364    0.5512 H   0  0  0  0  0  0  0  0  0  0  0  0
    3.6021   -2.9370    0.0124 H   0  0  0  0  0  0  0  0  0  0  0  0
    1.0236   -1.7227    1.5234 H   0  0  0  0  0  0  0  0  0  0  0  0
    3.3038   -0.0331    1.3979 H   0  0  0  0  0  0  0  0  0  0  0  0
    1.3063    0.0040    0.5722 H   0  0  0  0  0  0  0  0  0  0  0  0
    0.7199   -2.1787    5.7382 H   0  0  0  0  0  0  0  0  0  0  0  0
    2.3780   -2.3448    6.1543 H   0  0  0  0  0  0  0  0  0  0  0  0
    1.6627   -3.0853    4.6950 H   0  0  0  0  0  0  0  0  0  0  0  0
   -0.1025   -0.7733    3.4671 H   0  0  0  0  0  0  0  0  0  0  0  0
    0.7457   -0.4916    7.0070 H   0  0  0  0  0  0  0  0  0  0  0  0
    0.5025    4.1058    7.3710 H   0  0  0  0  0  0  0  0  0  0  0  0
   -1.1600    4.1413    6.8833 H   0  0  0  0  0  0  0  0  0  0  0  0
   -1.7302    1.7507   10.7011 H   0  0  0  0  0  0  0  0  0  0  0  0
   -3.3649    2.4190   10.6382 H   0  0  0  0  0  0  0  0  0  0  0  0
   -2.0056    3.4509   11.1063 H   0  0  0  0  0  0  0  0  0  0  0  0
   -0.8747    0.7055    7.7939 H   0  0  0  0  0  0  0  0  0  0  0  0
   -2.2160    0.9117    5.0342 H   0  0  0  0  0  0  0  0  0  0  0  0
   -2.9863    1.1757    6.5619 H   0  0  0  0  0  0  0  0  0  0  0  0
   -2.4527   -0.4349    6.1140 H   0  0  0  0  0  0  0  0  0  0  0  0
  1  2  2  0
  1 43  1  0
  1 44  1  0
  2 35  1  0
  2  3  1  0
  3 31  1  0
  3  4  1  0
  3 45  1  6
  4  5  1  0
  4  6  1  0
  4 46  1  6
  5 47  1  0
  6 27  1  0
  6  7  1  0
  6 48  1  6
  7  8  1  0
  8 29  1  0
  8  9  1  1
  8 10  1  0
  9 49  1  0
  9 50  1  0
  9 51  1  0
 10 11  1  0
 10 52  1  0
 10 53  1  0
 11 21  1  0
 11 12  1  0
 11 54  1  6
 12 13  1  0
 12 14  1  1
 12 15  1  0
 13 55  1  0
 13 56  1  0
 13 57  1  0
 14 58  1  0
 15 23  1  0
 15 16  1  0
 15 59  1  1
 16 17  1  0
 16 18  1  0
 16 60  1  1
 17 61  1  0
 17 62  1  0
 17 63  1  0
 18 19  1  0
 18 64  1  0
 18 65  1  0
 19 20  1  0
 19 21  1  0
 19 66  1  1
 20 67  1  0
 21 22  1  1
 21 23  1  0
 22 68  1  0
 23 24  1  6
 23 25  1  0
 24 69  1  0
 24 70  1  0
 24 71  1  0
 25 26  1  6
 25 27  1  0
 25 29  1  0
 26 72  1  0
 27 28  1  0
 27 73  1  6
 28 74  1  0
 29 30  1  1
 29 31  1  0
 30 75  1  0
 30 76  1  0
 30 77  1  0
 31 32  1  6
 31 33  1  0
 32 78  1  0
 33 41  1  0
 33 34  1  0
 33 79  1  1
 34 35  1  0
 35 36  1  1
 35 41  1  0
 36 37  1  0
 36 80  1  0
 36 81  1  0
 37 38  1  0
 38 39  1  0
 38 40  2  0
 39 82  1  0
 39 83  1  0
 39 84  1  0
 41 42  1  0
 41 85  1  1
 42 86  1  0
 42 87  1  0
 42 88  1  0
M  END
>  <i_m_ct_stereo_status>  (117) 
1

>  <s_m_source_file>  (117) 
/var/tmp/pbs.5076255.sched01/tmppm3sokcv/34yi_btuhz.sdf

>  <i_m_source_file_index>  (117) 
13

>  <i_lp_mmshare_version>  (117) 
48012

>  <i_f3d_flags>  (117) 
0

>  <s_epik_input>  (117) 
W0NIM11DKD1PKU9bQ0gyXVtDQF0oQzE9W0NIMl0pKFtDQEhdMltDSDNdKU9bQ0BASF0yW0NAQF0zKFtPSF0pW0NAQEhdMVtDQEBIXShbT0hdKVtDQEBIXShPNClbQ0BIXShbT0hdKVtDQF0oW09IXSkoW0NAQF0zKFtDSDNdKVtDQF00NVtDSDNdKVtDQF02KFtDSDNdKVtDQEBIXTdbQ0BdKFtDSDNdKShbT0hdKVtDQEhdKFtDSDJdNSlbQ0BAXTYoW09IXSlbQ0BIXShbT0hdKVtDSDJdW0NAQEhdN1tDSDNd

>  <s_epik_cmdline>  (117) 
J2VwaWtfcHl0aG9uJywgJy1waHQnLCAnMi4wJywgJy1waCcsICc3LjAnLCAnLXRuJywgJzgnLCAnLW1hJywgJzIwMCcsICctaW1hZScsICc8aW5maWxlLm1hZT4nLCAnLW9tYWUnLCAnPG91dGZpbGUubWFlPic=

>  <r_lp_tautomer_probability>  (117) 
1

>  <r_epik_Ionization_Penalty>  (117) 
2.65811e-06

>  <r_epik_Ionization_Penalty_Charging>  (117) 
0

>  <r_epik_Ionization_Penalty_Neutral>  (117) 
2.65811e-06

>  <r_epik_State_Penalty>  (117) 
-0

>  <r_epik_Charging_Adjusted_Penalty>  (117) 
0

>  <i_epik_Tot_Q>  (117) 
0

>  <i_epik_Tot_abs_Q>  (117) 
0

>  <s_epik_Chemistry_Notes>  (117) 
This compound has an ester and may undergo hydrolysis at high or low pH.

>  <s_lp_Force_Field>  (117) 
OPLS3e

>  <r_lp_Energy>  (117) 
180.35

>  <b_lp_Chiralities_Consistent>  (117) 
1

>  <s_lp_Variant>  (117) 
33:0-1

>  <s_i_glide_gridfile>  (117) 
pfpi4k_grid

>  <i_i_glide_lignum>  (117) 
13

>  <i_i_glide_rotatable_bonds>  (117) 
10

>  <r_i_docking_score>  (117) 
-3.18079

>  <r_i_glide_ligand_efficiency>  (117) 
-0.075733

>  <r_i_glide_ligand_efficiency_sa>  (117) 
-0.26325

>  <r_i_glide_ligand_efficiency_ln>  (117) 
-0.671382

>  <r_i_glide_gscore>  (117) 
-3.18079

>  <r_i_glide_lipo>  (117) 
-0.259315

>  <r_i_glide_hbond>  (117) 
0

>  <r_i_glide_metal>  (117) 
-0

>  <r_i_glide_rewards>  (117) 
-1

>  <r_i_glide_evdw>  (117) 
-22.9165

>  <r_i_glide_ecoul>  (117) 
-5.08134

>  <r_i_glide_erotb>  (117) 
0.00629768

>  <r_i_glide_esite>  (117) 
-0.0197438

>  <r_i_glide_emodel>  (117) 
-41.7641

>  <r_i_glide_energy>  (117) 
-27.9979

>  <r_i_glide_einternal>  (117) 
3.51284

>  <r_i_glide_intrahb_reward>  (117) 
-1

>  <i_i_glide_confnum>  (117) 
1

>  <i_i_glide_posenum>  (117) 
25

>  <r_i_glide_eff_state_penalty>  (117) 
0

>  <ligand_id>  (117) 
33

>  <original_smiles>  (117) 
C=C1C2C(O)C3OC4(C)CC5C(C)(O)C6C(C)CC(O)C5(O)C6(C)C(O)(C3O)C4(C)C2(O)C2OC1(COC(C)=O)C2C

>  <smiles>  (117) 
[H]OC1([H])C2([H])OC3(C([H])([H])[H])C([H])([H])C4([H])C(O[H])(C([H])([H])[H])C5([H])C([H])(C([H])([H])[H])C([H])([H])C([H])(O[H])C4(O[H])C5(C([H])([H])[H])C(O[H])(C2([H])O[H])C3(C([H])([H])[H])C2(O[H])C3([H])OC(C([H])([H])OC(=O)C([H])([H])[H])(C(=C([H])[H])C12[H])C3([H])C([H])([H])[H]

$$$$
34:0:0
     RDKit          3D

 14 14  0  0  1  0  0  0  0  0999 V2000
    4.1339   -3.4703   -0.1333 O   0  0  0  0  0  0  0  0  0  0  0  0
    3.9754   -3.0878   -1.2923 C   0  0  0  0  0  0  0  0  0  0  0  0
    4.7658   -3.4287   -2.4508 C   0  0  0  0  0  0  0  0  0  0  0  0
    4.2519   -2.7939   -3.5026 C   0  0  0  0  0  0  0  0  0  0  0  0
    3.0681   -1.9469   -3.1372 C   0  0  2  0  0  0  0  0  0  0  0  0
    3.2978   -0.4422   -3.3656 C   0  0  0  0  0  0  0  0  0  0  0  0
    3.4210   -0.0458   -5.0980 Cl  0  0  0  0  0  0  0  0  0  0  0  0
    3.0166   -2.2523   -1.7157 N   0  0  0  0  0  0  0  0  0  0  0  0
    2.2910   -1.8445   -1.1227 H   0  0  0  0  0  0  0  0  0  0  0  0
    2.1645   -2.3057   -3.6375 H   0  0  0  0  0  0  0  0  0  0  0  0
    5.5994   -4.1057   -2.4797 H   0  0  0  0  0  0  0  0  0  0  0  0
    4.6094   -2.8796   -4.5121 H   0  0  0  0  0  0  0  0  0  0  0  0
    4.2096   -0.0883   -2.8795 H   0  0  0  0  0  0  0  0  0  0  0  0
    2.4630    0.1413   -2.9759 H   0  0  0  0  0  0  0  0  0  0  0  0
  1  2  2  0
  2  8  1  0
  2  3  1  0
  3 11  1  0
  3  4  2  0
  4  5  1  0
  4 12  1  0
  5  6  1  0
  5 10  1  6
  5  8  1  0
  6  7  1  0
  6 13  1  0
  6 14  1  0
  8  9  1  0
M  END
>  <i_m_ct_stereo_status>  (118) 
1

>  <s_m_source_file>  (118) 
/var/tmp/pbs.5076255.sched01/tmppm3sokcv/34yi_btuhz.sdf

>  <i_m_source_file_index>  (118) 
14

>  <i_lp_mmshare_version>  (118) 
48012

>  <i_f3d_flags>  (118) 
0

>  <s_epik_input>  (118) 
W09IXWMxW2NIXVtjSF1jKFtDSDJdQ2wpW25IXTE=

>  <s_epik_cmdline>  (118) 
J2VwaWtfcHl0aG9uJywgJy1waHQnLCAnMi4wJywgJy1waCcsICc3LjAnLCAnLXRuJywgJzgnLCAnLW1hJywgJzIwMCcsICctaW1hZScsICc8aW5maWxlLm1hZT4nLCAnLW9tYWUnLCAnPG91dGZpbGUubWFlPic=

>  <r_lp_tautomer_probability>  (118) 
0.961759

>  <r_epik_Ionization_Penalty>  (118) 
4.08445e-07

>  <r_epik_Ionization_Penalty_Charging>  (118) 
0

>  <r_epik_Ionization_Penalty_Neutral>  (118) 
4.08445e-07

>  <r_epik_State_Penalty>  (118) 
0.0186766

>  <r_epik_Charging_Adjusted_Penalty>  (118) 
0.0186766

>  <i_epik_Tot_Q>  (118) 
0

>  <i_epik_Tot_abs_Q>  (118) 
0

>  <s_lp_Force_Field>  (118) 
OPLS3e

>  <r_lp_Energy>  (118) 
-0.116215

>  <b_lp_Chiralities_Consistent>  (118) 
1

>  <s_lp_Variant>  (118) 
34:0-1

>  <s_i_glide_gridfile>  (118) 
pfpi4k_grid

>  <i_i_glide_lignum>  (118) 
14

>  <i_i_glide_rotatable_bonds>  (118) 
1

>  <r_i_docking_score>  (118) 
-4.28809

>  <r_i_glide_ligand_efficiency>  (118) 
-0.536011

>  <r_i_glide_ligand_efficiency_sa>  (118) 
-1.07202

>  <r_i_glide_ligand_efficiency_ln>  (118) 
-1.39249

>  <r_i_glide_gscore>  (118) 
-4.28809

>  <r_i_glide_lipo>  (118) 
-0.566226

>  <r_i_glide_hbond>  (118) 
-0.16

>  <r_i_glide_metal>  (118) 
-0

>  <r_i_glide_rewards>  (118) 
-2.25

>  <r_i_glide_evdw>  (118) 
-16.5154

>  <r_i_glide_ecoul>  (118) 
-2.67734

>  <r_i_glide_erotb>  (118) 
0

>  <r_i_glide_esite>  (118) 
-0.084496

>  <r_i_glide_emodel>  (118) 
-24.7314

>  <r_i_glide_energy>  (118) 
-19.1927

>  <r_i_glide_einternal>  (118) 
0.0325388

>  <r_i_glide_intrahb_reward>  (118) 
-0

>  <i_i_glide_confnum>  (118) 
2

>  <i_i_glide_posenum>  (118) 
4

>  <r_i_glide_eff_state_penalty>  (118) 
0

>  <ligand_id>  (118) 
34

>  <original_smiles>  (118) 
Oc1ccc(CCl)[nH]1

>  <smiles>  (118) 
[H]C1=C([H])C([H])(C([H])([H])Cl)N([H])C1=O

$$$$
34:0:1
     RDKit          3D

 14 14  0  0  1  0  0  0  0  0999 V2000
    1.9359   -3.7943   -1.2124 O   0  0  0  0  0  0  0  0  0  0  0  0
    2.6192   -3.0567   -1.9208 C   0  0  0  0  0  0  0  0  0  0  0  0
    3.8509   -2.3840   -1.5785 C   0  0  0  0  0  0  0  0  0  0  0  0
    4.2544   -1.6818   -2.6357 C   0  0  0  0  0  0  0  0  0  0  0  0
    3.3083   -1.8212   -3.7962 C   0  0  2  0  0  0  0  0  0  0  0  0
    2.6617   -0.4830   -4.1954 C   0  0  0  0  0  0  0  0  0  0  0  0
    3.8142    0.5418   -5.0759 Cl  0  0  0  0  0  0  0  0  0  0  0  0
    2.3497   -2.7415   -3.1972 N   0  0  0  0  0  0  0  0  0  0  0  0
    1.5520   -3.1201   -3.6929 H   0  0  0  0  0  0  0  0  0  0  0  0
    3.8026   -2.2996   -4.6416 H   0  0  0  0  0  0  0  0  0  0  0  0
    4.3577   -2.4489   -0.6295 H   0  0  0  0  0  0  0  0  0  0  0  0
    5.1454   -1.0745   -2.6806 H   0  0  0  0  0  0  0  0  0  0  0  0
    2.3138    0.0854   -3.3275 H   0  0  0  0  0  0  0  0  0  0  0  0
    1.8212   -0.6395   -4.8687 H   0  0  0  0  0  0  0  0  0  0  0  0
  1  2  2  0
  2  8  1  0
  2  3  1  0
  3 11  1  0
  3  4  2  0
  4  5  1  0
  4 12  1  0
  5  6  1  0
  5 10  1  6
  5  8  1  0
  6  7  1  0
  6 13  1  0
  6 14  1  0
  8  9  1  0
M  END
>  <i_m_ct_stereo_status>  (119) 
1

>  <s_m_source_file>  (119) 
/var/tmp/pbs.5076255.sched01/tmppm3sokcv/34yi_btuhz.sdf

>  <i_m_source_file_index>  (119) 
14

>  <i_lp_mmshare_version>  (119) 
48012

>  <i_f3d_flags>  (119) 
0

>  <s_epik_input>  (119) 
W09IXWMxW2NIXVtjSF1jKFtDSDJdQ2wpW25IXTE=

>  <s_epik_cmdline>  (119) 
J2VwaWtfcHl0aG9uJywgJy1waHQnLCAnMi4wJywgJy1waCcsICc3LjAnLCAnLXRuJywgJzgnLCAnLW1hJywgJzIwMCcsICctaW1hZScsICc8aW5maWxlLm1hZT4nLCAnLW9tYWUnLCAnPG91dGZpbGUubWFlPic=

>  <r_lp_tautomer_probability>  (119) 
0.961759

>  <r_epik_Ionization_Penalty>  (119) 
4.08445e-07

>  <r_epik_Ionization_Penalty_Charging>  (119) 
0

>  <r_epik_Ionization_Penalty_Neutral>  (119) 
4.08445e-07

>  <r_epik_State_Penalty>  (119) 
0.0186766

>  <r_epik_Charging_Adjusted_Penalty>  (119) 
0.0186766

>  <i_epik_Tot_Q>  (119) 
0

>  <i_epik_Tot_abs_Q>  (119) 
0

>  <s_lp_Force_Field>  (119) 
OPLS3e

>  <r_lp_Energy>  (119) 
-0.116215

>  <b_lp_Chiralities_Consistent>  (119) 
1

>  <s_lp_Variant>  (119) 
34:0-1

>  <s_i_glide_gridfile>  (119) 
pfpi4k_grid

>  <i_i_glide_lignum>  (119) 
14

>  <i_i_glide_rotatable_bonds>  (119) 
1

>  <r_i_docking_score>  (119) 
-3.71055

>  <r_i_glide_ligand_efficiency>  (119) 
-0.463819

>  <r_i_glide_ligand_efficiency_sa>  (119) 
-0.927638

>  <r_i_glide_ligand_efficiency_ln>  (119) 
-1.20494

>  <r_i_glide_gscore>  (119) 
-3.71055

>  <r_i_glide_lipo>  (119) 
-0.4275

>  <r_i_glide_hbond>  (119) 
-0.0649955

>  <r_i_glide_metal>  (119) 
-0

>  <r_i_glide_rewards>  (119) 
-2.26864

>  <r_i_glide_evdw>  (119) 
-16.3367

>  <r_i_glide_ecoul>  (119) 
-0.883872

>  <r_i_glide_erotb>  (119) 
0

>  <r_i_glide_esite>  (119) 
0

>  <r_i_glide_emodel>  (119) 
-21.985

>  <r_i_glide_energy>  (119) 
-17.2206

>  <r_i_glide_einternal>  (119) 
0.0612418

>  <r_i_glide_intrahb_reward>  (119) 
-0

>  <i_i_glide_confnum>  (119) 
1

>  <i_i_glide_posenum>  (119) 
17

>  <r_i_glide_eff_state_penalty>  (119) 
0

>  <ligand_id>  (119) 
34

>  <original_smiles>  (119) 
Oc1ccc(CCl)[nH]1

>  <smiles>  (119) 
[H]C1=C([H])C([H])(C([H])([H])Cl)N([H])C1=O

$$$$
34:0:2
     RDKit          3D

 14 14  0  0  1  0  0  0  0  0999 V2000
    1.8286   -3.4555   -2.1593 O   0  0  0  0  0  0  0  0  0  0  0  0
    2.7731   -2.7183   -2.4129 C   0  0  0  0  0  0  0  0  0  0  0  0
    3.8299   -2.3077   -1.5172 C   0  0  0  0  0  0  0  0  0  0  0  0
    4.6256   -1.4562   -2.1619 C   0  0  0  0  0  0  0  0  0  0  0  0
    4.1615   -1.2209   -3.5733 C   0  0  2  0  0  0  0  0  0  0  0  0
    3.7797    0.2449   -3.8061 C   0  0  0  0  0  0  0  0  0  0  0  0
    3.4026    0.5381   -5.5190 Cl  0  0  0  0  0  0  0  0  0  0  0  0
    2.9998   -2.1063   -3.5903 N   0  0  0  0  0  0  0  0  0  0  0  0
    2.3737   -2.1910   -4.3786 H   0  0  0  0  0  0  0  0  0  0  0  0
    4.9277   -1.5521   -4.2723 H   0  0  0  0  0  0  0  0  0  0  0  0
    3.9550   -2.6412   -0.5011 H   0  0  0  0  0  0  0  0  0  0  0  0
    5.5014   -0.9909   -1.7475 H   0  0  0  0  0  0  0  0  0  0  0  0
    4.5747    0.9371   -3.5202 H   0  0  0  0  0  0  0  0  0  0  0  0
    2.9043    0.5144   -3.2229 H   0  0  0  0  0  0  0  0  0  0  0  0
  1  2  2  0
  2  8  1  0
  2  3  1  0
  3 11  1  0
  3  4  2  0
  4  5  1  0
  4 12  1  0
  5  6  1  0
  5 10  1  6
  5  8  1  0
  6  7  1  0
  6 13  1  0
  6 14  1  0
  8  9  1  0
M  END
>  <i_m_ct_stereo_status>  (120) 
1

>  <s_m_source_file>  (120) 
/var/tmp/pbs.5076255.sched01/tmppm3sokcv/34yi_btuhz.sdf

>  <i_m_source_file_index>  (120) 
14

>  <i_lp_mmshare_version>  (120) 
48012

>  <i_f3d_flags>  (120) 
0

>  <s_epik_input>  (120) 
W09IXWMxW2NIXVtjSF1jKFtDSDJdQ2wpW25IXTE=

>  <s_epik_cmdline>  (120) 
J2VwaWtfcHl0aG9uJywgJy1waHQnLCAnMi4wJywgJy1waCcsICc3LjAnLCAnLXRuJywgJzgnLCAnLW1hJywgJzIwMCcsICctaW1hZScsICc8aW5maWxlLm1hZT4nLCAnLW9tYWUnLCAnPG91dGZpbGUubWFlPic=

>  <r_lp_tautomer_probability>  (120) 
0.961759

>  <r_epik_Ionization_Penalty>  (120) 
4.08445e-07

>  <r_epik_Ionization_Penalty_Charging>  (120) 
0

>  <r_epik_Ionization_Penalty_Neutral>  (120) 
4.08445e-07

>  <r_epik_State_Penalty>  (120) 
0.0186766

>  <r_epik_Charging_Adjusted_Penalty>  (120) 
0.0186766

>  <i_epik_Tot_Q>  (120) 
0

>  <i_epik_Tot_abs_Q>  (120) 
0

>  <s_lp_Force_Field>  (120) 
OPLS3e

>  <r_lp_Energy>  (120) 
-0.116215

>  <b_lp_Chiralities_Consistent>  (120) 
1

>  <s_lp_Variant>  (120) 
34:0-1

>  <s_i_glide_gridfile>  (120) 
pfpi4k_grid

>  <i_i_glide_lignum>  (120) 
14

>  <i_i_glide_rotatable_bonds>  (120) 
1

>  <r_i_docking_score>  (120) 
-3.60985

>  <r_i_glide_ligand_efficiency>  (120) 
-0.451232

>  <r_i_glide_ligand_efficiency_sa>  (120) 
-0.902464

>  <r_i_glide_ligand_efficiency_ln>  (120) 
-1.17224

>  <r_i_glide_gscore>  (120) 
-3.60985

>  <r_i_glide_lipo>  (120) 
-0.464351

>  <r_i_glide_hbond>  (120) 
-0.0939523

>  <r_i_glide_metal>  (120) 
-0

>  <r_i_glide_rewards>  (120) 
-2.25

>  <r_i_glide_evdw>  (120) 
-17.5866

>  <r_i_glide_ecoul>  (120) 
0.737109

>  <r_i_glide_erotb>  (120) 
0

>  <r_i_glide_esite>  (120) 
-0.0327874

>  <r_i_glide_emodel>  (120) 
-21.3847

>  <r_i_glide_energy>  (120) 
-16.8495

>  <r_i_glide_einternal>  (120) 
0.235393

>  <r_i_glide_intrahb_reward>  (120) 
-0

>  <i_i_glide_confnum>  (120) 
2

>  <i_i_glide_posenum>  (120) 
40

>  <r_i_glide_eff_state_penalty>  (120) 
0

>  <ligand_id>  (120) 
34

>  <original_smiles>  (120) 
Oc1ccc(CCl)[nH]1

>  <smiles>  (120) 
[H]C1=C([H])C([H])(C([H])([H])Cl)N([H])C1=O

$$$$
34:1:0
     RDKit          3D

 14 14  0  0  1  0  0  0  0  0999 V2000
    4.1695   -1.0631   -4.7021 O   0  0  0  0  0  0  0  0  0  0  0  0
    3.9974   -1.7229   -3.6800 C   0  0  0  0  0  0  0  0  0  0  0  0
    4.6087   -2.9839   -3.3201 C   0  0  0  0  0  0  0  0  0  0  0  0
    4.1659   -3.3471   -2.1179 C   0  0  0  0  0  0  0  0  0  0  0  0
    3.2108   -2.3326   -1.5583 C   0  0  1  0  0  0  0  0  0  0  0  0
    3.6994   -1.6948   -0.2430 C   0  0  0  0  0  0  0  0  0  0  0  0
    5.3647   -1.0580   -0.3604 Cl  0  0  0  0  0  0  0  0  0  0  0  0
    3.1865   -1.3851   -2.6683 N   0  0  0  0  0  0  0  0  0  0  0  0
    2.6015   -0.5602   -2.6557 H   0  0  0  0  0  0  0  0  0  0  0  0
    2.2255   -2.7860   -1.4321 H   0  0  0  0  0  0  0  0  0  0  0  0
    5.3086   -3.5492   -3.9171 H   0  0  0  0  0  0  0  0  0  0  0  0
    4.4363   -4.2508   -1.5925 H   0  0  0  0  0  0  0  0  0  0  0  0
    3.6931   -2.4239    0.5672 H   0  0  0  0  0  0  0  0  0  0  0  0
    3.0471   -0.8723    0.0552 H   0  0  0  0  0  0  0  0  0  0  0  0
  1  2  2  0
  2  8  1  0
  2  3  1  0
  3 11  1  0
  3  4  2  0
  4  5  1  0
  4 12  1  0
  5  6  1  0
  5 10  1  1
  5  8  1  0
  6  7  1  0
  6 13  1  0
  6 14  1  0
  8  9  1  0
M  END
>  <i_m_ct_stereo_status>  (121) 
1

>  <s_m_source_file>  (121) 
/var/tmp/pbs.5076255.sched01/tmppm3sokcv/34yi_btuhz.sdf

>  <i_m_source_file_index>  (121) 
15

>  <i_lp_mmshare_version>  (121) 
48012

>  <i_f3d_flags>  (121) 
0

>  <s_epik_input>  (121) 
W09IXWMxW2NIXVtjSF1jKFtDSDJdQ2wpW25IXTE=

>  <s_epik_cmdline>  (121) 
J2VwaWtfcHl0aG9uJywgJy1waHQnLCAnMi4wJywgJy1waCcsICc3LjAnLCAnLXRuJywgJzgnLCAnLW1hJywgJzIwMCcsICctaW1hZScsICc8aW5maWxlLm1hZT4nLCAnLW9tYWUnLCAnPG91dGZpbGUubWFlPic=

>  <r_lp_tautomer_probability>  (121) 
0.961759

>  <r_epik_Ionization_Penalty>  (121) 
4.08445e-07

>  <r_epik_Ionization_Penalty_Charging>  (121) 
0

>  <r_epik_Ionization_Penalty_Neutral>  (121) 
4.08445e-07

>  <r_epik_State_Penalty>  (121) 
0.0186766

>  <r_epik_Charging_Adjusted_Penalty>  (121) 
0.0186766

>  <i_epik_Tot_Q>  (121) 
0

>  <i_epik_Tot_abs_Q>  (121) 
0

>  <s_lp_Force_Field>  (121) 
OPLS3e

>  <r_lp_Energy>  (121) 
-0.116284

>  <b_lp_Chiralities_Consistent>  (121) 
1

>  <s_lp_Variant>  (121) 
34:0-2

>  <s_i_glide_gridfile>  (121) 
pfpi4k_grid

>  <i_i_glide_lignum>  (121) 
15

>  <i_i_glide_rotatable_bonds>  (121) 
1

>  <r_i_docking_score>  (121) 
-4.51846

>  <r_i_glide_ligand_efficiency>  (121) 
-0.564807

>  <r_i_glide_ligand_efficiency_sa>  (121) 
-1.12961

>  <r_i_glide_ligand_efficiency_ln>  (121) 
-1.4673

>  <r_i_glide_gscore>  (121) 
-4.51846

>  <r_i_glide_lipo>  (121) 
-0.154832

>  <r_i_glide_hbond>  (121) 
-0.32

>  <r_i_glide_metal>  (121) 
-0

>  <r_i_glide_rewards>  (121) 
-2.51889

>  <r_i_glide_evdw>  (121) 
-15.9273

>  <r_i_glide_ecoul>  (121) 
-4.43985

>  <r_i_glide_erotb>  (121) 
0

>  <r_i_glide_esite>  (121) 
-0.0623932

>  <r_i_glide_emodel>  (121) 
-25.7218

>  <r_i_glide_energy>  (121) 
-20.3671

>  <r_i_glide_einternal>  (121) 
1.54189

>  <r_i_glide_intrahb_reward>  (121) 
-0

>  <i_i_glide_confnum>  (121) 
1

>  <i_i_glide_posenum>  (121) 
16

>  <r_i_glide_eff_state_penalty>  (121) 
0

>  <ligand_id>  (121) 
34

>  <original_smiles>  (121) 
Oc1ccc(CCl)[nH]1

>  <smiles>  (121) 
[H]C1=C([H])C([H])(C([H])([H])Cl)N([H])C1=O

$$$$
34:1:1
     RDKit          3D

 14 14  0  0  1  0  0  0  0  0999 V2000
    3.8318   -1.2229   -4.7190 O   0  0  0  0  0  0  0  0  0  0  0  0
    3.8135   -1.8464   -3.6609 C   0  0  0  0  0  0  0  0  0  0  0  0
    4.6214   -2.9875   -3.2927 C   0  0  0  0  0  0  0  0  0  0  0  0
    4.2947   -3.3555   -2.0537 C   0  0  0  0  0  0  0  0  0  0  0  0
    3.2245   -2.4734   -1.4798 C   0  0  1  0  0  0  0  0  0  0  0  0
    3.6912   -1.6977   -0.2365 C   0  0  0  0  0  0  0  0  0  0  0  0
    3.9262   -2.8046    1.1398 Cl  0  0  0  0  0  0  0  0  0  0  0  0
    3.0155   -1.5875   -2.6158 N   0  0  0  0  0  0  0  0  0  0  0  0
    2.3046   -0.8683   -2.6004 H   0  0  0  0  0  0  0  0  0  0  0  0
    2.3166   -3.0450   -1.2818 H   0  0  0  0  0  0  0  0  0  0  0  0
    5.3582   -3.4704   -3.9150 H   0  0  0  0  0  0  0  0  0  0  0  0
    4.7179   -4.1887   -1.5134 H   0  0  0  0  0  0  0  0  0  0  0  0
    2.9530   -0.9563    0.0663 H   0  0  0  0  0  0  0  0  0  0  0  0
    4.6329   -1.1766   -0.4124 H   0  0  0  0  0  0  0  0  0  0  0  0
  1  2  2  0
  2  8  1  0
  2  3  1  0
  3 11  1  0
  3  4  2  0
  4  5  1  0
  4 12  1  0
  5  6  1  0
  5 10  1  1
  5  8  1  0
  6  7  1  0
  6 13  1  0
  6 14  1  0
  8  9  1  0
M  END
>  <i_m_ct_stereo_status>  (122) 
1

>  <s_m_source_file>  (122) 
/var/tmp/pbs.5076255.sched01/tmppm3sokcv/34yi_btuhz.sdf

>  <i_m_source_file_index>  (122) 
15

>  <i_lp_mmshare_version>  (122) 
48012

>  <i_f3d_flags>  (122) 
0

>  <s_epik_input>  (122) 
W09IXWMxW2NIXVtjSF1jKFtDSDJdQ2wpW25IXTE=

>  <s_epik_cmdline>  (122) 
J2VwaWtfcHl0aG9uJywgJy1waHQnLCAnMi4wJywgJy1waCcsICc3LjAnLCAnLXRuJywgJzgnLCAnLW1hJywgJzIwMCcsICctaW1hZScsICc8aW5maWxlLm1hZT4nLCAnLW9tYWUnLCAnPG91dGZpbGUubWFlPic=

>  <r_lp_tautomer_probability>  (122) 
0.961759

>  <r_epik_Ionization_Penalty>  (122) 
4.08445e-07

>  <r_epik_Ionization_Penalty_Charging>  (122) 
0

>  <r_epik_Ionization_Penalty_Neutral>  (122) 
4.08445e-07

>  <r_epik_State_Penalty>  (122) 
0.0186766

>  <r_epik_Charging_Adjusted_Penalty>  (122) 
0.0186766

>  <i_epik_Tot_Q>  (122) 
0

>  <i_epik_Tot_abs_Q>  (122) 
0

>  <s_lp_Force_Field>  (122) 
OPLS3e

>  <r_lp_Energy>  (122) 
-0.116284

>  <b_lp_Chiralities_Consistent>  (122) 
1

>  <s_lp_Variant>  (122) 
34:0-2

>  <s_i_glide_gridfile>  (122) 
pfpi4k_grid

>  <i_i_glide_lignum>  (122) 
15

>  <i_i_glide_rotatable_bonds>  (122) 
1

>  <r_i_docking_score>  (122) 
-4.39774

>  <r_i_glide_ligand_efficiency>  (122) 
-0.549717

>  <r_i_glide_ligand_efficiency_sa>  (122) 
-1.09943

>  <r_i_glide_ligand_efficiency_ln>  (122) 
-1.4281

>  <r_i_glide_gscore>  (122) 
-4.39774

>  <r_i_glide_lipo>  (122) 
-0.152711

>  <r_i_glide_hbond>  (122) 
-0.330753

>  <r_i_glide_metal>  (122) 
-0

>  <r_i_glide_rewards>  (122) 
-2.5361

>  <r_i_glide_evdw>  (122) 
-14.9846

>  <r_i_glide_ecoul>  (122) 
-3.7461

>  <r_i_glide_erotb>  (122) 
0

>  <r_i_glide_esite>  (122) 
-0.0670244

>  <r_i_glide_emodel>  (122) 
-24.7154

>  <r_i_glide_energy>  (122) 
-18.7307

>  <r_i_glide_einternal>  (122) 
0.00234909

>  <r_i_glide_intrahb_reward>  (122) 
-0

>  <i_i_glide_confnum>  (122) 
2

>  <i_i_glide_posenum>  (122) 
20

>  <r_i_glide_eff_state_penalty>  (122) 
0

>  <ligand_id>  (122) 
34

>  <original_smiles>  (122) 
Oc1ccc(CCl)[nH]1

>  <smiles>  (122) 
[H]C1=C([H])C([H])(C([H])([H])Cl)N([H])C1=O

$$$$
34:1:2
     RDKit          3D

 14 14  0  0  1  0  0  0  0  0999 V2000
    4.6152   -3.8562   -4.1788 O   0  0  0  0  0  0  0  0  0  0  0  0
    4.2963   -2.8726   -3.5139 C   0  0  0  0  0  0  0  0  0  0  0  0
    3.0981   -2.0774   -3.6262 C   0  0  0  0  0  0  0  0  0  0  0  0
    3.1742   -1.0723   -2.7562 C   0  0  0  0  0  0  0  0  0  0  0  0
    4.4391   -1.1287   -1.9536 C   0  0  1  0  0  0  0  0  0  0  0  0
    4.1781   -1.3244   -0.4521 C   0  0  0  0  0  0  0  0  0  0  0  0
    5.7159   -1.2830    0.4459 Cl  0  0  0  0  0  0  0  0  0  0  0  0
    5.0492   -2.3061   -2.5600 N   0  0  0  0  0  0  0  0  0  0  0  0
    5.9513   -2.6640   -2.2827 H   0  0  0  0  0  0  0  0  0  0  0  0
    5.0299   -0.2326   -2.1424 H   0  0  0  0  0  0  0  0  0  0  0  0
    2.2786   -2.2617   -4.3103 H   0  0  0  0  0  0  0  0  0  0  0  0
    2.4299   -0.3000   -2.6260 H   0  0  0  0  0  0  0  0  0  0  0  0
    3.6861   -2.2757   -0.2498 H   0  0  0  0  0  0  0  0  0  0  0  0
    3.5388   -0.5396   -0.0479 H   0  0  0  0  0  0  0  0  0  0  0  0
  1  2  2  0
  2  8  1  0
  2  3  1  0
  3 11  1  0
  3  4  2  0
  4  5  1  0
  4 12  1  0
  5  6  1  0
  5 10  1  1
  5  8  1  0
  6  7  1  0
  6 13  1  0
  6 14  1  0
  8  9  1  0
M  END
>  <i_m_ct_stereo_status>  (123) 
1

>  <s_m_source_file>  (123) 
/var/tmp/pbs.5076255.sched01/tmppm3sokcv/34yi_btuhz.sdf

>  <i_m_source_file_index>  (123) 
15

>  <i_lp_mmshare_version>  (123) 
48012

>  <i_f3d_flags>  (123) 
0

>  <s_epik_input>  (123) 
W09IXWMxW2NIXVtjSF1jKFtDSDJdQ2wpW25IXTE=

>  <s_epik_cmdline>  (123) 
J2VwaWtfcHl0aG9uJywgJy1waHQnLCAnMi4wJywgJy1waCcsICc3LjAnLCAnLXRuJywgJzgnLCAnLW1hJywgJzIwMCcsICctaW1hZScsICc8aW5maWxlLm1hZT4nLCAnLW9tYWUnLCAnPG91dGZpbGUubWFlPic=

>  <r_lp_tautomer_probability>  (123) 
0.961759

>  <r_epik_Ionization_Penalty>  (123) 
4.08445e-07

>  <r_epik_Ionization_Penalty_Charging>  (123) 
0

>  <r_epik_Ionization_Penalty_Neutral>  (123) 
4.08445e-07

>  <r_epik_State_Penalty>  (123) 
0.0186766

>  <r_epik_Charging_Adjusted_Penalty>  (123) 
0.0186766

>  <i_epik_Tot_Q>  (123) 
0

>  <i_epik_Tot_abs_Q>  (123) 
0

>  <s_lp_Force_Field>  (123) 
OPLS3e

>  <r_lp_Energy>  (123) 
-0.116284

>  <b_lp_Chiralities_Consistent>  (123) 
1

>  <s_lp_Variant>  (123) 
34:0-2

>  <s_i_glide_gridfile>  (123) 
pfpi4k_grid

>  <i_i_glide_lignum>  (123) 
15

>  <i_i_glide_rotatable_bonds>  (123) 
1

>  <r_i_docking_score>  (123) 
-4.02517

>  <r_i_glide_ligand_efficiency>  (123) 
-0.503147

>  <r_i_glide_ligand_efficiency_sa>  (123) 
-1.00629

>  <r_i_glide_ligand_efficiency_ln>  (123) 
-1.30711

>  <r_i_glide_gscore>  (123) 
-4.02517

>  <r_i_glide_lipo>  (123) 
-0.346467

>  <r_i_glide_hbond>  (123) 
0

>  <r_i_glide_metal>  (123) 
-0

>  <r_i_glide_rewards>  (123) 
-2.49423

>  <r_i_glide_evdw>  (123) 
-17.2105

>  <r_i_glide_ecoul>  (123) 
-2.15966

>  <r_i_glide_erotb>  (123) 
0

>  <r_i_glide_esite>  (123) 
0

>  <r_i_glide_emodel>  (123) 
-24.8174

>  <r_i_glide_energy>  (123) 
-19.3702

>  <r_i_glide_einternal>  (123) 
0.0701738

>  <r_i_glide_intrahb_reward>  (123) 
-0

>  <i_i_glide_confnum>  (123) 
2

>  <i_i_glide_posenum>  (123) 
14

>  <r_i_glide_eff_state_penalty>  (123) 
0

>  <ligand_id>  (123) 
34

>  <original_smiles>  (123) 
Oc1ccc(CCl)[nH]1

>  <smiles>  (123) 
[H]C1=C([H])C([H])(C([H])([H])Cl)N([H])C1=O

$$$$
34:2:0
     RDKit          3D

 14 14  0  0  1  0  0  0  0  0999 V2000
    2.7881   -4.0779    0.0828 O   0  0  0  0  0  0  0  0  0  0  0  0
    3.4109   -3.4095   -0.7386 C   0  0  0  0  0  0  0  0  0  0  0  0
    4.7451   -3.8089   -1.3555 C   0  0  0  0  0  0  0  0  0  0  0  0
    4.9479   -2.6572   -2.3104 C   0  0  0  0  0  0  0  0  0  0  0  0
    3.9286   -1.7974   -2.2048 C   0  0  0  0  0  0  0  0  0  0  0  0
    3.6217   -0.5238   -2.9629 C   0  0  0  0  0  0  0  0  0  0  0  0
    3.8177   -0.6552   -4.7173 Cl  0  0  0  0  0  0  0  0  0  0  0  0
    3.0151   -2.2532   -1.2762 N   0  0  0  0  0  0  0  0  0  0  0  0
    2.1188   -1.7706   -1.1009 H   0  0  0  0  0  0  0  0  0  0  0  0
    5.5335   -3.8563   -0.6040 H   0  0  0  0  0  0  0  0  0  0  0  0
    4.6752   -4.7549   -1.8885 H   0  0  0  0  0  0  0  0  0  0  0  0
    5.7884   -2.5850   -2.9831 H   0  0  0  0  0  0  0  0  0  0  0  0
    4.2589    0.2876   -2.6231 H   0  0  0  0  0  0  0  0  0  0  0  0
    2.5860   -0.2357   -2.7889 H   0  0  0  0  0  0  0  0  0  0  0  0
  1  2  2  0
  2  8  1  0
  2  3  1  0
  3 11  1  0
  3 10  1  0
  3  4  1  0
  4  5  2  0
  4 12  1  0
  5  6  1  0
  5  8  1  0
  6  7  1  0
  6 13  1  0
  6 14  1  0
  8  9  1  0
M  END
>  <i_m_ct_stereo_status>  (124) 
1

>  <s_m_source_file>  (124) 
/var/tmp/pbs.5076255.sched01/tmppm3sokcv/34yi_btuhz.sdf

>  <i_m_source_file_index>  (124) 
16

>  <i_lp_mmshare_version>  (124) 
48012

>  <i_f3d_flags>  (124) 
0

>  <s_epik_input>  (124) 
W09IXWMxW2NIXVtjSF1jKFtDSDJdQ2wpW25IXTE=

>  <s_epik_cmdline>  (124) 
J2VwaWtfcHl0aG9uJywgJy1waHQnLCAnMi4wJywgJy1waCcsICc3LjAnLCAnLXRuJywgJzgnLCAnLW1hJywgJzIwMCcsICctaW1hZScsICc8aW5maWxlLm1hZT4nLCAnLW9tYWUnLCAnPG91dGZpbGUubWFlPic=

>  <r_lp_tautomer_probability>  (124) 
0.0382384

>  <r_epik_Ionization_Penalty>  (124) 
5.65064e-07

>  <r_epik_Ionization_Penalty_Charging>  (124) 
0

>  <r_epik_Ionization_Penalty_Neutral>  (124) 
5.65064e-07

>  <r_epik_State_Penalty>  (124) 
2.05757

>  <r_epik_Charging_Adjusted_Penalty>  (124) 
2.05757

>  <i_epik_Tot_Q>  (124) 
0

>  <i_epik_Tot_abs_Q>  (124) 
0

>  <s_lp_Force_Field>  (124) 
OPLS3e

>  <r_lp_Energy>  (124) 
-6.29256

>  <b_lp_Chiralities_Consistent>  (124) 
1

>  <s_lp_Variant>  (124) 
34:0-3

>  <s_i_glide_gridfile>  (124) 
pfpi4k_grid

>  <i_i_glide_lignum>  (124) 
16

>  <i_i_glide_rotatable_bonds>  (124) 
1

>  <r_i_docking_score>  (124) 
-4.43756

>  <r_i_glide_ligand_efficiency>  (124) 
-0.554695

>  <r_i_glide_ligand_efficiency_sa>  (124) 
-1.10939

>  <r_i_glide_ligand_efficiency_ln>  (124) 
-1.44103

>  <r_i_glide_gscore>  (124) 
-4.43756

>  <r_i_glide_lipo>  (124) 
-0.331097

>  <r_i_glide_hbond>  (124) 
-0.16

>  <r_i_glide_metal>  (124) 
-0

>  <r_i_glide_rewards>  (124) 
-2.33312

>  <r_i_glide_evdw>  (124) 
-14.1501

>  <r_i_glide_ecoul>  (124) 
-5.4979

>  <r_i_glide_erotb>  (124) 
0

>  <r_i_glide_esite>  (124) 
-0.0811568

>  <r_i_glide_emodel>  (124) 
-26.0362

>  <r_i_glide_energy>  (124) 
-19.648

>  <r_i_glide_einternal>  (124) 
0.0012482

>  <r_i_glide_intrahb_reward>  (124) 
-0

>  <i_i_glide_confnum>  (124) 
2

>  <i_i_glide_posenum>  (124) 
1

>  <r_i_glide_eff_state_penalty>  (124) 
0

>  <ligand_id>  (124) 
34

>  <original_smiles>  (124) 
Oc1ccc(CCl)[nH]1

>  <smiles>  (124) 
[H]C1=C(C([H])([H])Cl)N([H])C(=O)C1([H])[H]

$$$$
34:2:1
     RDKit          3D

 14 14  0  0  1  0  0  0  0  0999 V2000
    5.4311   -4.7427   -0.2679 O   0  0  0  0  0  0  0  0  0  0  0  0
    5.1121   -3.6831   -0.7968 C   0  0  0  0  0  0  0  0  0  0  0  0
    5.7157   -2.3241   -0.4486 C   0  0  0  0  0  0  0  0  0  0  0  0
    4.9451   -1.4396   -1.3937 C   0  0  0  0  0  0  0  0  0  0  0  0
    4.0920   -2.1762   -2.1084 C   0  0  0  0  0  0  0  0  0  0  0  0
    3.1139   -1.7560   -3.1863 C   0  0  0  0  0  0  0  0  0  0  0  0
    3.8152   -0.6111   -4.3610 Cl  0  0  0  0  0  0  0  0  0  0  0  0
    4.2001   -3.5086   -1.7614 N   0  0  0  0  0  0  0  0  0  0  0  0
    3.6480   -4.2458   -2.1811 H   0  0  0  0  0  0  0  0  0  0  0  0
    5.5368   -2.0607    0.5943 H   0  0  0  0  0  0  0  0  0  0  0  0
    6.7883   -2.2992   -0.6411 H   0  0  0  0  0  0  0  0  0  0  0  0
    5.0760   -0.3710   -1.4522 H   0  0  0  0  0  0  0  0  0  0  0  0
    2.2484   -1.2789   -2.7226 H   0  0  0  0  0  0  0  0  0  0  0  0
    2.7669   -2.6283   -3.7445 H   0  0  0  0  0  0  0  0  0  0  0  0
  1  2  2  0
  2  8  1  0
  2  3  1  0
  3 11  1  0
  3 10  1  0
  3  4  1  0
  4  5  2  0
  4 12  1  0
  5  6  1  0
  5  8  1  0
  6  7  1  0
  6 13  1  0
  6 14  1  0
  8  9  1  0
M  END
>  <i_m_ct_stereo_status>  (125) 
1

>  <s_m_source_file>  (125) 
/var/tmp/pbs.5076255.sched01/tmppm3sokcv/34yi_btuhz.sdf

>  <i_m_source_file_index>  (125) 
16

>  <i_lp_mmshare_version>  (125) 
48012

>  <i_f3d_flags>  (125) 
0

>  <s_epik_input>  (125) 
W09IXWMxW2NIXVtjSF1jKFtDSDJdQ2wpW25IXTE=

>  <s_epik_cmdline>  (125) 
J2VwaWtfcHl0aG9uJywgJy1waHQnLCAnMi4wJywgJy1waCcsICc3LjAnLCAnLXRuJywgJzgnLCAnLW1hJywgJzIwMCcsICctaW1hZScsICc8aW5maWxlLm1hZT4nLCAnLW9tYWUnLCAnPG91dGZpbGUubWFlPic=

>  <r_lp_tautomer_probability>  (125) 
0.0382384

>  <r_epik_Ionization_Penalty>  (125) 
5.65064e-07

>  <r_epik_Ionization_Penalty_Charging>  (125) 
0

>  <r_epik_Ionization_Penalty_Neutral>  (125) 
5.65064e-07

>  <r_epik_State_Penalty>  (125) 
2.05757

>  <r_epik_Charging_Adjusted_Penalty>  (125) 
2.05757

>  <i_epik_Tot_Q>  (125) 
0

>  <i_epik_Tot_abs_Q>  (125) 
0

>  <s_lp_Force_Field>  (125) 
OPLS3e

>  <r_lp_Energy>  (125) 
-6.29256

>  <b_lp_Chiralities_Consistent>  (125) 
1

>  <s_lp_Variant>  (125) 
34:0-3

>  <s_i_glide_gridfile>  (125) 
pfpi4k_grid

>  <i_i_glide_lignum>  (125) 
16

>  <i_i_glide_rotatable_bonds>  (125) 
1

>  <r_i_docking_score>  (125) 
-4.27137

>  <r_i_glide_ligand_efficiency>  (125) 
-0.533921

>  <r_i_glide_ligand_efficiency_sa>  (125) 
-1.06784

>  <r_i_glide_ligand_efficiency_ln>  (125) 
-1.38706

>  <r_i_glide_gscore>  (125) 
-4.27137

>  <r_i_glide_lipo>  (125) 
-0.263886

>  <r_i_glide_hbond>  (125) 
-0.32

>  <r_i_glide_metal>  (125) 
-0

>  <r_i_glide_rewards>  (125) 
-2.32086

>  <r_i_glide_evdw>  (125) 
-15.3997

>  <r_i_glide_ecoul>  (125) 
-3.80305

>  <r_i_glide_erotb>  (125) 
0

>  <r_i_glide_esite>  (125) 
-0.0261789

>  <r_i_glide_emodel>  (125) 
-25.3651

>  <r_i_glide_energy>  (125) 
-19.2028

>  <r_i_glide_einternal>  (125) 
0.0221118

>  <r_i_glide_intrahb_reward>  (125) 
-0

>  <i_i_glide_confnum>  (125) 
1

>  <i_i_glide_posenum>  (125) 
16

>  <r_i_glide_eff_state_penalty>  (125) 
0

>  <ligand_id>  (125) 
34

>  <original_smiles>  (125) 
Oc1ccc(CCl)[nH]1

>  <smiles>  (125) 
[H]C1=C(C([H])([H])Cl)N([H])C(=O)C1([H])[H]

$$$$
34:2:2
     RDKit          3D

 14 14  0  0  1  0  0  0  0  0999 V2000
    2.6639   -4.2423    0.3688 O   0  0  0  0  0  0  0  0  0  0  0  0
    3.0006   -3.3752   -0.4394 C   0  0  0  0  0  0  0  0  0  0  0  0
    3.6025   -2.0293   -0.0702 C   0  0  0  0  0  0  0  0  0  0  0  0
    3.8186   -1.4522   -1.4498 C   0  0  0  0  0  0  0  0  0  0  0  0
    3.4073   -2.3212   -2.3775 C   0  0  0  0  0  0  0  0  0  0  0  0
    3.4027   -2.2464   -3.8913 C   0  0  0  0  0  0  0  0  0  0  0  0
    3.8127   -0.6379   -4.5355 Cl  0  0  0  0  0  0  0  0  0  0  0  0
    2.8960   -3.4550   -1.7668 N   0  0  0  0  0  0  0  0  0  0  0  0
    2.6099   -4.2837   -2.2752 H   0  0  0  0  0  0  0  0  0  0  0  0
    2.9007   -1.4313    0.5055 H   0  0  0  0  0  0  0  0  0  0  0  0
    4.5360   -2.1381    0.4775 H   0  0  0  0  0  0  0  0  0  0  0  0
    4.2413   -0.4743   -1.6250 H   0  0  0  0  0  0  0  0  0  0  0  0
    2.4156   -2.5109   -4.2596 H   0  0  0  0  0  0  0  0  0  0  0  0
    4.1158   -2.9645   -4.2856 H   0  0  0  0  0  0  0  0  0  0  0  0
  1  2  2  0
  2  8  1  0
  2  3  1  0
  3 11  1  0
  3 10  1  0
  3  4  1  0
  4  5  2  0
  4 12  1  0
  5  6  1  0
  5  8  1  0
  6  7  1  0
  6 13  1  0
  6 14  1  0
  8  9  1  0
M  END
>  <i_m_ct_stereo_status>  (126) 
1

>  <s_m_source_file>  (126) 
/var/tmp/pbs.5076255.sched01/tmppm3sokcv/34yi_btuhz.sdf

>  <i_m_source_file_index>  (126) 
16

>  <i_lp_mmshare_version>  (126) 
48012

>  <i_f3d_flags>  (126) 
0

>  <s_epik_input>  (126) 
W09IXWMxW2NIXVtjSF1jKFtDSDJdQ2wpW25IXTE=

>  <s_epik_cmdline>  (126) 
J2VwaWtfcHl0aG9uJywgJy1waHQnLCAnMi4wJywgJy1waCcsICc3LjAnLCAnLXRuJywgJzgnLCAnLW1hJywgJzIwMCcsICctaW1hZScsICc8aW5maWxlLm1hZT4nLCAnLW9tYWUnLCAnPG91dGZpbGUubWFlPic=

>  <r_lp_tautomer_probability>  (126) 
0.0382384

>  <r_epik_Ionization_Penalty>  (126) 
5.65064e-07

>  <r_epik_Ionization_Penalty_Charging>  (126) 
0

>  <r_epik_Ionization_Penalty_Neutral>  (126) 
5.65064e-07

>  <r_epik_State_Penalty>  (126) 
2.05757

>  <r_epik_Charging_Adjusted_Penalty>  (126) 
2.05757

>  <i_epik_Tot_Q>  (126) 
0

>  <i_epik_Tot_abs_Q>  (126) 
0

>  <s_lp_Force_Field>  (126) 
OPLS3e

>  <r_lp_Energy>  (126) 
-6.29256

>  <b_lp_Chiralities_Consistent>  (126) 
1

>  <s_lp_Variant>  (126) 
34:0-3

>  <s_i_glide_gridfile>  (126) 
pfpi4k_grid

>  <i_i_glide_lignum>  (126) 
16

>  <i_i_glide_rotatable_bonds>  (126) 
1

>  <r_i_docking_score>  (126) 
-4.18524

>  <r_i_glide_ligand_efficiency>  (126) 
-0.523156

>  <r_i_glide_ligand_efficiency_sa>  (126) 
-1.04631

>  <r_i_glide_ligand_efficiency_ln>  (126) 
-1.35909

>  <r_i_glide_gscore>  (126) 
-4.18524

>  <r_i_glide_lipo>  (126) 
-0.283117

>  <r_i_glide_hbond>  (126) 
-0.299768

>  <r_i_glide_metal>  (126) 
-0

>  <r_i_glide_rewards>  (126) 
-2.28376

>  <r_i_glide_evdw>  (126) 
-15.1256

>  <r_i_glide_ecoul>  (126) 
-3.74882

>  <r_i_glide_erotb>  (126) 
0

>  <r_i_glide_esite>  (126) 
0

>  <r_i_glide_emodel>  (126) 
-24.6815

>  <r_i_glide_energy>  (126) 
-18.8744

>  <r_i_glide_einternal>  (126) 
0.45443

>  <r_i_glide_intrahb_reward>  (126) 
-0

>  <i_i_glide_confnum>  (126) 
1

>  <i_i_glide_posenum>  (126) 
14

>  <r_i_glide_eff_state_penalty>  (126) 
0

>  <ligand_id>  (126) 
34

>  <original_smiles>  (126) 
Oc1ccc(CCl)[nH]1

>  <smiles>  (126) 
[H]C1=C(C([H])([H])Cl)N([H])C(=O)C1([H])[H]

$$$$
35:0:0
     RDKit          3D

 70 74  0  0  1  0  0  0  0  0999 V2000
   -3.3303    2.9640    2.4872 C   0  0  0  0  0  0  0  0  0  0  0  0
   -2.4019    4.1134    2.8796 C   0  0  0  0  0  0  0  0  0  0  0  0
   -2.6581    5.2517    2.4947 O   0  0  0  0  0  0  0  0  0  0  0  0
   -1.3146    3.7924    3.6290 O   0  0  0  0  0  0  0  0  0  0  0  0
   -0.6294    2.5566    3.4319 C   0  0  2  0  0  0  0  0  0  0  0  0
   -1.1470    1.4091    4.3283 C   0  0  0  0  0  0  0  0  0  0  0  0
   -0.3136    0.1265    4.1399 C   0  0  0  0  0  0  0  0  0  0  0  0
    1.2048    0.3299    4.3919 C   0  0  2  0  0  0  0  0  0  0  0  0
    1.4322    0.7302    5.8721 C   0  0  0  0  0  0  0  0  0  0  0  0
    1.6983    1.4840    3.4682 C   0  0  1  0  0  0  0  0  0  0  0  0
    1.7420    1.0729    1.9834 C   0  0  0  0  0  0  0  0  0  0  0  0
    2.2137   -0.3381    1.7312 C   0  0  0  0  0  0  0  0  0  0  0  0
    2.3615   -1.3005    2.6687 C   0  0  0  0  0  0  0  0  0  0  0  0
    2.9051   -2.6242    2.2967 C   0  0  0  0  0  0  0  0  0  0  0  0
    2.9441   -3.6424    3.2122 C   0  0  0  0  0  0  0  0  0  0  0  0
    2.3751   -3.4487    4.6167 C   0  0  0  0  0  0  0  0  0  0  0  0
    1.4444   -2.2400    4.7676 C   0  0  0  0  0  0  0  0  0  0  0  0
    2.0403   -0.9817    4.1260 C   0  0  2  0  0  0  0  0  0  0  0  0
    3.6210   -5.0156    2.9059 C   0  0  2  0  0  0  0  0  0  0  0  0
    3.6292   -5.2655    1.3745 C   0  0  1  0  0  0  0  0  0  0  0  0
    4.2884   -4.0897    0.6721 C   0  0  0  0  0  0  0  0  0  0  0  0
    3.4697   -2.8185    0.8879 C   0  0  0  0  0  0  0  0  0  0  0  0
    4.2852   -6.5877    0.9595 C   0  0  0  0  0  0  0  0  0  0  0  0
    3.5913   -7.7649    1.6459 C   0  0  1  0  0  0  0  0  0  0  0  0
    4.0748   -9.1123    1.0898 C   0  0  0  0  0  0  0  0  0  0  0  0
    3.7103   -7.6307    3.1791 C   0  0  1  0  0  0  0  0  0  0  0  0
    5.1557   -7.8620    3.6840 C   0  0  0  0  0  0  0  0  0  0  0  0
    3.0719   -6.2854    3.6492 C   0  0  1  0  0  0  0  0  0  0  0  0
    3.2992   -6.2189    5.0462 O   0  0  0  0  0  0  0  0  0  0  0  0
    0.8752    2.7910    3.6408 C   0  0  0  0  0  0  0  0  0  0  0  0
   -3.7571    2.5045    3.3702 H   0  0  0  0  0  0  0  0  0  0  0  0
   -2.8182    2.2035    1.8912 H   0  0  0  0  0  0  0  0  0  0  0  0
   -4.1582    3.3263    1.8760 H   0  0  0  0  0  0  0  0  0  0  0  0
   -0.7479    2.2799    2.3852 H   0  0  0  0  0  0  0  0  0  0  0  0
   -1.1614    1.7228    5.3717 H   0  0  0  0  0  0  0  0  0  0  0  0
   -2.1780    1.1637    4.0935 H   0  0  0  0  0  0  0  0  0  0  0  0
   -0.7195   -0.6415    4.7960 H   0  0  0  0  0  0  0  0  0  0  0  0
   -0.4588   -0.2319    3.1206 H   0  0  0  0  0  0  0  0  0  0  0  0
    2.4906    0.8903    6.0829 H   0  0  0  0  0  0  0  0  0  0  0  0
    1.0711   -0.0308    6.5611 H   0  0  0  0  0  0  0  0  0  0  0  0
    0.9210    1.6489    6.1518 H   0  0  0  0  0  0  0  0  0  0  0  0
    2.7274    1.7124    3.7471 H   0  0  0  0  0  0  0  0  0  0  0  0
    0.7708    1.1640    1.4977 H   0  0  0  0  0  0  0  0  0  0  0  0
    2.4132    1.7437    1.4503 H   0  0  0  0  0  0  0  0  0  0  0  0
    2.4147   -0.5241    0.6890 H   0  0  0  0  0  0  0  0  0  0  0  0
    1.7723   -4.3107    4.8950 H   0  0  0  0  0  0  0  0  0  0  0  0
    3.2094   -3.3752    5.3166 H   0  0  0  0  0  0  0  0  0  0  0  0
    0.5006   -2.4818    4.2774 H   0  0  0  0  0  0  0  0  0  0  0  0
    1.2225   -2.0906    5.8235 H   0  0  0  0  0  0  0  0  0  0  0  0
    3.0213   -0.8225    4.5750 H   0  0  0  0  0  0  0  0  0  0  0  0
    4.6555   -4.8969    3.2298 H   0  0  0  0  0  0  0  0  0  0  0  0
    2.5970   -5.3144    1.0334 H   0  0  0  0  0  0  0  0  0  0  0  0
    5.2942   -3.9487    1.0685 H   0  0  0  0  0  0  0  0  0  0  0  0
    4.3906   -4.2844   -0.3991 H   0  0  0  0  0  0  0  0  0  0  0  0
    2.6192   -2.8360    0.2053 H   0  0  0  0  0  0  0  0  0  0  0  0
    4.0930   -1.9674    0.6163 H   0  0  0  0  0  0  0  0  0  0  0  0
    4.2184   -6.7097   -0.1253 H   0  0  0  0  0  0  0  0  0  0  0  0
    5.3444   -6.5687    1.2121 H   0  0  0  0  0  0  0  0  0  0  0  0
    2.5308   -7.7109    1.4021 H   0  0  0  0  0  0  0  0  0  0  0  0
    5.1545   -9.2396    1.1670 H   0  0  0  0  0  0  0  0  0  0  0  0
    3.8231   -9.2116    0.0347 H   0  0  0  0  0  0  0  0  0  0  0  0
    3.5951   -9.9474    1.6016 H   0  0  0  0  0  0  0  0  0  0  0  0
    3.1202   -8.4390    3.6132 H   0  0  0  0  0  0  0  0  0  0  0  0
    5.8376   -7.0783    3.3592 H   0  0  0  0  0  0  0  0  0  0  0  0
    5.5557   -8.8142    3.3350 H   0  0  0  0  0  0  0  0  0  0  0  0
    5.2035   -7.9030    4.7724 H   0  0  0  0  0  0  0  0  0  0  0  0
    1.9937   -6.3505    3.4910 H   0  0  0  0  0  0  0  0  0  0  0  0
    2.9844   -7.0175    5.4406 H   0  0  0  0  0  0  0  0  0  0  0  0
    1.2144    3.5559    2.9377 H   0  0  0  0  0  0  0  0  0  0  0  0
    1.0428    3.2275    4.6249 H   0  0  0  0  0  0  0  0  0  0  0  0
  1  2  1  0
  1 31  1  0
  1 32  1  0
  1 33  1  0
  2  3  2  0
  2  4  1  0
  4  5  1  0
  5 30  1  0
  5  6  1  0
  5 34  1  6
  6  7  1  0
  6 35  1  0
  6 36  1  0
  7  8  1  0
  7 37  1  0
  7 38  1  0
  8 18  1  0
  8  9  1  1
  8 10  1  0
  9 39  1  0
  9 40  1  0
  9 41  1  0
 10 11  1  0
 10 30  1  0
 10 42  1  1
 11 12  1  0
 11 43  1  0
 11 44  1  0
 12 13  2  0
 12 45  1  0
 13 18  1  0
 13 14  1  0
 14 22  1  0
 14 15  2  0
 15 16  1  0
 15 19  1  0
 16 17  1  0
 16 46  1  0
 16 47  1  0
 17 18  1  0
 17 48  1  0
 17 49  1  0
 18 50  1  1
 19 28  1  0
 19 20  1  0
 19 51  1  1
 20 21  1  0
 20 23  1  0
 20 52  1  6
 21 22  1  0
 21 53  1  0
 21 54  1  0
 22 55  1  0
 22 56  1  0
 23 24  1  0
 23 57  1  0
 23 58  1  0
 24 25  1  0
 24 26  1  0
 24 59  1  1
 25 60  1  0
 25 61  1  0
 25 62  1  0
 26 27  1  0
 26 28  1  0
 26 63  1  1
 27 64  1  0
 27 65  1  0
 27 66  1  0
 28 29  1  0
 28 67  1  1
 29 68  1  0
 30 69  1  0
 30 70  1  0
M  END
>  <i_m_ct_stereo_status>  (127) 
1

>  <s_m_source_file>  (127) 
/var/tmp/pbs.5076255.sched01/tmppm3sokcv/34yi_btuhz.sdf

>  <i_m_source_file_index>  (127) 
17

>  <i_lp_mmshare_version>  (127) 
48012

>  <i_f3d_flags>  (127) 
0

>  <s_epik_input>  (127) 
W0NIM11DKD1PKU9bQ0BIXShbQ0gyXVtDSDJdMSlbQ0gyXVtDQEBIXShbQ0BAXTEyW0NIM10pW0NIMl1bQ0hdPUMzQzQ9QyhbQ0gyXVtDSDJdW0NASF0yMylbQ0BASF01W0NAQEhdKFtDSDJdW0NIMl00KVtDSDJdW0NAQEhdKFtDSDNdKVtDQEBIXShbQ0gzXSlbQ0BIXTVbT0hd

>  <s_epik_cmdline>  (127) 
J2VwaWtfcHl0aG9uJywgJy1waHQnLCAnMi4wJywgJy1waCcsICc3LjAnLCAnLXRuJywgJzgnLCAnLW1hJywgJzIwMCcsICctaW1hZScsICc8aW5maWxlLm1hZT4nLCAnLW9tYWUnLCAnPG91dGZpbGUubWFlPic=

>  <r_lp_tautomer_probability>  (127) 
1

>  <r_epik_Ionization_Penalty>  (127) 
1.26306e-06

>  <r_epik_Ionization_Penalty_Charging>  (127) 
0

>  <r_epik_Ionization_Penalty_Neutral>  (127) 
1.26306e-06

>  <r_epik_State_Penalty>  (127) 
-0

>  <r_epik_Charging_Adjusted_Penalty>  (127) 
0

>  <i_epik_Tot_Q>  (127) 
0

>  <i_epik_Tot_abs_Q>  (127) 
0

>  <s_epik_Chemistry_Notes>  (127) 
This compound has an ester and may undergo hydrolysis at high or low pH.

>  <s_lp_Force_Field>  (127) 
OPLS3e

>  <r_lp_Energy>  (127) 
49.5634

>  <b_lp_Chiralities_Consistent>  (127) 
1

>  <s_lp_Variant>  (127) 
35:0-1

>  <s_i_glide_gridfile>  (127) 
pfpi4k_grid

>  <i_i_glide_lignum>  (127) 
17

>  <i_i_glide_rotatable_bonds>  (127) 
3

>  <r_i_docking_score>  (127) 
-2.88983

>  <r_i_glide_ligand_efficiency>  (127) 
-0.0963277

>  <r_i_glide_ligand_efficiency_sa>  (127) 
-0.299313

>  <r_i_glide_ligand_efficiency_ln>  (127) 
-0.656601

>  <r_i_glide_gscore>  (127) 
-2.88983

>  <r_i_glide_lipo>  (127) 
-0.161691

>  <r_i_glide_hbond>  (127) 
-0.16

>  <r_i_glide_metal>  (127) 
-0

>  <r_i_glide_rewards>  (127) 
-0.595877

>  <r_i_glide_evdw>  (127) 
-26.5395

>  <r_i_glide_ecoul>  (127) 
-4.41686

>  <r_i_glide_erotb>  (127) 
0.115838

>  <r_i_glide_esite>  (127) 
-0.0985981

>  <r_i_glide_emodel>  (127) 
-31.6467

>  <r_i_glide_energy>  (127) 
-30.9563

>  <r_i_glide_einternal>  (127) 
9.35946

>  <r_i_glide_intrahb_reward>  (127) 
-0

>  <i_i_glide_confnum>  (127) 
3

>  <i_i_glide_posenum>  (127) 
33

>  <r_i_glide_eff_state_penalty>  (127) 
0

>  <ligand_id>  (127) 
35

>  <original_smiles>  (127) 
CC(=O)OC1CCC2(C)C(CC=C3C4=C(CCC32)C2C(CC4)CC(C)C(C)C2O)C1

>  <smiles>  (127) 
[H]OC1([H])C2([H])C3=C(C4=C([H])C([H])([H])C5([H])C([H])([H])C([H])(OC(=O)C([H])([H])[H])C([H])([H])C([H])([H])C5(C([H])([H])[H])C4([H])C([H])([H])C3([H])[H])C([H])([H])C([H])([H])C2([H])C([H])([H])C([H])(C([H])([H])[H])C1([H])C([H])([H])[H]

$$$$
35:0:1
     RDKit          3D

 70 74  0  0  1  0  0  0  0  0999 V2000
   -1.4080    3.7533    3.4884 C   0  0  0  0  0  0  0  0  0  0  0  0
   -0.3365    2.6931    3.6956 C   0  0  0  0  0  0  0  0  0  0  0  0
    0.3015    2.6459    4.7455 O   0  0  0  0  0  0  0  0  0  0  0  0
   -0.2213    1.8546    2.6375 O   0  0  0  0  0  0  0  0  0  0  0  0
    0.6631    0.7308    2.6285 C   0  0  2  0  0  0  0  0  0  0  0  0
    0.2378   -0.3189    3.6785 C   0  0  0  0  0  0  0  0  0  0  0  0
    1.1937   -1.5227    3.7232 C   0  0  0  0  0  0  0  0  0  0  0  0
    2.6835   -1.1193    3.9375 C   0  0  2  0  0  0  0  0  0  0  0  0
    2.8468   -0.4214    5.3175 C   0  0  0  0  0  0  0  0  0  0  0  0
    3.0914   -0.1244    2.8044 C   0  0  1  0  0  0  0  0  0  0  0  0
    3.1895   -0.7987    1.4216 C   0  0  0  0  0  0  0  0  0  0  0  0
    3.7789   -2.1927    1.4511 C   0  0  0  0  0  0  0  0  0  0  0  0
    4.0112   -2.9302    2.5579 C   0  0  0  0  0  0  0  0  0  0  0  0
    4.6802   -4.2484    2.4537 C   0  0  0  0  0  0  0  0  0  0  0  0
    4.8037   -5.0616    3.5468 C   0  0  0  0  0  0  0  0  0  0  0  0
    4.1999   -4.6559    4.8927 C   0  0  0  0  0  0  0  0  0  0  0  0
    3.1594   -3.5317    4.8089 C   0  0  0  0  0  0  0  0  0  0  0  0
    3.6463   -2.3688    3.9339 C   0  0  2  0  0  0  0  0  0  0  0  0
    5.6087   -6.3978    3.5086 C   0  0  2  0  0  0  0  0  0  0  0  0
    5.6565   -6.9357    2.0577 C   0  0  1  0  0  0  0  0  0  0  0  0
    6.2212   -5.8552    1.1437 C   0  0  0  0  0  0  0  0  0  0  0  0
    5.2849   -4.6508    1.1058 C   0  0  0  0  0  0  0  0  0  0  0  0
    6.4455   -8.2463    1.9132 C   0  0  0  0  0  0  0  0  0  0  0  0
    5.8455   -9.3366    2.8030 C   0  0  1  0  0  0  0  0  0  0  0  0
    6.4497  -10.7208    2.5050 C   0  0  0  0  0  0  0  0  0  0  0  0
    5.9320   -8.8965    4.2799 C   0  0  1  0  0  0  0  0  0  0  0  0
    7.3877   -8.8855    4.8156 C   0  0  0  0  0  0  0  0  0  0  0  0
    5.1703   -7.5463    4.4834 C   0  0  1  0  0  0  0  0  0  0  0  0
    5.3596   -7.1881    5.8397 O   0  0  0  0  0  0  0  0  0  0  0  0
    2.1628    1.1155    2.7287 C   0  0  0  0  0  0  0  0  0  0  0  0
   -2.3699    3.2843    3.2828 H   0  0  0  0  0  0  0  0  0  0  0  0
   -1.1406    4.4077    2.6585 H   0  0  0  0  0  0  0  0  0  0  0  0
   -1.4920    4.3517    4.3935 H   0  0  0  0  0  0  0  0  0  0  0  0
    0.5168    0.2770    1.6447 H   0  0  0  0  0  0  0  0  0  0  0  0
    0.1863    0.1164    4.6758 H   0  0  0  0  0  0  0  0  0  0  0  0
   -0.7735   -0.6592    3.4570 H   0  0  0  0  0  0  0  0  0  0  0  0
    0.8550   -2.1786    4.5241 H   0  0  0  0  0  0  0  0  0  0  0  0
    1.0965   -2.0949    2.7991 H   0  0  0  0  0  0  0  0  0  0  0  0
    3.8814   -0.1250    5.4953 H   0  0  0  0  0  0  0  0  0  0  0  0
    2.5473   -1.0652    6.1428 H   0  0  0  0  0  0  0  0  0  0  0  0
    2.2493    0.4830    5.4162 H   0  0  0  0  0  0  0  0  0  0  0  0
    4.0943    0.2403    3.0410 H   0  0  0  0  0  0  0  0  0  0  0  0
    2.2149   -0.8837    0.9480 H   0  0  0  0  0  0  0  0  0  0  0  0
    3.8041   -0.1775    0.7684 H   0  0  0  0  0  0  0  0  0  0  0  0
    4.0120   -2.5641    0.4646 H   0  0  0  0  0  0  0  0  0  0  0  0
    3.6748   -5.4983    5.3356 H   0  0  0  0  0  0  0  0  0  0  0  0
    5.0101   -4.3717    5.5638 H   0  0  0  0  0  0  0  0  0  0  0  0
    2.2467   -3.9520    4.3840 H   0  0  0  0  0  0  0  0  0  0  0  0
    2.9064   -3.2054    5.8157 H   0  0  0  0  0  0  0  0  0  0  0  0
    4.6013   -2.0353    4.3411 H   0  0  0  0  0  0  0  0  0  0  0  0
    6.6226   -6.1227    3.8019 H   0  0  0  0  0  0  0  0  0  0  0  0
    4.6355   -7.1445    1.7338 H   0  0  0  0  0  0  0  0  0  0  0  0
    7.2097   -5.5477    1.4954 H   0  0  0  0  0  0  0  0  0  0  0  0
    6.3536   -6.2364    0.1312 H   0  0  0  0  0  0  0  0  0  0  0  0
    4.4516   -4.8816    0.4408 H   0  0  0  0  0  0  0  0  0  0  0  0
    5.8312   -3.8120    0.6723 H   0  0  0  0  0  0  0  0  0  0  0  0
    6.4070   -8.5871    0.8793 H   0  0  0  0  0  0  0  0  0  0  0  0
    7.5022   -8.0827    2.1397 H   0  0  0  0  0  0  0  0  0  0  0  0
    4.7871   -9.4210    2.5520 H   0  0  0  0  0  0  0  0  0  0  0  0
    7.5355  -10.7296    2.6023 H   0  0  0  0  0  0  0  0  0  0  0  0
    6.2137  -11.0311    1.4854 H   0  0  0  0  0  0  0  0  0  0  0  0
    6.0443  -11.4817    3.1721 H   0  0  0  0  0  0  0  0  0  0  0  0
    5.4073   -9.6553    4.8641 H   0  0  0  0  0  0  0  0  0  0  0  0
    7.9969   -8.1158    4.3411 H   0  0  0  0  0  0  0  0  0  0  0  0
    7.8777   -9.8455    4.6552 H   0  0  0  0  0  0  0  0  0  0  0  0
    7.4186   -8.7112    5.8920 H   0  0  0  0  0  0  0  0  0  0  0  0
    4.1059   -7.7328    4.3428 H   0  0  0  0  0  0  0  0  0  0  0  0
    5.0461   -7.8952    6.3852 H   0  0  0  0  0  0  0  0  0  0  0  0
    2.4365    1.7454    1.8792 H   0  0  0  0  0  0  0  0  0  0  0  0
    2.3489    1.7296    3.6071 H   0  0  0  0  0  0  0  0  0  0  0  0
  1  2  1  0
  1 31  1  0
  1 32  1  0
  1 33  1  0
  2  3  2  0
  2  4  1  0
  4  5  1  0
  5 30  1  0
  5  6  1  0
  5 34  1  6
  6  7  1  0
  6 35  1  0
  6 36  1  0
  7  8  1  0
  7 37  1  0
  7 38  1  0
  8 18  1  0
  8  9  1  1
  8 10  1  0
  9 39  1  0
  9 40  1  0
  9 41  1  0
 10 11  1  0
 10 30  1  0
 10 42  1  1
 11 12  1  0
 11 43  1  0
 11 44  1  0
 12 13  2  0
 12 45  1  0
 13 18  1  0
 13 14  1  0
 14 22  1  0
 14 15  2  0
 15 16  1  0
 15 19  1  0
 16 17  1  0
 16 46  1  0
 16 47  1  0
 17 18  1  0
 17 48  1  0
 17 49  1  0
 18 50  1  1
 19 28  1  0
 19 20  1  0
 19 51  1  1
 20 21  1  0
 20 23  1  0
 20 52  1  6
 21 22  1  0
 21 53  1  0
 21 54  1  0
 22 55  1  0
 22 56  1  0
 23 24  1  0
 23 57  1  0
 23 58  1  0
 24 25  1  0
 24 26  1  0
 24 59  1  6
 25 60  1  0
 25 61  1  0
 25 62  1  0
 26 27  1  0
 26 28  1  0
 26 63  1  1
 27 64  1  0
 27 65  1  0
 27 66  1  0
 28 29  1  0
 28 67  1  1
 29 68  1  0
 30 69  1  0
 30 70  1  0
M  END
>  <i_m_ct_stereo_status>  (128) 
1

>  <s_m_source_file>  (128) 
/var/tmp/pbs.5076255.sched01/tmppm3sokcv/34yi_btuhz.sdf

>  <i_m_source_file_index>  (128) 
17

>  <i_lp_mmshare_version>  (128) 
48012

>  <i_f3d_flags>  (128) 
0

>  <s_epik_input>  (128) 
W0NIM11DKD1PKU9bQ0BIXShbQ0gyXVtDSDJdMSlbQ0gyXVtDQEBIXShbQ0BAXTEyW0NIM10pW0NIMl1bQ0hdPUMzQzQ9QyhbQ0gyXVtDSDJdW0NASF0yMylbQ0BASF01W0NAQEhdKFtDSDJdW0NIMl00KVtDSDJdW0NAQEhdKFtDSDNdKVtDQEBIXShbQ0gzXSlbQ0BIXTVbT0hd

>  <s_epik_cmdline>  (128) 
J2VwaWtfcHl0aG9uJywgJy1waHQnLCAnMi4wJywgJy1waCcsICc3LjAnLCAnLXRuJywgJzgnLCAnLW1hJywgJzIwMCcsICctaW1hZScsICc8aW5maWxlLm1hZT4nLCAnLW9tYWUnLCAnPG91dGZpbGUubWFlPic=

>  <r_lp_tautomer_probability>  (128) 
1

>  <r_epik_Ionization_Penalty>  (128) 
1.26306e-06

>  <r_epik_Ionization_Penalty_Charging>  (128) 
0

>  <r_epik_Ionization_Penalty_Neutral>  (128) 
1.26306e-06

>  <r_epik_State_Penalty>  (128) 
-0

>  <r_epik_Charging_Adjusted_Penalty>  (128) 
0

>  <i_epik_Tot_Q>  (128) 
0

>  <i_epik_Tot_abs_Q>  (128) 
0

>  <s_epik_Chemistry_Notes>  (128) 
This compound has an ester and may undergo hydrolysis at high or low pH.

>  <s_lp_Force_Field>  (128) 
OPLS3e

>  <r_lp_Energy>  (128) 
49.5634

>  <b_lp_Chiralities_Consistent>  (128) 
1

>  <s_lp_Variant>  (128) 
35:0-1

>  <s_i_glide_gridfile>  (128) 
pfpi4k_grid

>  <i_i_glide_lignum>  (128) 
17

>  <i_i_glide_rotatable_bonds>  (128) 
3

>  <r_i_docking_score>  (128) 
-2.21562

>  <r_i_glide_ligand_efficiency>  (128) 
-0.073854

>  <r_i_glide_ligand_efficiency_sa>  (128) 
-0.229481

>  <r_i_glide_ligand_efficiency_ln>  (128) 
-0.503413

>  <r_i_glide_gscore>  (128) 
-2.21562

>  <r_i_glide_lipo>  (128) 
-0.298537

>  <r_i_glide_hbond>  (128) 
0

>  <r_i_glide_metal>  (128) 
-0

>  <r_i_glide_rewards>  (128) 
-0.595877

>  <r_i_glide_evdw>  (128) 
-25.3657

>  <r_i_glide_ecoul>  (128) 
-0.779321

>  <r_i_glide_erotb>  (128) 
0.115838

>  <r_i_glide_esite>  (128) 
-0.0518605

>  <r_i_glide_emodel>  (128) 
-29.3791

>  <r_i_glide_energy>  (128) 
-26.145

>  <r_i_glide_einternal>  (128) 
2.34221

>  <r_i_glide_intrahb_reward>  (128) 
-0

>  <i_i_glide_confnum>  (128) 
1

>  <i_i_glide_posenum>  (128) 
26

>  <r_i_glide_eff_state_penalty>  (128) 
0

>  <ligand_id>  (128) 
35

>  <original_smiles>  (128) 
CC(=O)OC1CCC2(C)C(CC=C3C4=C(CCC32)C2C(CC4)CC(C)C(C)C2O)C1

>  <smiles>  (128) 
[H]OC1([H])C2([H])C3=C(C4=C([H])C([H])([H])C5([H])C([H])([H])C([H])(OC(=O)C([H])([H])[H])C([H])([H])C([H])([H])C5(C([H])([H])[H])C4([H])C([H])([H])C3([H])[H])C([H])([H])C([H])([H])C2([H])C([H])([H])C([H])(C([H])([H])[H])C1([H])C([H])([H])[H]

$$$$
35:0:2
     RDKit          3D

 70 74  0  0  1  0  0  0  0  0999 V2000
   -3.9547    5.3554    2.0304 C   0  0  0  0  0  0  0  0  0  0  0  0
   -2.4968    5.2427    2.4502 C   0  0  0  0  0  0  0  0  0  0  0  0
   -1.6959    6.0782    2.0759 O   0  0  0  0  0  0  0  0  0  0  0  0
   -2.3052    4.3053    3.3953 O   0  0  0  0  0  0  0  0  0  0  0  0
   -1.3406    3.2832    3.2091 C   0  0  2  0  0  0  0  0  0  0  0  0
   -1.9038    2.0500    3.9200 C   0  0  0  0  0  0  0  0  0  0  0  0
   -0.9764    0.8267    3.7886 C   0  0  0  0  0  0  0  0  0  0  0  0
    0.4518    1.0977    4.3318 C   0  0  2  0  0  0  0  0  0  0  0  0
    0.3736    1.3692    5.8556 C   0  0  0  0  0  0  0  0  0  0  0  0
    1.0121    2.3710    3.6214 C   0  0  1  0  0  0  0  0  0  0  0  0
    1.3468    2.0917    2.1397 C   0  0  0  0  0  0  0  0  0  0  0  0
    1.9691    0.7453    1.8641 C   0  0  0  0  0  0  0  0  0  0  0  0
    2.0232   -0.2842    2.7319 C   0  0  0  0  0  0  0  0  0  0  0  0
    2.7360   -1.5265    2.3451 C   0  0  0  0  0  0  0  0  0  0  0  0
    2.6978   -2.6145    3.1704 C   0  0  0  0  0  0  0  0  0  0  0  0
    1.8773   -2.6002    4.4576 C   0  0  0  0  0  0  0  0  0  0  0  0
    0.8312   -1.4738    4.5339 C   0  0  0  0  0  0  0  0  0  0  0  0
    1.4271   -0.1253    4.1200 C   0  0  2  0  0  0  0  0  0  0  0  0
    3.5370   -3.9045    2.8794 C   0  0  2  0  0  0  0  0  0  0  0  0
    3.8331   -4.0071    1.3657 C   0  0  1  0  0  0  0  0  0  0  0  0
    4.5088   -2.7206    0.8903 C   0  0  0  0  0  0  0  0  0  0  0  0
    3.5550   -1.5359    1.0650 C   0  0  0  0  0  0  0  0  0  0  0  0
    4.6621   -5.2317    0.9638 C   0  0  0  0  0  0  0  0  0  0  0  0
    3.9606   -6.5185    1.4186 C   0  0  1  0  0  0  0  0  0  0  0  0
    4.6359   -7.7777    0.8445 C   0  0  0  0  0  0  0  0  0  0  0  0
    3.7938   -6.5181    2.9486 C   0  0  1  0  0  0  0  0  0  0  0  0
    5.1475   -6.6926    3.6929 C   0  0  0  0  0  0  0  0  0  0  0  0
    2.9745   -5.2709    3.4032 C   0  0  1  0  0  0  0  0  0  0  0  0
    2.9364   -5.3220    4.8174 O   0  0  0  0  0  0  0  0  0  0  0  0
    0.0686    3.6096    3.7343 C   0  0  0  0  0  0  0  0  0  0  0  0
   -4.6407    5.5780    2.8436 H   0  0  0  0  0  0  0  0  0  0  0  0
   -4.2469    4.4136    1.5493 H   0  0  0  0  0  0  0  0  0  0  0  0
   -4.0397    6.1447    1.2871 H   0  0  0  0  0  0  0  0  0  0  0  0
   -1.2987    3.0705    2.1446 H   0  0  0  0  0  0  0  0  0  0  0  0
   -2.1299    2.2598    4.9679 H   0  0  0  0  0  0  0  0  0  0  0  0
   -2.8685    1.8384    3.4793 H   0  0  0  0  0  0  0  0  0  0  0  0
   -1.4401   -0.0170    4.2947 H   0  0  0  0  0  0  0  0  0  0  0  0
   -0.9161    0.5483    2.7302 H   0  0  0  0  0  0  0  0  0  0  0  0
    1.3633    1.5801    6.2689 H   0  0  0  0  0  0  0  0  0  0  0  0
   -0.0369    0.5195    6.4023 H   0  0  0  0  0  0  0  0  0  0  0  0
   -0.2533    2.2185    6.1090 H   0  0  0  0  0  0  0  0  0  0  0  0
    1.9531    2.6310    4.1035 H   0  0  0  0  0  0  0  0  0  0  0  0
    0.4602    2.1053    1.5094 H   0  0  0  0  0  0  0  0  0  0  0  0
    2.0172    2.8748    1.7733 H   0  0  0  0  0  0  0  0  0  0  0  0
    2.3555    0.6644    0.8672 H   0  0  0  0  0  0  0  0  0  0  0  0
    1.3084   -3.5207    4.5467 H   0  0  0  0  0  0  0  0  0  0  0  0
    2.5655   -2.5316    5.3014 H   0  0  0  0  0  0  0  0  0  0  0  0
    0.0142   -1.7333    3.8614 H   0  0  0  0  0  0  0  0  0  0  0  0
    0.4163   -1.4433    5.5404 H   0  0  0  0  0  0  0  0  0  0  0  0
    2.2961    0.0586    4.7490 H   0  0  0  0  0  0  0  0  0  0  0  0
    4.4814   -3.7416    3.4013 H   0  0  0  0  0  0  0  0  0  0  0  0
    2.8838   -4.0868    0.8338 H   0  0  0  0  0  0  0  0  0  0  0  0
    5.4128   -2.5473    1.4784 H   0  0  0  0  0  0  0  0  0  0  0  0
    4.8092   -2.8020   -0.1489 H   0  0  0  0  0  0  0  0  0  0  0  0
    2.8458   -1.5512    0.2321 H   0  0  0  0  0  0  0  0  0  0  0  0
    4.1428   -0.6208    0.9785 H   0  0  0  0  0  0  0  0  0  0  0  0
    4.7944   -5.2569   -0.1134 H   0  0  0  0  0  0  0  0  0  0  0  0
    5.6586   -5.1642    1.4073 H   0  0  0  0  0  0  0  0  0  0  0  0
    2.9560   -6.5082    0.9848 H   0  0  0  0  0  0  0  0  0  0  0  0
    5.6950   -7.8316    1.1087 H   0  0  0  0  0  0  0  0  0  0  0  0
    4.5868   -7.7754   -0.2445 H   0  0  0  0  0  0  0  0  0  0  0  0
    4.1510   -8.6919    1.1920 H   0  0  0  0  0  0  0  0  0  0  0  0
    3.2099   -7.4026    3.2059 H   0  0  0  0  0  0  0  0  0  0  0  0
    5.8033   -5.8362    3.5634 H   0  0  0  0  0  0  0  0  0  0  0  0
    5.6787   -7.5780    3.3456 H   0  0  0  0  0  0  0  0  0  0  0  0
    5.0012   -6.8349    4.7646 H   0  0  0  0  0  0  0  0  0  0  0  0
    1.9514   -5.3904    3.0438 H   0  0  0  0  0  0  0  0  0  0  0  0
    2.6173   -6.1625    5.0840 H   0  0  0  0  0  0  0  0  0  0  0  0
    0.4762    4.4587    3.1824 H   0  0  0  0  0  0  0  0  0  0  0  0
    0.0060    3.9486    4.7659 H   0  0  0  0  0  0  0  0  0  0  0  0
  1  2  1  0
  1 31  1  0
  1 32  1  0
  1 33  1  0
  2  3  2  0
  2  4  1  0
  4  5  1  0
  5 30  1  0
  5  6  1  0
  5 34  1  6
  6  7  1  0
  6 35  1  0
  6 36  1  0
  7  8  1  0
  7 37  1  0
  7 38  1  0
  8 18  1  0
  8  9  1  1
  8 10  1  0
  9 39  1  0
  9 40  1  0
  9 41  1  0
 10 11  1  0
 10 30  1  0
 10 42  1  1
 11 12  1  0
 11 43  1  0
 11 44  1  0
 12 13  2  0
 12 45  1  0
 13 18  1  0
 13 14  1  0
 14 22  1  0
 14 15  2  0
 15 16  1  0
 15 19  1  0
 16 17  1  0
 16 46  1  0
 16 47  1  0
 17 18  1  0
 17 48  1  0
 17 49  1  0
 18 50  1  1
 19 28  1  0
 19 20  1  0
 19 51  1  1
 20 21  1  0
 20 23  1  0
 20 52  1  6
 21 22  1  0
 21 53  1  0
 21 54  1  0
 22 55  1  0
 22 56  1  0
 23 24  1  0
 23 57  1  0
 23 58  1  0
 24 25  1  0
 24 26  1  0
 24 59  1  6
 25 60  1  0
 25 61  1  0
 25 62  1  0
 26 27  1  0
 26 28  1  0
 26 63  1  6
 27 64  1  0
 27 65  1  0
 27 66  1  0
 28 29  1  0
 28 67  1  6
 29 68  1  0
 30 69  1  0
 30 70  1  0
M  END
>  <i_m_ct_stereo_status>  (129) 
1

>  <s_m_source_file>  (129) 
/var/tmp/pbs.5076255.sched01/tmppm3sokcv/34yi_btuhz.sdf

>  <i_m_source_file_index>  (129) 
17

>  <i_lp_mmshare_version>  (129) 
48012

>  <i_f3d_flags>  (129) 
0

>  <s_epik_input>  (129) 
W0NIM11DKD1PKU9bQ0BIXShbQ0gyXVtDSDJdMSlbQ0gyXVtDQEBIXShbQ0BAXTEyW0NIM10pW0NIMl1bQ0hdPUMzQzQ9QyhbQ0gyXVtDSDJdW0NASF0yMylbQ0BASF01W0NAQEhdKFtDSDJdW0NIMl00KVtDSDJdW0NAQEhdKFtDSDNdKVtDQEBIXShbQ0gzXSlbQ0BIXTVbT0hd

>  <s_epik_cmdline>  (129) 
J2VwaWtfcHl0aG9uJywgJy1waHQnLCAnMi4wJywgJy1waCcsICc3LjAnLCAnLXRuJywgJzgnLCAnLW1hJywgJzIwMCcsICctaW1hZScsICc8aW5maWxlLm1hZT4nLCAnLW9tYWUnLCAnPG91dGZpbGUubWFlPic=

>  <r_lp_tautomer_probability>  (129) 
1

>  <r_epik_Ionization_Penalty>  (129) 
1.26306e-06

>  <r_epik_Ionization_Penalty_Charging>  (129) 
0

>  <r_epik_Ionization_Penalty_Neutral>  (129) 
1.26306e-06

>  <r_epik_State_Penalty>  (129) 
-0

>  <r_epik_Charging_Adjusted_Penalty>  (129) 
0

>  <i_epik_Tot_Q>  (129) 
0

>  <i_epik_Tot_abs_Q>  (129) 
0

>  <s_epik_Chemistry_Notes>  (129) 
This compound has an ester and may undergo hydrolysis at high or low pH.

>  <s_lp_Force_Field>  (129) 
OPLS3e

>  <r_lp_Energy>  (129) 
49.5634

>  <b_lp_Chiralities_Consistent>  (129) 
1

>  <s_lp_Variant>  (129) 
35:0-1

>  <s_i_glide_gridfile>  (129) 
pfpi4k_grid

>  <i_i_glide_lignum>  (129) 
17

>  <i_i_glide_rotatable_bonds>  (129) 
3

>  <r_i_docking_score>  (129) 
-1.72239

>  <r_i_glide_ligand_efficiency>  (129) 
-0.0574128

>  <r_i_glide_ligand_efficiency_sa>  (129) 
-0.178395

>  <r_i_glide_ligand_efficiency_ln>  (129) 
-0.391345

>  <r_i_glide_gscore>  (129) 
-1.72239

>  <r_i_glide_lipo>  (129) 
-0.18223

>  <r_i_glide_hbond>  (129) 
-0.259469

>  <r_i_glide_metal>  (129) 
-0

>  <r_i_glide_rewards>  (129) 
-0.595877

>  <r_i_glide_evdw>  (129) 
-13.858

>  <r_i_glide_ecoul>  (129) 
-0.0516325

>  <r_i_glide_erotb>  (129) 
0.115838

>  <r_i_glide_esite>  (129) 
-0.1

>  <r_i_glide_emodel>  (129) 
-10.5439

>  <r_i_glide_energy>  (129) 
-13.9097

>  <r_i_glide_einternal>  (129) 
10.0779

>  <r_i_glide_intrahb_reward>  (129) 
-0

>  <i_i_glide_confnum>  (129) 
3

>  <i_i_glide_posenum>  (129) 
1

>  <r_i_glide_eff_state_penalty>  (129) 
0

>  <ligand_id>  (129) 
35

>  <original_smiles>  (129) 
CC(=O)OC1CCC2(C)C(CC=C3C4=C(CCC32)C2C(CC4)CC(C)C(C)C2O)C1

>  <smiles>  (129) 
[H]OC1([H])C2([H])C3=C(C4=C([H])C([H])([H])C5([H])C([H])([H])C([H])(OC(=O)C([H])([H])[H])C([H])([H])C([H])([H])C5(C([H])([H])[H])C4([H])C([H])([H])C3([H])[H])C([H])([H])C([H])([H])C2([H])C([H])([H])C([H])(C([H])([H])[H])C1([H])C([H])([H])[H]

$$$$
36:0:0
     RDKit          3D

 47 51  0  0  1  0  0  0  0  0999 V2000
    1.3529   -6.8541    2.7880 C   0  0  0  0  0  0  0  0  0  0  0  0
    1.6098   -5.3918    3.1269 C   0  0  0  0  0  0  0  0  0  0  0  0
    2.5703   -4.5911    2.6505 C   0  0  0  0  0  0  0  0  0  0  0  0
    2.6299   -3.1354    3.1164 C   0  0  0  0  0  0  0  0  0  0  0  0
    2.6474   -2.0611    2.0081 C   0  0  0  0  0  0  0  0  0  0  0  0
    3.9861   -1.8760    1.2591 C   0  0  2  0  0  0  0  0  0  0  0  0
    4.9452   -1.6998    2.3361 O   0  0  0  0  0  0  0  0  0  0  0  0
    6.1553   -0.9385    2.2117 C   0  0  0  0  0  0  0  0  0  0  0  0
    3.9417   -0.5333    0.4512 C   0  0  0  0  0  0  0  0  0  0  0  0
    4.8606   -0.6200   -0.6560 O   0  0  0  0  0  0  0  0  0  0  0  0
    4.3513   -1.4652   -1.5922 C   0  0  0  0  0  0  0  0  0  0  0  0
    3.8681   -1.0737   -2.8692 C   0  0  0  0  0  0  0  0  0  0  0  0
    4.2149    0.1400   -3.3763 O   0  0  0  0  0  0  0  0  0  0  0  0
    2.9210   -1.8684   -3.5634 C   0  0  0  0  0  0  0  0  0  0  0  0
    2.3359   -2.9959   -2.9565 C   0  0  0  0  0  0  0  0  0  0  0  0
    2.8222   -3.3954   -1.6987 C   0  0  0  0  0  0  0  0  0  0  0  0
    3.8891   -2.6978   -1.1241 C   0  0  0  0  0  0  0  0  0  0  0  0
    4.2753   -3.1096    0.2918 C   0  0  1  0  0  0  0  0  0  0  0  0
    5.5959   -3.8269    0.6690 C   0  0  0  0  0  0  0  0  0  0  0  0
    5.1315   -4.7127    1.8792 C   0  0  0  0  0  0  0  0  0  0  0  0
    3.6271   -5.0643    1.6388 C   0  0  2  0  0  0  0  0  0  0  0  0
    3.4524   -4.4089    0.2979 C   0  0  1  0  0  0  0  0  0  0  0  0
    2.2620   -4.3110   -0.6299 C   0  0  0  0  0  0  0  0  0  0  0  0
    0.2821   -7.0335    2.7228 H   0  0  0  0  0  0  0  0  0  0  0  0
    1.7556   -7.4917    3.5739 H   0  0  0  0  0  0  0  0  0  0  0  0
    1.7798   -7.1638    1.8351 H   0  0  0  0  0  0  0  0  0  0  0  0
    0.9244   -4.9989    3.8706 H   0  0  0  0  0  0  0  0  0  0  0  0
    1.7355   -2.9403    3.7075 H   0  0  0  0  0  0  0  0  0  0  0  0
    3.4573   -2.9981    3.8106 H   0  0  0  0  0  0  0  0  0  0  0  0
    1.8213   -2.1946    1.3038 H   0  0  0  0  0  0  0  0  0  0  0  0
    2.4414   -1.1130    2.4982 H   0  0  0  0  0  0  0  0  0  0  0  0
    6.5832   -0.8867    3.2147 H   0  0  0  0  0  0  0  0  0  0  0  0
    5.9985    0.1012    1.9315 H   0  0  0  0  0  0  0  0  0  0  0  0
    6.9016   -1.3579    1.5335 H   0  0  0  0  0  0  0  0  0  0  0  0
    2.9301   -0.3567    0.0732 H   0  0  0  0  0  0  0  0  0  0  0  0
    4.1087    0.3504    1.0682 H   0  0  0  0  0  0  0  0  0  0  0  0
    3.4604    0.6120   -3.7267 H   0  0  0  0  0  0  0  0  0  0  0  0
    2.5149   -1.5277   -4.5049 H   0  0  0  0  0  0  0  0  0  0  0  0
    1.4666   -3.4636   -3.3978 H   0  0  0  0  0  0  0  0  0  0  0  0
    5.9112   -4.4769   -0.1588 H   0  0  0  0  0  0  0  0  0  0  0  0
    6.4664   -3.2136    0.9095 H   0  0  0  0  0  0  0  0  0  0  0  0
    5.7410   -5.6176    1.9201 H   0  0  0  0  0  0  0  0  0  0  0  0
    5.2754   -4.2060    2.8313 H   0  0  0  0  0  0  0  0  0  0  0  0
    3.5724   -6.1448    1.5445 H   0  0  0  0  0  0  0  0  0  0  0  0
    3.9960   -5.1260   -0.3297 H   0  0  0  0  0  0  0  0  0  0  0  0
    1.4424   -3.7930   -0.1634 H   0  0  0  0  0  0  0  0  0  0  0  0
    1.8693   -5.2704   -0.9747 H   0  0  0  0  0  0  0  0  0  0  0  0
  1  2  1  0
  1 24  1  0
  1 25  1  0
  1 26  1  0
  2  3  2  3
  2 27  1  0
  3 21  1  0
  3  4  1  0
  4  5  1  0
  4 28  1  0
  4 29  1  0
  5  6  1  0
  5 30  1  0
  5 31  1  0
  6 18  1  0
  6  7  1  1
  6  9  1  0
  7  8  1  0
  8 32  1  0
  8 33  1  0
  8 34  1  0
  9 10  1  0
  9 35  1  0
  9 36  1  0
 10 11  1  0
 11 17  2  0
 11 12  1  0
 12 13  1  0
 12 14  2  0
 13 37  1  0
 14 15  1  0
 14 38  1  0
 15 16  2  0
 15 39  1  0
 16 23  1  0
 16 17  1  0
 17 18  1  0
 18 22  1  0
 18 19  1  6
 19 20  1  0
 19 40  1  0
 19 41  1  0
 20 21  1  0
 20 42  1  0
 20 43  1  0
 21 22  1  0
 21 44  1  6
 22 23  1  0
 22 45  1  6
 23 46  1  0
 23 47  1  0
M  END
>  <i_m_ct_stereo_status>  (130) 
1

>  <s_m_source_file>  (130) 
/var/tmp/pbs.5076255.sched01/tmppm3sokcv/34yi_btuhz.sdf

>  <i_m_source_file_index>  (130) 
18

>  <i_lp_mmshare_version>  (130) 
48012

>  <i_f3d_flags>  (130) 
0

>  <s_epik_input>  (130) 
W0NIM11PW0NAQF0xKFtDQEBdMjM0KVtDSDJdW0NIMl0vQyg9W0NIXVxbQ0gzXSlbQ0BIXShbQ0gyXVtDSDJdMylbQ0BIXTRbQ0gyXWM1YzJjKE9bQ0gyXTEpYyhbT0hdKVtjSF1bY0hdNQ==

>  <s_epik_cmdline>  (130) 
J2VwaWtfcHl0aG9uJywgJy1waHQnLCAnMi4wJywgJy1waCcsICc3LjAnLCAnLXRuJywgJzgnLCAnLW1hJywgJzIwMCcsICctaW1hZScsICc8aW5maWxlLm1hZT4nLCAnLW9tYWUnLCAnPG91dGZpbGUubWFlPic=

>  <r_lp_tautomer_probability>  (130) 
1

>  <r_epik_Ionization_Penalty>  (130) 
0.000102178

>  <r_epik_Ionization_Penalty_Charging>  (130) 
0

>  <r_epik_Ionization_Penalty_Neutral>  (130) 
0.000102178

>  <r_epik_State_Penalty>  (130) 
-0

>  <r_epik_Charging_Adjusted_Penalty>  (130) 
0

>  <i_epik_Tot_Q>  (130) 
0

>  <i_epik_Tot_abs_Q>  (130) 
0

>  <s_lp_Force_Field>  (130) 
OPLS3e

>  <r_lp_Energy>  (130) 
89.3308

>  <b_lp_Chiralities_Consistent>  (130) 
1

>  <s_lp_Variant>  (130) 
36:0-1

>  <s_i_glide_gridfile>  (130) 
pfpi4k_grid

>  <i_i_glide_lignum>  (130) 
18

>  <i_i_glide_rotatable_bonds>  (130) 
2

>  <r_i_docking_score>  (130) 
-3.23439

>  <r_i_glide_ligand_efficiency>  (130) 
-0.140626

>  <r_i_glide_ligand_efficiency_sa>  (130) 
-0.39992

>  <r_i_glide_ligand_efficiency_ln>  (130) 
-0.782104

>  <r_i_glide_gscore>  (130) 
-3.23439

>  <r_i_glide_lipo>  (130) 
-0.677358

>  <r_i_glide_hbond>  (130) 
0

>  <r_i_glide_metal>  (130) 
-0

>  <r_i_glide_rewards>  (130) 
-1.27907

>  <r_i_glide_evdw>  (130) 
-17.9721

>  <r_i_glide_ecoul>  (130) 
-2.52902

>  <r_i_glide_erotb>  (130) 
0

>  <r_i_glide_esite>  (130) 
0

>  <r_i_glide_emodel>  (130) 
-21.1955

>  <r_i_glide_energy>  (130) 
-20.5011

>  <r_i_glide_einternal>  (130) 
5.02053

>  <r_i_glide_intrahb_reward>  (130) 
-0

>  <i_i_glide_confnum>  (130) 
2

>  <i_i_glide_posenum>  (130) 
1

>  <r_i_glide_eff_state_penalty>  (130) 
0

>  <ligand_id>  (130) 
36

>  <original_smiles>  (130) 
CC=C1CCC2(OC)COc3c(O)ccc4c3C23CCC1C3C4

>  <smiles>  (130) 
[H]Oc1c([H])c([H])c2c3c1OC([H])([H])C1(OC([H])([H])[H])C([H])([H])C([H])([H])C(=C([H])C([H])([H])[H])C4([H])C([H])([H])C([H])([H])C31C4([H])C2([H])[H]

$$$$
36:0:1
     RDKit          3D

 47 51  0  0  1  0  0  0  0  0999 V2000
    2.0602   -7.0168    3.1256 C   0  0  0  0  0  0  0  0  0  0  0  0
    2.2085   -5.5433    3.4604 C   0  0  0  0  0  0  0  0  0  0  0  0
    3.0962   -4.6580    2.9629 C   0  0  0  0  0  0  0  0  0  0  0  0
    3.0242   -3.2070    3.4346 C   0  0  0  0  0  0  0  0  0  0  0  0
    2.9078   -2.1307    2.3335 C   0  0  0  0  0  0  0  0  0  0  0  0
    4.2143   -1.8414    1.5581 C   0  0  2  0  0  0  0  0  0  0  0  0
    5.2581   -1.6955    2.5406 O   0  0  0  0  0  0  0  0  0  0  0  0
    5.3060   -0.5749    3.4157 C   0  0  0  0  0  0  0  0  0  0  0  0
    4.1197   -0.5002    0.7413 C   0  0  0  0  0  0  0  0  0  0  0  0
    4.9817   -0.5200   -0.4106 O   0  0  0  0  0  0  0  0  0  0  0  0
    4.4967   -1.4127   -1.3220 C   0  0  0  0  0  0  0  0  0  0  0  0
    3.9575   -1.0761   -2.5916 C   0  0  0  0  0  0  0  0  0  0  0  0
    4.2117    0.1465   -3.1393 O   0  0  0  0  0  0  0  0  0  0  0  0
    3.0477   -1.9367   -3.2547 C   0  0  0  0  0  0  0  0  0  0  0  0
    2.5778   -3.1019   -2.6181 C   0  0  0  0  0  0  0  0  0  0  0  0
    3.1176   -3.4505   -1.3658 C   0  0  0  0  0  0  0  0  0  0  0  0
    4.1389   -2.6598   -0.8303 C   0  0  0  0  0  0  0  0  0  0  0  0
    4.5793   -3.0428    0.5744 C   0  0  1  0  0  0  0  0  0  0  0  0
    5.9844   -3.6002    0.9436 C   0  0  0  0  0  0  0  0  0  0  0  0
    5.6382   -4.5635    2.1381 C   0  0  0  0  0  0  0  0  0  0  0  0
    4.1644   -5.0455    1.9297 C   0  0  2  0  0  0  0  0  0  0  0  0
    3.9102   -4.4138    0.5958 C   0  0  1  0  0  0  0  0  0  0  0  0
    2.6832   -4.4267   -0.2912 C   0  0  0  0  0  0  0  0  0  0  0  0
    1.0018   -7.2735    3.0858 H   0  0  0  0  0  0  0  0  0  0  0  0
    2.5231   -7.6247    3.9030 H   0  0  0  0  0  0  0  0  0  0  0  0
    2.4852   -7.2950    2.1636 H   0  0  0  0  0  0  0  0  0  0  0  0
    1.5089   -5.2043    4.2090 H   0  0  0  0  0  0  0  0  0  0  0  0
    2.1338   -3.0979    4.0536 H   0  0  0  0  0  0  0  0  0  0  0  0
    3.8569   -3.0008    4.1038 H   0  0  0  0  0  0  0  0  0  0  0  0
    2.0892   -2.3481    1.6482 H   0  0  0  0  0  0  0  0  0  0  0  0
    2.6011   -1.2069    2.8178 H   0  0  0  0  0  0  0  0  0  0  0  0
    5.9629   -0.8086    4.2506 H   0  0  0  0  0  0  0  0  0  0  0  0
    4.3382   -0.3132    3.8389 H   0  0  0  0  0  0  0  0  0  0  0  0
    5.7378    0.2896    2.9147 H   0  0  0  0  0  0  0  0  0  0  0  0
    3.0901   -0.3680    0.4023 H   0  0  0  0  0  0  0  0  0  0  0  0
    4.3032    0.3987    1.3243 H   0  0  0  0  0  0  0  0  0  0  0  0
    3.4346    0.5761   -3.4610 H   0  0  0  0  0  0  0  0  0  0  0  0
    2.6202   -1.6476   -4.2004 H   0  0  0  0  0  0  0  0  0  0  0  0
    1.8009   -3.7033   -3.0566 H   0  0  0  0  0  0  0  0  0  0  0  0
    6.4116   -4.1680    0.1166 H   0  0  0  0  0  0  0  0  0  0  0  0
    6.7383   -2.8503    1.1793 H   0  0  0  0  0  0  0  0  0  0  0  0
    6.3255   -5.4092    2.1331 H   0  0  0  0  0  0  0  0  0  0  0  0
    5.7674   -4.0808    3.1042 H   0  0  0  0  0  0  0  0  0  0  0  0
    4.1967   -6.1279    1.8258 H   0  0  0  0  0  0  0  0  0  0  0  0
    4.5126   -5.0661   -0.0490 H   0  0  0  0  0  0  0  0  0  0  0  0
    1.8171   -4.0318    0.2280 H   0  0  0  0  0  0  0  0  0  0  0  0
    2.4460   -5.4102   -0.6865 H   0  0  0  0  0  0  0  0  0  0  0  0
  1  2  1  0
  1 24  1  0
  1 25  1  0
  1 26  1  0
  2  3  2  3
  2 27  1  0
  3 21  1  0
  3  4  1  0
  4  5  1  0
  4 28  1  0
  4 29  1  0
  5  6  1  0
  5 30  1  0
  5 31  1  0
  6 18  1  0
  6  7  1  1
  6  9  1  0
  7  8  1  0
  8 32  1  0
  8 33  1  0
  8 34  1  0
  9 10  1  0
  9 35  1  0
  9 36  1  0
 10 11  1  0
 11 17  2  0
 11 12  1  0
 12 13  1  0
 12 14  2  0
 13 37  1  0
 14 15  1  0
 14 38  1  0
 15 16  2  0
 15 39  1  0
 16 23  1  0
 16 17  1  0
 17 18  1  0
 18 22  1  0
 18 19  1  6
 19 20  1  0
 19 40  1  0
 19 41  1  0
 20 21  1  0
 20 42  1  0
 20 43  1  0
 21 22  1  0
 21 44  1  6
 22 23  1  0
 22 45  1  6
 23 46  1  0
 23 47  1  0
M  END
>  <i_m_ct_stereo_status>  (131) 
1

>  <s_m_source_file>  (131) 
/var/tmp/pbs.5076255.sched01/tmppm3sokcv/34yi_btuhz.sdf

>  <i_m_source_file_index>  (131) 
18

>  <i_lp_mmshare_version>  (131) 
48012

>  <i_f3d_flags>  (131) 
0

>  <s_epik_input>  (131) 
W0NIM11PW0NAQF0xKFtDQEBdMjM0KVtDSDJdW0NIMl0vQyg9W0NIXVxbQ0gzXSlbQ0BIXShbQ0gyXVtDSDJdMylbQ0BIXTRbQ0gyXWM1YzJjKE9bQ0gyXTEpYyhbT0hdKVtjSF1bY0hdNQ==

>  <s_epik_cmdline>  (131) 
J2VwaWtfcHl0aG9uJywgJy1waHQnLCAnMi4wJywgJy1waCcsICc3LjAnLCAnLXRuJywgJzgnLCAnLW1hJywgJzIwMCcsICctaW1hZScsICc8aW5maWxlLm1hZT4nLCAnLW9tYWUnLCAnPG91dGZpbGUubWFlPic=

>  <r_lp_tautomer_probability>  (131) 
1

>  <r_epik_Ionization_Penalty>  (131) 
0.000102178

>  <r_epik_Ionization_Penalty_Charging>  (131) 
0

>  <r_epik_Ionization_Penalty_Neutral>  (131) 
0.000102178

>  <r_epik_State_Penalty>  (131) 
-0

>  <r_epik_Charging_Adjusted_Penalty>  (131) 
0

>  <i_epik_Tot_Q>  (131) 
0

>  <i_epik_Tot_abs_Q>  (131) 
0

>  <s_lp_Force_Field>  (131) 
OPLS3e

>  <r_lp_Energy>  (131) 
89.3308

>  <b_lp_Chiralities_Consistent>  (131) 
1

>  <s_lp_Variant>  (131) 
36:0-1

>  <s_i_glide_gridfile>  (131) 
pfpi4k_grid

>  <i_i_glide_lignum>  (131) 
18

>  <i_i_glide_rotatable_bonds>  (131) 
2

>  <r_i_docking_score>  (131) 
-3.21897

>  <r_i_glide_ligand_efficiency>  (131) 
-0.139955

>  <r_i_glide_ligand_efficiency_sa>  (131) 
-0.398014

>  <r_i_glide_ligand_efficiency_ln>  (131) 
-0.778375

>  <r_i_glide_gscore>  (131) 
-3.21897

>  <r_i_glide_lipo>  (131) 
-0.606384

>  <r_i_glide_hbond>  (131) 
0

>  <r_i_glide_metal>  (131) 
-0

>  <r_i_glide_rewards>  (131) 
-1.27907

>  <r_i_glide_evdw>  (131) 
-20.0159

>  <r_i_glide_ecoul>  (131) 
-2.21809

>  <r_i_glide_erotb>  (131) 
0

>  <r_i_glide_esite>  (131) 
0

>  <r_i_glide_emodel>  (131) 
-25.0965

>  <r_i_glide_energy>  (131) 
-22.234

>  <r_i_glide_einternal>  (131) 
1.77319

>  <r_i_glide_intrahb_reward>  (131) 
-0

>  <i_i_glide_confnum>  (131) 
2

>  <i_i_glide_posenum>  (131) 
17

>  <r_i_glide_eff_state_penalty>  (131) 
0

>  <ligand_id>  (131) 
36

>  <original_smiles>  (131) 
CC=C1CCC2(OC)COc3c(O)ccc4c3C23CCC1C3C4

>  <smiles>  (131) 
[H]Oc1c([H])c([H])c2c3c1OC([H])([H])C1(OC([H])([H])[H])C([H])([H])C([H])([H])C(=C([H])C([H])([H])[H])C4([H])C([H])([H])C([H])([H])C31C4([H])C2([H])[H]

$$$$
36:0:2
     RDKit          3D

 47 51  0  0  1  0  0  0  0  0999 V2000
    2.7962   -0.0744   -3.6335 C   0  0  0  0  0  0  0  0  0  0  0  0
    3.8978   -1.0556   -3.4717 C   0  0  0  0  0  0  0  0  0  0  0  0
    4.3101   -1.6361   -2.3291 C   0  0  0  0  0  0  0  0  0  0  0  0
    5.5018   -2.5250   -2.4626 C   0  0  0  0  0  0  0  0  0  0  0  0
    5.2859   -3.9209   -1.9098 C   0  0  0  0  0  0  0  0  0  0  0  0
    5.4466   -4.0880   -0.3811 C   0  0  2  0  0  0  0  0  0  0  0  0
    6.5877   -3.3180    0.0267 O   0  0  0  0  0  0  0  0  0  0  0  0
    7.8952   -3.5192   -0.5076 C   0  0  0  0  0  0  0  0  0  0  0  0
    5.7061   -5.5569    0.1072 C   0  0  0  0  0  0  0  0  0  0  0  0
    5.1240   -5.8752    1.3922 O   0  0  0  0  0  0  0  0  0  0  0  0
    3.7592   -5.8041    1.3240 C   0  0  0  0  0  0  0  0  0  0  0  0
    2.9010   -6.8942    1.5587 C   0  0  0  0  0  0  0  0  0  0  0  0
    3.3356   -8.0082    2.2231 O   0  0  0  0  0  0  0  0  0  0  0  0
    1.6012   -6.8884    1.0135 C   0  0  0  0  0  0  0  0  0  0  0  0
    1.2039   -5.8747    0.1196 C   0  0  0  0  0  0  0  0  0  0  0  0
    2.0634   -4.7992   -0.0973 C   0  0  0  0  0  0  0  0  0  0  0  0
    3.2380   -4.7090    0.6519 C   0  0  0  0  0  0  0  0  0  0  0  0
    4.1258   -3.5298    0.3139 C   0  0  1  0  0  0  0  0  0  0  0  0
    4.4879   -2.3828    1.2867 C   0  0  0  0  0  0  0  0  0  0  0  0
    4.6306   -1.1748    0.2905 C   0  0  0  0  0  0  0  0  0  0  0  0
    3.7030   -1.4808   -0.9301 C   0  0  2  0  0  0  0  0  0  0  0  0
    3.0519   -2.7336   -0.4228 C   0  0  1  0  0  0  0  0  0  0  0  0
    2.0355   -3.6517   -1.0824 C   0  0  0  0  0  0  0  0  0  0  0  0
    2.1716   -0.3898   -4.4912 H   0  0  0  0  0  0  0  0  0  0  0  0
    3.2594    0.8933   -3.8346 H   0  0  0  0  0  0  0  0  0  0  0  0
    2.2237   -0.0156   -2.7128 H   0  0  0  0  0  0  0  0  0  0  0  0
    4.4147   -1.2661   -4.3956 H   0  0  0  0  0  0  0  0  0  0  0  0
    5.7019   -2.6595   -3.5247 H   0  0  0  0  0  0  0  0  0  0  0  0
    6.3310   -1.9913   -2.0086 H   0  0  0  0  0  0  0  0  0  0  0  0
    4.3649   -4.3783   -2.2629 H   0  0  0  0  0  0  0  0  0  0  0  0
    6.0908   -4.4243   -2.4392 H   0  0  0  0  0  0  0  0  0  0  0  0
    8.4991   -2.6595   -0.2009 H   0  0  0  0  0  0  0  0  0  0  0  0
    7.9021   -3.5382   -1.5948 H   0  0  0  0  0  0  0  0  0  0  0  0
    8.3796   -4.4144   -0.1208 H   0  0  0  0  0  0  0  0  0  0  0  0
    5.2141   -6.2059   -0.6158 H   0  0  0  0  0  0  0  0  0  0  0  0
    6.7730   -5.8177    0.0567 H   0  0  0  0  0  0  0  0  0  0  0  0
    4.2281   -7.9136    2.5205 H   0  0  0  0  0  0  0  0  0  0  0  0
    0.9676   -7.7309    1.1747 H   0  0  0  0  0  0  0  0  0  0  0  0
    0.2528   -5.9302   -0.3720 H   0  0  0  0  0  0  0  0  0  0  0  0
    3.6695   -2.2138    1.9954 H   0  0  0  0  0  0  0  0  0  0  0  0
    5.3576   -2.5803    1.9093 H   0  0  0  0  0  0  0  0  0  0  0  0
    4.3035   -0.2727    0.8005 H   0  0  0  0  0  0  0  0  0  0  0  0
    5.6631   -1.0048   -0.0130 H   0  0  0  0  0  0  0  0  0  0  0  0
    2.9676   -0.6782   -0.9238 H   0  0  0  0  0  0  0  0  0  0  0  0
    2.3747   -2.3360    0.3523 H   0  0  0  0  0  0  0  0  0  0  0  0
    2.3311   -3.9464   -2.0876 H   0  0  0  0  0  0  0  0  0  0  0  0
    1.0524   -3.1970   -1.1393 H   0  0  0  0  0  0  0  0  0  0  0  0
  1  2  1  0
  1 24  1  0
  1 25  1  0
  1 26  1  0
  2  3  2  3
  2 27  1  0
  3 21  1  0
  3  4  1  0
  4  5  1  0
  4 28  1  0
  4 29  1  0
  5  6  1  0
  5 30  1  0
  5 31  1  0
  6 18  1  0
  6  7  1  1
  6  9  1  0
  7  8  1  0
  8 32  1  0
  8 33  1  0
  8 34  1  0
  9 10  1  0
  9 35  1  0
  9 36  1  0
 10 11  1  0
 11 17  2  0
 11 12  1  0
 12 13  1  0
 12 14  2  0
 13 37  1  0
 14 15  1  0
 14 38  1  0
 15 16  2  0
 15 39  1  0
 16 23  1  0
 16 17  1  0
 17 18  1  0
 18 22  1  0
 18 19  1  1
 19 20  1  0
 19 40  1  0
 19 41  1  0
 20 21  1  0
 20 42  1  0
 20 43  1  0
 21 22  1  0
 21 44  1  6
 22 23  1  0
 22 45  1  1
 23 46  1  0
 23 47  1  0
M  END
>  <i_m_ct_stereo_status>  (132) 
1

>  <s_m_source_file>  (132) 
/var/tmp/pbs.5076255.sched01/tmppm3sokcv/34yi_btuhz.sdf

>  <i_m_source_file_index>  (132) 
18

>  <i_lp_mmshare_version>  (132) 
48012

>  <i_f3d_flags>  (132) 
0

>  <s_epik_input>  (132) 
W0NIM11PW0NAQF0xKFtDQEBdMjM0KVtDSDJdW0NIMl0vQyg9W0NIXVxbQ0gzXSlbQ0BIXShbQ0gyXVtDSDJdMylbQ0BIXTRbQ0gyXWM1YzJjKE9bQ0gyXTEpYyhbT0hdKVtjSF1bY0hdNQ==

>  <s_epik_cmdline>  (132) 
J2VwaWtfcHl0aG9uJywgJy1waHQnLCAnMi4wJywgJy1waCcsICc3LjAnLCAnLXRuJywgJzgnLCAnLW1hJywgJzIwMCcsICctaW1hZScsICc8aW5maWxlLm1hZT4nLCAnLW9tYWUnLCAnPG91dGZpbGUubWFlPic=

>  <r_lp_tautomer_probability>  (132) 
1

>  <r_epik_Ionization_Penalty>  (132) 
0.000102178

>  <r_epik_Ionization_Penalty_Charging>  (132) 
0

>  <r_epik_Ionization_Penalty_Neutral>  (132) 
0.000102178

>  <r_epik_State_Penalty>  (132) 
-0

>  <r_epik_Charging_Adjusted_Penalty>  (132) 
0

>  <i_epik_Tot_Q>  (132) 
0

>  <i_epik_Tot_abs_Q>  (132) 
0

>  <s_lp_Force_Field>  (132) 
OPLS3e

>  <r_lp_Energy>  (132) 
89.3308

>  <b_lp_Chiralities_Consistent>  (132) 
1

>  <s_lp_Variant>  (132) 
36:0-1

>  <s_i_glide_gridfile>  (132) 
pfpi4k_grid

>  <i_i_glide_lignum>  (132) 
18

>  <i_i_glide_rotatable_bonds>  (132) 
2

>  <r_i_docking_score>  (132) 
-2.62931

>  <r_i_glide_ligand_efficiency>  (132) 
-0.114318

>  <r_i_glide_ligand_efficiency_sa>  (132) 
-0.325105

>  <r_i_glide_ligand_efficiency_ln>  (132) 
-0.635791

>  <r_i_glide_gscore>  (132) 
-2.62931

>  <r_i_glide_lipo>  (132) 
-0.780437

>  <r_i_glide_hbond>  (132) 
0

>  <r_i_glide_metal>  (132) 
-0

>  <r_i_glide_rewards>  (132) 
-1.27907

>  <r_i_glide_evdw>  (132) 
-12.1376

>  <r_i_glide_ecoul>  (132) 
0.247184

>  <r_i_glide_erotb>  (132) 
0

>  <r_i_glide_esite>  (132) 
0

>  <r_i_glide_emodel>  (132) 
-13.6906

>  <r_i_glide_energy>  (132) 
-11.8904

>  <r_i_glide_einternal>  (132) 
1.40966

>  <r_i_glide_intrahb_reward>  (132) 
-0

>  <i_i_glide_confnum>  (132) 
1

>  <i_i_glide_posenum>  (132) 
20

>  <r_i_glide_eff_state_penalty>  (132) 
0

>  <ligand_id>  (132) 
36

>  <original_smiles>  (132) 
CC=C1CCC2(OC)COc3c(O)ccc4c3C23CCC1C3C4

>  <smiles>  (132) 
[H]Oc1c([H])c([H])c2c3c1OC([H])([H])C1(OC([H])([H])[H])C([H])([H])C([H])([H])C(=C([H])C([H])([H])[H])C4([H])C([H])([H])C([H])([H])C31C4([H])C2([H])[H]

$$$$
37:0:0
     RDKit          3D

 38 40  0  0  1  0  0  0  0  0999 V2000
    0.6415    3.9673    5.0807 O   0  0  0  0  0  0  0  0  0  0  0  0
   -0.0350    3.2964    5.8599 C   0  0  0  0  0  0  0  0  0  0  0  0
   -0.5002    3.8631    7.1703 C   0  0  0  0  0  0  0  0  0  0  0  0
   -1.3479    2.7356    7.7814 C   0  0  0  0  0  0  0  0  0  0  0  0
   -2.8492    3.0890    7.8494 C   0  0  0  0  0  0  0  0  0  0  0  0
   -3.1436    4.1502    8.9118 C   0  0  0  0  0  0  0  0  0  0  0  0
   -2.6145    3.7086   10.2846 C   0  0  0  0  0  0  0  0  0  0  0  0
   -1.1156    3.3664   10.2411 C   0  0  0  0  0  0  0  0  0  0  0  0
   -0.8210    2.2948    9.1726 C   0  0  0  0  0  0  0  0  0  0  0  0
   -1.1897    1.6319    6.7368 C   0  0  0  0  0  0  0  0  0  0  0  0
   -1.7457    0.5300    6.8683 O   0  0  0  0  0  0  0  0  0  0  0  0
   -0.4686    2.0294    5.6871 N   0  0  0  0  0  0  0  0  0  0  0  0
   -0.2585    1.1658    4.5088 C   0  0  0  0  0  0  0  0  0  0  0  0
    1.2191    0.8157    4.2727 C   0  0  0  0  0  0  0  0  0  0  0  0
    1.3090    0.5261    2.7782 C   0  0  0  0  0  0  0  0  0  0  0  0
    0.3177    1.4983    2.1422 C   0  0  0  0  0  0  0  0  0  0  0  0
   -0.7759    1.7658    3.1827 C   0  0  0  0  0  0  0  0  0  0  0  0
    0.3706    4.1106    7.7747 H   0  0  0  0  0  0  0  0  0  0  0  0
   -1.0687    4.7707    6.9815 H   0  0  0  0  0  0  0  0  0  0  0  0
   -3.1981    3.4253    6.8725 H   0  0  0  0  0  0  0  0  0  0  0  0
   -3.4244    2.1915    8.0846 H   0  0  0  0  0  0  0  0  0  0  0  0
   -2.6909    5.1015    8.6329 H   0  0  0  0  0  0  0  0  0  0  0  0
   -4.2176    4.3249    8.9531 H   0  0  0  0  0  0  0  0  0  0  0  0
   -2.7884    4.4997   11.0133 H   0  0  0  0  0  0  0  0  0  0  0  0
   -3.1700    2.8353   10.6309 H   0  0  0  0  0  0  0  0  0  0  0  0
   -0.5416    4.2702   10.0308 H   0  0  0  0  0  0  0  0  0  0  0  0
   -0.7822    3.0182   11.2199 H   0  0  0  0  0  0  0  0  0  0  0  0
   -1.2770    1.3485    9.4824 H   0  0  0  0  0  0  0  0  0  0  0  0
    0.2546    2.1059    9.1302 H   0  0  0  0  0  0  0  0  0  0  0  0
   -0.7882    0.2149    4.6377 H   0  0  0  0  0  0  0  0  0  0  0  0
    1.8573    1.6700    4.4934 H   0  0  0  0  0  0  0  0  0  0  0  0
    1.5544   -0.0181    4.8917 H   0  0  0  0  0  0  0  0  0  0  0  0
    2.3205    0.6494    2.3907 H   0  0  0  0  0  0  0  0  0  0  0  0
    0.9974   -0.4996    2.5825 H   0  0  0  0  0  0  0  0  0  0  0  0
    0.8334    2.4307    1.9159 H   0  0  0  0  0  0  0  0  0  0  0  0
   -0.0925    1.1164    1.2104 H   0  0  0  0  0  0  0  0  0  0  0  0
   -1.7244    1.3078    2.8958 H   0  0  0  0  0  0  0  0  0  0  0  0
   -0.9601    2.8382    3.2368 H   0  0  0  0  0  0  0  0  0  0  0  0
  1  2  2  0
  2 12  1  0
  2  3  1  0
  3  4  1  0
  3 18  1  0
  3 19  1  0
  4  9  1  0
  4  5  1  0
  4 10  1  0
  5  6  1  0
  5 20  1  0
  5 21  1  0
  6  7  1  0
  6 22  1  0
  6 23  1  0
  7  8  1  0
  7 24  1  0
  7 25  1  0
  8  9  1  0
  8 26  1  0
  8 27  1  0
  9 28  1  0
  9 29  1  0
 10 11  2  0
 10 12  1  0
 12 13  1  0
 13 17  1  0
 13 14  1  0
 13 30  1  0
 14 15  1  0
 14 31  1  0
 14 32  1  0
 15 16  1  0
 15 33  1  0
 15 34  1  0
 16 17  1  0
 16 35  1  0
 16 36  1  0
 17 37  1  0
 17 38  1  0
M  END
>  <i_m_ct_stereo_status>  (133) 
1

>  <s_m_source_file>  (133) 
/var/tmp/pbs.5076255.sched01/tmppm3sokcv/34yi_btuhz.sdf

>  <i_m_source_file_index>  (133) 
19

>  <i_lp_mmshare_version>  (133) 
48012

>  <i_f3d_flags>  (133) 
0

>  <s_epik_input>  (133) 
W0NIMl0xW0NIMl1bQ0gyXVtDSDJdW0NIXTFOKEMyPU8pQyg9TylbQ0gyXUMyM1tDSDJdW0NIMl1bQ0gyXVtDSDJdW0NIMl0z

>  <s_epik_cmdline>  (133) 
J2VwaWtfcHl0aG9uJywgJy1waHQnLCAnMi4wJywgJy1waCcsICc3LjAnLCAnLXRuJywgJzgnLCAnLW1hJywgJzIwMCcsICctaW1hZScsICc8aW5maWxlLm1hZT4nLCAnLW9tYWUnLCAnPG91dGZpbGUubWFlPic=

>  <r_lp_tautomer_probability>  (133) 
1

>  <r_epik_Ionization_Penalty>  (133) 
6.08435e-10

>  <r_epik_Ionization_Penalty_Charging>  (133) 
0

>  <r_epik_Ionization_Penalty_Neutral>  (133) 
6.08435e-10

>  <r_epik_State_Penalty>  (133) 
-0

>  <r_epik_Charging_Adjusted_Penalty>  (133) 
0

>  <i_epik_Tot_Q>  (133) 
0

>  <i_epik_Tot_abs_Q>  (133) 
0

>  <s_lp_Force_Field>  (133) 
OPLS3e

>  <r_lp_Energy>  (133) 
22.6051

>  <b_lp_Chiralities_Consistent>  (133) 
1

>  <s_lp_Variant>  (133) 
37:0-1

>  <s_i_glide_gridfile>  (133) 
pfpi4k_grid

>  <i_i_glide_lignum>  (133) 
19

>  <i_i_glide_rotatable_bonds>  (133) 
1

>  <r_i_docking_score>  (133) 
-3.34575

>  <r_i_glide_ligand_efficiency>  (133) 
-0.196809

>  <r_i_glide_ligand_efficiency_sa>  (133) 
-0.506051

>  <r_i_glide_ligand_efficiency_ln>  (133) 
-0.872832

>  <r_i_glide_gscore>  (133) 
-3.34575

>  <r_i_glide_lipo>  (133) 
-0.200361

>  <r_i_glide_hbond>  (133) 
-0.16

>  <r_i_glide_metal>  (133) 
-0

>  <r_i_glide_rewards>  (133) 
-1.80462

>  <r_i_glide_evdw>  (133) 
-18.3638

>  <r_i_glide_ecoul>  (133) 
-3.61682

>  <r_i_glide_erotb>  (133) 
0.310486

>  <r_i_glide_esite>  (133) 
-0.0305396

>  <r_i_glide_emodel>  (133) 
-26.9257

>  <r_i_glide_energy>  (133) 
-21.9806

>  <r_i_glide_einternal>  (133) 
0.0755525

>  <r_i_glide_intrahb_reward>  (133) 
-0

>  <i_i_glide_confnum>  (133) 
6

>  <i_i_glide_posenum>  (133) 
9

>  <r_i_glide_eff_state_penalty>  (133) 
0

>  <ligand_id>  (133) 
37

>  <original_smiles>  (133) 
O=C1CC2(CCCCC2)C(=O)N1C1CCCC1

>  <smiles>  (133) 
[H]C1([H])C(=O)N(C2([H])C([H])([H])C([H])([H])C([H])([H])C2([H])[H])C(=O)C12C([H])([H])C([H])([H])C([H])([H])C([H])([H])C2([H])[H]

$$$$
37:0:1
     RDKit          3D

 38 40  0  0  1  0  0  0  0  0999 V2000
   -0.7970    0.5906    7.6217 O   0  0  0  0  0  0  0  0  0  0  0  0
   -0.5861    1.3585    6.6764 C   0  0  0  0  0  0  0  0  0  0  0  0
    0.0684    0.8744    5.4021 C   0  0  0  0  0  0  0  0  0  0  0  0
    0.0505    2.1203    4.5004 C   0  0  0  0  0  0  0  0  0  0  0  0
   -0.8984    1.9546    3.2930 C   0  0  0  0  0  0  0  0  0  0  0  0
   -0.3558    0.9499    2.2730 C   0  0  0  0  0  0  0  0  0  0  0  0
    1.0589    1.3344    1.8209 C   0  0  0  0  0  0  0  0  0  0  0  0
    2.0236    1.4914    3.0061 C   0  0  0  0  0  0  0  0  0  0  0  0
    1.4775    2.5054    4.0340 C   0  0  0  0  0  0  0  0  0  0  0  0
   -0.5630    3.1856    5.4188 C   0  0  0  0  0  0  0  0  0  0  0  0
   -0.7448    4.3527    5.0562 O   0  0  0  0  0  0  0  0  0  0  0  0
   -0.9135    2.6670    6.6044 N   0  0  0  0  0  0  0  0  0  0  0  0
   -1.6078    3.4651    7.6302 C   0  0  0  0  0  0  0  0  0  0  0  0
   -0.7597    3.7063    8.8851 C   0  0  0  0  0  0  0  0  0  0  0  0
   -1.7837    3.9438    9.9930 C   0  0  0  0  0  0  0  0  0  0  0  0
   -2.9467    3.0153    9.6478 C   0  0  0  0  0  0  0  0  0  0  0  0
   -2.9368    2.8515    8.1207 C   0  0  0  0  0  0  0  0  0  0  0  0
    1.0791    0.5260    5.6311 H   0  0  0  0  0  0  0  0  0  0  0  0
   -0.5123    0.0423    4.9967 H   0  0  0  0  0  0  0  0  0  0  0  0
   -1.8869    1.6367    3.6295 H   0  0  0  0  0  0  0  0  0  0  0  0
   -1.0429    2.9155    2.7868 H   0  0  0  0  0  0  0  0  0  0  0  0
   -0.3390   -0.0531    2.6972 H   0  0  0  0  0  0  0  0  0  0  0  0
   -1.0310    0.9205    1.4182 H   0  0  0  0  0  0  0  0  0  0  0  0
    1.4354    0.5861    1.1223 H   0  0  0  0  0  0  0  0  0  0  0  0
    1.0167    2.2796    1.2812 H   0  0  0  0  0  0  0  0  0  0  0  0
    2.1748    0.5203    3.4782 H   0  0  0  0  0  0  0  0  0  0  0  0
    3.0048    1.8131    2.6527 H   0  0  0  0  0  0  0  0  0  0  0  0
    1.4803    3.5057    3.5878 H   0  0  0  0  0  0  0  0  0  0  0  0
    2.1560    2.5561    4.8886 H   0  0  0  0  0  0  0  0  0  0  0  0
   -1.8583    4.4496    7.2306 H   0  0  0  0  0  0  0  0  0  0  0  0
   -0.1769    2.8176    9.1271 H   0  0  0  0  0  0  0  0  0  0  0  0
   -0.0652    4.5397    8.7608 H   0  0  0  0  0  0  0  0  0  0  0  0
   -1.3729    3.7412   10.9815 H   0  0  0  0  0  0  0  0  0  0  0  0
   -2.1169    4.9817    9.9732 H   0  0  0  0  0  0  0  0  0  0  0  0
   -2.7718    2.0541   10.1242 H   0  0  0  0  0  0  0  0  0  0  0  0
   -3.9015    3.3868   10.0165 H   0  0  0  0  0  0  0  0  0  0  0  0
   -3.7838    3.3459    7.6598 H   0  0  0  0  0  0  0  0  0  0  0  0
   -3.0309    1.7977    7.8652 H   0  0  0  0  0  0  0  0  0  0  0  0
  1  2  2  0
  2 12  1  0
  2  3  1  0
  3  4  1  0
  3 18  1  0
  3 19  1  0
  4  9  1  0
  4  5  1  0
  4 10  1  0
  5  6  1  0
  5 20  1  0
  5 21  1  0
  6  7  1  0
  6 22  1  0
  6 23  1  0
  7  8  1  0
  7 24  1  0
  7 25  1  0
  8  9  1  0
  8 26  1  0
  8 27  1  0
  9 28  1  0
  9 29  1  0
 10 11  2  0
 10 12  1  0
 12 13  1  0
 13 17  1  0
 13 14  1  0
 13 30  1  0
 14 15  1  0
 14 31  1  0
 14 32  1  0
 15 16  1  0
 15 33  1  0
 15 34  1  0
 16 17  1  0
 16 35  1  0
 16 36  1  0
 17 37  1  0
 17 38  1  0
M  END
>  <i_m_ct_stereo_status>  (134) 
1

>  <s_m_source_file>  (134) 
/var/tmp/pbs.5076255.sched01/tmppm3sokcv/34yi_btuhz.sdf

>  <i_m_source_file_index>  (134) 
19

>  <i_lp_mmshare_version>  (134) 
48012

>  <i_f3d_flags>  (134) 
0

>  <s_epik_input>  (134) 
W0NIMl0xW0NIMl1bQ0gyXVtDSDJdW0NIXTFOKEMyPU8pQyg9TylbQ0gyXUMyM1tDSDJdW0NIMl1bQ0gyXVtDSDJdW0NIMl0z

>  <s_epik_cmdline>  (134) 
J2VwaWtfcHl0aG9uJywgJy1waHQnLCAnMi4wJywgJy1waCcsICc3LjAnLCAnLXRuJywgJzgnLCAnLW1hJywgJzIwMCcsICctaW1hZScsICc8aW5maWxlLm1hZT4nLCAnLW9tYWUnLCAnPG91dGZpbGUubWFlPic=

>  <r_lp_tautomer_probability>  (134) 
1

>  <r_epik_Ionization_Penalty>  (134) 
6.08435e-10

>  <r_epik_Ionization_Penalty_Charging>  (134) 
0

>  <r_epik_Ionization_Penalty_Neutral>  (134) 
6.08435e-10

>  <r_epik_State_Penalty>  (134) 
-0

>  <r_epik_Charging_Adjusted_Penalty>  (134) 
0

>  <i_epik_Tot_Q>  (134) 
0

>  <i_epik_Tot_abs_Q>  (134) 
0

>  <s_lp_Force_Field>  (134) 
OPLS3e

>  <r_lp_Energy>  (134) 
22.6051

>  <b_lp_Chiralities_Consistent>  (134) 
1

>  <s_lp_Variant>  (134) 
37:0-1

>  <s_i_glide_gridfile>  (134) 
pfpi4k_grid

>  <i_i_glide_lignum>  (134) 
19

>  <i_i_glide_rotatable_bonds>  (134) 
1

>  <r_i_docking_score>  (134) 
-3.20548

>  <r_i_glide_ligand_efficiency>  (134) 
-0.188558

>  <r_i_glide_ligand_efficiency_sa>  (134) 
-0.484834

>  <r_i_glide_ligand_efficiency_ln>  (134) 
-0.836238

>  <r_i_glide_gscore>  (134) 
-3.20548

>  <r_i_glide_lipo>  (134) 
-0.146479

>  <r_i_glide_hbond>  (134) 
-0.0664398

>  <r_i_glide_metal>  (134) 
-0

>  <r_i_glide_rewards>  (134) 
-1.80704

>  <r_i_glide_evdw>  (134) 
-19.187

>  <r_i_glide_ecoul>  (134) 
-3.40282

>  <r_i_glide_erotb>  (134) 
0.310486

>  <r_i_glide_esite>  (134) 
-0.0262265

>  <r_i_glide_emodel>  (134) 
-27.1642

>  <r_i_glide_energy>  (134) 
-22.5899

>  <r_i_glide_einternal>  (134) 
0.322909

>  <r_i_glide_intrahb_reward>  (134) 
-0

>  <i_i_glide_confnum>  (134) 
6

>  <i_i_glide_posenum>  (134) 
22

>  <r_i_glide_eff_state_penalty>  (134) 
0

>  <ligand_id>  (134) 
37

>  <original_smiles>  (134) 
O=C1CC2(CCCCC2)C(=O)N1C1CCCC1

>  <smiles>  (134) 
[H]C1([H])C(=O)N(C2([H])C([H])([H])C([H])([H])C([H])([H])C2([H])[H])C(=O)C12C([H])([H])C([H])([H])C([H])([H])C([H])([H])C2([H])[H]

$$$$
37:0:2
     RDKit          3D

 38 40  0  0  1  0  0  0  0  0999 V2000
   -1.8652    0.9467    7.4524 O   0  0  0  0  0  0  0  0  0  0  0  0
   -1.1885    1.7419    6.8582 C   0  0  0  0  0  0  0  0  0  0  0  0
   -0.3068    1.2939    5.7015 C   0  0  0  0  0  0  0  0  0  0  0  0
    0.1312    2.6360    5.1020 C   0  0  0  0  0  0  0  0  0  0  0  0
   -0.4954    2.8825    3.7012 C   0  0  0  0  0  0  0  0  0  0  0  0
    0.1008    1.9569    2.6373 C   0  0  0  0  0  0  0  0  0  0  0  0
    1.6300    2.1184    2.5959 C   0  0  0  0  0  0  0  0  0  0  0  0
    2.2814    1.8495    3.9655 C   0  0  0  0  0  0  0  0  0  0  0  0
    1.6799    2.7666    5.0499 C   0  0  0  0  0  0  0  0  0  0  0  0
   -0.4680    3.6839    6.0566 C   0  0  0  0  0  0  0  0  0  0  0  0
   -0.3525    4.8999    5.8569 O   0  0  0  0  0  0  0  0  0  0  0  0
   -1.1617    3.0841    7.0370 N   0  0  0  0  0  0  0  0  0  0  0  0
   -1.9891    3.7764    8.0585 C   0  0  0  0  0  0  0  0  0  0  0  0
   -1.4397    5.1647    8.4627 C   0  0  0  0  0  0  0  0  0  0  0  0
   -1.9548    5.4470    9.8620 C   0  0  0  0  0  0  0  0  0  0  0  0
   -1.9375    4.0862   10.5391 C   0  0  0  0  0  0  0  0  0  0  0  0
   -2.1354    3.0468    9.4297 C   0  0  0  0  0  0  0  0  0  0  0  0
    0.5128    0.7157    6.1354 H   0  0  0  0  0  0  0  0  0  0  0  0
   -0.9446    0.6962    5.0435 H   0  0  0  0  0  0  0  0  0  0  0  0
   -1.5754    2.7452    3.7443 H   0  0  0  0  0  0  0  0  0  0  0  0
   -0.3360    3.9202    3.3757 H   0  0  0  0  0  0  0  0  0  0  0  0
   -0.1680    0.9188    2.8362 H   0  0  0  0  0  0  0  0  0  0  0  0
   -0.3318    2.2050    1.6705 H   0  0  0  0  0  0  0  0  0  0  0  0
    2.0444    1.4388    1.8538 H   0  0  0  0  0  0  0  0  0  0  0  0
    1.8814    3.1331    2.2784 H   0  0  0  0  0  0  0  0  0  0  0  0
    2.1287    0.8057    4.2457 H   0  0  0  0  0  0  0  0  0  0  0  0
    3.3614    2.0015    3.9179 H   0  0  0  0  0  0  0  0  0  0  0  0
    1.9796    3.8071    4.8531 H   0  0  0  0  0  0  0  0  0  0  0  0
    2.1062    2.5190    6.0262 H   0  0  0  0  0  0  0  0  0  0  0  0
   -2.9830    3.8979    7.6137 H   0  0  0  0  0  0  0  0  0  0  0  0
   -0.3469    5.1215    8.4968 H   0  0  0  0  0  0  0  0  0  0  0  0
   -1.7369    5.9553    7.7659 H   0  0  0  0  0  0  0  0  0  0  0  0
   -1.3448    6.1931   10.3691 H   0  0  0  0  0  0  0  0  0  0  0  0
   -2.9735    5.8175    9.7949 H   0  0  0  0  0  0  0  0  0  0  0  0
   -0.9612    3.9222   10.9924 H   0  0  0  0  0  0  0  0  0  0  0  0
   -2.6839    4.0020   11.3256 H   0  0  0  0  0  0  0  0  0  0  0  0
   -3.1105    2.5611    9.5080 H   0  0  0  0  0  0  0  0  0  0  0  0
   -1.3721    2.2919    9.5883 H   0  0  0  0  0  0  0  0  0  0  0  0
  1  2  2  0
  2 12  1  0
  2  3  1  0
  3  4  1  0
  3 18  1  0
  3 19  1  0
  4  9  1  0
  4  5  1  0
  4 10  1  0
  5  6  1  0
  5 20  1  0
  5 21  1  0
  6  7  1  0
  6 22  1  0
  6 23  1  0
  7  8  1  0
  7 24  1  0
  7 25  1  0
  8  9  1  0
  8 26  1  0
  8 27  1  0
  9 28  1  0
  9 29  1  0
 10 11  2  0
 10 12  1  0
 12 13  1  0
 13 17  1  0
 13 14  1  0
 13 30  1  0
 14 15  1  0
 14 31  1  0
 14 32  1  0
 15 16  1  0
 15 33  1  0
 15 34  1  0
 16 17  1  0
 16 35  1  0
 16 36  1  0
 17 37  1  0
 17 38  1  0
M  END
>  <i_m_ct_stereo_status>  (135) 
1

>  <s_m_source_file>  (135) 
/var/tmp/pbs.5076255.sched01/tmppm3sokcv/34yi_btuhz.sdf

>  <i_m_source_file_index>  (135) 
19

>  <i_lp_mmshare_version>  (135) 
48012

>  <i_f3d_flags>  (135) 
0

>  <s_epik_input>  (135) 
W0NIMl0xW0NIMl1bQ0gyXVtDSDJdW0NIXTFOKEMyPU8pQyg9TylbQ0gyXUMyM1tDSDJdW0NIMl1bQ0gyXVtDSDJdW0NIMl0z

>  <s_epik_cmdline>  (135) 
J2VwaWtfcHl0aG9uJywgJy1waHQnLCAnMi4wJywgJy1waCcsICc3LjAnLCAnLXRuJywgJzgnLCAnLW1hJywgJzIwMCcsICctaW1hZScsICc8aW5maWxlLm1hZT4nLCAnLW9tYWUnLCAnPG91dGZpbGUubWFlPic=

>  <r_lp_tautomer_probability>  (135) 
1

>  <r_epik_Ionization_Penalty>  (135) 
6.08435e-10

>  <r_epik_Ionization_Penalty_Charging>  (135) 
0

>  <r_epik_Ionization_Penalty_Neutral>  (135) 
6.08435e-10

>  <r_epik_State_Penalty>  (135) 
-0

>  <r_epik_Charging_Adjusted_Penalty>  (135) 
0

>  <i_epik_Tot_Q>  (135) 
0

>  <i_epik_Tot_abs_Q>  (135) 
0

>  <s_lp_Force_Field>  (135) 
OPLS3e

>  <r_lp_Energy>  (135) 
22.6051

>  <b_lp_Chiralities_Consistent>  (135) 
1

>  <s_lp_Variant>  (135) 
37:0-1

>  <s_i_glide_gridfile>  (135) 
pfpi4k_grid

>  <i_i_glide_lignum>  (135) 
19

>  <i_i_glide_rotatable_bonds>  (135) 
1

>  <r_i_docking_score>  (135) 
-3.17801

>  <r_i_glide_ligand_efficiency>  (135) 
-0.186942

>  <r_i_glide_ligand_efficiency_sa>  (135) 
-0.480681

>  <r_i_glide_ligand_efficiency_ln>  (135) 
-0.829073

>  <r_i_glide_gscore>  (135) 
-3.17801

>  <r_i_glide_lipo>  (135) 
-0.0147797

>  <r_i_glide_hbond>  (135) 
-0.16

>  <r_i_glide_metal>  (135) 
-0

>  <r_i_glide_rewards>  (135) 
-1.82461

>  <r_i_glide_evdw>  (135) 
-16.3466

>  <r_i_glide_ecoul>  (135) 
-4.31915

>  <r_i_glide_erotb>  (135) 
0.310486

>  <r_i_glide_esite>  (135) 
-0.0239055

>  <r_i_glide_emodel>  (135) 
-22.4798

>  <r_i_glide_energy>  (135) 
-20.6658

>  <r_i_glide_einternal>  (135) 
5.62529

>  <r_i_glide_intrahb_reward>  (135) 
-0

>  <i_i_glide_confnum>  (135) 
6

>  <i_i_glide_posenum>  (135) 
17

>  <r_i_glide_eff_state_penalty>  (135) 
0

>  <ligand_id>  (135) 
37

>  <original_smiles>  (135) 
O=C1CC2(CCCCC2)C(=O)N1C1CCCC1

>  <smiles>  (135) 
[H]C1([H])C(=O)N(C2([H])C([H])([H])C([H])([H])C([H])([H])C2([H])[H])C(=O)C12C([H])([H])C([H])([H])C([H])([H])C([H])([H])C2([H])[H]

$$$$
38:0:0
     RDKit          3D

 37 41  0  0  1  0  0  0  0  0999 V2000
    6.1042   -3.8783    0.6335 C   0  0  0  0  0  0  0  0  0  0  0  0
    4.7423   -4.1574   -0.0118 C   0  0  0  0  0  0  0  0  0  0  0  0
    4.4080   -5.6130    0.3612 C   0  0  0  0  0  0  0  0  0  0  0  0
    3.5562   -3.1736    0.1694 C   0  0  1  0  0  0  0  0  0  0  0  0
    3.8020   -1.7627    0.6900 C   0  0  0  0  0  0  0  0  0  0  0  0
    4.9086   -1.0228   -0.0780 C   0  0  0  0  0  0  0  0  0  0  0  0
    4.8837   -1.2431   -1.5885 C   0  0  1  0  0  0  0  0  0  0  0  0
    5.1646   -2.6264   -2.2875 C   0  0  2  0  0  0  0  0  0  0  0  0
    4.0555   -2.5748   -3.4048 C   0  0  2  0  0  0  0  0  0  0  0  0
    4.0217   -1.2976   -4.2907 C   0  0  0  0  0  0  0  0  0  0  0  0
    3.4590   -0.2395   -3.3308 C   0  0  0  0  0  0  0  0  0  0  0  0
    3.5492   -1.0504   -2.1355 N   0  0  2  0  0  0  0  0  0  0  0  0
    2.9440   -2.3490   -2.3834 C   0  0  2  0  0  0  0  0  0  0  0  0
    3.1865   -3.4174   -1.3106 C   0  0  1  0  0  0  0  0  0  0  0  0
    4.6288   -3.8260   -1.5050 C   0  0  2  0  0  0  0  0  0  0  0  0
    5.9977   -3.4213    1.6202 H   0  0  0  0  0  0  0  0  0  0  0  0
    6.7063   -3.2204    0.0140 H   0  0  0  0  0  0  0  0  0  0  0  0
    6.7063   -4.7837    0.7515 H   0  0  0  0  0  0  0  0  0  0  0  0
    3.4477   -5.9277   -0.0343 H   0  0  0  0  0  0  0  0  0  0  0  0
    4.3701   -5.7481    1.4407 H   0  0  0  0  0  0  0  0  0  0  0  0
    5.1498   -6.3127   -0.0279 H   0  0  0  0  0  0  0  0  0  0  0  0
    2.8010   -3.6717    0.7744 H   0  0  0  0  0  0  0  0  0  0  0  0
    2.8724   -1.1923    0.6060 H   0  0  0  0  0  0  0  0  0  0  0  0
    4.0315   -1.7866    1.7567 H   0  0  0  0  0  0  0  0  0  0  0  0
    4.7811    0.0393    0.1400 H   0  0  0  0  0  0  0  0  0  0  0  0
    5.8889   -1.2629    0.3339 H   0  0  0  0  0  0  0  0  0  0  0  0
    5.5668   -0.5199   -2.0172 H   0  0  0  0  0  0  0  0  0  0  0  0
    6.1854   -2.7686   -2.6542 H   0  0  0  0  0  0  0  0  0  0  0  0
    3.9564   -3.5091   -3.9746 H   0  0  0  0  0  0  0  0  0  0  0  0
    5.0107   -1.0572   -4.6816 H   0  0  0  0  0  0  0  0  0  0  0  0
    3.3624   -1.4208   -5.1442 H   0  0  0  0  0  0  0  0  0  0  0  0
    4.0492    0.6695   -3.3231 H   0  0  0  0  0  0  0  0  0  0  0  0
    2.4435    0.0073   -3.5794 H   0  0  0  0  0  0  0  0  0  0  0  0
    1.9359   -2.3131   -2.7879 H   0  0  0  0  0  0  0  0  0  0  0  0
    2.5216   -4.2607   -1.3927 H   0  0  0  0  0  0  0  0  0  0  0  0
    4.6889   -4.7488   -2.0733 H   0  0  0  0  0  0  0  0  0  0  0  0
    4.1423   -1.4480   -2.8509 H   0  0  0  0  0  0  0  0  0  0  0  0
  1  2  1  0
  1 16  1  0
  1 17  1  0
  1 18  1  0
  2 15  1  0
  2  3  1  0
  2  4  1  0
  3 19  1  0
  3 20  1  0
  3 21  1  0
  4 14  1  0
  4  5  1  0
  4 22  1  1
  5  6  1  0
  5 23  1  0
  5 24  1  0
  6  7  1  0
  6 25  1  0
  6 26  1  0
  7 12  1  0
  7  8  1  0
  7 27  1  6
  8 15  1  0
  8  9  1  0
  8 28  1  6
  9 13  1  0
  9 10  1  0
  9 29  1  6
 10 11  1  0
 10 30  1  0
 10 31  1  0
 11 12  1  0
 11 32  1  0
 11 33  1  0
 12 13  1  0
 12 37  1  1
 13 14  1  0
 13 34  1  6
 14 15  1  0
 14 35  1  1
 15 36  1  6
M  CHG  1  12   1
M  END
>  <i_m_ct_stereo_status>  (136) 
1

>  <s_m_source_file>  (136) 
/var/tmp/pbs.5076255.sched01/tmppm3sokcv/34yi_btuhz.sdf

>  <i_m_source_file_index>  (136) 
20

>  <i_lp_mmshare_version>  (136) 
48012

>  <i_f3d_flags>  (136) 
0

>  <s_epik_input>  (136) 
W0NIMl0xW0NIMl1OMltDQEBIXShbQ0gyXVtDSDJdMylbQ0BASF0oW0NASF00QzUoW0NIM10pW0NIM10pW0NIXTFbQ0BASF0yW0NAQEhdNFtDQEhdMzU=

>  <s_epik_cmdline>  (136) 
J2VwaWtfcHl0aG9uJywgJy1waHQnLCAnMi4wJywgJy1waCcsICc3LjAnLCAnLXRuJywgJzgnLCAnLW1hJywgJzIwMCcsICctaW1hZScsICc8aW5maWxlLm1hZT4nLCAnLW9tYWUnLCAnPG91dGZpbGUubWFlPic=

>  <r_lp_tautomer_probability>  (136) 
1

>  <r_epik_Ionization_Penalty>  (136) 
8.31127e-05

>  <r_epik_Ionization_Penalty_Charging>  (136) 
8.31127e-05

>  <r_epik_Ionization_Penalty_Neutral>  (136) 
0

>  <r_epik_State_Penalty>  (136) 
-0

>  <r_epik_Charging_Adjusted_Penalty>  (136) 
8.31127e-05

>  <i_epik_Tot_Q>  (136) 
1

>  <i_epik_Tot_abs_Q>  (136) 
1

>  <s_lp_Force_Field>  (136) 
OPLS3e

>  <r_lp_Energy>  (136) 
140.633

>  <b_lp_Chiralities_Consistent>  (136) 
1

>  <s_lp_Variant>  (136) 
38:0-1

>  <s_i_glide_gridfile>  (136) 
pfpi4k_grid

>  <i_i_glide_lignum>  (136) 
20

>  <i_i_glide_rotatable_bonds>  (136) 
0

>  <r_i_docking_score>  (136) 
-3.84702

>  <r_i_glide_ligand_efficiency>  (136) 
-0.256468

>  <r_i_glide_ligand_efficiency_sa>  (136) 
-0.632504

>  <r_i_glide_ligand_efficiency_ln>  (136) 
-1.03748

>  <r_i_glide_gscore>  (136) 
-3.84702

>  <r_i_glide_lipo>  (136) 
-0.710168

>  <r_i_glide_hbond>  (136) 
0

>  <r_i_glide_metal>  (136) 
-0

>  <r_i_glide_rewards>  (136) 
-2.01592

>  <r_i_glide_evdw>  (136) 
-17.5411

>  <r_i_glide_ecoul>  (136) 
-1.25684

>  <r_i_glide_erotb>  (136) 
0

>  <r_i_glide_esite>  (136) 
-0.055348

>  <r_i_glide_emodel>  (136) 
-23.4288

>  <r_i_glide_energy>  (136) 
-18.7979

>  <r_i_glide_einternal>  (136) 
0

>  <r_i_glide_intrahb_reward>  (136) 
-0

>  <i_i_glide_confnum>  (136) 
2

>  <i_i_glide_posenum>  (136) 
6

>  <r_i_glide_eff_state_penalty>  (136) 
0

>  <ligand_id>  (136) 
38

>  <original_smiles>  (136) 
CC1(C)C2CCC3C4C5CCN3C5C2C41

>  <smiles>  (136) 
[H]C([H])([H])C1(C([H])([H])[H])C2([H])C([H])([H])C([H])([H])C3([H])C4([H])C1([H])C2([H])C1([H])C4([H])C([H])([H])C([H])([H])[N+]31[H]

$$$$
39:0:0
     RDKit          3D

 30 31  0  0  1  0  0  0  0  0999 V2000
   -7.8676   -8.0399   -8.2368 O   0  0  0  0  0  0  0  0  0  0  0  0
   -8.3033   -6.9851   -7.7820 C   0  0  0  0  0  0  0  0  0  0  0  0
   -9.5199   -6.3360   -8.4523 C   0  0  0  0  0  0  0  0  0  0  0  0
  -10.4140   -7.3536   -9.0462 N   0  0  0  0  0  0  0  0  0  0  0  0
  -11.2963   -8.0401   -8.0807 C   0  0  0  0  0  0  0  0  0  0  0  0
  -12.4044   -8.6654   -8.9249 C   0  0  0  0  0  0  0  0  0  0  0  0
  -12.4341   -7.8362  -10.2162 C   0  0  0  0  0  0  0  0  0  0  0  0
  -11.3396   -6.7834  -10.0388 C   0  0  0  0  0  0  0  0  0  0  0  0
   -7.7079   -6.2682   -6.6154 C   0  0  0  0  0  0  0  0  0  0  0  0
   -6.6000   -6.8165   -5.9280 C   0  0  0  0  0  0  0  0  0  0  0  0
   -6.0403   -6.1500   -4.8146 C   0  0  0  0  0  0  0  0  0  0  0  0
   -6.5909   -4.9323   -4.3762 C   0  0  0  0  0  0  0  0  0  0  0  0
   -7.6903   -4.3818   -5.0487 C   0  0  0  0  0  0  0  0  0  0  0  0
   -8.2341   -5.0373   -6.1598 C   0  0  0  0  0  0  0  0  0  0  0  0
  -10.1144   -5.7554   -7.7566 H   0  0  0  0  0  0  0  0  0  0  0  0
   -9.1398   -5.6472   -9.2092 H   0  0  0  0  0  0  0  0  0  0  0  0
  -10.7694   -8.7702   -7.4666 H   0  0  0  0  0  0  0  0  0  0  0  0
  -11.7467   -7.2998   -7.4102 H   0  0  0  0  0  0  0  0  0  0  0  0
  -12.1628   -9.7036   -9.1525 H   0  0  0  0  0  0  0  0  0  0  0  0
  -13.3579   -8.6535   -8.3980 H   0  0  0  0  0  0  0  0  0  0  0  0
  -12.2086   -8.4693  -11.0756 H   0  0  0  0  0  0  0  0  0  0  0  0
  -13.4022   -7.3672  -10.3903 H   0  0  0  0  0  0  0  0  0  0  0  0
  -11.7864   -5.8788   -9.6112 H   0  0  0  0  0  0  0  0  0  0  0  0
  -10.8428   -6.5065  -10.9705 H   0  0  0  0  0  0  0  0  0  0  0  0
   -6.1619   -7.7501   -6.2433 H   0  0  0  0  0  0  0  0  0  0  0  0
   -5.1931   -6.5739   -4.2947 H   0  0  0  0  0  0  0  0  0  0  0  0
   -6.1844   -4.4064   -3.5207 H   0  0  0  0  0  0  0  0  0  0  0  0
   -8.1297   -3.4550   -4.7165 H   0  0  0  0  0  0  0  0  0  0  0  0
   -9.0664   -4.5424   -6.6224 H   0  0  0  0  0  0  0  0  0  0  0  0
   -9.8556   -8.0614   -9.5024 H   0  0  0  0  0  0  0  0  0  0  0  0
  1  2  2  0
  2  3  1  0
  2  9  1  0
  3  4  1  0
  3 15  1  0
  3 16  1  0
  4  8  1  0
  4  5  1  0
  4 30  1  0
  5  6  1  0
  5 17  1  0
  5 18  1  0
  6  7  1  0
  6 19  1  0
  6 20  1  0
  7  8  1  0
  7 21  1  0
  7 22  1  0
  8 23  1  0
  8 24  1  0
  9 14  1  0
  9 10  2  0
 10 11  1  0
 10 25  1  0
 11 12  2  0
 11 26  1  0
 12 13  1  0
 12 27  1  0
 13 14  2  0
 13 28  1  0
 14 29  1  0
M  CHG  1   4   1
M  END
>  <i_m_ct_stereo_status>  (137) 
1

>  <s_m_source_file>  (137) 
/var/tmp/pbs.5076255.sched01/tmppm3sokcv/34yi_btuhz.sdf

>  <i_m_source_file_index>  (137) 
21

>  <i_lp_mmshare_version>  (137) 
48012

>  <i_f3d_flags>  (137) 
0

>  <s_epik_input>  (137) 
W2NIXTFbY0hdW2NIXVtjSF1bY0hdYzFDKD1PKVtDSDJdTjJbQ0gyXVtDSDJdW0NIMl1bQ0gyXTI=

>  <s_epik_cmdline>  (137) 
J2VwaWtfcHl0aG9uJywgJy1waHQnLCAnMi4wJywgJy1waCcsICc3LjAnLCAnLXRuJywgJzgnLCAnLW1hJywgJzIwMCcsICctaW1hZScsICc8aW5maWxlLm1hZT4nLCAnLW9tYWUnLCAnPG91dGZpbGUubWFlPic=

>  <r_epik_Ionization_Penalty>  (137) 
0.131858

>  <r_epik_Ionization_Penalty_Charging>  (137) 
0.131858

>  <r_epik_Ionization_Penalty_Neutral>  (137) 
0

>  <r_epik_State_Penalty>  (137) 
0.121244

>  <r_epik_Charging_Adjusted_Penalty>  (137) 
0.253102

>  <i_epik_Tot_Q>  (137) 
1

>  <i_epik_Tot_abs_Q>  (137) 
1

>  <s_lp_Force_Field>  (137) 
OPLS3e

>  <r_lp_Energy>  (137) 
28.9535

>  <b_lp_Chiralities_Consistent>  (137) 
1

>  <s_lp_Variant>  (137) 
39:0-1

>  <s_i_glide_gridfile>  (137) 
pfpi4k_grid

>  <i_i_glide_lignum>  (137) 
21

>  <i_i_glide_rotatable_bonds>  (137) 
3

>  <r_i_docking_score>  (137) 
-4.52538

>  <r_i_glide_ligand_efficiency>  (137) 
-0.323241

>  <r_i_glide_ligand_efficiency_sa>  (137) 
-0.779057

>  <r_i_glide_ligand_efficiency_ln>  (137) 
-1.24356

>  <r_i_glide_gscore>  (137) 
-4.52538

>  <r_i_glide_lipo>  (137) 
-1.86325

>  <r_i_glide_hbond>  (137) 
0

>  <r_i_glide_metal>  (137) 
-0

>  <r_i_glide_rewards>  (137) 
-2.69938

>  <r_i_glide_evdw>  (137) 
-21.9523

>  <r_i_glide_ecoul>  (137) 
-1.25038

>  <r_i_glide_erotb>  (137) 
1.3309

>  <r_i_glide_esite>  (137) 
-0.00847048

>  <r_i_glide_emodel>  (137) 
-29.6311

>  <r_i_glide_energy>  (137) 
-23.2027

>  <r_i_glide_einternal>  (137) 
0.727263

>  <r_i_glide_intrahb_reward>  (137) 
-0

>  <i_i_glide_confnum>  (137) 
1

>  <i_i_glide_posenum>  (137) 
9

>  <r_i_glide_eff_state_penalty>  (137) 
0

>  <ligand_id>  (137) 
39

>  <original_smiles>  (137) 
O=C(CN1CCCC1)c1ccccc1

>  <smiles>  (137) 
[H]c1c([H])c([H])c(C(=O)C([H])([H])[N+]2([H])C([H])([H])C([H])([H])C([H])([H])C2([H])[H])c([H])c1[H]

$$$$
39:0:1
     RDKit          3D

 30 31  0  0  1  0  0  0  0  0999 V2000
    6.1176   -2.4748   -0.1567 O   0  0  0  0  0  0  0  0  0  0  0  0
    5.2742   -3.0254   -0.8612 C   0  0  0  0  0  0  0  0  0  0  0  0
    4.8975   -4.4992   -0.6358 C   0  0  0  0  0  0  0  0  0  0  0  0
    5.2535   -4.9847    0.7203 N   0  0  0  0  0  0  0  0  0  0  0  0
    4.6006   -6.2640    1.0550 C   0  0  0  0  0  0  0  0  0  0  0  0
    5.3596   -6.7886    2.2775 C   0  0  0  0  0  0  0  0  0  0  0  0
    6.7320   -6.1039    2.2156 C   0  0  0  0  0  0  0  0  0  0  0  0
    6.6903   -5.2353    0.9589 C   0  0  0  0  0  0  0  0  0  0  0  0
    4.5634   -2.3336   -1.9623 C   0  0  0  0  0  0  0  0  0  0  0  0
    3.8284   -3.0665   -2.9138 C   0  0  0  0  0  0  0  0  0  0  0  0
    3.1213   -2.4157   -3.9276 C   0  0  0  0  0  0  0  0  0  0  0  0
    3.1869   -1.0196   -4.0454 C   0  0  0  0  0  0  0  0  0  0  0  0
    3.9350   -0.2741   -3.1203 C   0  0  0  0  0  0  0  0  0  0  0  0
    4.6168   -0.9288   -2.0772 C   0  0  0  0  0  0  0  0  0  0  0  0
    3.8204   -4.5988   -0.7634 H   0  0  0  0  0  0  0  0  0  0  0  0
    5.3512   -5.1174   -1.4092 H   0  0  0  0  0  0  0  0  0  0  0  0
    3.5243   -6.1713    1.2218 H   0  0  0  0  0  0  0  0  0  0  0  0
    4.7430   -6.9600    0.2223 H   0  0  0  0  0  0  0  0  0  0  0  0
    4.8375   -6.5012    3.1925 H   0  0  0  0  0  0  0  0  0  0  0  0
    5.4326   -7.8765    2.2694 H   0  0  0  0  0  0  0  0  0  0  0  0
    6.8711   -5.4763    3.0969 H   0  0  0  0  0  0  0  0  0  0  0  0
    7.5588   -6.8120    2.1803 H   0  0  0  0  0  0  0  0  0  0  0  0
    7.0916   -5.7991    0.1131 H   0  0  0  0  0  0  0  0  0  0  0  0
    7.2899   -4.3322    1.0724 H   0  0  0  0  0  0  0  0  0  0  0  0
    3.7830   -4.1412   -2.8918 H   0  0  0  0  0  0  0  0  0  0  0  0
    2.5479   -3.0032   -4.6308 H   0  0  0  0  0  0  0  0  0  0  0  0
    2.6463   -0.5215   -4.8417 H   0  0  0  0  0  0  0  0  0  0  0  0
    3.9742    0.8056   -3.2053 H   0  0  0  0  0  0  0  0  0  0  0  0
    5.1731   -0.3424   -1.3620 H   0  0  0  0  0  0  0  0  0  0  0  0
    4.9468   -4.3066    1.4012 H   0  0  0  0  0  0  0  0  0  0  0  0
  1  2  2  0
  2  3  1  0
  2  9  1  0
  3  4  1  0
  3 15  1  0
  3 16  1  0
  4  8  1  0
  4  5  1  0
  4 30  1  0
  5  6  1  0
  5 17  1  0
  5 18  1  0
  6  7  1  0
  6 19  1  0
  6 20  1  0
  7  8  1  0
  7 21  1  0
  7 22  1  0
  8 23  1  0
  8 24  1  0
  9 14  1  0
  9 10  2  0
 10 11  1  0
 10 25  1  0
 11 12  2  0
 11 26  1  0
 12 13  1  0
 12 27  1  0
 13 14  2  0
 13 28  1  0
 14 29  1  0
M  CHG  1   4   1
M  END
>  <i_m_ct_stereo_status>  (138) 
1

>  <s_m_source_file>  (138) 
/var/tmp/pbs.5076255.sched01/tmppm3sokcv/34yi_btuhz.sdf

>  <i_m_source_file_index>  (138) 
21

>  <i_lp_mmshare_version>  (138) 
48012

>  <i_f3d_flags>  (138) 
0

>  <s_epik_input>  (138) 
W2NIXTFbY0hdW2NIXVtjSF1bY0hdYzFDKD1PKVtDSDJdTjJbQ0gyXVtDSDJdW0NIMl1bQ0gyXTI=

>  <s_epik_cmdline>  (138) 
J2VwaWtfcHl0aG9uJywgJy1waHQnLCAnMi4wJywgJy1waCcsICc3LjAnLCAnLXRuJywgJzgnLCAnLW1hJywgJzIwMCcsICctaW1hZScsICc8aW5maWxlLm1hZT4nLCAnLW9tYWUnLCAnPG91dGZpbGUubWFlPic=

>  <r_epik_Ionization_Penalty>  (138) 
0.131858

>  <r_epik_Ionization_Penalty_Charging>  (138) 
0.131858

>  <r_epik_Ionization_Penalty_Neutral>  (138) 
0

>  <r_epik_State_Penalty>  (138) 
0.121244

>  <r_epik_Charging_Adjusted_Penalty>  (138) 
0.253102

>  <i_epik_Tot_Q>  (138) 
1

>  <i_epik_Tot_abs_Q>  (138) 
1

>  <s_lp_Force_Field>  (138) 
OPLS3e

>  <r_lp_Energy>  (138) 
28.9535

>  <b_lp_Chiralities_Consistent>  (138) 
1

>  <s_lp_Variant>  (138) 
39:0-1

>  <s_i_glide_gridfile>  (138) 
pfpi4k_grid

>  <i_i_glide_lignum>  (138) 
21

>  <i_i_glide_rotatable_bonds>  (138) 
3

>  <r_i_docking_score>  (138) 
-3.17791

>  <r_i_glide_ligand_efficiency>  (138) 
-0.226993

>  <r_i_glide_ligand_efficiency_sa>  (138) 
-0.547086

>  <r_i_glide_ligand_efficiency_ln>  (138) 
-0.873278

>  <r_i_glide_gscore>  (138) 
-3.17791

>  <r_i_glide_lipo>  (138) 
-0.682679

>  <r_i_glide_hbond>  (138) 
0

>  <r_i_glide_metal>  (138) 
-0

>  <r_i_glide_rewards>  (138) 
-2.15029

>  <r_i_glide_evdw>  (138) 
-20.2115

>  <r_i_glide_ecoul>  (138) 
-4.43511

>  <r_i_glide_erotb>  (138) 
1.3309

>  <r_i_glide_esite>  (138) 
0

>  <r_i_glide_emodel>  (138) 
-28.9705

>  <r_i_glide_energy>  (138) 
-24.6466

>  <r_i_glide_einternal>  (138) 
0.849586

>  <r_i_glide_intrahb_reward>  (138) 
-0

>  <i_i_glide_confnum>  (138) 
2

>  <i_i_glide_posenum>  (138) 
26

>  <r_i_glide_eff_state_penalty>  (138) 
0

>  <ligand_id>  (138) 
39

>  <original_smiles>  (138) 
O=C(CN1CCCC1)c1ccccc1

>  <smiles>  (138) 
[H]c1c([H])c([H])c(C(=O)C([H])([H])[N+]2([H])C([H])([H])C([H])([H])C([H])([H])C2([H])[H])c([H])c1[H]

$$$$
39:0:2
     RDKit          3D

 30 31  0  0  1  0  0  0  0  0999 V2000
    5.5899   -2.5284   -1.8172 O   0  0  0  0  0  0  0  0  0  0  0  0
    4.3937   -2.4436   -2.1222 C   0  0  0  0  0  0  0  0  0  0  0  0
    3.3328   -3.4016   -1.5813 C   0  0  0  0  0  0  0  0  0  0  0  0
    3.7352   -4.0194   -0.2910 N   0  0  0  0  0  0  0  0  0  0  0  0
    2.6424   -4.7904    0.3300 C   0  0  0  0  0  0  0  0  0  0  0  0
    3.3116   -5.6487    1.4006 C   0  0  0  0  0  0  0  0  0  0  0  0
    4.7769   -5.7635    0.9607 C   0  0  0  0  0  0  0  0  0  0  0  0
    4.8660   -4.9771   -0.3386 C   0  0  0  0  0  0  0  0  0  0  0  0
    3.9168   -1.3946   -3.0215 C   0  0  0  0  0  0  0  0  0  0  0  0
    4.5782   -0.1699   -3.0079 C   0  0  0  0  0  0  0  0  0  0  0  0
    4.2128    0.8516   -3.9154 C   0  0  0  0  0  0  0  0  0  0  0  0
    3.1372    0.6840   -4.7818 C   0  0  0  0  0  0  0  0  0  0  0  0
    2.4423   -0.5098   -4.7207 C   0  0  0  0  0  0  0  0  0  0  0  0
    2.8312   -1.5820   -3.8958 C   0  0  0  0  0  0  0  0  0  0  0  0
    2.4051   -2.8406   -1.4515 H   0  0  0  0  0  0  0  0  0  0  0  0
    3.1331   -4.1618   -2.3263 H   0  0  0  0  0  0  0  0  0  0  0  0
    1.8389   -4.1585    0.7081 H   0  0  0  0  0  0  0  0  0  0  0  0
    2.2109   -5.4452   -0.4279 H   0  0  0  0  0  0  0  0  0  0  0  0
    3.2503   -5.1421    2.3624 H   0  0  0  0  0  0  0  0  0  0  0  0
    2.8304   -6.6217    1.4968 H   0  0  0  0  0  0  0  0  0  0  0  0
    5.4267   -5.2988    1.7026 H   0  0  0  0  0  0  0  0  0  0  0  0
    5.1026   -6.7942    0.8174 H   0  0  0  0  0  0  0  0  0  0  0  0
    4.6974   -5.6516   -1.1749 H   0  0  0  0  0  0  0  0  0  0  0  0
    5.8559   -4.5356   -0.4578 H   0  0  0  0  0  0  0  0  0  0  0  0
    5.3878   -0.0050   -2.3157 H   0  0  0  0  0  0  0  0  0  0  0  0
    4.6835    1.8105   -3.8975 H   0  0  0  0  0  0  0  0  0  0  0  0
    2.7755    1.5071   -5.3913 H   0  0  0  0  0  0  0  0  0  0  0  0
    1.5441   -0.5971   -5.2888 H   0  0  0  0  0  0  0  0  0  0  0  0
    2.2706   -2.5088   -3.9110 H   0  0  0  0  0  0  0  0  0  0  0  0
    3.9914   -3.2853    0.3583 H   0  0  0  0  0  0  0  0  0  0  0  0
  1  2  2  0
  2  3  1  0
  2  9  1  0
  3  4  1  0
  3 15  1  0
  3 16  1  0
  4  8  1  0
  4  5  1  0
  4 30  1  0
  5  6  1  0
  5 17  1  0
  5 18  1  0
  6  7  1  0
  6 19  1  0
  6 20  1  0
  7  8  1  0
  7 21  1  0
  7 22  1  0
  8 23  1  0
  8 24  1  0
  9 14  1  0
  9 10  2  0
 10 11  1  0
 10 25  1  0
 11 12  2  0
 11 26  1  0
 12 13  1  0
 12 27  1  0
 13 14  2  0
 13 28  1  0
 14 29  1  0
M  CHG  1   4   1
M  END
>  <i_m_ct_stereo_status>  (139) 
1

>  <s_m_source_file>  (139) 
/var/tmp/pbs.5076255.sched01/tmppm3sokcv/34yi_btuhz.sdf

>  <i_m_source_file_index>  (139) 
21

>  <i_lp_mmshare_version>  (139) 
48012

>  <i_f3d_flags>  (139) 
0

>  <s_epik_input>  (139) 
W2NIXTFbY0hdW2NIXVtjSF1bY0hdYzFDKD1PKVtDSDJdTjJbQ0gyXVtDSDJdW0NIMl1bQ0gyXTI=

>  <s_epik_cmdline>  (139) 
J2VwaWtfcHl0aG9uJywgJy1waHQnLCAnMi4wJywgJy1waCcsICc3LjAnLCAnLXRuJywgJzgnLCAnLW1hJywgJzIwMCcsICctaW1hZScsICc8aW5maWxlLm1hZT4nLCAnLW9tYWUnLCAnPG91dGZpbGUubWFlPic=

>  <r_epik_Ionization_Penalty>  (139) 
0.131858

>  <r_epik_Ionization_Penalty_Charging>  (139) 
0.131858

>  <r_epik_Ionization_Penalty_Neutral>  (139) 
0

>  <r_epik_State_Penalty>  (139) 
0.121244

>  <r_epik_Charging_Adjusted_Penalty>  (139) 
0.253102

>  <i_epik_Tot_Q>  (139) 
1

>  <i_epik_Tot_abs_Q>  (139) 
1

>  <s_lp_Force_Field>  (139) 
OPLS3e

>  <r_lp_Energy>  (139) 
28.9535

>  <b_lp_Chiralities_Consistent>  (139) 
1

>  <s_lp_Variant>  (139) 
39:0-1

>  <s_i_glide_gridfile>  (139) 
pfpi4k_grid

>  <i_i_glide_lignum>  (139) 
21

>  <i_i_glide_rotatable_bonds>  (139) 
3

>  <r_i_docking_score>  (139) 
-1.80298

>  <r_i_glide_ligand_efficiency>  (139) 
-0.128784

>  <r_i_glide_ligand_efficiency_sa>  (139) 
-0.310388

>  <r_i_glide_ligand_efficiency_ln>  (139) 
-0.495452

>  <r_i_glide_gscore>  (139) 
-1.80298

>  <r_i_glide_lipo>  (139) 
-0.41427

>  <r_i_glide_hbond>  (139) 
0

>  <r_i_glide_metal>  (139) 
-0

>  <r_i_glide_rewards>  (139) 
-2.14382

>  <r_i_glide_evdw>  (139) 
2.79692

>  <r_i_glide_ecoul>  (139) 
-4.68424

>  <r_i_glide_erotb>  (139) 
1.3309

>  <r_i_glide_esite>  (139) 
-0.0129987

>  <r_i_glide_emodel>  (139) 
-3.07281

>  <r_i_glide_energy>  (139) 
-1.88733

>  <r_i_glide_einternal>  (139) 
2.04793

>  <r_i_glide_intrahb_reward>  (139) 
-0

>  <i_i_glide_confnum>  (139) 
1

>  <i_i_glide_posenum>  (139) 
25

>  <r_i_glide_eff_state_penalty>  (139) 
0

>  <ligand_id>  (139) 
39

>  <original_smiles>  (139) 
O=C(CN1CCCC1)c1ccccc1

>  <smiles>  (139) 
[H]c1c([H])c([H])c(C(=O)C([H])([H])[N+]2([H])C([H])([H])C([H])([H])C([H])([H])C2([H])[H])c([H])c1[H]

$$$$
39:1:0
     RDKit          3D

 29 30  0  0  1  0  0  0  0  0999 V2000
   -7.1531   -8.2468   -8.2446 O   0  0  0  0  0  0  0  0  0  0  0  0
   -6.6777   -7.9520   -7.1480 C   0  0  0  0  0  0  0  0  0  0  0  0
   -5.6151   -8.8470   -6.4973 C   0  0  0  0  0  0  0  0  0  0  0  0
   -5.6517  -10.2717   -6.8215 N   0  0  0  0  0  0  0  0  0  0  0  0
   -4.6955  -11.0440   -6.0321 C   0  0  0  0  0  0  0  0  0  0  0  0
   -5.1549  -12.4873   -6.2594 C   0  0  0  0  0  0  0  0  0  0  0  0
   -6.6397  -12.3827   -6.5893 C   0  0  0  0  0  0  0  0  0  0  0  0
   -6.9408  -10.8927   -6.5344 C   0  0  0  0  0  0  0  0  0  0  0  0
   -7.0856   -6.7051   -6.4379 C   0  0  0  0  0  0  0  0  0  0  0  0
   -6.5531   -6.3216   -5.1781 C   0  0  0  0  0  0  0  0  0  0  0  0
   -6.9608   -5.1191   -4.5657 C   0  0  0  0  0  0  0  0  0  0  0  0
   -7.9074   -4.2944   -5.1966 C   0  0  0  0  0  0  0  0  0  0  0  0
   -8.4514   -4.6573   -6.4426 C   0  0  0  0  0  0  0  0  0  0  0  0
   -8.0442   -5.8687   -7.0504 C   0  0  0  0  0  0  0  0  0  0  0  0
   -4.6340   -8.4484   -6.7473 H   0  0  0  0  0  0  0  0  0  0  0  0
   -5.7113   -8.8130   -5.4225 H   0  0  0  0  0  0  0  0  0  0  0  0
   -3.6610  -10.8769   -6.3331 H   0  0  0  0  0  0  0  0  0  0  0  0
   -4.7566  -10.8040   -4.9682 H   0  0  0  0  0  0  0  0  0  0  0  0
   -4.6165  -12.9256   -7.1006 H   0  0  0  0  0  0  0  0  0  0  0  0
   -4.9844  -13.1137   -5.3837 H   0  0  0  0  0  0  0  0  0  0  0  0
   -6.8313  -12.7535   -7.5947 H   0  0  0  0  0  0  0  0  0  0  0  0
   -7.2723  -12.9404   -5.8985 H   0  0  0  0  0  0  0  0  0  0  0  0
   -7.2929  -10.6018   -5.5544 H   0  0  0  0  0  0  0  0  0  0  0  0
   -7.7224  -10.6352   -7.2508 H   0  0  0  0  0  0  0  0  0  0  0  0
   -5.8318   -6.9062   -4.6428 H   0  0  0  0  0  0  0  0  0  0  0  0
   -6.5504   -4.8454   -3.6027 H   0  0  0  0  0  0  0  0  0  0  0  0
   -8.2205   -3.3688   -4.7253 H   0  0  0  0  0  0  0  0  0  0  0  0
   -9.1778   -4.0107   -6.9234 H   0  0  0  0  0  0  0  0  0  0  0  0
   -8.4777   -6.1326   -8.0082 H   0  0  0  0  0  0  0  0  0  0  0  0
  1  2  2  0
  2  3  1  0
  2  9  1  0
  3  4  1  0
  3 15  1  0
  3 16  1  0
  4  8  1  0
  4  5  1  0
  5  6  1  0
  5 17  1  0
  5 18  1  0
  6  7  1  0
  6 19  1  0
  6 20  1  0
  7  8  1  0
  7 21  1  0
  7 22  1  0
  8 23  1  0
  8 24  1  0
  9 14  1  0
  9 10  2  0
 10 11  1  0
 10 25  1  0
 11 12  2  0
 11 26  1  0
 12 13  1  0
 12 27  1  0
 13 14  2  0
 13 28  1  0
 14 29  1  0
M  END
>  <i_m_ct_stereo_status>  (140) 
1

>  <s_m_source_file>  (140) 
/var/tmp/pbs.5076255.sched01/tmppm3sokcv/34yi_btuhz.sdf

>  <i_m_source_file_index>  (140) 
22

>  <i_lp_mmshare_version>  (140) 
48012

>  <i_f3d_flags>  (140) 
0

>  <s_epik_input>  (140) 
W2NIXTFbY0hdW2NIXVtjSF1bY0hdYzFDKD1PKVtDSDJdTjJbQ0gyXVtDSDJdW0NIMl1bQ0gyXTI=

>  <s_epik_cmdline>  (140) 
J2VwaWtfcHl0aG9uJywgJy1waHQnLCAnMi4wJywgJy1waCcsICc3LjAnLCAnLXRuJywgJzgnLCAnLW1hJywgJzIwMCcsICctaW1hZScsICc8aW5maWxlLm1hZT4nLCAnLW9tYWUnLCAnPG91dGZpbGUubWFlPic=

>  <r_lp_tautomer_probability>  (140) 
0.9999

>  <r_epik_Ionization_Penalty>  (140) 
0.954977

>  <r_epik_Ionization_Penalty_Charging>  (140) 
0

>  <r_epik_Ionization_Penalty_Neutral>  (140) 
0.954977

>  <r_epik_State_Penalty>  (140) 
0.999579

>  <r_epik_Charging_Adjusted_Penalty>  (140) 
0.999579

>  <i_epik_Tot_Q>  (140) 
0

>  <i_epik_Tot_abs_Q>  (140) 
0

>  <s_lp_Force_Field>  (140) 
OPLS3e

>  <r_lp_Energy>  (140) 
13.9051

>  <b_lp_Chiralities_Consistent>  (140) 
1

>  <s_lp_Variant>  (140) 
39:0-2

>  <s_i_glide_gridfile>  (140) 
pfpi4k_grid

>  <i_i_glide_lignum>  (140) 
22

>  <i_i_glide_rotatable_bonds>  (140) 
3

>  <r_i_docking_score>  (140) 
-5.07836

>  <r_i_glide_ligand_efficiency>  (140) 
-0.36274

>  <r_i_glide_ligand_efficiency_sa>  (140) 
-0.874254

>  <r_i_glide_ligand_efficiency_ln>  (140) 
-1.39551

>  <r_i_glide_gscore>  (140) 
-5.07836

>  <r_i_glide_lipo>  (140) 
-2.23044

>  <r_i_glide_hbond>  (140) 
0

>  <r_i_glide_metal>  (140) 
-0

>  <r_i_glide_rewards>  (140) 
-2.94508

>  <r_i_glide_evdw>  (140) 
-23.0772

>  <r_i_glide_ecoul>  (140) 
-0.610864

>  <r_i_glide_erotb>  (140) 
1.34265

>  <r_i_glide_esite>  (140) 
0

>  <r_i_glide_emodel>  (140) 
-30.3551

>  <r_i_glide_energy>  (140) 
-23.6881

>  <r_i_glide_einternal>  (140) 
0.984973

>  <r_i_glide_intrahb_reward>  (140) 
-0

>  <i_i_glide_confnum>  (140) 
2

>  <i_i_glide_posenum>  (140) 
5

>  <r_i_glide_eff_state_penalty>  (140) 
0

>  <ligand_id>  (140) 
39

>  <original_smiles>  (140) 
O=C(CN1CCCC1)c1ccccc1

>  <smiles>  (140) 
[H]c1c([H])c([H])c(C(=O)C([H])([H])N2C([H])([H])C([H])([H])C([H])([H])C2([H])[H])c([H])c1[H]

$$$$
39:1:1
     RDKit          3D

 29 30  0  0  1  0  0  0  0  0999 V2000
    5.0316   -3.2751    0.4867 O   0  0  0  0  0  0  0  0  0  0  0  0
    4.0408   -3.4796   -0.2190 C   0  0  0  0  0  0  0  0  0  0  0  0
    3.0420   -4.5821    0.1857 C   0  0  0  0  0  0  0  0  0  0  0  0
    3.5972   -5.6721    0.9874 N   0  0  0  0  0  0  0  0  0  0  0  0
    2.5956   -6.6512    1.3867 C   0  0  0  0  0  0  0  0  0  0  0  0
    3.4449   -7.8314    1.8698 C   0  0  0  0  0  0  0  0  0  0  0  0
    4.7719   -7.6945    1.1255 C   0  0  0  0  0  0  0  0  0  0  0  0
    4.6022   -6.4475    0.2664 C   0  0  0  0  0  0  0  0  0  0  0  0
    3.7518   -2.6591   -1.4290 C   0  0  0  0  0  0  0  0  0  0  0  0
    4.4586   -1.4485   -1.6007 C   0  0  0  0  0  0  0  0  0  0  0  0
    4.2260   -0.6410   -2.7268 C   0  0  0  0  0  0  0  0  0  0  0  0
    3.3130   -1.0482   -3.7168 C   0  0  0  0  0  0  0  0  0  0  0  0
    2.6143   -2.2566   -3.5613 C   0  0  0  0  0  0  0  0  0  0  0  0
    2.8253   -3.0528   -2.4228 C   0  0  0  0  0  0  0  0  0  0  0  0
    2.2366   -4.1050    0.7441 H   0  0  0  0  0  0  0  0  0  0  0  0
    2.5920   -5.0393   -0.6899 H   0  0  0  0  0  0  0  0  0  0  0  0
    1.9376   -6.2661    2.1673 H   0  0  0  0  0  0  0  0  0  0  0  0
    1.9705   -6.9489    0.5410 H   0  0  0  0  0  0  0  0  0  0  0  0
    3.6199   -7.7607    2.9448 H   0  0  0  0  0  0  0  0  0  0  0  0
    2.9615   -8.7892    1.6726 H   0  0  0  0  0  0  0  0  0  0  0  0
    5.5916   -7.5544    1.8316 H   0  0  0  0  0  0  0  0  0  0  0  0
    5.0011   -8.5695    0.5159 H   0  0  0  0  0  0  0  0  0  0  0  0
    4.2295   -6.7280   -0.7181 H   0  0  0  0  0  0  0  0  0  0  0  0
    5.5411   -5.9103    0.1348 H   0  0  0  0  0  0  0  0  0  0  0  0
    5.1670   -1.1206   -0.8518 H   0  0  0  0  0  0  0  0  0  0  0  0
    4.7359    0.3043   -2.8151 H   0  0  0  0  0  0  0  0  0  0  0  0
    3.1247   -0.4185   -4.5755 H   0  0  0  0  0  0  0  0  0  0  0  0
    1.8980   -2.5729   -4.3050 H   0  0  0  0  0  0  0  0  0  0  0  0
    2.2414   -3.9540   -2.3533 H   0  0  0  0  0  0  0  0  0  0  0  0
  1  2  2  0
  2  3  1  0
  2  9  1  0
  3  4  1  0
  3 15  1  0
  3 16  1  0
  4  8  1  0
  4  5  1  0
  5  6  1  0
  5 17  1  0
  5 18  1  0
  6  7  1  0
  6 19  1  0
  6 20  1  0
  7  8  1  0
  7 21  1  0
  7 22  1  0
  8 23  1  0
  8 24  1  0
  9 14  1  0
  9 10  2  0
 10 11  1  0
 10 25  1  0
 11 12  2  0
 11 26  1  0
 12 13  1  0
 12 27  1  0
 13 14  2  0
 13 28  1  0
 14 29  1  0
M  END
>  <i_m_ct_stereo_status>  (141) 
1

>  <s_m_source_file>  (141) 
/var/tmp/pbs.5076255.sched01/tmppm3sokcv/34yi_btuhz.sdf

>  <i_m_source_file_index>  (141) 
22

>  <i_lp_mmshare_version>  (141) 
48012

>  <i_f3d_flags>  (141) 
0

>  <s_epik_input>  (141) 
W2NIXTFbY0hdW2NIXVtjSF1bY0hdYzFDKD1PKVtDSDJdTjJbQ0gyXVtDSDJdW0NIMl1bQ0gyXTI=

>  <s_epik_cmdline>  (141) 
J2VwaWtfcHl0aG9uJywgJy1waHQnLCAnMi4wJywgJy1waCcsICc3LjAnLCAnLXRuJywgJzgnLCAnLW1hJywgJzIwMCcsICctaW1hZScsICc8aW5maWxlLm1hZT4nLCAnLW9tYWUnLCAnPG91dGZpbGUubWFlPic=

>  <r_lp_tautomer_probability>  (141) 
0.9999

>  <r_epik_Ionization_Penalty>  (141) 
0.954977

>  <r_epik_Ionization_Penalty_Charging>  (141) 
0

>  <r_epik_Ionization_Penalty_Neutral>  (141) 
0.954977

>  <r_epik_State_Penalty>  (141) 
0.999579

>  <r_epik_Charging_Adjusted_Penalty>  (141) 
0.999579

>  <i_epik_Tot_Q>  (141) 
0

>  <i_epik_Tot_abs_Q>  (141) 
0

>  <s_lp_Force_Field>  (141) 
OPLS3e

>  <r_lp_Energy>  (141) 
13.9051

>  <b_lp_Chiralities_Consistent>  (141) 
1

>  <s_lp_Variant>  (141) 
39:0-2

>  <s_i_glide_gridfile>  (141) 
pfpi4k_grid

>  <i_i_glide_lignum>  (141) 
22

>  <i_i_glide_rotatable_bonds>  (141) 
3

>  <r_i_docking_score>  (141) 
-2.87512

>  <r_i_glide_ligand_efficiency>  (141) 
-0.205366

>  <r_i_glide_ligand_efficiency_sa>  (141) 
-0.494961

>  <r_i_glide_ligand_efficiency_ln>  (141) 
-0.790074

>  <r_i_glide_gscore>  (141) 
-2.87512

>  <r_i_glide_lipo>  (141) 
-0.7537

>  <r_i_glide_hbond>  (141) 
0

>  <r_i_glide_metal>  (141) 
-0

>  <r_i_glide_rewards>  (141) 
-2.15472

>  <r_i_glide_evdw>  (141) 
-20.2189

>  <r_i_glide_ecoul>  (141) 
-1.98943

>  <r_i_glide_erotb>  (141) 
1.34265

>  <r_i_glide_esite>  (141) 
0

>  <r_i_glide_emodel>  (141) 
-26.2167

>  <r_i_glide_energy>  (141) 
-22.2083

>  <r_i_glide_einternal>  (141) 
0.209206

>  <r_i_glide_intrahb_reward>  (141) 
-0

>  <i_i_glide_confnum>  (141) 
1

>  <i_i_glide_posenum>  (141) 
7

>  <r_i_glide_eff_state_penalty>  (141) 
0

>  <ligand_id>  (141) 
39

>  <original_smiles>  (141) 
O=C(CN1CCCC1)c1ccccc1

>  <smiles>  (141) 
[H]c1c([H])c([H])c(C(=O)C([H])([H])N2C([H])([H])C([H])([H])C([H])([H])C2([H])[H])c([H])c1[H]

$$$$
39:1:2
     RDKit          3D

 29 30  0  0  1  0  0  0  0  0999 V2000
    3.9516   -3.6494   -3.8447 O   0  0  0  0  0  0  0  0  0  0  0  0
    3.6155   -2.7909   -3.0206 C   0  0  0  0  0  0  0  0  0  0  0  0
    2.5380   -1.7767   -3.4292 C   0  0  0  0  0  0  0  0  0  0  0  0
    3.0363   -0.4761   -3.9308 N   0  0  0  0  0  0  0  0  0  0  0  0
    3.8936   -0.7168   -5.0620 C   0  0  0  0  0  0  0  0  0  0  0  0
    3.9599    0.6100   -5.7594 C   0  0  0  0  0  0  0  0  0  0  0  0
    2.7721    1.4094   -5.3718 C   0  0  0  0  0  0  0  0  0  0  0  0
    2.0271    0.3731   -4.5781 C   0  0  0  0  0  0  0  0  0  0  0  0
    4.2266   -2.6421   -1.6547 C   0  0  0  0  0  0  0  0  0  0  0  0
    5.1717   -3.5965   -1.2176 C   0  0  0  0  0  0  0  0  0  0  0  0
    5.7963   -3.4665    0.0366 C   0  0  0  0  0  0  0  0  0  0  0  0
    5.4847   -2.3821    0.8747 C   0  0  0  0  0  0  0  0  0  0  0  0
    4.5553   -1.4164    0.4495 C   0  0  0  0  0  0  0  0  0  0  0  0
    3.9297   -1.5444   -0.8072 C   0  0  0  0  0  0  0  0  0  0  0  0
    1.9098   -2.2650   -4.1882 H   0  0  0  0  0  0  0  0  0  0  0  0
    1.8973   -1.5966   -2.5729 H   0  0  0  0  0  0  0  0  0  0  0  0
    4.8875   -1.0872   -4.7857 H   0  0  0  0  0  0  0  0  0  0  0  0
    3.4129   -1.4021   -5.7270 H   0  0  0  0  0  0  0  0  0  0  0  0
    4.8555    1.0134   -5.3263 H   0  0  0  0  0  0  0  0  0  0  0  0
    4.0101    0.5326   -6.8495 H   0  0  0  0  0  0  0  0  0  0  0  0
    3.0581    2.2656   -4.7527 H   0  0  0  0  0  0  0  0  0  0  0  0
    2.2158    1.7565   -6.2456 H   0  0  0  0  0  0  0  0  0  0  0  0
    1.3845   -0.2237   -5.2208 H   0  0  0  0  0  0  0  0  0  0  0  0
    1.3785    0.9439   -3.9300 H   0  0  0  0  0  0  0  0  0  0  0  0
    5.3994   -4.4393   -1.8626 H   0  0  0  0  0  0  0  0  0  0  0  0
    6.5052   -4.2203    0.3571 H   0  0  0  0  0  0  0  0  0  0  0  0
    5.9519   -2.2965    1.8531 H   0  0  0  0  0  0  0  0  0  0  0  0
    4.2991   -0.5816    1.0904 H   0  0  0  0  0  0  0  0  0  0  0  0
    3.2114   -0.7849   -1.1021 H   0  0  0  0  0  0  0  0  0  0  0  0
  1  2  2  0
  2  3  1  0
  2  9  1  0
  3  4  1  0
  3 15  1  0
  3 16  1  0
  4  8  1  0
  4  5  1  0
  5  6  1  0
  5 17  1  0
  5 18  1  0
  6  7  1  0
  6 19  1  0
  6 20  1  0
  7  8  1  0
  7 21  1  0
  7 22  1  0
  8 23  1  0
  8 24  1  0
  9 14  1  0
  9 10  2  0
 10 11  1  0
 10 25  1  0
 11 12  2  0
 11 26  1  0
 12 13  1  0
 12 27  1  0
 13 14  2  0
 13 28  1  0
 14 29  1  0
M  END
>  <i_m_ct_stereo_status>  (142) 
1

>  <s_m_source_file>  (142) 
/var/tmp/pbs.5076255.sched01/tmppm3sokcv/34yi_btuhz.sdf

>  <i_m_source_file_index>  (142) 
22

>  <i_lp_mmshare_version>  (142) 
48012

>  <i_f3d_flags>  (142) 
0

>  <s_epik_input>  (142) 
W2NIXTFbY0hdW2NIXVtjSF1bY0hdYzFDKD1PKVtDSDJdTjJbQ0gyXVtDSDJdW0NIMl1bQ0gyXTI=

>  <s_epik_cmdline>  (142) 
J2VwaWtfcHl0aG9uJywgJy1waHQnLCAnMi4wJywgJy1waCcsICc3LjAnLCAnLXRuJywgJzgnLCAnLW1hJywgJzIwMCcsICctaW1hZScsICc8aW5maWxlLm1hZT4nLCAnLW9tYWUnLCAnPG91dGZpbGUubWFlPic=

>  <r_lp_tautomer_probability>  (142) 
0.9999

>  <r_epik_Ionization_Penalty>  (142) 
0.954977

>  <r_epik_Ionization_Penalty_Charging>  (142) 
0

>  <r_epik_Ionization_Penalty_Neutral>  (142) 
0.954977

>  <r_epik_State_Penalty>  (142) 
0.999579

>  <r_epik_Charging_Adjusted_Penalty>  (142) 
0.999579

>  <i_epik_Tot_Q>  (142) 
0

>  <i_epik_Tot_abs_Q>  (142) 
0

>  <s_lp_Force_Field>  (142) 
OPLS3e

>  <r_lp_Energy>  (142) 
13.9051

>  <b_lp_Chiralities_Consistent>  (142) 
1

>  <s_lp_Variant>  (142) 
39:0-2

>  <s_i_glide_gridfile>  (142) 
pfpi4k_grid

>  <i_i_glide_lignum>  (142) 
22

>  <i_i_glide_rotatable_bonds>  (142) 
3

>  <r_i_docking_score>  (142) 
-1.6437

>  <r_i_glide_ligand_efficiency>  (142) 
-0.117407

>  <r_i_glide_ligand_efficiency_sa>  (142) 
-0.282967

>  <r_i_glide_ligand_efficiency_ln>  (142) 
-0.451682

>  <r_i_glide_gscore>  (142) 
-1.6437

>  <r_i_glide_lipo>  (142) 
-0.331156

>  <r_i_glide_hbond>  (142) 
0

>  <r_i_glide_metal>  (142) 
-0

>  <r_i_glide_rewards>  (142) 
-2.1913

>  <r_i_glide_evdw>  (142) 
-9.60198

>  <r_i_glide_ecoul>  (142) 
0.108039

>  <r_i_glide_erotb>  (142) 
1.34265

>  <r_i_glide_esite>  (142) 
0

>  <r_i_glide_emodel>  (142) 
-9.01362

>  <r_i_glide_energy>  (142) 
-9.49394

>  <r_i_glide_einternal>  (142) 
4.33255

>  <r_i_glide_intrahb_reward>  (142) 
-0

>  <i_i_glide_confnum>  (142) 
6

>  <i_i_glide_posenum>  (142) 
2

>  <r_i_glide_eff_state_penalty>  (142) 
0

>  <ligand_id>  (142) 
39

>  <original_smiles>  (142) 
O=C(CN1CCCC1)c1ccccc1

>  <smiles>  (142) 
[H]c1c([H])c([H])c(C(=O)C([H])([H])N2C([H])([H])C([H])([H])C([H])([H])C2([H])[H])c([H])c1[H]

$$$$
40:0:0
     RDKit          3D

 46 51  0  0  1  0  0  0  0  0999 V2000
    3.3201    0.8952    5.7953 C   0  0  0  0  0  0  0  0  0  0  0  0
    3.1827   -0.3711    4.9348 C   0  0  1  0  0  0  0  0  0  0  0  0
    3.9379   -1.4528    5.5140 O   0  0  0  0  0  0  0  0  0  0  0  0
    3.3064   -2.6527    5.0367 C   0  0  1  0  0  0  0  0  0  0  0  0
    1.8539   -2.2637    4.9750 C   0  0  0  0  0  0  0  0  0  0  0  0
    0.6496   -3.0143    5.1858 C   0  0  0  0  0  0  0  0  0  0  0  0
   -0.5021   -2.3228    5.2869 C   0  0  0  0  0  0  0  0  0  0  0  0
   -0.5571   -0.8405    5.2191 C   0  0  0  0  0  0  0  0  0  0  0  0
   -1.6461   -0.2666    5.3104 O   0  0  0  0  0  0  0  0  0  0  0  0
    0.6619   -0.1877    5.0834 O   0  0  0  0  0  0  0  0  0  0  0  0
    1.7977   -0.9593    4.9253 C   0  0  0  0  0  0  0  0  0  0  0  0
    3.9764   -2.8465    3.6481 C   0  0  1  0  0  0  0  0  0  0  0  0
    3.1580   -3.6373    2.6160 C   0  0  0  0  0  0  0  0  0  0  0  0
    2.5010   -4.6365    2.9110 O   0  0  0  0  0  0  0  0  0  0  0  0
    3.3460   -3.0206    1.2908 C   0  0  0  0  0  0  0  0  0  0  0  0
    4.0511   -1.8293    1.4407 C   0  0  0  0  0  0  0  0  0  0  0  0
    4.4298   -1.0632    0.3110 C   0  0  0  0  0  0  0  0  0  0  0  0
    5.1634    0.0713    0.4788 O   0  0  0  0  0  0  0  0  0  0  0  0
    4.0387   -1.5170   -0.9742 C   0  0  0  0  0  0  0  0  0  0  0  0
    4.3796   -0.7731   -2.1342 C   0  0  0  0  0  0  0  0  0  0  0  0
    3.9513   -1.1895   -3.4143 C   0  0  0  0  0  0  0  0  0  0  0  0
    3.1899   -2.3617   -3.5462 C   0  0  0  0  0  0  0  0  0  0  0  0
    2.8531   -3.1023   -2.4018 C   0  0  0  0  0  0  0  0  0  0  0  0
    3.2862   -2.7149   -1.1112 C   0  0  0  0  0  0  0  0  0  0  0  0
    2.9414   -3.4908    0.0199 C   0  0  0  0  0  0  0  0  0  0  0  0
    2.2412   -4.6605   -0.1078 O   0  0  0  0  0  0  0  0  0  0  0  0
    4.3772   -1.5192    2.9010 C   0  0  2  0  0  0  0  0  0  0  0  0
    5.7729   -1.3731    3.0694 O   0  0  0  0  0  0  0  0  0  0  0  0
    3.7116   -0.2093    3.4761 C   0  0  1  0  0  0  0  0  0  0  0  0
    2.6506    0.2361    2.6470 O   0  0  0  0  0  0  0  0  0  0  0  0
    2.7487    1.7265    5.3848 H   0  0  0  0  0  0  0  0  0  0  0  0
    4.3630    1.2043    5.8538 H   0  0  0  0  0  0  0  0  0  0  0  0
    2.9777    0.7223    6.8142 H   0  0  0  0  0  0  0  0  0  0  0  0
    3.4927   -3.4859    5.7176 H   0  0  0  0  0  0  0  0  0  0  0  0
    0.6573   -4.0904    5.2452 H   0  0  0  0  0  0  0  0  0  0  0  0
   -1.4465   -2.8261    5.4238 H   0  0  0  0  0  0  0  0  0  0  0  0
    4.8851   -3.4381    3.8023 H   0  0  0  0  0  0  0  0  0  0  0  0
    5.1355    0.7072   -0.2363 H   0  0  0  0  0  0  0  0  0  0  0  0
    4.9395    0.1447   -2.0750 H   0  0  0  0  0  0  0  0  0  0  0  0
    4.1973   -0.5967   -4.2910 H   0  0  0  0  0  0  0  0  0  0  0  0
    2.8499   -2.6935   -4.5237 H   0  0  0  0  0  0  0  0  0  0  0  0
    2.2410   -3.9767   -2.5477 H   0  0  0  0  0  0  0  0  0  0  0  0
    2.2511   -4.9954   -0.9973 H   0  0  0  0  0  0  0  0  0  0  0  0
    6.0450   -0.6109    2.5792 H   0  0  0  0  0  0  0  0  0  0  0  0
    4.4580    0.5847    3.4540 H   0  0  0  0  0  0  0  0  0  0  0  0
    2.4410    1.1275    2.8806 H   0  0  0  0  0  0  0  0  0  0  0  0
  2  1  1  1
  1 31  1  0
  1 32  1  0
  1 33  1  0
  2 11  1  0
  2 29  1  0
  2  3  1  0
  3  4  1  0
  4  5  1  0
  4 12  1  0
  4 34  1  1
  5 11  2  0
  5  6  1  0
  6  7  2  0
  6 35  1  0
  7  8  1  0
  7 36  1  0
  8  9  2  0
  8 10  1  0
 10 11  1  0
 12 27  1  0
 12 13  1  0
 12 37  1  1
 13 14  2  0
 13 15  1  0
 15 25  1  0
 15 16  2  0
 16 17  1  0
 16 27  1  0
 17 18  1  0
 17 19  2  0
 18 38  1  0
 19 24  1  0
 19 20  1  0
 20 21  2  0
 20 39  1  0
 21 22  1  0
 21 40  1  0
 22 23  2  0
 22 41  1  0
 23 24  1  0
 23 42  1  0
 24 25  2  0
 25 26  1  0
 26 43  1  0
 27 28  1  6
 27 29  1  0
 28 44  1  0
 29 30  1  0
 29 45  1  1
 30 46  1  0
M  END
>  <i_m_ct_stereo_status>  (143) 
1

>  <s_m_source_file>  (143) 
/var/tmp/pbs.5076255.sched01/tmppm3sokcv/34yi_btuhz.sdf

>  <i_m_source_file_index>  (143) 
23

>  <i_lp_mmshare_version>  (143) 
48012

>  <i_f3d_flags>  (143) 
0

>  <s_epik_input>  (143) 
Tz1jKG8xKVtjSF1bY0hdYyhjMVtDQEBdMjNbQ0gzXSlbQ0BIXShPMilbQ0BASF00W0NAXShbT0hdKShbQ0BIXTNbT0hdKWM1YyhDND1PKWMoW09IXSljNmMoYzVbT0hdKVtjSF1bY0hdW2NIXVtjSF02

>  <s_epik_cmdline>  (143) 
J2VwaWtfcHl0aG9uJywgJy1waHQnLCAnMi4wJywgJy1waCcsICc3LjAnLCAnLXRuJywgJzgnLCAnLW1hJywgJzIwMCcsICctaW1hZScsICc8aW5maWxlLm1hZT4nLCAnLW9tYWUnLCAnPG91dGZpbGUubWFlPic=

>  <r_epik_Ionization_Penalty>  (143) 
0.0129897

>  <r_epik_Ionization_Penalty_Charging>  (143) 
0

>  <r_epik_Ionization_Penalty_Neutral>  (143) 
0.0129897

>  <r_epik_State_Penalty>  (143) 
0.0095767

>  <r_epik_Charging_Adjusted_Penalty>  (143) 
0.0095767

>  <i_epik_Tot_Q>  (143) 
0

>  <i_epik_Tot_abs_Q>  (143) 
0

>  <s_lp_Force_Field>  (143) 
OPLS3e

>  <r_lp_Energy>  (143) 
34.6184

>  <b_lp_Chiralities_Consistent>  (143) 
1

>  <s_lp_Variant>  (143) 
40:0-1

>  <s_i_glide_gridfile>  (143) 
pfpi4k_grid

>  <i_i_glide_lignum>  (143) 
23

>  <i_i_glide_rotatable_bonds>  (143) 
4

>  <r_i_docking_score>  (143) 
-4.15282

>  <r_i_glide_ligand_efficiency>  (143) 
-0.138427

>  <r_i_glide_ligand_efficiency_sa>  (143) 
-0.430126

>  <r_i_glide_ligand_efficiency_ln>  (143) 
-0.943566

>  <r_i_glide_gscore>  (143) 
-4.15282

>  <r_i_glide_lipo>  (143) 
-0.438392

>  <r_i_glide_hbond>  (143) 
0

>  <r_i_glide_metal>  (143) 
-0

>  <r_i_glide_rewards>  (143) 
-1.12493

>  <r_i_glide_evdw>  (143) 
-24.9099

>  <r_i_glide_ecoul>  (143) 
-8.96004

>  <r_i_glide_erotb>  (143) 
0

>  <r_i_glide_esite>  (143) 
0

>  <r_i_glide_emodel>  (143) 
-47.1427

>  <r_i_glide_energy>  (143) 
-33.87

>  <r_i_glide_einternal>  (143) 
1.65435

>  <r_i_glide_intrahb_reward>  (143) 
-0.5

>  <i_i_glide_confnum>  (143) 
1

>  <i_i_glide_posenum>  (143) 
20

>  <r_i_glide_eff_state_penalty>  (143) 
0

>  <ligand_id>  (143) 
40

>  <original_smiles>  (143) 
CC12OC(c3ccc(=O)oc31)C1C(=O)c3c(c(O)c4ccccc4c3O)C1(O)C2O

>  <smiles>  (143) 
[H]Oc1c2c(c(O[H])c3c([H])c([H])c([H])c([H])c13)C1(O[H])C([H])(O[H])C3(C([H])([H])[H])OC([H])(c4c3oc(=O)c([H])c4[H])C1([H])C2=O

$$$$
40:0:1
     RDKit          3D

 46 51  0  0  1  0  0  0  0  0999 V2000
    3.7518   -2.1048   -1.8006 C   0  0  0  0  0  0  0  0  0  0  0  0
    3.8810   -2.3086   -0.2810 C   0  0  1  0  0  0  0  0  0  0  0  0
    2.9933   -3.3539    0.1585 O   0  0  0  0  0  0  0  0  0  0  0  0
    3.5738   -3.8550    1.3747 C   0  0  1  0  0  0  0  0  0  0  0  0
    5.0498   -3.7573    1.1049 C   0  0  0  0  0  0  0  0  0  0  0  0
    6.1771   -4.5467    1.5209 C   0  0  0  0  0  0  0  0  0  0  0  0
    7.3696   -4.3181    0.9339 C   0  0  0  0  0  0  0  0  0  0  0  0
    7.5237   -3.2975   -0.1448 C   0  0  0  0  0  0  0  0  0  0  0  0
    8.6155   -3.0775   -0.6577 O   0  0  0  0  0  0  0  0  0  0  0  0
    6.3759   -2.6293   -0.5333 O   0  0  0  0  0  0  0  0  0  0  0  0
    5.2079   -2.8722    0.1443 C   0  0  0  0  0  0  0  0  0  0  0  0
    3.0434   -2.8567    2.4399 C   0  0  1  0  0  0  0  0  0  0  0  0
    3.8961   -2.6946    3.7065 C   0  0  0  0  0  0  0  0  0  0  0  0
    4.4374   -3.6285    4.2945 O   0  0  0  0  0  0  0  0  0  0  0  0
    3.8874   -1.2804    4.1027 C   0  0  0  0  0  0  0  0  0  0  0  0
    3.2467   -0.5274    3.1153 C   0  0  0  0  0  0  0  0  0  0  0  0
    3.0565    0.8587    3.2923 C   0  0  0  0  0  0  0  0  0  0  0  0
    2.4100    1.5827    2.3252 O   0  0  0  0  0  0  0  0  0  0  0  0
    3.5562    1.4793    4.4682 C   0  0  0  0  0  0  0  0  0  0  0  0
    3.4041    2.8723    4.6719 C   0  0  0  0  0  0  0  0  0  0  0  0
    3.9265    3.4973    5.8206 C   0  0  0  0  0  0  0  0  0  0  0  0
    4.6035    2.7315    6.7908 C   0  0  0  0  0  0  0  0  0  0  0  0
    4.7543    1.3438    6.6089 C   0  0  0  0  0  0  0  0  0  0  0  0
    4.2377    0.7045    5.4550 C   0  0  0  0  0  0  0  0  0  0  0  0
    4.4001   -0.6912    5.2732 C   0  0  0  0  0  0  0  0  0  0  0  0
    5.0404   -1.4597    6.2100 O   0  0  0  0  0  0  0  0  0  0  0  0
    2.8089   -1.3885    1.9264 C   0  0  2  0  0  0  0  0  0  0  0  0
    1.4115   -1.2751    1.6927 O   0  0  0  0  0  0  0  0  0  0  0  0
    3.5327   -1.0457    0.5705 C   0  0  1  0  0  0  0  0  0  0  0  0
    4.7049   -0.2620    0.7555 O   0  0  0  0  0  0  0  0  0  0  0  0
    4.4221   -1.3269   -2.1634 H   0  0  0  0  0  0  0  0  0  0  0  0
    2.7337   -1.8142   -2.0589 H   0  0  0  0  0  0  0  0  0  0  0  0
    3.9711   -3.0239   -2.3436 H   0  0  0  0  0  0  0  0  0  0  0  0
    3.2472   -4.8796    1.5612 H   0  0  0  0  0  0  0  0  0  0  0  0
    6.0889   -5.2881    2.3014 H   0  0  0  0  0  0  0  0  0  0  0  0
    8.2588   -4.8557    1.2390 H   0  0  0  0  0  0  0  0  0  0  0  0
    2.0858   -3.2421    2.7970 H   0  0  0  0  0  0  0  0  0  0  0  0
    2.4012    2.5119    2.4896 H   0  0  0  0  0  0  0  0  0  0  0  0
    2.9040    3.4940    3.9456 H   0  0  0  0  0  0  0  0  0  0  0  0
    3.8133    4.5649    5.9595 H   0  0  0  0  0  0  0  0  0  0  0  0
    5.0024    3.2146    7.6753 H   0  0  0  0  0  0  0  0  0  0  0  0
    5.2767    0.7779    7.3677 H   0  0  0  0  0  0  0  0  0  0  0  0
    5.0676   -2.3746    5.9683 H   0  0  0  0  0  0  0  0  0  0  0  0
    1.2581   -1.0587    0.7578 H   0  0  0  0  0  0  0  0  0  0  0  0
    2.8547   -0.4058    0.0132 H   0  0  0  0  0  0  0  0  0  0  0  0
    4.8108    0.2921   -0.0039 H   0  0  0  0  0  0  0  0  0  0  0  0
  2  1  1  6
  1 31  1  0
  1 32  1  0
  1 33  1  0
  2 11  1  0
  2 29  1  0
  2  3  1  0
  3  4  1  0
  4  5  1  0
  4 12  1  0
  4 34  1  1
  5 11  2  0
  5  6  1  0
  6  7  2  0
  6 35  1  0
  7  8  1  0
  7 36  1  0
  8  9  2  0
  8 10  1  0
 10 11  1  0
 12 27  1  0
 12 13  1  0
 12 37  1  1
 13 14  2  0
 13 15  1  0
 15 25  1  0
 15 16  2  0
 16 17  1  0
 16 27  1  0
 17 18  1  0
 17 19  2  0
 18 38  1  0
 19 24  1  0
 19 20  1  0
 20 21  2  0
 20 39  1  0
 21 22  1  0
 21 40  1  0
 22 23  2  0
 22 41  1  0
 23 24  1  0
 23 42  1  0
 24 25  2  0
 25 26  1  0
 26 43  1  0
 27 28  1  6
 27 29  1  0
 28 44  1  0
 29 30  1  0
 29 45  1  6
 30 46  1  0
M  END
>  <i_m_ct_stereo_status>  (144) 
1

>  <s_m_source_file>  (144) 
/var/tmp/pbs.5076255.sched01/tmppm3sokcv/34yi_btuhz.sdf

>  <i_m_source_file_index>  (144) 
23

>  <i_lp_mmshare_version>  (144) 
48012

>  <i_f3d_flags>  (144) 
0

>  <s_epik_input>  (144) 
Tz1jKG8xKVtjSF1bY0hdYyhjMVtDQEBdMjNbQ0gzXSlbQ0BIXShPMilbQ0BASF00W0NAXShbT0hdKShbQ0BIXTNbT0hdKWM1YyhDND1PKWMoW09IXSljNmMoYzVbT0hdKVtjSF1bY0hdW2NIXVtjSF02

>  <s_epik_cmdline>  (144) 
J2VwaWtfcHl0aG9uJywgJy1waHQnLCAnMi4wJywgJy1waCcsICc3LjAnLCAnLXRuJywgJzgnLCAnLW1hJywgJzIwMCcsICctaW1hZScsICc8aW5maWxlLm1hZT4nLCAnLW9tYWUnLCAnPG91dGZpbGUubWFlPic=

>  <r_epik_Ionization_Penalty>  (144) 
0.0129897

>  <r_epik_Ionization_Penalty_Charging>  (144) 
0

>  <r_epik_Ionization_Penalty_Neutral>  (144) 
0.0129897

>  <r_epik_State_Penalty>  (144) 
0.0095767

>  <r_epik_Charging_Adjusted_Penalty>  (144) 
0.0095767

>  <i_epik_Tot_Q>  (144) 
0

>  <i_epik_Tot_abs_Q>  (144) 
0

>  <s_lp_Force_Field>  (144) 
OPLS3e

>  <r_lp_Energy>  (144) 
34.6184

>  <b_lp_Chiralities_Consistent>  (144) 
1

>  <s_lp_Variant>  (144) 
40:0-1

>  <s_i_glide_gridfile>  (144) 
pfpi4k_grid

>  <i_i_glide_lignum>  (144) 
23

>  <i_i_glide_rotatable_bonds>  (144) 
4

>  <r_i_docking_score>  (144) 
-3.84542

>  <r_i_glide_ligand_efficiency>  (144) 
-0.128181

>  <r_i_glide_ligand_efficiency_sa>  (144) 
-0.398287

>  <r_i_glide_ligand_efficiency_ln>  (144) 
-0.873722

>  <r_i_glide_gscore>  (144) 
-3.84542

>  <r_i_glide_lipo>  (144) 
-0.477256

>  <r_i_glide_hbond>  (144) 
0

>  <r_i_glide_metal>  (144) 
-0

>  <r_i_glide_rewards>  (144) 
-1.12483

>  <r_i_glide_evdw>  (144) 
-25.6841

>  <r_i_glide_ecoul>  (144) 
-6.39419

>  <r_i_glide_erotb>  (144) 
0

>  <r_i_glide_esite>  (144) 
0

>  <r_i_glide_emodel>  (144) 
-44.2127

>  <r_i_glide_energy>  (144) 
-32.0782

>  <r_i_glide_einternal>  (144) 
2.4577

>  <r_i_glide_intrahb_reward>  (144) 
-0.5

>  <i_i_glide_confnum>  (144) 
1

>  <i_i_glide_posenum>  (144) 
9

>  <r_i_glide_eff_state_penalty>  (144) 
0

>  <ligand_id>  (144) 
40

>  <original_smiles>  (144) 
CC12OC(c3ccc(=O)oc31)C1C(=O)c3c(c(O)c4ccccc4c3O)C1(O)C2O

>  <smiles>  (144) 
[H]Oc1c2c(c(O[H])c3c([H])c([H])c([H])c([H])c13)C1(O[H])C([H])(O[H])C3(C([H])([H])[H])OC([H])(c4c3oc(=O)c([H])c4[H])C1([H])C2=O

$$$$
40:0:2
     RDKit          3D

 46 51  0  0  1  0  0  0  0  0999 V2000
    3.7250   -2.1275   -1.8175 C   0  0  0  0  0  0  0  0  0  0  0  0
    3.8726   -2.3246   -0.2977 C   0  0  1  0  0  0  0  0  0  0  0  0
    3.0076   -3.3851    0.1510 O   0  0  0  0  0  0  0  0  0  0  0  0
    3.6051   -3.8754    1.3613 C   0  0  1  0  0  0  0  0  0  0  0  0
    5.0771   -3.7471    1.0781 C   0  0  0  0  0  0  0  0  0  0  0  0
    6.2228   -4.5162    1.4844 C   0  0  0  0  0  0  0  0  0  0  0  0
    7.4045   -4.2657    0.8876 C   0  0  0  0  0  0  0  0  0  0  0  0
    7.5332   -3.2438   -0.1889 C   0  0  0  0  0  0  0  0  0  0  0  0
    8.6165   -2.9954   -0.7075 O   0  0  0  0  0  0  0  0  0  0  0  0
    6.3718   -2.5981   -0.5723 O   0  0  0  0  0  0  0  0  0  0  0  0
    5.2119   -2.8632    0.1180 C   0  0  0  0  0  0  0  0  0  0  0  0
    3.0617   -2.8853    2.4285 C   0  0  1  0  0  0  0  0  0  0  0  0
    3.9247   -2.7089    3.6889 C   0  0  0  0  0  0  0  0  0  0  0  0
    4.4911   -3.6314    4.2731 O   0  0  0  0  0  0  0  0  0  0  0  0
    3.8945   -1.2944    4.0786 C   0  0  0  0  0  0  0  0  0  0  0  0
    3.2370   -0.5576    3.0991 C   0  0  0  0  0  0  0  0  0  0  0  0
    3.0223    0.8274    3.2722 C   0  0  0  0  0  0  0  0  0  0  0  0
    2.3591    1.5345    2.3101 O   0  0  0  0  0  0  0  0  0  0  0  0
    3.5180    1.4594    4.4468 C   0  0  0  0  0  0  0  0  0  0  0  0
    3.3367    2.8502    4.6431 C   0  0  0  0  0  0  0  0  0  0  0  0
    3.8530    3.4878    5.7890 C   0  0  0  0  0  0  0  0  0  0  0  0
    4.5514    2.7394    6.7556 C   0  0  0  0  0  0  0  0  0  0  0  0
    4.7286    1.3527    6.5766 C   0  0  0  0  0  0  0  0  0  0  0  0
    4.2169    0.7025    5.4283 C   0  0  0  0  0  0  0  0  0  0  0  0
    4.4059   -0.6927    5.2492 C   0  0  0  0  0  0  0  0  0  0  0  0
    5.0661   -1.4451    6.1799 O   0  0  0  0  0  0  0  0  0  0  0  0
    2.7998   -1.4217    1.9152 C   0  0  2  0  0  0  0  0  0  0  0  0
    1.4092   -1.2771    1.6853 O   0  0  0  0  0  0  0  0  0  0  0  0
    3.5042   -1.0717    0.5544 C   0  0  1  0  0  0  0  0  0  0  0  0
    4.6515   -0.2617    0.7582 O   0  0  0  0  0  0  0  0  0  0  0  0
    4.3767   -1.3366   -2.1861 H   0  0  0  0  0  0  0  0  0  0  0  0
    2.7002   -1.8561   -2.0682 H   0  0  0  0  0  0  0  0  0  0  0  0
    3.9576   -3.0423   -2.3617 H   0  0  0  0  0  0  0  0  0  0  0  0
    3.3041   -4.9086    1.5491 H   0  0  0  0  0  0  0  0  0  0  0  0
    6.1545   -5.2585    2.2674 H   0  0  0  0  0  0  0  0  0  0  0  0
    8.3079   -4.7839    1.1849 H   0  0  0  0  0  0  0  0  0  0  0  0
    2.1146   -3.2893    2.7925 H   0  0  0  0  0  0  0  0  0  0  0  0
    1.9231    0.9845    1.6762 H   0  0  0  0  0  0  0  0  0  0  0  0
    2.8152    3.4464    3.9090 H   0  0  0  0  0  0  0  0  0  0  0  0
    3.7186    4.5526    5.9270 H   0  0  0  0  0  0  0  0  0  0  0  0
    4.9469    3.2289    7.6365 H   0  0  0  0  0  0  0  0  0  0  0  0
    5.2669    0.7984    7.3314 H   0  0  0  0  0  0  0  0  0  0  0  0
    5.1131   -2.3594    5.9390 H   0  0  0  0  0  0  0  0  0  0  0  0
    1.2423   -1.1372    0.7356 H   0  0  0  0  0  0  0  0  0  0  0  0
    2.8211   -0.4505   -0.0157 H   0  0  0  0  0  0  0  0  0  0  0  0
    4.3501    0.5770    1.0755 H   0  0  0  0  0  0  0  0  0  0  0  0
  2  1  1  6
  1 31  1  0
  1 32  1  0
  1 33  1  0
  2 11  1  0
  2 29  1  0
  2  3  1  0
  3  4  1  0
  4  5  1  0
  4 12  1  0
  4 34  1  1
  5 11  2  0
  5  6  1  0
  6  7  2  0
  6 35  1  0
  7  8  1  0
  7 36  1  0
  8  9  2  0
  8 10  1  0
 10 11  1  0
 12 27  1  0
 12 13  1  0
 12 37  1  1
 13 14  2  0
 13 15  1  0
 15 25  1  0
 15 16  2  0
 16 17  1  0
 16 27  1  0
 17 18  1  0
 17 19  2  0
 18 38  1  0
 19 24  1  0
 19 20  1  0
 20 21  2  0
 20 39  1  0
 21 22  1  0
 21 40  1  0
 22 23  2  0
 22 41  1  0
 23 24  1  0
 23 42  1  0
 24 25  2  0
 25 26  1  0
 26 43  1  0
 27 28  1  6
 27 29  1  0
 28 44  1  0
 29 30  1  0
 29 45  1  6
 30 46  1  0
M  END
>  <i_m_ct_stereo_status>  (145) 
1

>  <s_m_source_file>  (145) 
/var/tmp/pbs.5076255.sched01/tmppm3sokcv/34yi_btuhz.sdf

>  <i_m_source_file_index>  (145) 
23

>  <i_lp_mmshare_version>  (145) 
48012

>  <i_f3d_flags>  (145) 
0

>  <s_epik_input>  (145) 
Tz1jKG8xKVtjSF1bY0hdYyhjMVtDQEBdMjNbQ0gzXSlbQ0BIXShPMilbQ0BASF00W0NAXShbT0hdKShbQ0BIXTNbT0hdKWM1YyhDND1PKWMoW09IXSljNmMoYzVbT0hdKVtjSF1bY0hdW2NIXVtjSF02

>  <s_epik_cmdline>  (145) 
J2VwaWtfcHl0aG9uJywgJy1waHQnLCAnMi4wJywgJy1waCcsICc3LjAnLCAnLXRuJywgJzgnLCAnLW1hJywgJzIwMCcsICctaW1hZScsICc8aW5maWxlLm1hZT4nLCAnLW9tYWUnLCAnPG91dGZpbGUubWFlPic=

>  <r_epik_Ionization_Penalty>  (145) 
0.0129897

>  <r_epik_Ionization_Penalty_Charging>  (145) 
0

>  <r_epik_Ionization_Penalty_Neutral>  (145) 
0.0129897

>  <r_epik_State_Penalty>  (145) 
0.0095767

>  <r_epik_Charging_Adjusted_Penalty>  (145) 
0.0095767

>  <i_epik_Tot_Q>  (145) 
0

>  <i_epik_Tot_abs_Q>  (145) 
0

>  <s_lp_Force_Field>  (145) 
OPLS3e

>  <r_lp_Energy>  (145) 
34.6184

>  <b_lp_Chiralities_Consistent>  (145) 
1

>  <s_lp_Variant>  (145) 
40:0-1

>  <s_i_glide_gridfile>  (145) 
pfpi4k_grid

>  <i_i_glide_lignum>  (145) 
23

>  <i_i_glide_rotatable_bonds>  (145) 
4

>  <r_i_docking_score>  (145) 
-3.57606

>  <r_i_glide_ligand_efficiency>  (145) 
-0.119202

>  <r_i_glide_ligand_efficiency_sa>  (145) 
-0.370388

>  <r_i_glide_ligand_efficiency_ln>  (145) 
-0.81252

>  <r_i_glide_gscore>  (145) 
-3.57606

>  <r_i_glide_lipo>  (145) 
-0.469404

>  <r_i_glide_hbond>  (145) 
0

>  <r_i_glide_metal>  (145) 
-0

>  <r_i_glide_rewards>  (145) 
-1.12483

>  <r_i_glide_evdw>  (145) 
-25.7992

>  <r_i_glide_ecoul>  (145) 
-4.61242

>  <r_i_glide_erotb>  (145) 
0

>  <r_i_glide_esite>  (145) 
0

>  <r_i_glide_emodel>  (145) 
-42.0773

>  <r_i_glide_energy>  (145) 
-30.4116

>  <r_i_glide_einternal>  (145) 
2.17725

>  <r_i_glide_intrahb_reward>  (145) 
-0.5

>  <i_i_glide_confnum>  (145) 
1

>  <i_i_glide_posenum>  (145) 
3

>  <r_i_glide_eff_state_penalty>  (145) 
0

>  <ligand_id>  (145) 
40

>  <original_smiles>  (145) 
CC12OC(c3ccc(=O)oc31)C1C(=O)c3c(c(O)c4ccccc4c3O)C1(O)C2O

>  <smiles>  (145) 
[H]Oc1c2c(c(O[H])c3c([H])c([H])c([H])c([H])c13)C1(O[H])C([H])(O[H])C3(C([H])([H])[H])OC([H])(c4c3oc(=O)c([H])c4[H])C1([H])C2=O

$$$$
41:0:0
     RDKit          3D

 41 44  0  0  1  0  0  0  0  0999 V2000
    7.4263   -1.9186    0.6037 C   0  0  0  0  0  0  0  0  0  0  0  0
    6.2133   -1.4352   -0.1554 C   0  0  0  0  0  0  0  0  0  0  0  0
    5.9521   -1.7361   -1.4366 C   0  0  0  0  0  0  0  0  0  0  0  0
    6.4151   -3.0566   -2.0068 C   0  0  0  0  0  0  0  0  0  0  0  0
    5.2063   -3.9920   -1.7407 C   0  0  1  0  0  0  0  0  0  0  0  0
    5.2942   -4.1919   -0.3137 O   0  0  0  0  0  0  0  0  0  0  0  0
    4.1770   -3.9584    0.5392 C   0  0  0  0  0  0  0  0  0  0  0  0
    3.4371   -5.3177    0.5649 C   0  0  0  0  0  0  0  0  0  0  0  0
    4.6778   -3.7422    1.9829 C   0  0  0  0  0  0  0  0  0  0  0  0
    3.2425   -2.8075    0.0326 C   0  0  2  0  0  0  0  0  0  0  0  0
    2.7208   -3.2117   -1.3626 C   0  0  0  0  0  0  0  0  0  0  0  0
    3.8644   -3.4342   -2.3662 C   0  0  1  0  0  0  0  0  0  0  0  0
    4.1285   -2.1360   -3.1212 C   0  0  1  0  0  0  0  0  0  0  0  0
    3.0273   -1.5946   -3.8177 O   0  0  0  0  0  0  0  0  0  0  0  0
    4.7337   -1.1359   -2.1402 C   0  0  1  0  0  0  0  0  0  0  0  0
    3.7301   -0.7402   -1.2130 O   0  0  0  0  0  0  0  0  0  0  0  0
    3.7178   -1.2651    0.0861 C   0  0  1  0  0  0  0  0  0  0  0  0
    2.7494   -0.5821    0.8539 O   0  0  0  0  0  0  0  0  0  0  0  0
    5.0979   -0.8427    0.6651 C   0  0  0  0  0  0  0  0  0  0  0  0
    7.3651   -1.5211    1.6150 H   0  0  0  0  0  0  0  0  0  0  0  0
    8.3412   -1.5275    0.1551 H   0  0  0  0  0  0  0  0  0  0  0  0
    7.4876   -3.0075    0.6528 H   0  0  0  0  0  0  0  0  0  0  0  0
    6.6401   -2.9748   -3.0686 H   0  0  0  0  0  0  0  0  0  0  0  0
    7.3230   -3.4349   -1.5364 H   0  0  0  0  0  0  0  0  0  0  0  0
    5.3949   -4.9568   -2.2028 H   0  0  0  0  0  0  0  0  0  0  0  0
    2.4661   -5.2355    1.0527 H   0  0  0  0  0  0  0  0  0  0  0  0
    4.0128   -6.0890    1.0776 H   0  0  0  0  0  0  0  0  0  0  0  0
    3.2794   -5.7092   -0.4326 H   0  0  0  0  0  0  0  0  0  0  0  0
    3.9166   -3.2541    2.5928 H   0  0  0  0  0  0  0  0  0  0  0  0
    5.5824   -3.1455    2.0206 H   0  0  0  0  0  0  0  0  0  0  0  0
    4.9444   -4.6813    2.4702 H   0  0  0  0  0  0  0  0  0  0  0  0
    2.3744   -2.8571    0.6963 H   0  0  0  0  0  0  0  0  0  0  0  0
    2.1248   -4.1170   -1.2889 H   0  0  0  0  0  0  0  0  0  0  0  0
    2.0023   -2.5005   -1.7495 H   0  0  0  0  0  0  0  0  0  0  0  0
    3.5245   -4.1286   -3.1288 H   0  0  0  0  0  0  0  0  0  0  0  0
    4.8337   -2.3406   -3.9211 H   0  0  0  0  0  0  0  0  0  0  0  0
    2.3550   -1.3954   -3.1821 H   0  0  0  0  0  0  0  0  0  0  0  0
    5.0477   -0.2511   -2.6936 H   0  0  0  0  0  0  0  0  0  0  0  0
    1.9355   -0.6576    0.3509 H   0  0  0  0  0  0  0  0  0  0  0  0
    5.1558   -1.0957    1.7223 H   0  0  0  0  0  0  0  0  0  0  0  0
    5.1872    0.2406    0.6072 H   0  0  0  0  0  0  0  0  0  0  0  0
  1  2  1  0
  1 20  1  0
  1 21  1  0
  1 22  1  0
  2 19  1  0
  2  3  2  0
  3 15  1  0
  3  4  1  0
  4  5  1  0
  4 23  1  0
  4 24  1  0
  5 12  1  0
  5  6  1  0
  5 25  1  6
  6  7  1  0
  7  8  1  0
  7  9  1  0
  7 10  1  0
  8 26  1  0
  8 27  1  0
  8 28  1  0
  9 29  1  0
  9 30  1  0
  9 31  1  0
 10 17  1  0
 10 11  1  0
 10 32  1  1
 11 12  1  0
 11 33  1  0
 11 34  1  0
 12 13  1  0
 12 35  1  6
 13 14  1  0
 13 15  1  0
 13 36  1  6
 14 37  1  0
 15 16  1  0
 15 38  1  6
 16 17  1  0
 17 18  1  1
 17 19  1  0
 18 39  1  0
 19 40  1  0
 19 41  1  0
M  END
>  <i_m_ct_stereo_status>  (146) 
1

>  <s_m_source_file>  (146) 
/var/tmp/pbs.5076255.sched01/tmppm3sokcv/34yi_btuhz.sdf

>  <i_m_source_file_index>  (146) 
24

>  <i_lp_mmshare_version>  (146) 
48012

>  <i_f3d_flags>  (146) 
0

>  <s_epik_input>  (146) 
W0NIM11DKFtDSDJdMSk9QyhbQ0gyXTIpW0NASF0oTzMpW0NASF0oW09IXSlbQ0BIXShbQ0gyXTQpW0NAQEhdMk9DKFtDSDNdKShbQ0gzXSlbQ0BIXTRbQ0BAXTEzW09IXQ==

>  <s_epik_cmdline>  (146) 
J2VwaWtfcHl0aG9uJywgJy1waHQnLCAnMi4wJywgJy1waCcsICc3LjAnLCAnLXRuJywgJzgnLCAnLW1hJywgJzIwMCcsICctaW1hZScsICc8aW5maWxlLm1hZT4nLCAnLW9tYWUnLCAnPG91dGZpbGUubWFlPic=

>  <r_lp_tautomer_probability>  (146) 
1

>  <r_epik_Ionization_Penalty>  (146) 
1.7034e-07

>  <r_epik_Ionization_Penalty_Charging>  (146) 
0

>  <r_epik_Ionization_Penalty_Neutral>  (146) 
1.7034e-07

>  <r_epik_State_Penalty>  (146) 
-0

>  <r_epik_Charging_Adjusted_Penalty>  (146) 
0

>  <i_epik_Tot_Q>  (146) 
0

>  <i_epik_Tot_abs_Q>  (146) 
0

>  <s_lp_Force_Field>  (146) 
OPLS3e

>  <r_lp_Energy>  (146) 
71.6386

>  <b_lp_Chiralities_Consistent>  (146) 
1

>  <s_lp_Variant>  (146) 
41:0-1

>  <s_i_glide_gridfile>  (146) 
pfpi4k_grid

>  <i_i_glide_lignum>  (146) 
24

>  <i_i_glide_rotatable_bonds>  (146) 
2

>  <r_i_docking_score>  (146) 
-3.78304

>  <r_i_glide_ligand_efficiency>  (146) 
-0.199107

>  <r_i_glide_ligand_efficiency_sa>  (146) 
-0.531299

>  <r_i_glide_ligand_efficiency_ln>  (146) 
-0.959082

>  <r_i_glide_gscore>  (146) 
-3.78304

>  <r_i_glide_lipo>  (146) 
-0.439268

>  <r_i_glide_hbond>  (146) 
0

>  <r_i_glide_metal>  (146) 
-0

>  <r_i_glide_rewards>  (146) 
-1.59319

>  <r_i_glide_evdw>  (146) 
-16.0889

>  <r_i_glide_ecoul>  (146) 
-5.90529

>  <r_i_glide_erotb>  (146) 
0

>  <r_i_glide_esite>  (146) 
-0.0603478

>  <r_i_glide_emodel>  (146) 
-27.0203

>  <r_i_glide_energy>  (146) 
-21.9942

>  <r_i_glide_einternal>  (146) 
0.0968458

>  <r_i_glide_intrahb_reward>  (146) 
-0

>  <i_i_glide_confnum>  (146) 
1

>  <i_i_glide_posenum>  (146) 
17

>  <r_i_glide_eff_state_penalty>  (146) 
0

>  <ligand_id>  (146) 
41

>  <original_smiles>  (146) 
CC1=C2CC3OC(C)(C)C4CC3C(O)C2OC4(O)C1

>  <smiles>  (146) 
[H]OC1([H])C2([H])OC3(O[H])C([H])([H])C(C([H])([H])[H])=C2C([H])([H])C2([H])OC(C([H])([H])[H])(C([H])([H])[H])C3([H])C([H])([H])C21[H]

$$$$
41:0:1
     RDKit          3D

 41 44  0  0  1  0  0  0  0  0999 V2000
    4.4508   -5.5841    0.2339 C   0  0  0  0  0  0  0  0  0  0  0  0
    4.3025   -4.3734    1.1462 C   0  0  0  0  0  0  0  0  0  0  0  0
    5.3164   -3.6149    1.5998 C   0  0  0  0  0  0  0  0  0  0  0  0
    6.5526   -3.4490    0.7424 C   0  0  0  0  0  0  0  0  0  0  0  0
    6.2663   -2.1902   -0.1331 C   0  0  1  0  0  0  0  0  0  0  0  0
    5.3078   -2.6921   -1.0775 O   0  0  0  0  0  0  0  0  0  0  0  0
    4.0427   -2.0623   -1.2429 C   0  0  0  0  0  0  0  0  0  0  0  0
    4.3242   -1.0253   -2.3638 C   0  0  0  0  0  0  0  0  0  0  0  0
    3.0426   -3.0543   -1.8743 C   0  0  0  0  0  0  0  0  0  0  0  0
    3.5154   -1.3876    0.0669 C   0  0  2  0  0  0  0  0  0  0  0  0
    4.4860   -0.3218    0.5029 C   0  0  0  0  0  0  0  0  0  0  0  0
    5.8761   -0.9126    0.7250 C   0  0  1  0  0  0  0  0  0  0  0  0
    5.9706   -1.2381    2.2079 C   0  0  1  0  0  0  0  0  0  0  0  0
    5.8101   -0.1781    3.1260 O   0  0  0  0  0  0  0  0  0  0  0  0
    5.0573   -2.4280    2.5382 C   0  0  1  0  0  0  0  0  0  0  0  0
    3.7242   -1.9525    2.4571 O   0  0  0  0  0  0  0  0  0  0  0  0
    2.9626   -2.2336    1.3242 C   0  0  1  0  0  0  0  0  0  0  0  0
    1.6631   -1.7786    1.5923 O   0  0  0  0  0  0  0  0  0  0  0  0
    2.9158   -3.7980    1.2742 C   0  0  0  0  0  0  0  0  0  0  0  0
    3.4793   -6.0098   -0.0201 H   0  0  0  0  0  0  0  0  0  0  0  0
    5.0251   -6.3589    0.7421 H   0  0  0  0  0  0  0  0  0  0  0  0
    4.9550   -5.3361   -0.6998 H   0  0  0  0  0  0  0  0  0  0  0  0
    7.4362   -3.3258    1.3699 H   0  0  0  0  0  0  0  0  0  0  0  0
    6.7558   -4.3239    0.1192 H   0  0  0  0  0  0  0  0  0  0  0  0
    7.1706   -1.9659   -0.7008 H   0  0  0  0  0  0  0  0  0  0  0  0
    3.4762   -0.3532   -2.5143 H   0  0  0  0  0  0  0  0  0  0  0  0
    4.5306   -1.4990   -3.3279 H   0  0  0  0  0  0  0  0  0  0  0  0
    5.2005   -0.4077   -2.1555 H   0  0  0  0  0  0  0  0  0  0  0  0
    2.0148   -2.7144   -1.7553 H   0  0  0  0  0  0  0  0  0  0  0  0
    3.1268   -4.0422   -1.4381 H   0  0  0  0  0  0  0  0  0  0  0  0
    3.2080   -3.2067   -2.9430 H   0  0  0  0  0  0  0  0  0  0  0  0
    2.6624   -0.7779   -0.2707 H   0  0  0  0  0  0  0  0  0  0  0  0
    4.5495    0.4197   -0.2683 H   0  0  0  0  0  0  0  0  0  0  0  0
    4.1077    0.2468    1.3536 H   0  0  0  0  0  0  0  0  0  0  0  0
    6.6039   -0.1350    0.5025 H   0  0  0  0  0  0  0  0  0  0  0  0
    7.0057   -1.4840    2.3742 H   0  0  0  0  0  0  0  0  0  0  0  0
    6.5639    0.3897    3.0422 H   0  0  0  0  0  0  0  0  0  0  0  0
    5.2337   -2.7559    3.5634 H   0  0  0  0  0  0  0  0  0  0  0  0
    1.3299   -1.4392    0.7475 H   0  0  0  0  0  0  0  0  0  0  0  0
    2.2469   -4.1181    0.4780 H   0  0  0  0  0  0  0  0  0  0  0  0
    2.4775   -4.1576    2.2041 H   0  0  0  0  0  0  0  0  0  0  0  0
  1  2  1  0
  1 20  1  0
  1 21  1  0
  1 22  1  0
  2 19  1  0
  2  3  2  0
  3 15  1  0
  3  4  1  0
  4  5  1  0
  4 23  1  0
  4 24  1  0
  5 12  1  0
  5  6  1  0
  5 25  1  6
  6  7  1  0
  7  8  1  0
  7  9  1  0
  7 10  1  0
  8 26  1  0
  8 27  1  0
  8 28  1  0
  9 29  1  0
  9 30  1  0
  9 31  1  0
 10 17  1  0
 10 11  1  0
 10 32  1  6
 11 12  1  0
 11 33  1  0
 11 34  1  0
 12 13  1  0
 12 35  1  1
 13 14  1  0
 13 15  1  0
 13 36  1  6
 14 37  1  0
 15 16  1  0
 15 38  1  1
 16 17  1  0
 17 18  1  1
 17 19  1  0
 18 39  1  0
 19 40  1  0
 19 41  1  0
M  END
>  <i_m_ct_stereo_status>  (147) 
1

>  <s_m_source_file>  (147) 
/var/tmp/pbs.5076255.sched01/tmppm3sokcv/34yi_btuhz.sdf

>  <i_m_source_file_index>  (147) 
24

>  <i_lp_mmshare_version>  (147) 
48012

>  <i_f3d_flags>  (147) 
0

>  <s_epik_input>  (147) 
W0NIM11DKFtDSDJdMSk9QyhbQ0gyXTIpW0NASF0oTzMpW0NASF0oW09IXSlbQ0BIXShbQ0gyXTQpW0NAQEhdMk9DKFtDSDNdKShbQ0gzXSlbQ0BIXTRbQ0BAXTEzW09IXQ==

>  <s_epik_cmdline>  (147) 
J2VwaWtfcHl0aG9uJywgJy1waHQnLCAnMi4wJywgJy1waCcsICc3LjAnLCAnLXRuJywgJzgnLCAnLW1hJywgJzIwMCcsICctaW1hZScsICc8aW5maWxlLm1hZT4nLCAnLW9tYWUnLCAnPG91dGZpbGUubWFlPic=

>  <r_lp_tautomer_probability>  (147) 
1

>  <r_epik_Ionization_Penalty>  (147) 
1.7034e-07

>  <r_epik_Ionization_Penalty_Charging>  (147) 
0

>  <r_epik_Ionization_Penalty_Neutral>  (147) 
1.7034e-07

>  <r_epik_State_Penalty>  (147) 
-0

>  <r_epik_Charging_Adjusted_Penalty>  (147) 
0

>  <i_epik_Tot_Q>  (147) 
0

>  <i_epik_Tot_abs_Q>  (147) 
0

>  <s_lp_Force_Field>  (147) 
OPLS3e

>  <r_lp_Energy>  (147) 
71.6386

>  <b_lp_Chiralities_Consistent>  (147) 
1

>  <s_lp_Variant>  (147) 
41:0-1

>  <s_i_glide_gridfile>  (147) 
pfpi4k_grid

>  <i_i_glide_lignum>  (147) 
24

>  <i_i_glide_rotatable_bonds>  (147) 
2

>  <r_i_docking_score>  (147) 
-3.69829

>  <r_i_glide_ligand_efficiency>  (147) 
-0.194647

>  <r_i_glide_ligand_efficiency_sa>  (147) 
-0.519396

>  <r_i_glide_ligand_efficiency_ln>  (147) 
-0.937595

>  <r_i_glide_gscore>  (147) 
-3.69829

>  <r_i_glide_lipo>  (147) 
-0.669939

>  <r_i_glide_hbond>  (147) 
0

>  <r_i_glide_metal>  (147) 
-0

>  <r_i_glide_rewards>  (147) 
-1.59319

>  <r_i_glide_evdw>  (147) 
-14.5405

>  <r_i_glide_ecoul>  (147) 
-4.54906

>  <r_i_glide_erotb>  (147) 
0

>  <r_i_glide_esite>  (147) 
-0.0257762

>  <r_i_glide_emodel>  (147) 
-22.7812

>  <r_i_glide_energy>  (147) 
-19.0896

>  <r_i_glide_einternal>  (147) 
2.42044

>  <r_i_glide_intrahb_reward>  (147) 
-0

>  <i_i_glide_confnum>  (147) 
1

>  <i_i_glide_posenum>  (147) 
2

>  <r_i_glide_eff_state_penalty>  (147) 
0

>  <ligand_id>  (147) 
41

>  <original_smiles>  (147) 
CC1=C2CC3OC(C)(C)C4CC3C(O)C2OC4(O)C1

>  <smiles>  (147) 
[H]OC1([H])C2([H])OC3(O[H])C([H])([H])C(C([H])([H])[H])=C2C([H])([H])C2([H])OC(C([H])([H])[H])(C([H])([H])[H])C3([H])C([H])([H])C21[H]

$$$$
41:0:2
     RDKit          3D

 41 44  0  0  1  0  0  0  0  0999 V2000
    8.1631   -2.6723   -0.1434 C   0  0  0  0  0  0  0  0  0  0  0  0
    6.8445   -1.9417   -0.3712 C   0  0  0  0  0  0  0  0  0  0  0  0
    6.1416   -1.9644   -1.5198 C   0  0  0  0  0  0  0  0  0  0  0  0
    6.2038   -3.1860   -2.3994 C   0  0  0  0  0  0  0  0  0  0  0  0
    5.0247   -4.0653   -1.8966 C   0  0  1  0  0  0  0  0  0  0  0  0
    5.5277   -4.5253   -0.6244 O   0  0  0  0  0  0  0  0  0  0  0  0
    4.7835   -4.3642    0.5777 C   0  0  0  0  0  0  0  0  0  0  0  0
    3.8983   -5.6399    0.6344 C   0  0  0  0  0  0  0  0  0  0  0  0
    5.7409   -4.4709    1.7821 C   0  0  0  0  0  0  0  0  0  0  0  0
    3.9140   -3.0618    0.6063 C   0  0  2  0  0  0  0  0  0  0  0  0
    2.9251   -3.1590   -0.5608 C   0  0  0  0  0  0  0  0  0  0  0  0
    3.6341   -3.3079   -1.9235 C   0  0  1  0  0  0  0  0  0  0  0  0
    3.8216   -1.9167   -2.5251 C   0  0  1  0  0  0  0  0  0  0  0  0
    2.6261   -1.1940   -2.7278 O   0  0  0  0  0  0  0  0  0  0  0  0
    4.8480   -1.1552   -1.6791 C   0  0  1  0  0  0  0  0  0  0  0  0
    4.2395   -0.8331   -0.4246 O   0  0  0  0  0  0  0  0  0  0  0  0
    4.5814   -1.5868    0.7017 C   0  0  1  0  0  0  0  0  0  0  0  0
    4.0038   -0.9543    1.8173 O   0  0  0  0  0  0  0  0  0  0  0  0
    6.1261   -1.4083    0.8443 C   0  0  0  0  0  0  0  0  0  0  0  0
    8.5258   -2.5215    0.8742 H   0  0  0  0  0  0  0  0  0  0  0  0
    8.9279   -2.2877   -0.8189 H   0  0  0  0  0  0  0  0  0  0  0  0
    8.0711   -3.7452   -0.3088 H   0  0  0  0  0  0  0  0  0  0  0  0
    6.1024   -2.9342   -3.4516 H   0  0  0  0  0  0  0  0  0  0  0  0
    7.1506   -3.7104   -2.3209 H   0  0  0  0  0  0  0  0  0  0  0  0
    4.9849   -4.9382   -2.5493 H   0  0  0  0  0  0  0  0  0  0  0  0
    3.1562   -5.5743    1.4292 H   0  0  0  0  0  0  0  0  0  0  0  0
    4.4884   -6.5385    0.8079 H   0  0  0  0  0  0  0  0  0  0  0  0
    3.3738   -5.8247   -0.3023 H   0  0  0  0  0  0  0  0  0  0  0  0
    5.2975   -4.0389    2.6792 H   0  0  0  0  0  0  0  0  0  0  0  0
    6.6839   -3.9714    1.5990 H   0  0  0  0  0  0  0  0  0  0  0  0
    6.0111   -5.5010    2.0076 H   0  0  0  0  0  0  0  0  0  0  0  0
    3.3037   -3.1526    1.5078 H   0  0  0  0  0  0  0  0  0  0  0  0
    2.2544   -4.0027   -0.4332 H   0  0  0  0  0  0  0  0  0  0  0  0
    2.2505   -2.3162   -0.5185 H   0  0  0  0  0  0  0  0  0  0  0  0
    2.9622   -3.8462   -2.5929 H   0  0  0  0  0  0  0  0  0  0  0  0
    4.2002   -2.0136   -3.5403 H   0  0  0  0  0  0  0  0  0  0  0  0
    2.1086   -1.1555   -1.9227 H   0  0  0  0  0  0  0  0  0  0  0  0
    5.0995   -0.2274   -2.1935 H   0  0  0  0  0  0  0  0  0  0  0  0
    4.1787   -0.0284    1.7417 H   0  0  0  0  0  0  0  0  0  0  0  0
    6.4767   -1.8654    1.7685 H   0  0  0  0  0  0  0  0  0  0  0  0
    6.3583   -0.3452    0.9168 H   0  0  0  0  0  0  0  0  0  0  0  0
  1  2  1  0
  1 20  1  0
  1 21  1  0
  1 22  1  0
  2 19  1  0
  2  3  2  0
  3 15  1  0
  3  4  1  0
  4  5  1  0
  4 23  1  0
  4 24  1  0
  5 12  1  0
  5  6  1  0
  5 25  1  6
  6  7  1  0
  7  8  1  0
  7  9  1  0
  7 10  1  0
  8 26  1  0
  8 27  1  0
  8 28  1  0
  9 29  1  0
  9 30  1  0
  9 31  1  0
 10 17  1  0
 10 11  1  0
 10 32  1  1
 11 12  1  0
 11 33  1  0
 11 34  1  0
 12 13  1  0
 12 35  1  6
 13 14  1  0
 13 15  1  0
 13 36  1  6
 14 37  1  0
 15 16  1  0
 15 38  1  6
 16 17  1  0
 17 18  1  1
 17 19  1  0
 18 39  1  0
 19 40  1  0
 19 41  1  0
M  END
>  <i_m_ct_stereo_status>  (148) 
1

>  <s_m_source_file>  (148) 
/var/tmp/pbs.5076255.sched01/tmppm3sokcv/34yi_btuhz.sdf

>  <i_m_source_file_index>  (148) 
24

>  <i_lp_mmshare_version>  (148) 
48012

>  <i_f3d_flags>  (148) 
0

>  <s_epik_input>  (148) 
W0NIM11DKFtDSDJdMSk9QyhbQ0gyXTIpW0NASF0oTzMpW0NASF0oW09IXSlbQ0BIXShbQ0gyXTQpW0NAQEhdMk9DKFtDSDNdKShbQ0gzXSlbQ0BIXTRbQ0BAXTEzW09IXQ==

>  <s_epik_cmdline>  (148) 
J2VwaWtfcHl0aG9uJywgJy1waHQnLCAnMi4wJywgJy1waCcsICc3LjAnLCAnLXRuJywgJzgnLCAnLW1hJywgJzIwMCcsICctaW1hZScsICc8aW5maWxlLm1hZT4nLCAnLW9tYWUnLCAnPG91dGZpbGUubWFlPic=

>  <r_lp_tautomer_probability>  (148) 
1

>  <r_epik_Ionization_Penalty>  (148) 
1.7034e-07

>  <r_epik_Ionization_Penalty_Charging>  (148) 
0

>  <r_epik_Ionization_Penalty_Neutral>  (148) 
1.7034e-07

>  <r_epik_State_Penalty>  (148) 
-0

>  <r_epik_Charging_Adjusted_Penalty>  (148) 
0

>  <i_epik_Tot_Q>  (148) 
0

>  <i_epik_Tot_abs_Q>  (148) 
0

>  <s_lp_Force_Field>  (148) 
OPLS3e

>  <r_lp_Energy>  (148) 
71.6386

>  <b_lp_Chiralities_Consistent>  (148) 
1

>  <s_lp_Variant>  (148) 
41:0-1

>  <s_i_glide_gridfile>  (148) 
pfpi4k_grid

>  <i_i_glide_lignum>  (148) 
24

>  <i_i_glide_rotatable_bonds>  (148) 
2

>  <r_i_docking_score>  (148) 
-3.67141

>  <r_i_glide_ligand_efficiency>  (148) 
-0.193232

>  <r_i_glide_ligand_efficiency_sa>  (148) 
-0.515621

>  <r_i_glide_ligand_efficiency_ln>  (148) 
-0.930781

>  <r_i_glide_gscore>  (148) 
-3.67141

>  <r_i_glide_lipo>  (148) 
-0.550726

>  <r_i_glide_hbond>  (148) 
0

>  <r_i_glide_metal>  (148) 
-0

>  <r_i_glide_rewards>  (148) 
-1.59353

>  <r_i_glide_evdw>  (148) 
-20.0018

>  <r_i_glide_ecoul>  (148) 
-3.51374

>  <r_i_glide_erotb>  (148) 
0

>  <r_i_glide_esite>  (148) 
0

>  <r_i_glide_emodel>  (148) 
-28.107

>  <r_i_glide_energy>  (148) 
-23.5156

>  <r_i_glide_einternal>  (148) 
0.781221

>  <r_i_glide_intrahb_reward>  (148) 
-0

>  <i_i_glide_confnum>  (148) 
1

>  <i_i_glide_posenum>  (148) 
19

>  <r_i_glide_eff_state_penalty>  (148) 
0

>  <ligand_id>  (148) 
41

>  <original_smiles>  (148) 
CC1=C2CC3OC(C)(C)C4CC3C(O)C2OC4(O)C1

>  <smiles>  (148) 
[H]OC1([H])C2([H])OC3(O[H])C([H])([H])C(C([H])([H])[H])=C2C([H])([H])C2([H])OC(C([H])([H])[H])(C([H])([H])[H])C3([H])C([H])([H])C21[H]

$$$$
42:0:0
     RDKit          3D

105113  0  0  1  0  0  0  0  0999 V2000
    4.5438   -2.1691    2.0119 C   0  0  0  0  0  0  0  0  0  0  0  0
    3.3052   -1.3533    2.4317 C   0  0  2  0  0  0  0  0  0  0  0  0
    3.7182    0.0955    2.7539 C   0  0  0  0  0  0  0  0  0  0  0  0
    2.8388    1.0570    3.5962 C   0  0  1  0  0  0  0  0  0  0  0  0
    2.6147    2.2084    2.7929 O   0  0  0  0  0  0  0  0  0  0  0  0
    1.5648    0.5774    4.4343 C   0  0  2  0  0  0  0  0  0  0  0  0
    1.4368    0.5406    5.9993 C   0  0  1  0  0  0  0  0  0  0  0  0
    2.3849    1.5187    6.7781 C   0  0  0  0  0  0  0  0  0  0  0  0
    2.3932    2.8480    6.2728 O   0  0  0  0  0  0  0  0  0  0  0  0
   -0.0457    1.1761    6.1681 C   0  0  0  0  0  0  0  0  0  0  0  0
   -1.1123    0.9843    4.9978 C   0  0  1  0  0  0  0  0  0  0  0  0
   -0.8832    1.6725    3.7444 O   0  0  0  0  0  0  0  0  0  0  0  0
   -0.2171    0.7912    2.7914 C   0  0  0  0  0  0  0  0  0  0  0  0
    0.4021   -0.2600    3.7490 C   0  0  1  0  0  0  0  0  0  0  0  0
    0.8711   -1.6384    3.2050 C   0  0  0  0  0  0  0  0  0  0  0  0
    2.3499   -2.1308    3.3838 C   0  0  2  0  0  0  0  0  0  0  0  0
    2.9220   -2.8762    4.6909 C   0  0  2  0  0  0  0  0  0  0  0  0
    2.0926   -4.1304    5.2103 C   0  0  2  0  0  0  0  0  0  0  0  0
    0.6656   -4.1597    5.1753 O   0  0  0  0  0  0  0  0  0  0  0  0
    0.0839   -5.3749    5.6314 C   0  0  1  0  0  0  0  0  0  0  0  0
    0.2998   -6.5159    4.6352 C   0  0  0  0  0  0  0  0  0  0  0  0
    0.1020   -7.8557    5.0303 C   0  0  0  0  0  0  0  0  0  0  0  0
    0.2591   -8.9087    4.1091 C   0  0  0  0  0  0  0  0  0  0  0  0
    0.6067   -8.6277    2.7749 C   0  0  0  0  0  0  0  0  0  0  0  0
    0.7818   -7.2956    2.3594 C   0  0  0  0  0  0  0  0  0  0  0  0
    0.6090   -6.2517    3.2840 C   0  0  0  0  0  0  0  0  0  0  0  0
    0.4688   -5.7436    6.9461 O   0  0  0  0  0  0  0  0  0  0  0  0
    1.8792   -5.7429    7.2078 C   0  0  2  0  0  0  0  0  0  0  0  0
    2.3888   -5.6000    8.6882 C   0  0  1  0  0  0  0  0  0  0  0  0
    3.3672   -6.5879    8.9311 O   0  0  0  0  0  0  0  0  0  0  0  0
    2.9852   -4.1263    8.8505 C   0  0  2  0  0  0  0  0  0  0  0  0
    3.0093   -3.5122   10.3028 C   0  0  0  0  0  0  0  0  0  0  0  0
    3.6697   -4.4853   11.3042 C   0  0  0  0  0  0  0  0  0  0  0  0
    3.8376   -2.2025   10.3559 C   0  0  0  0  0  0  0  0  0  0  0  0
    1.5810   -3.2102   10.7972 C   0  0  0  0  0  0  0  0  0  0  0  0
    0.7521   -2.4505    9.7588 C   0  0  0  0  0  0  0  0  0  0  0  0
    0.7718   -3.2446    8.4505 C   0  0  1  0  0  0  0  0  0  0  0  0
   -0.3411   -2.9947    7.6581 O   0  0  0  0  0  0  0  0  0  0  0  0
    2.2001   -3.3239    7.7351 C   0  0  2  0  0  0  0  0  0  0  0  0
    2.3954   -4.4485    6.6634 C   0  0  2  0  0  0  0  0  0  0  0  0
    2.7272   -1.9152    7.0786 C   0  0  2  0  0  0  0  0  0  0  0  0
    1.5057   -0.9520    6.6309 C   0  0  0  0  0  0  0  0  0  0  0  0
    3.7414   -2.1827    5.8867 C   0  0  0  0  0  0  0  0  0  0  0  0
    5.0313   -3.0231    6.2637 C   0  0  0  0  0  0  0  0  0  0  0  0
    4.4991   -0.8998    5.5976 C   0  0  0  0  0  0  0  0  0  0  0  0
   -1.0005   -0.4019    4.4692 C   0  0  1  0  0  0  0  0  0  0  0  0
   -1.4771   -1.4602    5.4652 C   0  0  0  0  0  0  0  0  0  0  0  0
    5.2413   -2.3056    2.8383 H   0  0  0  0  0  0  0  0  0  0  0  0
    5.0868   -1.6654    1.2112 H   0  0  0  0  0  0  0  0  0  0  0  0
    4.2639   -3.1553    1.6418 H   0  0  0  0  0  0  0  0  0  0  0  0
    2.7360   -1.2452    1.5069 H   0  0  0  0  0  0  0  0  0  0  0  0
    4.7221    0.1201    3.1667 H   0  0  0  0  0  0  0  0  0  0  0  0
    3.8960    0.5603    1.7814 H   0  0  0  0  0  0  0  0  0  0  0  0
    3.5228    1.5259    4.3001 H   0  0  0  0  0  0  0  0  0  0  0  0
    3.4569    2.5253    2.4783 H   0  0  0  0  0  0  0  0  0  0  0  0
    1.2405    1.6100    4.3920 H   0  0  0  0  0  0  0  0  0  0  0  0
    2.0581    1.5580    7.8189 H   0  0  0  0  0  0  0  0  0  0  0  0
    3.4225    1.2043    6.8168 H   0  0  0  0  0  0  0  0  0  0  0  0
    2.5284    2.8257    5.3341 H   0  0  0  0  0  0  0  0  0  0  0  0
   -0.4784    0.8210    7.1027 H   0  0  0  0  0  0  0  0  0  0  0  0
    0.0021    2.2571    6.3154 H   0  0  0  0  0  0  0  0  0  0  0  0
   -2.1198    1.2074    5.3522 H   0  0  0  0  0  0  0  0  0  0  0  0
   -0.9444    0.3794    2.0896 H   0  0  0  0  0  0  0  0  0  0  0  0
    0.4861    1.3202    2.1585 H   0  0  0  0  0  0  0  0  0  0  0  0
    0.2163   -2.4226    3.5669 H   0  0  0  0  0  0  0  0  0  0  0  0
    0.6484   -1.6298    2.1384 H   0  0  0  0  0  0  0  0  0  0  0  0
    2.2297   -3.0338    2.7829 H   0  0  0  0  0  0  0  0  0  0  0  0
    3.7491   -3.3927    4.2068 H   0  0  0  0  0  0  0  0  0  0  0  0
    2.4504   -4.9705    4.6165 H   0  0  0  0  0  0  0  0  0  0  0  0
   -0.9854   -5.1811    5.7039 H   0  0  0  0  0  0  0  0  0  0  0  0
   -0.1707   -8.0904    6.0463 H   0  0  0  0  0  0  0  0  0  0  0  0
    0.1040   -9.9344    4.4215 H   0  0  0  0  0  0  0  0  0  0  0  0
    0.7386   -9.4381    2.0663 H   0  0  0  0  0  0  0  0  0  0  0  0
    1.0448   -7.0807    1.3317 H   0  0  0  0  0  0  0  0  0  0  0  0
    0.7372   -5.2365    2.9464 H   0  0  0  0  0  0  0  0  0  0  0  0
    2.3281   -6.6043    6.7085 H   0  0  0  0  0  0  0  0  0  0  0  0
    1.5847   -5.8129    9.3963 H   0  0  0  0  0  0  0  0  0  0  0  0
    2.9504   -7.4352    8.8616 H   0  0  0  0  0  0  0  0  0  0  0  0
    4.0330   -4.2178    8.5809 H   0  0  0  0  0  0  0  0  0  0  0  0
    3.7246   -4.0421   12.3000 H   0  0  0  0  0  0  0  0  0  0  0  0
    4.6858   -4.7455   11.0043 H   0  0  0  0  0  0  0  0  0  0  0  0
    3.1012   -5.4096   11.4042 H   0  0  0  0  0  0  0  0  0  0  0  0
    4.0598   -1.9176   11.3862 H   0  0  0  0  0  0  0  0  0  0  0  0
    3.3056   -1.3492    9.9378 H   0  0  0  0  0  0  0  0  0  0  0  0
    4.7910   -2.2958    9.8312 H   0  0  0  0  0  0  0  0  0  0  0  0
    1.0743   -4.1461   11.0309 H   0  0  0  0  0  0  0  0  0  0  0  0
    1.6067   -2.6517   11.7308 H   0  0  0  0  0  0  0  0  0  0  0  0
   -0.2699   -2.3694   10.1287 H   0  0  0  0  0  0  0  0  0  0  0  0
    1.1141   -1.4360    9.6226 H   0  0  0  0  0  0  0  0  0  0  0  0
    0.4249   -4.2118    8.7840 H   0  0  0  0  0  0  0  0  0  0  0  0
   -0.2775   -3.5834    6.9176 H   0  0  0  0  0  0  0  0  0  0  0  0
    3.4259   -4.7546    6.6174 H   0  0  0  0  0  0  0  0  0  0  0  0
    3.2763   -1.3730    7.8394 H   0  0  0  0  0  0  0  0  0  0  0  0
    0.9097   -0.8362    7.5256 H   0  0  0  0  0  0  0  0  0  0  0  0
    0.9438   -1.5899    5.9710 H   0  0  0  0  0  0  0  0  0  0  0  0
    5.9737   -2.6262    5.8815 H   0  0  0  0  0  0  0  0  0  0  0  0
    5.0717   -4.0255    5.8404 H   0  0  0  0  0  0  0  0  0  0  0  0
    5.1957   -3.0624    7.3359 H   0  0  0  0  0  0  0  0  0  0  0  0
    5.0209   -0.5365    6.4849 H   0  0  0  0  0  0  0  0  0  0  0  0
    3.8063   -0.1594    5.3409 H   0  0  0  0  0  0  0  0  0  0  0  0
    5.2399   -1.0054    4.8075 H   0  0  0  0  0  0  0  0  0  0  0  0
   -1.7837   -0.5625    3.7221 H   0  0  0  0  0  0  0  0  0  0  0  0
   -1.2324   -1.1743    6.4786 H   0  0  0  0  0  0  0  0  0  0  0  0
   -1.1261   -2.4641    5.2467 H   0  0  0  0  0  0  0  0  0  0  0  0
   -2.5669   -1.5120    5.4501 H   0  0  0  0  0  0  0  0  0  0  0  0
  1  2  1  0
  1 48  1  0
  1 49  1  0
  1 50  1  0
  2 16  1  0
  2  3  1  0
  2 51  1  6
  3  4  1  0
  3 52  1  0
  3 53  1  0
  4  5  1  0
  4  6  1  0
  4 54  1  1
  5 55  1  0
  6 14  1  0
  6  7  1  0
  6 56  1  6
  7 42  1  0
  7  8  1  1
  7 10  1  0
  8  9  1  0
  8 57  1  0
  8 58  1  0
  9 59  1  0
 10 11  1  0
 10 60  1  0
 10 61  1  0
 11 46  1  0
 11 12  1  0
 11 62  1  1
 12 13  1  0
 14 13  1  6
 13 63  1  0
 13 64  1  0
 14 15  1  0
 14 46  1  0
 15 16  1  0
 15 65  1  0
 15 66  1  0
 16 17  1  0
 16 67  1  6
 17 43  1  0
 17 18  1  0
 17 68  1  6
 18 40  1  0
 18 19  1  0
 18 69  1  6
 19 20  1  0
 20 21  1  0
 20 27  1  0
 20 70  1  1
 21 26  1  0
 21 22  2  0
 22 23  1  0
 22 71  1  0
 23 24  2  0
 23 72  1  0
 24 25  1  0
 24 73  1  0
 25 26  2  0
 25 74  1  0
 26 75  1  0
 27 28  1  0
 28 40  1  0
 28 29  1  0
 28 76  1  6
 29 30  1  0
 29 31  1  0
 29 77  1  1
 30 78  1  0
 31 39  1  0
 31 32  1  0
 31 79  1  6
 32 33  1  0
 32 34  1  0
 32 35  1  0
 33 80  1  0
 33 81  1  0
 33 82  1  0
 34 83  1  0
 34 84  1  0
 34 85  1  0
 35 36  1  0
 35 86  1  0
 35 87  1  0
 36 37  1  0
 36 88  1  0
 36 89  1  0
 37 38  1  0
 39 37  1  1
 37 90  1  1
 38 91  1  0
 39 40  1  0
 39 41  1  0
 40 92  1  6
 41 42  1  0
 41 43  1  0
 41 93  1  1
 42 94  1  0
 42 95  1  0
 43 44  1  0
 43 45  1  0
 44 96  1  0
 44 97  1  0
 44 98  1  0
 45 99  1  0
 45100  1  0
 45101  1  0
 46 47  1  0
 46102  1  6
 47103  1  0
 47104  1  0
 47105  1  0
M  END
>  <i_m_ct_stereo_status>  (149) 
1

>  <s_m_source_file>  (149) 
/var/tmp/pbs.5076255.sched01/tmppm3sokcv/34yi_btuhz.sdf

>  <i_m_source_file_index>  (149) 
25

>  <i_lp_mmshare_version>  (149) 
48012

>  <i_f3d_flags>  (149) 
0

>  <s_epik_input>  (149) 
W2NIXTFbY0hdW2NIXVtjSF1bY0hdYzFbQ0BASF0oTzIpT1tDQEBIXShbQ0BIXShDMyhbQ0gzXSlbQ0gzXSlbQ0hdKFtDSDJdNClbQ0BIXShbQ0gzXSlbQ0gyXVtDQEhdNVtPSF0pW0NAQEhdNltDQEhdMltDQEBIXShbT0hdKVtDQEhdKEMoW0NIM10pKFtDSDNdKVtDSDJdW0NIMl1bQ0BIXTdbT0hdKVtDQEBdNjdbQ0BASF0zW0NIMl1bQ0BdKFtDQEBIXTVbQ0BdNDg5KShbQ0gyXVtPSF0pW0NIMl1bQ0BASF0oT1tDSDJdOClbQ0BASF05W0NIM10=

>  <s_epik_cmdline>  (149) 
J2VwaWtfcHl0aG9uJywgJy1waHQnLCAnMi4wJywgJy1waCcsICc3LjAnLCAnLXRuJywgJzgnLCAnLW1hJywgJzIwMCcsICctaW1hZScsICc8aW5maWxlLm1hZT4nLCAnLW9tYWUnLCAnPG91dGZpbGUubWFlPic=

>  <r_lp_tautomer_probability>  (149) 
1

>  <r_epik_Ionization_Penalty>  (149) 
2.76444e-06

>  <r_epik_Ionization_Penalty_Charging>  (149) 
0

>  <r_epik_Ionization_Penalty_Neutral>  (149) 
2.76444e-06

>  <r_epik_State_Penalty>  (149) 
-0

>  <r_epik_Charging_Adjusted_Penalty>  (149) 
0

>  <i_epik_Tot_Q>  (149) 
0

>  <i_epik_Tot_abs_Q>  (149) 
0

>  <s_epik_Chemistry_Notes>  (149) 
This compound contains an acetal/aminal-like group ( X-CH(R)-Y where X, Y are N, S, or O) that may be acid/base labile, releasing an aldehyde.

>  <s_lp_Force_Field>  (149) 
OPLS3e

>  <r_lp_Energy>  (149) 
288.449

>  <b_lp_Chiralities_Consistent>  (149) 
1

>  <s_lp_Variant>  (149) 
42:0-1

>  <s_i_glide_gridfile>  (149) 
pfpi4k_grid

>  <i_i_glide_lignum>  (149) 
25

>  <i_i_glide_rotatable_bonds>  (149) 
6

>  <r_i_docking_score>  (149) 
-2.24547

>  <r_i_glide_ligand_efficiency>  (149) 
-0.0477759

>  <r_i_glide_ligand_efficiency_sa>  (149) 
-0.172415

>  <r_i_glide_ligand_efficiency_ln>  (149) 
-0.462969

>  <r_i_glide_gscore>  (149) 
-2.24547

>  <r_i_glide_lipo>  (149) 
-0.0500546

>  <r_i_glide_hbond>  (149) 
-0.303572

>  <r_i_glide_metal>  (149) 
-0

>  <r_i_glide_rewards>  (149) 
0

>  <r_i_glide_evdw>  (149) 
-26.4235

>  <r_i_glide_ecoul>  (149) 
-4.43498

>  <r_i_glide_erotb>  (149) 
0.100258

>  <r_i_glide_esite>  (149) 
-0.00567889

>  <r_i_glide_emodel>  (149) 
-33.1522

>  <r_i_glide_energy>  (149) 
-30.8584

>  <r_i_glide_einternal>  (149) 
3.04674

>  <r_i_glide_intrahb_reward>  (149) 
-0

>  <i_i_glide_confnum>  (149) 
3

>  <i_i_glide_posenum>  (149) 
9

>  <r_i_glide_eff_state_penalty>  (149) 
0

>  <ligand_id>  (149) 
42

>  <original_smiles>  (149) 
CC1CC(O)C2C3(CO)CC4OCC2(CC1C1C2OC(c5ccccc5)OC5C(O)C6C(C)(C)CCC(O)C6(C52)C(C3)C1(C)C)C4C

>  <smiles>  (149) 
[H]OC([H])([H])C12C([H])([H])C3([H])OC([H])([H])C4(C([H])([H])C([H])(C([H])(C([H])([H])[H])C([H])([H])C([H])(O[H])C14[H])C1([H])C4([H])OC([H])(c5c([H])c([H])c([H])c([H])c5[H])OC5([H])C([H])(O[H])C6([H])C(C([H])([H])[H])(C([H])([H])[H])C([H])([H])C([H])([H])C([H])(O[H])C6(C54[H])C([H])(C2([H])[H])C1(C([H])([H])[H])C([H])([H])[H])C3([H])C([H])([H])[H]

$$$$
42:0:1
     RDKit          3D

105113  0  0  1  0  0  0  0  0999 V2000
    2.6854   -2.9911    0.0314 C   0  0  0  0  0  0  0  0  0  0  0  0
    2.3297   -2.2410    1.3375 C   0  0  2  0  0  0  0  0  0  0  0  0
    3.1487   -0.9366    1.4421 C   0  0  0  0  0  0  0  0  0  0  0  0
    3.3538   -0.1745    2.7830 C   0  0  1  0  0  0  0  0  0  0  0  0
    2.8711    1.1467    2.5708 O   0  0  0  0  0  0  0  0  0  0  0  0
    2.9688   -0.7900    4.2061 C   0  0  2  0  0  0  0  0  0  0  0  0
    3.9606   -1.2420    5.3359 C   0  0  1  0  0  0  0  0  0  0  0  0
    5.3517   -0.5309    5.2947 C   0  0  0  0  0  0  0  0  0  0  0  0
    6.1367   -0.8392    6.4304 O   0  0  0  0  0  0  0  0  0  0  0  0
    3.2204   -0.5738    6.6093 C   0  0  0  0  0  0  0  0  0  0  0  0
    1.6355   -0.3976    6.5839 C   0  0  1  0  0  0  0  0  0  0  0  0
    1.0672    0.5739    5.6725 O   0  0  0  0  0  0  0  0  0  0  0  0
    0.6553   -0.0743    4.4319 C   0  0  0  0  0  0  0  0  0  0  0  0
    1.5127   -1.3630    4.4786 C   0  0  1  0  0  0  0  0  0  0  0  0
    1.1382   -2.5801    3.5893 C   0  0  0  0  0  0  0  0  0  0  0  0
    2.1612   -3.1843    2.5616 C   0  0  2  0  0  0  0  0  0  0  0  0
    3.2827   -4.2752    2.9044 C   0  0  2  0  0  0  0  0  0  0  0  0
    2.7967   -5.5740    3.6852 C   0  0  2  0  0  0  0  0  0  0  0  0
    1.7868   -5.5250    4.6889 O   0  0  0  0  0  0  0  0  0  0  0  0
    1.4693   -6.7850    5.2691 C   0  0  1  0  0  0  0  0  0  0  0  0
    0.6482   -7.6472    4.3064 C   0  0  0  0  0  0  0  0  0  0  0  0
    0.9832   -8.9914    4.0330 C   0  0  0  0  0  0  0  0  0  0  0  0
    0.2324   -9.7475    3.1169 C   0  0  0  0  0  0  0  0  0  0  0  0
   -0.9148   -9.1942    2.5269 C   0  0  0  0  0  0  0  0  0  0  0  0
   -1.3049   -7.8810    2.8436 C   0  0  0  0  0  0  0  0  0  0  0  0
   -0.5151   -7.1126    3.7290 C   0  0  0  0  0  0  0  0  0  0  0  0
    2.5831   -7.4863    5.7959 O   0  0  0  0  0  0  0  0  0  0  0  0
    3.7366   -7.6086    4.9478 C   0  0  2  0  0  0  0  0  0  0  0  0
    5.1380   -7.8792    5.5958 C   0  0  1  0  0  0  0  0  0  0  0  0
    5.7489   -8.9524    4.9153 O   0  0  0  0  0  0  0  0  0  0  0  0
    5.9766   -6.5310    5.4612 C   0  0  2  0  0  0  0  0  0  0  0  0
    7.1430   -6.3147    6.4960 C   0  0  0  0  0  0  0  0  0  0  0  0
    8.0743   -7.5478    6.5477 C   0  0  0  0  0  0  0  0  0  0  0  0
    8.0305   -5.1089    6.1032 C   0  0  0  0  0  0  0  0  0  0  0  0
    6.5835   -6.0738    7.9141 C   0  0  0  0  0  0  0  0  0  0  0  0
    5.4649   -5.0292    7.9282 C   0  0  0  0  0  0  0  0  0  0  0  0
    4.3854   -5.4606    6.9328 C   0  0  1  0  0  0  0  0  0  0  0  0
    3.1339   -4.9586    7.2491 O   0  0  0  0  0  0  0  0  0  0  0  0
    4.8378   -5.4331    5.3989 C   0  0  2  0  0  0  0  0  0  0  0  0
    3.9647   -6.2479    4.3930 C   0  0  2  0  0  0  0  0  0  0  0  0
    5.0448   -3.9376    4.7637 C   0  0  2  0  0  0  0  0  0  0  0  0
    4.1101   -2.8431    5.4902 C   0  0  0  0  0  0  0  0  0  0  0  0
    4.8299   -3.9508    3.1888 C   0  0  0  0  0  0  0  0  0  0  0  0
    5.7873   -4.9192    2.3820 C   0  0  0  0  0  0  0  0  0  0  0  0
    5.3968   -2.6740    2.6002 C   0  0  0  0  0  0  0  0  0  0  0  0
    1.0298   -1.6089    5.9647 C   0  0  1  0  0  0  0  0  0  0  0  0
    1.1679   -2.8603    6.8340 C   0  0  0  0  0  0  0  0  0  0  0  0
    3.7025   -3.3828    0.0502 H   0  0  0  0  0  0  0  0  0  0  0  0
    2.6134   -2.3272   -0.8324 H   0  0  0  0  0  0  0  0  0  0  0  0
    2.0136   -3.8266   -0.1600 H   0  0  0  0  0  0  0  0  0  0  0  0
    1.3235   -1.8577    1.1877 H   0  0  0  0  0  0  0  0  0  0  0  0
    4.1166   -1.0626    0.9701 H   0  0  0  0  0  0  0  0  0  0  0  0
    2.6831   -0.2560    0.7262 H   0  0  0  0  0  0  0  0  0  0  0  0
    4.4122    0.0760    2.8278 H   0  0  0  0  0  0  0  0  0  0  0  0
    3.5362    1.6490    2.1181 H   0  0  0  0  0  0  0  0  0  0  0  0
    2.9718    0.2377    4.5602 H   0  0  0  0  0  0  0  0  0  0  0  0
    5.9451   -0.7483    4.4134 H   0  0  0  0  0  0  0  0  0  0  0  0
    5.2198    0.5534    5.2719 H   0  0  0  0  0  0  0  0  0  0  0  0
    6.9311   -0.3223    6.3954 H   0  0  0  0  0  0  0  0  0  0  0  0
    3.5025   -1.1203    7.5075 H   0  0  0  0  0  0  0  0  0  0  0  0
    3.6155    0.4303    6.7843 H   0  0  0  0  0  0  0  0  0  0  0  0
    1.2542   -0.2174    7.5892 H   0  0  0  0  0  0  0  0  0  0  0  0
   -0.4199   -0.2673    4.4378 H   0  0  0  0  0  0  0  0  0  0  0  0
    0.8006    0.5591    3.5652 H   0  0  0  0  0  0  0  0  0  0  0  0
    0.7699   -3.3908    4.2036 H   0  0  0  0  0  0  0  0  0  0  0  0
    0.2381   -2.2918    3.0499 H   0  0  0  0  0  0  0  0  0  0  0  0
    1.4585   -3.8974    2.1293 H   0  0  0  0  0  0  0  0  0  0  0  0
    3.3899   -4.6948    1.9043 H   0  0  0  0  0  0  0  0  0  0  0  0
    2.4120   -6.2508    2.9199 H   0  0  0  0  0  0  0  0  0  0  0  0
    0.8432   -6.5422    6.1278 H   0  0  0  0  0  0  0  0  0  0  0  0
    1.8226   -9.4750    4.5071 H   0  0  0  0  0  0  0  0  0  0  0  0
    0.5291  -10.7652    2.8909 H   0  0  0  0  0  0  0  0  0  0  0  0
   -1.5083   -9.7994    1.8460 H   0  0  0  0  0  0  0  0  0  0  0  0
   -2.2180   -7.4781    2.4226 H   0  0  0  0  0  0  0  0  0  0  0  0
   -0.8150   -6.1058    3.9815 H   0  0  0  0  0  0  0  0  0  0  0  0
    3.5531   -8.3119    4.1341 H   0  0  0  0  0  0  0  0  0  0  0  0
    5.0333   -8.2195    6.6313 H   0  0  0  0  0  0  0  0  0  0  0  0
    5.2154   -9.7259    5.0603 H   0  0  0  0  0  0  0  0  0  0  0  0
    6.4781   -6.6111    4.5009 H   0  0  0  0  0  0  0  0  0  0  0  0
    8.9096   -7.3768    7.2289 H   0  0  0  0  0  0  0  0  0  0  0  0
    8.4910   -7.7783    5.5651 H   0  0  0  0  0  0  0  0  0  0  0  0
    7.5509   -8.4335    6.9083 H   0  0  0  0  0  0  0  0  0  0  0  0
    8.9648   -5.1074    6.6682 H   0  0  0  0  0  0  0  0  0  0  0  0
    7.5566   -4.1547    6.3255 H   0  0  0  0  0  0  0  0  0  0  0  0
    8.2897   -5.1187    5.0419 H   0  0  0  0  0  0  0  0  0  0  0  0
    6.1931   -7.0101    8.3103 H   0  0  0  0  0  0  0  0  0  0  0  0
    7.3793   -5.7766    8.5919 H   0  0  0  0  0  0  0  0  0  0  0  0
    5.0404   -4.9877    8.9318 H   0  0  0  0  0  0  0  0  0  0  0  0
    5.8386   -4.0329    7.7088 H   0  0  0  0  0  0  0  0  0  0  0  0
    4.1677   -6.4582    7.2811 H   0  0  0  0  0  0  0  0  0  0  0  0
    2.5049   -5.4306    6.7165 H   0  0  0  0  0  0  0  0  0  0  0  0
    4.5673   -6.5723    3.5657 H   0  0  0  0  0  0  0  0  0  0  0  0
    6.0699   -3.6290    4.9439 H   0  0  0  0  0  0  0  0  0  0  0  0
    4.3565   -2.9285    6.5401 H   0  0  0  0  0  0  0  0  0  0  0  0
    3.1245   -3.2598    5.3737 H   0  0  0  0  0  0  0  0  0  0  0  0
    6.2509   -4.4858    1.4927 H   0  0  0  0  0  0  0  0  0  0  0  0
    5.2996   -5.7828    1.9320 H   0  0  0  0  0  0  0  0  0  0  0  0
    6.6399   -5.2417    2.9724 H   0  0  0  0  0  0  0  0  0  0  0  0
    6.4475   -2.5468    2.8279 H   0  0  0  0  0  0  0  0  0  0  0  0
    4.9186   -1.8633    3.0515 H   0  0  0  0  0  0  0  0  0  0  0  0
    5.3172   -2.6160    1.5158 H   0  0  0  0  0  0  0  0  0  0  0  0
   -0.0604   -1.5373    6.0147 H   0  0  0  0  0  0  0  0  0  0  0  0
    2.1037   -2.8553    7.3774 H   0  0  0  0  0  0  0  0  0  0  0  0
    1.0291   -3.7933    6.2964 H   0  0  0  0  0  0  0  0  0  0  0  0
    0.4080   -2.8534    7.6164 H   0  0  0  0  0  0  0  0  0  0  0  0
  1  2  1  0
  1 48  1  0
  1 49  1  0
  1 50  1  0
  2 16  1  0
  2  3  1  0
  2 51  1  6
  3  4  1  0
  3 52  1  0
  3 53  1  0
  4  5  1  0
  4  6  1  0
  4 54  1  1
  5 55  1  0
  6 14  1  0
  6  7  1  0
  6 56  1  1
  7 42  1  0
  7  8  1  6
  7 10  1  0
  8  9  1  0
  8 57  1  0
  8 58  1  0
  9 59  1  0
 10 11  1  0
 10 60  1  0
 10 61  1  0
 11 46  1  0
 11 12  1  0
 11 62  1  1
 12 13  1  0
 14 13  1  6
 13 63  1  0
 13 64  1  0
 14 15  1  0
 14 46  1  0
 15 16  1  0
 15 65  1  0
 15 66  1  0
 16 17  1  0
 16 67  1  6
 17 43  1  0
 17 18  1  0
 17 68  1  6
 18 40  1  0
 18 19  1  0
 18 69  1  6
 19 20  1  0
 20 21  1  0
 20 27  1  0
 20 70  1  1
 21 26  1  0
 21 22  2  0
 22 23  1  0
 22 71  1  0
 23 24  2  0
 23 72  1  0
 24 25  1  0
 24 73  1  0
 25 26  2  0
 25 74  1  0
 26 75  1  0
 27 28  1  0
 28 40  1  0
 28 29  1  0
 28 76  1  6
 29 30  1  0
 29 31  1  0
 29 77  1  1
 30 78  1  0
 31 39  1  0
 31 32  1  0
 31 79  1  6
 32 33  1  0
 32 34  1  0
 32 35  1  0
 33 80  1  0
 33 81  1  0
 33 82  1  0
 34 83  1  0
 34 84  1  0
 34 85  1  0
 35 36  1  0
 35 86  1  0
 35 87  1  0
 36 37  1  0
 36 88  1  0
 36 89  1  0
 37 38  1  0
 39 37  1  1
 37 90  1  1
 38 91  1  0
 39 40  1  0
 39 41  1  0
 40 92  1  6
 41 42  1  0
 41 43  1  0
 41 93  1  6
 42 94  1  0
 42 95  1  0
 43 44  1  0
 43 45  1  0
 44 96  1  0
 44 97  1  0
 44 98  1  0
 45 99  1  0
 45100  1  0
 45101  1  0
 46 47  1  0
 46102  1  6
 47103  1  0
 47104  1  0
 47105  1  0
M  END
>  <i_m_ct_stereo_status>  (150) 
1

>  <s_m_source_file>  (150) 
/var/tmp/pbs.5076255.sched01/tmppm3sokcv/34yi_btuhz.sdf

>  <i_m_source_file_index>  (150) 
25

>  <i_lp_mmshare_version>  (150) 
48012

>  <i_f3d_flags>  (150) 
0

>  <s_epik_input>  (150) 
W2NIXTFbY0hdW2NIXVtjSF1bY0hdYzFbQ0BASF0oTzIpT1tDQEBIXShbQ0BIXShDMyhbQ0gzXSlbQ0gzXSlbQ0hdKFtDSDJdNClbQ0BIXShbQ0gzXSlbQ0gyXVtDQEhdNVtPSF0pW0NAQEhdNltDQEhdMltDQEBIXShbT0hdKVtDQEhdKEMoW0NIM10pKFtDSDNdKVtDSDJdW0NIMl1bQ0BIXTdbT0hdKVtDQEBdNjdbQ0BASF0zW0NIMl1bQ0BdKFtDQEBIXTVbQ0BdNDg5KShbQ0gyXVtPSF0pW0NIMl1bQ0BASF0oT1tDSDJdOClbQ0BASF05W0NIM10=

>  <s_epik_cmdline>  (150) 
J2VwaWtfcHl0aG9uJywgJy1waHQnLCAnMi4wJywgJy1waCcsICc3LjAnLCAnLXRuJywgJzgnLCAnLW1hJywgJzIwMCcsICctaW1hZScsICc8aW5maWxlLm1hZT4nLCAnLW9tYWUnLCAnPG91dGZpbGUubWFlPic=

>  <r_lp_tautomer_probability>  (150) 
1

>  <r_epik_Ionization_Penalty>  (150) 
2.76444e-06

>  <r_epik_Ionization_Penalty_Charging>  (150) 
0

>  <r_epik_Ionization_Penalty_Neutral>  (150) 
2.76444e-06

>  <r_epik_State_Penalty>  (150) 
-0

>  <r_epik_Charging_Adjusted_Penalty>  (150) 
0

>  <i_epik_Tot_Q>  (150) 
0

>  <i_epik_Tot_abs_Q>  (150) 
0

>  <s_epik_Chemistry_Notes>  (150) 
This compound contains an acetal/aminal-like group ( X-CH(R)-Y where X, Y are N, S, or O) that may be acid/base labile, releasing an aldehyde.

>  <s_lp_Force_Field>  (150) 
OPLS3e

>  <r_lp_Energy>  (150) 
288.449

>  <b_lp_Chiralities_Consistent>  (150) 
1

>  <s_lp_Variant>  (150) 
42:0-1

>  <s_i_glide_gridfile>  (150) 
pfpi4k_grid

>  <i_i_glide_lignum>  (150) 
25

>  <i_i_glide_rotatable_bonds>  (150) 
6

>  <r_i_docking_score>  (150) 
-1.89141

>  <r_i_glide_ligand_efficiency>  (150) 
-0.0402428

>  <r_i_glide_ligand_efficiency_sa>  (150) 
-0.145229

>  <r_i_glide_ligand_efficiency_ln>  (150) 
-0.38997

>  <r_i_glide_gscore>  (150) 
-1.89141

>  <r_i_glide_lipo>  (150) 
-0.362372

>  <r_i_glide_hbond>  (150) 
-0.203589

>  <r_i_glide_metal>  (150) 
-0

>  <r_i_glide_rewards>  (150) 
0

>  <r_i_glide_evdw>  (150) 
-23.3493

>  <r_i_glide_ecoul>  (150) 
-1.70521

>  <r_i_glide_erotb>  (150) 
0.100258

>  <r_i_glide_esite>  (150) 
-0.00245982

>  <r_i_glide_emodel>  (150) 
-26.5678

>  <r_i_glide_energy>  (150) 
-25.0545

>  <r_i_glide_einternal>  (150) 
2.88011

>  <r_i_glide_intrahb_reward>  (150) 
-0

>  <i_i_glide_confnum>  (150) 
1

>  <i_i_glide_posenum>  (150) 
22

>  <r_i_glide_eff_state_penalty>  (150) 
0

>  <ligand_id>  (150) 
42

>  <original_smiles>  (150) 
CC1CC(O)C2C3(CO)CC4OCC2(CC1C1C2OC(c5ccccc5)OC5C(O)C6C(C)(C)CCC(O)C6(C52)C(C3)C1(C)C)C4C

>  <smiles>  (150) 
[H]OC([H])([H])C12C([H])([H])C3([H])OC([H])([H])C4(C([H])([H])C([H])(C([H])(C([H])([H])[H])C([H])([H])C([H])(O[H])C14[H])C1([H])C4([H])OC([H])(c5c([H])c([H])c([H])c([H])c5[H])OC5([H])C([H])(O[H])C6([H])C(C([H])([H])[H])(C([H])([H])[H])C([H])([H])C([H])([H])C([H])(O[H])C6(C54[H])C([H])(C2([H])[H])C1(C([H])([H])[H])C([H])([H])[H])C3([H])C([H])([H])[H]

$$$$
42:0:2
     RDKit          3D

105113  0  0  1  0  0  0  0  0999 V2000
    1.1278   -1.7855    3.2483 C   0  0  0  0  0  0  0  0  0  0  0  0
    1.4566   -2.0417    4.7320 C   0  0  2  0  0  0  0  0  0  0  0  0
    2.4197   -0.9543    5.2551 C   0  0  0  0  0  0  0  0  0  0  0  0
    3.2747   -1.1270    6.5422 C   0  0  1  0  0  0  0  0  0  0  0  0
    2.8989   -0.0524    7.3955 O   0  0  0  0  0  0  0  0  0  0  0  0
    3.4617   -2.5230    7.2942 C   0  0  2  0  0  0  0  0  0  0  0  0
    4.7725   -3.3843    7.3732 C   0  0  1  0  0  0  0  0  0  0  0  0
    6.0956   -2.5674    7.2017 C   0  0  0  0  0  0  0  0  0  0  0  0
    7.2332   -3.3626    7.4692 O   0  0  0  0  0  0  0  0  0  0  0  0
    4.7402   -3.7515    8.9490 C   0  0  0  0  0  0  0  0  0  0  0  0
    3.3352   -3.8745    9.6927 C   0  0  1  0  0  0  0  0  0  0  0  0
    2.5686   -2.6627    9.8984 O   0  0  0  0  0  0  0  0  0  0  0  0
    1.5836   -2.5014    8.8381 C   0  0  0  0  0  0  0  0  0  0  0  0
    2.1986   -3.3870    7.7284 C   0  0  1  0  0  0  0  0  0  0  0  0
    1.3224   -3.8660    6.5375 C   0  0  0  0  0  0  0  0  0  0  0  0
    1.7123   -3.5439    5.0513 C   0  0  2  0  0  0  0  0  0  0  0  0
    2.7330   -4.4069    4.1542 C   0  0  2  0  0  0  0  0  0  0  0  0
    2.4624   -5.9746    4.0874 C   0  0  2  0  0  0  0  0  0  0  0  0
    2.0045   -6.7002    5.2212 O   0  0  0  0  0  0  0  0  0  0  0  0
    1.8046   -8.0908    4.9969 C   0  0  1  0  0  0  0  0  0  0  0  0
    0.5582   -8.3197    4.1442 C   0  0  0  0  0  0  0  0  0  0  0  0
    0.4786   -9.4080    3.2426 C   0  0  0  0  0  0  0  0  0  0  0  0
   -0.6829   -9.6197    2.4798 C   0  0  0  0  0  0  0  0  0  0  0  0
   -1.7836   -8.7590    2.6227 C   0  0  0  0  0  0  0  0  0  0  0  0
   -1.7318   -7.7000    3.5460 C   0  0  0  0  0  0  0  0  0  0  0  0
   -0.5659   -7.4880    4.3061 C   0  0  0  0  0  0  0  0  0  0  0  0
    2.9306   -8.7786    4.4701 O   0  0  0  0  0  0  0  0  0  0  0  0
    3.5590   -8.1859    3.3270 C   0  0  2  0  0  0  0  0  0  0  0  0
    5.0592   -8.5351    3.0117 C   0  0  1  0  0  0  0  0  0  0  0  0
    5.1791   -8.8760    1.6422 O   0  0  0  0  0  0  0  0  0  0  0  0
    5.9331   -7.2510    3.4003 C   0  0  2  0  0  0  0  0  0  0  0  0
    7.4508   -7.4923    3.7619 C   0  0  0  0  0  0  0  0  0  0  0  0
    8.1487   -8.3191    2.6647 C   0  0  0  0  0  0  0  0  0  0  0  0
    8.2408   -6.1616    3.8647 C   0  0  0  0  0  0  0  0  0  0  0  0
    7.5914   -8.2553    5.0919 C   0  0  0  0  0  0  0  0  0  0  0  0
    6.7323   -7.6434    6.1988 C   0  0  0  0  0  0  0  0  0  0  0  0
    5.2815   -7.5721    5.7078 C   0  0  1  0  0  0  0  0  0  0  0  0
    4.3905   -7.5708    6.7735 O   0  0  0  0  0  0  0  0  0  0  0  0
    5.0308   -6.5534    4.4988 C   0  0  2  0  0  0  0  0  0  0  0  0
    3.7140   -6.7392    3.6706 C   0  0  2  0  0  0  0  0  0  0  0  0
    5.1464   -4.9678    4.8944 C   0  0  2  0  0  0  0  0  0  0  0  0
    4.7636   -4.7050    6.4416 C   0  0  0  0  0  0  0  0  0  0  0  0
    4.2863   -4.0666    3.9126 C   0  0  0  0  0  0  0  0  0  0  0  0
    4.6702   -4.1776    2.3790 C   0  0  0  0  0  0  0  0  0  0  0  0
    4.7440   -2.6244    4.0553 C   0  0  0  0  0  0  0  0  0  0  0  0
    2.3688   -4.5531    8.7844 C   0  0  1  0  0  0  0  0  0  0  0  0
    2.7005   -6.0287    8.5547 C   0  0  0  0  0  0  0  0  0  0  0  0
    1.9995   -1.9190    2.6073 H   0  0  0  0  0  0  0  0  0  0  0  0
    0.7687   -0.7670    3.0920 H   0  0  0  0  0  0  0  0  0  0  0  0
    0.3496   -2.4589    2.8939 H   0  0  0  0  0  0  0  0  0  0  0  0
    0.5211   -1.8130    5.2458 H   0  0  0  0  0  0  0  0  0  0  0  0
    3.0743   -0.6145    4.4589 H   0  0  0  0  0  0  0  0  0  0  0  0
    1.7983   -0.0629    5.3691 H   0  0  0  0  0  0  0  0  0  0  0  0
    4.2732   -0.7666    6.2978 H   0  0  0  0  0  0  0  0  0  0  0  0
    3.0240    0.7600    6.9286 H   0  0  0  0  0  0  0  0  0  0  0  0
    3.7509   -1.9278    8.1574 H   0  0  0  0  0  0  0  0  0  0  0  0
    6.2420   -2.1302    6.2198 H   0  0  0  0  0  0  0  0  0  0  0  0
    6.1132   -1.7211    7.8922 H   0  0  0  0  0  0  0  0  0  0  0  0
    7.2445   -4.0855    6.8595 H   0  0  0  0  0  0  0  0  0  0  0  0
    5.3073   -4.6664    9.1137 H   0  0  0  0  0  0  0  0  0  0  0  0
    5.2972   -3.0036    9.5191 H   0  0  0  0  0  0  0  0  0  0  0  0
    3.4433   -4.3965   10.6426 H   0  0  0  0  0  0  0  0  0  0  0  0
    0.6014   -2.8426    9.1731 H   0  0  0  0  0  0  0  0  0  0  0  0
    1.4194   -1.4627    8.5790 H   0  0  0  0  0  0  0  0  0  0  0  0
    1.1586   -4.9338    6.6106 H   0  0  0  0  0  0  0  0  0  0  0  0
    0.3189   -3.4783    6.7180 H   0  0  0  0  0  0  0  0  0  0  0  0
    0.8032   -3.9596    4.6141 H   0  0  0  0  0  0  0  0  0  0  0  0
    2.3490   -4.1152    3.1779 H   0  0  0  0  0  0  0  0  0  0  0  0
    1.7067   -6.1097    3.3123 H   0  0  0  0  0  0  0  0  0  0  0  0
    1.6391   -8.5268    5.9827 H   0  0  0  0  0  0  0  0  0  0  0  0
    1.3049  -10.0904    3.1256 H   0  0  0  0  0  0  0  0  0  0  0  0
   -0.7376  -10.4518    1.7901 H   0  0  0  0  0  0  0  0  0  0  0  0
   -2.6773   -8.9395    2.0447 H   0  0  0  0  0  0  0  0  0  0  0  0
   -2.5886   -7.0578    3.6880 H   0  0  0  0  0  0  0  0  0  0  0  0
   -0.5404   -6.6757    5.0166 H   0  0  0  0  0  0  0  0  0  0  0  0
    2.9238   -8.3253    2.4490 H   0  0  0  0  0  0  0  0  0  0  0  0
    5.3670   -9.4327    3.5518 H   0  0  0  0  0  0  0  0  0  0  0  0
    4.7436   -9.7101    1.5058 H   0  0  0  0  0  0  0  0  0  0  0  0
    5.9665   -6.6514    2.4975 H   0  0  0  0  0  0  0  0  0  0  0  0
    9.2079   -8.4588    2.8884 H   0  0  0  0  0  0  0  0  0  0  0  0
    8.0832   -7.8477    1.6833 H   0  0  0  0  0  0  0  0  0  0  0  0
    7.7148   -9.3159    2.5909 H   0  0  0  0  0  0  0  0  0  0  0  0
    9.3184   -6.3376    3.8623 H   0  0  0  0  0  0  0  0  0  0  0  0
    8.0467   -5.6271    4.7916 H   0  0  0  0  0  0  0  0  0  0  0  0
    8.0216   -5.4893    3.0341 H   0  0  0  0  0  0  0  0  0  0  0  0
    7.2893   -9.2925    4.9483 H   0  0  0  0  0  0  0  0  0  0  0  0
    8.6338   -8.2950    5.4033 H   0  0  0  0  0  0  0  0  0  0  0  0
    6.7989   -8.2846    7.0778 H   0  0  0  0  0  0  0  0  0  0  0  0
    7.1059   -6.6698    6.5047 H   0  0  0  0  0  0  0  0  0  0  0  0
    5.0969   -8.5969    5.4237 H   0  0  0  0  0  0  0  0  0  0  0  0
    4.4654   -8.3973    7.2282 H   0  0  0  0  0  0  0  0  0  0  0  0
    3.8570   -6.4059    2.6582 H   0  0  0  0  0  0  0  0  0  0  0  0
    6.1807   -4.6605    4.7815 H   0  0  0  0  0  0  0  0  0  0  0  0
    5.4190   -5.3586    7.0011 H   0  0  0  0  0  0  0  0  0  0  0  0
    3.7767   -5.1299    6.5155 H   0  0  0  0  0  0  0  0  0  0  0  0
    4.7610   -3.2266    1.8496 H   0  0  0  0  0  0  0  0  0  0  0  0
    3.9287   -4.6673    1.7511 H   0  0  0  0  0  0  0  0  0  0  0  0
    5.6421   -4.6368    2.2318 H   0  0  0  0  0  0  0  0  0  0  0  0
    5.8152   -2.5176    3.8555 H   0  0  0  0  0  0  0  0  0  0  0  0
    4.5995   -2.3318    5.0488 H   0  0  0  0  0  0  0  0  0  0  0  0
    4.2223   -1.9358    3.3943 H   0  0  0  0  0  0  0  0  0  0  0  0
    1.4258   -4.7144    9.3157 H   0  0  0  0  0  0  0  0  0  0  0  0
    3.7709   -6.1840    8.5471 H   0  0  0  0  0  0  0  0  0  0  0  0
    2.2319   -6.4617    7.6758 H   0  0  0  0  0  0  0  0  0  0  0  0
    2.3541   -6.6246    9.4007 H   0  0  0  0  0  0  0  0  0  0  0  0
  1  2  1  0
  1 48  1  0
  1 49  1  0
  1 50  1  0
  2 16  1  0
  2  3  1  0
  2 51  1  1
  3  4  1  0
  3 52  1  0
  3 53  1  0
  4  5  1  0
  4  6  1  0
  4 54  1  6
  5 55  1  0
  6 14  1  0
  6  7  1  0
  6 56  1  1
  7 42  1  0
  7  8  1  1
  7 10  1  0
  8  9  1  0
  8 57  1  0
  8 58  1  0
  9 59  1  0
 10 11  1  0
 10 60  1  0
 10 61  1  0
 11 46  1  0
 11 12  1  0
 11 62  1  1
 12 13  1  0
 14 13  1  1
 13 63  1  0
 13 64  1  0
 14 15  1  0
 14 46  1  0
 15 16  1  0
 15 65  1  0
 15 66  1  0
 16 17  1  0
 16 67  1  6
 17 43  1  0
 17 18  1  0
 17 68  1  6
 18 40  1  0
 18 19  1  0
 18 69  1  6
 19 20  1  0
 20 21  1  0
 20 27  1  0
 20 70  1  1
 21 26  1  0
 21 22  2  0
 22 23  1  0
 22 71  1  0
 23 24  2  0
 23 72  1  0
 24 25  1  0
 24 73  1  0
 25 26  2  0
 25 74  1  0
 26 75  1  0
 27 28  1  0
 28 40  1  0
 28 29  1  0
 28 76  1  6
 29 30  1  0
 29 31  1  0
 29 77  1  1
 30 78  1  0
 31 39  1  0
 31 32  1  0
 31 79  1  6
 32 33  1  0
 32 34  1  0
 32 35  1  0
 33 80  1  0
 33 81  1  0
 33 82  1  0
 34 83  1  0
 34 84  1  0
 34 85  1  0
 35 36  1  0
 35 86  1  0
 35 87  1  0
 36 37  1  0
 36 88  1  0
 36 89  1  0
 37 38  1  0
 39 37  1  1
 37 90  1  6
 38 91  1  0
 39 40  1  0
 39 41  1  0
 40 92  1  6
 41 42  1  0
 41 43  1  0
 41 93  1  1
 42 94  1  0
 42 95  1  0
 43 44  1  0
 43 45  1  0
 44 96  1  0
 44 97  1  0
 44 98  1  0
 45 99  1  0
 45100  1  0
 45101  1  0
 46 47  1  0
 46102  1  1
 47103  1  0
 47104  1  0
 47105  1  0
M  END
>  <i_m_ct_stereo_status>  (151) 
1

>  <s_m_source_file>  (151) 
/var/tmp/pbs.5076255.sched01/tmppm3sokcv/34yi_btuhz.sdf

>  <i_m_source_file_index>  (151) 
25

>  <i_lp_mmshare_version>  (151) 
48012

>  <i_f3d_flags>  (151) 
0

>  <s_epik_input>  (151) 
W2NIXTFbY0hdW2NIXVtjSF1bY0hdYzFbQ0BASF0oTzIpT1tDQEBIXShbQ0BIXShDMyhbQ0gzXSlbQ0gzXSlbQ0hdKFtDSDJdNClbQ0BIXShbQ0gzXSlbQ0gyXVtDQEhdNVtPSF0pW0NAQEhdNltDQEhdMltDQEBIXShbT0hdKVtDQEhdKEMoW0NIM10pKFtDSDNdKVtDSDJdW0NIMl1bQ0BIXTdbT0hdKVtDQEBdNjdbQ0BASF0zW0NIMl1bQ0BdKFtDQEBIXTVbQ0BdNDg5KShbQ0gyXVtPSF0pW0NIMl1bQ0BASF0oT1tDSDJdOClbQ0BASF05W0NIM10=

>  <s_epik_cmdline>  (151) 
J2VwaWtfcHl0aG9uJywgJy1waHQnLCAnMi4wJywgJy1waCcsICc3LjAnLCAnLXRuJywgJzgnLCAnLW1hJywgJzIwMCcsICctaW1hZScsICc8aW5maWxlLm1hZT4nLCAnLW9tYWUnLCAnPG91dGZpbGUubWFlPic=

>  <r_lp_tautomer_probability>  (151) 
1

>  <r_epik_Ionization_Penalty>  (151) 
2.76444e-06

>  <r_epik_Ionization_Penalty_Charging>  (151) 
0

>  <r_epik_Ionization_Penalty_Neutral>  (151) 
2.76444e-06

>  <r_epik_State_Penalty>  (151) 
-0

>  <r_epik_Charging_Adjusted_Penalty>  (151) 
0

>  <i_epik_Tot_Q>  (151) 
0

>  <i_epik_Tot_abs_Q>  (151) 
0

>  <s_epik_Chemistry_Notes>  (151) 
This compound contains an acetal/aminal-like group ( X-CH(R)-Y where X, Y are N, S, or O) that may be acid/base labile, releasing an aldehyde.

>  <s_lp_Force_Field>  (151) 
OPLS3e

>  <r_lp_Energy>  (151) 
288.449

>  <b_lp_Chiralities_Consistent>  (151) 
1

>  <s_lp_Variant>  (151) 
42:0-1

>  <s_i_glide_gridfile>  (151) 
pfpi4k_grid

>  <i_i_glide_lignum>  (151) 
25

>  <i_i_glide_rotatable_bonds>  (151) 
6

>  <r_i_docking_score>  (151) 
-1.63572

>  <r_i_glide_ligand_efficiency>  (151) 
-0.0348027

>  <r_i_glide_ligand_efficiency_sa>  (151) 
-0.125597

>  <r_i_glide_ligand_efficiency_ln>  (151) 
-0.337253

>  <r_i_glide_gscore>  (151) 
-1.63572

>  <r_i_glide_lipo>  (151) 
-0.30315

>  <r_i_glide_hbond>  (151) 
0

>  <r_i_glide_metal>  (151) 
-0

>  <r_i_glide_rewards>  (151) 
0

>  <r_i_glide_evdw>  (151) 
-23.6261

>  <r_i_glide_ecoul>  (151) 
-1.62181

>  <r_i_glide_erotb>  (151) 
0.100258

>  <r_i_glide_esite>  (151) 
-0.00825731

>  <r_i_glide_emodel>  (151) 
-27.4498

>  <r_i_glide_energy>  (151) 
-25.2479

>  <r_i_glide_einternal>  (151) 
1.27481

>  <r_i_glide_intrahb_reward>  (151) 
-0

>  <i_i_glide_confnum>  (151) 
1

>  <i_i_glide_posenum>  (151) 
10

>  <r_i_glide_eff_state_penalty>  (151) 
0

>  <ligand_id>  (151) 
42

>  <original_smiles>  (151) 
CC1CC(O)C2C3(CO)CC4OCC2(CC1C1C2OC(c5ccccc5)OC5C(O)C6C(C)(C)CCC(O)C6(C52)C(C3)C1(C)C)C4C

>  <smiles>  (151) 
[H]OC([H])([H])C12C([H])([H])C3([H])OC([H])([H])C4(C([H])([H])C([H])(C([H])(C([H])([H])[H])C([H])([H])C([H])(O[H])C14[H])C1([H])C4([H])OC([H])(c5c([H])c([H])c([H])c([H])c5[H])OC5([H])C([H])(O[H])C6([H])C(C([H])([H])[H])(C([H])([H])[H])C([H])([H])C([H])([H])C([H])(O[H])C6(C54[H])C([H])(C2([H])[H])C1(C([H])([H])[H])C([H])([H])[H])C3([H])C([H])([H])[H]

$$$$
43:0:0
     RDKit          3D

 33 36  0  0  1  0  0  0  0  0999 V2000
    3.2851   -6.2020    0.7474 O   0  0  0  0  0  0  0  0  0  0  0  0
    3.5649   -5.0394    0.4684 C   0  0  0  0  0  0  0  0  0  0  0  0
    5.0213   -4.5310    0.3748 C   0  0  2  0  0  0  0  0  0  0  0  0
    5.9209   -4.3515    1.5700 C   0  0  0  0  0  0  0  0  0  0  0  0
    5.6052   -2.8522    1.7831 C   0  0  2  0  0  0  0  0  0  0  0  0
    4.1312   -3.0951    2.5194 C   0  0  0  0  0  0  0  0  0  0  0  0
    2.8468   -3.1540    1.5276 C   0  0  1  0  0  0  0  0  0  0  0  0
    3.4844   -2.1401    0.8244 C   0  0  0  0  0  0  0  0  0  0  0  0
    4.8193   -3.0360    0.0291 C   0  0  1  0  0  0  0  0  0  0  0  0
    5.7663   -2.0631    0.2518 C   0  0  2  0  0  0  0  0  0  0  0  0
    7.1947   -2.2995   -0.3219 C   0  0  0  0  0  0  0  0  0  0  0  0
    7.3538   -2.2715   -1.5579 O   0  0  0  0  0  0  0  0  0  0  0  0
    8.1403   -2.4141    0.4778 O   0  0  0  0  0  0  0  0  0  0  0  0
    4.7938   -1.3111   -0.9909 C   0  0  0  0  0  0  0  0  0  0  0  0
    3.4404   -2.0754   -1.7904 C   0  0  0  0  0  0  0  0  0  0  0  0
    2.4844   -3.3748   -1.1481 C   0  0  0  0  0  0  0  0  0  0  0  0
    2.6520   -4.0492    0.3024 N   0  0  0  0  0  0  0  0  0  0  0  0
    5.5499   -5.1368   -0.3670 H   0  0  0  0  0  0  0  0  0  0  0  0
    5.7161   -5.0170    2.4102 H   0  0  0  0  0  0  0  0  0  0  0  0
    6.9633   -4.5140    1.2958 H   0  0  0  0  0  0  0  0  0  0  0  0
    6.3018   -2.4167    2.4935 H   0  0  0  0  0  0  0  0  0  0  0  0
    4.1187   -3.9568    3.1868 H   0  0  0  0  0  0  0  0  0  0  0  0
    3.9892   -2.2708    3.2213 H   0  0  0  0  0  0  0  0  0  0  0  0
    1.9115   -2.8511    2.0046 H   0  0  0  0  0  0  0  0  0  0  0  0
    2.6920   -1.5725    0.3271 H   0  0  0  0  0  0  0  0  0  0  0  0
    3.7901   -1.2454    1.3958 H   0  0  0  0  0  0  0  0  0  0  0  0
    4.9597   -3.4193   -1.0032 H   0  0  0  0  0  0  0  0  0  0  0  0
    4.4619   -0.3456   -0.5984 H   0  0  0  0  0  0  0  0  0  0  0  0
    5.4233   -0.9692   -1.8058 H   0  0  0  0  0  0  0  0  0  0  0  0
    2.7511   -1.2672   -2.0367 H   0  0  0  0  0  0  0  0  0  0  0  0
    3.8003   -2.4040   -2.7668 H   0  0  0  0  0  0  0  0  0  0  0  0
    1.4407   -3.0677   -1.2285 H   0  0  0  0  0  0  0  0  0  0  0  0
    2.5576   -4.1901   -1.8646 H   0  0  0  0  0  0  0  0  0  0  0  0
  1  2  2  0
  2 17  1  0
  2  3  1  0
  3  9  1  0
  3  4  1  0
  3 18  1  6
  4  5  1  0
  4 19  1  0
  4 20  1  0
  5 10  1  0
  5  6  1  0
  5 21  1  1
  6  7  1  0
  6 22  1  0
  6 23  1  0
  7 17  1  0
  7  8  1  0
  7 24  1  1
  8  9  1  0
  8 25  1  0
  8 26  1  0
  9 10  1  0
  9 27  1  6
 10 11  1  6
 10 14  1  0
 11 12  2  0
 11 13  1  0
 14 15  1  0
 14 28  1  0
 14 29  1  0
 15 16  1  0
 15 30  1  0
 15 31  1  0
 16 17  1  0
 16 32  1  0
 16 33  1  0
M  CHG  1  13  -1
M  END
>  <i_m_ct_stereo_status>  (152) 
1

>  <s_m_source_file>  (152) 
/var/tmp/pbs.5076255.sched01/tmppm3sokcv/34yi_btuhz.sdf

>  <i_m_source_file_index>  (152) 
26

>  <i_lp_mmshare_version>  (152) 
48012

>  <i_f3d_flags>  (152) 
0

>  <s_epik_input>  (152) 
W0NIMl0xW0NIMl1bQ0gyXU4oQzI9TylbQ0BASF0oW0NIMl0zKVtDSDJdW0NAQEhdNFtDQEhdMltDSDJdW0NASF0zW0NAXTE0Qyg9TylbT0hd

>  <s_epik_cmdline>  (152) 
J2VwaWtfcHl0aG9uJywgJy1waHQnLCAnMi4wJywgJy1waCcsICc3LjAnLCAnLXRuJywgJzgnLCAnLW1hJywgJzIwMCcsICctaW1hZScsICc8aW5maWxlLm1hZT4nLCAnLW9tYWUnLCAnPG91dGZpbGUubWFlPic=

>  <r_epik_Ionization_Penalty>  (152) 
0.00324296

>  <r_epik_Ionization_Penalty_Charging>  (152) 
0.00324256

>  <r_epik_Ionization_Penalty_Neutral>  (152) 
3.9646e-07

>  <r_epik_State_Penalty>  (152) 
0.00228874

>  <r_epik_Charging_Adjusted_Penalty>  (152) 
0.0055313

>  <i_epik_Tot_Q>  (152) 
-1

>  <i_epik_Tot_abs_Q>  (152) 
1

>  <s_lp_Force_Field>  (152) 
OPLS3e

>  <r_lp_Energy>  (152) 
410.297

>  <b_lp_Chiralities_Consistent>  (152) 
1

>  <s_lp_Variant>  (152) 
43:0-1

>  <s_i_glide_gridfile>  (152) 
pfpi4k_grid

>  <i_i_glide_lignum>  (152) 
26

>  <i_i_glide_rotatable_bonds>  (152) 
1

>  <r_i_docking_score>  (152) 
-3.60318

>  <r_i_glide_ligand_efficiency>  (152) 
-0.211952

>  <r_i_glide_ligand_efficiency_sa>  (152) 
-0.544988

>  <r_i_glide_ligand_efficiency_ln>  (152) 
-0.93999

>  <r_i_glide_gscore>  (152) 
-3.60318

>  <r_i_glide_lipo>  (152) 
-0.261647

>  <r_i_glide_hbond>  (152) 
-0.2

>  <r_i_glide_metal>  (152) 
-0

>  <r_i_glide_rewards>  (152) 
-1.81179

>  <r_i_glide_evdw>  (152) 
-17.2296

>  <r_i_glide_ecoul>  (152) 
-2.66653

>  <r_i_glide_erotb>  (152) 
0

>  <r_i_glide_esite>  (152) 
-0.0682849

>  <r_i_glide_emodel>  (152) 
-24.7653

>  <r_i_glide_energy>  (152) 
-19.8962

>  <r_i_glide_einternal>  (152) 
1.0451

>  <r_i_glide_intrahb_reward>  (152) 
-0

>  <i_i_glide_confnum>  (152) 
1

>  <i_i_glide_posenum>  (152) 
1

>  <r_i_glide_eff_state_penalty>  (152) 
0

>  <ligand_id>  (152) 
43

>  <original_smiles>  (152) 
O=C1C2CC3CC4CC2C3(C(=O)O)CCCN14

>  <smiles>  (152) 
[H]C1([H])N2C(=O)C3([H])C([H])([H])C4([H])C([H])([H])C2([H])C([H])([H])C3([H])C4(C(=O)[O-])C([H])([H])C1([H])[H]

$$$$
43:0:1
     RDKit          3D

 33 36  0  0  1  0  0  0  0  0999 V2000
    5.7426   -0.9233    2.6509 O   0  0  0  0  0  0  0  0  0  0  0  0
    5.4609   -1.6073    1.6712 C   0  0  0  0  0  0  0  0  0  0  0  0
    4.7546   -2.9817    1.7866 C   0  0  2  0  0  0  0  0  0  0  0  0
    5.4124   -4.2384    2.2953 C   0  0  0  0  0  0  0  0  0  0  0  0
    5.8481   -4.7768    0.9155 C   0  0  2  0  0  0  0  0  0  0  0  0
    7.1539   -3.7582    0.7382 C   0  0  0  0  0  0  0  0  0  0  0  0
    6.8547   -2.3307    0.0197 C   0  0  1  0  0  0  0  0  0  0  0  0
    6.0009   -3.0546   -0.8046 C   0  0  0  0  0  0  0  0  0  0  0  0
    4.6342   -3.3977    0.3033 C   0  0  1  0  0  0  0  0  0  0  0  0
    4.4605   -4.6952   -0.1085 C   0  0  2  0  0  0  0  0  0  0  0  0
    3.2990   -5.5106    0.5111 C   0  0  0  0  0  0  0  0  0  0  0  0
    2.1387   -5.0322    0.5277 O   0  0  0  0  0  0  0  0  0  0  0  0
    3.5939   -6.6474    0.9411 O   0  0  0  0  0  0  0  0  0  0  0  0
    3.8420   -3.8196   -1.4734 C   0  0  0  0  0  0  0  0  0  0  0  0
    3.6998   -2.0849   -1.5777 C   0  0  0  0  0  0  0  0  0  0  0  0
    4.6193   -0.9455   -0.6526 C   0  0  0  0  0  0  0  0  0  0  0  0
    5.7931   -1.2927    0.3938 N   0  0  0  0  0  0  0  0  0  0  0  0
    3.8187   -2.8399    2.3323 H   0  0  0  0  0  0  0  0  0  0  0  0
    6.2070   -4.0809    3.0240 H   0  0  0  0  0  0  0  0  0  0  0  0
    4.6808   -4.8953    2.7694 H   0  0  0  0  0  0  0  0  0  0  0  0
    6.1898   -5.8072    1.0188 H   0  0  0  0  0  0  0  0  0  0  0  0
    7.6978   -3.5945    1.6657 H   0  0  0  0  0  0  0  0  0  0  0  0
    7.8963   -4.2950    0.1408 H   0  0  0  0  0  0  0  0  0  0  0  0
    7.7236   -1.9084   -0.4877 H   0  0  0  0  0  0  0  0  0  0  0  0
    5.9516   -2.5106   -1.7527 H   0  0  0  0  0  0  0  0  0  0  0  0
    6.4256   -3.9294   -1.3206 H   0  0  0  0  0  0  0  0  0  0  0  0
    3.6329   -2.9337    0.4267 H   0  0  0  0  0  0  0  0  0  0  0  0
    4.3774   -4.1730   -2.3607 H   0  0  0  0  0  0  0  0  0  0  0  0
    2.8325   -4.1758   -1.6666 H   0  0  0  0  0  0  0  0  0  0  0  0
    3.8374   -1.8338   -2.6295 H   0  0  0  0  0  0  0  0  0  0  0  0
    2.6441   -1.8598   -1.4118 H   0  0  0  0  0  0  0  0  0  0  0  0
    5.0452   -0.2549   -1.3731 H   0  0  0  0  0  0  0  0  0  0  0  0
    3.8902   -0.3571   -0.0898 H   0  0  0  0  0  0  0  0  0  0  0  0
  1  2  2  0
  2 17  1  0
  2  3  1  0
  3  9  1  0
  3  4  1  0
  3 18  1  1
  4  5  1  0
  4 19  1  0
  4 20  1  0
  5 10  1  0
  5  6  1  0
  5 21  1  1
  6  7  1  0
  6 22  1  0
  6 23  1  0
  7 17  1  0
  7  8  1  0
  7 24  1  6
  8  9  1  0
  8 25  1  0
  8 26  1  0
  9 10  1  0
  9 27  1  6
 10 11  1  1
 10 14  1  0
 11 12  2  0
 11 13  1  0
 14 15  1  0
 14 28  1  0
 14 29  1  0
 15 16  1  0
 15 30  1  0
 15 31  1  0
 16 17  1  0
 16 32  1  0
 16 33  1  0
M  CHG  1  13  -1
M  END
>  <i_m_ct_stereo_status>  (153) 
1

>  <s_m_source_file>  (153) 
/var/tmp/pbs.5076255.sched01/tmppm3sokcv/34yi_btuhz.sdf

>  <i_m_source_file_index>  (153) 
26

>  <i_lp_mmshare_version>  (153) 
48012

>  <i_f3d_flags>  (153) 
0

>  <s_epik_input>  (153) 
W0NIMl0xW0NIMl1bQ0gyXU4oQzI9TylbQ0BASF0oW0NIMl0zKVtDSDJdW0NAQEhdNFtDQEhdMltDSDJdW0NASF0zW0NAXTE0Qyg9TylbT0hd

>  <s_epik_cmdline>  (153) 
J2VwaWtfcHl0aG9uJywgJy1waHQnLCAnMi4wJywgJy1waCcsICc3LjAnLCAnLXRuJywgJzgnLCAnLW1hJywgJzIwMCcsICctaW1hZScsICc8aW5maWxlLm1hZT4nLCAnLW9tYWUnLCAnPG91dGZpbGUubWFlPic=

>  <r_epik_Ionization_Penalty>  (153) 
0.00324296

>  <r_epik_Ionization_Penalty_Charging>  (153) 
0.00324256

>  <r_epik_Ionization_Penalty_Neutral>  (153) 
3.9646e-07

>  <r_epik_State_Penalty>  (153) 
0.00228874

>  <r_epik_Charging_Adjusted_Penalty>  (153) 
0.0055313

>  <i_epik_Tot_Q>  (153) 
-1

>  <i_epik_Tot_abs_Q>  (153) 
1

>  <s_lp_Force_Field>  (153) 
OPLS3e

>  <r_lp_Energy>  (153) 
410.297

>  <b_lp_Chiralities_Consistent>  (153) 
1

>  <s_lp_Variant>  (153) 
43:0-1

>  <s_i_glide_gridfile>  (153) 
pfpi4k_grid

>  <i_i_glide_lignum>  (153) 
26

>  <i_i_glide_rotatable_bonds>  (153) 
1

>  <r_i_docking_score>  (153) 
-3.40683

>  <r_i_glide_ligand_efficiency>  (153) 
-0.200402

>  <r_i_glide_ligand_efficiency_sa>  (153) 
-0.51529

>  <r_i_glide_ligand_efficiency_ln>  (153) 
-0.888767

>  <r_i_glide_gscore>  (153) 
-3.40683

>  <r_i_glide_lipo>  (153) 
-0.346409

>  <r_i_glide_hbond>  (153) 
-0.0405602

>  <r_i_glide_metal>  (153) 
-0

>  <r_i_glide_rewards>  (153) 
-2.0983

>  <r_i_glide_evdw>  (153) 
-16.7754

>  <r_i_glide_ecoul>  (153) 
-0.451041

>  <r_i_glide_erotb>  (153) 
0

>  <r_i_glide_esite>  (153) 
-0.0151446

>  <r_i_glide_emodel>  (153) 
-22.7471

>  <r_i_glide_energy>  (153) 
-17.2264

>  <r_i_glide_einternal>  (153) 
0.126937

>  <r_i_glide_intrahb_reward>  (153) 
-0

>  <i_i_glide_confnum>  (153) 
1

>  <i_i_glide_posenum>  (153) 
27

>  <r_i_glide_eff_state_penalty>  (153) 
0

>  <ligand_id>  (153) 
43

>  <original_smiles>  (153) 
O=C1C2CC3CC4CC2C3(C(=O)O)CCCN14

>  <smiles>  (153) 
[H]C1([H])N2C(=O)C3([H])C([H])([H])C4([H])C([H])([H])C2([H])C([H])([H])C3([H])C4(C(=O)[O-])C([H])([H])C1([H])[H]

$$$$
43:0:2
     RDKit          3D

 33 36  0  0  1  0  0  0  0  0999 V2000
    3.7923   -1.5000   -2.4960 O   0  0  0  0  0  0  0  0  0  0  0  0
    3.9313   -2.0656   -1.4130 C   0  0  0  0  0  0  0  0  0  0  0  0
    4.2972   -1.3055   -0.1168 C   0  0  2  0  0  0  0  0  0  0  0  0
    5.6367   -0.6704    0.1318 C   0  0  0  0  0  0  0  0  0  0  0  0
    6.2703   -1.8650    0.8700 C   0  0  2  0  0  0  0  0  0  0  0  0
    6.5724   -2.7729   -0.4946 C   0  0  0  0  0  0  0  0  0  0  0  0
    5.3757   -3.7669   -0.9636 C   0  0  1  0  0  0  0  0  0  0  0  0
    5.1843   -3.9935    0.3952 C   0  0  0  0  0  0  0  0  0  0  0  0
    4.4272   -2.4545    0.9104 C   0  0  1  0  0  0  0  0  0  0  0  0
    5.1376   -2.3536    2.0820 C   0  0  2  0  0  0  0  0  0  0  0  0
    4.8155   -1.1547    3.0060 C   0  0  0  0  0  0  0  0  0  0  0  0
    3.6315   -0.9842    3.3811 O   0  0  0  0  0  0  0  0  0  0  0  0
    5.7781   -0.4304    3.3422 O   0  0  0  0  0  0  0  0  0  0  0  0
    4.0388   -3.6504    2.4637 C   0  0  0  0  0  0  0  0  0  0  0  0
    2.7822   -4.2385    1.3992 C   0  0  0  0  0  0  0  0  0  0  0  0
    2.7582   -4.0683   -0.3265 C   0  0  0  0  0  0  0  0  0  0  0  0
    3.9133   -3.4115   -1.2370 N   0  0  0  0  0  0  0  0  0  0  0  0
    3.5213   -0.5599    0.0745 H   0  0  0  0  0  0  0  0  0  0  0  0
    6.1531   -0.3330   -0.7613 H   0  0  0  0  0  0  0  0  0  0  0  0
    5.5403    0.1990    0.7833 H   0  0  0  0  0  0  0  0  0  0  0  0
    7.2104   -1.5476    1.3180 H   0  0  0  0  0  0  0  0  0  0  0  0
    6.9063   -2.1837   -1.3476 H   0  0  0  0  0  0  0  0  0  0  0  0
    7.4592   -3.3746   -0.2824 H   0  0  0  0  0  0  0  0  0  0  0  0
    5.7156   -4.6425   -1.5164 H   0  0  0  0  0  0  0  0  0  0  0  0
    4.7493   -4.9943    0.4751 H   0  0  0  0  0  0  0  0  0  0  0  0
    6.0641   -4.3072    0.9843 H   0  0  0  0  0  0  0  0  0  0  0  0
    3.3739   -2.1664    1.1125 H   0  0  0  0  0  0  0  0  0  0  0  0
    4.6396   -4.5080    2.7806 H   0  0  0  0  0  0  0  0  0  0  0  0
    3.5224   -3.4122    3.3904 H   0  0  0  0  0  0  0  0  0  0  0  0
    2.6777   -5.3026    1.6136 H   0  0  0  0  0  0  0  0  0  0  0  0
    1.8470   -3.8104    1.7636 H   0  0  0  0  0  0  0  0  0  0  0  0
    2.5743   -5.0636   -0.7224 H   0  0  0  0  0  0  0  0  0  0  0  0
    1.8531   -3.5106   -0.5800 H   0  0  0  0  0  0  0  0  0  0  0  0
  1  2  2  0
  2 17  1  0
  2  3  1  0
  3  9  1  0
  3  4  1  0
  3 18  1  1
  4  5  1  0
  4 19  1  0
  4 20  1  0
  5 10  1  0
  5  6  1  0
  5 21  1  1
  6  7  1  0
  6 22  1  0
  6 23  1  0
  7 17  1  0
  7  8  1  0
  7 24  1  6
  8  9  1  0
  8 25  1  0
  8 26  1  0
  9 10  1  0
  9 27  1  1
 10 11  1  1
 10 14  1  0
 11 12  2  0
 11 13  1  0
 14 15  1  0
 14 28  1  0
 14 29  1  0
 15 16  1  0
 15 30  1  0
 15 31  1  0
 16 17  1  0
 16 32  1  0
 16 33  1  0
M  CHG  1  13  -1
M  END
>  <i_m_ct_stereo_status>  (154) 
1

>  <s_m_source_file>  (154) 
/var/tmp/pbs.5076255.sched01/tmppm3sokcv/34yi_btuhz.sdf

>  <i_m_source_file_index>  (154) 
26

>  <i_lp_mmshare_version>  (154) 
48012

>  <i_f3d_flags>  (154) 
0

>  <s_epik_input>  (154) 
W0NIMl0xW0NIMl1bQ0gyXU4oQzI9TylbQ0BASF0oW0NIMl0zKVtDSDJdW0NAQEhdNFtDQEhdMltDSDJdW0NASF0zW0NAXTE0Qyg9TylbT0hd

>  <s_epik_cmdline>  (154) 
J2VwaWtfcHl0aG9uJywgJy1waHQnLCAnMi4wJywgJy1waCcsICc3LjAnLCAnLXRuJywgJzgnLCAnLW1hJywgJzIwMCcsICctaW1hZScsICc8aW5maWxlLm1hZT4nLCAnLW9tYWUnLCAnPG91dGZpbGUubWFlPic=

>  <r_epik_Ionization_Penalty>  (154) 
0.00324296

>  <r_epik_Ionization_Penalty_Charging>  (154) 
0.00324256

>  <r_epik_Ionization_Penalty_Neutral>  (154) 
3.9646e-07

>  <r_epik_State_Penalty>  (154) 
0.00228874

>  <r_epik_Charging_Adjusted_Penalty>  (154) 
0.0055313

>  <i_epik_Tot_Q>  (154) 
-1

>  <i_epik_Tot_abs_Q>  (154) 
1

>  <s_lp_Force_Field>  (154) 
OPLS3e

>  <r_lp_Energy>  (154) 
410.297

>  <b_lp_Chiralities_Consistent>  (154) 
1

>  <s_lp_Variant>  (154) 
43:0-1

>  <s_i_glide_gridfile>  (154) 
pfpi4k_grid

>  <i_i_glide_lignum>  (154) 
26

>  <i_i_glide_rotatable_bonds>  (154) 
1

>  <r_i_docking_score>  (154) 
-3.11643

>  <r_i_glide_ligand_efficiency>  (154) 
-0.18332

>  <r_i_glide_ligand_efficiency_sa>  (154) 
-0.471366

>  <r_i_glide_ligand_efficiency_ln>  (154) 
-0.813008

>  <r_i_glide_gscore>  (154) 
-3.11643

>  <r_i_glide_lipo>  (154) 
-0.31344

>  <r_i_glide_hbond>  (154) 
0

>  <r_i_glide_metal>  (154) 
-0

>  <r_i_glide_rewards>  (154) 
-1.91777

>  <r_i_glide_evdw>  (154) 
-19.1981

>  <r_i_glide_ecoul>  (154) 
0.787562

>  <r_i_glide_erotb>  (154) 
0

>  <r_i_glide_esite>  (154) 
-0.0434461

>  <r_i_glide_emodel>  (154) 
-23.2577

>  <r_i_glide_energy>  (154) 
-18.4106

>  <r_i_glide_einternal>  (154) 
0.319947

>  <r_i_glide_intrahb_reward>  (154) 
-0

>  <i_i_glide_confnum>  (154) 
1

>  <i_i_glide_posenum>  (154) 
38

>  <r_i_glide_eff_state_penalty>  (154) 
0

>  <ligand_id>  (154) 
43

>  <original_smiles>  (154) 
O=C1C2CC3CC4CC2C3(C(=O)O)CCCN14

>  <smiles>  (154) 
[H]C1([H])N2C(=O)C3([H])C([H])([H])C4([H])C([H])([H])C2([H])C([H])([H])C3([H])C4(C(=O)[O-])C([H])([H])C1([H])[H]

$$$$
44:0:0
     RDKit          3D

 48 51  0  0  1  0  0  0  0  0999 V2000
    4.3697   -3.8342    6.3486 C   0  0  0  0  0  0  0  0  0  0  0  0
    4.9746   -4.1307    4.9650 C   0  0  2  0  0  0  0  0  0  0  0  0
    4.4843   -3.1638    3.8711 C   0  0  0  0  0  0  0  0  0  0  0  0
    3.7474   -4.0247    2.8281 C   0  0  1  0  0  0  0  0  0  0  0  0
    3.6422   -3.4264    1.3953 C   0  0  1  0  0  0  0  0  0  0  0  0
    2.9615   -2.0306    1.3715 C   0  0  0  0  0  0  0  0  0  0  0  0
    3.5089   -1.0569    0.3101 C   0  0  0  0  0  0  0  0  0  0  0  0
    3.9676   -1.7562   -0.9541 C   0  0  0  0  0  0  0  0  0  0  0  0
    3.6646   -1.2335   -2.2287 C   0  0  0  0  0  0  0  0  0  0  0  0
    4.1130   -1.8891   -3.3880 C   0  0  0  0  0  0  0  0  0  0  0  0
    3.8171   -1.3852   -4.6228 O   0  0  0  0  0  0  0  0  0  0  0  0
    4.8690   -3.0686   -3.2689 C   0  0  0  0  0  0  0  0  0  0  0  0
    5.1698   -3.5924   -1.9972 C   0  0  0  0  0  0  0  0  0  0  0  0
    4.7176   -2.9432   -0.8271 C   0  0  0  0  0  0  0  0  0  0  0  0
    4.9644   -3.4798    0.5881 C   0  0  2  0  0  0  0  0  0  0  0  0
    5.5907   -4.8888    0.6487 C   0  0  0  0  0  0  0  0  0  0  0  0
    5.7573   -5.3752    2.1005 C   0  0  0  0  0  0  0  0  0  0  0  0
    4.4245   -5.4124    2.9034 C   0  0  2  0  0  0  0  0  0  0  0  0
    3.4838   -6.5183    2.3669 C   0  0  0  0  0  0  0  0  0  0  0  0
    4.6455   -5.5530    4.4442 C   0  0  1  0  0  0  0  0  0  0  0  0
    5.6434   -6.6398    4.9024 C   0  0  0  0  0  0  0  0  0  0  0  0
    6.3383   -6.3996    5.9158 O   0  0  0  0  0  0  0  0  0  0  0  0
    5.6827   -7.7084    4.2591 O   0  0  0  0  0  0  0  0  0  0  0  0
    3.2846   -3.9250    6.3289 H   0  0  0  0  0  0  0  0  0  0  0  0
    4.6155   -2.8250    6.6766 H   0  0  0  0  0  0  0  0  0  0  0  0
    4.7474   -4.5277    7.1005 H   0  0  0  0  0  0  0  0  0  0  0  0
    6.0555   -4.0120    5.0461 H   0  0  0  0  0  0  0  0  0  0  0  0
    3.8331   -2.3904    4.2808 H   0  0  0  0  0  0  0  0  0  0  0  0
    5.3393   -2.6548    3.4214 H   0  0  0  0  0  0  0  0  0  0  0  0
    2.7287   -4.1403    3.2027 H   0  0  0  0  0  0  0  0  0  0  0  0
    2.9639   -4.0835    0.8489 H   0  0  0  0  0  0  0  0  0  0  0  0
    1.9030   -2.1906    1.1706 H   0  0  0  0  0  0  0  0  0  0  0  0
    2.9880   -1.5397    2.3443 H   0  0  0  0  0  0  0  0  0  0  0  0
    2.7704   -0.2873    0.0868 H   0  0  0  0  0  0  0  0  0  0  0  0
    4.3814   -0.5444    0.7162 H   0  0  0  0  0  0  0  0  0  0  0  0
    3.0743   -0.3345   -2.3229 H   0  0  0  0  0  0  0  0  0  0  0  0
    3.1625   -0.6977   -4.5862 H   0  0  0  0  0  0  0  0  0  0  0  0
    5.2070   -3.5915   -4.1528 H   0  0  0  0  0  0  0  0  0  0  0  0
    5.7340   -4.5091   -1.9391 H   0  0  0  0  0  0  0  0  0  0  0  0
    5.6693   -2.7927    1.0533 H   0  0  0  0  0  0  0  0  0  0  0  0
    4.9865   -5.6042    0.0883 H   0  0  0  0  0  0  0  0  0  0  0  0
    6.5731   -4.8758    0.1750 H   0  0  0  0  0  0  0  0  0  0  0  0
    6.2228   -6.3611    2.0914 H   0  0  0  0  0  0  0  0  0  0  0  0
    6.4700   -4.7196    2.6026 H   0  0  0  0  0  0  0  0  0  0  0  0
    3.9591   -7.4982    2.3892 H   0  0  0  0  0  0  0  0  0  0  0  0
    3.1788   -6.3351    1.3383 H   0  0  0  0  0  0  0  0  0  0  0  0
    2.5741   -6.5865    2.9634 H   0  0  0  0  0  0  0  0  0  0  0  0
    3.6918   -5.8463    4.8863 H   0  0  0  0  0  0  0  0  0  0  0  0
  1  2  1  0
  1 24  1  0
  1 25  1  0
  1 26  1  0
  2 20  1  0
  2  3  1  0
  2 27  1  1
  3  4  1  0
  3 28  1  0
  3 29  1  0
  4 18  1  0
  4  5  1  0
  4 30  1  1
  5 15  1  0
  5  6  1  0
  5 31  1  6
  6  7  1  0
  6 32  1  0
  6 33  1  0
  7  8  1  0
  7 34  1  0
  7 35  1  0
  8 14  2  0
  8  9  1  0
  9 10  2  0
  9 36  1  0
 10 11  1  0
 10 12  1  0
 11 37  1  0
 12 13  2  0
 12 38  1  0
 13 14  1  0
 13 39  1  0
 14 15  1  0
 15 16  1  0
 15 40  1  1
 16 17  1  0
 16 41  1  0
 16 42  1  0
 17 18  1  0
 17 43  1  0
 17 44  1  0
 18 19  1  6
 18 20  1  0
 19 45  1  0
 19 46  1  0
 19 47  1  0
 20 21  1  0
 20 48  1  1
 21 22  2  0
 21 23  1  0
M  CHG  1  23  -1
M  END
>  <i_m_ct_stereo_status>  (155) 
1

>  <s_m_source_file>  (155) 
/var/tmp/pbs.5076255.sched01/tmppm3sokcv/34yi_btuhz.sdf

>  <i_m_source_file_index>  (155) 
27

>  <i_lp_mmshare_version>  (155) 
48012

>  <i_f3d_flags>  (155) 
0

>  <s_epik_input>  (155) 
Tz1DKFtPSF0pW0NASF0xW0NASF0oW0NIM10pW0NIMl1bQ0BIXShbQ0BdMTJbQ0gzXSlbQ0BASF0zW0NAQEhdKFtDSDJdW0NIMl0yKWM0YyhbQ0gyXVtDSDJdMylbY0hdYyhbT0hdKVtjSF1bY0hdNA==

>  <s_epik_cmdline>  (155) 
J2VwaWtfcHl0aG9uJywgJy1waHQnLCAnMi4wJywgJy1waCcsICc3LjAnLCAnLXRuJywgJzgnLCAnLW1hJywgJzIwMCcsICctaW1hZScsICc8aW5maWxlLm1hZT4nLCAnLW9tYWUnLCAnPG91dGZpbGUubWFlPic=

>  <r_lp_tautomer_probability>  (155) 
1

>  <r_epik_Ionization_Penalty>  (155) 
0.000904113

>  <r_epik_Ionization_Penalty_Charging>  (155) 
0.000782794

>  <r_epik_Ionization_Penalty_Neutral>  (155) 
0.000121319

>  <r_epik_State_Penalty>  (155) 
0.00050193

>  <r_epik_Charging_Adjusted_Penalty>  (155) 
0.00128472

>  <i_epik_Tot_Q>  (155) 
-1

>  <i_epik_Tot_abs_Q>  (155) 
1

>  <s_lp_Force_Field>  (155) 
OPLS3e

>  <r_lp_Energy>  (155) 
27.5728

>  <b_lp_Chiralities_Consistent>  (155) 
1

>  <s_lp_Variant>  (155) 
44:0-1

>  <s_i_glide_gridfile>  (155) 
pfpi4k_grid

>  <i_i_glide_lignum>  (155) 
27

>  <i_i_glide_rotatable_bonds>  (155) 
2

>  <r_i_docking_score>  (155) 
-3.62548

>  <r_i_glide_ligand_efficiency>  (155) 
-0.15763

>  <r_i_glide_ligand_efficiency_sa>  (155) 
-0.448277

>  <r_i_glide_ligand_efficiency_ln>  (155) 
-0.876674

>  <r_i_glide_gscore>  (155) 
-3.62548

>  <r_i_glide_lipo>  (155) 
-0.61464

>  <r_i_glide_hbond>  (155) 
-0.32

>  <r_i_glide_metal>  (155) 
-0

>  <r_i_glide_rewards>  (155) 
-1.2722

>  <r_i_glide_evdw>  (155) 
-21.0831

>  <r_i_glide_ecoul>  (155) 
-2.42988

>  <r_i_glide_erotb>  (155) 
0

>  <r_i_glide_esite>  (155) 
0

>  <r_i_glide_emodel>  (155) 
-29.3238

>  <r_i_glide_energy>  (155) 
-23.513

>  <r_i_glide_einternal>  (155) 
0.133267

>  <r_i_glide_intrahb_reward>  (155) 
-0

>  <i_i_glide_confnum>  (155) 
1

>  <i_i_glide_posenum>  (155) 
40

>  <r_i_glide_eff_state_penalty>  (155) 
0

>  <ligand_id>  (155) 
44

>  <original_smiles>  (155) 
CC1CC2C3CCc4cc(O)ccc4C3CCC2(C)C1C(=O)O

>  <smiles>  (155) 
[H]Oc1c([H])c([H])c2c(c1[H])C([H])([H])C([H])([H])C1([H])C2([H])C([H])([H])C([H])([H])C2(C([H])([H])[H])C([H])(C(=O)[O-])C([H])(C([H])([H])[H])C([H])([H])C12[H]

$$$$
44:0:1
     RDKit          3D

 48 51  0  0  1  0  0  0  0  0999 V2000
    4.9487   -2.2668    6.8851 C   0  0  0  0  0  0  0  0  0  0  0  0
    4.5026   -3.0048    5.6113 C   0  0  2  0  0  0  0  0  0  0  0  0
    4.8904   -2.2637    4.3189 C   0  0  0  0  0  0  0  0  0  0  0  0
    3.5725   -1.9251    3.5963 C   0  0  1  0  0  0  0  0  0  0  0  0
    3.6718   -1.6912    2.0598 C   0  0  1  0  0  0  0  0  0  0  0  0
    4.6776   -0.5720    1.6865 C   0  0  0  0  0  0  0  0  0  0  0  0
    5.4390   -0.8034    0.3677 C   0  0  0  0  0  0  0  0  0  0  0  0
    4.6135   -1.5331   -0.6772 C   0  0  0  0  0  0  0  0  0  0  0  0
    4.6199   -1.1277   -2.0298 C   0  0  0  0  0  0  0  0  0  0  0  0
    3.8567   -1.8327   -2.9824 C   0  0  0  0  0  0  0  0  0  0  0  0
    3.8346   -1.4330   -4.2889 O   0  0  0  0  0  0  0  0  0  0  0  0
    3.1005   -2.9498   -2.5753 C   0  0  0  0  0  0  0  0  0  0  0  0
    3.0963   -3.3519   -1.2264 C   0  0  0  0  0  0  0  0  0  0  0  0
    3.8495   -2.6412   -0.2643 C   0  0  0  0  0  0  0  0  0  0  0  0
    3.8591   -2.9880    1.2311 C   0  0  2  0  0  0  0  0  0  0  0  0
    2.8366   -4.0595    1.6571 C   0  0  0  0  0  0  0  0  0  0  0  0
    2.8596   -4.3116    3.1773 C   0  0  0  0  0  0  0  0  0  0  0  0
    2.5873   -3.0355    4.0239 C   0  0  2  0  0  0  0  0  0  0  0  0
    1.1218   -2.5641    3.8684 C   0  0  0  0  0  0  0  0  0  0  0  0
    2.9689   -3.2089    5.5268 C   0  0  1  0  0  0  0  0  0  0  0  0
    2.4556   -4.4937    6.2183 C   0  0  0  0  0  0  0  0  0  0  0  0
    3.2124   -5.0497    7.0465 O   0  0  0  0  0  0  0  0  0  0  0  0
    1.3018   -4.8847    5.9392 O   0  0  0  0  0  0  0  0  0  0  0  0
    4.4875   -1.2816    6.9485 H   0  0  0  0  0  0  0  0  0  0  0  0
    6.0298   -2.1305    6.9040 H   0  0  0  0  0  0  0  0  0  0  0  0
    4.6693   -2.8224    7.7806 H   0  0  0  0  0  0  0  0  0  0  0  0
    5.0070   -3.9711    5.5957 H   0  0  0  0  0  0  0  0  0  0  0  0
    5.4681   -1.3624    4.5284 H   0  0  0  0  0  0  0  0  0  0  0  0
    5.5151   -2.9097    3.6988 H   0  0  0  0  0  0  0  0  0  0  0  0
    3.2218   -0.9898    4.0415 H   0  0  0  0  0  0  0  0  0  0  0  0
    2.6965   -1.3085    1.7545 H   0  0  0  0  0  0  0  0  0  0  0  0
    4.1100    0.3553    1.5896 H   0  0  0  0  0  0  0  0  0  0  0  0
    5.3998   -0.3734    2.4798 H   0  0  0  0  0  0  0  0  0  0  0  0
    5.8240    0.1371   -0.0118 H   0  0  0  0  0  0  0  0  0  0  0  0
    6.3105   -1.4259    0.5706 H   0  0  0  0  0  0  0  0  0  0  0  0
    5.1974   -0.2675   -2.3331 H   0  0  0  0  0  0  0  0  0  0  0  0
    3.0329   -1.6837   -4.7302 H   0  0  0  0  0  0  0  0  0  0  0  0
    2.5129   -3.5024   -3.2949 H   0  0  0  0  0  0  0  0  0  0  0  0
    2.4992   -4.2082   -0.9524 H   0  0  0  0  0  0  0  0  0  0  0  0
    4.8517   -3.3817    1.4488 H   0  0  0  0  0  0  0  0  0  0  0  0
    1.8302   -3.7617    1.3570 H   0  0  0  0  0  0  0  0  0  0  0  0
    3.0535   -4.9981    1.1446 H   0  0  0  0  0  0  0  0  0  0  0  0
    2.1333   -5.0875    3.4200 H   0  0  0  0  0  0  0  0  0  0  0  0
    3.8332   -4.7281    3.4430 H   0  0  0  0  0  0  0  0  0  0  0  0
    0.4132   -3.3465    4.1370 H   0  0  0  0  0  0  0  0  0  0  0  0
    0.8940   -2.2631    2.8473 H   0  0  0  0  0  0  0  0  0  0  0  0
    0.9150   -1.7040    4.5061 H   0  0  0  0  0  0  0  0  0  0  0  0
    2.5039   -2.3958    6.0828 H   0  0  0  0  0  0  0  0  0  0  0  0
  1  2  1  0
  1 24  1  0
  1 25  1  0
  1 26  1  0
  2 20  1  0
  2  3  1  0
  2 27  1  6
  3  4  1  0
  3 28  1  0
  3 29  1  0
  4 18  1  0
  4  5  1  0
  4 30  1  1
  5 15  1  0
  5  6  1  0
  5 31  1  6
  6  7  1  0
  6 32  1  0
  6 33  1  0
  7  8  1  0
  7 34  1  0
  7 35  1  0
  8 14  2  0
  8  9  1  0
  9 10  2  0
  9 36  1  0
 10 11  1  0
 10 12  1  0
 11 37  1  0
 12 13  2  0
 12 38  1  0
 13 14  1  0
 13 39  1  0
 14 15  1  0
 15 16  1  0
 15 40  1  1
 16 17  1  0
 16 41  1  0
 16 42  1  0
 17 18  1  0
 17 43  1  0
 17 44  1  0
 18 19  1  1
 18 20  1  0
 19 45  1  0
 19 46  1  0
 19 47  1  0
 20 21  1  0
 20 48  1  1
 21 22  2  0
 21 23  1  0
M  CHG  1  23  -1
M  END
>  <i_m_ct_stereo_status>  (156) 
1

>  <s_m_source_file>  (156) 
/var/tmp/pbs.5076255.sched01/tmppm3sokcv/34yi_btuhz.sdf

>  <i_m_source_file_index>  (156) 
27

>  <i_lp_mmshare_version>  (156) 
48012

>  <i_f3d_flags>  (156) 
0

>  <s_epik_input>  (156) 
Tz1DKFtPSF0pW0NASF0xW0NASF0oW0NIM10pW0NIMl1bQ0BIXShbQ0BdMTJbQ0gzXSlbQ0BASF0zW0NAQEhdKFtDSDJdW0NIMl0yKWM0YyhbQ0gyXVtDSDJdMylbY0hdYyhbT0hdKVtjSF1bY0hdNA==

>  <s_epik_cmdline>  (156) 
J2VwaWtfcHl0aG9uJywgJy1waHQnLCAnMi4wJywgJy1waCcsICc3LjAnLCAnLXRuJywgJzgnLCAnLW1hJywgJzIwMCcsICctaW1hZScsICc8aW5maWxlLm1hZT4nLCAnLW9tYWUnLCAnPG91dGZpbGUubWFlPic=

>  <r_lp_tautomer_probability>  (156) 
1

>  <r_epik_Ionization_Penalty>  (156) 
0.000904113

>  <r_epik_Ionization_Penalty_Charging>  (156) 
0.000782794

>  <r_epik_Ionization_Penalty_Neutral>  (156) 
0.000121319

>  <r_epik_State_Penalty>  (156) 
0.00050193

>  <r_epik_Charging_Adjusted_Penalty>  (156) 
0.00128472

>  <i_epik_Tot_Q>  (156) 
-1

>  <i_epik_Tot_abs_Q>  (156) 
1

>  <s_lp_Force_Field>  (156) 
OPLS3e

>  <r_lp_Energy>  (156) 
27.5728

>  <b_lp_Chiralities_Consistent>  (156) 
1

>  <s_lp_Variant>  (156) 
44:0-1

>  <s_i_glide_gridfile>  (156) 
pfpi4k_grid

>  <i_i_glide_lignum>  (156) 
27

>  <i_i_glide_rotatable_bonds>  (156) 
2

>  <r_i_docking_score>  (156) 
-3.52443

>  <r_i_glide_ligand_efficiency>  (156) 
-0.153236

>  <r_i_glide_ligand_efficiency_sa>  (156) 
-0.435783

>  <r_i_glide_ligand_efficiency_ln>  (156) 
-0.85224

>  <r_i_glide_gscore>  (156) 
-3.52443

>  <r_i_glide_lipo>  (156) 
-0.480129

>  <r_i_glide_hbond>  (156) 
-0.334976

>  <r_i_glide_metal>  (156) 
-0

>  <r_i_glide_rewards>  (156) 
-1.2722

>  <r_i_glide_evdw>  (156) 
-23.253

>  <r_i_glide_ecoul>  (156) 
-1.82983

>  <r_i_glide_erotb>  (156) 
0

>  <r_i_glide_esite>  (156) 
0

>  <r_i_glide_emodel>  (156) 
-30.2456

>  <r_i_glide_energy>  (156) 
-25.0829

>  <r_i_glide_einternal>  (156) 
0.756718

>  <r_i_glide_intrahb_reward>  (156) 
-0

>  <i_i_glide_confnum>  (156) 
1

>  <i_i_glide_posenum>  (156) 
11

>  <r_i_glide_eff_state_penalty>  (156) 
0

>  <ligand_id>  (156) 
44

>  <original_smiles>  (156) 
CC1CC2C3CCc4cc(O)ccc4C3CCC2(C)C1C(=O)O

>  <smiles>  (156) 
[H]Oc1c([H])c([H])c2c(c1[H])C([H])([H])C([H])([H])C1([H])C2([H])C([H])([H])C([H])([H])C2(C([H])([H])[H])C([H])(C(=O)[O-])C([H])(C([H])([H])[H])C([H])([H])C12[H]

$$$$
44:0:2
     RDKit          3D

 48 51  0  0  1  0  0  0  0  0999 V2000
    1.1886   -5.6157    5.3669 C   0  0  0  0  0  0  0  0  0  0  0  0
    1.7559   -4.3716    4.6642 C   0  0  2  0  0  0  0  0  0  0  0  0
    1.6782   -4.4573    3.1319 C   0  0  0  0  0  0  0  0  0  0  0  0
    3.1248   -4.4028    2.6125 C   0  0  1  0  0  0  0  0  0  0  0  0
    3.3167   -3.9184    1.1461 C   0  0  1  0  0  0  0  0  0  0  0  0
    2.5283   -4.7676    0.1090 C   0  0  0  0  0  0  0  0  0  0  0  0
    1.9883   -3.9728   -1.1033 C   0  0  0  0  0  0  0  0  0  0  0  0
    2.9254   -2.8747   -1.5225 C   0  0  0  0  0  0  0  0  0  0  0  0
    3.1596   -2.6150   -2.8858 C   0  0  0  0  0  0  0  0  0  0  0  0
    3.9574   -1.5199   -3.2521 C   0  0  0  0  0  0  0  0  0  0  0  0
    4.1852   -1.2427   -4.5695 O   0  0  0  0  0  0  0  0  0  0  0  0
    4.5153   -0.7006   -2.2533 C   0  0  0  0  0  0  0  0  0  0  0  0
    4.2816   -0.9656   -0.8935 C   0  0  0  0  0  0  0  0  0  0  0  0
    3.4749   -2.0551   -0.5143 C   0  0  0  0  0  0  0  0  0  0  0  0
    3.1432   -2.3946    0.9464 C   0  0  2  0  0  0  0  0  0  0  0  0
    3.9455   -1.5982    1.9971 C   0  0  0  0  0  0  0  0  0  0  0  0
    3.6293   -2.0620    3.4325 C   0  0  0  0  0  0  0  0  0  0  0  0
    3.8879   -3.5790    3.6701 C   0  0  2  0  0  0  0  0  0  0  0  0
    5.3950   -3.8950    3.6221 C   0  0  0  0  0  0  0  0  0  0  0  0
    3.2467   -4.1077    4.9915 C   0  0  1  0  0  0  0  0  0  0  0  0
    3.4795   -3.2569    6.2603 C   0  0  0  0  0  0  0  0  0  0  0  0
    2.5286   -3.1339    7.0633 O   0  0  0  0  0  0  0  0  0  0  0  0
    4.6134   -2.7561    6.4282 O   0  0  0  0  0  0  0  0  0  0  0  0
    1.7424   -6.5096    5.0817 H   0  0  0  0  0  0  0  0  0  0  0  0
    0.1428   -5.7727    5.1054 H   0  0  0  0  0  0  0  0  0  0  0  0
    1.2511   -5.5177    6.4509 H   0  0  0  0  0  0  0  0  0  0  0  0
    1.1562   -3.5135    4.9700 H   0  0  0  0  0  0  0  0  0  0  0  0
    1.1745   -5.3668    2.8022 H   0  0  0  0  0  0  0  0  0  0  0  0
    1.1031   -3.6093    2.7570 H   0  0  0  0  0  0  0  0  0  0  0  0
    3.5037   -5.4255    2.6617 H   0  0  0  0  0  0  0  0  0  0  0  0
    4.3687   -4.0958    0.9123 H   0  0  0  0  0  0  0  0  0  0  0  0
    3.2089   -5.5334   -0.2610 H   0  0  0  0  0  0  0  0  0  0  0  0
    1.7136   -5.3216    0.5751 H   0  0  0  0  0  0  0  0  0  0  0  0
    1.7350   -4.6318   -1.9259 H   0  0  0  0  0  0  0  0  0  0  0  0
    1.0540   -3.4765   -0.8697 H   0  0  0  0  0  0  0  0  0  0  0  0
    2.7017   -3.2351   -3.6435 H   0  0  0  0  0  0  0  0  0  0  0  0
    4.5407   -0.3752   -4.7031 H   0  0  0  0  0  0  0  0  0  0  0  0
    5.1142    0.1525   -2.5266 H   0  0  0  0  0  0  0  0  0  0  0  0
    4.6997   -0.2929   -0.1547 H   0  0  0  0  0  0  0  0  0  0  0  0
    2.0918   -2.1515    1.0965 H   0  0  0  0  0  0  0  0  0  0  0  0
    5.0148   -1.6926    1.8076 H   0  0  0  0  0  0  0  0  0  0  0  0
    3.7080   -0.5365    1.9147 H   0  0  0  0  0  0  0  0  0  0  0  0
    4.2125   -1.4632    4.1331 H   0  0  0  0  0  0  0  0  0  0  0  0
    2.5851   -1.8303    3.6468 H   0  0  0  0  0  0  0  0  0  0  0  0
    5.9226   -3.2964    4.3601 H   0  0  0  0  0  0  0  0  0  0  0  0
    5.8325   -3.6829    2.6478 H   0  0  0  0  0  0  0  0  0  0  0  0
    5.5969   -4.9429    3.8443 H   0  0  0  0  0  0  0  0  0  0  0  0
    3.7046   -5.0737    5.2124 H   0  0  0  0  0  0  0  0  0  0  0  0
  1  2  1  0
  1 24  1  0
  1 25  1  0
  1 26  1  0
  2 20  1  0
  2  3  1  0
  2 27  1  1
  3  4  1  0
  3 28  1  0
  3 29  1  0
  4 18  1  0
  4  5  1  0
  4 30  1  6
  5 15  1  0
  5  6  1  0
  5 31  1  6
  6  7  1  0
  6 32  1  0
  6 33  1  0
  7  8  1  0
  7 34  1  0
  7 35  1  0
  8 14  2  0
  8  9  1  0
  9 10  2  0
  9 36  1  0
 10 11  1  0
 10 12  1  0
 11 37  1  0
 12 13  2  0
 12 38  1  0
 13 14  1  0
 13 39  1  0
 14 15  1  0
 15 16  1  0
 15 40  1  1
 16 17  1  0
 16 41  1  0
 16 42  1  0
 17 18  1  0
 17 43  1  0
 17 44  1  0
 18 19  1  1
 18 20  1  0
 19 45  1  0
 19 46  1  0
 19 47  1  0
 20 21  1  0
 20 48  1  1
 21 22  2  0
 21 23  1  0
M  CHG  1  23  -1
M  END
>  <i_m_ct_stereo_status>  (157) 
1

>  <s_m_source_file>  (157) 
/var/tmp/pbs.5076255.sched01/tmppm3sokcv/34yi_btuhz.sdf

>  <i_m_source_file_index>  (157) 
27

>  <i_lp_mmshare_version>  (157) 
48012

>  <i_f3d_flags>  (157) 
0

>  <s_epik_input>  (157) 
Tz1DKFtPSF0pW0NASF0xW0NASF0oW0NIM10pW0NIMl1bQ0BIXShbQ0BdMTJbQ0gzXSlbQ0BASF0zW0NAQEhdKFtDSDJdW0NIMl0yKWM0YyhbQ0gyXVtDSDJdMylbY0hdYyhbT0hdKVtjSF1bY0hdNA==

>  <s_epik_cmdline>  (157) 
J2VwaWtfcHl0aG9uJywgJy1waHQnLCAnMi4wJywgJy1waCcsICc3LjAnLCAnLXRuJywgJzgnLCAnLW1hJywgJzIwMCcsICctaW1hZScsICc8aW5maWxlLm1hZT4nLCAnLW9tYWUnLCAnPG91dGZpbGUubWFlPic=

>  <r_lp_tautomer_probability>  (157) 
1

>  <r_epik_Ionization_Penalty>  (157) 
0.000904113

>  <r_epik_Ionization_Penalty_Charging>  (157) 
0.000782794

>  <r_epik_Ionization_Penalty_Neutral>  (157) 
0.000121319

>  <r_epik_State_Penalty>  (157) 
0.00050193

>  <r_epik_Charging_Adjusted_Penalty>  (157) 
0.00128472

>  <i_epik_Tot_Q>  (157) 
-1

>  <i_epik_Tot_abs_Q>  (157) 
1

>  <s_lp_Force_Field>  (157) 
OPLS3e

>  <r_lp_Energy>  (157) 
27.5728

>  <b_lp_Chiralities_Consistent>  (157) 
1

>  <s_lp_Variant>  (157) 
44:0-1

>  <s_i_glide_gridfile>  (157) 
pfpi4k_grid

>  <i_i_glide_lignum>  (157) 
27

>  <i_i_glide_rotatable_bonds>  (157) 
2

>  <r_i_docking_score>  (157) 
-2.6829

>  <r_i_glide_ligand_efficiency>  (157) 
-0.116648

>  <r_i_glide_ligand_efficiency_sa>  (157) 
-0.33173

>  <r_i_glide_ligand_efficiency_ln>  (157) 
-0.648749

>  <r_i_glide_gscore>  (157) 
-2.6829

>  <r_i_glide_lipo>  (157) 
-0.125309

>  <r_i_glide_hbond>  (157) 
-0.32

>  <r_i_glide_metal>  (157) 
-0

>  <r_i_glide_rewards>  (157) 
-1.2722

>  <r_i_glide_evdw>  (157) 
-15.277

>  <r_i_glide_ecoul>  (157) 
-1.34359

>  <r_i_glide_erotb>  (157) 
0

>  <r_i_glide_esite>  (157) 
0

>  <r_i_glide_emodel>  (157) 
-20.6331

>  <r_i_glide_energy>  (157) 
-16.6206

>  <r_i_glide_einternal>  (157) 
0.304133

>  <r_i_glide_intrahb_reward>  (157) 
-0

>  <i_i_glide_confnum>  (157) 
1

>  <i_i_glide_posenum>  (157) 
1

>  <r_i_glide_eff_state_penalty>  (157) 
0

>  <ligand_id>  (157) 
44

>  <original_smiles>  (157) 
CC1CC2C3CCc4cc(O)ccc4C3CCC2(C)C1C(=O)O

>  <smiles>  (157) 
[H]Oc1c([H])c([H])c2c(c1[H])C([H])([H])C([H])([H])C1([H])C2([H])C([H])([H])C([H])([H])C2(C([H])([H])[H])C([H])(C(=O)[O-])C([H])(C([H])([H])[H])C([H])([H])C12[H]

$$$$
45:0:0
     RDKit          3D

 32 34  0  0  1  0  0  0  0  0999 V2000
    3.1173   -7.4193    1.7739 C   0  0  0  0  0  0  0  0  0  0  0  0
    3.6919   -6.1819    1.3909 O   0  0  0  0  0  0  0  0  0  0  0  0
    2.9888   -5.3309    0.6166 C   0  0  0  0  0  0  0  0  0  0  0  0
    1.8125   -5.4954    0.2732 O   0  0  0  0  0  0  0  0  0  0  0  0
    3.7989   -4.0777    0.2115 C   0  0  2  0  0  0  0  0  0  0  0  0
    4.0466   -3.1852    1.4576 C   0  0  0  0  0  0  0  0  0  0  0  0
    4.8679   -1.9410    1.0611 C   0  0  1  0  0  0  0  0  0  0  0  0
    6.2269   -2.3828    0.4808 C   0  0  0  0  0  0  0  0  0  0  0  0
    5.9878   -3.2478   -0.7730 C   0  0  2  0  0  0  0  0  0  0  0  0
    5.2192   -2.4329   -1.8318 C   0  0  0  0  0  0  0  0  0  0  0  0
    3.8607   -1.9990   -1.2434 C   0  0  2  0  0  0  0  0  0  0  0  0
    4.0903   -1.1266    0.0083 C   0  0  0  0  0  0  0  0  0  0  0  0
    3.0392   -3.2460   -0.8564 C   0  0  0  0  0  0  0  0  0  0  0  0
    5.1699   -4.4970   -0.3861 C   0  0  0  0  0  0  0  0  0  0  0  0
    3.8281   -7.9647    2.3932 H   0  0  0  0  0  0  0  0  0  0  0  0
    2.8914   -8.0207    0.8915 H   0  0  0  0  0  0  0  0  0  0  0  0
    2.2039   -7.2654    2.3457 H   0  0  0  0  0  0  0  0  0  0  0  0
    3.1005   -2.8726    1.9045 H   0  0  0  0  0  0  0  0  0  0  0  0
    4.5803   -3.7370    2.2337 H   0  0  0  0  0  0  0  0  0  0  0  0
    5.0378   -1.3205    1.9414 H   0  0  0  0  0  0  0  0  0  0  0  0
    6.8378   -1.5151    0.2339 H   0  0  0  0  0  0  0  0  0  0  0  0
    6.7833   -2.9519    1.2284 H   0  0  0  0  0  0  0  0  0  0  0  0
    6.9492   -3.5530   -1.1855 H   0  0  0  0  0  0  0  0  0  0  0  0
    5.7985   -1.5613   -2.1343 H   0  0  0  0  0  0  0  0  0  0  0  0
    5.0656   -3.0345   -2.7287 H   0  0  0  0  0  0  0  0  0  0  0  0
    3.3086   -1.4186   -1.9858 H   0  0  0  0  0  0  0  0  0  0  0  0
    3.1295   -0.8044    0.4138 H   0  0  0  0  0  0  0  0  0  0  0  0
    4.6366   -0.2206   -0.2501 H   0  0  0  0  0  0  0  0  0  0  0  0
    2.8401   -3.8469   -1.7472 H   0  0  0  0  0  0  0  0  0  0  0  0
    2.0669   -2.9291   -0.4773 H   0  0  0  0  0  0  0  0  0  0  0  0
    5.7499   -5.0881    0.3251 H   0  0  0  0  0  0  0  0  0  0  0  0
    5.0192   -5.1331   -1.2608 H   0  0  0  0  0  0  0  0  0  0  0  0
  1  2  1  0
  1 15  1  0
  1 16  1  0
  1 17  1  0
  2  3  1  0
  3  4  2  0
  5  3  1  1
  5 13  1  0
  5 14  1  0
  5  6  1  0
  6  7  1  0
  6 18  1  0
  6 19  1  0
  7 12  1  0
  7  8  1  0
  7 20  1  1
  8  9  1  0
  8 21  1  0
  8 22  1  0
  9 10  1  0
  9 14  1  0
  9 23  1  6
 10 11  1  0
 10 24  1  0
 10 25  1  0
 11 12  1  0
 11 13  1  0
 11 26  1  6
 12 27  1  0
 12 28  1  0
 13 29  1  0
 13 30  1  0
 14 31  1  0
 14 32  1  0
M  END
>  <i_m_ct_stereo_status>  (158) 
1

>  <s_m_source_file>  (158) 
/var/tmp/pbs.5076255.sched01/tmppm3sokcv/34yi_btuhz.sdf

>  <i_m_source_file_index>  (158) 
28

>  <i_lp_mmshare_version>  (158) 
48012

>  <i_f3d_flags>  (158) 
0

>  <s_epik_input>  (158) 
W0NIM11PQyg9TylDMTJbQ0gyXVtDQEhdM1tDSDJdW0NAQEhdKFtDSDJdMilbQ0gyXVtDQEhdKFtDSDJdMylbQ0gyXTE=

>  <s_epik_cmdline>  (158) 
J2VwaWtfcHl0aG9uJywgJy1waHQnLCAnMi4wJywgJy1waCcsICc3LjAnLCAnLXRuJywgJzgnLCAnLW1hJywgJzIwMCcsICctaW1hZScsICc8aW5maWxlLm1hZT4nLCAnLW9tYWUnLCAnPG91dGZpbGUubWFlPic=

>  <r_lp_tautomer_probability>  (158) 
1

>  <r_epik_Ionization_Penalty>  (158) 
0

>  <r_epik_Ionization_Penalty_Charging>  (158) 
0

>  <r_epik_Ionization_Penalty_Neutral>  (158) 
0

>  <r_epik_State_Penalty>  (158) 
-0

>  <r_epik_Charging_Adjusted_Penalty>  (158) 
0

>  <i_epik_Tot_Q>  (158) 
0

>  <i_epik_Tot_abs_Q>  (158) 
0

>  <s_epik_Chemistry_Notes>  (158) 
This compound has an ester and may undergo hydrolysis at high or low pH.

>  <s_lp_Force_Field>  (158) 
OPLS3e

>  <r_lp_Energy>  (158) 
5.81712

>  <b_lp_Chiralities_Consistent>  (158) 
1

>  <s_lp_Variant>  (158) 
45:0-1

>  <s_i_glide_gridfile>  (158) 
pfpi4k_grid

>  <i_i_glide_lignum>  (158) 
28

>  <i_i_glide_rotatable_bonds>  (158) 
2

>  <r_i_docking_score>  (158) 
-3.73425

>  <r_i_glide_ligand_efficiency>  (158) 
-0.266732

>  <r_i_glide_ligand_efficiency_sa>  (158) 
-0.642863

>  <r_i_glide_ligand_efficiency_ln>  (158) 
-1.02616

>  <r_i_glide_gscore>  (158) 
-3.73425

>  <r_i_glide_lipo>  (158) 
-0.320241

>  <r_i_glide_hbond>  (158) 
-0.0888614

>  <r_i_glide_metal>  (158) 
-0

>  <r_i_glide_rewards>  (158) 
-2.08452

>  <r_i_glide_evdw>  (158) 
-18.6505

>  <r_i_glide_ecoul>  (158) 
-1.88046

>  <r_i_glide_erotb>  (158) 
0

>  <r_i_glide_esite>  (158) 
-0.0260362

>  <r_i_glide_emodel>  (158) 
-25.3849

>  <r_i_glide_energy>  (158) 
-20.5309

>  <r_i_glide_einternal>  (158) 
0.307521

>  <r_i_glide_intrahb_reward>  (158) 
-0

>  <i_i_glide_confnum>  (158) 
1

>  <i_i_glide_posenum>  (158) 
19

>  <r_i_glide_eff_state_penalty>  (158) 
0

>  <ligand_id>  (158) 
45

>  <original_smiles>  (158) 
COC(=O)C12CC3CC(CC(C3)C1)C2

>  <smiles>  (158) 
[H]C([H])([H])OC(=O)C12C([H])([H])C3([H])C([H])([H])C([H])(C([H])([H])C([H])(C3([H])[H])C1([H])[H])C2([H])[H]

$$$$
46:0:0
     RDKit          3D

 34 36  0  0  1  0  0  0  0  0999 V2000
    0.4566  -10.5587    3.2538 C   0  0  0  0  0  0  0  0  0  0  0  0
   -0.0637   -9.2360    2.9243 N   0  0  0  0  0  0  0  0  0  0  0  0
   -1.2832   -8.7437    3.1662 C   0  0  0  0  0  0  0  0  0  0  0  0
   -1.4879   -7.4777    2.7892 N   0  0  0  0  0  0  0  0  0  0  0  0
   -0.2950   -7.1051    2.2220 N   0  0  0  0  0  0  0  0  0  0  0  0
    0.5217   -8.1802    2.3398 C   0  0  0  0  0  0  0  0  0  0  0  0
    2.2172   -8.2263    1.8417 S   0  0  0  0  0  0  0  0  0  0  0  0
    2.5745   -6.4427    1.9101 C   0  0  2  0  0  0  0  0  0  0  0  0
    2.2343   -5.7103    0.5935 C   0  0  0  0  0  0  0  0  0  0  0  0
    1.1644   -5.8558    0.0094 O   0  0  0  0  0  0  0  0  0  0  0  0
    3.2715   -4.7123    0.0561 C   0  0  0  0  0  0  0  0  0  0  0  0
    4.5700   -4.8182    0.8645 C   0  0  2  0  0  0  0  0  0  0  0  0
    5.0562   -6.2459    1.1354 C   0  0  0  0  0  0  0  0  0  0  0  0
    4.0462   -6.1704    2.2867 C   0  0  1  0  0  0  0  0  0  0  0  0
    4.4614   -4.6782    2.4007 C   0  0  0  0  0  0  0  0  0  0  0  0
    5.7592   -4.3351    3.1646 C   0  0  0  0  0  0  0  0  0  0  0  0
    3.4409   -3.6718    2.9598 C   0  0  0  0  0  0  0  0  0  0  0  0
   -0.1522  -10.9888    4.0406 H   0  0  0  0  0  0  0  0  0  0  0  0
    1.4794  -10.4943    3.6138 H   0  0  0  0  0  0  0  0  0  0  0  0
    0.4175  -11.2056    2.3825 H   0  0  0  0  0  0  0  0  0  0  0  0
   -2.0474   -9.3075    3.6607 H   0  0  0  0  0  0  0  0  0  0  0  0
    1.9701   -6.0460    2.7248 H   0  0  0  0  0  0  0  0  0  0  0  0
    3.4806   -4.9330   -0.9801 H   0  0  0  0  0  0  0  0  0  0  0  0
    2.8705   -3.7055    0.0913 H   0  0  0  0  0  0  0  0  0  0  0  0
    5.3715   -4.2078    0.4768 H   0  0  0  0  0  0  0  0  0  0  0  0
    4.7934   -6.9634    0.3622 H   0  0  0  0  0  0  0  0  0  0  0  0
    6.1102   -6.3355    1.4343 H   0  0  0  0  0  0  0  0  0  0  0  0
    4.4029   -6.7220    3.1521 H   0  0  0  0  0  0  0  0  0  0  0  0
    5.6313   -4.4458    4.2443 H   0  0  0  0  0  0  0  0  0  0  0  0
    6.0425   -3.2991    2.9674 H   0  0  0  0  0  0  0  0  0  0  0  0
    6.6113   -4.9499    2.8907 H   0  0  0  0  0  0  0  0  0  0  0  0
    3.2878   -3.7935    4.0357 H   0  0  0  0  0  0  0  0  0  0  0  0
    2.4586   -3.7687    2.5016 H   0  0  0  0  0  0  0  0  0  0  0  0
    3.7457   -2.6362    2.7859 H   0  0  0  0  0  0  0  0  0  0  0  0
  1  2  1  0
  1 18  1  0
  1 19  1  0
  1 20  1  0
  2  6  1  0
  2  3  1  0
  3  4  2  0
  3 21  1  0
  4  5  1  0
  5  6  2  0
  6  7  1  0
  7  8  1  0
  8 14  1  0
  8  9  1  0
  8 22  1  1
  9 10  2  0
  9 11  1  0
 11 12  1  0
 11 23  1  0
 11 24  1  0
 12 15  1  0
 12 13  1  0
 12 25  1  6
 13 14  1  0
 13 26  1  0
 13 27  1  0
 14 15  1  0
 14 28  1  1
 15 16  1  0
 15 17  1  0
 16 29  1  0
 16 30  1  0
 16 31  1  0
 17 32  1  0
 17 33  1  0
 17 34  1  0
M  END
>  <i_m_ct_stereo_status>  (159) 
1

>  <s_m_source_file>  (159) 
/var/tmp/pbs.5076255.sched01/tmppm3sokcv/34yi_btuhz.sdf

>  <i_m_source_file_index>  (159) 
29

>  <i_lp_mmshare_version>  (159) 
48012

>  <i_f3d_flags>  (159) 
0

>  <s_epik_input>  (159) 
W0NIM11uMVtjSF1ubmMxU1tDQEhdKEMoPU8pW0NIMl1bQ0BIXTIzKVtDQEBIXShbQ0gyXTIpQzMoW0NIM10pW0NIM10=

>  <s_epik_cmdline>  (159) 
J2VwaWtfcHl0aG9uJywgJy1waHQnLCAnMi4wJywgJy1waCcsICc3LjAnLCAnLXRuJywgJzgnLCAnLW1hJywgJzIwMCcsICctaW1hZScsICc8aW5maWxlLm1hZT4nLCAnLW9tYWUnLCAnPG91dGZpbGUubWFlPic=

>  <r_lp_tautomer_probability>  (159) 
1

>  <r_epik_Ionization_Penalty>  (159) 
1.09465e-07

>  <r_epik_Ionization_Penalty_Charging>  (159) 
0

>  <r_epik_Ionization_Penalty_Neutral>  (159) 
1.09465e-07

>  <r_epik_State_Penalty>  (159) 
-0

>  <r_epik_Charging_Adjusted_Penalty>  (159) 
0

>  <i_epik_Tot_Q>  (159) 
0

>  <i_epik_Tot_abs_Q>  (159) 
0

>  <s_lp_Force_Field>  (159) 
OPLS3e

>  <r_lp_Energy>  (159) 
25.4171

>  <b_lp_Chiralities_Consistent>  (159) 
1

>  <s_lp_Variant>  (159) 
46:0-1

>  <s_i_glide_gridfile>  (159) 
pfpi4k_grid

>  <i_i_glide_lignum>  (159) 
29

>  <i_i_glide_rotatable_bonds>  (159) 
2

>  <r_i_docking_score>  (159) 
-4.17463

>  <r_i_glide_ligand_efficiency>  (159) 
-0.245566

>  <r_i_glide_ligand_efficiency_sa>  (159) 
-0.63142

>  <r_i_glide_ligand_efficiency_ln>  (159) 
-1.08907

>  <r_i_glide_gscore>  (159) 
-4.17463

>  <r_i_glide_lipo>  (159) 
-0.168006

>  <r_i_glide_hbond>  (159) 
-0.381526

>  <r_i_glide_metal>  (159) 
-0

>  <r_i_glide_rewards>  (159) 
-1.69535

>  <r_i_glide_evdw>  (159) 
-18.7439

>  <r_i_glide_ecoul>  (159) 
-7.98397

>  <r_i_glide_erotb>  (159) 
0.554856

>  <r_i_glide_esite>  (159) 
-0.349816

>  <r_i_glide_emodel>  (159) 
-33.0545

>  <r_i_glide_energy>  (159) 
-26.7278

>  <r_i_glide_einternal>  (159) 
3.0979

>  <r_i_glide_intrahb_reward>  (159) 
-0

>  <i_i_glide_confnum>  (159) 
5

>  <i_i_glide_posenum>  (159) 
40

>  <r_i_glide_eff_state_penalty>  (159) 
0

>  <ligand_id>  (159) 
46

>  <original_smiles>  (159) 
Cn1cnnc1SC1C(=O)CC2CC1C2(C)C

>  <smiles>  (159) 
[H]c1nnc(SC2([H])C(=O)C([H])([H])C3([H])C([H])([H])C2([H])C3(C([H])([H])[H])C([H])([H])[H])n1C([H])([H])[H]

$$$$
46:0:1
     RDKit          3D

 34 36  0  0  1  0  0  0  0  0999 V2000
    3.7232   -7.9702    2.5437 C   0  0  0  0  0  0  0  0  0  0  0  0
    2.8750   -7.1008    1.7546 N   0  0  0  0  0  0  0  0  0  0  0  0
    1.6050   -7.3325    1.3457 C   0  0  0  0  0  0  0  0  0  0  0  0
    1.0319   -6.3123    0.7051 N   0  0  0  0  0  0  0  0  0  0  0  0
    2.0187   -5.3504    0.6544 N   0  0  0  0  0  0  0  0  0  0  0  0
    3.0954   -5.8689    1.2587 C   0  0  0  0  0  0  0  0  0  0  0  0
    4.6410   -5.0048    1.4517 S   0  0  0  0  0  0  0  0  0  0  0  0
    4.9846   -4.4130   -0.2525 C   0  0  2  0  0  0  0  0  0  0  0  0
    6.3576   -3.6788   -0.3041 C   0  0  0  0  0  0  0  0  0  0  0  0
    7.3899   -4.1670    0.1627 O   0  0  0  0  0  0  0  0  0  0  0  0
    6.3953   -2.3013   -1.0204 C   0  0  0  0  0  0  0  0  0  0  0  0
    4.9797   -1.8592   -1.4202 C   0  0  2  0  0  0  0  0  0  0  0  0
    3.9422   -2.0271   -0.3024 C   0  0  0  0  0  0  0  0  0  0  0  0
    3.8997   -3.4638   -0.8323 C   0  0  1  0  0  0  0  0  0  0  0  0
    4.1288   -2.8720   -2.2349 C   0  0  0  0  0  0  0  0  0  0  0  0
    2.8662   -2.3632   -2.9587 C   0  0  0  0  0  0  0  0  0  0  0  0
    4.8317   -3.7692   -3.2658 C   0  0  0  0  0  0  0  0  0  0  0  0
    3.1049   -8.6923    3.0703 H   0  0  0  0  0  0  0  0  0  0  0  0
    4.2701   -7.3900    3.2930 H   0  0  0  0  0  0  0  0  0  0  0  0
    4.4352   -8.5021    1.9117 H   0  0  0  0  0  0  0  0  0  0  0  0
    1.0896   -8.2598    1.5405 H   0  0  0  0  0  0  0  0  0  0  0  0
    5.0689   -5.3038   -0.8724 H   0  0  0  0  0  0  0  0  0  0  0  0
    6.8450   -1.5681   -0.3461 H   0  0  0  0  0  0  0  0  0  0  0  0
    7.0265   -2.3745   -1.9072 H   0  0  0  0  0  0  0  0  0  0  0  0
    4.9246   -0.8551   -1.8582 H   0  0  0  0  0  0  0  0  0  0  0  0
    4.3354   -1.9322    0.7181 H   0  0  0  0  0  0  0  0  0  0  0  0
    3.0185   -1.4769   -0.4215 H   0  0  0  0  0  0  0  0  0  0  0  0
    2.8837   -3.8479   -0.8993 H   0  0  0  0  0  0  0  0  0  0  0  0
    2.2343   -3.1930   -3.2786 H   0  0  0  0  0  0  0  0  0  0  0  0
    3.1113   -1.7791   -3.8417 H   0  0  0  0  0  0  0  0  0  0  0  0
    2.2254   -1.7407   -2.3384 H   0  0  0  0  0  0  0  0  0  0  0  0
    4.2036   -4.5963   -3.5889 H   0  0  0  0  0  0  0  0  0  0  0  0
    5.7458   -4.2258   -2.8832 H   0  0  0  0  0  0  0  0  0  0  0  0
    5.0916   -3.2110   -4.1566 H   0  0  0  0  0  0  0  0  0  0  0  0
  1  2  1  0
  1 18  1  0
  1 19  1  0
  1 20  1  0
  2  6  1  0
  2  3  1  0
  3  4  2  0
  3 21  1  0
  4  5  1  0
  5  6  2  0
  6  7  1  0
  7  8  1  0
  8 14  1  0
  8  9  1  0
  8 22  1  6
  9 10  2  0
  9 11  1  0
 11 12  1  0
 11 23  1  0
 11 24  1  0
 12 15  1  0
 12 13  1  0
 12 25  1  6
 13 14  1  0
 13 26  1  0
 13 27  1  0
 14 15  1  0
 14 28  1  6
 15 16  1  0
 15 17  1  0
 16 29  1  0
 16 30  1  0
 16 31  1  0
 17 32  1  0
 17 33  1  0
 17 34  1  0
M  END
>  <i_m_ct_stereo_status>  (160) 
1

>  <s_m_source_file>  (160) 
/var/tmp/pbs.5076255.sched01/tmppm3sokcv/34yi_btuhz.sdf

>  <i_m_source_file_index>  (160) 
29

>  <i_lp_mmshare_version>  (160) 
48012

>  <i_f3d_flags>  (160) 
0

>  <s_epik_input>  (160) 
W0NIM11uMVtjSF1ubmMxU1tDQEhdKEMoPU8pW0NIMl1bQ0BIXTIzKVtDQEBIXShbQ0gyXTIpQzMoW0NIM10pW0NIM10=

>  <s_epik_cmdline>  (160) 
J2VwaWtfcHl0aG9uJywgJy1waHQnLCAnMi4wJywgJy1waCcsICc3LjAnLCAnLXRuJywgJzgnLCAnLW1hJywgJzIwMCcsICctaW1hZScsICc8aW5maWxlLm1hZT4nLCAnLW9tYWUnLCAnPG91dGZpbGUubWFlPic=

>  <r_lp_tautomer_probability>  (160) 
1

>  <r_epik_Ionization_Penalty>  (160) 
1.09465e-07

>  <r_epik_Ionization_Penalty_Charging>  (160) 
0

>  <r_epik_Ionization_Penalty_Neutral>  (160) 
1.09465e-07

>  <r_epik_State_Penalty>  (160) 
-0

>  <r_epik_Charging_Adjusted_Penalty>  (160) 
0

>  <i_epik_Tot_Q>  (160) 
0

>  <i_epik_Tot_abs_Q>  (160) 
0

>  <s_lp_Force_Field>  (160) 
OPLS3e

>  <r_lp_Energy>  (160) 
25.4171

>  <b_lp_Chiralities_Consistent>  (160) 
1

>  <s_lp_Variant>  (160) 
46:0-1

>  <s_i_glide_gridfile>  (160) 
pfpi4k_grid

>  <i_i_glide_lignum>  (160) 
29

>  <i_i_glide_rotatable_bonds>  (160) 
2

>  <r_i_docking_score>  (160) 
-3.21571

>  <r_i_glide_ligand_efficiency>  (160) 
-0.18916

>  <r_i_glide_ligand_efficiency_sa>  (160) 
-0.486383

>  <r_i_glide_ligand_efficiency_ln>  (160) 
-0.838908

>  <r_i_glide_gscore>  (160) 
-3.21571

>  <r_i_glide_lipo>  (160) 
-0.152807

>  <r_i_glide_hbond>  (160) 
0

>  <r_i_glide_metal>  (160) 
-0

>  <r_i_glide_rewards>  (160) 
-1.8515

>  <r_i_glide_evdw>  (160) 
-19.6602

>  <r_i_glide_ecoul>  (160) 
-3.85268

>  <r_i_glide_erotb>  (160) 
0.554856

>  <r_i_glide_esite>  (160) 
-0.205357

>  <r_i_glide_emodel>  (160) 
-28.8571

>  <r_i_glide_energy>  (160) 
-23.5129

>  <r_i_glide_einternal>  (160) 
0.264038

>  <r_i_glide_intrahb_reward>  (160) 
-0

>  <i_i_glide_confnum>  (160) 
1

>  <i_i_glide_posenum>  (160) 
22

>  <r_i_glide_eff_state_penalty>  (160) 
0

>  <ligand_id>  (160) 
46

>  <original_smiles>  (160) 
Cn1cnnc1SC1C(=O)CC2CC1C2(C)C

>  <smiles>  (160) 
[H]c1nnc(SC2([H])C(=O)C([H])([H])C3([H])C([H])([H])C2([H])C3(C([H])([H])[H])C([H])([H])[H])n1C([H])([H])[H]

$$$$
46:0:2
     RDKit          3D

 34 36  0  0  1  0  0  0  0  0999 V2000
   -2.9857    3.9615    9.8735 C   0  0  0  0  0  0  0  0  0  0  0  0
   -2.0525    2.8830    9.5814 N   0  0  0  0  0  0  0  0  0  0  0  0
   -1.3337    2.1629   10.4451 C   0  0  0  0  0  0  0  0  0  0  0  0
   -0.5488    1.2300    9.8945 N   0  0  0  0  0  0  0  0  0  0  0  0
   -0.7701    1.3498    8.5435 N   0  0  0  0  0  0  0  0  0  0  0  0
   -1.6564    2.3531    8.4108 C   0  0  0  0  0  0  0  0  0  0  0  0
   -2.2753    2.9130    6.8576 S   0  0  0  0  0  0  0  0  0  0  0  0
   -0.7764    2.7019    5.8340 C   0  0  2  0  0  0  0  0  0  0  0  0
   -0.7772    3.6914    4.6490 C   0  0  0  0  0  0  0  0  0  0  0  0
   -0.9798    4.8911    4.8163 O   0  0  0  0  0  0  0  0  0  0  0  0
   -0.4620    3.1226    3.2573 C   0  0  0  0  0  0  0  0  0  0  0  0
   -0.3454    1.5918    3.3130 C   0  0  2  0  0  0  0  0  0  0  0  0
   -1.4674    0.8918    4.0900 C   0  0  0  0  0  0  0  0  0  0  0  0
   -0.6021    1.2562    5.3022 C   0  0  1  0  0  0  0  0  0  0  0  0
    0.6155    0.9877    4.3714 C   0  0  0  0  0  0  0  0  0  0  0  0
    1.0650   -0.4817    4.1726 C   0  0  0  0  0  0  0  0  0  0  0  0
    1.9270    1.7433    4.6602 C   0  0  0  0  0  0  0  0  0  0  0  0
   -3.3054    3.8845   10.9116 H   0  0  0  0  0  0  0  0  0  0  0  0
   -3.8644    3.8912    9.2360 H   0  0  0  0  0  0  0  0  0  0  0  0
   -2.5049    4.9265    9.7234 H   0  0  0  0  0  0  0  0  0  0  0  0
   -1.3774    2.3032   11.5134 H   0  0  0  0  0  0  0  0  0  0  0  0
    0.0768    2.9559    6.4626 H   0  0  0  0  0  0  0  0  0  0  0  0
   -1.2471    3.4126    2.5635 H   0  0  0  0  0  0  0  0  0  0  0  0
    0.4628    3.5582    2.8796 H   0  0  0  0  0  0  0  0  0  0  0  0
   -0.1936    1.1350    2.3408 H   0  0  0  0  0  0  0  0  0  0  0  0
   -2.4206    1.4125    4.0632 H   0  0  0  0  0  0  0  0  0  0  0  0
   -1.5894   -0.1784    3.8917 H   0  0  0  0  0  0  0  0  0  0  0  0
   -0.6635    0.4783    6.0564 H   0  0  0  0  0  0  0  0  0  0  0  0
    1.5601   -0.8704    5.0652 H   0  0  0  0  0  0  0  0  0  0  0  0
    1.7741   -0.5715    3.3466 H   0  0  0  0  0  0  0  0  0  0  0  0
    0.2523   -1.1676    3.9487 H   0  0  0  0  0  0  0  0  0  0  0  0
    2.4215    1.3782    5.5630 H   0  0  0  0  0  0  0  0  0  0  0  0
    1.7798    2.8105    4.8120 H   0  0  0  0  0  0  0  0  0  0  0  0
    2.6392    1.6612    3.8357 H   0  0  0  0  0  0  0  0  0  0  0  0
  1  2  1  0
  1 18  1  0
  1 19  1  0
  1 20  1  0
  2  6  1  0
  2  3  1  0
  3  4  2  0
  3 21  1  0
  4  5  1  0
  5  6  2  0
  6  7  1  0
  7  8  1  0
  8 14  1  0
  8  9  1  0
  8 22  1  1
  9 10  2  0
  9 11  1  0
 11 12  1  0
 11 23  1  0
 11 24  1  0
 12 15  1  0
 12 13  1  0
 12 25  1  6
 13 14  1  0
 13 26  1  0
 13 27  1  0
 14 15  1  0
 14 28  1  1
 15 16  1  0
 15 17  1  0
 16 29  1  0
 16 30  1  0
 16 31  1  0
 17 32  1  0
 17 33  1  0
 17 34  1  0
M  END
>  <i_m_ct_stereo_status>  (161) 
1

>  <s_m_source_file>  (161) 
/var/tmp/pbs.5076255.sched01/tmppm3sokcv/34yi_btuhz.sdf

>  <i_m_source_file_index>  (161) 
29

>  <i_lp_mmshare_version>  (161) 
48012

>  <i_f3d_flags>  (161) 
0

>  <s_epik_input>  (161) 
W0NIM11uMVtjSF1ubmMxU1tDQEhdKEMoPU8pW0NIMl1bQ0BIXTIzKVtDQEBIXShbQ0gyXTIpQzMoW0NIM10pW0NIM10=

>  <s_epik_cmdline>  (161) 
J2VwaWtfcHl0aG9uJywgJy1waHQnLCAnMi4wJywgJy1waCcsICc3LjAnLCAnLXRuJywgJzgnLCAnLW1hJywgJzIwMCcsICctaW1hZScsICc8aW5maWxlLm1hZT4nLCAnLW9tYWUnLCAnPG91dGZpbGUubWFlPic=

>  <r_lp_tautomer_probability>  (161) 
1

>  <r_epik_Ionization_Penalty>  (161) 
1.09465e-07

>  <r_epik_Ionization_Penalty_Charging>  (161) 
0

>  <r_epik_Ionization_Penalty_Neutral>  (161) 
1.09465e-07

>  <r_epik_State_Penalty>  (161) 
-0

>  <r_epik_Charging_Adjusted_Penalty>  (161) 
0

>  <i_epik_Tot_Q>  (161) 
0

>  <i_epik_Tot_abs_Q>  (161) 
0

>  <s_lp_Force_Field>  (161) 
OPLS3e

>  <r_lp_Energy>  (161) 
25.4171

>  <b_lp_Chiralities_Consistent>  (161) 
1

>  <s_lp_Variant>  (161) 
46:0-1

>  <s_i_glide_gridfile>  (161) 
pfpi4k_grid

>  <i_i_glide_lignum>  (161) 
29

>  <i_i_glide_rotatable_bonds>  (161) 
2

>  <r_i_docking_score>  (161) 
-3.0889

>  <r_i_glide_ligand_efficiency>  (161) 
-0.1817

>  <r_i_glide_ligand_efficiency_sa>  (161) 
-0.467201

>  <r_i_glide_ligand_efficiency_ln>  (161) 
-0.805824

>  <r_i_glide_gscore>  (161) 
-3.0889

>  <r_i_glide_lipo>  (161) 
-0.107501

>  <r_i_glide_hbond>  (161) 
-0.0299762

>  <r_i_glide_metal>  (161) 
-0

>  <r_i_glide_rewards>  (161) 
-1.69535

>  <r_i_glide_evdw>  (161) 
-16.489

>  <r_i_glide_ecoul>  (161) 
-4.83301

>  <r_i_glide_erotb>  (161) 
0.554856

>  <r_i_glide_esite>  (161) 
-0.261527

>  <r_i_glide_emodel>  (161) 
-27.1017

>  <r_i_glide_energy>  (161) 
-21.322

>  <r_i_glide_einternal>  (161) 
0.372319

>  <r_i_glide_intrahb_reward>  (161) 
-0

>  <i_i_glide_confnum>  (161) 
4

>  <i_i_glide_posenum>  (161) 
4

>  <r_i_glide_eff_state_penalty>  (161) 
0

>  <ligand_id>  (161) 
46

>  <original_smiles>  (161) 
Cn1cnnc1SC1C(=O)CC2CC1C2(C)C

>  <smiles>  (161) 
[H]c1nnc(SC2([H])C(=O)C([H])([H])C3([H])C([H])([H])C2([H])C3(C([H])([H])[H])C([H])([H])[H])n1C([H])([H])[H]

$$$$
47:0:0
     RDKit          3D

 71 75  0  0  1  0  0  0  0  0999 V2000
    3.0956    1.3107    6.3598 C   0  0  0  0  0  0  0  0  0  0  0  0
    1.6882    1.4945    6.4373 O   0  0  0  0  0  0  0  0  0  0  0  0
    0.9305    0.3441    6.4420 C   0  0  0  0  0  0  0  0  0  0  0  0
    1.2369   -0.7569    7.1904 C   0  0  0  0  0  0  0  0  0  0  0  0
    0.4616   -2.0613    7.1872 C   0  0  1  0  0  0  0  0  0  0  0  0
   -0.1859   -2.1939    8.3574 O   0  0  0  0  0  0  0  0  0  0  0  0
   -0.5931   -2.0122    6.1021 C   0  0  0  0  0  0  0  0  0  0  0  0
   -0.9155   -0.9561    5.3203 C   0  0  0  0  0  0  0  0  0  0  0  0
   -0.2306    0.3525    5.4827 C   0  0  0  0  0  0  0  0  0  0  0  0
   -0.5606    1.3389    4.8401 O   0  0  0  0  0  0  0  0  0  0  0  0
   -0.9328   -3.2851    5.7719 O   0  0  0  0  0  0  0  0  0  0  0  0
    0.0318   -4.1409    6.2092 C   0  0  0  0  0  0  0  0  0  0  0  0
   -0.0631   -5.4767    6.1836 C   0  0  0  0  0  0  0  0  0  0  0  0
    0.9914   -6.3841    6.7706 C   0  0  2  0  0  0  0  0  0  0  0  0
    2.0408   -5.7056    7.7599 C   0  0  1  0  0  0  0  0  0  0  0  0
    1.7570   -6.1680    9.2366 C   0  0  0  0  0  0  0  0  0  0  0  0
    0.4168   -5.6413    9.7985 C   0  0  0  0  0  0  0  0  0  0  0  0
    2.8804   -5.8739   10.2573 C   0  0  0  0  0  0  0  0  0  0  0  0
    3.3953   -6.2927    7.2380 C   0  0  0  0  0  0  0  0  0  0  0  0
    3.1378   -6.5438    5.7519 C   0  0  1  0  0  0  0  0  0  0  0  0
    4.1753   -7.2588    4.9060 C   0  0  0  0  0  0  0  0  0  0  0  0
    3.8355   -7.9090    3.7666 C   0  0  0  0  0  0  0  0  0  0  0  0
    4.8307   -8.6629    2.8691 C   0  0  0  0  0  0  0  0  0  0  0  0
    6.2654   -8.7399    3.4333 C   0  0  0  0  0  0  0  0  0  0  0  0
    4.8655   -8.1098    1.4308 C   0  0  0  0  0  0  0  0  0  0  0  0
    2.3613   -7.9910    3.3298 C   0  0  0  0  0  0  0  0  0  0  0  0
    1.3506   -7.2015    4.2196 C   0  0  1  0  0  0  0  0  0  0  0  0
    0.0547   -7.7656    4.0510 O   0  0  0  0  0  0  0  0  0  0  0  0
   -0.7021   -7.4704    2.9805 C   0  0  0  0  0  0  0  0  0  0  0  0
   -1.9889   -8.2816    2.9607 C   0  0  0  0  0  0  0  0  0  0  0  0
   -0.4442   -6.6552    2.1007 O   0  0  0  0  0  0  0  0  0  0  0  0
    1.7731   -7.2292    5.7157 C   0  0  2  0  0  0  0  0  0  0  0  0
    1.8106   -8.7045    6.2225 C   0  0  0  0  0  0  0  0  0  0  0  0
    2.1255   -4.1343    7.6926 C   0  0  0  0  0  0  0  0  0  0  0  0
    3.0200   -3.5447    8.2966 O   0  0  0  0  0  0  0  0  0  0  0  0
    1.1776   -3.3502    6.7592 C   0  0  2  0  0  0  0  0  0  0  0  0
    3.5933    2.2690    6.5008 H   0  0  0  0  0  0  0  0  0  0  0  0
    3.3551    0.9345    5.3710 H   0  0  0  0  0  0  0  0  0  0  0  0
    3.5095    0.6325    7.1045 H   0  0  0  0  0  0  0  0  0  0  0  0
    2.0614   -0.7364    7.8902 H   0  0  0  0  0  0  0  0  0  0  0  0
   -1.5836   -1.0751    4.4753 H   0  0  0  0  0  0  0  0  0  0  0  0
   -0.9617   -5.9328    5.7911 H   0  0  0  0  0  0  0  0  0  0  0  0
    0.3784   -7.0789    7.3447 H   0  0  0  0  0  0  0  0  0  0  0  0
    1.6744   -7.2561    9.2102 H   0  0  0  0  0  0  0  0  0  0  0  0
    0.4376   -4.5621    9.9592 H   0  0  0  0  0  0  0  0  0  0  0  0
    0.1928   -6.1026   10.7601 H   0  0  0  0  0  0  0  0  0  0  0  0
   -0.4199   -5.8506    9.1339 H   0  0  0  0  0  0  0  0  0  0  0  0
    2.9624   -4.8127   10.4947 H   0  0  0  0  0  0  0  0  0  0  0  0
    3.8565   -6.2118    9.9104 H   0  0  0  0  0  0  0  0  0  0  0  0
    2.6841   -6.3876   11.1985 H   0  0  0  0  0  0  0  0  0  0  0  0
    4.2472   -5.6279    7.3847 H   0  0  0  0  0  0  0  0  0  0  0  0
    3.6473   -7.2267    7.7437 H   0  0  0  0  0  0  0  0  0  0  0  0
    3.0548   -5.5596    5.2893 H   0  0  0  0  0  0  0  0  0  0  0  0
    5.2000   -7.1973    5.2388 H   0  0  0  0  0  0  0  0  0  0  0  0
    4.4708   -9.6924    2.8081 H   0  0  0  0  0  0  0  0  0  0  0  0
    6.2822   -9.1829    4.4294 H   0  0  0  0  0  0  0  0  0  0  0  0
    6.7368   -7.7576    3.4880 H   0  0  0  0  0  0  0  0  0  0  0  0
    6.8991   -9.3639    2.8019 H   0  0  0  0  0  0  0  0  0  0  0  0
    3.9088   -8.2277    0.9234 H   0  0  0  0  0  0  0  0  0  0  0  0
    5.5986   -8.6439    0.8259 H   0  0  0  0  0  0  0  0  0  0  0  0
    5.1300   -7.0522    1.4132 H   0  0  0  0  0  0  0  0  0  0  0  0
    2.2499   -7.6523    2.3004 H   0  0  0  0  0  0  0  0  0  0  0  0
    2.0871   -9.0482    3.3319 H   0  0  0  0  0  0  0  0  0  0  0  0
    1.3469   -6.1609    3.8915 H   0  0  0  0  0  0  0  0  0  0  0  0
   -2.5770   -8.0790    3.8542 H   0  0  0  0  0  0  0  0  0  0  0  0
   -1.7552   -9.3467    2.9434 H   0  0  0  0  0  0  0  0  0  0  0  0
   -2.5867   -8.0444    2.0827 H   0  0  0  0  0  0  0  0  0  0  0  0
    2.5081   -9.3376    5.6728 H   0  0  0  0  0  0  0  0  0  0  0  0
    0.8297   -9.1762    6.1347 H   0  0  0  0  0  0  0  0  0  0  0  0
    2.0934   -8.7792    7.2730 H   0  0  0  0  0  0  0  0  0  0  0  0
    1.7930   -3.0921    5.8930 H   0  0  0  0  0  0  0  0  0  0  0  0
  1  2  1  0
  1 37  1  0
  1 38  1  0
  1 39  1  0
  2  3  1  0
  3  9  1  0
  3  4  2  0
  4  5  1  0
  4 40  1  0
  5 36  1  0
  5  6  1  1
  5  7  1  0
  7  8  2  0
  7 11  1  0
  8  9  1  0
  8 41  1  0
  9 10  2  0
 11 12  1  0
 12 36  1  0
 12 13  2  0
 13 14  1  0
 13 42  1  0
 14 32  1  0
 14 15  1  0
 14 43  1  1
 15 16  1  1
 15 19  1  0
 15 34  1  0
 16 17  1  0
 16 18  1  0
 16 44  1  0
 17 45  1  0
 17 46  1  0
 17 47  1  0
 18 48  1  0
 18 49  1  0
 18 50  1  0
 19 20  1  0
 19 51  1  0
 19 52  1  0
 20 32  1  0
 20 21  1  0
 20 53  1  6
 21 22  2  0
 21 54  1  0
 22 23  1  0
 22 26  1  0
 23 24  1  0
 23 25  1  0
 23 55  1  0
 24 56  1  0
 24 57  1  0
 24 58  1  0
 25 59  1  0
 25 60  1  0
 25 61  1  0
 26 27  1  0
 26 62  1  0
 26 63  1  0
 27 28  1  0
 27 32  1  0
 27 64  1  6
 28 29  1  0
 29 30  1  0
 29 31  2  0
 30 65  1  0
 30 66  1  0
 30 67  1  0
 32 33  1  1
 33 68  1  0
 33 69  1  0
 33 70  1  0
 34 35  2  0
 34 36  1  0
 36 71  1  6
M  CHG  1   6  -1
M  END
>  <i_m_ct_stereo_status>  (162) 
1

>  <s_m_source_file>  (162) 
/var/tmp/pbs.5076255.sched01/tmppm3sokcv/34yi_btuhz.sdf

>  <i_m_source_file_index>  (162) 
30

>  <i_lp_mmshare_version>  (162) 
48012

>  <i_f3d_flags>  (162) 
0

>  <s_epik_input>  (162) 
W0NIM11PQyg9W0NIXTEpQyg9TylbQ0hdPUMoW0NAXTEyW09IXSlPQz0zW0NAQEhdMkMoPU8pW0NAQF00KFtDSF0oW0NIM10pW0NIM10pW0NAQEhdKFtDSF0zKVtDQF01KFtDSDNdKVtDQEBIXShbQ0gyXTQpW0NIXT1DKFtDSF0oW0NIM10pW0NIM10pW0NIMl1bQ0BIXTVPQyg9TylbQ0gzXQ==

>  <s_epik_cmdline>  (162) 
J2VwaWtfcHl0aG9uJywgJy1waHQnLCAnMi4wJywgJy1waCcsICc3LjAnLCAnLXRuJywgJzgnLCAnLW1hJywgJzIwMCcsICctaW1hZScsICc8aW5maWxlLm1hZT4nLCAnLW9tYWUnLCAnPG91dGZpbGUubWFlPic=

>  <r_epik_Ionization_Penalty>  (162) 
0.000620717

>  <r_epik_Ionization_Penalty_Charging>  (162) 
0.000620717

>  <r_epik_Ionization_Penalty_Neutral>  (162) 
4.25957e-11

>  <r_epik_State_Penalty>  (162) 
0.000391839

>  <r_epik_Charging_Adjusted_Penalty>  (162) 
0.00101256

>  <i_epik_Tot_Q>  (162) 
-1

>  <i_epik_Tot_abs_Q>  (162) 
1

>  <s_epik_Chemistry_Notes>  (162) 
This compound has an ester and may undergo hydrolysis at high or low pH.

>  <s_lp_Force_Field>  (162) 
OPLS3e

>  <r_lp_Energy>  (162) 
55.7173

>  <b_lp_Chiralities_Consistent>  (162) 
1

>  <s_lp_Variant>  (162) 
47:0-1

>  <s_i_glide_gridfile>  (162) 
pfpi4k_grid

>  <i_i_glide_lignum>  (162) 
30

>  <i_i_glide_rotatable_bonds>  (162) 
5

>  <r_i_docking_score>  (162) 
-2.19606

>  <r_i_glide_ligand_efficiency>  (162) 
-0.0610016

>  <r_i_glide_ligand_efficiency_sa>  (162) 
-0.201423

>  <r_i_glide_ligand_efficiency_ln>  (162) 
-0.47912

>  <r_i_glide_gscore>  (162) 
-2.19606

>  <r_i_glide_lipo>  (162) 
-0.0570938

>  <r_i_glide_hbond>  (162) 
-0.335686

>  <r_i_glide_metal>  (162) 
-0

>  <r_i_glide_rewards>  (162) 
-0.0301091

>  <r_i_glide_evdw>  (162) 
-20.6473

>  <r_i_glide_ecoul>  (162) 
-4.91049

>  <r_i_glide_erotb>  (162) 
0.0830053

>  <r_i_glide_esite>  (162) 
-0.0872363

>  <r_i_glide_emodel>  (162) 
-29.957

>  <r_i_glide_energy>  (162) 
-25.5577

>  <r_i_glide_einternal>  (162) 
1.12411

>  <r_i_glide_intrahb_reward>  (162) 
-0

>  <i_i_glide_confnum>  (162) 
1

>  <i_i_glide_posenum>  (162) 
7

>  <r_i_glide_eff_state_penalty>  (162) 
0

>  <ligand_id>  (162) 
47

>  <original_smiles>  (162) 
COC1=CC2(O)C(=CC1=O)OC1=CC3C(C(C)C)(CC4C=C(C(C)C)CC(OC(C)=O)C43C)C(=O)C12

>  <smiles>  (162) 
[H]C1=C2OC3=C([H])C4([H])C(C([H])(C([H])([H])[H])C([H])([H])[H])(C(=O)C3([H])C2([O-])C([H])=C(OC([H])([H])[H])C1=O)C([H])([H])C1([H])C([H])=C(C([H])(C([H])([H])[H])C([H])([H])[H])C([H])([H])C([H])(OC(=O)C([H])([H])[H])C14C([H])([H])[H]

$$$$
47:0:1
     RDKit          3D

 71 75  0  0  1  0  0  0  0  0999 V2000
    1.9734    2.7256    5.0366 C   0  0  0  0  0  0  0  0  0  0  0  0
    0.5801    2.6681    5.3261 O   0  0  0  0  0  0  0  0  0  0  0  0
    0.0706    1.4172    5.5805 C   0  0  0  0  0  0  0  0  0  0  0  0
    0.7073    0.4833    6.3570 C   0  0  0  0  0  0  0  0  0  0  0  0
    0.1985   -0.9178    6.6307 C   0  0  1  0  0  0  0  0  0  0  0  0
   -0.1790   -0.9833    7.9070 O   0  0  0  0  0  0  0  0  0  0  0  0
   -1.0190   -1.1921    5.7648 C   0  0  0  0  0  0  0  0  0  0  0  0
   -1.6730   -0.3095    4.9742 C   0  0  0  0  0  0  0  0  0  0  0  0
   -1.2290    1.1117    4.8785 C   0  0  0  0  0  0  0  0  0  0  0  0
   -1.8392    1.9503    4.2120 O   0  0  0  0  0  0  0  0  0  0  0  0
   -1.1859   -2.5365    5.6515 O   0  0  0  0  0  0  0  0  0  0  0  0
   -0.0073   -3.1574    5.9681 C   0  0  0  0  0  0  0  0  0  0  0  0
    0.1521   -4.4717    6.0956 C   0  0  0  0  0  0  0  0  0  0  0  0
    1.4453   -5.1077    6.5555 C   0  0  2  0  0  0  0  0  0  0  0  0
    2.4994   -4.1352    7.2497 C   0  0  1  0  0  0  0  0  0  0  0  0
    2.5670   -4.4431    8.7934 C   0  0  0  0  0  0  0  0  0  0  0  0
    1.2775   -4.0532    9.5539 C   0  0  0  0  0  0  0  0  0  0  0  0
    3.7847   -3.8517    9.5395 C   0  0  0  0  0  0  0  0  0  0  0  0
    3.8264   -4.5517    6.5382 C   0  0  0  0  0  0  0  0  0  0  0  0
    3.3701   -5.0365    5.1641 C   0  0  1  0  0  0  0  0  0  0  0  0
    4.3671   -5.6774    4.2127 C   0  0  0  0  0  0  0  0  0  0  0  0
    3.9636   -6.5171    3.2360 C   0  0  0  0  0  0  0  0  0  0  0  0
    4.9039   -7.2031    2.2337 C   0  0  0  0  0  0  0  0  0  0  0  0
    6.3944   -7.1351    2.6206 C   0  0  0  0  0  0  0  0  0  0  0  0
    4.6975   -6.6786    0.7985 C   0  0  0  0  0  0  0  0  0  0  0  0
    2.4822   -6.9012    3.0908 C   0  0  0  0  0  0  0  0  0  0  0  0
    1.5017   -6.1828    4.0707 C   0  0  1  0  0  0  0  0  0  0  0  0
    0.3153   -6.9633    4.2390 O   0  0  0  0  0  0  0  0  0  0  0  0
   -0.5615   -7.1459    3.2243 C   0  0  0  0  0  0  0  0  0  0  0  0
   -1.7316   -8.0246    3.6341 C   0  0  0  0  0  0  0  0  0  0  0  0
   -0.4895   -6.6584    2.0969 O   0  0  0  0  0  0  0  0  0  0  0  0
    2.1732   -5.9371    5.4557 C   0  0  2  0  0  0  0  0  0  0  0  0
    2.5724   -7.3044    6.0918 C   0  0  0  0  0  0  0  0  0  0  0  0
    2.2748   -2.5971    7.0095 C   0  0  0  0  0  0  0  0  0  0  0  0
    3.1300   -1.7921    7.3797 O   0  0  0  0  0  0  0  0  0  0  0  0
    1.0536   -2.1140    6.1970 C   0  0  2  0  0  0  0  0  0  0  0  0
    2.2900    3.7631    4.9701 H   0  0  0  0  0  0  0  0  0  0  0  0
    2.1601    2.2458    4.0728 H   0  0  0  0  0  0  0  0  0  0  0  0
    2.6079    2.2517    5.7812 H   0  0  0  0  0  0  0  0  0  0  0  0
    1.6133    0.7326    6.8899 H   0  0  0  0  0  0  0  0  0  0  0  0
   -2.4534   -0.6426    4.3016 H   0  0  0  0  0  0  0  0  0  0  0  0
   -0.6962   -5.1259    5.9335 H   0  0  0  0  0  0  0  0  0  0  0  0
    1.0786   -5.8085    7.3058 H   0  0  0  0  0  0  0  0  0  0  0  0
    2.6695   -5.5233    8.8939 H   0  0  0  0  0  0  0  0  0  0  0  0
    1.1424   -2.9701    9.6008 H   0  0  0  0  0  0  0  0  0  0  0  0
    1.3102   -4.4147   10.5800 H   0  0  0  0  0  0  0  0  0  0  0  0
    0.3841   -4.4706    9.0896 H   0  0  0  0  0  0  0  0  0  0  0  0
    3.7227   -2.7676    9.6489 H   0  0  0  0  0  0  0  0  0  0  0  0
    4.7298   -4.0800    9.0442 H   0  0  0  0  0  0  0  0  0  0  0  0
    3.8489   -4.2628   10.5471 H   0  0  0  0  0  0  0  0  0  0  0  0
    4.5514   -3.7421    6.4513 H   0  0  0  0  0  0  0  0  0  0  0  0
    4.3334   -5.3578    7.0750 H   0  0  0  0  0  0  0  0  0  0  0  0
    3.0241   -4.1515    4.6272 H   0  0  0  0  0  0  0  0  0  0  0  0
    5.4032   -5.3993    4.3313 H   0  0  0  0  0  0  0  0  0  0  0  0
    4.6416   -8.2636    2.2317 H   0  0  0  0  0  0  0  0  0  0  0  0
    6.5658   -7.5449    3.6170 H   0  0  0  0  0  0  0  0  0  0  0  0
    6.7822   -6.1140    2.5985 H   0  0  0  0  0  0  0  0  0  0  0  0
    7.0048   -7.7216    1.9311 H   0  0  0  0  0  0  0  0  0  0  0  0
    3.6935   -6.8839    0.4275 H   0  0  0  0  0  0  0  0  0  0  0  0
    5.3778   -7.1567    0.1061 H   0  0  0  0  0  0  0  0  0  0  0  0
    4.8729   -5.6055    0.7329 H   0  0  0  0  0  0  0  0  0  0  0  0
    2.1580   -6.7238    2.0681 H   0  0  0  0  0  0  0  0  0  0  0  0
    2.4155   -7.9774    3.2521 H   0  0  0  0  0  0  0  0  0  0  0  0
    1.2341   -5.2155    3.6485 H   0  0  0  0  0  0  0  0  0  0  0  0
   -2.2452   -7.5752    4.4777 H   0  0  0  0  0  0  0  0  0  0  0  0
   -1.3681   -9.0085    3.9206 H   0  0  0  0  0  0  0  0  0  0  0  0
   -2.4306   -8.1317    2.8043 H   0  0  0  0  0  0  0  0  0  0  0  0
    3.2732   -7.8799    5.4807 H   0  0  0  0  0  0  0  0  0  0  0  0
    1.6954   -7.9365    6.2397 H   0  0  0  0  0  0  0  0  0  0  0  0
    3.0400   -7.1896    7.0698 H   0  0  0  0  0  0  0  0  0  0  0  0
    1.4520   -1.8740    5.2093 H   0  0  0  0  0  0  0  0  0  0  0  0
  1  2  1  0
  1 37  1  0
  1 38  1  0
  1 39  1  0
  2  3  1  0
  3  9  1  0
  3  4  2  0
  4  5  1  0
  4 40  1  0
  5 36  1  0
  5  6  1  1
  5  7  1  0
  7  8  2  0
  7 11  1  0
  8  9  1  0
  8 41  1  0
  9 10  2  0
 11 12  1  0
 12 36  1  0
 12 13  2  0
 13 14  1  0
 13 42  1  0
 14 32  1  0
 14 15  1  0
 14 43  1  1
 15 16  1  1
 15 19  1  0
 15 34  1  0
 16 17  1  0
 16 18  1  0
 16 44  1  0
 17 45  1  0
 17 46  1  0
 17 47  1  0
 18 48  1  0
 18 49  1  0
 18 50  1  0
 19 20  1  0
 19 51  1  0
 19 52  1  0
 20 32  1  0
 20 21  1  0
 20 53  1  6
 21 22  2  0
 21 54  1  0
 22 23  1  0
 22 26  1  0
 23 24  1  0
 23 25  1  0
 23 55  1  0
 24 56  1  0
 24 57  1  0
 24 58  1  0
 25 59  1  0
 25 60  1  0
 25 61  1  0
 26 27  1  0
 26 62  1  0
 26 63  1  0
 27 28  1  0
 27 32  1  0
 27 64  1  6
 28 29  1  0
 29 30  1  0
 29 31  2  0
 30 65  1  0
 30 66  1  0
 30 67  1  0
 32 33  1  1
 33 68  1  0
 33 69  1  0
 33 70  1  0
 34 35  2  0
 34 36  1  0
 36 71  1  6
M  CHG  1   6  -1
M  END
>  <i_m_ct_stereo_status>  (163) 
1

>  <s_m_source_file>  (163) 
/var/tmp/pbs.5076255.sched01/tmppm3sokcv/34yi_btuhz.sdf

>  <i_m_source_file_index>  (163) 
30

>  <i_lp_mmshare_version>  (163) 
48012

>  <i_f3d_flags>  (163) 
0

>  <s_epik_input>  (163) 
W0NIM11PQyg9W0NIXTEpQyg9TylbQ0hdPUMoW0NAXTEyW09IXSlPQz0zW0NAQEhdMkMoPU8pW0NAQF00KFtDSF0oW0NIM10pW0NIM10pW0NAQEhdKFtDSF0zKVtDQF01KFtDSDNdKVtDQEBIXShbQ0gyXTQpW0NIXT1DKFtDSF0oW0NIM10pW0NIM10pW0NIMl1bQ0BIXTVPQyg9TylbQ0gzXQ==

>  <s_epik_cmdline>  (163) 
J2VwaWtfcHl0aG9uJywgJy1waHQnLCAnMi4wJywgJy1waCcsICc3LjAnLCAnLXRuJywgJzgnLCAnLW1hJywgJzIwMCcsICctaW1hZScsICc8aW5maWxlLm1hZT4nLCAnLW9tYWUnLCAnPG91dGZpbGUubWFlPic=

>  <r_epik_Ionization_Penalty>  (163) 
0.000620717

>  <r_epik_Ionization_Penalty_Charging>  (163) 
0.000620717

>  <r_epik_Ionization_Penalty_Neutral>  (163) 
4.25957e-11

>  <r_epik_State_Penalty>  (163) 
0.000391839

>  <r_epik_Charging_Adjusted_Penalty>  (163) 
0.00101256

>  <i_epik_Tot_Q>  (163) 
-1

>  <i_epik_Tot_abs_Q>  (163) 
1

>  <s_epik_Chemistry_Notes>  (163) 
This compound has an ester and may undergo hydrolysis at high or low pH.

>  <s_lp_Force_Field>  (163) 
OPLS3e

>  <r_lp_Energy>  (163) 
55.7173

>  <b_lp_Chiralities_Consistent>  (163) 
1

>  <s_lp_Variant>  (163) 
47:0-1

>  <s_i_glide_gridfile>  (163) 
pfpi4k_grid

>  <i_i_glide_lignum>  (163) 
30

>  <i_i_glide_rotatable_bonds>  (163) 
5

>  <r_i_docking_score>  (163) 
-2.17715

>  <r_i_glide_ligand_efficiency>  (163) 
-0.0604763

>  <r_i_glide_ligand_efficiency_sa>  (163) 
-0.199688

>  <r_i_glide_ligand_efficiency_ln>  (163) 
-0.474995

>  <r_i_glide_gscore>  (163) 
-2.17715

>  <r_i_glide_lipo>  (163) 
-0.14331

>  <r_i_glide_hbond>  (163) 
-0.206003

>  <r_i_glide_metal>  (163) 
-0

>  <r_i_glide_rewards>  (163) 
-0.0301091

>  <r_i_glide_evdw>  (163) 
-21.9821

>  <r_i_glide_ecoul>  (163) 
-4.53395

>  <r_i_glide_erotb>  (163) 
0.0830053

>  <r_i_glide_esite>  (163) 
-0.101532

>  <r_i_glide_emodel>  (163) 
-30.623

>  <r_i_glide_energy>  (163) 
-26.5161

>  <r_i_glide_einternal>  (163) 
1.34234

>  <r_i_glide_intrahb_reward>  (163) 
-0

>  <i_i_glide_confnum>  (163) 
3

>  <i_i_glide_posenum>  (163) 
1

>  <r_i_glide_eff_state_penalty>  (163) 
0

>  <ligand_id>  (163) 
47

>  <original_smiles>  (163) 
COC1=CC2(O)C(=CC1=O)OC1=CC3C(C(C)C)(CC4C=C(C(C)C)CC(OC(C)=O)C43C)C(=O)C12

>  <smiles>  (163) 
[H]C1=C2OC3=C([H])C4([H])C(C([H])(C([H])([H])[H])C([H])([H])[H])(C(=O)C3([H])C2([O-])C([H])=C(OC([H])([H])[H])C1=O)C([H])([H])C1([H])C([H])=C(C([H])(C([H])([H])[H])C([H])([H])[H])C([H])([H])C([H])(OC(=O)C([H])([H])[H])C14C([H])([H])[H]

$$$$
47:0:2
     RDKit          3D

 71 75  0  0  1  0  0  0  0  0999 V2000
   -1.4389   -7.3582    4.2485 C   0  0  0  0  0  0  0  0  0  0  0  0
   -0.5564   -6.6977    3.3477 O   0  0  0  0  0  0  0  0  0  0  0  0
    0.5171   -6.0603    3.9232 C   0  0  0  0  0  0  0  0  0  0  0  0
    0.4202   -5.3150    5.0695 C   0  0  0  0  0  0  0  0  0  0  0  0
    1.5772   -4.6675    5.7965 C   0  0  1  0  0  0  0  0  0  0  0  0
    1.7280   -5.2815    6.9708 O   0  0  0  0  0  0  0  0  0  0  0  0
    2.8510   -4.8439    4.9772 C   0  0  0  0  0  0  0  0  0  0  0  0
    2.9867   -5.5572    3.8350 C   0  0  0  0  0  0  0  0  0  0  0  0
    1.8405   -6.3053    3.2516 C   0  0  0  0  0  0  0  0  0  0  0  0
    1.9543   -7.0090    2.2527 O   0  0  0  0  0  0  0  0  0  0  0  0
    3.7322   -3.8588    5.3156 O   0  0  0  0  0  0  0  0  0  0  0  0
    3.0643   -2.8717    5.9775 C   0  0  0  0  0  0  0  0  0  0  0  0
    3.6501   -1.8451    6.6052 C   0  0  0  0  0  0  0  0  0  0  0  0
    2.8791   -0.8230    7.4059 C   0  0  2  0  0  0  0  0  0  0  0  0
    1.3863   -1.2107    7.8071 C   0  0  1  0  0  0  0  0  0  0  0  0
    1.3136   -1.5120    9.3511 C   0  0  0  0  0  0  0  0  0  0  0  0
    2.0724   -2.7927    9.7663 C   0  0  0  0  0  0  0  0  0  0  0  0
   -0.1029   -1.5551    9.9613 C   0  0  0  0  0  0  0  0  0  0  0  0
    0.6110    0.1021    7.4513 C   0  0  0  0  0  0  0  0  0  0  0  0
    1.4261    0.7135    6.3086 C   0  0  1  0  0  0  0  0  0  0  0  0
    1.0909    2.0945    5.7680 C   0  0  0  0  0  0  0  0  0  0  0  0
    2.0158    2.8530    5.1324 C   0  0  0  0  0  0  0  0  0  0  0  0
    1.6938    4.2520    4.5957 C   0  0  0  0  0  0  0  0  0  0  0  0
    1.9578    4.4146    3.0851 C   0  0  0  0  0  0  0  0  0  0  0  0
    2.4056    5.3605    5.3899 C   0  0  0  0  0  0  0  0  0  0  0  0
    3.4629    2.3561    4.9796 C   0  0  0  0  0  0  0  0  0  0  0  0
    3.7306    0.9180    5.5204 C   0  0  1  0  0  0  0  0  0  0  0  0
    5.1183    0.8042    5.8171 O   0  0  0  0  0  0  0  0  0  0  0  0
    5.9980    0.4645    4.8624 C   0  0  0  0  0  0  0  0  0  0  0  0
    7.4366    0.5472    5.3536 C   0  0  0  0  0  0  0  0  0  0  0  0
    5.7326    0.1441    3.7059 O   0  0  0  0  0  0  0  0  0  0  0  0
    2.8746    0.6088    6.7827 C   0  0  2  0  0  0  0  0  0  0  0  0
    3.2246    1.6193    7.9175 C   0  0  0  0  0  0  0  0  0  0  0  0
    0.7451   -2.3960    6.9935 C   0  0  0  0  0  0  0  0  0  0  0  0
   -0.4528   -2.6480    7.1275 O   0  0  0  0  0  0  0  0  0  0  0  0
    1.5903   -3.1412    5.9347 C   0  0  2  0  0  0  0  0  0  0  0  0
   -2.2375   -7.8535    3.6933 H   0  0  0  0  0  0  0  0  0  0  0  0
   -1.9211   -6.6798    4.9526 H   0  0  0  0  0  0  0  0  0  0  0  0
   -0.8920   -8.1173    4.8098 H   0  0  0  0  0  0  0  0  0  0  0  0
   -0.5300   -5.1682    5.5584 H   0  0  0  0  0  0  0  0  0  0  0  0
    3.8943   -5.4807    3.2421 H   0  0  0  0  0  0  0  0  0  0  0  0
    4.7268   -1.7757    6.5973 H   0  0  0  0  0  0  0  0  0  0  0  0
    3.4771   -0.7765    8.3175 H   0  0  0  0  0  0  0  0  0  0  0  0
    1.8112   -0.6821    9.8553 H   0  0  0  0  0  0  0  0  0  0  0  0
    1.5864   -3.6972    9.3948 H   0  0  0  0  0  0  0  0  0  0  0  0
    2.1210   -2.8792   10.8517 H   0  0  0  0  0  0  0  0  0  0  0  0
    3.0970   -2.8026    9.3958 H   0  0  0  0  0  0  0  0  0  0  0  0
   -0.6510   -2.4492    9.6634 H   0  0  0  0  0  0  0  0  0  0  0  0
   -0.6786   -0.6697    9.6993 H   0  0  0  0  0  0  0  0  0  0  0  0
   -0.0533   -1.5786   11.0498 H   0  0  0  0  0  0  0  0  0  0  0  0
   -0.4227   -0.0651    7.1495 H   0  0  0  0  0  0  0  0  0  0  0  0
    0.5758    0.7868    8.3006 H   0  0  0  0  0  0  0  0  0  0  0  0
    1.2849    0.0526    5.4510 H   0  0  0  0  0  0  0  0  0  0  0  0
    0.0763    2.4481    5.8818 H   0  0  0  0  0  0  0  0  0  0  0  0
    0.6227    4.4130    4.7301 H   0  0  0  0  0  0  0  0  0  0  0  0
    1.4184    3.6718    2.4952 H   0  0  0  0  0  0  0  0  0  0  0  0
    3.0179    4.3505    2.8318 H   0  0  0  0  0  0  0  0  0  0  0  0
    1.6121    5.3917    2.7408 H   0  0  0  0  0  0  0  0  0  0  0  0
    2.0929    5.3572    6.4337 H   0  0  0  0  0  0  0  0  0  0  0  0
    2.1738    6.3437    4.9799 H   0  0  0  0  0  0  0  0  0  0  0  0
    3.4889    5.2544    5.3592 H   0  0  0  0  0  0  0  0  0  0  0  0
    3.7692    2.4114    3.9357 H   0  0  0  0  0  0  0  0  0  0  0  0
    4.1040    3.0489    5.5240 H   0  0  0  0  0  0  0  0  0  0  0  0
    3.4500    0.2008    4.7471 H   0  0  0  0  0  0  0  0  0  0  0  0
    7.5925   -0.1305    6.1924 H   0  0  0  0  0  0  0  0  0  0  0  0
    7.6530    1.5637    5.6804 H   0  0  0  0  0  0  0  0  0  0  0  0
    8.1346    0.2890    4.5565 H   0  0  0  0  0  0  0  0  0  0  0  0
    3.0417    2.6593    7.6450 H   0  0  0  0  0  0  0  0  0  0  0  0
    4.2787    1.5468    8.1907 H   0  0  0  0  0  0  0  0  0  0  0  0
    2.6577    1.4350    8.8304 H   0  0  0  0  0  0  0  0  0  0  0  0
    1.2494   -2.7466    4.9764 H   0  0  0  0  0  0  0  0  0  0  0  0
  1  2  1  0
  1 37  1  0
  1 38  1  0
  1 39  1  0
  2  3  1  0
  3  9  1  0
  3  4  2  0
  4  5  1  0
  4 40  1  0
  5 36  1  0
  5  6  1  1
  5  7  1  0
  7  8  2  0
  7 11  1  0
  8  9  1  0
  8 41  1  0
  9 10  2  0
 11 12  1  0
 12 36  1  0
 12 13  2  0
 13 14  1  0
 13 42  1  0
 14 32  1  0
 14 15  1  0
 14 43  1  1
 15 16  1  1
 15 19  1  0
 15 34  1  0
 16 17  1  0
 16 18  1  0
 16 44  1  0
 17 45  1  0
 17 46  1  0
 17 47  1  0
 18 48  1  0
 18 49  1  0
 18 50  1  0
 19 20  1  0
 19 51  1  0
 19 52  1  0
 20 32  1  0
 20 21  1  0
 20 53  1  6
 21 22  2  0
 21 54  1  0
 22 23  1  0
 22 26  1  0
 23 24  1  0
 23 25  1  0
 23 55  1  0
 24 56  1  0
 24 57  1  0
 24 58  1  0
 25 59  1  0
 25 60  1  0
 25 61  1  0
 26 27  1  0
 26 62  1  0
 26 63  1  0
 27 28  1  0
 27 32  1  0
 27 64  1  6
 28 29  1  0
 29 30  1  0
 29 31  2  0
 30 65  1  0
 30 66  1  0
 30 67  1  0
 32 33  1  1
 33 68  1  0
 33 69  1  0
 33 70  1  0
 34 35  2  0
 34 36  1  0
 36 71  1  6
M  CHG  1   6  -1
M  END
>  <i_m_ct_stereo_status>  (164) 
1

>  <s_m_source_file>  (164) 
/var/tmp/pbs.5076255.sched01/tmppm3sokcv/34yi_btuhz.sdf

>  <i_m_source_file_index>  (164) 
30

>  <i_lp_mmshare_version>  (164) 
48012

>  <i_f3d_flags>  (164) 
0

>  <s_epik_input>  (164) 
W0NIM11PQyg9W0NIXTEpQyg9TylbQ0hdPUMoW0NAXTEyW09IXSlPQz0zW0NAQEhdMkMoPU8pW0NAQF00KFtDSF0oW0NIM10pW0NIM10pW0NAQEhdKFtDSF0zKVtDQF01KFtDSDNdKVtDQEBIXShbQ0gyXTQpW0NIXT1DKFtDSF0oW0NIM10pW0NIM10pW0NIMl1bQ0BIXTVPQyg9TylbQ0gzXQ==

>  <s_epik_cmdline>  (164) 
J2VwaWtfcHl0aG9uJywgJy1waHQnLCAnMi4wJywgJy1waCcsICc3LjAnLCAnLXRuJywgJzgnLCAnLW1hJywgJzIwMCcsICctaW1hZScsICc8aW5maWxlLm1hZT4nLCAnLW9tYWUnLCAnPG91dGZpbGUubWFlPic=

>  <r_epik_Ionization_Penalty>  (164) 
0.000620717

>  <r_epik_Ionization_Penalty_Charging>  (164) 
0.000620717

>  <r_epik_Ionization_Penalty_Neutral>  (164) 
4.25957e-11

>  <r_epik_State_Penalty>  (164) 
0.000391839

>  <r_epik_Charging_Adjusted_Penalty>  (164) 
0.00101256

>  <i_epik_Tot_Q>  (164) 
-1

>  <i_epik_Tot_abs_Q>  (164) 
1

>  <s_epik_Chemistry_Notes>  (164) 
This compound has an ester and may undergo hydrolysis at high or low pH.

>  <s_lp_Force_Field>  (164) 
OPLS3e

>  <r_lp_Energy>  (164) 
55.7173

>  <b_lp_Chiralities_Consistent>  (164) 
1

>  <s_lp_Variant>  (164) 
47:0-1

>  <s_i_glide_gridfile>  (164) 
pfpi4k_grid

>  <i_i_glide_lignum>  (164) 
30

>  <i_i_glide_rotatable_bonds>  (164) 
5

>  <r_i_docking_score>  (164) 
-1.86509

>  <r_i_glide_ligand_efficiency>  (164) 
-0.0518081

>  <r_i_glide_ligand_efficiency_sa>  (164) 
-0.171066

>  <r_i_glide_ligand_efficiency_ln>  (164) 
-0.406912

>  <r_i_glide_gscore>  (164) 
-1.86509

>  <r_i_glide_lipo>  (164) 
-0.166491

>  <r_i_glide_hbond>  (164) 
-0.158417

>  <r_i_glide_metal>  (164) 
-0

>  <r_i_glide_rewards>  (164) 
-0.227562

>  <r_i_glide_evdw>  (164) 
-21.9351

>  <r_i_glide_ecoul>  (164) 
-1.83008

>  <r_i_glide_erotb>  (164) 
0.0830053

>  <r_i_glide_esite>  (164) 
-0.0243557

>  <r_i_glide_emodel>  (164) 
-27.6697

>  <r_i_glide_energy>  (164) 
-23.7652

>  <r_i_glide_einternal>  (164) 
0.819305

>  <r_i_glide_intrahb_reward>  (164) 
-0

>  <i_i_glide_confnum>  (164) 
4

>  <i_i_glide_posenum>  (164) 
3

>  <r_i_glide_eff_state_penalty>  (164) 
0

>  <ligand_id>  (164) 
47

>  <original_smiles>  (164) 
COC1=CC2(O)C(=CC1=O)OC1=CC3C(C(C)C)(CC4C=C(C(C)C)CC(OC(C)=O)C43C)C(=O)C12

>  <smiles>  (164) 
[H]C1=C2OC3=C([H])C4([H])C(C([H])(C([H])([H])[H])C([H])([H])[H])(C(=O)C3([H])C2([O-])C([H])=C(OC([H])([H])[H])C1=O)C([H])([H])C1([H])C([H])=C(C([H])(C([H])([H])[H])C([H])([H])[H])C([H])([H])C([H])(OC(=O)C([H])([H])[H])C14C([H])([H])[H]

$$$$
48:0:0
     RDKit          3D

 51 54  0  0  1  0  0  0  0  0999 V2000
    7.6081   -5.6996    0.9423 C   0  0  0  0  0  0  0  0  0  0  0  0
    6.3196   -5.3642    1.7210 C   0  0  2  0  0  0  0  0  0  0  0  0
    5.0717   -6.0108    1.0685 C   0  0  0  0  0  0  0  0  0  0  0  0
    4.6416   -5.3171   -0.2348 C   0  0  0  0  0  0  0  0  0  0  0  0
    4.3457   -3.8134   -0.0294 C   0  0  1  0  0  0  0  0  0  0  0  0
    5.5937   -3.1322    0.5677 C   0  0  1  0  0  0  0  0  0  0  0  0
    5.3444   -1.6363    0.7861 C   0  0  0  0  0  0  0  0  0  0  0  0
    5.0355   -0.9540   -0.5441 C   0  0  0  0  0  0  0  0  0  0  0  0
    3.7736   -1.5310   -1.2011 C   0  0  1  0  0  0  0  0  0  0  0  0
    3.5286   -1.0708   -2.6655 C   0  0  1  0  0  0  0  0  0  0  0  0
    4.2088    0.0999   -3.0739 O   0  0  0  0  0  0  0  0  0  0  0  0
    3.9089   -2.2337   -3.5816 C   0  0  0  0  0  0  0  0  0  0  0  0
    4.4022   -3.3494   -2.6619 C   0  0  1  0  0  0  0  0  0  0  0  0
    5.8099   -3.3099   -2.6155 O   0  0  0  0  0  0  0  0  0  0  0  0
    3.7327   -3.0823   -1.2852 C   0  0  1  0  0  0  0  0  0  0  0  0
    2.2374   -3.4946   -1.3480 C   0  0  0  0  0  0  0  0  0  0  0  0
    6.1023   -3.8401    1.8478 C   0  0  1  0  0  0  0  0  0  0  0  0
    5.2601   -3.6493    3.1279 C   0  0  0  0  0  0  0  0  0  0  0  0
    5.5070   -4.8953    3.9943 C   0  0  0  0  0  0  0  0  0  0  0  0
    6.4820   -5.7712    3.1990 C   0  0  1  0  0  0  0  0  0  0  0  0
    6.2702   -7.1465    3.4314 O   0  0  0  0  0  0  0  0  0  0  0  0
    7.7630   -6.7759    0.8715 H   0  0  0  0  0  0  0  0  0  0  0  0
    8.4901   -5.2763    1.4203 H   0  0  0  0  0  0  0  0  0  0  0  0
    7.5751   -5.2950   -0.0623 H   0  0  0  0  0  0  0  0  0  0  0  0
    5.2537   -7.0684    0.8694 H   0  0  0  0  0  0  0  0  0  0  0  0
    4.2296   -5.9801    1.7652 H   0  0  0  0  0  0  0  0  0  0  0  0
    5.4108   -5.4599   -0.9904 H   0  0  0  0  0  0  0  0  0  0  0  0
    3.7605   -5.8281   -0.6052 H   0  0  0  0  0  0  0  0  0  0  0  0
    3.5785   -3.7678    0.7458 H   0  0  0  0  0  0  0  0  0  0  0  0
    6.4141   -3.2120   -0.1438 H   0  0  0  0  0  0  0  0  0  0  0  0
    4.5112   -1.4836    1.4726 H   0  0  0  0  0  0  0  0  0  0  0  0
    6.2142   -1.1733    1.2494 H   0  0  0  0  0  0  0  0  0  0  0  0
    4.8863    0.1085   -0.3508 H   0  0  0  0  0  0  0  0  0  0  0  0
    5.8810   -1.0621   -1.2183 H   0  0  0  0  0  0  0  0  0  0  0  0
    2.9708   -1.1784   -0.5603 H   0  0  0  0  0  0  0  0  0  0  0  0
    2.4666   -0.8724   -2.7940 H   0  0  0  0  0  0  0  0  0  0  0  0
    3.6764    0.8459   -2.8363 H   0  0  0  0  0  0  0  0  0  0  0  0
    3.0186   -2.5698   -4.1150 H   0  0  0  0  0  0  0  0  0  0  0  0
    4.6454   -1.9563   -4.3359 H   0  0  0  0  0  0  0  0  0  0  0  0
    4.1312   -4.3027   -3.0924 H   0  0  0  0  0  0  0  0  0  0  0  0
    6.0927   -4.0562   -2.1029 H   0  0  0  0  0  0  0  0  0  0  0  0
    1.6875   -3.0167   -2.1589 H   0  0  0  0  0  0  0  0  0  0  0  0
    1.7396   -3.2289   -0.4184 H   0  0  0  0  0  0  0  0  0  0  0  0
    2.0977   -4.5663   -1.4757 H   0  0  0  0  0  0  0  0  0  0  0  0
    7.0736   -3.4052    2.0603 H   0  0  0  0  0  0  0  0  0  0  0  0
    5.5732   -2.7443    3.6519 H   0  0  0  0  0  0  0  0  0  0  0  0
    4.1933   -3.5560    2.9166 H   0  0  0  0  0  0  0  0  0  0  0  0
    5.9179   -4.6451    4.9755 H   0  0  0  0  0  0  0  0  0  0  0  0
    4.5658   -5.4222    4.1582 H   0  0  0  0  0  0  0  0  0  0  0  0
    7.4936   -5.5256    3.5295 H   0  0  0  0  0  0  0  0  0  0  0  0
    6.9598   -7.6280    2.9960 H   0  0  0  0  0  0  0  0  0  0  0  0
  2  1  1  6
  1 22  1  0
  1 23  1  0
  1 24  1  0
  2 17  1  0
  2 20  1  0
  2  3  1  0
  3  4  1  0
  3 25  1  0
  3 26  1  0
  4  5  1  0
  4 27  1  0
  4 28  1  0
  5 15  1  0
  5  6  1  0
  5 29  1  1
  6  7  1  0
  6 17  1  0
  6 30  1  6
  7  8  1  0
  7 31  1  0
  7 32  1  0
  8  9  1  0
  8 33  1  0
  8 34  1  0
  9 15  1  0
  9 10  1  0
  9 35  1  1
 10 11  1  0
 10 12  1  0
 10 36  1  1
 11 37  1  0
 12 13  1  0
 12 38  1  0
 12 39  1  0
 13 14  1  0
 13 15  1  0
 13 40  1  6
 14 41  1  0
 15 16  1  6
 16 42  1  0
 16 43  1  0
 16 44  1  0
 17 18  1  0
 17 45  1  1
 18 19  1  0
 18 46  1  0
 18 47  1  0
 19 20  1  0
 19 48  1  0
 19 49  1  0
 20 21  1  0
 20 50  1  1
 21 51  1  0
M  END
>  <i_m_ct_stereo_status>  (165) 
1

>  <s_m_source_file>  (165) 
/var/tmp/pbs.5076255.sched01/tmppm3sokcv/34yi_btuhz.sdf

>  <i_m_source_file_index>  (165) 
31

>  <i_lp_mmshare_version>  (165) 
48012

>  <i_f3d_flags>  (165) 
0

>  <s_epik_input>  (165) 
W09IXVtDQEBIXTFbQ0gyXVtDSDJdW0NAQEhdKFtDQEBdMTJbQ0gzXSlbQ0BIXTNbQ0BIXShbQ0gyXVtDSDJdMilbQ0BAXTQoW0NIM10pW0NAQEhdKFtDSDJdW0NIMl0zKVtDQEBIXShbT0hdKVtDSDJdW0NASF00W09IXQ==

>  <s_epik_cmdline>  (165) 
J2VwaWtfcHl0aG9uJywgJy1waHQnLCAnMi4wJywgJy1waCcsICc3LjAnLCAnLXRuJywgJzgnLCAnLW1hJywgJzIwMCcsICctaW1hZScsICc8aW5maWxlLm1hZT4nLCAnLW9tYWUnLCAnPG91dGZpbGUubWFlPic=

>  <r_lp_tautomer_probability>  (165) 
1

>  <r_epik_Ionization_Penalty>  (165) 
5.2756e-06

>  <r_epik_Ionization_Penalty_Charging>  (165) 
0

>  <r_epik_Ionization_Penalty_Neutral>  (165) 
5.2756e-06

>  <r_epik_State_Penalty>  (165) 
-0

>  <r_epik_Charging_Adjusted_Penalty>  (165) 
0

>  <i_epik_Tot_Q>  (165) 
0

>  <i_epik_Tot_abs_Q>  (165) 
0

>  <s_lp_Force_Field>  (165) 
OPLS3e

>  <r_lp_Energy>  (165) 
44.3566

>  <b_lp_Chiralities_Consistent>  (165) 
1

>  <s_lp_Variant>  (165) 
48:0-1

>  <s_i_glide_gridfile>  (165) 
pfpi4k_grid

>  <i_i_glide_lignum>  (165) 
31

>  <i_i_glide_rotatable_bonds>  (165) 
3

>  <r_i_docking_score>  (165) 
-3.96533

>  <r_i_glide_ligand_efficiency>  (165) 
-0.188825

>  <r_i_glide_ligand_efficiency_sa>  (165) 
-0.520955

>  <r_i_glide_ligand_efficiency_ln>  (165) 
-0.98042

>  <r_i_glide_gscore>  (165) 
-3.96533

>  <r_i_glide_lipo>  (165) 
-0.715092

>  <r_i_glide_hbond>  (165) 
-0.205841

>  <r_i_glide_metal>  (165) 
-0

>  <r_i_glide_rewards>  (165) 
-1.40162

>  <r_i_glide_evdw>  (165) 
-21.4518

>  <r_i_glide_ecoul>  (165) 
-3.80125

>  <r_i_glide_erotb>  (165) 
0

>  <r_i_glide_esite>  (165) 
0

>  <r_i_glide_emodel>  (165) 
-30.1094

>  <r_i_glide_energy>  (165) 
-25.2531

>  <r_i_glide_einternal>  (165) 
1.54073

>  <r_i_glide_intrahb_reward>  (165) 
-0

>  <i_i_glide_confnum>  (165) 
1

>  <i_i_glide_posenum>  (165) 
36

>  <r_i_glide_eff_state_penalty>  (165) 
0

>  <ligand_id>  (165) 
48

>  <original_smiles>  (165) 
CC12CCC3C(CCC4C(O)CC(O)C43C)C1CCC2O

>  <smiles>  (165) 
[H]OC1([H])C([H])([H])C([H])(O[H])C2(C([H])([H])[H])C1([H])C([H])([H])C([H])([H])C1([H])C3([H])C([H])([H])C([H])([H])C([H])(O[H])C3(C([H])([H])[H])C([H])([H])C([H])([H])C12[H]

$$$$
48:0:1
     RDKit          3D

 51 54  0  0  1  0  0  0  0  0999 V2000
    2.7240   -2.7543    4.3972 C   0  0  0  0  0  0  0  0  0  0  0  0
    3.5195   -3.9959    3.9374 C   0  0  2  0  0  0  0  0  0  0  0  0
    5.0031   -3.6349    3.6679 C   0  0  0  0  0  0  0  0  0  0  0  0
    5.2107   -2.8145    2.3791 C   0  0  0  0  0  0  0  0  0  0  0  0
    4.6682   -3.5619    1.1406 C   0  0  1  0  0  0  0  0  0  0  0  0
    3.1731   -3.9061    1.3579 C   0  0  1  0  0  0  0  0  0  0  0  0
    2.6161   -4.6309    0.1354 C   0  0  0  0  0  0  0  0  0  0  0  0
    2.7238   -3.7135   -1.0842 C   0  0  0  0  0  0  0  0  0  0  0  0
    4.1973   -3.4251   -1.4390 C   0  0  1  0  0  0  0  0  0  0  0  0
    4.3591   -2.3375   -2.5375 C   0  0  1  0  0  0  0  0  0  0  0  0
    3.2267   -2.1461   -3.3700 O   0  0  0  0  0  0  0  0  0  0  0  0
    4.7502   -1.0368   -1.8255 C   0  0  0  0  0  0  0  0  0  0  0  0
    4.7891   -1.3546   -0.3198 C   0  0  1  0  0  0  0  0  0  0  0  0
    3.5773   -0.9031    0.2583 O   0  0  0  0  0  0  0  0  0  0  0  0
    5.0056   -2.8819   -0.2338 C   0  0  1  0  0  0  0  0  0  0  0  0
    6.5140   -3.1646   -0.5114 C   0  0  0  0  0  0  0  0  0  0  0  0
    2.8978   -4.6454    2.6844 C   0  0  1  0  0  0  0  0  0  0  0  0
    3.3231   -6.1287    2.7340 C   0  0  0  0  0  0  0  0  0  0  0  0
    3.6377   -6.4419    4.2077 C   0  0  0  0  0  0  0  0  0  0  0  0
    3.3631   -5.1394    4.9676 C   0  0  1  0  0  0  0  0  0  0  0  0
    4.2186   -5.0085    6.0882 O   0  0  0  0  0  0  0  0  0  0  0  0
    3.1445   -2.3327    5.3098 H   0  0  0  0  0  0  0  0  0  0  0  0
    1.6787   -3.0051    4.6083 H   0  0  0  0  0  0  0  0  0  0  0  0
    2.7178   -1.9701    3.6428 H   0  0  0  0  0  0  0  0  0  0  0  0
    5.4055   -3.0716    4.5124 H   0  0  0  0  0  0  0  0  0  0  0  0
    5.6033   -4.5398    3.6052 H   0  0  0  0  0  0  0  0  0  0  0  0
    4.7216   -1.8473    2.4879 H   0  0  0  0  0  0  0  0  0  0  0  0
    6.2702   -2.6048    2.2683 H   0  0  0  0  0  0  0  0  0  0  0  0
    5.1897   -4.5216    1.1292 H   0  0  0  0  0  0  0  0  0  0  0  0
    2.6285   -2.9624    1.4426 H   0  0  0  0  0  0  0  0  0  0  0  0
    3.1661   -5.5510   -0.0539 H   0  0  0  0  0  0  0  0  0  0  0  0
    1.5847   -4.9254    0.2947 H   0  0  0  0  0  0  0  0  0  0  0  0
    2.2260   -4.2034   -1.9155 H   0  0  0  0  0  0  0  0  0  0  0  0
    2.1735   -2.7988   -0.9183 H   0  0  0  0  0  0  0  0  0  0  0  0
    4.6228   -4.3576   -1.8067 H   0  0  0  0  0  0  0  0  0  0  0  0
    5.1767   -2.6204   -3.1980 H   0  0  0  0  0  0  0  0  0  0  0  0
    2.4930   -1.8758   -2.8357 H   0  0  0  0  0  0  0  0  0  0  0  0
    5.7450   -0.7497   -2.1530 H   0  0  0  0  0  0  0  0  0  0  0  0
    4.1064   -0.1971   -2.0698 H   0  0  0  0  0  0  0  0  0  0  0  0
    5.5909   -0.8020    0.1824 H   0  0  0  0  0  0  0  0  0  0  0  0
    2.8344   -1.1888   -0.2552 H   0  0  0  0  0  0  0  0  0  0  0  0
    6.8492   -2.7876   -1.4797 H   0  0  0  0  0  0  0  0  0  0  0  0
    6.7156   -4.2378   -0.5177 H   0  0  0  0  0  0  0  0  0  0  0  0
    7.1690   -2.7216    0.2354 H   0  0  0  0  0  0  0  0  0  0  0  0
    1.8176   -4.6518    2.8335 H   0  0  0  0  0  0  0  0  0  0  0  0
    2.5405   -6.7803    2.3497 H   0  0  0  0  0  0  0  0  0  0  0  0
    4.2215   -6.3124    2.1403 H   0  0  0  0  0  0  0  0  0  0  0  0
    3.0224   -7.2592    4.5954 H   0  0  0  0  0  0  0  0  0  0  0  0
    4.6789   -6.7402    4.3071 H   0  0  0  0  0  0  0  0  0  0  0  0
    2.3321   -5.1663    5.3292 H   0  0  0  0  0  0  0  0  0  0  0  0
    4.0429   -5.7244    6.6747 H   0  0  0  0  0  0  0  0  0  0  0  0
  2  1  1  1
  1 22  1  0
  1 23  1  0
  1 24  1  0
  2 17  1  0
  2 20  1  0
  2  3  1  0
  3  4  1  0
  3 25  1  0
  3 26  1  0
  4  5  1  0
  4 27  1  0
  4 28  1  0
  5 15  1  0
  5  6  1  0
  5 29  1  6
  6  7  1  0
  6 17  1  0
  6 30  1  1
  7  8  1  0
  7 31  1  0
  7 32  1  0
  8  9  1  0
  8 33  1  0
  8 34  1  0
  9 15  1  0
  9 10  1  0
  9 35  1  6
 10 11  1  0
 10 12  1  0
 10 36  1  6
 11 37  1  0
 12 13  1  0
 12 38  1  0
 12 39  1  0
 13 14  1  0
 13 15  1  0
 13 40  1  1
 14 41  1  0
 15 16  1  6
 16 42  1  0
 16 43  1  0
 16 44  1  0
 17 18  1  0
 17 45  1  1
 18 19  1  0
 18 46  1  0
 18 47  1  0
 19 20  1  0
 19 48  1  0
 19 49  1  0
 20 21  1  0
 20 50  1  1
 21 51  1  0
M  END
>  <i_m_ct_stereo_status>  (166) 
1

>  <s_m_source_file>  (166) 
/var/tmp/pbs.5076255.sched01/tmppm3sokcv/34yi_btuhz.sdf

>  <i_m_source_file_index>  (166) 
31

>  <i_lp_mmshare_version>  (166) 
48012

>  <i_f3d_flags>  (166) 
0

>  <s_epik_input>  (166) 
W09IXVtDQEBIXTFbQ0gyXVtDSDJdW0NAQEhdKFtDQEBdMTJbQ0gzXSlbQ0BIXTNbQ0BIXShbQ0gyXVtDSDJdMilbQ0BAXTQoW0NIM10pW0NAQEhdKFtDSDJdW0NIMl0zKVtDQEBIXShbT0hdKVtDSDJdW0NASF00W09IXQ==

>  <s_epik_cmdline>  (166) 
J2VwaWtfcHl0aG9uJywgJy1waHQnLCAnMi4wJywgJy1waCcsICc3LjAnLCAnLXRuJywgJzgnLCAnLW1hJywgJzIwMCcsICctaW1hZScsICc8aW5maWxlLm1hZT4nLCAnLW9tYWUnLCAnPG91dGZpbGUubWFlPic=

>  <r_lp_tautomer_probability>  (166) 
1

>  <r_epik_Ionization_Penalty>  (166) 
5.2756e-06

>  <r_epik_Ionization_Penalty_Charging>  (166) 
0

>  <r_epik_Ionization_Penalty_Neutral>  (166) 
5.2756e-06

>  <r_epik_State_Penalty>  (166) 
-0

>  <r_epik_Charging_Adjusted_Penalty>  (166) 
0

>  <i_epik_Tot_Q>  (166) 
0

>  <i_epik_Tot_abs_Q>  (166) 
0

>  <s_lp_Force_Field>  (166) 
OPLS3e

>  <r_lp_Energy>  (166) 
44.3566

>  <b_lp_Chiralities_Consistent>  (166) 
1

>  <s_lp_Variant>  (166) 
48:0-1

>  <s_i_glide_gridfile>  (166) 
pfpi4k_grid

>  <i_i_glide_lignum>  (166) 
31

>  <i_i_glide_rotatable_bonds>  (166) 
3

>  <r_i_docking_score>  (166) 
-3.22885

>  <r_i_glide_ligand_efficiency>  (166) 
-0.153755

>  <r_i_glide_ligand_efficiency_sa>  (166) 
-0.424198

>  <r_i_glide_ligand_efficiency_ln>  (166) 
-0.798327

>  <r_i_glide_gscore>  (166) 
-3.22885

>  <r_i_glide_lipo>  (166) 
-0.314763

>  <r_i_glide_hbond>  (166) 
-0.0973894

>  <r_i_glide_metal>  (166) 
-0

>  <r_i_glide_rewards>  (166) 
-1.40162

>  <r_i_glide_evdw>  (166) 
-20.7506

>  <r_i_glide_ecoul>  (166) 
-2.51698

>  <r_i_glide_erotb>  (166) 
0

>  <r_i_glide_esite>  (166) 
0

>  <r_i_glide_emodel>  (166) 
-27.7401

>  <r_i_glide_energy>  (166) 
-23.2676

>  <r_i_glide_einternal>  (166) 
0.492666

>  <r_i_glide_intrahb_reward>  (166) 
-0

>  <i_i_glide_confnum>  (166) 
2

>  <i_i_glide_posenum>  (166) 
29

>  <r_i_glide_eff_state_penalty>  (166) 
0

>  <ligand_id>  (166) 
48

>  <original_smiles>  (166) 
CC12CCC3C(CCC4C(O)CC(O)C43C)C1CCC2O

>  <smiles>  (166) 
[H]OC1([H])C([H])([H])C([H])(O[H])C2(C([H])([H])[H])C1([H])C([H])([H])C([H])([H])C1([H])C3([H])C([H])([H])C([H])([H])C([H])(O[H])C3(C([H])([H])[H])C([H])([H])C([H])([H])C12[H]

$$$$
49:0:0
     RDKit          3D

 73 78  0  0  1  0  0  0  0  0999 V2000
    0.4133   -4.3301    5.1309 C   0  0  0  0  0  0  0  0  0  0  0  0
    0.9920   -2.9003    5.1318 C   0  0  2  0  0  0  0  0  0  0  0  0
    2.2720   -2.9156    6.0290 C   0  0  0  0  0  0  0  0  0  0  0  0
    3.0068   -1.6172    6.4979 C   0  0  0  0  0  0  0  0  0  0  0  0
    2.3727   -0.1657    6.4801 C   0  0  1  0  0  0  0  0  0  0  0  0
    2.8692    0.7562    5.2634 C   0  0  2  0  0  0  0  0  0  0  0  0
    4.4335    0.7194    5.1637 C   0  0  0  0  0  0  0  0  0  0  0  0
    2.5946    2.2847    5.5244 C   0  0  0  0  0  0  0  0  0  0  0  0
    3.1165    2.7911    6.5165 O   0  0  0  0  0  0  0  0  0  0  0  0
    1.7833    3.2448    4.5906 C   0  0  2  0  0  0  0  0  0  0  0  0
    2.6273    4.5302    4.3571 C   0  0  0  0  0  0  0  0  0  0  0  0
    0.5552    3.7068    5.3642 C   0  0  0  0  0  0  0  0  0  0  0  0
   -0.7085    3.3853    5.0435 C   0  0  0  0  0  0  0  0  0  0  0  0
   -1.0694    2.5307    3.8496 C   0  0  1  0  0  0  0  0  0  0  0  0
   -1.5956    3.4311    2.8839 O   0  0  0  0  0  0  0  0  0  0  0  0
    0.1325    1.6412    3.3276 C   0  0  1  0  0  0  0  0  0  0  0  0
   -0.3218    1.1852    1.9079 C   0  0  0  0  0  0  0  0  0  0  0  0
    1.3169    2.6680    3.2170 C   0  0  2  0  0  0  0  0  0  0  0  0
    2.4642    2.1886    2.3423 C   0  0  0  0  0  0  0  0  0  0  0  0
    2.8111    0.7565    2.6312 C   0  0  0  0  0  0  0  0  0  0  0  0
    2.2194    0.2115    3.9631 C   0  0  1  0  0  0  0  0  0  0  0  0
    2.6881   -1.0878    3.7179 O   0  0  0  0  0  0  0  0  0  0  0  0
    0.6417    0.2854    4.0858 C   0  0  1  0  0  0  0  0  0  0  0  0
    0.0252   -0.3093    5.4808 C   0  0  1  0  0  0  0  0  0  0  0  0
   -1.4778    0.0617    5.5653 C   0  0  0  0  0  0  0  0  0  0  0  0
   -0.1110   -1.8850    5.5299 C   0  0  2  0  0  0  0  0  0  0  0  0
   -0.2917   -2.1437    6.9057 O   0  0  0  0  0  0  0  0  0  0  0  0
    0.3514   -1.2910    7.6749 C   0  0  0  0  0  0  0  0  0  0  0  0
    0.5183   -1.4505    8.8831 O   0  0  0  0  0  0  0  0  0  0  0  0
    0.8204   -0.0730    6.8465 C   0  0  1  0  0  0  0  0  0  0  0  0
    0.4480    1.1944    7.7668 C   0  0  0  0  0  0  0  0  0  0  0  0
    1.4397    1.5178    8.9237 C   0  0  0  0  0  0  0  0  0  0  0  0
   -0.9414    1.2439    8.4825 C   0  0  0  0  0  0  0  0  0  0  0  0
    0.1044   -4.6540    6.1258 H   0  0  0  0  0  0  0  0  0  0  0  0
    1.1476   -5.0487    4.7653 H   0  0  0  0  0  0  0  0  0  0  0  0
   -0.4545   -4.4008    4.4792 H   0  0  0  0  0  0  0  0  0  0  0  0
    1.2181   -2.7682    4.0828 H   0  0  0  0  0  0  0  0  0  0  0  0
    2.0390   -3.4761    6.9380 H   0  0  0  0  0  0  0  0  0  0  0  0
    3.0099   -3.5465    5.5314 H   0  0  0  0  0  0  0  0  0  0  0  0
    3.3081   -1.8143    7.5283 H   0  0  0  0  0  0  0  0  0  0  0  0
    3.9662   -1.6206    5.9895 H   0  0  0  0  0  0  0  0  0  0  0  0
    2.9127    0.2524    7.3190 H   0  0  0  0  0  0  0  0  0  0  0  0
    4.8324   -0.1825    4.6993 H   0  0  0  0  0  0  0  0  0  0  0  0
    4.8978    0.8050    6.1467 H   0  0  0  0  0  0  0  0  0  0  0  0
    4.8221    1.5449    4.5657 H   0  0  0  0  0  0  0  0  0  0  0  0
    2.7793    5.0895    5.2809 H   0  0  0  0  0  0  0  0  0  0  0  0
    2.1396    5.2153    3.6605 H   0  0  0  0  0  0  0  0  0  0  0  0
    3.6226    4.3211    3.9670 H   0  0  0  0  0  0  0  0  0  0  0  0
    0.7401    4.3337    6.2257 H   0  0  0  0  0  0  0  0  0  0  0  0
   -1.5345    3.7572    5.6346 H   0  0  0  0  0  0  0  0  0  0  0  0
   -1.9599    1.9471    4.0438 H   0  0  0  0  0  0  0  0  0  0  0  0
   -0.9099    3.7050    2.2824 H   0  0  0  0  0  0  0  0  0  0  0  0
    0.3522    0.4832    1.4228 H   0  0  0  0  0  0  0  0  0  0  0  0
   -0.3940    2.0235    1.2236 H   0  0  0  0  0  0  0  0  0  0  0  0
   -1.2996    0.7038    1.9444 H   0  0  0  0  0  0  0  0  0  0  0  0
    0.9445    3.5300    2.6677 H   0  0  0  0  0  0  0  0  0  0  0  0
    2.1856    2.2726    1.2929 H   0  0  0  0  0  0  0  0  0  0  0  0
    3.3381    2.8196    2.4747 H   0  0  0  0  0  0  0  0  0  0  0  0
    2.4540    0.1752    1.7816 H   0  0  0  0  0  0  0  0  0  0  0  0
    3.8954    0.6489    2.5825 H   0  0  0  0  0  0  0  0  0  0  0  0
    2.3913   -1.3500    2.8618 H   0  0  0  0  0  0  0  0  0  0  0  0
    0.3008   -0.4995    3.4122 H   0  0  0  0  0  0  0  0  0  0  0  0
   -2.0391   -0.5257    6.2883 H   0  0  0  0  0  0  0  0  0  0  0  0
   -1.9773   -0.1161    4.6120 H   0  0  0  0  0  0  0  0  0  0  0  0
   -1.6196    1.0917    5.8615 H   0  0  0  0  0  0  0  0  0  0  0  0
   -1.0117   -2.1784    4.9878 H   0  0  0  0  0  0  0  0  0  0  0  0
    0.4454    2.0543    7.1264 H   0  0  0  0  0  0  0  0  0  0  0  0
    1.5478    0.6931    9.6265 H   0  0  0  0  0  0  0  0  0  0  0  0
    1.0878    2.3708    9.5059 H   0  0  0  0  0  0  0  0  0  0  0  0
    2.4383    1.7985    8.6066 H   0  0  0  0  0  0  0  0  0  0  0  0
   -0.9606    0.6213    9.3772 H   0  0  0  0  0  0  0  0  0  0  0  0
   -1.8081    0.9701    7.8999 H   0  0  0  0  0  0  0  0  0  0  0  0
   -1.1384    2.2610    8.8244 H   0  0  0  0  0  0  0  0  0  0  0  0
  1  2  1  0
  1 34  1  0
  1 35  1  0
  1 36  1  0
  2 26  1  0
  2  3  1  0
  2 37  1  6
  3  4  1  0
  3 38  1  0
  3 39  1  0
  4  5  1  0
  4 40  1  0
  4 41  1  0
  5 30  1  0
  5  6  1  0
  5 42  1  1
  6 21  1  0
  6  7  1  6
  6  8  1  0
  7 43  1  0
  7 44  1  0
  7 45  1  0
  8  9  2  0
  8 10  1  0
 10 18  1  0
 10 11  1  6
 10 12  1  0
 11 46  1  0
 11 47  1  0
 11 48  1  0
 12 13  2  0
 12 49  1  0
 13 14  1  0
 13 50  1  0
 14 15  1  0
 14 16  1  0
 14 51  1  1
 15 52  1  0
 16 23  1  0
 16 17  1  6
 16 18  1  0
 17 53  1  0
 17 54  1  0
 17 55  1  0
 18 19  1  0
 18 56  1  6
 19 20  1  0
 19 57  1  0
 19 58  1  0
 20 21  1  0
 20 59  1  0
 20 60  1  0
 21 22  1  6
 21 23  1  0
 22 61  1  0
 23 24  1  0
 23 62  1  6
 24 30  1  0
 24 25  1  1
 24 26  1  0
 25 63  1  0
 25 64  1  0
 25 65  1  0
 26 27  1  0
 26 66  1  6
 27 28  1  0
 28 29  2  0
 28 30  1  0
 30 31  1  1
 31 32  1  0
 31 33  1  0
 31 67  1  0
 32 68  1  0
 32 69  1  0
 32 70  1  0
 33 71  1  0
 33 72  1  0
 33 73  1  0
M  END
>  <i_m_ct_stereo_status>  (167) 
1

>  <s_m_source_file>  (167) 
/var/tmp/pbs.5076255.sched01/tmppm3sokcv/34yi_btuhz.sdf

>  <i_m_source_file_index>  (167) 
32

>  <i_lp_mmshare_version>  (167) 
48012

>  <i_f3d_flags>  (167) 
0

>  <s_epik_input>  (167) 
W0NIMl0xW0NIMl1bQ0BASF0oW0NIM10pW0NAQEhdKE9DMj1PKVtDQEBdKFtDSDNdKShbQ0BdMihbQ0hdKFtDSDNdKVtDSDNdKVtDSF0xW0NAXTM0W0NIM10pW0NIXTVbQ0BdNihbQ0gzXSlbQ0BIXShbQ0gyXVtDSDJdW0NAQF00NVtPSF0pW0NAQF0oQzM9TykoW0NIM10pW0NIXT1bQ0hdW0NASF02W09IXQ==

>  <s_epik_cmdline>  (167) 
J2VwaWtfcHl0aG9uJywgJy1waHQnLCAnMi4wJywgJy1waCcsICc3LjAnLCAnLXRuJywgJzgnLCAnLW1hJywgJzIwMCcsICctaW1hZScsICc8aW5maWxlLm1hZT4nLCAnLW9tYWUnLCAnPG91dGZpbGUubWFlPic=

>  <r_lp_tautomer_probability>  (167) 
1

>  <r_epik_Ionization_Penalty>  (167) 
1.05041e-07

>  <r_epik_Ionization_Penalty_Charging>  (167) 
0

>  <r_epik_Ionization_Penalty_Neutral>  (167) 
1.05041e-07

>  <r_epik_State_Penalty>  (167) 
-0

>  <r_epik_Charging_Adjusted_Penalty>  (167) 
0

>  <i_epik_Tot_Q>  (167) 
0

>  <i_epik_Tot_abs_Q>  (167) 
0

>  <s_epik_Chemistry_Notes>  (167) 
This compound has an ester and may undergo hydrolysis at high or low pH.

>  <s_lp_Force_Field>  (167) 
OPLS3e

>  <r_lp_Energy>  (167) 
146.867

>  <b_lp_Chiralities_Consistent>  (167) 
1

>  <s_lp_Variant>  (167) 
49:0-1

>  <s_i_glide_gridfile>  (167) 
pfpi4k_grid

>  <i_i_glide_lignum>  (167) 
32

>  <i_i_glide_rotatable_bonds>  (167) 
3

>  <r_i_docking_score>  (167) 
-2.31434

>  <r_i_glide_ligand_efficiency>  (167) 
-0.0701314

>  <r_i_glide_ligand_efficiency_sa>  (167) 
-0.224949

>  <r_i_glide_ligand_efficiency_ln>  (167) 
-0.514697

>  <r_i_glide_gscore>  (167) 
-2.31434

>  <r_i_glide_lipo>  (167) 
-0.0501108

>  <r_i_glide_hbond>  (167) 
-0.160022

>  <r_i_glide_metal>  (167) 
-0

>  <r_i_glide_rewards>  (167) 
-0.295812

>  <r_i_glide_evdw>  (167) 
-18.485

>  <r_i_glide_ecoul>  (167) 
-5.57384

>  <r_i_glide_erotb>  (167) 
0

>  <r_i_glide_esite>  (167) 
-0.0480679

>  <r_i_glide_emodel>  (167) 
-27.3406

>  <r_i_glide_energy>  (167) 
-24.0588

>  <r_i_glide_einternal>  (167) 
0.447331

>  <r_i_glide_intrahb_reward>  (167) 
-0

>  <i_i_glide_confnum>  (167) 
2

>  <i_i_glide_posenum>  (167) 
16

>  <r_i_glide_eff_state_penalty>  (167) 
0

>  <ligand_id>  (167) 
49

>  <original_smiles>  (167) 
CC1CCC2C3(C)C(=O)C4(C)C=CC(O)C5(C)C4CCC3(O)C5C3(C)C1OC(=O)C23C(C)C

>  <smiles>  (167) 
[H]OC1([H])C([H])=C([H])C2(C([H])([H])[H])C(=O)C3(C([H])([H])[H])C4([H])C([H])([H])C([H])([H])C([H])(C([H])([H])[H])C5([H])OC(=O)C4(C([H])(C([H])([H])[H])C([H])([H])[H])C5(C([H])([H])[H])C4([H])C3(O[H])C([H])([H])C([H])([H])C2([H])C14C([H])([H])[H]

$$$$
49:0:1
     RDKit          3D

 73 78  0  0  1  0  0  0  0  0999 V2000
   -0.4709   -3.6580    6.4806 C   0  0  0  0  0  0  0  0  0  0  0  0
    0.3227   -2.4259    5.9968 C   0  0  2  0  0  0  0  0  0  0  0  0
    1.8417   -2.7323    6.1884 C   0  0  0  0  0  0  0  0  0  0  0  0
    2.9549   -1.6431    6.0606 C   0  0  0  0  0  0  0  0  0  0  0  0
    2.7010   -0.0808    6.1183 C   0  0  1  0  0  0  0  0  0  0  0  0
    2.7157    0.6456    4.6858 C   0  0  2  0  0  0  0  0  0  0  0  0
    3.9875    0.2154    3.8778 C   0  0  0  0  0  0  0  0  0  0  0  0
    2.9175    2.2013    4.8091 C   0  0  0  0  0  0  0  0  0  0  0  0
    3.9432    2.5967    5.3717 O   0  0  0  0  0  0  0  0  0  0  0  0
    1.9699    3.3010    4.2206 C   0  0  2  0  0  0  0  0  0  0  0  0
    2.8251    4.3274    3.4334 C   0  0  0  0  0  0  0  0  0  0  0  0
    1.3966    4.0806    5.3969 C   0  0  0  0  0  0  0  0  0  0  0  0
    0.1035    4.0756    5.7539 C   0  0  0  0  0  0  0  0  0  0  0  0
   -0.9599    3.2933    5.0135 C   0  0  1  0  0  0  0  0  0  0  0  0
   -1.6907    4.2451    4.2543 O   0  0  0  0  0  0  0  0  0  0  0  0
   -0.3670    2.1197    4.1276 C   0  0  1  0  0  0  0  0  0  0  0  0
   -1.5402    1.7498    3.1676 C   0  0  0  0  0  0  0  0  0  0  0  0
    0.7896    2.8160    3.3192 C   0  0  2  0  0  0  0  0  0  0  0  0
    1.2468    2.0337    2.0904 C   0  0  0  0  0  0  0  0  0  0  0  0
    1.3902    0.5733    2.4069 C   0  0  0  0  0  0  0  0  0  0  0  0
    1.4228    0.2392    3.9274 C   0  0  1  0  0  0  0  0  0  0  0  0
    1.4405   -1.1452    3.6985 O   0  0  0  0  0  0  0  0  0  0  0  0
    0.1594    0.7059    4.7598 C   0  0  1  0  0  0  0  0  0  0  0  0
    0.1984    0.3348    6.3571 C   0  0  1  0  0  0  0  0  0  0  0  0
   -0.9661    1.0645    7.0729 C   0  0  0  0  0  0  0  0  0  0  0  0
   -0.2065   -1.1525    6.7023 C   0  0  2  0  0  0  0  0  0  0  0  0
    0.2397   -1.3084    8.0314 O   0  0  0  0  0  0  0  0  0  0  0  0
    1.3416   -0.6208    8.2793 C   0  0  0  0  0  0  0  0  0  0  0  0
    2.0622   -0.7932    9.2625 O   0  0  0  0  0  0  0  0  0  0  0  0
    1.5836    0.4115    7.1486 C   0  0  1  0  0  0  0  0  0  0  0  0
    1.9733    1.7633    7.9302 C   0  0  0  0  0  0  0  0  0  0  0  0
    3.4391    1.8535    8.4495 C   0  0  0  0  0  0  0  0  0  0  0  0
    1.1407    2.1993    9.1788 C   0  0  0  0  0  0  0  0  0  0  0  0
   -0.3039   -3.8660    7.5394 H   0  0  0  0  0  0  0  0  0  0  0  0
   -0.1759   -4.5510    5.9278 H   0  0  0  0  0  0  0  0  0  0  0  0
   -1.5425   -3.5223    6.3388 H   0  0  0  0  0  0  0  0  0  0  0  0
    0.0323   -2.3924    4.9548 H   0  0  0  0  0  0  0  0  0  0  0  0
    1.9705   -3.1831    7.1753 H   0  0  0  0  0  0  0  0  0  0  0  0
    2.0999   -3.5444    5.5071 H   0  0  0  0  0  0  0  0  0  0  0  0
    3.6739   -1.8706    6.8491 H   0  0  0  0  0  0  0  0  0  0  0  0
    3.5192   -1.9020    5.1709 H   0  0  0  0  0  0  0  0  0  0  0  0
    3.6525    0.2212    6.5357 H   0  0  0  0  0  0  0  0  0  0  0  0
    3.9183   -0.7739    3.4238 H   0  0  0  0  0  0  0  0  0  0  0  0
    4.8820    0.2182    4.5034 H   0  0  0  0  0  0  0  0  0  0  0  0
    4.1877    0.8971    3.0481 H   0  0  0  0  0  0  0  0  0  0  0  0
    3.5287    4.8549    4.0799 H   0  0  0  0  0  0  0  0  0  0  0  0
    2.2090    5.0915    2.9543 H   0  0  0  0  0  0  0  0  0  0  0  0
    3.4132    3.8585    2.6486 H   0  0  0  0  0  0  0  0  0  0  0  0
    2.1020    4.6702    5.9677 H   0  0  0  0  0  0  0  0  0  0  0  0
   -0.2310    4.6639    6.5984 H   0  0  0  0  0  0  0  0  0  0  0  0
   -1.7381    2.9607    5.6875 H   0  0  0  0  0  0  0  0  0  0  0  0
   -1.2461    4.3470    3.4247 H   0  0  0  0  0  0  0  0  0  0  0  0
   -1.3485    0.8801    2.5451 H   0  0  0  0  0  0  0  0  0  0  0  0
   -1.7883    2.5515    2.4731 H   0  0  0  0  0  0  0  0  0  0  0  0
   -2.4373    1.5327    3.7460 H   0  0  0  0  0  0  0  0  0  0  0  0
    0.3726    3.7258    2.8821 H   0  0  0  0  0  0  0  0  0  0  0  0
    0.5171    2.1423    1.2864 H   0  0  0  0  0  0  0  0  0  0  0  0
    2.1753    2.4212    1.6819 H   0  0  0  0  0  0  0  0  0  0  0  0
    0.5556    0.0687    1.9189 H   0  0  0  0  0  0  0  0  0  0  0  0
    2.2642    0.1929    1.8769 H   0  0  0  0  0  0  0  0  0  0  0  0
    0.7875   -1.3418    3.0474 H   0  0  0  0  0  0  0  0  0  0  0  0
   -0.6194    0.0113    4.4492 H   0  0  0  0  0  0  0  0  0  0  0  0
   -1.1900    0.6801    8.0681 H   0  0  0  0  0  0  0  0  0  0  0  0
   -1.8935    0.9744    6.5041 H   0  0  0  0  0  0  0  0  0  0  0  0
   -0.7370    2.1071    7.2311 H   0  0  0  0  0  0  0  0  0  0  0  0
   -1.2935   -1.2292    6.6682 H   0  0  0  0  0  0  0  0  0  0  0  0
    1.8572    2.5700    7.2350 H   0  0  0  0  0  0  0  0  0  0  0  0
    3.6900    1.0561    9.1472 H   0  0  0  0  0  0  0  0  0  0  0  0
    3.5988    2.7870    8.9909 H   0  0  0  0  0  0  0  0  0  0  0  0
    4.2001    1.8517    7.6764 H   0  0  0  0  0  0  0  0  0  0  0  0
    1.4126    1.6297   10.0672 H   0  0  0  0  0  0  0  0  0  0  0  0
    0.0643    2.1446    9.1085 H   0  0  0  0  0  0  0  0  0  0  0  0
    1.3557    3.2442    9.4095 H   0  0  0  0  0  0  0  0  0  0  0  0
  1  2  1  0
  1 34  1  0
  1 35  1  0
  1 36  1  0
  2 26  1  0
  2  3  1  0
  2 37  1  6
  3  4  1  0
  3 38  1  0
  3 39  1  0
  4  5  1  0
  4 40  1  0
  4 41  1  0
  5 30  1  0
  5  6  1  0
  5 42  1  1
  6 21  1  0
  6  7  1  6
  6  8  1  0
  7 43  1  0
  7 44  1  0
  7 45  1  0
  8  9  2  0
  8 10  1  0
 10 18  1  0
 10 11  1  6
 10 12  1  0
 11 46  1  0
 11 47  1  0
 11 48  1  0
 12 13  2  0
 12 49  1  0
 13 14  1  0
 13 50  1  0
 14 15  1  0
 14 16  1  0
 14 51  1  1
 15 52  1  0
 16 23  1  0
 16 17  1  6
 16 18  1  0
 17 53  1  0
 17 54  1  0
 17 55  1  0
 18 19  1  0
 18 56  1  6
 19 20  1  0
 19 57  1  0
 19 58  1  0
 20 21  1  0
 20 59  1  0
 20 60  1  0
 21 22  1  6
 21 23  1  0
 22 61  1  0
 23 24  1  0
 23 62  1  6
 24 30  1  0
 24 25  1  1
 24 26  1  0
 25 63  1  0
 25 64  1  0
 25 65  1  0
 26 27  1  0
 26 66  1  1
 27 28  1  0
 28 29  2  0
 28 30  1  0
 30 31  1  1
 31 32  1  0
 31 33  1  0
 31 67  1  0
 32 68  1  0
 32 69  1  0
 32 70  1  0
 33 71  1  0
 33 72  1  0
 33 73  1  0
M  END
>  <i_m_ct_stereo_status>  (168) 
1

>  <s_m_source_file>  (168) 
/var/tmp/pbs.5076255.sched01/tmppm3sokcv/34yi_btuhz.sdf

>  <i_m_source_file_index>  (168) 
32

>  <i_lp_mmshare_version>  (168) 
48012

>  <i_f3d_flags>  (168) 
0

>  <s_epik_input>  (168) 
W0NIMl0xW0NIMl1bQ0BASF0oW0NIM10pW0NAQEhdKE9DMj1PKVtDQEBdKFtDSDNdKShbQ0BdMihbQ0hdKFtDSDNdKVtDSDNdKVtDSF0xW0NAXTM0W0NIM10pW0NIXTVbQ0BdNihbQ0gzXSlbQ0BIXShbQ0gyXVtDSDJdW0NAQF00NVtPSF0pW0NAQF0oQzM9TykoW0NIM10pW0NIXT1bQ0hdW0NASF02W09IXQ==

>  <s_epik_cmdline>  (168) 
J2VwaWtfcHl0aG9uJywgJy1waHQnLCAnMi4wJywgJy1waCcsICc3LjAnLCAnLXRuJywgJzgnLCAnLW1hJywgJzIwMCcsICctaW1hZScsICc8aW5maWxlLm1hZT4nLCAnLW9tYWUnLCAnPG91dGZpbGUubWFlPic=

>  <r_lp_tautomer_probability>  (168) 
1

>  <r_epik_Ionization_Penalty>  (168) 
1.05041e-07

>  <r_epik_Ionization_Penalty_Charging>  (168) 
0

>  <r_epik_Ionization_Penalty_Neutral>  (168) 
1.05041e-07

>  <r_epik_State_Penalty>  (168) 
-0

>  <r_epik_Charging_Adjusted_Penalty>  (168) 
0

>  <i_epik_Tot_Q>  (168) 
0

>  <i_epik_Tot_abs_Q>  (168) 
0

>  <s_epik_Chemistry_Notes>  (168) 
This compound has an ester and may undergo hydrolysis at high or low pH.

>  <s_lp_Force_Field>  (168) 
OPLS3e

>  <r_lp_Energy>  (168) 
146.867

>  <b_lp_Chiralities_Consistent>  (168) 
1

>  <s_lp_Variant>  (168) 
49:0-1

>  <s_i_glide_gridfile>  (168) 
pfpi4k_grid

>  <i_i_glide_lignum>  (168) 
32

>  <i_i_glide_rotatable_bonds>  (168) 
3

>  <r_i_docking_score>  (168) 
-2.05594

>  <r_i_glide_ligand_efficiency>  (168) 
-0.0623012

>  <r_i_glide_ligand_efficiency_sa>  (168) 
-0.199833

>  <r_i_glide_ligand_efficiency_ln>  (168) 
-0.45723

>  <r_i_glide_gscore>  (168) 
-2.05594

>  <r_i_glide_lipo>  (168) 
0

>  <r_i_glide_hbond>  (168) 
-0.0807611

>  <r_i_glide_metal>  (168) 
-0

>  <r_i_glide_rewards>  (168) 
-0.295812

>  <r_i_glide_evdw>  (168) 
-19.5142

>  <r_i_glide_ecoul>  (168) 
-4.63072

>  <r_i_glide_erotb>  (168) 
0

>  <r_i_glide_esite>  (168) 
-0.00904736

>  <r_i_glide_emodel>  (168) 
-27.0293

>  <r_i_glide_energy>  (168) 
-24.1449

>  <r_i_glide_einternal>  (168) 
0.433045

>  <r_i_glide_intrahb_reward>  (168) 
-0

>  <i_i_glide_confnum>  (168) 
1

>  <i_i_glide_posenum>  (168) 
26

>  <r_i_glide_eff_state_penalty>  (168) 
0

>  <ligand_id>  (168) 
49

>  <original_smiles>  (168) 
CC1CCC2C3(C)C(=O)C4(C)C=CC(O)C5(C)C4CCC3(O)C5C3(C)C1OC(=O)C23C(C)C

>  <smiles>  (168) 
[H]OC1([H])C([H])=C([H])C2(C([H])([H])[H])C(=O)C3(C([H])([H])[H])C4([H])C([H])([H])C([H])([H])C([H])(C([H])([H])[H])C5([H])OC(=O)C4(C([H])(C([H])([H])[H])C([H])([H])[H])C5(C([H])([H])[H])C4([H])C3(O[H])C([H])([H])C([H])([H])C2([H])C14C([H])([H])[H]

$$$$
49:0:2
     RDKit          3D

 73 78  0  0  1  0  0  0  0  0999 V2000
    0.3662    6.1643    3.6789 C   0  0  0  0  0  0  0  0  0  0  0  0
    0.3238    4.6927    4.1237 C   0  0  2  0  0  0  0  0  0  0  0  0
   -0.8821    4.5267    5.1024 C   0  0  0  0  0  0  0  0  0  0  0  0
   -1.1147    3.2490    5.9700 C   0  0  0  0  0  0  0  0  0  0  0  0
   -0.0088    2.1585    6.2717 C   0  0  1  0  0  0  0  0  0  0  0  0
   -0.1440    0.8219    5.3935 C   0  0  2  0  0  0  0  0  0  0  0  0
   -1.6208    0.2949    5.4380 C   0  0  0  0  0  0  0  0  0  0  0  0
    0.6440   -0.3838    6.0206 C   0  0  0  0  0  0  0  0  0  0  0  0
    0.3127   -0.7398    7.1578 O   0  0  0  0  0  0  0  0  0  0  0  0
    1.7429   -1.2377    5.3013 C   0  0  2  0  0  0  0  0  0  0  0  0
    1.4065   -2.7412    5.5018 C   0  0  0  0  0  0  0  0  0  0  0  0
    3.0544   -1.0169    6.0445 C   0  0  0  0  0  0  0  0  0  0  0  0
    4.1245   -0.3916    5.5288 C   0  0  0  0  0  0  0  0  0  0  0  0
    4.1650    0.1733    4.1224 C   0  0  1  0  0  0  0  0  0  0  0  0
    4.9785   -0.7087    3.3659 O   0  0  0  0  0  0  0  0  0  0  0  0
    2.7266    0.4041    3.5001 C   0  0  1  0  0  0  0  0  0  0  0  0
    2.9896    0.5545    1.9660 C   0  0  0  0  0  0  0  0  0  0  0  0
    1.9837   -0.9553    3.7810 C   0  0  2  0  0  0  0  0  0  0  0  0
    0.7391   -1.1609    2.9254 C   0  0  0  0  0  0  0  0  0  0  0  0
   -0.0804    0.1014    2.8627 C   0  0  0  0  0  0  0  0  0  0  0  0
    0.2761    1.1644    3.9356 C   0  0  1  0  0  0  0  0  0  0  0  0
   -0.6270    2.1043    3.4106 O   0  0  0  0  0  0  0  0  0  0  0  0
    1.7750    1.6670    3.9203 C   0  0  1  0  0  0  0  0  0  0  0  0
    2.1377    2.8000    5.0474 C   0  0  1  0  0  0  0  0  0  0  0  0
    3.6711    3.0053    5.0791 C   0  0  0  0  0  0  0  0  0  0  0  0
    1.7128    4.2759    4.6687 C   0  0  2  0  0  0  0  0  0  0  0  0
    1.7877    4.9588    5.9009 O   0  0  0  0  0  0  0  0  0  0  0  0
    1.4846    4.1940    6.9312 C   0  0  0  0  0  0  0  0  0  0  0  0
    1.2305    4.6134    8.0580 O   0  0  0  0  0  0  0  0  0  0  0  0
    1.4765    2.7050    6.4985 C   0  0  1  0  0  0  0  0  0  0  0  0
    2.2690    1.9507    7.6787 C   0  0  0  0  0  0  0  0  0  0  0  0
    1.4570    1.6743    8.9789 C   0  0  0  0  0  0  0  0  0  0  0  0
    3.5984    2.5635    8.2270 C   0  0  0  0  0  0  0  0  0  0  0  0
    0.5369    6.8462    4.5133 H   0  0  0  0  0  0  0  0  0  0  0  0
   -0.5702    6.4561    3.2013 H   0  0  0  0  0  0  0  0  0  0  0  0
    1.1591    6.3350    2.9484 H   0  0  0  0  0  0  0  0  0  0  0  0
    0.1622    4.2062    3.1719 H   0  0  0  0  0  0  0  0  0  0  0  0
   -0.8614    5.3661    5.8019 H   0  0  0  0  0  0  0  0  0  0  0  0
   -1.7905    4.6883    4.5225 H   0  0  0  0  0  0  0  0  0  0  0  0
   -1.4683    3.6150    6.9349 H   0  0  0  0  0  0  0  0  0  0  0  0
   -2.0113    2.7835    5.5727 H   0  0  0  0  0  0  0  0  0  0  0  0
   -0.3646    1.8357    7.2397 H   0  0  0  0  0  0  0  0  0  0  0  0
   -2.3006    0.8358    4.7805 H   0  0  0  0  0  0  0  0  0  0  0  0
   -2.0345    0.3520    6.4452 H   0  0  0  0  0  0  0  0  0  0  0  0
   -1.6964   -0.7499    5.1255 H   0  0  0  0  0  0  0  0  0  0  0  0
    1.4610   -3.0327    6.5521 H   0  0  0  0  0  0  0  0  0  0  0  0
    2.1083   -3.3862    4.9694 H   0  0  0  0  0  0  0  0  0  0  0  0
    0.4025   -3.0014    5.1673 H   0  0  0  0  0  0  0  0  0  0  0  0
    3.1034   -1.4017    7.0553 H   0  0  0  0  0  0  0  0  0  0  0  0
    5.0280   -0.2823    6.1147 H   0  0  0  0  0  0  0  0  0  0  0  0
    4.7884    1.0551    4.0700 H   0  0  0  0  0  0  0  0  0  0  0  0
    4.5177   -1.5238    3.2543 H   0  0  0  0  0  0  0  0  0  0  0  0
    2.1109    0.8235    1.3869 H   0  0  0  0  0  0  0  0  0  0  0  0
    3.3706   -0.3583    1.5087 H   0  0  0  0  0  0  0  0  0  0  0  0
    3.7206    1.3401    1.7805 H   0  0  0  0  0  0  0  0  0  0  0  0
    2.6467   -1.7537    3.4420 H   0  0  0  0  0  0  0  0  0  0  0  0
    1.0249   -1.4474    1.9124 H   0  0  0  0  0  0  0  0  0  0  0  0
    0.1363   -1.9883    3.2874 H   0  0  0  0  0  0  0  0  0  0  0  0
    0.0401    0.5100    1.8587 H   0  0  0  0  0  0  0  0  0  0  0  0
   -1.1345   -0.1620    2.9123 H   0  0  0  0  0  0  0  0  0  0  0  0
   -0.3274    2.3681    2.5524 H   0  0  0  0  0  0  0  0  0  0  0  0
    1.8225    2.2950    3.0319 H   0  0  0  0  0  0  0  0  0  0  0  0
    3.9901    3.9236    5.5730 H   0  0  0  0  0  0  0  0  0  0  0  0
    4.0676    3.0736    4.0673 H   0  0  0  0  0  0  0  0  0  0  0  0
    4.1669    2.2088    5.6106 H   0  0  0  0  0  0  0  0  0  0  0  0
    2.4494    4.6917    3.9788 H   0  0  0  0  0  0  0  0  0  0  0  0
    2.5545    0.9905    7.2992 H   0  0  0  0  0  0  0  0  0  0  0  0
    1.0850    2.5855    9.4454 H   0  0  0  0  0  0  0  0  0  0  0  0
    2.0844    1.1909    9.7281 H   0  0  0  0  0  0  0  0  0  0  0  0
    0.6100    1.0080    8.8585 H   0  0  0  0  0  0  0  0  0  0  0  0
    3.4113    3.3951    8.9056 H   0  0  0  0  0  0  0  0  0  0  0  0
    4.3189    2.9236    7.5078 H   0  0  0  0  0  0  0  0  0  0  0  0
    4.1312    1.8082    8.8075 H   0  0  0  0  0  0  0  0  0  0  0  0
  1  2  1  0
  1 34  1  0
  1 35  1  0
  1 36  1  0
  2 26  1  0
  2  3  1  0
  2 37  1  6
  3  4  1  0
  3 38  1  0
  3 39  1  0
  4  5  1  0
  4 40  1  0
  4 41  1  0
  5 30  1  0
  5  6  1  0
  5 42  1  1
  6 21  1  0
  6  7  1  6
  6  8  1  0
  7 43  1  0
  7 44  1  0
  7 45  1  0
  8  9  2  0
  8 10  1  0
 10 18  1  0
 10 11  1  6
 10 12  1  0
 11 46  1  0
 11 47  1  0
 11 48  1  0
 12 13  2  0
 12 49  1  0
 13 14  1  0
 13 50  1  0
 14 15  1  0
 14 16  1  0
 14 51  1  1
 15 52  1  0
 16 23  1  0
 16 17  1  6
 16 18  1  0
 17 53  1  0
 17 54  1  0
 17 55  1  0
 18 19  1  0
 18 56  1  6
 19 20  1  0
 19 57  1  0
 19 58  1  0
 20 21  1  0
 20 59  1  0
 20 60  1  0
 21 22  1  6
 21 23  1  0
 22 61  1  0
 23 24  1  0
 23 62  1  6
 24 30  1  0
 24 25  1  1
 24 26  1  0
 25 63  1  0
 25 64  1  0
 25 65  1  0
 26 27  1  0
 26 66  1  6
 27 28  1  0
 28 29  2  0
 28 30  1  0
 30 31  1  1
 31 32  1  0
 31 33  1  0
 31 67  1  0
 32 68  1  0
 32 69  1  0
 32 70  1  0
 33 71  1  0
 33 72  1  0
 33 73  1  0
M  END
>  <i_m_ct_stereo_status>  (169) 
1

>  <s_m_source_file>  (169) 
/var/tmp/pbs.5076255.sched01/tmppm3sokcv/34yi_btuhz.sdf

>  <i_m_source_file_index>  (169) 
32

>  <i_lp_mmshare_version>  (169) 
48012

>  <i_f3d_flags>  (169) 
0

>  <s_epik_input>  (169) 
W0NIMl0xW0NIMl1bQ0BASF0oW0NIM10pW0NAQEhdKE9DMj1PKVtDQEBdKFtDSDNdKShbQ0BdMihbQ0hdKFtDSDNdKVtDSDNdKVtDSF0xW0NAXTM0W0NIM10pW0NIXTVbQ0BdNihbQ0gzXSlbQ0BIXShbQ0gyXVtDSDJdW0NAQF00NVtPSF0pW0NAQF0oQzM9TykoW0NIM10pW0NIXT1bQ0hdW0NASF02W09IXQ==

>  <s_epik_cmdline>  (169) 
J2VwaWtfcHl0aG9uJywgJy1waHQnLCAnMi4wJywgJy1waCcsICc3LjAnLCAnLXRuJywgJzgnLCAnLW1hJywgJzIwMCcsICctaW1hZScsICc8aW5maWxlLm1hZT4nLCAnLW9tYWUnLCAnPG91dGZpbGUubWFlPic=

>  <r_lp_tautomer_probability>  (169) 
1

>  <r_epik_Ionization_Penalty>  (169) 
1.05041e-07

>  <r_epik_Ionization_Penalty_Charging>  (169) 
0

>  <r_epik_Ionization_Penalty_Neutral>  (169) 
1.05041e-07

>  <r_epik_State_Penalty>  (169) 
-0

>  <r_epik_Charging_Adjusted_Penalty>  (169) 
0

>  <i_epik_Tot_Q>  (169) 
0

>  <i_epik_Tot_abs_Q>  (169) 
0

>  <s_epik_Chemistry_Notes>  (169) 
This compound has an ester and may undergo hydrolysis at high or low pH.

>  <s_lp_Force_Field>  (169) 
OPLS3e

>  <r_lp_Energy>  (169) 
146.867

>  <b_lp_Chiralities_Consistent>  (169) 
1

>  <s_lp_Variant>  (169) 
49:0-1

>  <s_i_glide_gridfile>  (169) 
pfpi4k_grid

>  <i_i_glide_lignum>  (169) 
32

>  <i_i_glide_rotatable_bonds>  (169) 
3

>  <r_i_docking_score>  (169) 
-1.83693

>  <r_i_glide_ligand_efficiency>  (169) 
-0.0556646

>  <r_i_glide_ligand_efficiency_sa>  (169) 
-0.178546

>  <r_i_glide_ligand_efficiency_ln>  (169) 
-0.408524

>  <r_i_glide_gscore>  (169) 
-1.83693

>  <r_i_glide_lipo>  (169) 
-0.103141

>  <r_i_glide_hbond>  (169) 
0

>  <r_i_glide_metal>  (169) 
-0

>  <r_i_glide_rewards>  (169) 
-0.295812

>  <r_i_glide_evdw>  (169) 
-19.4048

>  <r_i_glide_ecoul>  (169) 
-3.05711

>  <r_i_glide_erotb>  (169) 
0

>  <r_i_glide_esite>  (169) 
-0.00917294

>  <r_i_glide_emodel>  (169) 
-25.2588

>  <r_i_glide_energy>  (169) 
-22.4619

>  <r_i_glide_einternal>  (169) 
0.0969894

>  <r_i_glide_intrahb_reward>  (169) 
-0

>  <i_i_glide_confnum>  (169) 
2

>  <i_i_glide_posenum>  (169) 
25

>  <r_i_glide_eff_state_penalty>  (169) 
0

>  <ligand_id>  (169) 
49

>  <original_smiles>  (169) 
CC1CCC2C3(C)C(=O)C4(C)C=CC(O)C5(C)C4CCC3(O)C5C3(C)C1OC(=O)C23C(C)C

>  <smiles>  (169) 
[H]OC1([H])C([H])=C([H])C2(C([H])([H])[H])C(=O)C3(C([H])([H])[H])C4([H])C([H])([H])C([H])([H])C([H])(C([H])([H])[H])C5([H])OC(=O)C4(C([H])(C([H])([H])[H])C([H])([H])[H])C5(C([H])([H])[H])C4([H])C3(O[H])C([H])([H])C([H])([H])C2([H])C14C([H])([H])[H]

$$$$
50:0:0
     RDKit          3D

 24 25  0  0  1  0  0  0  0  0999 V2000
    0.7940  -10.2971    5.1241 C   0  0  0  0  0  0  0  0  0  0  0  0
    0.7040  -10.6158    3.3432 S   0  0  0  0  0  0  0  0  0  0  0  0
    0.0281   -9.0684    2.8241 C   0  0  0  0  0  0  0  0  0  0  0  0
   -1.2431   -8.7305    3.0049 N   0  0  0  0  0  0  0  0  0  0  0  0
   -1.3450   -7.4571    2.4854 N   0  0  0  0  0  0  0  0  0  0  0  0
   -0.2040   -7.0424    2.0208 N   0  0  0  0  0  0  0  0  0  0  0  0
    0.6791   -8.0537    2.2160 N   0  0  0  0  0  0  0  0  0  0  0  0
    2.0673   -7.9768    1.8795 C   0  0  0  0  0  0  0  0  0  0  0  0
    2.8266   -9.1106    1.4974 C   0  0  0  0  0  0  0  0  0  0  0  0
    4.1878   -8.9887    1.1602 C   0  0  0  0  0  0  0  0  0  0  0  0
    4.8077   -7.7287    1.1694 C   0  0  0  0  0  0  0  0  0  0  0  0
    4.0677   -6.5850    1.5194 C   0  0  0  0  0  0  0  0  0  0  0  0
    4.7487   -5.2294    1.5170 C   0  0  0  0  0  0  0  0  0  0  0  0
    2.7064   -6.7112    1.8708 C   0  0  0  0  0  0  0  0  0  0  0  0
    1.4868  -10.9994    5.5913 H   0  0  0  0  0  0  0  0  0  0  0  0
   -0.1819  -10.4104    5.5960 H   0  0  0  0  0  0  0  0  0  0  0  0
    1.1532   -9.2855    5.3054 H   0  0  0  0  0  0  0  0  0  0  0  0
    2.3940  -10.0925    1.4209 H   0  0  0  0  0  0  0  0  0  0  0  0
    4.7447   -9.8687    0.8725 H   0  0  0  0  0  0  0  0  0  0  0  0
    5.8485   -7.6419    0.8983 H   0  0  0  0  0  0  0  0  0  0  0  0
    4.0601   -4.4282    1.7823 H   0  0  0  0  0  0  0  0  0  0  0  0
    5.1591   -5.0113    0.5315 H   0  0  0  0  0  0  0  0  0  0  0  0
    5.5662   -5.2234    2.2364 H   0  0  0  0  0  0  0  0  0  0  0  0
    2.1486   -5.8230    2.1328 H   0  0  0  0  0  0  0  0  0  0  0  0
  1  2  1  0
  1 15  1  0
  1 16  1  0
  1 17  1  0
  2  3  1  0
  3  7  1  0
  3  4  2  0
  4  5  1  0
  5  6  2  0
  6  7  1  0
  7  8  1  0
  8 14  1  0
  8  9  2  0
  9 10  1  0
  9 18  1  0
 10 11  2  0
 10 19  1  0
 11 12  1  0
 11 20  1  0
 12 13  1  0
 12 14  2  0
 13 21  1  0
 13 22  1  0
 13 23  1  0
 14 24  1  0
M  END
>  <i_m_ct_stereo_status>  (170) 
1

>  <s_m_source_file>  (170) 
/var/tmp/pbs.5076255.sched01/tmppm3sokcv/34yi_btuhz.sdf

>  <i_m_source_file_index>  (170) 
33

>  <i_lp_mmshare_version>  (170) 
48012

>  <i_f3d_flags>  (170) 
0

>  <s_epik_input>  (170) 
W0NIM11TYzFubm5uMS1jMltjSF1bY0hdW2NIXWMoW0NIM10pW2NIXTI=

>  <s_epik_cmdline>  (170) 
J2VwaWtfcHl0aG9uJywgJy1waHQnLCAnMi4wJywgJy1waCcsICc3LjAnLCAnLXRuJywgJzgnLCAnLW1hJywgJzIwMCcsICctaW1hZScsICc8aW5maWxlLm1hZT4nLCAnLW9tYWUnLCAnPG91dGZpbGUubWFlPic=

>  <r_lp_tautomer_probability>  (170) 
1

>  <r_epik_Ionization_Penalty>  (170) 
1.88958e-10

>  <r_epik_Ionization_Penalty_Charging>  (170) 
0

>  <r_epik_Ionization_Penalty_Neutral>  (170) 
1.88958e-10

>  <r_epik_State_Penalty>  (170) 
-0

>  <r_epik_Charging_Adjusted_Penalty>  (170) 
0

>  <i_epik_Tot_Q>  (170) 
0

>  <i_epik_Tot_abs_Q>  (170) 
0

>  <s_lp_Force_Field>  (170) 
OPLS3e

>  <r_lp_Energy>  (170) 
18.8412

>  <b_lp_Chiralities_Consistent>  (170) 
1

>  <s_lp_Variant>  (170) 
50:0-1

>  <s_i_glide_gridfile>  (170) 
pfpi4k_grid

>  <i_i_glide_lignum>  (170) 
33

>  <i_i_glide_rotatable_bonds>  (170) 
2

>  <r_i_docking_score>  (170) 
-3.65871

>  <r_i_glide_ligand_efficiency>  (170) 
-0.261337

>  <r_i_glide_ligand_efficiency_sa>  (170) 
-0.629859

>  <r_i_glide_ligand_efficiency_ln>  (170) 
-1.0054

>  <r_i_glide_gscore>  (170) 
-3.65871

>  <r_i_glide_lipo>  (170) 
-0.215618

>  <r_i_glide_hbond>  (170) 
0

>  <r_i_glide_metal>  (170) 
-0

>  <r_i_glide_rewards>  (170) 
-2.00271

>  <r_i_glide_evdw>  (170) 
-22.3427

>  <r_i_glide_ecoul>  (170) 
-2.77583

>  <r_i_glide_erotb>  (170) 
0.387821

>  <r_i_glide_esite>  (170) 
-0.294693

>  <r_i_glide_emodel>  (170) 
-30.4659

>  <r_i_glide_energy>  (170) 
-25.1185

>  <r_i_glide_einternal>  (170) 
1.06786

>  <r_i_glide_intrahb_reward>  (170) 
-0

>  <i_i_glide_confnum>  (170) 
3

>  <i_i_glide_posenum>  (170) 
23

>  <r_i_glide_eff_state_penalty>  (170) 
0

>  <ligand_id>  (170) 
50

>  <original_smiles>  (170) 
CSc1nnnn1-c1cccc(C)c1

>  <smiles>  (170) 
[H]c1c([H])c(-n2nnnc2SC([H])([H])[H])c([H])c(C([H])([H])[H])c1[H]

$$$$
50:0:1
     RDKit          3D

 24 25  0  0  1  0  0  0  0  0999 V2000
    1.0373  -10.6736    4.7364 C   0  0  0  0  0  0  0  0  0  0  0  0
    0.6744  -10.6743    2.9507 S   0  0  0  0  0  0  0  0  0  0  0  0
   -0.0183   -9.0679    2.7999 C   0  0  0  0  0  0  0  0  0  0  0  0
   -1.3094   -8.8054    2.9663 N   0  0  0  0  0  0  0  0  0  0  0  0
   -1.4117   -7.4465    2.7370 N   0  0  0  0  0  0  0  0  0  0  0  0
   -0.2777   -6.9343    2.4190 N   0  0  0  0  0  0  0  0  0  0  0  0
    0.6416   -7.9328    2.4671 N   0  0  0  0  0  0  0  0  0  0  0  0
    2.0348   -7.7808    2.1859 C   0  0  0  0  0  0  0  0  0  0  0  0
    3.0531   -8.5423    2.8306 C   0  0  0  0  0  0  0  0  0  0  0  0
    4.4129   -8.3129    2.5838 C   0  0  0  0  0  0  0  0  0  0  0  0
    4.8110   -7.3191    1.6763 C   0  0  0  0  0  0  0  0  0  0  0  0
    3.8269   -6.5509    1.0188 C   0  0  0  0  0  0  0  0  0  0  0  0
    4.2687   -5.4894    0.0405 C   0  0  0  0  0  0  0  0  0  0  0  0
    2.4548   -6.7724    1.2827 C   0  0  0  0  0  0  0  0  0  0  0  0
    1.7999  -11.4254    4.9499 H   0  0  0  0  0  0  0  0  0  0  0  0
    0.1569  -10.8910    5.3356 H   0  0  0  0  0  0  0  0  0  0  0  0
    1.4067   -9.7064    5.0732 H   0  0  0  0  0  0  0  0  0  0  0  0
    2.8561   -9.2983    3.5610 H   0  0  0  0  0  0  0  0  0  0  0  0
    5.1441   -8.9036    3.1176 H   0  0  0  0  0  0  0  0  0  0  0  0
    5.8592   -7.1552    1.4925 H   0  0  0  0  0  0  0  0  0  0  0  0
    3.4172   -4.9894   -0.4189 H   0  0  0  0  0  0  0  0  0  0  0  0
    4.8618   -5.9463   -0.7488 H   0  0  0  0  0  0  0  0  0  0  0  0
    4.8771   -4.7409    0.5453 H   0  0  0  0  0  0  0  0  0  0  0  0
    1.7142   -6.1745    0.7660 H   0  0  0  0  0  0  0  0  0  0  0  0
  1  2  1  0
  1 15  1  0
  1 16  1  0
  1 17  1  0
  2  3  1  0
  3  7  1  0
  3  4  2  0
  4  5  1  0
  5  6  2  0
  6  7  1  0
  7  8  1  0
  8 14  1  0
  8  9  2  0
  9 10  1  0
  9 18  1  0
 10 11  2  0
 10 19  1  0
 11 12  1  0
 11 20  1  0
 12 13  1  0
 12 14  2  0
 13 21  1  0
 13 22  1  0
 13 23  1  0
 14 24  1  0
M  END
>  <i_m_ct_stereo_status>  (171) 
1

>  <s_m_source_file>  (171) 
/var/tmp/pbs.5076255.sched01/tmppm3sokcv/34yi_btuhz.sdf

>  <i_m_source_file_index>  (171) 
33

>  <i_lp_mmshare_version>  (171) 
48012

>  <i_f3d_flags>  (171) 
0

>  <s_epik_input>  (171) 
W0NIM11TYzFubm5uMS1jMltjSF1bY0hdW2NIXWMoW0NIM10pW2NIXTI=

>  <s_epik_cmdline>  (171) 
J2VwaWtfcHl0aG9uJywgJy1waHQnLCAnMi4wJywgJy1waCcsICc3LjAnLCAnLXRuJywgJzgnLCAnLW1hJywgJzIwMCcsICctaW1hZScsICc8aW5maWxlLm1hZT4nLCAnLW9tYWUnLCAnPG91dGZpbGUubWFlPic=

>  <r_lp_tautomer_probability>  (171) 
1

>  <r_epik_Ionization_Penalty>  (171) 
1.88958e-10

>  <r_epik_Ionization_Penalty_Charging>  (171) 
0

>  <r_epik_Ionization_Penalty_Neutral>  (171) 
1.88958e-10

>  <r_epik_State_Penalty>  (171) 
-0

>  <r_epik_Charging_Adjusted_Penalty>  (171) 
0

>  <i_epik_Tot_Q>  (171) 
0

>  <i_epik_Tot_abs_Q>  (171) 
0

>  <s_lp_Force_Field>  (171) 
OPLS3e

>  <r_lp_Energy>  (171) 
18.8412

>  <b_lp_Chiralities_Consistent>  (171) 
1

>  <s_lp_Variant>  (171) 
50:0-1

>  <s_i_glide_gridfile>  (171) 
pfpi4k_grid

>  <i_i_glide_lignum>  (171) 
33

>  <i_i_glide_rotatable_bonds>  (171) 
2

>  <r_i_docking_score>  (171) 
-3.57882

>  <r_i_glide_ligand_efficiency>  (171) 
-0.25563

>  <r_i_glide_ligand_efficiency_sa>  (171) 
-0.616104

>  <r_i_glide_ligand_efficiency_ln>  (171) 
-0.983446

>  <r_i_glide_gscore>  (171) 
-3.57882

>  <r_i_glide_lipo>  (171) 
-0.245207

>  <r_i_glide_hbond>  (171) 
0

>  <r_i_glide_metal>  (171) 
-0

>  <r_i_glide_rewards>  (171) 
-2.00271

>  <r_i_glide_evdw>  (171) 
-21.148

>  <r_i_glide_ecoul>  (171) 
-2.53805

>  <r_i_glide_erotb>  (171) 
0.387821

>  <r_i_glide_esite>  (171) 
-0.280608

>  <r_i_glide_emodel>  (171) 
-28.6961

>  <r_i_glide_energy>  (171) 
-23.6861

>  <r_i_glide_einternal>  (171) 
1.00295

>  <r_i_glide_intrahb_reward>  (171) 
-0

>  <i_i_glide_confnum>  (171) 
3

>  <i_i_glide_posenum>  (171) 
1

>  <r_i_glide_eff_state_penalty>  (171) 
0

>  <ligand_id>  (171) 
50

>  <original_smiles>  (171) 
CSc1nnnn1-c1cccc(C)c1

>  <smiles>  (171) 
[H]c1c([H])c(-n2nnnc2SC([H])([H])[H])c([H])c(C([H])([H])[H])c1[H]

$$$$
50:0:2
     RDKit          3D

 24 25  0  0  1  0  0  0  0  0999 V2000
    0.1098   -9.6583    6.3485 C   0  0  0  0  0  0  0  0  0  0  0  0
    1.2868   -8.5698    7.1858 S   0  0  0  0  0  0  0  0  0  0  0  0
    0.4203   -7.0144    7.1351 C   0  0  0  0  0  0  0  0  0  0  0  0
    0.2163   -6.2855    8.2249 N   0  0  0  0  0  0  0  0  0  0  0  0
   -0.4214   -5.1412    7.7792 N   0  0  0  0  0  0  0  0  0  0  0  0
   -0.5850   -5.1656    6.4867 N   0  0  0  0  0  0  0  0  0  0  0  0
   -0.0751   -6.3448    6.0733 N   0  0  0  0  0  0  0  0  0  0  0  0
   -0.0494   -6.7425    4.7033 C   0  0  0  0  0  0  0  0  0  0  0  0
    0.7906   -6.0510    3.7959 C   0  0  0  0  0  0  0  0  0  0  0  0
    0.8218   -6.4189    2.4296 C   0  0  0  0  0  0  0  0  0  0  0  0
    0.0142   -7.4731    1.9819 C   0  0  0  0  0  0  0  0  0  0  0  0
   -0.8179   -8.1722    2.8794 C   0  0  0  0  0  0  0  0  0  0  0  0
   -1.6360   -9.3494    2.4072 C   0  0  0  0  0  0  0  0  0  0  0  0
   -0.8974   -7.7611    4.2363 C   0  0  0  0  0  0  0  0  0  0  0  0
    0.2215  -10.6986    6.6599 H   0  0  0  0  0  0  0  0  0  0  0  0
    0.2609   -9.5750    5.2760 H   0  0  0  0  0  0  0  0  0  0  0  0
   -0.9177   -9.3685    6.5358 H   0  0  0  0  0  0  0  0  0  0  0  0
    1.4221   -5.2536    4.1498 H   0  0  0  0  0  0  0  0  0  0  0  0
    1.4703   -5.8778    1.7449 H   0  0  0  0  0  0  0  0  0  0  0  0
    0.0815   -7.7917    0.9466 H   0  0  0  0  0  0  0  0  0  0  0  0
   -2.1536   -9.8211    3.2319 H   0  0  0  0  0  0  0  0  0  0  0  0
   -0.9875  -10.1032    1.9683 H   0  0  0  0  0  0  0  0  0  0  0  0
   -2.3870   -9.0608    1.6776 H   0  0  0  0  0  0  0  0  0  0  0  0
   -1.5996   -8.2453    4.9077 H   0  0  0  0  0  0  0  0  0  0  0  0
  1  2  1  0
  1 15  1  0
  1 16  1  0
  1 17  1  0
  2  3  1  0
  3  7  1  0
  3  4  2  0
  4  5  1  0
  5  6  2  0
  6  7  1  0
  7  8  1  0
  8 14  1  0
  8  9  2  0
  9 10  1  0
  9 18  1  0
 10 11  2  0
 10 19  1  0
 11 12  1  0
 11 20  1  0
 12 13  1  0
 12 14  2  0
 13 21  1  0
 13 22  1  0
 13 23  1  0
 14 24  1  0
M  END
>  <i_m_ct_stereo_status>  (172) 
1

>  <s_m_source_file>  (172) 
/var/tmp/pbs.5076255.sched01/tmppm3sokcv/34yi_btuhz.sdf

>  <i_m_source_file_index>  (172) 
33

>  <i_lp_mmshare_version>  (172) 
48012

>  <i_f3d_flags>  (172) 
0

>  <s_epik_input>  (172) 
W0NIM11TYzFubm5uMS1jMltjSF1bY0hdW2NIXWMoW0NIM10pW2NIXTI=

>  <s_epik_cmdline>  (172) 
J2VwaWtfcHl0aG9uJywgJy1waHQnLCAnMi4wJywgJy1waCcsICc3LjAnLCAnLXRuJywgJzgnLCAnLW1hJywgJzIwMCcsICctaW1hZScsICc8aW5maWxlLm1hZT4nLCAnLW9tYWUnLCAnPG91dGZpbGUubWFlPic=

>  <r_lp_tautomer_probability>  (172) 
1

>  <r_epik_Ionization_Penalty>  (172) 
1.88958e-10

>  <r_epik_Ionization_Penalty_Charging>  (172) 
0

>  <r_epik_Ionization_Penalty_Neutral>  (172) 
1.88958e-10

>  <r_epik_State_Penalty>  (172) 
-0

>  <r_epik_Charging_Adjusted_Penalty>  (172) 
0

>  <i_epik_Tot_Q>  (172) 
0

>  <i_epik_Tot_abs_Q>  (172) 
0

>  <s_lp_Force_Field>  (172) 
OPLS3e

>  <r_lp_Energy>  (172) 
18.8412

>  <b_lp_Chiralities_Consistent>  (172) 
1

>  <s_lp_Variant>  (172) 
50:0-1

>  <s_i_glide_gridfile>  (172) 
pfpi4k_grid

>  <i_i_glide_lignum>  (172) 
33

>  <i_i_glide_rotatable_bonds>  (172) 
2

>  <r_i_docking_score>  (172) 
-3.27911

>  <r_i_glide_ligand_efficiency>  (172) 
-0.234222

>  <r_i_glide_ligand_efficiency_sa>  (172) 
-0.564509

>  <r_i_glide_ligand_efficiency_ln>  (172) 
-0.901088

>  <r_i_glide_gscore>  (172) 
-3.27911

>  <r_i_glide_lipo>  (172) 
-0.319626

>  <r_i_glide_hbond>  (172) 
0

>  <r_i_glide_metal>  (172) 
-0

>  <r_i_glide_rewards>  (172) 
-2.00271

>  <r_i_glide_evdw>  (172) 
-18.8726

>  <r_i_glide_ecoul>  (172) 
-2.4487

>  <r_i_glide_erotb>  (172) 
0.387821

>  <r_i_glide_esite>  (172) 
-0.0336591

>  <r_i_glide_emodel>  (172) 
-24.83

>  <r_i_glide_energy>  (172) 
-21.3213

>  <r_i_glide_einternal>  (172) 
1.56672

>  <r_i_glide_intrahb_reward>  (172) 
-0

>  <i_i_glide_confnum>  (172) 
3

>  <i_i_glide_posenum>  (172) 
19

>  <r_i_glide_eff_state_penalty>  (172) 
0

>  <ligand_id>  (172) 
50

>  <original_smiles>  (172) 
CSc1nnnn1-c1cccc(C)c1

>  <smiles>  (172) 
[H]c1c([H])c(-n2nnnc2SC([H])([H])[H])c([H])c(C([H])([H])[H])c1[H]

$$$$
51:0:0
     RDKit          3D

 60 64  0  0  1  0  0  0  0  0999 V2000
    0.2552   -8.3878    4.6528 C   0  0  0  0  0  0  0  0  0  0  0  0
    1.3828   -8.3087    3.5993 C   0  0  2  0  0  0  0  0  0  0  0  0
    1.9985   -9.7087    3.4223 C   0  0  0  0  0  0  0  0  0  0  0  0
    3.0543   -9.7131    2.3189 C   0  0  0  0  0  0  0  0  0  0  0  0
    4.2165   -8.7697    2.6667 C   0  0  1  0  0  0  0  0  0  0  0  0
    5.0192   -8.6445    1.4935 O   0  0  0  0  0  0  0  0  0  0  0  0
    6.3227   -7.9753    1.8237 O   0  0  0  0  0  0  0  0  0  0  0  0
    6.2213   -6.5493    1.6844 C   0  0  1  0  0  0  0  0  0  0  0  0
    7.6815   -6.0574    1.5456 C   0  0  0  0  0  0  0  0  0  0  0  0
    5.3737   -5.9696    0.4952 C   0  0  0  0  0  0  0  0  0  0  0  0
    4.2968   -4.9113    0.9258 C   0  0  1  0  0  0  0  0  0  0  0  0
    3.9889   -4.0661   -0.1803 O   0  0  0  0  0  0  0  0  0  0  0  0
    4.6162   -2.8759   -0.3784 C   0  0  0  0  0  0  0  0  0  0  0  0
    5.4593   -2.4001    0.3920 O   0  0  0  0  0  0  0  0  0  0  0  0
    4.1991   -2.2016   -1.6397 C   0  0  0  0  0  0  0  0  0  0  0  0
    3.3769   -2.8626   -2.5878 C   0  0  0  0  0  0  0  0  0  0  0  0
    2.9862   -2.2331   -3.7787 C   0  0  0  0  0  0  0  0  0  0  0  0
    3.4020   -0.9236   -4.0546 C   0  0  0  0  0  0  0  0  0  0  0  0
    4.2005   -0.2488   -3.1189 C   0  0  0  0  0  0  0  0  0  0  0  0
    4.6171   -0.8856   -1.9302 C   0  0  0  0  0  0  0  0  0  0  0  0
    2.9965   -5.5495    1.5210 C   0  0  2  0  0  0  0  0  0  0  0  0
    1.8586   -5.7120    0.5043 C   0  0  0  0  0  0  0  0  0  0  0  0
    2.4556   -4.8522    2.7926 C   0  0  0  0  0  0  0  0  0  0  0  0
    1.9021   -5.7926    3.8986 C   0  0  0  0  0  0  0  0  0  0  0  0
    2.4701   -7.2452    3.9375 C   0  0  2  0  0  0  0  0  0  0  0  0
    3.7370   -7.3434    3.0450 C   0  0  2  0  0  0  0  0  0  0  0  0
    3.3355   -6.8902    1.7599 O   0  0  0  0  0  0  0  0  0  0  0  0
    4.9101   -6.5467    3.7406 C   0  0  1  0  0  0  0  0  0  0  0  0
    5.5843   -7.3328    4.6994 O   0  0  0  0  0  0  0  0  0  0  0  0
    5.7980   -5.9178    2.8802 O   0  0  0  0  0  0  0  0  0  0  0  0
    0.6419   -8.6571    5.6367 H   0  0  0  0  0  0  0  0  0  0  0  0
   -0.4759   -9.1504    4.3791 H   0  0  0  0  0  0  0  0  0  0  0  0
   -0.2952   -7.4530    4.7582 H   0  0  0  0  0  0  0  0  0  0  0  0
    0.9247   -8.0358    2.6479 H   0  0  0  0  0  0  0  0  0  0  0  0
    2.4330  -10.0531    4.3650 H   0  0  0  0  0  0  0  0  0  0  0  0
    1.2142  -10.4228    3.1667 H   0  0  0  0  0  0  0  0  0  0  0  0
    3.4284  -10.7239    2.1632 H   0  0  0  0  0  0  0  0  0  0  0  0
    2.6082   -9.4143    1.3765 H   0  0  0  0  0  0  0  0  0  0  0  0
    4.7854   -9.2609    3.4542 H   0  0  0  0  0  0  0  0  0  0  0  0
    8.2926   -6.4011    2.3784 H   0  0  0  0  0  0  0  0  0  0  0  0
    7.7219   -4.9680    1.5409 H   0  0  0  0  0  0  0  0  0  0  0  0
    8.1473   -6.4063    0.6244 H   0  0  0  0  0  0  0  0  0  0  0  0
    6.0558   -5.4789   -0.1925 H   0  0  0  0  0  0  0  0  0  0  0  0
    4.9235   -6.7539   -0.1177 H   0  0  0  0  0  0  0  0  0  0  0  0
    4.7277   -4.2789    1.6994 H   0  0  0  0  0  0  0  0  0  0  0  0
    3.0188   -3.8590   -2.4012 H   0  0  0  0  0  0  0  0  0  0  0  0
    2.3439   -2.7690   -4.4620 H   0  0  0  0  0  0  0  0  0  0  0  0
    3.0758   -0.4277   -4.9566 H   0  0  0  0  0  0  0  0  0  0  0  0
    4.4945    0.7743   -3.3058 H   0  0  0  0  0  0  0  0  0  0  0  0
    5.2259   -0.3406   -1.2201 H   0  0  0  0  0  0  0  0  0  0  0  0
    1.4839   -4.7600    0.1425 H   0  0  0  0  0  0  0  0  0  0  0  0
    1.0283   -6.2870    0.9216 H   0  0  0  0  0  0  0  0  0  0  0  0
    2.2033   -6.2442   -0.3803 H   0  0  0  0  0  0  0  0  0  0  0  0
    3.2453   -4.2477    3.2318 H   0  0  0  0  0  0  0  0  0  0  0  0
    1.6870   -4.1259    2.5179 H   0  0  0  0  0  0  0  0  0  0  0  0
    2.1115   -5.3182    4.8619 H   0  0  0  0  0  0  0  0  0  0  0  0
    0.8198   -5.8060    3.8192 H   0  0  0  0  0  0  0  0  0  0  0  0
    2.7850   -7.4580    4.9553 H   0  0  0  0  0  0  0  0  0  0  0  0
    4.5179   -5.7117    4.3071 H   0  0  0  0  0  0  0  0  0  0  0  0
    5.9507   -8.0829    4.2600 H   0  0  0  0  0  0  0  0  0  0  0  0
  1  2  1  0
  1 31  1  0
  1 32  1  0
  1 33  1  0
  2 25  1  0
  2  3  1  0
  2 34  1  6
  3  4  1  0
  3 35  1  0
  3 36  1  0
  4  5  1  0
  4 37  1  0
  4 38  1  0
  5 26  1  0
  5  6  1  0
  5 39  1  1
  6  7  1  0
  7  8  1  0
  8 30  1  0
  8  9  1  6
  8 10  1  0
  9 40  1  0
  9 41  1  0
  9 42  1  0
 10 11  1  0
 10 43  1  0
 10 44  1  0
 11 12  1  0
 11 21  1  0
 11 45  1  1
 12 13  1  0
 13 14  2  0
 13 15  1  0
 15 20  1  0
 15 16  2  0
 16 17  1  0
 16 46  1  0
 17 18  2  0
 17 47  1  0
 18 19  1  0
 18 48  1  0
 19 20  2  0
 19 49  1  0
 20 50  1  0
 21 27  1  0
 21 22  1  6
 21 23  1  0
 22 51  1  0
 22 52  1  0
 22 53  1  0
 23 24  1  0
 23 54  1  0
 23 55  1  0
 24 25  1  0
 24 56  1  0
 24 57  1  0
 25 26  1  0
 25 58  1  1
 26 27  1  6
 26 28  1  0
 28 29  1  0
 28 30  1  0
 28 59  1  1
 29 60  1  0
M  END
>  <i_m_ct_stereo_status>  (173) 
1

>  <s_m_source_file>  (173) 
/var/tmp/pbs.5076255.sched01/tmppm3sokcv/34yi_btuhz.sdf

>  <i_m_source_file_index>  (173) 
34

>  <i_lp_mmshare_version>  (173) 
48012

>  <i_f3d_flags>  (173) 
0

>  <s_epik_input>  (173) 
W0NAQF0xMjNbQ0BIXTRbQ0gyXVtDSDJdW0NAQEhdKFtDSDNdKVtDQEBIXTFbQ0gyXVtDSDJdW0NAQF0oTzIpKFtDSDNdKVtDQEBIXShbQ0gyXVtDQEBdKE9PNCkoW0NIM10pT1tDQEBIXTNbT0hdKU9DKD1PKWM1W2NIXVtjSF1bY0hdW2NIXVtjSF01

>  <s_epik_cmdline>  (173) 
J2VwaWtfcHl0aG9uJywgJy1waHQnLCAnMi4wJywgJy1waCcsICc3LjAnLCAnLXRuJywgJzgnLCAnLW1hJywgJzIwMCcsICctaW1hZScsICc8aW5maWxlLm1hZT4nLCAnLW9tYWUnLCAnPG91dGZpbGUubWFlPic=

>  <r_lp_tautomer_probability>  (173) 
1

>  <r_epik_Ionization_Penalty>  (173) 
5.63726e-06

>  <r_epik_Ionization_Penalty_Charging>  (173) 
0

>  <r_epik_Ionization_Penalty_Neutral>  (173) 
5.63726e-06

>  <r_epik_State_Penalty>  (173) 
-0

>  <r_epik_Charging_Adjusted_Penalty>  (173) 
0

>  <i_epik_Tot_Q>  (173) 
0

>  <i_epik_Tot_abs_Q>  (173) 
0

>  <s_epik_Chemistry_Notes>  (173) 
This compound has an ester and may undergo hydrolysis at high or low pH. This compound contains an acetal/aminal-like group ( X-CH(R)-Y where X, Y are N, S, or O) that may be acid/base labile, releasing an aldehyde.

>  <s_lp_Force_Field>  (173) 
OPLS3e

>  <r_lp_Energy>  (173) 
49.9406

>  <b_lp_Chiralities_Consistent>  (173) 
1

>  <s_lp_Variant>  (173) 
51:0-1

>  <s_i_glide_gridfile>  (173) 
pfpi4k_grid

>  <i_i_glide_lignum>  (173) 
34

>  <i_i_glide_rotatable_bonds>  (173) 
4

>  <r_i_docking_score>  (173) 
-2.92919

>  <r_i_glide_ligand_efficiency>  (173) 
-0.0976396

>  <r_i_glide_ligand_efficiency_sa>  (173) 
-0.303389

>  <r_i_glide_ligand_efficiency_ln>  (173) 
-0.665543

>  <r_i_glide_gscore>  (173) 
-2.92919

>  <r_i_glide_lipo>  (173) 
-0.672859

>  <r_i_glide_hbond>  (173) 
0

>  <r_i_glide_metal>  (173) 
-0

>  <r_i_glide_rewards>  (173) 
-0.664328

>  <r_i_glide_evdw>  (173) 
-32.7643

>  <r_i_glide_ecoul>  (173) 
-1.95025

>  <r_i_glide_erotb>  (173) 
0.338751

>  <r_i_glide_esite>  (173) 
0

>  <r_i_glide_emodel>  (173) 
-40.5495

>  <r_i_glide_energy>  (173) 
-34.7145

>  <r_i_glide_einternal>  (173) 
0.719241

>  <r_i_glide_intrahb_reward>  (173) 
-0

>  <i_i_glide_confnum>  (173) 
3

>  <i_i_glide_posenum>  (173) 
35

>  <r_i_glide_eff_state_penalty>  (173) 
0

>  <ligand_id>  (173) 
51

>  <original_smiles>  (173) 
CC1CCC2OOC3(C)CC(OC(=O)c4ccccc4)C4(C)CCC1C2(O4)C(O)O3

>  <smiles>  (173) 
[H]OC1([H])OC2(C([H])([H])[H])OOC3([H])C([H])([H])C([H])([H])C([H])(C([H])([H])[H])C4([H])C([H])([H])C([H])([H])C(C([H])([H])[H])(OC134)C([H])(OC(=O)c1c([H])c([H])c([H])c([H])c1[H])C2([H])[H]

$$$$
51:0:1
     RDKit          3D

 60 64  0  0  1  0  0  0  0  0999 V2000
    2.0851  -11.2814    3.2946 C   0  0  0  0  0  0  0  0  0  0  0  0
    2.4863  -10.1822    4.3011 C   0  0  2  0  0  0  0  0  0  0  0  0
    3.6737  -10.6856    5.1401 C   0  0  0  0  0  0  0  0  0  0  0  0
    4.1803   -9.6000    6.0878 C   0  0  0  0  0  0  0  0  0  0  0  0
    3.0897   -9.1886    7.0903 C   0  0  1  0  0  0  0  0  0  0  0  0
    3.5603   -8.0136    7.7589 O   0  0  0  0  0  0  0  0  0  0  0  0
    2.6809   -7.7017    8.9413 O   0  0  0  0  0  0  0  0  0  0  0  0
    1.5914   -6.8390    8.5642 C   0  0  1  0  0  0  0  0  0  0  0  0
    1.1061   -6.2232    9.8982 C   0  0  0  0  0  0  0  0  0  0  0  0
    1.8663   -5.6787    7.5362 C   0  0  0  0  0  0  0  0  0  0  0  0
    0.8718   -5.6532    6.3196 C   0  0  1  0  0  0  0  0  0  0  0  0
    0.8124   -4.3457    5.7502 O   0  0  0  0  0  0  0  0  0  0  0  0
   -0.1872   -3.4789    6.0668 C   0  0  0  0  0  0  0  0  0  0  0  0
   -1.0577   -3.7014    6.9060 O   0  0  0  0  0  0  0  0  0  0  0  0
   -0.1490   -2.2238    5.2565 C   0  0  0  0  0  0  0  0  0  0  0  0
   -1.2440   -1.3268    5.2960 C   0  0  0  0  0  0  0  0  0  0  0  0
   -1.2419   -0.1487    4.5234 C   0  0  0  0  0  0  0  0  0  0  0  0
   -0.1344    0.1489    3.7000 C   0  0  0  0  0  0  0  0  0  0  0  0
    0.9592   -0.7350    3.6549 C   0  0  0  0  0  0  0  0  0  0  0  0
    0.9547   -1.9139    4.4257 C   0  0  0  0  0  0  0  0  0  0  0  0
    1.2043   -6.7042    5.2097 C   0  0  2  0  0  0  0  0  0  0  0  0
    2.0234   -6.1297    4.0386 C   0  0  0  0  0  0  0  0  0  0  0  0
   -0.0201   -7.4734    4.6556 C   0  0  0  0  0  0  0  0  0  0  0  0
    0.2026   -8.9813    4.3718 C   0  0  0  0  0  0  0  0  0  0  0  0
    1.3065   -9.7111    5.2014 C   0  0  2  0  0  0  0  0  0  0  0  0
    1.7531   -8.8116    6.3897 C   0  0  2  0  0  0  0  0  0  0  0  0
    2.1374   -7.5718    5.8055 O   0  0  0  0  0  0  0  0  0  0  0  0
    0.5858   -8.7633    7.4476 C   0  0  1  0  0  0  0  0  0  0  0  0
    0.6509   -9.8420    8.3545 O   0  0  0  0  0  0  0  0  0  0  0  0
    0.4485   -7.5531    8.1202 O   0  0  0  0  0  0  0  0  0  0  0  0
    1.7181  -12.1747    3.8016 H   0  0  0  0  0  0  0  0  0  0  0  0
    2.9405  -11.5840    2.6882 H   0  0  0  0  0  0  0  0  0  0  0  0
    1.3123  -10.9574    2.5983 H   0  0  0  0  0  0  0  0  0  0  0  0
    2.8338   -9.3245    3.7248 H   0  0  0  0  0  0  0  0  0  0  0  0
    3.3867  -11.5761    5.7062 H   0  0  0  0  0  0  0  0  0  0  0  0
    4.4851  -10.9883    4.4767 H   0  0  0  0  0  0  0  0  0  0  0  0
    5.0635   -9.9525    6.6184 H   0  0  0  0  0  0  0  0  0  0  0  0
    4.5007   -8.7348    5.5163 H   0  0  0  0  0  0  0  0  0  0  0  0
    2.9885  -10.0168    7.7944 H   0  0  0  0  0  0  0  0  0  0  0  0
    0.8665   -6.9970   10.6267 H   0  0  0  0  0  0  0  0  0  0  0  0
    0.2060   -5.6265    9.7496 H   0  0  0  0  0  0  0  0  0  0  0  0
    1.8552   -5.5701   10.3462 H   0  0  0  0  0  0  0  0  0  0  0  0
    1.7688   -4.7327    8.0642 H   0  0  0  0  0  0  0  0  0  0  0  0
    2.9023   -5.6797    7.1935 H   0  0  0  0  0  0  0  0  0  0  0  0
   -0.1216   -5.8845    6.6978 H   0  0  0  0  0  0  0  0  0  0  0  0
   -2.1090   -1.5468    5.9060 H   0  0  0  0  0  0  0  0  0  0  0  0
   -2.0855    0.5252    4.5453 H   0  0  0  0  0  0  0  0  0  0  0  0
   -0.1299    1.0517    3.1022 H   0  0  0  0  0  0  0  0  0  0  0  0
    1.8081   -0.5096    3.0208 H   0  0  0  0  0  0  0  0  0  0  0  0
    1.8065   -2.5753    4.3689 H   0  0  0  0  0  0  0  0  0  0  0  0
    1.4476   -5.4217    3.4413 H   0  0  0  0  0  0  0  0  0  0  0  0
    2.3434   -6.9293    3.3681 H   0  0  0  0  0  0  0  0  0  0  0  0
    2.9266   -5.6255    4.3864 H   0  0  0  0  0  0  0  0  0  0  0  0
   -0.8525   -7.3853    5.3484 H   0  0  0  0  0  0  0  0  0  0  0  0
   -0.3876   -6.9929    3.7482 H   0  0  0  0  0  0  0  0  0  0  0  0
   -0.7554   -9.4567    4.5757 H   0  0  0  0  0  0  0  0  0  0  0  0
    0.3568   -9.1218    3.3058 H   0  0  0  0  0  0  0  0  0  0  0  0
    0.8772  -10.6170    5.6235 H   0  0  0  0  0  0  0  0  0  0  0  0
   -0.3712   -8.8737    6.9566 H   0  0  0  0  0  0  0  0  0  0  0  0
    0.9811  -10.6175    7.9039 H   0  0  0  0  0  0  0  0  0  0  0  0
  1  2  1  0
  1 31  1  0
  1 32  1  0
  1 33  1  0
  2 25  1  0
  2  3  1  0
  2 34  1  6
  3  4  1  0
  3 35  1  0
  3 36  1  0
  4  5  1  0
  4 37  1  0
  4 38  1  0
  5 26  1  0
  5  6  1  0
  5 39  1  1
  6  7  1  0
  7  8  1  0
  8 30  1  0
  8  9  1  1
  8 10  1  0
  9 40  1  0
  9 41  1  0
  9 42  1  0
 10 11  1  0
 10 43  1  0
 10 44  1  0
 11 12  1  0
 11 21  1  0
 11 45  1  1
 12 13  1  0
 13 14  2  0
 13 15  1  0
 15 20  1  0
 15 16  2  0
 16 17  1  0
 16 46  1  0
 17 18  2  0
 17 47  1  0
 18 19  1  0
 18 48  1  0
 19 20  2  0
 19 49  1  0
 20 50  1  0
 21 27  1  0
 21 22  1  6
 21 23  1  0
 22 51  1  0
 22 52  1  0
 22 53  1  0
 23 24  1  0
 23 54  1  0
 23 55  1  0
 24 25  1  0
 24 56  1  0
 24 57  1  0
 25 26  1  0
 25 58  1  1
 26 27  1  6
 26 28  1  0
 28 29  1  0
 28 30  1  0
 28 59  1  6
 29 60  1  0
M  END
>  <i_m_ct_stereo_status>  (174) 
1

>  <s_m_source_file>  (174) 
/var/tmp/pbs.5076255.sched01/tmppm3sokcv/34yi_btuhz.sdf

>  <i_m_source_file_index>  (174) 
34

>  <i_lp_mmshare_version>  (174) 
48012

>  <i_f3d_flags>  (174) 
0

>  <s_epik_input>  (174) 
W0NAQF0xMjNbQ0BIXTRbQ0gyXVtDSDJdW0NAQEhdKFtDSDNdKVtDQEBIXTFbQ0gyXVtDSDJdW0NAQF0oTzIpKFtDSDNdKVtDQEBIXShbQ0gyXVtDQEBdKE9PNCkoW0NIM10pT1tDQEBIXTNbT0hdKU9DKD1PKWM1W2NIXVtjSF1bY0hdW2NIXVtjSF01

>  <s_epik_cmdline>  (174) 
J2VwaWtfcHl0aG9uJywgJy1waHQnLCAnMi4wJywgJy1waCcsICc3LjAnLCAnLXRuJywgJzgnLCAnLW1hJywgJzIwMCcsICctaW1hZScsICc8aW5maWxlLm1hZT4nLCAnLW9tYWUnLCAnPG91dGZpbGUubWFlPic=

>  <r_lp_tautomer_probability>  (174) 
1

>  <r_epik_Ionization_Penalty>  (174) 
5.63726e-06

>  <r_epik_Ionization_Penalty_Charging>  (174) 
0

>  <r_epik_Ionization_Penalty_Neutral>  (174) 
5.63726e-06

>  <r_epik_State_Penalty>  (174) 
-0

>  <r_epik_Charging_Adjusted_Penalty>  (174) 
0

>  <i_epik_Tot_Q>  (174) 
0

>  <i_epik_Tot_abs_Q>  (174) 
0

>  <s_epik_Chemistry_Notes>  (174) 
This compound has an ester and may undergo hydrolysis at high or low pH. This compound contains an acetal/aminal-like group ( X-CH(R)-Y where X, Y are N, S, or O) that may be acid/base labile, releasing an aldehyde.

>  <s_lp_Force_Field>  (174) 
OPLS3e

>  <r_lp_Energy>  (174) 
49.9406

>  <b_lp_Chiralities_Consistent>  (174) 
1

>  <s_lp_Variant>  (174) 
51:0-1

>  <s_i_glide_gridfile>  (174) 
pfpi4k_grid

>  <i_i_glide_lignum>  (174) 
34

>  <i_i_glide_rotatable_bonds>  (174) 
4

>  <r_i_docking_score>  (174) 
-2.5482

>  <r_i_glide_ligand_efficiency>  (174) 
-0.0849401

>  <r_i_glide_ligand_efficiency_sa>  (174) 
-0.263929

>  <r_i_glide_ligand_efficiency_ln>  (174) 
-0.57898

>  <r_i_glide_gscore>  (174) 
-2.5482

>  <r_i_glide_lipo>  (174) 
-0.116695

>  <r_i_glide_hbond>  (174) 
0

>  <r_i_glide_metal>  (174) 
-0

>  <r_i_glide_rewards>  (174) 
-0.555817

>  <r_i_glide_evdw>  (174) 
-23.8415

>  <r_i_glide_ecoul>  (174) 
-6.34772

>  <r_i_glide_erotb>  (174) 
0.338751

>  <r_i_glide_esite>  (174) 
-0.0702101

>  <r_i_glide_emodel>  (174) 
-33.904

>  <r_i_glide_energy>  (174) 
-30.1892

>  <r_i_glide_einternal>  (174) 
3.28841

>  <r_i_glide_intrahb_reward>  (174) 
-0

>  <i_i_glide_confnum>  (174) 
4

>  <i_i_glide_posenum>  (174) 
1

>  <r_i_glide_eff_state_penalty>  (174) 
0

>  <ligand_id>  (174) 
51

>  <original_smiles>  (174) 
CC1CCC2OOC3(C)CC(OC(=O)c4ccccc4)C4(C)CCC1C2(O4)C(O)O3

>  <smiles>  (174) 
[H]OC1([H])OC2(C([H])([H])[H])OOC3([H])C([H])([H])C([H])([H])C([H])(C([H])([H])[H])C4([H])C([H])([H])C([H])([H])C(C([H])([H])[H])(OC134)C([H])(OC(=O)c1c([H])c([H])c([H])c([H])c1[H])C2([H])[H]

$$$$
51:0:2
     RDKit          3D

 60 64  0  0  1  0  0  0  0  0999 V2000
    7.4143   -5.5765    1.1113 C   0  0  0  0  0  0  0  0  0  0  0  0
    6.7167   -6.5805    2.0522 C   0  0  2  0  0  0  0  0  0  0  0  0
    7.5694   -7.8577    2.1226 C   0  0  0  0  0  0  0  0  0  0  0  0
    6.9725   -8.8628    3.1114 C   0  0  0  0  0  0  0  0  0  0  0  0
    5.5658   -9.3103    2.6932 C   0  0  1  0  0  0  0  0  0  0  0  0
    5.0338  -10.0285    3.8202 O   0  0  0  0  0  0  0  0  0  0  0  0
    3.7390  -10.7535    3.3660 O   0  0  0  0  0  0  0  0  0  0  0  0
    2.6113   -9.8783    3.5776 C   0  0  1  0  0  0  0  0  0  0  0  0
    1.4050  -10.8521    3.5985 C   0  0  0  0  0  0  0  0  0  0  0  0
    2.5382   -8.9706    4.8626 C   0  0  0  0  0  0  0  0  0  0  0  0
    2.2356   -7.4611    4.5600 C   0  0  1  0  0  0  0  0  0  0  0  0
    1.6780   -6.8585    5.7274 O   0  0  0  0  0  0  0  0  0  0  0  0
    0.5043   -6.1779    5.7022 C   0  0  0  0  0  0  0  0  0  0  0  0
   -0.1880   -5.9943    4.6923 O   0  0  0  0  0  0  0  0  0  0  0  0
    0.1291   -5.6532    7.0492 C   0  0  0  0  0  0  0  0  0  0  0  0
    1.0100   -5.7873    8.1615 C   0  0  0  0  0  0  0  0  0  0  0  0
    0.6562   -5.2836    9.4303 C   0  0  0  0  0  0  0  0  0  0  0  0
   -0.5791   -4.6381    9.6236 C   0  0  0  0  0  0  0  0  0  0  0  0
   -1.4656   -4.5009    8.5336 C   0  0  0  0  0  0  0  0  0  0  0  0
   -1.1090   -5.0026    7.2629 C   0  0  0  0  0  0  0  0  0  0  0  0
    3.4854   -6.6534    4.0696 C   0  0  2  0  0  0  0  0  0  0  0  0
    4.2026   -5.8870    5.2008 C   0  0  0  0  0  0  0  0  0  0  0  0
    3.2163   -5.7078    2.8746 C   0  0  0  0  0  0  0  0  0  0  0  0
    4.3224   -5.6455    1.7869 C   0  0  0  0  0  0  0  0  0  0  0  0
    5.2502   -6.8967    1.6579 C   0  0  2  0  0  0  0  0  0  0  0  0
    4.6357   -8.0929    2.4406 C   0  0  2  0  0  0  0  0  0  0  0  0
    4.4348   -7.6409    3.7619 O   0  0  0  0  0  0  0  0  0  0  0  0
    3.3560   -8.5772    1.6648 C   0  0  1  0  0  0  0  0  0  0  0  0
    3.6882   -9.4554    0.5944 O   0  0  0  0  0  0  0  0  0  0  0  0
    2.3205   -9.0836    2.4519 O   0  0  0  0  0  0  0  0  0  0  0  0
    7.4557   -5.9502    0.0888 H   0  0  0  0  0  0  0  0  0  0  0  0
    8.4426   -5.3986    1.4307 H   0  0  0  0  0  0  0  0  0  0  0  0
    6.9225   -4.6058    1.0919 H   0  0  0  0  0  0  0  0  0  0  0  0
    6.7122   -6.1416    3.0494 H   0  0  0  0  0  0  0  0  0  0  0  0
    7.6436   -8.3203    1.1361 H   0  0  0  0  0  0  0  0  0  0  0  0
    8.5867   -7.6136    2.4270 H   0  0  0  0  0  0  0  0  0  0  0  0
    7.6356   -9.7289    3.2127 H   0  0  0  0  0  0  0  0  0  0  0  0
    6.9476   -8.4184    4.1112 H   0  0  0  0  0  0  0  0  0  0  0  0
    5.6979   -9.9578    1.8251 H   0  0  0  0  0  0  0  0  0  0  0  0
    1.3786  -11.4792    2.7036 H   0  0  0  0  0  0  0  0  0  0  0  0
    0.4501  -10.3210    3.6315 H   0  0  0  0  0  0  0  0  0  0  0  0
    1.4233  -11.5328    4.4552 H   0  0  0  0  0  0  0  0  0  0  0  0
    1.7358   -9.3489    5.4952 H   0  0  0  0  0  0  0  0  0  0  0  0
    3.4284   -9.0861    5.4760 H   0  0  0  0  0  0  0  0  0  0  0  0
    1.4805   -7.4437    3.7772 H   0  0  0  0  0  0  0  0  0  0  0  0
    1.9698   -6.2708    8.0531 H   0  0  0  0  0  0  0  0  0  0  0  0
    1.3487   -5.3982   10.2568 H   0  0  0  0  0  0  0  0  0  0  0  0
   -0.8507   -4.2640   10.6056 H   0  0  0  0  0  0  0  0  0  0  0  0
   -2.4342   -4.0375    8.6867 H   0  0  0  0  0  0  0  0  0  0  0  0
   -1.8292   -4.8986    6.4584 H   0  0  0  0  0  0  0  0  0  0  0  0
    3.6033   -5.0610    5.5864 H   0  0  0  0  0  0  0  0  0  0  0  0
    5.1373   -5.4593    4.8341 H   0  0  0  0  0  0  0  0  0  0  0  0
    4.4599   -6.5405    6.0369 H   0  0  0  0  0  0  0  0  0  0  0  0
    2.2884   -6.0058    2.3912 H   0  0  0  0  0  0  0  0  0  0  0  0
    3.0061   -4.7023    3.2455 H   0  0  0  0  0  0  0  0  0  0  0  0
    3.8292   -5.4743    0.8287 H   0  0  0  0  0  0  0  0  0  0  0  0
    4.9120   -4.7475    1.9686 H   0  0  0  0  0  0  0  0  0  0  0  0
    5.2775   -7.1721    0.6052 H   0  0  0  0  0  0  0  0  0  0  0  0
    2.8695   -7.7449    1.1733 H   0  0  0  0  0  0  0  0  0  0  0  0
    3.8163  -10.3452    0.9011 H   0  0  0  0  0  0  0  0  0  0  0  0
  1  2  1  0
  1 31  1  0
  1 32  1  0
  1 33  1  0
  2 25  1  0
  2  3  1  0
  2 34  1  1
  3  4  1  0
  3 35  1  0
  3 36  1  0
  4  5  1  0
  4 37  1  0
  4 38  1  0
  5 26  1  0
  5  6  1  0
  5 39  1  6
  6  7  1  0
  7  8  1  0
  8 30  1  0
  8  9  1  1
  8 10  1  0
  9 40  1  0
  9 41  1  0
  9 42  1  0
 10 11  1  0
 10 43  1  0
 10 44  1  0
 11 12  1  0
 11 21  1  0
 11 45  1  6
 12 13  1  0
 13 14  2  0
 13 15  1  0
 15 20  1  0
 15 16  2  0
 16 17  1  0
 16 46  1  0
 17 18  2  0
 17 47  1  0
 18 19  1  0
 18 48  1  0
 19 20  2  0
 19 49  1  0
 20 50  1  0
 21 27  1  0
 21 22  1  1
 21 23  1  0
 22 51  1  0
 22 52  1  0
 22 53  1  0
 23 24  1  0
 23 54  1  0
 23 55  1  0
 24 25  1  0
 24 56  1  0
 24 57  1  0
 25 26  1  0
 25 58  1  6
 26 27  1  1
 26 28  1  0
 28 29  1  0
 28 30  1  0
 28 59  1  6
 29 60  1  0
M  END
>  <i_m_ct_stereo_status>  (175) 
1

>  <s_m_source_file>  (175) 
/var/tmp/pbs.5076255.sched01/tmppm3sokcv/34yi_btuhz.sdf

>  <i_m_source_file_index>  (175) 
34

>  <i_lp_mmshare_version>  (175) 
48012

>  <i_f3d_flags>  (175) 
0

>  <s_epik_input>  (175) 
W0NAQF0xMjNbQ0BIXTRbQ0gyXVtDSDJdW0NAQEhdKFtDSDNdKVtDQEBIXTFbQ0gyXVtDSDJdW0NAQF0oTzIpKFtDSDNdKVtDQEBIXShbQ0gyXVtDQEBdKE9PNCkoW0NIM10pT1tDQEBIXTNbT0hdKU9DKD1PKWM1W2NIXVtjSF1bY0hdW2NIXVtjSF01

>  <s_epik_cmdline>  (175) 
J2VwaWtfcHl0aG9uJywgJy1waHQnLCAnMi4wJywgJy1waCcsICc3LjAnLCAnLXRuJywgJzgnLCAnLW1hJywgJzIwMCcsICctaW1hZScsICc8aW5maWxlLm1hZT4nLCAnLW9tYWUnLCAnPG91dGZpbGUubWFlPic=

>  <r_lp_tautomer_probability>  (175) 
1

>  <r_epik_Ionization_Penalty>  (175) 
5.63726e-06

>  <r_epik_Ionization_Penalty_Charging>  (175) 
0

>  <r_epik_Ionization_Penalty_Neutral>  (175) 
5.63726e-06

>  <r_epik_State_Penalty>  (175) 
-0

>  <r_epik_Charging_Adjusted_Penalty>  (175) 
0

>  <i_epik_Tot_Q>  (175) 
0

>  <i_epik_Tot_abs_Q>  (175) 
0

>  <s_epik_Chemistry_Notes>  (175) 
This compound has an ester and may undergo hydrolysis at high or low pH. This compound contains an acetal/aminal-like group ( X-CH(R)-Y where X, Y are N, S, or O) that may be acid/base labile, releasing an aldehyde.

>  <s_lp_Force_Field>  (175) 
OPLS3e

>  <r_lp_Energy>  (175) 
49.9406

>  <b_lp_Chiralities_Consistent>  (175) 
1

>  <s_lp_Variant>  (175) 
51:0-1

>  <s_i_glide_gridfile>  (175) 
pfpi4k_grid

>  <i_i_glide_lignum>  (175) 
34

>  <i_i_glide_rotatable_bonds>  (175) 
4

>  <r_i_docking_score>  (175) 
-2.47474

>  <r_i_glide_ligand_efficiency>  (175) 
-0.0824914

>  <r_i_glide_ligand_efficiency_sa>  (175) 
-0.25632

>  <r_i_glide_ligand_efficiency_ln>  (175) 
-0.562289

>  <r_i_glide_gscore>  (175) 
-2.47474

>  <r_i_glide_lipo>  (175) 
-0.45724

>  <r_i_glide_hbond>  (175) 
0

>  <r_i_glide_metal>  (175) 
-0

>  <r_i_glide_rewards>  (175) 
-0.555817

>  <r_i_glide_evdw>  (175) 
-24.7951

>  <r_i_glide_ecoul>  (175) 
-3.49563

>  <r_i_glide_erotb>  (175) 
0.338751

>  <r_i_glide_esite>  (175) 
-0.036336

>  <r_i_glide_emodel>  (175) 
-32.8217

>  <r_i_glide_energy>  (175) 
-28.2908

>  <r_i_glide_einternal>  (175) 
1.07896

>  <r_i_glide_intrahb_reward>  (175) 
-0

>  <i_i_glide_confnum>  (175) 
6

>  <i_i_glide_posenum>  (175) 
6

>  <r_i_glide_eff_state_penalty>  (175) 
0

>  <ligand_id>  (175) 
51

>  <original_smiles>  (175) 
CC1CCC2OOC3(C)CC(OC(=O)c4ccccc4)C4(C)CCC1C2(O4)C(O)O3

>  <smiles>  (175) 
[H]OC1([H])OC2(C([H])([H])[H])OOC3([H])C([H])([H])C([H])([H])C([H])(C([H])([H])[H])C4([H])C([H])([H])C([H])([H])C(C([H])([H])[H])(OC134)C([H])(OC(=O)c1c([H])c([H])c([H])c([H])c1[H])C2([H])[H]

$$$$
52:0:0
     RDKit          3D

 74 79  0  0  1  0  0  0  0  0999 V2000
    3.4327   -0.2671   -3.3504 C   0  0  0  0  0  0  0  0  0  0  0  0
    3.7764   -1.6017   -4.0315 C   0  0  0  0  0  0  0  0  0  0  0  0
    4.1378   -2.7261   -3.0474 C   0  0  2  0  0  0  0  0  0  0  0  0
    4.5938   -3.8294   -3.8051 O   0  0  0  0  0  0  0  0  0  0  0  0
    2.9406   -3.1901   -2.1890 C   0  0  0  0  0  0  0  0  0  0  0  0
    3.3643   -3.8416   -0.8881 C   0  0  2  0  0  0  0  0  0  0  0  0
    2.3267   -4.5257   -0.1723 O   0  0  0  0  0  0  0  0  0  0  0  0
    2.8377   -3.3385    0.4478 C   0  0  1  0  0  0  0  0  0  0  0  0
    3.6127   -3.5368    1.7448 C   0  0  2  0  0  0  0  0  0  0  0  0
    2.8438   -4.4734    2.7377 C   0  0  0  0  0  0  0  0  0  0  0  0
    1.5576   -3.8137    3.2990 C   0  0  1  0  0  0  0  0  0  0  0  0
    1.0403   -4.2681    4.6692 C   0  0  0  0  0  0  0  0  0  0  0  0
    0.7469   -5.4350    4.9032 O   0  0  0  0  0  0  0  0  0  0  0  0
    0.9494   -3.1264    5.5931 C   0  0  0  0  0  0  0  0  0  0  0  0
    1.3572   -2.0457    4.9142 C   0  0  0  0  0  0  0  0  0  0  0  0
    1.7881   -2.3252    3.5323 C   0  0  1  0  0  0  0  0  0  0  0  0
    3.2411   -1.8989    3.6645 C   0  0  1  0  0  0  0  0  0  0  0  0
    4.0058   -2.1497    2.3562 C   0  0  0  0  0  0  0  0  0  0  0  0
    3.1933   -0.5376    4.4329 C   0  0  1  0  0  0  0  0  0  0  0  0
    4.4726   -0.4149    5.2925 C   0  0  0  0  0  0  0  0  0  0  0  0
    3.1529    0.7223    3.5225 C   0  0  0  0  0  0  0  0  0  0  0  0
    2.0098    0.8869    2.4968 C   0  0  0  0  0  0  0  0  0  0  0  0
    0.6377    1.4495    2.9719 C   0  0  2  0  0  0  0  0  0  0  0  0
   -0.2665    1.3310    1.7181 C   0  0  0  0  0  0  0  0  0  0  0  0
    0.7984    2.9488    3.3588 C   0  0  0  0  0  0  0  0  0  0  0  0
   -0.4641    3.6372    3.9211 C   0  0  1  0  0  0  0  0  0  0  0  0
   -1.3810    3.9700    2.8990 O   0  0  0  0  0  0  0  0  0  0  0  0
   -1.1386    2.7994    5.0210 C   0  0  0  0  0  0  0  0  0  0  0  0
   -1.3303    1.3288    4.6099 C   0  0  0  0  0  0  0  0  0  0  0  0
   -0.0092    0.6507    4.1547 C   0  0  2  0  0  0  0  0  0  0  0  0
    0.9019    0.4300    5.3972 C   0  0  0  0  0  0  0  0  0  0  0  0
    1.9360   -0.7197    5.3647 C   0  0  1  0  0  0  0  0  0  0  0  0
    3.1711    0.4914   -4.0894 H   0  0  0  0  0  0  0  0  0  0  0  0
    4.2712    0.1055   -2.7604 H   0  0  0  0  0  0  0  0  0  0  0  0
    2.5759   -0.3510   -2.6835 H   0  0  0  0  0  0  0  0  0  0  0  0
    2.9438   -1.9268   -4.6524 H   0  0  0  0  0  0  0  0  0  0  0  0
    4.6118   -1.4279   -4.7081 H   0  0  0  0  0  0  0  0  0  0  0  0
    4.9582   -2.3947   -2.4113 H   0  0  0  0  0  0  0  0  0  0  0  0
    4.4321   -4.6199   -3.3039 H   0  0  0  0  0  0  0  0  0  0  0  0
    2.3082   -2.3471   -1.9203 H   0  0  0  0  0  0  0  0  0  0  0  0
    2.2914   -3.8634   -2.7482 H   0  0  0  0  0  0  0  0  0  0  0  0
    4.3027   -4.3934   -0.9134 H   0  0  0  0  0  0  0  0  0  0  0  0
    2.1216   -2.5161    0.4529 H   0  0  0  0  0  0  0  0  0  0  0  0
    4.5356   -4.0574    1.4763 H   0  0  0  0  0  0  0  0  0  0  0  0
    2.5924   -5.4063    2.2349 H   0  0  0  0  0  0  0  0  0  0  0  0
    3.5080   -4.7658    3.5503 H   0  0  0  0  0  0  0  0  0  0  0  0
    0.7503   -3.9550    2.5890 H   0  0  0  0  0  0  0  0  0  0  0  0
    0.7834   -3.2167    6.6607 H   0  0  0  0  0  0  0  0  0  0  0  0
    1.2039   -1.7386    2.8307 H   0  0  0  0  0  0  0  0  0  0  0  0
    3.7164   -2.5931    4.3624 H   0  0  0  0  0  0  0  0  0  0  0  0
    5.0767   -2.1419    2.5548 H   0  0  0  0  0  0  0  0  0  0  0  0
    3.8326   -1.3455    1.6432 H   0  0  0  0  0  0  0  0  0  0  0  0
    4.4660    0.5000    5.8871 H   0  0  0  0  0  0  0  0  0  0  0  0
    5.3682   -0.3944    4.6687 H   0  0  0  0  0  0  0  0  0  0  0  0
    4.5830   -1.2506    5.9865 H   0  0  0  0  0  0  0  0  0  0  0  0
    3.2331    1.6206    4.1333 H   0  0  0  0  0  0  0  0  0  0  0  0
    4.0776    0.7226    2.9467 H   0  0  0  0  0  0  0  0  0  0  0  0
    2.3807    1.5890    1.7489 H   0  0  0  0  0  0  0  0  0  0  0  0
    1.8868   -0.0223    1.9158 H   0  0  0  0  0  0  0  0  0  0  0  0
   -1.2840    1.6783    1.8809 H   0  0  0  0  0  0  0  0  0  0  0  0
   -0.3393    0.2962    1.3828 H   0  0  0  0  0  0  0  0  0  0  0  0
    0.1353    1.9112    0.8872 H   0  0  0  0  0  0  0  0  0  0  0  0
    1.5584    3.0354    4.1297 H   0  0  0  0  0  0  0  0  0  0  0  0
    1.1931    3.5163    2.5156 H   0  0  0  0  0  0  0  0  0  0  0  0
   -0.1557    4.5892    4.3548 H   0  0  0  0  0  0  0  0  0  0  0  0
   -0.8567    4.1453    2.1094 H   0  0  0  0  0  0  0  0  0  0  0  0
   -0.5196    2.8346    5.9169 H   0  0  0  0  0  0  0  0  0  0  0  0
   -2.0950    3.2416    5.2993 H   0  0  0  0  0  0  0  0  0  0  0  0
   -1.7694    0.7737    5.4387 H   0  0  0  0  0  0  0  0  0  0  0  0
   -2.0811    1.2789    3.8233 H   0  0  0  0  0  0  0  0  0  0  0  0
   -0.3034   -0.3269    3.7734 H   0  0  0  0  0  0  0  0  0  0  0  0
    1.4053    1.3521    5.6727 H   0  0  0  0  0  0  0  0  0  0  0  0
    0.2539    0.2021    6.2418 H   0  0  0  0  0  0  0  0  0  0  0  0
    2.2724   -0.8745    6.3929 H   0  0  0  0  0  0  0  0  0  0  0  0
  1  2  1  0
  1 33  1  0
  1 34  1  0
  1 35  1  0
  2  3  1  0
  2 36  1  0
  2 37  1  0
  3  4  1  0
  3  5  1  0
  3 38  1  1
  4 39  1  0
  5  6  1  0
  5 40  1  0
  5 41  1  0
  6  8  1  0
  6  7  1  0
  6 42  1  1
  7  8  1  0
  8  9  1  0
  8 43  1  6
  9 18  1  0
  9 10  1  0
  9 44  1  6
 10 11  1  0
 10 45  1  0
 10 46  1  0
 11 16  1  0
 11 12  1  0
 11 47  1  6
 12 13  2  0
 12 14  1  0
 14 15  2  0
 14 48  1  0
 15 32  1  0
 15 16  1  0
 16 17  1  0
 16 49  1  6
 17 18  1  0
 17 19  1  0
 17 50  1  1
 18 51  1  0
 18 52  1  0
 19 32  1  0
 19 20  1  1
 19 21  1  0
 20 53  1  0
 20 54  1  0
 20 55  1  0
 21 22  1  0
 21 56  1  0
 21 57  1  0
 22 23  1  0
 22 58  1  0
 22 59  1  0
 23 30  1  0
 23 24  1  6
 23 25  1  0
 24 60  1  0
 24 61  1  0
 24 62  1  0
 25 26  1  0
 25 63  1  0
 25 64  1  0
 26 27  1  0
 26 28  1  0
 26 65  1  1
 27 66  1  0
 28 29  1  0
 28 67  1  0
 28 68  1  0
 29 30  1  0
 29 69  1  0
 29 70  1  0
 30 31  1  0
 30 71  1  6
 31 32  1  0
 31 72  1  0
 31 73  1  0
 32 74  1  1
M  END
>  <i_m_ct_stereo_status>  (176) 
1

>  <s_m_source_file>  (176) 
/var/tmp/pbs.5076255.sched01/tmpnx1894nc/68p53si2vm.sdf

>  <i_m_source_file_index>  (176) 
1

>  <i_lp_mmshare_version>  (176) 
48012

>  <i_f3d_flags>  (176) 
0

>  <s_epik_input>  (176) 
W0NIM11bQ0gyXVtDQEhdKFtPSF0pW0NIMl1bQ0BASF0xT1tDQEhdMVtDQEBIXShbQ0gyXTIpW0NIMl1bQ0BIXShbQ0BASF0zW0NAQEhdMltDQEBdNDVbQ0gzXSlDKD1PKVtDSF09QzNbQ0BASF01W0NIMl1bQ0BASF02W0NAXShbQ0gzXSkoW0NIMl1bQ0gyXTQpW0NIMl1bQ0BASF0oW09IXSlbQ0gyXVtDSDJdNg==

>  <s_epik_cmdline>  (176) 
J2VwaWtfcHl0aG9uJywgJy1waHQnLCAnMi4wJywgJy1waCcsICc3LjAnLCAnLXRuJywgJzgnLCAnLW1hJywgJzIwMCcsICctaW1hZScsICc8aW5maWxlLm1hZT4nLCAnLW9tYWUnLCAnPG91dGZpbGUubWFlPic=

>  <r_lp_tautomer_probability>  (176) 
0.499977

>  <r_epik_Ionization_Penalty>  (176) 
2.01533e-06

>  <r_epik_Ionization_Penalty_Charging>  (176) 
0

>  <r_epik_Ionization_Penalty_Neutral>  (176) 
2.01533e-06

>  <r_epik_State_Penalty>  (176) 
0.41068

>  <r_epik_Charging_Adjusted_Penalty>  (176) 
0.41068

>  <i_epik_Tot_Q>  (176) 
0

>  <i_epik_Tot_abs_Q>  (176) 
0

>  <s_lp_Force_Field>  (176) 
OPLS3e

>  <r_lp_Energy>  (176) 
65.3801

>  <b_lp_Chiralities_Consistent>  (176) 
1

>  <s_lp_Variant>  (176) 
52:0-1

>  <s_i_glide_gridfile>  (176) 
pfpi4k_grid

>  <i_i_glide_lignum>  (176) 
1

>  <i_i_glide_rotatable_bonds>  (176) 
6

>  <r_i_docking_score>  (176) 
-3.67874

>  <r_i_glide_ligand_efficiency>  (176) 
-0.114961

>  <r_i_glide_ligand_efficiency_sa>  (176) 
-0.364977

>  <r_i_glide_ligand_efficiency_ln>  (176) 
-0.823771

>  <r_i_glide_gscore>  (176) 
-3.67874

>  <r_i_glide_lipo>  (176) 
-0.312886

>  <r_i_glide_hbond>  (176) 
-0.342721

>  <r_i_glide_metal>  (176) 
-0

>  <r_i_glide_rewards>  (176) 
-0.396578

>  <r_i_glide_evdw>  (176) 
-27.451

>  <r_i_glide_ecoul>  (176) 
-10.4001

>  <r_i_glide_erotb>  (176) 
0.306014

>  <r_i_glide_esite>  (176) 
0

>  <r_i_glide_emodel>  (176) 
-44.5606

>  <r_i_glide_energy>  (176) 
-37.8512

>  <r_i_glide_einternal>  (176) 
4.84049

>  <r_i_glide_intrahb_reward>  (176) 
-0

>  <i_i_glide_confnum>  (176) 
2

>  <i_i_glide_posenum>  (176) 
14

>  <r_i_glide_eff_state_penalty>  (176) 
0

>  <ligand_id>  (176) 
52

>  <original_smiles>  (176) 
CCC(O)CC1OC1C1CC2C(=O)C=C3C2C(C1)C1(C)CCC2(C)CC(O)CCC2CC31

>  <smiles>  (176) 
[H]OC([H])(C([H])([H])C([H])([H])[H])C([H])([H])C1([H])OC1([H])C1([H])C([H])([H])C2([H])C(=O)C([H])=C3C2([H])C([H])(C1([H])[H])C1(C([H])([H])[H])C([H])([H])C([H])([H])C2(C([H])([H])[H])C([H])([H])C([H])(O[H])C([H])([H])C([H])([H])C2([H])C([H])([H])C31[H]

$$$$
52:0:1
     RDKit          3D

 74 79  0  0  1  0  0  0  0  0999 V2000
    4.0173   -2.1010   -3.4049 C   0  0  0  0  0  0  0  0  0  0  0  0
    2.7747   -2.8034   -2.8350 C   0  0  0  0  0  0  0  0  0  0  0  0
    3.0111   -3.5135   -1.4881 C   0  0  2  0  0  0  0  0  0  0  0  0
    1.8165   -4.1938   -1.1674 O   0  0  0  0  0  0  0  0  0  0  0  0
    3.3820   -2.5599   -0.3424 C   0  0  0  0  0  0  0  0  0  0  0  0
    3.6875   -3.2448    0.9761 C   0  0  2  0  0  0  0  0  0  0  0  0
    2.7450   -4.2219    1.4634 O   0  0  0  0  0  0  0  0  0  0  0  0
    2.8133   -2.9913    2.1791 C   0  0  1  0  0  0  0  0  0  0  0  0
    3.3264   -3.1054    3.5999 C   0  0  2  0  0  0  0  0  0  0  0  0
    2.3372   -3.9362    4.4828 C   0  0  0  0  0  0  0  0  0  0  0  0
    1.0031   -3.1840    4.7462 C   0  0  1  0  0  0  0  0  0  0  0  0
    0.2405   -3.5070    6.0362 C   0  0  0  0  0  0  0  0  0  0  0  0
   -0.1493   -4.6375    6.3109 O   0  0  0  0  0  0  0  0  0  0  0  0
    0.0591   -2.2934    6.8532 C   0  0  0  0  0  0  0  0  0  0  0  0
    0.6275   -1.2874    6.1808 C   0  0  0  0  0  0  0  0  0  0  0  0
    1.2749   -1.6920    4.9208 C   0  0  1  0  0  0  0  0  0  0  0  0
    2.7045   -1.3161    5.2877 C   0  0  1  0  0  0  0  0  0  0  0  0
    3.6732   -1.6944    4.1617 C   0  0  0  0  0  0  0  0  0  0  0  0
    2.5985    0.1035    5.9323 C   0  0  1  0  0  0  0  0  0  0  0  0
    3.7119    0.2437    6.9938 C   0  0  0  0  0  0  0  0  0  0  0  0
    2.7882    1.2858    4.9381 C   0  0  0  0  0  0  0  0  0  0  0  0
    1.8548    1.4112    3.7143 C   0  0  0  0  0  0  0  0  0  0  0  0
    0.4519    2.0646    3.8886 C   0  0  2  0  0  0  0  0  0  0  0  0
   -0.2247    1.8704    2.5059 C   0  0  0  0  0  0  0  0  0  0  0  0
    0.6231    3.5871    4.1798 C   0  0  0  0  0  0  0  0  0  0  0  0
   -0.6742    4.3691    4.4644 C   0  0  1  0  0  0  0  0  0  0  0  0
   -1.3831    4.6734    3.2845 O   0  0  0  0  0  0  0  0  0  0  0  0
   -1.5722    3.6458    5.4823 C   0  0  0  0  0  0  0  0  0  0  0  0
   -1.7706    2.1578    5.1552 C   0  0  0  0  0  0  0  0  0  0  0  0
   -0.4319    1.3938    4.9951 C   0  0  2  0  0  0  0  0  0  0  0  0
    0.2325    1.2375    6.3940 C   0  0  0  0  0  0  0  0  0  0  0  0
    1.1904    0.0471    6.6328 C   0  0  1  0  0  0  0  0  0  0  0  0
    3.7736   -1.6045   -4.3434 H   0  0  0  0  0  0  0  0  0  0  0  0
    4.8196   -2.8151   -3.5891 H   0  0  0  0  0  0  0  0  0  0  0  0
    4.3939   -1.3317   -2.7320 H   0  0  0  0  0  0  0  0  0  0  0  0
    1.9655   -2.0816   -2.7225 H   0  0  0  0  0  0  0  0  0  0  0  0
    2.4202   -3.5296   -3.5677 H   0  0  0  0  0  0  0  0  0  0  0  0
    3.8077   -4.2553   -1.6000 H   0  0  0  0  0  0  0  0  0  0  0  0
    1.7788   -4.9321   -1.7588 H   0  0  0  0  0  0  0  0  0  0  0  0
    4.2815   -2.0016   -0.6048 H   0  0  0  0  0  0  0  0  0  0  0  0
    2.6125   -1.8173   -0.1995 H   0  0  0  0  0  0  0  0  0  0  0  0
    4.7340   -3.5228    1.1260 H   0  0  0  0  0  0  0  0  0  0  0  0
    1.9293   -2.3636    2.0459 H   0  0  0  0  0  0  0  0  0  0  0  0
    4.2531   -3.6806    3.5401 H   0  0  0  0  0  0  0  0  0  0  0  0
    2.1376   -4.8921    3.9998 H   0  0  0  0  0  0  0  0  0  0  0  0
    2.8242   -4.1966    5.4239 H   0  0  0  0  0  0  0  0  0  0  0  0
    0.3256   -3.3412    3.9065 H   0  0  0  0  0  0  0  0  0  0  0  0
   -0.2723   -2.2955    7.8809 H   0  0  0  0  0  0  0  0  0  0  0  0
    0.8595   -1.1374    4.0874 H   0  0  0  0  0  0  0  0  0  0  0  0
    3.0132   -1.9718    6.1070 H   0  0  0  0  0  0  0  0  0  0  0  0
    4.6945   -1.7150    4.5459 H   0  0  0  0  0  0  0  0  0  0  0  0
    3.6650   -0.9482    3.3688 H   0  0  0  0  0  0  0  0  0  0  0  0
    3.6520    1.2031    7.5089 H   0  0  0  0  0  0  0  0  0  0  0  0
    4.7025    0.1765    6.5402 H   0  0  0  0  0  0  0  0  0  0  0  0
    3.6546   -0.5368    7.7557 H   0  0  0  0  0  0  0  0  0  0  0  0
    2.8075    2.2255    5.4871 H   0  0  0  0  0  0  0  0  0  0  0  0
    3.7986    1.2043    4.5392 H   0  0  0  0  0  0  0  0  0  0  0  0
    2.3900    2.0343    2.9951 H   0  0  0  0  0  0  0  0  0  0  0  0
    1.7870    0.4626    3.1900 H   0  0  0  0  0  0  0  0  0  0  0  0
   -1.2261    2.2910    2.4516 H   0  0  0  0  0  0  0  0  0  0  0  0
   -0.3141    0.8156    2.2404 H   0  0  0  0  0  0  0  0  0  0  0  0
    0.3614    2.3463    1.7200 H   0  0  0  0  0  0  0  0  0  0  0  0
    1.2432    3.7040    5.0652 H   0  0  0  0  0  0  0  0  0  0  0  0
    1.1793    4.0734    3.3789 H   0  0  0  0  0  0  0  0  0  0  0  0
   -0.3890    5.3335    4.8871 H   0  0  0  0  0  0  0  0  0  0  0  0
   -0.8016    4.5481    2.5332 H   0  0  0  0  0  0  0  0  0  0  0  0
   -1.1262    3.7304    6.4728 H   0  0  0  0  0  0  0  0  0  0  0  0
   -2.5459    4.1332    5.5518 H   0  0  0  0  0  0  0  0  0  0  0  0
   -2.3753    1.6961    5.9365 H   0  0  0  0  0  0  0  0  0  0  0  0
   -2.3765    2.0688    4.2544 H   0  0  0  0  0  0  0  0  0  0  0  0
   -0.7099    0.4008    4.6408 H   0  0  0  0  0  0  0  0  0  0  0  0
    0.7295    2.1578    6.6880 H   0  0  0  0  0  0  0  0  0  0  0  0
   -0.5652    1.1080    7.1241 H   0  0  0  0  0  0  0  0  0  0  0  0
    1.3333   -0.0386    7.7114 H   0  0  0  0  0  0  0  0  0  0  0  0
  1  2  1  0
  1 33  1  0
  1 34  1  0
  1 35  1  0
  2  3  1  0
  2 36  1  0
  2 37  1  0
  3  4  1  0
  3  5  1  0
  3 38  1  6
  4 39  1  0
  5  6  1  0
  5 40  1  0
  5 41  1  0
  6  8  1  0
  6  7  1  0
  6 42  1  1
  7  8  1  0
  8  9  1  0
  8 43  1  6
  9 18  1  0
  9 10  1  0
  9 44  1  6
 10 11  1  0
 10 45  1  0
 10 46  1  0
 11 16  1  0
 11 12  1  0
 11 47  1  6
 12 13  2  0
 12 14  1  0
 14 15  2  0
 14 48  1  0
 15 32  1  0
 15 16  1  0
 16 17  1  0
 16 49  1  6
 17 18  1  0
 17 19  1  0
 17 50  1  1
 18 51  1  0
 18 52  1  0
 19 32  1  0
 19 20  1  1
 19 21  1  0
 20 53  1  0
 20 54  1  0
 20 55  1  0
 21 22  1  0
 21 56  1  0
 21 57  1  0
 22 23  1  0
 22 58  1  0
 22 59  1  0
 23 30  1  0
 23 24  1  6
 23 25  1  0
 24 60  1  0
 24 61  1  0
 24 62  1  0
 25 26  1  0
 25 63  1  0
 25 64  1  0
 26 27  1  0
 26 28  1  0
 26 65  1  1
 27 66  1  0
 28 29  1  0
 28 67  1  0
 28 68  1  0
 29 30  1  0
 29 69  1  0
 29 70  1  0
 30 31  1  0
 30 71  1  6
 31 32  1  0
 31 72  1  0
 31 73  1  0
 32 74  1  1
M  END
>  <i_m_ct_stereo_status>  (177) 
1

>  <s_m_source_file>  (177) 
/var/tmp/pbs.5076255.sched01/tmpnx1894nc/68p53si2vm.sdf

>  <i_m_source_file_index>  (177) 
1

>  <i_lp_mmshare_version>  (177) 
48012

>  <i_f3d_flags>  (177) 
0

>  <s_epik_input>  (177) 
W0NIM11bQ0gyXVtDQEhdKFtPSF0pW0NIMl1bQ0BASF0xT1tDQEhdMVtDQEBIXShbQ0gyXTIpW0NIMl1bQ0BIXShbQ0BASF0zW0NAQEhdMltDQEBdNDVbQ0gzXSlDKD1PKVtDSF09QzNbQ0BASF01W0NIMl1bQ0BASF02W0NAXShbQ0gzXSkoW0NIMl1bQ0gyXTQpW0NIMl1bQ0BASF0oW09IXSlbQ0gyXVtDSDJdNg==

>  <s_epik_cmdline>  (177) 
J2VwaWtfcHl0aG9uJywgJy1waHQnLCAnMi4wJywgJy1waCcsICc3LjAnLCAnLXRuJywgJzgnLCAnLW1hJywgJzIwMCcsICctaW1hZScsICc8aW5maWxlLm1hZT4nLCAnLW9tYWUnLCAnPG91dGZpbGUubWFlPic=

>  <r_lp_tautomer_probability>  (177) 
0.499977

>  <r_epik_Ionization_Penalty>  (177) 
2.01533e-06

>  <r_epik_Ionization_Penalty_Charging>  (177) 
0

>  <r_epik_Ionization_Penalty_Neutral>  (177) 
2.01533e-06

>  <r_epik_State_Penalty>  (177) 
0.41068

>  <r_epik_Charging_Adjusted_Penalty>  (177) 
0.41068

>  <i_epik_Tot_Q>  (177) 
0

>  <i_epik_Tot_abs_Q>  (177) 
0

>  <s_lp_Force_Field>  (177) 
OPLS3e

>  <r_lp_Energy>  (177) 
65.3801

>  <b_lp_Chiralities_Consistent>  (177) 
1

>  <s_lp_Variant>  (177) 
52:0-1

>  <s_i_glide_gridfile>  (177) 
pfpi4k_grid

>  <i_i_glide_lignum>  (177) 
1

>  <i_i_glide_rotatable_bonds>  (177) 
6

>  <r_i_docking_score>  (177) 
-3.07216

>  <r_i_glide_ligand_efficiency>  (177) 
-0.0960051

>  <r_i_glide_ligand_efficiency_sa>  (177) 
-0.304797

>  <r_i_glide_ligand_efficiency_ln>  (177) 
-0.687941

>  <r_i_glide_gscore>  (177) 
-3.07216

>  <r_i_glide_lipo>  (177) 
-0.283394

>  <r_i_glide_hbond>  (177) 
-0.297645

>  <r_i_glide_metal>  (177) 
-0

>  <r_i_glide_rewards>  (177) 
-0.391154

>  <r_i_glide_evdw>  (177) 
-21.0753

>  <r_i_glide_ecoul>  (177) 
-8.95778

>  <r_i_glide_erotb>  (177) 
0.306014

>  <r_i_glide_esite>  (177) 
-0.0085531

>  <r_i_glide_emodel>  (177) 
-35.6979

>  <r_i_glide_energy>  (177) 
-30.033

>  <r_i_glide_einternal>  (177) 
3.48194

>  <r_i_glide_intrahb_reward>  (177) 
-0

>  <i_i_glide_confnum>  (177) 
2

>  <i_i_glide_posenum>  (177) 
1

>  <r_i_glide_eff_state_penalty>  (177) 
0

>  <ligand_id>  (177) 
52

>  <original_smiles>  (177) 
CCC(O)CC1OC1C1CC2C(=O)C=C3C2C(C1)C1(C)CCC2(C)CC(O)CCC2CC31

>  <smiles>  (177) 
[H]OC([H])(C([H])([H])C([H])([H])[H])C([H])([H])C1([H])OC1([H])C1([H])C([H])([H])C2([H])C(=O)C([H])=C3C2([H])C([H])(C1([H])[H])C1(C([H])([H])[H])C([H])([H])C([H])([H])C2(C([H])([H])[H])C([H])([H])C([H])(O[H])C([H])([H])C([H])([H])C2([H])C([H])([H])C31[H]

$$$$
52:0:2
     RDKit          3D

 74 79  0  0  1  0  0  0  0  0999 V2000
    2.9669   -0.7568   -3.4013 C   0  0  0  0  0  0  0  0  0  0  0  0
    4.3260   -0.7121   -2.7145 C   0  0  0  0  0  0  0  0  0  0  0  0
    4.3380   -1.3002   -1.2957 C   0  0  2  0  0  0  0  0  0  0  0  0
    5.6477   -1.1453   -0.7810 O   0  0  0  0  0  0  0  0  0  0  0  0
    3.9112   -2.7793   -1.2655 C   0  0  0  0  0  0  0  0  0  0  0  0
    4.0784   -3.4125    0.0916 C   0  0  2  0  0  0  0  0  0  0  0  0
    2.9671   -4.1832    0.5663 O   0  0  0  0  0  0  0  0  0  0  0  0
    3.2723   -2.9738    1.2905 C   0  0  1  0  0  0  0  0  0  0  0  0
    3.8068   -3.1509    2.7059 C   0  0  2  0  0  0  0  0  0  0  0  0
    2.8752   -4.0920    3.5412 C   0  0  0  0  0  0  0  0  0  0  0  0
    1.4992   -3.4428    3.8326 C   0  0  1  0  0  0  0  0  0  0  0  0
    0.7420   -3.9010    5.0864 C   0  0  0  0  0  0  0  0  0  0  0  0
    0.4251   -5.0693    5.2718 O   0  0  0  0  0  0  0  0  0  0  0  0
    0.4722   -2.7568    5.9778 C   0  0  0  0  0  0  0  0  0  0  0  0
    0.9900   -1.6749    5.3807 C   0  0  0  0  0  0  0  0  0  0  0  0
    1.6751   -1.9541    4.1068 C   0  0  1  0  0  0  0  0  0  0  0  0
    3.0755   -1.5157    4.5162 C   0  0  1  0  0  0  0  0  0  0  0  0
    4.0712   -1.7605    3.3769 C   0  0  0  0  0  0  0  0  0  0  0  0
    2.8726   -0.1549    5.2596 C   0  0  1  0  0  0  0  0  0  0  0  0
    3.9612   -0.0184    6.3459 C   0  0  0  0  0  0  0  0  0  0  0  0
    2.9935    1.1051    4.3563 C   0  0  0  0  0  0  0  0  0  0  0  0
    2.0649    1.2565    3.1350 C   0  0  0  0  0  0  0  0  0  0  0  0
    0.6220    1.7989    3.3384 C   0  0  2  0  0  0  0  0  0  0  0  0
   -0.0265    1.6318    1.9442 C   0  0  0  0  0  0  0  0  0  0  0  0
    0.6852    3.3105    3.7294 C   0  0  0  0  0  0  0  0  0  0  0  0
   -0.6615    3.9882    4.0538 C   0  0  1  0  0  0  0  0  0  0  0  0
   -1.3907    4.3268    2.8918 O   0  0  0  0  0  0  0  0  0  0  0  0
   -1.5187    3.1439    5.0112 C   0  0  0  0  0  0  0  0  0  0  0  0
   -1.6106    1.6698    4.5778 C   0  0  0  0  0  0  0  0  0  0  0  0
   -0.2255    1.0043    4.3841 C   0  0  2  0  0  0  0  0  0  0  0  0
    0.4345    0.7926    5.7753 C   0  0  0  0  0  0  0  0  0  0  0  0
    1.4639   -0.3476    5.9382 C   0  0  1  0  0  0  0  0  0  0  0  0
    3.0326   -0.3335   -4.4024 H   0  0  0  0  0  0  0  0  0  0  0  0
    2.2255   -0.1971   -2.8264 H   0  0  0  0  0  0  0  0  0  0  0  0
    2.6100   -1.7793   -3.5107 H   0  0  0  0  0  0  0  0  0  0  0  0
    5.0136   -1.2732   -3.3389 H   0  0  0  0  0  0  0  0  0  0  0  0
    4.6675    0.3226   -2.6947 H   0  0  0  0  0  0  0  0  0  0  0  0
    3.6699   -0.7301   -0.6517 H   0  0  0  0  0  0  0  0  0  0  0  0
    5.6647   -0.3454   -0.2809 H   0  0  0  0  0  0  0  0  0  0  0  0
    2.8605   -2.8603   -1.5516 H   0  0  0  0  0  0  0  0  0  0  0  0
    4.4778   -3.3721   -1.9848 H   0  0  0  0  0  0  0  0  0  0  0  0
    5.0426   -3.8919    0.2556 H   0  0  0  0  0  0  0  0  0  0  0  0
    2.5436   -2.1750    1.1442 H   0  0  0  0  0  0  0  0  0  0  0  0
    4.7705   -3.6616    2.6184 H   0  0  0  0  0  0  0  0  0  0  0  0
    2.7445   -5.0287    3.0015 H   0  0  0  0  0  0  0  0  0  0  0  0
    3.3758   -4.3750    4.4676 H   0  0  0  0  0  0  0  0  0  0  0  0
    0.8469   -3.5816    2.9721 H   0  0  0  0  0  0  0  0  0  0  0  0
    0.1221   -2.8464    6.9971 H   0  0  0  0  0  0  0  0  0  0  0  0
    1.2322   -1.3681    3.3086 H   0  0  0  0  0  0  0  0  0  0  0  0
    3.4156   -2.2047    5.2944 H   0  0  0  0  0  0  0  0  0  0  0  0
    5.0876   -1.7436    3.7698 H   0  0  0  0  0  0  0  0  0  0  0  0
    4.0298   -0.9581    2.6425 H   0  0  0  0  0  0  0  0  0  0  0  0
    3.8324    0.8973    6.9254 H   0  0  0  0  0  0  0  0  0  0  0  0
    4.9582    0.0104    5.9014 H   0  0  0  0  0  0  0  0  0  0  0  0
    3.9461   -0.8531    7.0506 H   0  0  0  0  0  0  0  0  0  0  0  0
    2.9425    2.0033    4.9706 H   0  0  0  0  0  0  0  0  0  0  0  0
    4.0106    1.1176    3.9657 H   0  0  0  0  0  0  0  0  0  0  0  0
    2.5625    1.9630    2.4682 H   0  0  0  0  0  0  0  0  0  0  0  0
    2.0622    0.3454    2.5432 H   0  0  0  0  0  0  0  0  0  0  0  0
   -1.0393    2.0228    1.8955 H   0  0  0  0  0  0  0  0  0  0  0  0
   -0.0652    0.5882    1.6272 H   0  0  0  0  0  0  0  0  0  0  0  0
    0.5648    2.1392    1.1894 H   0  0  0  0  0  0  0  0  0  0  0  0
    1.2890    3.4112    4.6287 H   0  0  0  0  0  0  0  0  0  0  0  0
    1.2134    3.8864    2.9675 H   0  0  0  0  0  0  0  0  0  0  0  0
   -0.4450    4.9396    4.5410 H   0  0  0  0  0  0  0  0  0  0  0  0
   -0.7865    4.3512    2.1428 H   0  0  0  0  0  0  0  0  0  0  0  0
   -1.0825    3.1872    6.0086 H   0  0  0  0  0  0  0  0  0  0  0  0
   -2.5176    3.5720    5.1024 H   0  0  0  0  0  0  0  0  0  0  0  0
   -2.1853    1.1076    5.3137 H   0  0  0  0  0  0  0  0  0  0  0  0
   -2.1951    1.6072    3.6619 H   0  0  0  0  0  0  0  0  0  0  0  0
   -0.4379    0.0242    3.9559 H   0  0  0  0  0  0  0  0  0  0  0  0
    0.8681    1.7204    6.1382 H   0  0  0  0  0  0  0  0  0  0  0  0
   -0.3613    0.5587    6.4816 H   0  0  0  0  0  0  0  0  0  0  0  0
    1.5995   -0.5073    7.0107 H   0  0  0  0  0  0  0  0  0  0  0  0
  1  2  1  0
  1 33  1  0
  1 34  1  0
  1 35  1  0
  2  3  1  0
  2 36  1  0
  2 37  1  0
  3  4  1  0
  3  5  1  0
  3 38  1  1
  4 39  1  0
  5  6  1  0
  5 40  1  0
  5 41  1  0
  6  8  1  0
  6  7  1  0
  6 42  1  1
  7  8  1  0
  8  9  1  0
  8 43  1  6
  9 18  1  0
  9 10  1  0
  9 44  1  6
 10 11  1  0
 10 45  1  0
 10 46  1  0
 11 16  1  0
 11 12  1  0
 11 47  1  6
 12 13  2  0
 12 14  1  0
 14 15  2  0
 14 48  1  0
 15 32  1  0
 15 16  1  0
 16 17  1  0
 16 49  1  6
 17 18  1  0
 17 19  1  0
 17 50  1  1
 18 51  1  0
 18 52  1  0
 19 32  1  0
 19 20  1  1
 19 21  1  0
 20 53  1  0
 20 54  1  0
 20 55  1  0
 21 22  1  0
 21 56  1  0
 21 57  1  0
 22 23  1  0
 22 58  1  0
 22 59  1  0
 23 30  1  0
 23 24  1  6
 23 25  1  0
 24 60  1  0
 24 61  1  0
 24 62  1  0
 25 26  1  0
 25 63  1  0
 25 64  1  0
 26 27  1  0
 26 28  1  0
 26 65  1  1
 27 66  1  0
 28 29  1  0
 28 67  1  0
 28 68  1  0
 29 30  1  0
 29 69  1  0
 29 70  1  0
 30 31  1  0
 30 71  1  6
 31 32  1  0
 31 72  1  0
 31 73  1  0
 32 74  1  1
M  END
>  <i_m_ct_stereo_status>  (178) 
1

>  <s_m_source_file>  (178) 
/var/tmp/pbs.5076255.sched01/tmpnx1894nc/68p53si2vm.sdf

>  <i_m_source_file_index>  (178) 
1

>  <i_lp_mmshare_version>  (178) 
48012

>  <i_f3d_flags>  (178) 
0

>  <s_epik_input>  (178) 
W0NIM11bQ0gyXVtDQEhdKFtPSF0pW0NIMl1bQ0BASF0xT1tDQEhdMVtDQEBIXShbQ0gyXTIpW0NIMl1bQ0BIXShbQ0BASF0zW0NAQEhdMltDQEBdNDVbQ0gzXSlDKD1PKVtDSF09QzNbQ0BASF01W0NIMl1bQ0BASF02W0NAXShbQ0gzXSkoW0NIMl1bQ0gyXTQpW0NIMl1bQ0BASF0oW09IXSlbQ0gyXVtDSDJdNg==

>  <s_epik_cmdline>  (178) 
J2VwaWtfcHl0aG9uJywgJy1waHQnLCAnMi4wJywgJy1waCcsICc3LjAnLCAnLXRuJywgJzgnLCAnLW1hJywgJzIwMCcsICctaW1hZScsICc8aW5maWxlLm1hZT4nLCAnLW9tYWUnLCAnPG91dGZpbGUubWFlPic=

>  <r_lp_tautomer_probability>  (178) 
0.499977

>  <r_epik_Ionization_Penalty>  (178) 
2.01533e-06

>  <r_epik_Ionization_Penalty_Charging>  (178) 
0

>  <r_epik_Ionization_Penalty_Neutral>  (178) 
2.01533e-06

>  <r_epik_State_Penalty>  (178) 
0.41068

>  <r_epik_Charging_Adjusted_Penalty>  (178) 
0.41068

>  <i_epik_Tot_Q>  (178) 
0

>  <i_epik_Tot_abs_Q>  (178) 
0

>  <s_lp_Force_Field>  (178) 
OPLS3e

>  <r_lp_Energy>  (178) 
65.3801

>  <b_lp_Chiralities_Consistent>  (178) 
1

>  <s_lp_Variant>  (178) 
52:0-1

>  <s_i_glide_gridfile>  (178) 
pfpi4k_grid

>  <i_i_glide_lignum>  (178) 
1

>  <i_i_glide_rotatable_bonds>  (178) 
6

>  <r_i_docking_score>  (178) 
-2.96093

>  <r_i_glide_ligand_efficiency>  (178) 
-0.092529

>  <r_i_glide_ligand_efficiency_sa>  (178) 
-0.293761

>  <r_i_glide_ligand_efficiency_ln>  (178) 
-0.663033

>  <r_i_glide_gscore>  (178) 
-2.96093

>  <r_i_glide_lipo>  (178) 
-0.233952

>  <r_i_glide_hbond>  (178) 
-0.176237

>  <r_i_glide_metal>  (178) 
-0

>  <r_i_glide_rewards>  (178) 
-0.391154

>  <r_i_glide_evdw>  (178) 
-23.8403

>  <r_i_glide_ecoul>  (178) 
-8.48525

>  <r_i_glide_erotb>  (178) 
0.306014

>  <r_i_glide_esite>  (178) 
-0.000796903

>  <r_i_glide_emodel>  (178) 
-36.2172

>  <r_i_glide_energy>  (178) 
-32.3255

>  <r_i_glide_einternal>  (178) 
5.74547

>  <r_i_glide_intrahb_reward>  (178) 
-0

>  <i_i_glide_confnum>  (178) 
5

>  <i_i_glide_posenum>  (178) 
16

>  <r_i_glide_eff_state_penalty>  (178) 
0

>  <ligand_id>  (178) 
52

>  <original_smiles>  (178) 
CCC(O)CC1OC1C1CC2C(=O)C=C3C2C(C1)C1(C)CCC2(C)CC(O)CCC2CC31

>  <smiles>  (178) 
[H]OC([H])(C([H])([H])C([H])([H])[H])C([H])([H])C1([H])OC1([H])C1([H])C([H])([H])C2([H])C(=O)C([H])=C3C2([H])C([H])(C1([H])[H])C1(C([H])([H])[H])C([H])([H])C([H])([H])C2(C([H])([H])[H])C([H])([H])C([H])(O[H])C([H])([H])C([H])([H])C2([H])C([H])([H])C31[H]

$$$$
52:1:0
     RDKit          3D

 74 79  0  0  1  0  0  0  0  0999 V2000
   -0.5265    1.2404    2.3560 C   0  0  0  0  0  0  0  0  0  0  0  0
   -0.7759    1.4973    3.8525 C   0  0  0  0  0  0  0  0  0  0  0  0
   -1.3110    0.2662    4.6080 C   0  0  2  0  0  0  0  0  0  0  0  0
   -1.7039    0.6678    5.9145 O   0  0  0  0  0  0  0  0  0  0  0  0
   -0.2624   -0.8516    4.7029 C   0  0  0  0  0  0  0  0  0  0  0  0
   -0.7511   -2.0973    5.3858 C   0  0  2  0  0  0  0  0  0  0  0  0
   -0.7920   -2.1027    6.8135 O   0  0  0  0  0  0  0  0  0  0  0  0
    0.1370   -2.9905    6.2000 C   0  0  1  0  0  0  0  0  0  0  0  0
   -0.1272   -4.4615    6.3813 C   0  0  2  0  0  0  0  0  0  0  0  0
   -0.1458   -4.8669    7.8935 C   0  0  0  0  0  0  0  0  0  0  0  0
    0.2550   -6.3107    8.0357 C   0  0  0  0  0  0  0  0  0  0  0  0
    0.2326   -7.1828    9.2041 C   0  0  0  0  0  0  0  0  0  0  0  0
   -0.0134   -6.8904   10.3758 O   0  0  0  0  0  0  0  0  0  0  0  0
    0.4996   -8.6413    8.7477 C   0  0  0  0  0  0  0  0  0  0  0  0
    1.2035   -8.3752    7.3882 C   0  0  2  0  0  0  0  0  0  0  0  0
    0.6463   -7.0738    7.0578 C   0  0  0  0  0  0  0  0  0  0  0  0
    0.5249   -6.7943    5.6197 C   0  0  1  0  0  0  0  0  0  0  0  0
    0.8214   -5.2960    5.4419 C   0  0  0  0  0  0  0  0  0  0  0  0
    1.2860   -7.9872    4.9553 C   0  0  1  0  0  0  0  0  0  0  0  0
    0.5798   -8.3135    3.6236 C   0  0  0  0  0  0  0  0  0  0  0  0
    2.7786   -7.6043    4.7709 C   0  0  0  0  0  0  0  0  0  0  0  0
    3.7254   -8.6164    4.0909 C   0  0  0  0  0  0  0  0  0  0  0  0
    4.1652   -9.8854    4.8775 C   0  0  2  0  0  0  0  0  0  0  0  0
    4.8246   -9.5003    6.2274 C   0  0  0  0  0  0  0  0  0  0  0  0
    5.2680  -10.6244    4.0710 C   0  0  0  0  0  0  0  0  0  0  0  0
    4.7626  -11.2473    2.7650 C   0  0  1  0  0  0  0  0  0  0  0  0
    5.8569  -11.9234    2.1374 O   0  0  0  0  0  0  0  0  0  0  0  0
    3.5739  -12.2082    3.0160 C   0  0  0  0  0  0  0  0  0  0  0  0
    2.4633  -11.5417    3.8371 C   0  0  0  0  0  0  0  0  0  0  0  0
    2.9910  -10.8590    5.1006 C   0  0  2  0  0  0  0  0  0  0  0  0
    1.8778  -10.4176    6.0701 C   0  0  0  0  0  0  0  0  0  0  0  0
    1.0638   -9.1125    6.0484 C   0  0  1  0  0  0  0  0  0  0  0  0
   -0.1388    2.1381    1.8691 H   0  0  0  0  0  0  0  0  0  0  0  0
   -1.4454    0.9586    1.8400 H   0  0  0  0  0  0  0  0  0  0  0  0
    0.2079    0.4537    2.1826 H   0  0  0  0  0  0  0  0  0  0  0  0
    0.1434    1.8453    4.3200 H   0  0  0  0  0  0  0  0  0  0  0  0
   -1.4872    2.3186    3.9346 H   0  0  0  0  0  0  0  0  0  0  0  0
   -2.1940   -0.1055    4.1013 H   0  0  0  0  0  0  0  0  0  0  0  0
   -2.2589    1.4101    5.8415 H   0  0  0  0  0  0  0  0  0  0  0  0
    0.0454   -1.1596    3.7054 H   0  0  0  0  0  0  0  0  0  0  0  0
    0.6355   -0.4938    5.2159 H   0  0  0  0  0  0  0  0  0  0  0  0
   -1.6302   -2.5465    4.9252 H   0  0  0  0  0  0  0  0  0  0  0  0
    1.1833   -2.6766    6.3287 H   0  0  0  0  0  0  0  0  0  0  0  0
   -1.1501   -4.6475    6.0541 H   0  0  0  0  0  0  0  0  0  0  0  0
    0.5742   -4.2735    8.4539 H   0  0  0  0  0  0  0  0  0  0  0  0
   -1.1257   -4.6836    8.3287 H   0  0  0  0  0  0  0  0  0  0  0  0
   -0.4531   -9.1545    8.5976 H   0  0  0  0  0  0  0  0  0  0  0  0
    1.1140   -9.1971    9.4415 H   0  0  0  0  0  0  0  0  0  0  0  0
    2.2637   -8.1911    7.5936 H   0  0  0  0  0  0  0  0  0  0  0  0
   -0.5347   -6.9388    5.3929 H   0  0  0  0  0  0  0  0  0  0  0  0
    0.6980   -5.0070    4.4003 H   0  0  0  0  0  0  0  0  0  0  0  0
    1.8613   -5.0990    5.7148 H   0  0  0  0  0  0  0  0  0  0  0  0
    1.1508   -8.9582    2.9667 H   0  0  0  0  0  0  0  0  0  0  0  0
    0.3836   -7.4069    3.0567 H   0  0  0  0  0  0  0  0  0  0  0  0
   -0.3793   -8.8098    3.7878 H   0  0  0  0  0  0  0  0  0  0  0  0
    2.7888   -6.7249    4.1301 H   0  0  0  0  0  0  0  0  0  0  0  0
    3.2118   -7.2706    5.7108 H   0  0  0  0  0  0  0  0  0  0  0  0
    3.3048   -8.9037    3.1292 H   0  0  0  0  0  0  0  0  0  0  0  0
    4.6316   -8.0638    3.8379 H   0  0  0  0  0  0  0  0  0  0  0  0
    5.1810  -10.3969    6.7440 H   0  0  0  0  0  0  0  0  0  0  0  0
    4.1378   -9.0074    6.9070 H   0  0  0  0  0  0  0  0  0  0  0  0
    5.6823   -8.8451    6.0819 H   0  0  0  0  0  0  0  0  0  0  0  0
    6.0957   -9.9470    3.8560 H   0  0  0  0  0  0  0  0  0  0  0  0
    5.6925  -11.4227    4.6786 H   0  0  0  0  0  0  0  0  0  0  0  0
    4.4541  -10.4665    2.0813 H   0  0  0  0  0  0  0  0  0  0  0  0
    5.4703  -12.2039    1.3020 H   0  0  0  0  0  0  0  0  0  0  0  0
    3.0896  -12.5744    2.1227 H   0  0  0  0  0  0  0  0  0  0  0  0
    3.9371  -13.0931    3.5437 H   0  0  0  0  0  0  0  0  0  0  0  0
    1.9243  -10.8482    3.2082 H   0  0  0  0  0  0  0  0  0  0  0  0
    1.7384  -12.2971    4.1218 H   0  0  0  0  0  0  0  0  0  0  0  0
    3.4348  -11.7008    5.6426 H   0  0  0  0  0  0  0  0  0  0  0  0
    1.0888  -11.1516    5.9538 H   0  0  0  0  0  0  0  0  0  0  0  0
    2.2831  -10.5450    7.0794 H   0  0  0  0  0  0  0  0  0  0  0  0
    0.0089   -9.4088    5.9912 H   0  0  0  0  0  0  0  0  0  0  0  0
  1  2  1  0
  1 33  1  0
  1 34  1  0
  1 35  1  0
  2  3  1  0
  2 36  1  0
  2 37  1  0
  3  4  1  0
  3  5  1  0
  3 38  1  6
  4 39  1  0
  5  6  1  0
  5 40  1  0
  5 41  1  0
  6  8  1  0
  6  7  1  0
  6 42  1  6
  7  8  1  0
  8  9  1  0
  8 43  1  1
  9 18  1  0
  9 10  1  0
  9 44  1  6
 10 45  1  0
 10 46  1  0
 10 11  1  0
 11 12  1  0
 11 16  2  0
 12 14  1  0
 12 13  2  0
 14 15  1  0
 14 48  1  0
 14 47  1  0
 15 16  1  0
 15 32  1  0
 15 49  1  1
 16 17  1  0
 17 18  1  0
 17 19  1  0
 17 50  1  6
 18 51  1  0
 18 52  1  0
 19 32  1  0
 19 20  1  6
 19 21  1  0
 20 53  1  0
 20 54  1  0
 20 55  1  0
 21 22  1  0
 21 56  1  0
 21 57  1  0
 22 23  1  0
 22 58  1  0
 22 59  1  0
 23 30  1  0
 23 24  1  1
 23 25  1  0
 24 60  1  0
 24 61  1  0
 24 62  1  0
 25 26  1  0
 25 63  1  0
 25 64  1  0
 26 27  1  0
 26 28  1  0
 26 65  1  6
 27 66  1  0
 28 29  1  0
 28 67  1  0
 28 68  1  0
 29 30  1  0
 29 69  1  0
 29 70  1  0
 30 31  1  0
 30 71  1  1
 31 32  1  0
 31 72  1  0
 31 73  1  0
 32 74  1  6
M  END
>  <i_m_ct_stereo_status>  (179) 
1

>  <s_m_source_file>  (179) 
/var/tmp/pbs.5076255.sched01/tmpnx1894nc/68p53si2vm.sdf

>  <i_m_source_file_index>  (179) 
2

>  <i_lp_mmshare_version>  (179) 
48012

>  <i_f3d_flags>  (179) 
0

>  <s_epik_input>  (179) 
W0NIM11bQ0gyXVtDQEhdKFtPSF0pW0NIMl1bQ0BASF0xT1tDQEhdMVtDQEBIXShbQ0gyXTIpW0NIMl1bQ0BIXShbQ0BASF0zW0NAQEhdMltDQEBdNDVbQ0gzXSlDKD1PKVtDSF09QzNbQ0BASF01W0NIMl1bQ0BASF02W0NAXShbQ0gzXSkoW0NIMl1bQ0gyXTQpW0NIMl1bQ0BASF0oW09IXSlbQ0gyXVtDSDJdNg==

>  <s_epik_cmdline>  (179) 
J2VwaWtfcHl0aG9uJywgJy1waHQnLCAnMi4wJywgJy1waCcsICc3LjAnLCAnLXRuJywgJzgnLCAnLW1hJywgJzIwMCcsICctaW1hZScsICc8aW5maWxlLm1hZT4nLCAnLW9tYWUnLCAnPG91dGZpbGUubWFlPic=

>  <r_lp_tautomer_probability>  (179) 
0.499977

>  <r_epik_Ionization_Penalty>  (179) 
2.11287e-06

>  <r_epik_Ionization_Penalty_Charging>  (179) 
0

>  <r_epik_Ionization_Penalty_Neutral>  (179) 
2.11287e-06

>  <r_epik_State_Penalty>  (179) 
0.41068

>  <r_epik_Charging_Adjusted_Penalty>  (179) 
0.41068

>  <i_epik_Tot_Q>  (179) 
0

>  <i_epik_Tot_abs_Q>  (179) 
0

>  <s_lp_Force_Field>  (179) 
OPLS3e

>  <r_lp_Energy>  (179) 
65.5705

>  <b_lp_Chiralities_Consistent>  (179) 
1

>  <s_lp_Variant>  (179) 
52:0-2

>  <s_i_glide_gridfile>  (179) 
pfpi4k_grid

>  <i_i_glide_lignum>  (179) 
2

>  <i_i_glide_rotatable_bonds>  (179) 
6

>  <r_i_docking_score>  (179) 
-2.9102

>  <r_i_glide_ligand_efficiency>  (179) 
-0.0909438

>  <r_i_glide_ligand_efficiency_sa>  (179) 
-0.288728

>  <r_i_glide_ligand_efficiency_ln>  (179) 
-0.651673

>  <r_i_glide_gscore>  (179) 
-2.9102

>  <r_i_glide_lipo>  (179) 
0

>  <r_i_glide_hbond>  (179) 
-0.448931

>  <r_i_glide_metal>  (179) 
-0

>  <r_i_glide_rewards>  (179) 
-0.391154

>  <r_i_glide_evdw>  (179) 
-13.6423

>  <r_i_glide_ecoul>  (179) 
-10.9366

>  <r_i_glide_erotb>  (179) 
0.306014

>  <r_i_glide_esite>  (179) 
-0.0535276

>  <r_i_glide_emodel>  (179) 
-29.5346

>  <r_i_glide_energy>  (179) 
-24.5789

>  <r_i_glide_einternal>  (179) 
1.0918

>  <r_i_glide_intrahb_reward>  (179) 
-0

>  <i_i_glide_confnum>  (179) 
3

>  <i_i_glide_posenum>  (179) 
4

>  <r_i_glide_eff_state_penalty>  (179) 
0

>  <ligand_id>  (179) 
52

>  <original_smiles>  (179) 
CCC(O)CC1OC1C1CC2C(=O)C=C3C2C(C1)C1(C)CCC2(C)CC(O)CCC2CC31

>  <smiles>  (179) 
[H]OC([H])(C([H])([H])C([H])([H])[H])C([H])([H])C1([H])OC1([H])C1([H])C([H])([H])C2=C3C([H])(C([H])([H])C2=O)C2([H])C([H])([H])C4([H])C([H])([H])C([H])([H])C([H])(O[H])C([H])([H])C4(C([H])([H])[H])C([H])([H])C([H])([H])C2(C([H])([H])[H])C3([H])C1([H])[H]

$$$$
52:1:1
     RDKit          3D

 74 79  0  0  1  0  0  0  0  0999 V2000
   -1.5966   -9.0638    2.3960 C   0  0  0  0  0  0  0  0  0  0  0  0
   -1.5195   -7.6452    2.9726 C   0  0  0  0  0  0  0  0  0  0  0  0
   -0.1710   -6.9387    2.7422 C   0  0  2  0  0  0  0  0  0  0  0  0
   -0.0305   -6.6579    1.3633 O   0  0  0  0  0  0  0  0  0  0  0  0
    1.0250   -7.7442    3.2798 C   0  0  0  0  0  0  0  0  0  0  0  0
    2.2647   -6.8988    3.4477 C   0  0  2  0  0  0  0  0  0  0  0  0
    3.1779   -7.3152    4.4743 O   0  0  0  0  0  0  0  0  0  0  0  0
    2.4980   -6.0707    4.6743 C   0  0  1  0  0  0  0  0  0  0  0  0
    3.3520   -4.8216    4.6460 C   0  0  2  0  0  0  0  0  0  0  0  0
    4.2318   -4.7003    5.9456 C   0  0  0  0  0  0  0  0  0  0  0  0
    4.5485   -3.2506    6.2365 C   0  0  0  0  0  0  0  0  0  0  0  0
    5.4442   -2.6415    7.2220 C   0  0  0  0  0  0  0  0  0  0  0  0
    6.0336   -3.1945    8.1414 O   0  0  0  0  0  0  0  0  0  0  0  0
    5.5591   -1.1300    6.8993 C   0  0  0  0  0  0  0  0  0  0  0  0
    4.2687   -0.9007    6.0821 C   0  0  2  0  0  0  0  0  0  0  0  0
    4.0637   -2.2441    5.5486 C   0  0  0  0  0  0  0  0  0  0  0  0
    3.3653   -2.3043    4.2588 C   0  0  1  0  0  0  0  0  0  0  0  0
    2.4704   -3.5620    4.3002 C   0  0  0  0  0  0  0  0  0  0  0  0
    2.9221   -0.8213    4.0248 C   0  0  1  0  0  0  0  0  0  0  0  0
    2.9827   -0.5647    2.5000 C   0  0  0  0  0  0  0  0  0  0  0  0
    1.4936   -0.6346    4.5968 C   0  0  0  0  0  0  0  0  0  0  0  0
    0.8124    0.7374    4.4324 C   0  0  0  0  0  0  0  0  0  0  0  0
    1.3172    1.9259    5.2909 C   0  0  2  0  0  0  0  0  0  0  0  0
    1.2616    1.5898    6.7968 C   0  0  0  0  0  0  0  0  0  0  0  0
    0.3447    3.1246    5.0897 C   0  0  0  0  0  0  0  0  0  0  0  0
    0.3714    3.7230    3.6732 C   0  0  1  0  0  0  0  0  0  0  0  0
   -0.4870    4.8415    3.6151 O   0  0  0  0  0  0  0  0  0  0  0  0
    1.7870    4.1635    3.2832 C   0  0  0  0  0  0  0  0  0  0  0  0
    2.8214    3.0449    3.4884 C   0  0  0  0  0  0  0  0  0  0  0  0
    2.7432    2.3980    4.8896 C   0  0  2  0  0  0  0  0  0  0  0  0
    3.9432    1.4710    5.2263 C   0  0  0  0  0  0  0  0  0  0  0  0
    4.0535   -0.0325    4.8256 C   0  0  1  0  0  0  0  0  0  0  0  0
   -2.5812   -9.4927    2.5789 H   0  0  0  0  0  0  0  0  0  0  0  0
   -0.8646   -9.7292    2.8574 H   0  0  0  0  0  0  0  0  0  0  0  0
   -1.4260   -9.0613    1.3195 H   0  0  0  0  0  0  0  0  0  0  0  0
   -2.3264   -7.0521    2.5446 H   0  0  0  0  0  0  0  0  0  0  0  0
   -1.7115   -7.6926    4.0451 H   0  0  0  0  0  0  0  0  0  0  0  0
   -0.1883   -5.9810    3.2643 H   0  0  0  0  0  0  0  0  0  0  0  0
    0.0484   -7.4894    0.9131 H   0  0  0  0  0  0  0  0  0  0  0  0
    0.7614   -8.1628    4.2539 H   0  0  0  0  0  0  0  0  0  0  0  0
    1.2711   -8.5866    2.6303 H   0  0  0  0  0  0  0  0  0  0  0  0
    2.7380   -6.5802    2.5203 H   0  0  0  0  0  0  0  0  0  0  0  0
    1.7313   -6.0929    5.4522 H   0  0  0  0  0  0  0  0  0  0  0  0
    4.0543   -4.9427    3.8183 H   0  0  0  0  0  0  0  0  0  0  0  0
    3.6856   -5.0750    6.8110 H   0  0  0  0  0  0  0  0  0  0  0  0
    5.1398   -5.2975    5.8637 H   0  0  0  0  0  0  0  0  0  0  0  0
    6.4589   -0.9500    6.3067 H   0  0  0  0  0  0  0  0  0  0  0  0
    5.5988   -0.5280    7.8052 H   0  0  0  0  0  0  0  0  0  0  0  0
    3.4449   -0.7429    6.7770 H   0  0  0  0  0  0  0  0  0  0  0  0
    4.1574   -2.5119    3.5417 H   0  0  0  0  0  0  0  0  0  0  0  0
    1.9739   -3.6981    3.3396 H   0  0  0  0  0  0  0  0  0  0  0  0
    1.6923   -3.4357    5.0566 H   0  0  0  0  0  0  0  0  0  0  0  0
    2.4672    0.3306    2.1776 H   0  0  0  0  0  0  0  0  0  0  0  0
    2.5249   -1.3822    1.9431 H   0  0  0  0  0  0  0  0  0  0  0  0
    4.0113   -0.4777    2.1477 H   0  0  0  0  0  0  0  0  0  0  0  0
    0.8548   -1.3395    4.0675 H   0  0  0  0  0  0  0  0  0  0  0  0
    1.4490   -0.9531    5.6386 H   0  0  0  0  0  0  0  0  0  0  0  0
    0.8074    1.0029    3.3776 H   0  0  0  0  0  0  0  0  0  0  0  0
   -0.2408    0.5849    4.6758 H   0  0  0  0  0  0  0  0  0  0  0  0
    1.5531    2.4536    7.3959 H   0  0  0  0  0  0  0  0  0  0  0  0
    1.9297    0.7810    7.0706 H   0  0  0  0  0  0  0  0  0  0  0  0
    0.2550    1.3076    7.1055 H   0  0  0  0  0  0  0  0  0  0  0  0
   -0.6784    2.8258    5.3304 H   0  0  0  0  0  0  0  0  0  0  0  0
    0.5904    3.9209    5.7947 H   0  0  0  0  0  0  0  0  0  0  0  0
   -0.0038    3.0070    2.9458 H   0  0  0  0  0  0  0  0  0  0  0  0
   -0.4978    5.0988    2.6992 H   0  0  0  0  0  0  0  0  0  0  0  0
    1.8200    4.4744    2.2370 H   0  0  0  0  0  0  0  0  0  0  0  0
    2.0779    5.0365    3.8681 H   0  0  0  0  0  0  0  0  0  0  0  0
    2.7076    2.3088    2.6981 H   0  0  0  0  0  0  0  0  0  0  0  0
    3.8023    3.4904    3.3515 H   0  0  0  0  0  0  0  0  0  0  0  0
    2.9353    3.2545    5.5392 H   0  0  0  0  0  0  0  0  0  0  0  0
    4.8294    1.9529    4.8171 H   0  0  0  0  0  0  0  0  0  0  0  0
    4.1136    1.5481    6.3010 H   0  0  0  0  0  0  0  0  0  0  0  0
    4.9730   -0.1215    4.2403 H   0  0  0  0  0  0  0  0  0  0  0  0
  1  2  1  0
  1 33  1  0
  1 34  1  0
  1 35  1  0
  2  3  1  0
  2 36  1  0
  2 37  1  0
  3  4  1  0
  3  5  1  0
  3 38  1  1
  4 39  1  0
  5  6  1  0
  5 40  1  0
  5 41  1  0
  6  8  1  0
  6  7  1  0
  6 42  1  6
  7  8  1  0
  8  9  1  0
  8 43  1  1
  9 18  1  0
  9 10  1  0
  9 44  1  6
 10 45  1  0
 10 46  1  0
 10 11  1  0
 11 12  1  0
 11 16  2  0
 12 14  1  0
 12 13  2  0
 14 15  1  0
 14 48  1  0
 14 47  1  0
 15 16  1  0
 15 32  1  0
 15 49  1  1
 16 17  1  0
 17 18  1  0
 17 19  1  0
 17 50  1  6
 18 51  1  0
 18 52  1  0
 19 32  1  0
 19 20  1  6
 19 21  1  0
 20 53  1  0
 20 54  1  0
 20 55  1  0
 21 22  1  0
 21 56  1  0
 21 57  1  0
 22 23  1  0
 22 58  1  0
 22 59  1  0
 23 30  1  0
 23 24  1  1
 23 25  1  0
 24 60  1  0
 24 61  1  0
 24 62  1  0
 25 26  1  0
 25 63  1  0
 25 64  1  0
 26 27  1  0
 26 28  1  0
 26 65  1  6
 27 66  1  0
 28 29  1  0
 28 67  1  0
 28 68  1  0
 29 30  1  0
 29 69  1  0
 29 70  1  0
 30 31  1  0
 30 71  1  1
 31 32  1  0
 31 72  1  0
 31 73  1  0
 32 74  1  6
M  END
>  <i_m_ct_stereo_status>  (180) 
1

>  <s_m_source_file>  (180) 
/var/tmp/pbs.5076255.sched01/tmpnx1894nc/68p53si2vm.sdf

>  <i_m_source_file_index>  (180) 
2

>  <i_lp_mmshare_version>  (180) 
48012

>  <i_f3d_flags>  (180) 
0

>  <s_epik_input>  (180) 
W0NIM11bQ0gyXVtDQEhdKFtPSF0pW0NIMl1bQ0BASF0xT1tDQEhdMVtDQEBIXShbQ0gyXTIpW0NIMl1bQ0BIXShbQ0BASF0zW0NAQEhdMltDQEBdNDVbQ0gzXSlDKD1PKVtDSF09QzNbQ0BASF01W0NIMl1bQ0BASF02W0NAXShbQ0gzXSkoW0NIMl1bQ0gyXTQpW0NIMl1bQ0BASF0oW09IXSlbQ0gyXVtDSDJdNg==

>  <s_epik_cmdline>  (180) 
J2VwaWtfcHl0aG9uJywgJy1waHQnLCAnMi4wJywgJy1waCcsICc3LjAnLCAnLXRuJywgJzgnLCAnLW1hJywgJzIwMCcsICctaW1hZScsICc8aW5maWxlLm1hZT4nLCAnLW9tYWUnLCAnPG91dGZpbGUubWFlPic=

>  <r_lp_tautomer_probability>  (180) 
0.499977

>  <r_epik_Ionization_Penalty>  (180) 
2.11287e-06

>  <r_epik_Ionization_Penalty_Charging>  (180) 
0

>  <r_epik_Ionization_Penalty_Neutral>  (180) 
2.11287e-06

>  <r_epik_State_Penalty>  (180) 
0.41068

>  <r_epik_Charging_Adjusted_Penalty>  (180) 
0.41068

>  <i_epik_Tot_Q>  (180) 
0

>  <i_epik_Tot_abs_Q>  (180) 
0

>  <s_lp_Force_Field>  (180) 
OPLS3e

>  <r_lp_Energy>  (180) 
65.5705

>  <b_lp_Chiralities_Consistent>  (180) 
1

>  <s_lp_Variant>  (180) 
52:0-2

>  <s_i_glide_gridfile>  (180) 
pfpi4k_grid

>  <i_i_glide_lignum>  (180) 
2

>  <i_i_glide_rotatable_bonds>  (180) 
6

>  <r_i_docking_score>  (180) 
-2.7236

>  <r_i_glide_ligand_efficiency>  (180) 
-0.0851124

>  <r_i_glide_ligand_efficiency_sa>  (180) 
-0.270215

>  <r_i_glide_ligand_efficiency_ln>  (180) 
-0.609887

>  <r_i_glide_gscore>  (180) 
-2.7236

>  <r_i_glide_lipo>  (180) 
-0.278198

>  <r_i_glide_hbond>  (180) 
-0.28421

>  <r_i_glide_metal>  (180) 
-0

>  <r_i_glide_rewards>  (180) 
-0.393973

>  <r_i_glide_evdw>  (180) 
-19.5135

>  <r_i_glide_ecoul>  (180) 
-7.31704

>  <r_i_glide_erotb>  (180) 
0.306014

>  <r_i_glide_esite>  (180) 
0

>  <r_i_glide_emodel>  (180) 
-30.7954

>  <r_i_glide_energy>  (180) 
-26.8305

>  <r_i_glide_einternal>  (180) 
2.66204

>  <r_i_glide_intrahb_reward>  (180) 
-0

>  <i_i_glide_confnum>  (180) 
1

>  <i_i_glide_posenum>  (180) 
1

>  <r_i_glide_eff_state_penalty>  (180) 
0

>  <ligand_id>  (180) 
52

>  <original_smiles>  (180) 
CCC(O)CC1OC1C1CC2C(=O)C=C3C2C(C1)C1(C)CCC2(C)CC(O)CCC2CC31

>  <smiles>  (180) 
[H]OC([H])(C([H])([H])C([H])([H])[H])C([H])([H])C1([H])OC1([H])C1([H])C([H])([H])C2=C3C([H])(C([H])([H])C2=O)C2([H])C([H])([H])C4([H])C([H])([H])C([H])([H])C([H])(O[H])C([H])([H])C4(C([H])([H])[H])C([H])([H])C([H])([H])C2(C([H])([H])[H])C3([H])C1([H])[H]

$$$$
52:1:2
     RDKit          3D

 74 79  0  0  1  0  0  0  0  0999 V2000
   -2.3028    2.5312    2.9180 C   0  0  0  0  0  0  0  0  0  0  0  0
   -1.7943    1.7756    4.1597 C   0  0  0  0  0  0  0  0  0  0  0  0
   -0.4742    1.0158    3.9401 C   0  0  2  0  0  0  0  0  0  0  0  0
   -0.0912    0.4760    5.1886 O   0  0  0  0  0  0  0  0  0  0  0  0
    0.6453    1.9192    3.3961 C   0  0  0  0  0  0  0  0  0  0  0  0
    1.9438    1.1854    3.1814 C   0  0  2  0  0  0  0  0  0  0  0  0
    2.7308    1.6511    2.0763 O   0  0  0  0  0  0  0  0  0  0  0  0
    2.1753    0.3384    1.9705 C   0  0  1  0  0  0  0  0  0  0  0  0
    3.1562   -0.8133    1.9918 C   0  0  2  0  0  0  0  0  0  0  0  0
    3.7751   -1.0751    0.5664 C   0  0  0  0  0  0  0  0  0  0  0  0
    4.1718   -2.5269    0.4210 C   0  0  0  0  0  0  0  0  0  0  0  0
    4.9154   -3.2188   -0.6341 C   0  0  0  0  0  0  0  0  0  0  0  0
    5.2719   -2.7742   -1.7196 O   0  0  0  0  0  0  0  0  0  0  0  0
    5.2435   -4.6474   -0.1313 C   0  0  0  0  0  0  0  0  0  0  0  0
    4.1745   -4.8405    0.9675 C   0  0  2  0  0  0  0  0  0  0  0  0
    3.9391   -3.4449    1.3331 C   0  0  0  0  0  0  0  0  0  0  0  0
    3.5126   -3.2261    2.7210 C   0  0  1  0  0  0  0  0  0  0  0  0
    2.4987   -2.0629    2.6896 C   0  0  0  0  0  0  0  0  0  0  0  0
    3.2821   -4.6766    3.2588 C   0  0  1  0  0  0  0  0  0  0  0  0
    3.6698   -4.6764    4.7559 C   0  0  0  0  0  0  0  0  0  0  0  0
    1.7948   -5.0547    3.0404 C   0  0  0  0  0  0  0  0  0  0  0  0
    1.3060   -6.4258    3.5454 C   0  0  0  0  0  0  0  0  0  0  0  0
    1.7574   -7.6957    2.7871 C   0  0  2  0  0  0  0  0  0  0  0  0
    1.3643   -7.6147    1.2992 C   0  0  0  0  0  0  0  0  0  0  0  0
    0.9703   -8.9124    3.3497 C   0  0  0  0  0  0  0  0  0  0  0  0
    1.3251   -9.2731    4.7987 C   0  0  1  0  0  0  0  0  0  0  0  0
    0.6112  -10.4469    5.1532 O   0  0  0  0  0  0  0  0  0  0  0  0
    2.8348   -9.5351    4.9425 C   0  0  0  0  0  0  0  0  0  0  0  0
    3.6998   -8.3987    4.3631 C   0  0  0  0  0  0  0  0  0  0  0  0
    3.2783   -7.9982    2.9342 C   0  0  2  0  0  0  0  0  0  0  0  0
    4.2853   -7.0571    2.2163 C   0  0  0  0  0  0  0  0  0  0  0  0
    4.3074   -5.5026    2.3573 C   0  0  1  0  0  0  0  0  0  0  0  0
   -3.2495    3.0301    3.1279 H   0  0  0  0  0  0  0  0  0  0  0  0
   -2.4578    1.8464    2.0824 H   0  0  0  0  0  0  0  0  0  0  0  0
   -1.6060    3.3027    2.5841 H   0  0  0  0  0  0  0  0  0  0  0  0
   -1.6771    2.4794    4.9828 H   0  0  0  0  0  0  0  0  0  0  0  0
   -2.5525    1.0620    4.4823 H   0  0  0  0  0  0  0  0  0  0  0  0
   -0.6338    0.1868    3.2491 H   0  0  0  0  0  0  0  0  0  0  0  0
    0.8064    0.1867    5.1254 H   0  0  0  0  0  0  0  0  0  0  0  0
    0.3558    2.3274    2.4275 H   0  0  0  0  0  0  0  0  0  0  0  0
    0.8292    2.7657    4.0584 H   0  0  0  0  0  0  0  0  0  0  0  0
    2.5100    0.9582    4.0857 H   0  0  0  0  0  0  0  0  0  0  0  0
    1.3569    0.2517    1.2561 H   0  0  0  0  0  0  0  0  0  0  0  0
    3.9834   -0.5053    2.6315 H   0  0  0  0  0  0  0  0  0  0  0  0
    3.0316   -0.8879   -0.2066 H   0  0  0  0  0  0  0  0  0  0  0  0
    4.6128   -0.4071    0.3696 H   0  0  0  0  0  0  0  0  0  0  0  0
    6.2570   -4.6684    0.2803 H   0  0  0  0  0  0  0  0  0  0  0  0
    5.1620   -5.3916   -0.9230 H   0  0  0  0  0  0  0  0  0  0  0  0
    3.2498   -5.1701    0.4956 H   0  0  0  0  0  0  0  0  0  0  0  0
    4.4034   -2.8465    3.2176 H   0  0  0  0  0  0  0  0  0  0  0  0
    2.1904   -1.8115    3.7033 H   0  0  0  0  0  0  0  0  0  0  0  0
    1.6016   -2.3605    2.1417 H   0  0  0  0  0  0  0  0  0  0  0  0
    3.3256   -5.5422    5.3065 H   0  0  0  0  0  0  0  0  0  0  0  0
    3.2488   -3.8139    5.2715 H   0  0  0  0  0  0  0  0  0  0  0  0
    4.7512   -4.6299    4.8906 H   0  0  0  0  0  0  0  0  0  0  0  0
    1.2006   -4.3200    3.5818 H   0  0  0  0  0  0  0  0  0  0  0  0
    1.5155   -4.9206    1.9958 H   0  0  0  0  0  0  0  0  0  0  0  0
    1.5399   -6.5162    4.6022 H   0  0  0  0  0  0  0  0  0  0  0  0
    0.2153   -6.3970    3.5088 H   0  0  0  0  0  0  0  0  0  0  0  0
    1.6273   -8.5638    0.8359 H   0  0  0  0  0  0  0  0  0  0  0  0
    1.8804   -6.8240    0.7635 H   0  0  0  0  0  0  0  0  0  0  0  0
    0.2907   -7.4720    1.1621 H   0  0  0  0  0  0  0  0  0  0  0  0
   -0.1031   -8.7354    3.2757 H   0  0  0  0  0  0  0  0  0  0  0  0
    1.1601   -9.7897    2.7303 H   0  0  0  0  0  0  0  0  0  0  0  0
    1.0300   -8.4718    5.4742 H   0  0  0  0  0  0  0  0  0  0  0  0
   -0.3261  -10.3351    5.0632 H   0  0  0  0  0  0  0  0  0  0  0  0
    3.0832   -9.6801    5.9952 H   0  0  0  0  0  0  0  0  0  0  0  0
    3.0904  -10.4684    4.4410 H   0  0  0  0  0  0  0  0  0  0  0  0
    3.6651   -7.5544    5.0381 H   0  0  0  0  0  0  0  0  0  0  0  0
    4.7402   -8.7290    4.3562 H   0  0  0  0  0  0  0  0  0  0  0  0
    3.4199   -8.9322    2.3850 H   0  0  0  0  0  0  0  0  0  0  0  0
    5.2811   -7.4017    2.4986 H   0  0  0  0  0  0  0  0  0  0  0  0
    4.2444   -7.2975    1.1528 H   0  0  0  0  0  0  0  0  0  0  0  0
    5.3095   -5.2512    2.7154 H   0  0  0  0  0  0  0  0  0  0  0  0
  1  2  1  0
  1 33  1  0
  1 34  1  0
  1 35  1  0
  2  3  1  0
  2 36  1  0
  2 37  1  0
  3  4  1  0
  3  5  1  0
  3 38  1  6
  4 39  1  0
  5  6  1  0
  5 40  1  0
  5 41  1  0
  6  8  1  0
  6  7  1  0
  6 42  1  1
  7  8  1  0
  8  9  1  0
  8 43  1  6
  9 18  1  0
  9 10  1  0
  9 44  1  1
 10 45  1  0
 10 46  1  0
 10 11  1  0
 11 12  1  0
 11 16  2  0
 12 14  1  0
 12 13  2  0
 14 15  1  0
 14 48  1  0
 14 47  1  0
 15 16  1  0
 15 32  1  0
 15 49  1  6
 16 17  1  0
 17 18  1  0
 17 19  1  0
 17 50  1  1
 18 51  1  0
 18 52  1  0
 19 32  1  0
 19 20  1  1
 19 21  1  0
 20 53  1  0
 20 54  1  0
 20 55  1  0
 21 22  1  0
 21 56  1  0
 21 57  1  0
 22 23  1  0
 22 58  1  0
 22 59  1  0
 23 30  1  0
 23 24  1  6
 23 25  1  0
 24 60  1  0
 24 61  1  0
 24 62  1  0
 25 26  1  0
 25 63  1  0
 25 64  1  0
 26 27  1  0
 26 28  1  0
 26 65  1  1
 27 66  1  0
 28 29  1  0
 28 67  1  0
 28 68  1  0
 29 30  1  0
 29 69  1  0
 29 70  1  0
 30 31  1  0
 30 71  1  6
 31 32  1  0
 31 72  1  0
 31 73  1  0
 32 74  1  1
M  END
>  <i_m_ct_stereo_status>  (181) 
1

>  <s_m_source_file>  (181) 
/var/tmp/pbs.5076255.sched01/tmpnx1894nc/68p53si2vm.sdf

>  <i_m_source_file_index>  (181) 
2

>  <i_lp_mmshare_version>  (181) 
48012

>  <i_f3d_flags>  (181) 
0

>  <s_epik_input>  (181) 
W0NIM11bQ0gyXVtDQEhdKFtPSF0pW0NIMl1bQ0BASF0xT1tDQEhdMVtDQEBIXShbQ0gyXTIpW0NIMl1bQ0BIXShbQ0BASF0zW0NAQEhdMltDQEBdNDVbQ0gzXSlDKD1PKVtDSF09QzNbQ0BASF01W0NIMl1bQ0BASF02W0NAXShbQ0gzXSkoW0NIMl1bQ0gyXTQpW0NIMl1bQ0BASF0oW09IXSlbQ0gyXVtDSDJdNg==

>  <s_epik_cmdline>  (181) 
J2VwaWtfcHl0aG9uJywgJy1waHQnLCAnMi4wJywgJy1waCcsICc3LjAnLCAnLXRuJywgJzgnLCAnLW1hJywgJzIwMCcsICctaW1hZScsICc8aW5maWxlLm1hZT4nLCAnLW9tYWUnLCAnPG91dGZpbGUubWFlPic=

>  <r_lp_tautomer_probability>  (181) 
0.499977

>  <r_epik_Ionization_Penalty>  (181) 
2.11287e-06

>  <r_epik_Ionization_Penalty_Charging>  (181) 
0

>  <r_epik_Ionization_Penalty_Neutral>  (181) 
2.11287e-06

>  <r_epik_State_Penalty>  (181) 
0.41068

>  <r_epik_Charging_Adjusted_Penalty>  (181) 
0.41068

>  <i_epik_Tot_Q>  (181) 
0

>  <i_epik_Tot_abs_Q>  (181) 
0

>  <s_lp_Force_Field>  (181) 
OPLS3e

>  <r_lp_Energy>  (181) 
65.5705

>  <b_lp_Chiralities_Consistent>  (181) 
1

>  <s_lp_Variant>  (181) 
52:0-2

>  <s_i_glide_gridfile>  (181) 
pfpi4k_grid

>  <i_i_glide_lignum>  (181) 
2

>  <i_i_glide_rotatable_bonds>  (181) 
6

>  <r_i_docking_score>  (181) 
-2.08377

>  <r_i_glide_ligand_efficiency>  (181) 
-0.0651179

>  <r_i_glide_ligand_efficiency_sa>  (181) 
-0.206736

>  <r_i_glide_ligand_efficiency_ln>  (181) 
-0.466613

>  <r_i_glide_gscore>  (181) 
-2.08377

>  <r_i_glide_lipo>  (181) 
-0.0982239

>  <r_i_glide_hbond>  (181) 
-0.16

>  <r_i_glide_metal>  (181) 
-0

>  <r_i_glide_rewards>  (181) 
-0.442187

>  <r_i_glide_evdw>  (181) 
-24.8731

>  <r_i_glide_ecoul>  (181) 
-2.97148

>  <r_i_glide_erotb>  (181) 
0.306014

>  <r_i_glide_esite>  (181) 
0

>  <r_i_glide_emodel>  (181) 
-30.1767

>  <r_i_glide_energy>  (181) 
-27.8446

>  <r_i_glide_einternal>  (181) 
3.02717

>  <r_i_glide_intrahb_reward>  (181) 
-0

>  <i_i_glide_confnum>  (181) 
3

>  <i_i_glide_posenum>  (181) 
5

>  <r_i_glide_eff_state_penalty>  (181) 
0

>  <ligand_id>  (181) 
52

>  <original_smiles>  (181) 
CCC(O)CC1OC1C1CC2C(=O)C=C3C2C(C1)C1(C)CCC2(C)CC(O)CCC2CC31

>  <smiles>  (181) 
[H]OC([H])(C([H])([H])C([H])([H])[H])C([H])([H])C1([H])OC1([H])C1([H])C([H])([H])C2=C3C([H])(C([H])([H])C2=O)C2([H])C([H])([H])C4([H])C([H])([H])C([H])([H])C([H])(O[H])C([H])([H])C4(C([H])([H])[H])C([H])([H])C([H])([H])C2(C([H])([H])[H])C3([H])C1([H])[H]

$$$$
53:0:0
     RDKit          3D

 85 90  0  0  1  0  0  0  0  0999 V2000
    5.0259   -8.2199    1.5208 C   0  0  0  0  0  0  0  0  0  0  0  0
    4.5487   -6.9806    1.8026 C   0  0  0  0  0  0  0  0  0  0  0  0
    3.4906   -6.2557    0.9894 C   0  0  2  0  0  0  0  0  0  0  0  0
    4.0976   -5.2279    0.0096 C   0  0  0  0  0  0  0  0  0  0  0  0
    5.1597   -4.3655    0.7364 C   0  0  1  0  0  0  0  0  0  0  0  0
    5.7665   -3.4055   -0.1314 O   0  0  0  0  0  0  0  0  0  0  0  0
    7.1034   -3.2309   -0.1376 C   0  0  0  0  0  0  0  0  0  0  0  0
    7.9632   -4.1610    0.7600 C   0  0  0  0  0  0  0  0  0  0  0  0
    7.6314   -2.3489   -0.8257 O   0  0  0  0  0  0  0  0  0  0  0  0
    4.6114   -3.7909    2.1094 C   0  0  1  0  0  0  0  0  0  0  0  0
    3.7080   -2.5226    2.0344 C   0  0  2  0  0  0  0  0  0  0  0  0
    4.2714   -1.3327    1.1785 C   0  0  1  0  0  0  0  0  0  0  0  0
    3.6317   -1.3472   -0.1102 O   0  0  0  0  0  0  0  0  0  0  0  0
    4.3526   -1.2021   -1.2500 C   0  0  0  0  0  0  0  0  0  0  0  0
    3.3661   -1.3353   -2.4800 C   0  0  0  0  0  0  0  0  0  0  0  0
    5.5430   -0.9900   -1.2619 O   0  0  0  0  0  0  0  0  0  0  0  0
    4.0753    0.0439    1.8515 C   0  0  2  0  0  0  0  0  0  0  0  0
    4.6528    0.0688    3.2694 C   0  0  0  0  0  0  0  0  0  0  0  0
    3.2935   -0.5164    3.6377 C   0  0  2  0  0  0  0  0  0  0  0  0
    3.1617   -2.0535    3.4476 C   0  0  2  0  0  0  0  0  0  0  0  0
    3.5933   -2.9019    4.7000 C   0  0  0  0  0  0  0  0  0  0  0  0
    5.0337   -2.6027    5.1849 C   0  0  0  0  0  0  0  0  0  0  0  0
    2.7095   -2.5372    5.9231 C   0  0  0  0  0  0  0  0  0  0  0  0
    3.4070   -4.4304    4.3875 C   0  0  1  0  0  0  0  0  0  0  0  0
    2.0260   -4.7860    4.5713 O   0  0  0  0  0  0  0  0  0  0  0  0
    1.7772   -6.0336    5.1625 C   0  0  2  0  0  0  0  0  0  0  0  0
    0.3055   -6.3941    5.0282 C   0  0  0  0  0  0  0  0  0  0  0  0
   -0.0014   -6.9603    6.2794 O   0  0  0  0  0  0  0  0  0  0  0  0
    0.8289   -6.3003    7.1764 C   0  0  0  0  0  0  0  0  0  0  0  0
    0.1577   -4.9848    7.6054 C   0  0  0  0  0  0  0  0  0  0  0  0
    1.1239   -7.2090    8.3782 C   0  0  0  0  0  0  0  0  0  0  0  0
    2.0204   -6.0107    6.5378 O   0  0  0  0  0  0  0  0  0  0  0  0
    3.9158   -4.9277    2.9677 C   0  0  1  0  0  0  0  0  0  0  0  0
    2.7571   -5.5043    2.0950 C   0  0  0  0  0  0  0  0  0  0  0  0
    4.8982   -6.1589    3.0380 C   0  0  1  0  0  0  0  0  0  0  0  0
    4.8383   -6.9773    4.1961 O   0  0  0  0  0  0  0  0  0  0  0  0
    2.7218    0.3779    2.5127 C   0  0  0  0  0  0  0  0  0  0  0  0
    2.4553    1.8580    2.8619 C   0  0  0  0  0  0  0  0  0  0  0  0
    1.4463   -0.0516    1.7957 C   0  0  0  0  0  0  0  0  0  0  0  0
    5.7430   -8.6856    2.1697 H   0  0  0  0  0  0  0  0  0  0  0  0
    4.6784   -8.7350    0.6554 H   0  0  0  0  0  0  0  0  0  0  0  0
    2.8419   -6.9715    0.4898 H   0  0  0  0  0  0  0  0  0  0  0  0
    4.6146   -5.7512   -0.7896 H   0  0  0  0  0  0  0  0  0  0  0  0
    3.3064   -4.6257   -0.4472 H   0  0  0  0  0  0  0  0  0  0  0  0
    5.9486   -5.1058    0.9991 H   0  0  0  0  0  0  0  0  0  0  0  0
    7.7380   -4.0202    1.8265 H   0  0  0  0  0  0  0  0  0  0  0  0
    9.0410   -3.9576    0.6738 H   0  0  0  0  0  0  0  0  0  0  0  0
    7.7978   -5.2297    0.5226 H   0  0  0  0  0  0  0  0  0  0  0  0
    5.5233   -3.4816    2.6032 H   0  0  0  0  0  0  0  0  0  0  0  0
    2.8177   -2.8236    1.4877 H   0  0  0  0  0  0  0  0  0  0  0  0
    5.3493   -1.4582    1.0453 H   0  0  0  0  0  0  0  0  0  0  0  0
    2.6943   -2.2145   -2.4031 H   0  0  0  0  0  0  0  0  0  0  0  0
    3.9553   -1.4741   -3.3802 H   0  0  0  0  0  0  0  0  0  0  0  0
    2.7165   -0.4557   -2.6392 H   0  0  0  0  0  0  0  0  0  0  0  0
    4.4367    0.8580    1.2365 H   0  0  0  0  0  0  0  0  0  0  0  0
    5.5098   -0.5853    3.4188 H   0  0  0  0  0  0  0  0  0  0  0  0
    4.8290    1.0553    3.6999 H   0  0  0  0  0  0  0  0  0  0  0  0
    2.9435   -0.1655    4.6004 H   0  0  0  0  0  0  0  0  0  0  0  0
    2.0844   -2.2463    3.3874 H   0  0  0  0  0  0  0  0  0  0  0  0
    5.3250   -3.2684    5.9938 H   0  0  0  0  0  0  0  0  0  0  0  0
    5.1197   -1.5866    5.5726 H   0  0  0  0  0  0  0  0  0  0  0  0
    5.7896   -2.6936    4.4191 H   0  0  0  0  0  0  0  0  0  0  0  0
    2.8793   -3.2472    6.7331 H   0  0  0  0  0  0  0  0  0  0  0  0
    1.6523   -2.5533    5.6815 H   0  0  0  0  0  0  0  0  0  0  0  0
    2.9439   -1.5488    6.3092 H   0  0  0  0  0  0  0  0  0  0  0  0
    3.9581   -4.9195    5.1887 H   0  0  0  0  0  0  0  0  0  0  0  0
    2.3914   -6.8276    4.7315 H   0  0  0  0  0  0  0  0  0  0  0  0
   -0.2846   -5.4957    4.8769 H   0  0  0  0  0  0  0  0  0  0  0  0
    0.1639   -7.0649    4.1777 H   0  0  0  0  0  0  0  0  0  0  0  0
   -0.0364   -4.3157    6.7560 H   0  0  0  0  0  0  0  0  0  0  0  0
    0.8054   -4.4603    8.3115 H   0  0  0  0  0  0  0  0  0  0  0  0
   -0.7907   -5.2249    8.0799 H   0  0  0  0  0  0  0  0  0  0  0  0
    1.5885   -8.1569    8.0842 H   0  0  0  0  0  0  0  0  0  0  0  0
    0.2004   -7.4257    8.9059 H   0  0  0  0  0  0  0  0  0  0  0  0
    1.7952   -6.6926    9.0661 H   0  0  0  0  0  0  0  0  0  0  0  0
    2.0567   -4.7523    1.7193 H   0  0  0  0  0  0  0  0  0  0  0  0
    2.1585   -6.2547    2.6122 H   0  0  0  0  0  0  0  0  0  0  0  0
    5.9460   -5.8414    3.0009 H   0  0  0  0  0  0  0  0  0  0  0  0
    3.9769   -7.3611    4.2306 H   0  0  0  0  0  0  0  0  0  0  0  0
    1.5662    1.9565    3.4886 H   0  0  0  0  0  0  0  0  0  0  0  0
    2.2587    2.4432    1.9666 H   0  0  0  0  0  0  0  0  0  0  0  0
    3.2593    2.3671    3.3932 H   0  0  0  0  0  0  0  0  0  0  0  0
    1.2834    0.5797    0.9178 H   0  0  0  0  0  0  0  0  0  0  0  0
    0.5717    0.0337    2.4409 H   0  0  0  0  0  0  0  0  0  0  0  0
    1.4990   -1.0746    1.4556 H   0  0  0  0  0  0  0  0  0  0  0  0
  1  2  2  0
  1 40  1  0
  1 41  1  0
  2 35  1  0
  2  3  1  0
  3 34  1  0
  3  4  1  0
  3 42  1  6
  4  5  1  0
  4 43  1  0
  4 44  1  0
  5  6  1  0
  5 10  1  0
  5 45  1  1
  6  7  1  0
  7  8  1  0
  7  9  2  0
  8 46  1  0
  8 47  1  0
  8 48  1  0
 10 33  1  0
 10 11  1  0
 10 49  1  1
 11 20  1  0
 11 12  1  0
 11 50  1  6
 12 13  1  0
 12 17  1  0
 12 51  1  6
 13 14  1  0
 14 15  1  0
 14 16  2  0
 15 52  1  0
 15 53  1  0
 15 54  1  0
 17 37  1  0
 17 18  1  0
 17 55  1  6
 18 19  1  0
 18 56  1  0
 18 57  1  0
 19 20  1  0
 19 37  1  0
 19 58  1  1
 20 21  1  0
 20 59  1  6
 21 22  1  0
 21 23  1  0
 21 24  1  0
 22 60  1  0
 22 61  1  0
 22 62  1  0
 23 63  1  0
 23 64  1  0
 23 65  1  0
 24 25  1  0
 24 33  1  0
 24 66  1  1
 25 26  1  0
 26 32  1  0
 26 27  1  0
 26 67  1  6
 27 28  1  0
 27 68  1  0
 27 69  1  0
 28 29  1  0
 29 30  1  0
 29 31  1  0
 29 32  1  0
 30 70  1  0
 30 71  1  0
 30 72  1  0
 31 73  1  0
 31 74  1  0
 31 75  1  0
 33 34  1  6
 33 35  1  0
 34 76  1  0
 34 77  1  0
 35 36  1  0
 35 78  1  6
 36 79  1  0
 37 38  1  0
 37 39  1  0
 38 80  1  0
 38 81  1  0
 38 82  1  0
 39 83  1  0
 39 84  1  0
 39 85  1  0
M  END
>  <i_m_ct_stereo_status>  (182) 
1

>  <s_m_source_file>  (182) 
/var/tmp/pbs.5076255.sched01/tmpnx1894nc/68p53si2vm.sdf

>  <i_m_source_file_index>  (182) 
3

>  <i_lp_mmshare_version>  (182) 
48012

>  <i_f3d_flags>  (182) 
0

>  <s_epik_input>  (182) 
W09IXVtDQEhdMUMoPVtDSDJdKVtDQEBIXShbQ0gyXTIpW0NIMl1bQ0BASF0oT0MoPU8pW0NIM10pW0NASF0oW0NAXTEyMylbQ0BIXTRbQ0BIXShbQ0BIXTVbQ0gyXVtDQEhdKEM1KFtDSDNdKVtDSDNdKVtDQEBIXTRPQyg9TylbQ0gzXSlDKFtDSDNdKShbQ0gzXSlbQ0BIXTNPW0NAQEhdKE82KVtDSDJdT0M2KFtDSDNdKVtDSDNd

>  <s_epik_cmdline>  (182) 
J2VwaWtfcHl0aG9uJywgJy1waHQnLCAnMi4wJywgJy1waCcsICc3LjAnLCAnLXRuJywgJzgnLCAnLW1hJywgJzIwMCcsICctaW1hZScsICc8aW5maWxlLm1hZT4nLCAnLW9tYWUnLCAnPG91dGZpbGUubWFlPic=

>  <r_lp_tautomer_probability>  (182) 
1

>  <r_epik_Ionization_Penalty>  (182) 
4.29143e-08

>  <r_epik_Ionization_Penalty_Charging>  (182) 
0

>  <r_epik_Ionization_Penalty_Neutral>  (182) 
4.29143e-08

>  <r_epik_State_Penalty>  (182) 
-0

>  <r_epik_Charging_Adjusted_Penalty>  (182) 
0

>  <i_epik_Tot_Q>  (182) 
0

>  <i_epik_Tot_abs_Q>  (182) 
0

>  <s_epik_Chemistry_Notes>  (182) 
This compound has an ester and may undergo hydrolysis at high or low pH. This compound contains an acetal/aminal-like group ( X-CH(R)-Y where X, Y are N, S, or O) that may be acid/base labile, releasing an aldehyde.

>  <s_lp_Force_Field>  (182) 
OPLS3e

>  <r_lp_Energy>  (182) 
84.3463

>  <b_lp_Chiralities_Consistent>  (182) 
1

>  <s_lp_Variant>  (182) 
53:0-1

>  <s_i_glide_gridfile>  (182) 
pfpi4k_grid

>  <i_i_glide_lignum>  (182) 
3

>  <i_i_glide_rotatable_bonds>  (182) 
7

>  <r_i_docking_score>  (182) 
-2.44331

>  <r_i_glide_ligand_efficiency>  (182) 
-0.0626489

>  <r_i_glide_ligand_efficiency_sa>  (182) 
-0.212456

>  <r_i_glide_ligand_efficiency_ln>  (182) 
-0.523915

>  <r_i_glide_gscore>  (182) 
-2.44331

>  <r_i_glide_lipo>  (182) 
-0.490364

>  <r_i_glide_hbond>  (182) 
-0.183604

>  <r_i_glide_metal>  (182) 
-0

>  <r_i_glide_rewards>  (182) 
-0.180961

>  <r_i_glide_evdw>  (182) 
-28.293

>  <r_i_glide_ecoul>  (182) 
-2.69411

>  <r_i_glide_erotb>  (182) 
0.277195

>  <r_i_glide_esite>  (182) 
-0.0468058

>  <r_i_glide_emodel>  (182) 
-30.757

>  <r_i_glide_energy>  (182) 
-30.9871

>  <r_i_glide_einternal>  (182) 
5.6317

>  <r_i_glide_intrahb_reward>  (182) 
-0

>  <i_i_glide_confnum>  (182) 
2

>  <i_i_glide_posenum>  (182) 
21

>  <r_i_glide_eff_state_penalty>  (182) 
0

>  <ligand_id>  (182) 
53

>  <original_smiles>  (182) 
C=C1C2CC(OC(C)=O)C3C4C(OC(C)=O)C5CC(C4C(C)(C)C(OC4COC(C)(C)O4)C3(C2)C1O)C5(C)C

>  <smiles>  (182) 
[H]OC1([H])C(=C([H])[H])C2([H])C([H])([H])C([H])(OC(=O)C([H])([H])[H])C3([H])C4([H])C([H])(OC(=O)C([H])([H])[H])C5([H])C([H])([H])C([H])(C4([H])C(C([H])([H])[H])(C([H])([H])[H])C([H])(OC4([H])OC(C([H])([H])[H])(C([H])([H])[H])OC4([H])[H])C13C2([H])[H])C5(C([H])([H])[H])C([H])([H])[H]

$$$$
53:0:1
     RDKit          3D

 85 90  0  0  1  0  0  0  0  0999 V2000
    5.0235  -10.1698    3.1050 C   0  0  0  0  0  0  0  0  0  0  0  0
    4.7279   -8.9000    2.8064 C   0  0  0  0  0  0  0  0  0  0  0  0
    4.6729   -8.3202    1.4002 C   0  0  2  0  0  0  0  0  0  0  0  0
    5.9250   -7.5423    1.0524 C   0  0  0  0  0  0  0  0  0  0  0  0
    6.2772   -6.5417    2.1602 C   0  0  1  0  0  0  0  0  0  0  0  0
    7.4788   -5.8542    1.7937 O   0  0  0  0  0  0  0  0  0  0  0  0
    8.6051   -6.0119    2.5338 C   0  0  0  0  0  0  0  0  0  0  0  0
    9.8540   -5.4372    1.8605 C   0  0  0  0  0  0  0  0  0  0  0  0
    8.6707   -6.5692    3.6162 O   0  0  0  0  0  0  0  0  0  0  0  0
    5.0528   -5.6850    2.6535 C   0  0  1  0  0  0  0  0  0  0  0  0
    4.6598   -4.4392    1.7866 C   0  0  2  0  0  0  0  0  0  0  0  0
    5.8246   -3.4306    1.4420 C   0  0  1  0  0  0  0  0  0  0  0  0
    6.2646   -3.6191    0.0912 O   0  0  0  0  0  0  0  0  0  0  0  0
    7.3770   -3.0198   -0.4546 C   0  0  0  0  0  0  0  0  0  0  0  0
    8.3584   -2.4083    0.5547 C   0  0  0  0  0  0  0  0  0  0  0  0
    7.6122   -2.9984   -1.6456 O   0  0  0  0  0  0  0  0  0  0  0  0
    5.3964   -1.9650    1.6363 C   0  0  2  0  0  0  0  0  0  0  0  0
    4.8262   -1.6844    3.0079 C   0  0  0  0  0  0  0  0  0  0  0  0
    3.5391   -2.1718    2.3368 C   0  0  2  0  0  0  0  0  0  0  0  0
    3.3513   -3.7060    2.3026 C   0  0  2  0  0  0  0  0  0  0  0  0
    2.6737   -4.2890    3.5850 C   0  0  0  0  0  0  0  0  0  0  0  0
    3.4099   -3.9219    4.9093 C   0  0  0  0  0  0  0  0  0  0  0  0
    1.2677   -3.6510    3.7739 C   0  0  0  0  0  0  0  0  0  0  0  0
    2.5099   -5.8444    3.4094 C   0  0  1  0  0  0  0  0  0  0  0  0
    1.3094   -6.1376    2.6482 O   0  0  0  0  0  0  0  0  0  0  0  0
    0.6786   -7.3817    2.8459 C   0  0  2  0  0  0  0  0  0  0  0  0
   -0.7573   -7.3442    2.3503 C   0  0  0  0  0  0  0  0  0  0  0  0
   -1.4559   -8.1004    3.3234 O   0  0  0  0  0  0  0  0  0  0  0  0
   -0.7297   -7.8341    4.4862 C   0  0  0  0  0  0  0  0  0  0  0  0
   -1.1990   -6.5254    5.0880 C   0  0  0  0  0  0  0  0  0  0  0  0
   -0.8252   -8.9695    5.4797 C   0  0  0  0  0  0  0  0  0  0  0  0
    0.5837   -7.6763    4.1814 O   0  0  0  0  0  0  0  0  0  0  0  0
    3.7898   -6.6331    2.8688 C   0  0  1  0  0  0  0  0  0  0  0  0
    3.5407   -7.3333    1.4967 C   0  0  0  0  0  0  0  0  0  0  0  0
    4.2381   -7.8381    3.7856 C   0  0  1  0  0  0  0  0  0  0  0  0
    3.2343   -8.3931    4.6193 O   0  0  0  0  0  0  0  0  0  0  0  0
    4.0642   -1.5081    1.0400 C   0  0  0  0  0  0  0  0  0  0  0  0
    3.8875    0.0132    0.8949 C   0  0  0  0  0  0  0  0  0  0  0  0
    3.6495   -2.0854   -0.3367 C   0  0  0  0  0  0  0  0  0  0  0  0
    4.9899  -10.5431    4.1205 H   0  0  0  0  0  0  0  0  0  0  0  0
    5.3045  -10.8678    2.3307 H   0  0  0  0  0  0  0  0  0  0  0  0
    4.4456   -9.0966    0.6585 H   0  0  0  0  0  0  0  0  0  0  0  0
    6.7532   -8.2367    0.8826 H   0  0  0  0  0  0  0  0  0  0  0  0
    5.7168   -6.9815    0.1398 H   0  0  0  0  0  0  0  0  0  0  0  0
    6.5301   -7.1691    3.0071 H   0  0  0  0  0  0  0  0  0  0  0  0
    9.9916   -5.9102    0.8958 H   0  0  0  0  0  0  0  0  0  0  0  0
   10.7271   -5.5546    2.5039 H   0  0  0  0  0  0  0  0  0  0  0  0
    9.8367   -4.3542    1.6873 H   0  0  0  0  0  0  0  0  0  0  0  0
    5.4128   -5.3121    3.6118 H   0  0  0  0  0  0  0  0  0  0  0  0
    4.3767   -4.8430    0.8175 H   0  0  0  0  0  0  0  0  0  0  0  0
    6.6443   -3.6414    2.1214 H   0  0  0  0  0  0  0  0  0  0  0  0
    7.9363   -1.5905    1.1537 H   0  0  0  0  0  0  0  0  0  0  0  0
    9.2910   -2.0295    0.1069 H   0  0  0  0  0  0  0  0  0  0  0  0
    8.5347   -3.2050    1.2753 H   0  0  0  0  0  0  0  0  0  0  0  0
    6.0924   -1.1844    1.3739 H   0  0  0  0  0  0  0  0  0  0  0  0
    5.2523   -2.3473    3.7538 H   0  0  0  0  0  0  0  0  0  0  0  0
    4.8707   -0.6308    3.3107 H   0  0  0  0  0  0  0  0  0  0  0  0
    2.6844   -1.6109    2.6891 H   0  0  0  0  0  0  0  0  0  0  0  0
    2.6107   -3.8801    1.5222 H   0  0  0  0  0  0  0  0  0  0  0  0
    2.9522   -4.4142    5.7660 H   0  0  0  0  0  0  0  0  0  0  0  0
    3.3731   -2.8499    5.1208 H   0  0  0  0  0  0  0  0  0  0  0  0
    4.4549   -4.1841    4.9450 H   0  0  0  0  0  0  0  0  0  0  0  0
    0.6911   -4.1712    4.5391 H   0  0  0  0  0  0  0  0  0  0  0  0
    0.6706   -3.6936    2.8770 H   0  0  0  0  0  0  0  0  0  0  0  0
    1.2933   -2.6000    4.0606 H   0  0  0  0  0  0  0  0  0  0  0  0
    2.3182   -6.1307    4.4411 H   0  0  0  0  0  0  0  0  0  0  0  0
    1.1116   -8.2668    2.4011 H   0  0  0  0  0  0  0  0  0  0  0  0
   -1.1327   -6.3267    2.3180 H   0  0  0  0  0  0  0  0  0  0  0  0
   -0.7944   -7.7326    1.3266 H   0  0  0  0  0  0  0  0  0  0  0  0
   -0.9749   -5.7172    4.3929 H   0  0  0  0  0  0  0  0  0  0  0  0
   -0.6294   -6.3170    5.9928 H   0  0  0  0  0  0  0  0  0  0  0  0
   -2.2654   -6.6047    5.2719 H   0  0  0  0  0  0  0  0  0  0  0  0
   -0.4312   -9.8934    5.0418 H   0  0  0  0  0  0  0  0  0  0  0  0
   -1.8820   -9.0580    5.7197 H   0  0  0  0  0  0  0  0  0  0  0  0
   -0.2658   -8.7625    6.3946 H   0  0  0  0  0  0  0  0  0  0  0  0
    3.4141   -6.6541    0.6493 H   0  0  0  0  0  0  0  0  0  0  0  0
    2.7282   -8.0263    1.4459 H   0  0  0  0  0  0  0  0  0  0  0  0
    5.0511   -7.5588    4.4667 H   0  0  0  0  0  0  0  0  0  0  0  0
    3.5872   -9.1257    5.1031 H   0  0  0  0  0  0  0  0  0  0  0  0
    2.8492    0.2704    0.6786 H   0  0  0  0  0  0  0  0  0  0  0  0
    4.5003    0.4036    0.0883 H   0  0  0  0  0  0  0  0  0  0  0  0
    4.1759    0.5793    1.7711 H   0  0  0  0  0  0  0  0  0  0  0  0
    4.2840   -1.6940   -1.1503 H   0  0  0  0  0  0  0  0  0  0  0  0
    2.6242   -1.8564   -0.5619 H   0  0  0  0  0  0  0  0  0  0  0  0
    3.7430   -3.1690   -0.3840 H   0  0  0  0  0  0  0  0  0  0  0  0
  1  2  2  0
  1 40  1  0
  1 41  1  0
  2 35  1  0
  2  3  1  0
  3 34  1  0
  3  4  1  0
  3 42  1  6
  4  5  1  0
  4 43  1  0
  4 44  1  0
  5  6  1  0
  5 10  1  0
  5 45  1  1
  6  7  1  0
  7  8  1  0
  7  9  2  0
  8 46  1  0
  8 47  1  0
  8 48  1  0
 10 33  1  0
 10 11  1  0
 10 49  1  1
 11 20  1  0
 11 12  1  0
 11 50  1  6
 12 13  1  0
 12 17  1  0
 12 51  1  1
 13 14  1  0
 14 15  1  0
 14 16  2  0
 15 52  1  0
 15 53  1  0
 15 54  1  0
 17 37  1  0
 17 18  1  0
 17 55  1  6
 18 19  1  0
 18 56  1  0
 18 57  1  0
 19 20  1  0
 19 37  1  0
 19 58  1  1
 20 21  1  0
 20 59  1  6
 21 22  1  0
 21 23  1  0
 21 24  1  0
 22 60  1  0
 22 61  1  0
 22 62  1  0
 23 63  1  0
 23 64  1  0
 23 65  1  0
 24 25  1  0
 24 33  1  0
 24 66  1  1
 25 26  1  0
 26 32  1  0
 26 27  1  0
 26 67  1  6
 27 28  1  0
 27 68  1  0
 27 69  1  0
 28 29  1  0
 29 30  1  0
 29 31  1  0
 29 32  1  0
 30 70  1  0
 30 71  1  0
 30 72  1  0
 31 73  1  0
 31 74  1  0
 31 75  1  0
 33 34  1  6
 33 35  1  0
 34 76  1  0
 34 77  1  0
 35 36  1  0
 35 78  1  1
 36 79  1  0
 37 38  1  0
 37 39  1  0
 38 80  1  0
 38 81  1  0
 38 82  1  0
 39 83  1  0
 39 84  1  0
 39 85  1  0
M  END
>  <i_m_ct_stereo_status>  (183) 
1

>  <s_m_source_file>  (183) 
/var/tmp/pbs.5076255.sched01/tmpnx1894nc/68p53si2vm.sdf

>  <i_m_source_file_index>  (183) 
3

>  <i_lp_mmshare_version>  (183) 
48012

>  <i_f3d_flags>  (183) 
0

>  <s_epik_input>  (183) 
W09IXVtDQEhdMUMoPVtDSDJdKVtDQEBIXShbQ0gyXTIpW0NIMl1bQ0BASF0oT0MoPU8pW0NIM10pW0NASF0oW0NAXTEyMylbQ0BIXTRbQ0BIXShbQ0BIXTVbQ0gyXVtDQEhdKEM1KFtDSDNdKVtDSDNdKVtDQEBIXTRPQyg9TylbQ0gzXSlDKFtDSDNdKShbQ0gzXSlbQ0BIXTNPW0NAQEhdKE82KVtDSDJdT0M2KFtDSDNdKVtDSDNd

>  <s_epik_cmdline>  (183) 
J2VwaWtfcHl0aG9uJywgJy1waHQnLCAnMi4wJywgJy1waCcsICc3LjAnLCAnLXRuJywgJzgnLCAnLW1hJywgJzIwMCcsICctaW1hZScsICc8aW5maWxlLm1hZT4nLCAnLW9tYWUnLCAnPG91dGZpbGUubWFlPic=

>  <r_lp_tautomer_probability>  (183) 
1

>  <r_epik_Ionization_Penalty>  (183) 
4.29143e-08

>  <r_epik_Ionization_Penalty_Charging>  (183) 
0

>  <r_epik_Ionization_Penalty_Neutral>  (183) 
4.29143e-08

>  <r_epik_State_Penalty>  (183) 
-0

>  <r_epik_Charging_Adjusted_Penalty>  (183) 
0

>  <i_epik_Tot_Q>  (183) 
0

>  <i_epik_Tot_abs_Q>  (183) 
0

>  <s_epik_Chemistry_Notes>  (183) 
This compound has an ester and may undergo hydrolysis at high or low pH. This compound contains an acetal/aminal-like group ( X-CH(R)-Y where X, Y are N, S, or O) that may be acid/base labile, releasing an aldehyde.

>  <s_lp_Force_Field>  (183) 
OPLS3e

>  <r_lp_Energy>  (183) 
84.3463

>  <b_lp_Chiralities_Consistent>  (183) 
1

>  <s_lp_Variant>  (183) 
53:0-1

>  <s_i_glide_gridfile>  (183) 
pfpi4k_grid

>  <i_i_glide_lignum>  (183) 
3

>  <i_i_glide_rotatable_bonds>  (183) 
7

>  <r_i_docking_score>  (183) 
-1.74567

>  <r_i_glide_ligand_efficiency>  (183) 
-0.0447608

>  <r_i_glide_ligand_efficiency_sa>  (183) 
-0.151793

>  <r_i_glide_ligand_efficiency_ln>  (183) 
-0.374321

>  <r_i_glide_gscore>  (183) 
-1.74567

>  <r_i_glide_lipo>  (183) 
-0.603754

>  <r_i_glide_hbond>  (183) 
-0.0214999

>  <r_i_glide_metal>  (183) 
-0

>  <r_i_glide_rewards>  (183) 
-0.111816

>  <r_i_glide_evdw>  (183) 
-24.8509

>  <r_i_glide_ecoul>  (183) 
-0.122595

>  <r_i_glide_erotb>  (183) 
0.277195

>  <r_i_glide_esite>  (183) 
-0.127309

>  <r_i_glide_emodel>  (183) 
-17.7047

>  <r_i_glide_energy>  (183) 
-24.9735

>  <r_i_glide_einternal>  (183) 
13.4984

>  <r_i_glide_intrahb_reward>  (183) 
-0

>  <i_i_glide_confnum>  (183) 
2

>  <i_i_glide_posenum>  (183) 
29

>  <r_i_glide_eff_state_penalty>  (183) 
0

>  <ligand_id>  (183) 
53

>  <original_smiles>  (183) 
C=C1C2CC(OC(C)=O)C3C4C(OC(C)=O)C5CC(C4C(C)(C)C(OC4COC(C)(C)O4)C3(C2)C1O)C5(C)C

>  <smiles>  (183) 
[H]OC1([H])C(=C([H])[H])C2([H])C([H])([H])C([H])(OC(=O)C([H])([H])[H])C3([H])C4([H])C([H])(OC(=O)C([H])([H])[H])C5([H])C([H])([H])C([H])(C4([H])C(C([H])([H])[H])(C([H])([H])[H])C([H])(OC4([H])OC(C([H])([H])[H])(C([H])([H])[H])OC4([H])[H])C13C2([H])[H])C5(C([H])([H])[H])C([H])([H])[H]

$$$$
53:0:2
     RDKit          3D

 85 90  0  0  1  0  0  0  0  0999 V2000
    5.6660   -5.8315    1.2167 C   0  0  0  0  0  0  0  0  0  0  0  0
    4.6463   -5.2306    1.8549 C   0  0  0  0  0  0  0  0  0  0  0  0
    3.5918   -4.3714    1.1849 C   0  0  2  0  0  0  0  0  0  0  0  0
    3.8825   -2.8732    1.3271 C   0  0  0  0  0  0  0  0  0  0  0  0
    4.2215   -2.5637    2.8032 C   0  0  1  0  0  0  0  0  0  0  0  0
    4.5076   -1.1963    3.0309 O   0  0  0  0  0  0  0  0  0  0  0  0
    5.7419   -0.6958    2.9147 C   0  0  0  0  0  0  0  0  0  0  0  0
    6.5853   -1.2286    1.7493 C   0  0  0  0  0  0  0  0  0  0  0  0
    6.1805    0.1534    3.6745 O   0  0  0  0  0  0  0  0  0  0  0  0
    3.1924   -3.1594    3.8305 C   0  0  1  0  0  0  0  0  0  0  0  0
    1.8687   -2.3497    4.0547 C   0  0  2  0  0  0  0  0  0  0  0  0
    2.0321   -0.8198    4.3885 C   0  0  1  0  0  0  0  0  0  0  0  0
    1.7710   -0.0596    3.2076 O   0  0  0  0  0  0  0  0  0  0  0  0
    2.2029    1.2109    3.0854 C   0  0  0  0  0  0  0  0  0  0  0  0
    1.7807    1.8442    1.7686 C   0  0  0  0  0  0  0  0  0  0  0  0
    2.8580    1.8340    3.9193 O   0  0  0  0  0  0  0  0  0  0  0  0
    1.0945   -0.3388    5.5188 C   0  0  2  0  0  0  0  0  0  0  0  0
    1.2247   -1.2059    6.7657 C   0  0  0  0  0  0  0  0  0  0  0  0
    0.2175   -2.1019    6.0438 C   0  0  2  0  0  0  0  0  0  0  0  0
    0.8457   -3.0764    5.0075 C   0  0  2  0  0  0  0  0  0  0  0  0
    1.3131   -4.4429    5.6167 C   0  0  0  0  0  0  0  0  0  0  0  0
    2.3075   -4.3060    6.8071 C   0  0  0  0  0  0  0  0  0  0  0  0
    0.0997   -5.1600    6.2674 C   0  0  0  0  0  0  0  0  0  0  0  0
    1.9076   -5.3626    4.4899 C   0  0  1  0  0  0  0  0  0  0  0  0
    0.8243   -6.0329    3.8164 O   0  0  0  0  0  0  0  0  0  0  0  0
    1.0348   -7.3613    3.4042 C   0  0  2  0  0  0  0  0  0  0  0  0
   -0.2965   -8.0164    3.0254 C   0  0  0  0  0  0  0  0  0  0  0  0
   -0.2078   -9.3119    3.5780 O   0  0  0  0  0  0  0  0  0  0  0  0
    0.5930   -9.1412    4.7013 C   0  0  0  0  0  0  0  0  0  0  0  0
   -0.2700   -8.6896    5.8855 C   0  0  0  0  0  0  0  0  0  0  0  0
    1.3574  -10.4287    5.0353 C   0  0  0  0  0  0  0  0  0  0  0  0
    1.5286   -8.1609    4.4298 O   0  0  0  0  0  0  0  0  0  0  0  0
    2.8999   -4.6773    3.4770 C   0  0  1  0  0  0  0  0  0  0  0  0
    2.3680   -4.7035    2.0167 C   0  0  0  0  0  0  0  0  0  0  0  0
    4.2710   -5.4210    3.3164 C   0  0  1  0  0  0  0  0  0  0  0  0
    4.2839   -6.8007    3.6294 O   0  0  0  0  0  0  0  0  0  0  0  0
   -0.3816   -0.7839    5.4866 C   0  0  0  0  0  0  0  0  0  0  0  0
   -1.3607   -0.0062    6.3893 C   0  0  0  0  0  0  0  0  0  0  0  0
   -1.0879   -0.8179    4.1346 C   0  0  0  0  0  0  0  0  0  0  0  0
    6.3395   -6.4884    1.7477 H   0  0  0  0  0  0  0  0  0  0  0  0
    5.8166   -5.6821    0.1607 H   0  0  0  0  0  0  0  0  0  0  0  0
    3.4739   -4.6334    0.1350 H   0  0  0  0  0  0  0  0  0  0  0  0
    4.7160   -2.6371    0.6650 H   0  0  0  0  0  0  0  0  0  0  0  0
    3.0360   -2.2665    0.9927 H   0  0  0  0  0  0  0  0  0  0  0  0
    5.1632   -3.0675    3.0395 H   0  0  0  0  0  0  0  0  0  0  0  0
    6.7684   -2.2991    1.8421 H   0  0  0  0  0  0  0  0  0  0  0  0
    7.5579   -0.7427    1.6809 H   0  0  0  0  0  0  0  0  0  0  0  0
    6.0836   -1.0457    0.8001 H   0  0  0  0  0  0  0  0  0  0  0  0
    3.7454   -3.1022    4.7621 H   0  0  0  0  0  0  0  0  0  0  0  0
    1.3849   -2.3502    3.0802 H   0  0  0  0  0  0  0  0  0  0  0  0
    3.0508   -0.6311    4.7326 H   0  0  0  0  0  0  0  0  0  0  0  0
    2.1645    1.2613    0.9316 H   0  0  0  0  0  0  0  0  0  0  0  0
    2.1611    2.8646    1.6913 H   0  0  0  0  0  0  0  0  0  0  0  0
    0.6939    1.8899    1.6849 H   0  0  0  0  0  0  0  0  0  0  0  0
    1.2026    0.7160    5.7593 H   0  0  0  0  0  0  0  0  0  0  0  0
    2.2219   -1.6088    6.9092 H   0  0  0  0  0  0  0  0  0  0  0  0
    0.8693   -0.7479    7.6853 H   0  0  0  0  0  0  0  0  0  0  0  0
   -0.4723   -2.5761    6.7335 H   0  0  0  0  0  0  0  0  0  0  0  0
    0.0285   -3.3757    4.3524 H   0  0  0  0  0  0  0  0  0  0  0  0
    2.6520   -5.2866    7.1464 H   0  0  0  0  0  0  0  0  0  0  0  0
    1.8383   -3.8390    7.6755 H   0  0  0  0  0  0  0  0  0  0  0  0
    3.2011   -3.7278    6.5971 H   0  0  0  0  0  0  0  0  0  0  0  0
    0.4011   -6.1611    6.5653 H   0  0  0  0  0  0  0  0  0  0  0  0
   -0.7502   -5.2411    5.5920 H   0  0  0  0  0  0  0  0  0  0  0  0
   -0.2541   -4.6736    7.1785 H   0  0  0  0  0  0  0  0  0  0  0  0
    2.4591   -6.0977    5.0683 H   0  0  0  0  0  0  0  0  0  0  0  0
    1.7468   -7.4405    2.5803 H   0  0  0  0  0  0  0  0  0  0  0  0
   -1.1302   -7.4895    3.4916 H   0  0  0  0  0  0  0  0  0  0  0  0
   -0.4550   -8.0009    1.9472 H   0  0  0  0  0  0  0  0  0  0  0  0
   -0.8072   -7.7706    5.6456 H   0  0  0  0  0  0  0  0  0  0  0  0
    0.3576   -8.5210    6.7618 H   0  0  0  0  0  0  0  0  0  0  0  0
   -0.9980   -9.4576    6.1150 H   0  0  0  0  0  0  0  0  0  0  0  0
    1.9903  -10.7483    4.2052 H   0  0  0  0  0  0  0  0  0  0  0  0
    0.6534  -11.2225    5.2846 H   0  0  0  0  0  0  0  0  0  0  0  0
    1.9960  -10.2494    5.9041 H   0  0  0  0  0  0  0  0  0  0  0  0
    1.5462   -4.0204    1.8448 H   0  0  0  0  0  0  0  0  0  0  0  0
    2.0444   -5.6808    1.6801 H   0  0  0  0  0  0  0  0  0  0  0  0
    5.0443   -4.9853    3.9532 H   0  0  0  0  0  0  0  0  0  0  0  0
    3.6296   -7.2463    3.1175 H   0  0  0  0  0  0  0  0  0  0  0  0
   -2.3273   -0.5105    6.4561 H   0  0  0  0  0  0  0  0  0  0  0  0
   -1.5453    0.9925    5.9864 H   0  0  0  0  0  0  0  0  0  0  0  0
   -1.0059    0.1321    7.4103 H   0  0  0  0  0  0  0  0  0  0  0  0
   -1.2868    0.1831    3.7477 H   0  0  0  0  0  0  0  0  0  0  0  0
   -2.0401   -1.3444    4.2037 H   0  0  0  0  0  0  0  0  0  0  0  0
   -0.4875   -1.3213    3.3865 H   0  0  0  0  0  0  0  0  0  0  0  0
  1  2  2  0
  1 40  1  0
  1 41  1  0
  2 35  1  0
  2  3  1  0
  3 34  1  0
  3  4  1  0
  3 42  1  6
  4  5  1  0
  4 43  1  0
  4 44  1  0
  5  6  1  0
  5 10  1  0
  5 45  1  1
  6  7  1  0
  7  8  1  0
  7  9  2  0
  8 46  1  0
  8 47  1  0
  8 48  1  0
 10 33  1  0
 10 11  1  0
 10 49  1  1
 11 20  1  0
 11 12  1  0
 11 50  1  6
 12 13  1  0
 12 17  1  0
 12 51  1  1
 13 14  1  0
 14 15  1  0
 14 16  2  0
 15 52  1  0
 15 53  1  0
 15 54  1  0
 17 37  1  0
 17 18  1  0
 17 55  1  1
 18 19  1  0
 18 56  1  0
 18 57  1  0
 19 20  1  0
 19 37  1  0
 19 58  1  1
 20 21  1  0
 20 59  1  6
 21 22  1  0
 21 23  1  0
 21 24  1  0
 22 60  1  0
 22 61  1  0
 22 62  1  0
 23 63  1  0
 23 64  1  0
 23 65  1  0
 24 25  1  0
 24 33  1  0
 24 66  1  1
 25 26  1  0
 26 32  1  0
 26 27  1  0
 26 67  1  6
 27 28  1  0
 27 68  1  0
 27 69  1  0
 28 29  1  0
 29 30  1  0
 29 31  1  0
 29 32  1  0
 30 70  1  0
 30 71  1  0
 30 72  1  0
 31 73  1  0
 31 74  1  0
 31 75  1  0
 33 34  1  6
 33 35  1  0
 34 76  1  0
 34 77  1  0
 35 36  1  0
 35 78  1  1
 36 79  1  0
 37 38  1  0
 37 39  1  0
 38 80  1  0
 38 81  1  0
 38 82  1  0
 39 83  1  0
 39 84  1  0
 39 85  1  0
M  END
>  <i_m_ct_stereo_status>  (184) 
1

>  <s_m_source_file>  (184) 
/var/tmp/pbs.5076255.sched01/tmpnx1894nc/68p53si2vm.sdf

>  <i_m_source_file_index>  (184) 
3

>  <i_lp_mmshare_version>  (184) 
48012

>  <i_f3d_flags>  (184) 
0

>  <s_epik_input>  (184) 
W09IXVtDQEhdMUMoPVtDSDJdKVtDQEBIXShbQ0gyXTIpW0NIMl1bQ0BASF0oT0MoPU8pW0NIM10pW0NASF0oW0NAXTEyMylbQ0BIXTRbQ0BIXShbQ0BIXTVbQ0gyXVtDQEhdKEM1KFtDSDNdKVtDSDNdKVtDQEBIXTRPQyg9TylbQ0gzXSlDKFtDSDNdKShbQ0gzXSlbQ0BIXTNPW0NAQEhdKE82KVtDSDJdT0M2KFtDSDNdKVtDSDNd

>  <s_epik_cmdline>  (184) 
J2VwaWtfcHl0aG9uJywgJy1waHQnLCAnMi4wJywgJy1waCcsICc3LjAnLCAnLXRuJywgJzgnLCAnLW1hJywgJzIwMCcsICctaW1hZScsICc8aW5maWxlLm1hZT4nLCAnLW9tYWUnLCAnPG91dGZpbGUubWFlPic=

>  <r_lp_tautomer_probability>  (184) 
1

>  <r_epik_Ionization_Penalty>  (184) 
4.29143e-08

>  <r_epik_Ionization_Penalty_Charging>  (184) 
0

>  <r_epik_Ionization_Penalty_Neutral>  (184) 
4.29143e-08

>  <r_epik_State_Penalty>  (184) 
-0

>  <r_epik_Charging_Adjusted_Penalty>  (184) 
0

>  <i_epik_Tot_Q>  (184) 
0

>  <i_epik_Tot_abs_Q>  (184) 
0

>  <s_epik_Chemistry_Notes>  (184) 
This compound has an ester and may undergo hydrolysis at high or low pH. This compound contains an acetal/aminal-like group ( X-CH(R)-Y where X, Y are N, S, or O) that may be acid/base labile, releasing an aldehyde.

>  <s_lp_Force_Field>  (184) 
OPLS3e

>  <r_lp_Energy>  (184) 
84.3463

>  <b_lp_Chiralities_Consistent>  (184) 
1

>  <s_lp_Variant>  (184) 
53:0-1

>  <s_i_glide_gridfile>  (184) 
pfpi4k_grid

>  <i_i_glide_lignum>  (184) 
3

>  <i_i_glide_rotatable_bonds>  (184) 
7

>  <r_i_docking_score>  (184) 
-1.28223

>  <r_i_glide_ligand_efficiency>  (184) 
-0.0328777

>  <r_i_glide_ligand_efficiency_sa>  (184) 
-0.111495

>  <r_i_glide_ligand_efficiency_ln>  (184) 
-0.274947

>  <r_i_glide_gscore>  (184) 
-1.28223

>  <r_i_glide_lipo>  (184) 
-0.19964

>  <r_i_glide_hbond>  (184) 
-0.0130633

>  <r_i_glide_metal>  (184) 
-0

>  <r_i_glide_rewards>  (184) 
-0.128491

>  <r_i_glide_evdw>  (184) 
-22.7496

>  <r_i_glide_ecoul>  (184) 
-0.103359

>  <r_i_glide_erotb>  (184) 
0.277195

>  <r_i_glide_esite>  (184) 
-0.0652452

>  <r_i_glide_emodel>  (184) 
-18.5633

>  <r_i_glide_energy>  (184) 
-22.853

>  <r_i_glide_einternal>  (184) 
11.2105

>  <r_i_glide_intrahb_reward>  (184) 
-0

>  <i_i_glide_confnum>  (184) 
2

>  <i_i_glide_posenum>  (184) 
3

>  <r_i_glide_eff_state_penalty>  (184) 
0

>  <ligand_id>  (184) 
53

>  <original_smiles>  (184) 
C=C1C2CC(OC(C)=O)C3C4C(OC(C)=O)C5CC(C4C(C)(C)C(OC4COC(C)(C)O4)C3(C2)C1O)C5(C)C

>  <smiles>  (184) 
[H]OC1([H])C(=C([H])[H])C2([H])C([H])([H])C([H])(OC(=O)C([H])([H])[H])C3([H])C4([H])C([H])(OC(=O)C([H])([H])[H])C5([H])C([H])([H])C([H])(C4([H])C(C([H])([H])[H])(C([H])([H])[H])C([H])(OC4([H])OC(C([H])([H])[H])(C([H])([H])[H])OC4([H])[H])C13C2([H])[H])C5(C([H])([H])[H])C([H])([H])[H]

$$$$
54:0:0
     RDKit          3D

 41 44  0  0  1  0  0  0  0  0999 V2000
    4.6538   -0.6468   -2.0392 C   0  0  0  0  0  0  0  0  0  0  0  0
    4.2584   -1.9962   -1.4568 C   0  0  1  0  0  0  0  0  0  0  0  0
    3.1261   -2.4636   -2.3620 C   0  0  0  0  0  0  0  0  0  0  0  0
    3.2535   -3.3066   -3.3964 C   0  0  0  0  0  0  0  0  0  0  0  0
    4.5604   -3.8540   -3.7518 C   0  0  0  0  0  0  0  0  0  0  0  0
    4.6782   -4.6125   -4.7104 O   0  0  0  0  0  0  0  0  0  0  0  0
    5.8049   -3.4235   -2.9672 C   0  0  0  0  0  0  0  0  0  0  0  0
    5.5034   -2.8604   -1.5880 C   0  0  0  0  0  0  0  0  0  0  0  0
    6.3718   -3.0210   -0.5734 C   0  0  0  0  0  0  0  0  0  0  0  0
    6.2199   -2.4106    0.8103 C   0  0  0  0  0  0  0  0  0  0  0  0
    4.9922   -1.4784    0.9964 C   0  0  2  0  0  0  0  0  0  0  0  0
    4.5479   -1.4675    2.4920 C   0  0  1  0  0  0  0  0  0  0  0  0
    4.9606   -0.2921    3.3939 C   0  0  0  0  0  0  0  0  0  0  0  0
    4.0141   -0.3666    4.6150 C   0  0  0  0  0  0  0  0  0  0  0  0
    2.8525   -1.2051    4.1056 C   0  0  0  0  0  0  0  0  0  0  0  0
    1.9008   -1.5827    4.7915 O   0  0  0  0  0  0  0  0  0  0  0  0
    3.0294   -1.5012    2.6308 C   0  0  2  0  0  0  0  0  0  0  0  0
    2.4573   -2.8113    2.0683 C   0  0  0  0  0  0  0  0  0  0  0  0
    3.0201   -3.0501    0.6561 C   0  0  0  0  0  0  0  0  0  0  0  0
    2.8426   -4.1257    0.0823 O   0  0  0  0  0  0  0  0  0  0  0  0
    3.8100   -1.8643    0.0376 C   0  0  2  0  0  0  0  0  0  0  0  0
    4.9433   -0.6914   -3.0933 H   0  0  0  0  0  0  0  0  0  0  0  0
    5.5004   -0.2612   -1.4739 H   0  0  0  0  0  0  0  0  0  0  0  0
    3.8278    0.0533   -1.9939 H   0  0  0  0  0  0  0  0  0  0  0  0
    2.1495   -2.0623   -2.1401 H   0  0  0  0  0  0  0  0  0  0  0  0
    2.4068   -3.6180   -3.9842 H   0  0  0  0  0  0  0  0  0  0  0  0
    6.4881   -4.2547   -2.8651 H   0  0  0  0  0  0  0  0  0  0  0  0
    6.3351   -2.6554   -3.5211 H   0  0  0  0  0  0  0  0  0  0  0  0
    7.2672   -3.6145   -0.7213 H   0  0  0  0  0  0  0  0  0  0  0  0
    6.1891   -3.2604    1.4928 H   0  0  0  0  0  0  0  0  0  0  0  0
    7.1280   -1.8527    1.0413 H   0  0  0  0  0  0  0  0  0  0  0  0
    5.2882   -0.4627    0.7369 H   0  0  0  0  0  0  0  0  0  0  0  0
    4.9196   -2.3737    2.9780 H   0  0  0  0  0  0  0  0  0  0  0  0
    6.0122   -0.3234    3.6753 H   0  0  0  0  0  0  0  0  0  0  0  0
    4.7635    0.6414    2.8747 H   0  0  0  0  0  0  0  0  0  0  0  0
    4.4862   -0.8626    5.4620 H   0  0  0  0  0  0  0  0  0  0  0  0
    3.6734    0.6193    4.9302 H   0  0  0  0  0  0  0  0  0  0  0  0
    2.5782   -0.6602    2.1013 H   0  0  0  0  0  0  0  0  0  0  0  0
    2.6992   -3.6649    2.7004 H   0  0  0  0  0  0  0  0  0  0  0  0
    1.3753   -2.7404    2.0212 H   0  0  0  0  0  0  0  0  0  0  0  0
    3.1020   -1.0370    0.0493 H   0  0  0  0  0  0  0  0  0  0  0  0
  2  1  1  6
  1 22  1  0
  1 23  1  0
  1 24  1  0
  2  8  1  0
  2 21  1  0
  2  3  1  0
  3  4  2  0
  3 25  1  0
  4  5  1  0
  4 26  1  0
  5  6  2  0
  5  7  1  0
  7  8  1  0
  7 27  1  0
  7 28  1  0
  8  9  2  0
  9 10  1  0
  9 29  1  0
 10 11  1  0
 10 30  1  0
 10 31  1  0
 11 21  1  0
 11 12  1  0
 11 32  1  6
 12 17  1  0
 12 13  1  0
 12 33  1  1
 13 14  1  0
 13 34  1  0
 13 35  1  0
 14 15  1  0
 14 36  1  0
 14 37  1  0
 15 16  2  0
 15 17  1  0
 17 18  1  0
 17 38  1  6
 18 19  1  0
 18 39  1  0
 18 40  1  0
 19 20  2  0
 19 21  1  0
 21 41  1  6
M  END
>  <i_m_ct_stereo_status>  (185) 
1

>  <s_m_source_file>  (185) 
/var/tmp/pbs.5076255.sched01/tmpnx1894nc/68p53si2vm.sdf

>  <i_m_source_file_index>  (185) 
4

>  <i_lp_mmshare_version>  (185) 
48012

>  <i_f3d_flags>  (185) 
0

>  <s_epik_input>  (185) 
W0NIXTE9W0NIXUMoPU8pW0NIMl1DKFtDQEBdMTJbQ0gzXSk9W0NIXVtDSDJdW0NAQEhdM1tDQEBIXTRbQ0BIXShDKD1PKVtDSDJdW0NIMl00KVtDSDJdQyg9TylbQ0BIXTIz

>  <s_epik_cmdline>  (185) 
J2VwaWtfcHl0aG9uJywgJy1waHQnLCAnMi4wJywgJy1waCcsICc3LjAnLCAnLXRuJywgJzgnLCAnLW1hJywgJzIwMCcsICctaW1hZScsICc8aW5maWxlLm1hZT4nLCAnLW9tYWUnLCAnPG91dGZpbGUubWFlPic=

>  <r_lp_tautomer_probability>  (185) 
1

>  <r_epik_Ionization_Penalty>  (185) 
2.44712e-12

>  <r_epik_Ionization_Penalty_Charging>  (185) 
0

>  <r_epik_Ionization_Penalty_Neutral>  (185) 
2.44712e-12

>  <r_epik_State_Penalty>  (185) 
-0

>  <r_epik_Charging_Adjusted_Penalty>  (185) 
0

>  <i_epik_Tot_Q>  (185) 
0

>  <i_epik_Tot_abs_Q>  (185) 
0

>  <s_lp_Force_Field>  (185) 
OPLS3e

>  <r_lp_Energy>  (185) 
24.3519

>  <b_lp_Chiralities_Consistent>  (185) 
1

>  <s_lp_Variant>  (185) 
54:0-1

>  <s_i_glide_gridfile>  (185) 
pfpi4k_grid

>  <i_i_glide_lignum>  (185) 
4

>  <i_i_glide_rotatable_bonds>  (185) 
0

>  <r_i_docking_score>  (185) 
-3.70137

>  <r_i_glide_ligand_efficiency>  (185) 
-0.176256

>  <r_i_glide_ligand_efficiency_sa>  (185) 
-0.486276

>  <r_i_glide_ligand_efficiency_ln>  (185) 
-0.915157

>  <r_i_glide_gscore>  (185) 
-3.70137

>  <r_i_glide_lipo>  (185) 
-0.710513

>  <r_i_glide_hbond>  (185) 
-0.0214224

>  <r_i_glide_metal>  (185) 
-0

>  <r_i_glide_rewards>  (185) 
-1.47034

>  <r_i_glide_evdw>  (185) 
-19.9409

>  <r_i_glide_ecoul>  (185) 
-3.1882

>  <r_i_glide_erotb>  (185) 
0

>  <r_i_glide_esite>  (185) 
-0.0238161

>  <r_i_glide_emodel>  (185) 
-27.9624

>  <r_i_glide_energy>  (185) 
-23.1291

>  <r_i_glide_einternal>  (185) 
0

>  <r_i_glide_intrahb_reward>  (185) 
-0

>  <i_i_glide_confnum>  (185) 
2

>  <i_i_glide_posenum>  (185) 
8

>  <r_i_glide_eff_state_penalty>  (185) 
0

>  <ligand_id>  (185) 
54

>  <original_smiles>  (185) 
CC12C=CC(=O)CC1=CCC1C3CCC(=O)C3CC(=O)C12

>  <smiles>  (185) 
[H]C1=C([H])C2(C([H])([H])[H])C(=C([H])C([H])([H])C3([H])C2([H])C(=O)C([H])([H])C2([H])C(=O)C([H])([H])C([H])([H])C23[H])C([H])([H])C1=O

$$$$
54:0:1
     RDKit          3D

 41 44  0  0  1  0  0  0  0  0999 V2000
    5.4391   -1.2126    0.6149 C   0  0  0  0  0  0  0  0  0  0  0  0
    4.6183   -2.4913    0.3257 C   0  0  1  0  0  0  0  0  0  0  0  0
    3.4629   -2.0522   -0.5743 C   0  0  0  0  0  0  0  0  0  0  0  0
    3.3877   -2.2256   -1.9034 C   0  0  0  0  0  0  0  0  0  0  0  0
    4.4772   -2.8559   -2.6556 C   0  0  0  0  0  0  0  0  0  0  0  0
    4.4329   -3.0220   -3.8745 O   0  0  0  0  0  0  0  0  0  0  0  0
    5.7527   -3.2467   -1.9134 C   0  0  0  0  0  0  0  0  0  0  0  0
    5.5474   -3.4529   -0.4117 C   0  0  0  0  0  0  0  0  0  0  0  0
    6.2044   -4.4234    0.2466 C   0  0  0  0  0  0  0  0  0  0  0  0
    6.1390   -4.6810    1.7431 C   0  0  0  0  0  0  0  0  0  0  0  0
    5.2554   -3.6881    2.5484 C   0  0  2  0  0  0  0  0  0  0  0  0
    4.7255   -4.3633    3.8519 C   0  0  1  0  0  0  0  0  0  0  0  0
    5.4185   -4.0598    5.1951 C   0  0  0  0  0  0  0  0  0  0  0  0
    4.4042   -4.5145    6.2736 C   0  0  0  0  0  0  0  0  0  0  0  0
    3.0800   -4.5470    5.5229 C   0  0  0  0  0  0  0  0  0  0  0  0
    2.0121   -4.9285    6.0013 O   0  0  0  0  0  0  0  0  0  0  0  0
    3.2618   -4.0164    4.1145 C   0  0  2  0  0  0  0  0  0  0  0  0
    2.3514   -4.5466    2.9904 C   0  0  0  0  0  0  0  0  0  0  0  0
    2.9392   -4.1385    1.6256 C   0  0  0  0  0  0  0  0  0  0  0  0
    2.4980   -4.6204    0.5824 O   0  0  0  0  0  0  0  0  0  0  0  0
    4.0969   -3.1049    1.6724 C   0  0  2  0  0  0  0  0  0  0  0  0
    5.7534   -0.7307   -0.3134 H   0  0  0  0  0  0  0  0  0  0  0  0
    6.3443   -1.4266    1.1828 H   0  0  0  0  0  0  0  0  0  0  0  0
    4.8502   -0.4822    1.1746 H   0  0  0  0  0  0  0  0  0  0  0  0
    2.6362   -1.5599   -0.0685 H   0  0  0  0  0  0  0  0  0  0  0  0
    2.5305   -1.8763   -2.4588 H   0  0  0  0  0  0  0  0  0  0  0  0
    6.1395   -4.1614   -2.3625 H   0  0  0  0  0  0  0  0  0  0  0  0
    6.4958   -2.4654   -2.0658 H   0  0  0  0  0  0  0  0  0  0  0  0
    6.8678   -5.0836   -0.2915 H   0  0  0  0  0  0  0  0  0  0  0  0
    5.7932   -5.7100    1.8533 H   0  0  0  0  0  0  0  0  0  0  0  0
    7.1590   -4.6580    2.1309 H   0  0  0  0  0  0  0  0  0  0  0  0
    5.8689   -2.8417    2.8540 H   0  0  0  0  0  0  0  0  0  0  0  0
    4.7643   -5.4493    3.7258 H   0  0  0  0  0  0  0  0  0  0  0  0
    6.3765   -4.5719    5.2904 H   0  0  0  0  0  0  0  0  0  0  0  0
    5.5994   -2.9864    5.2928 H   0  0  0  0  0  0  0  0  0  0  0  0
    4.6403   -5.5100    6.6501 H   0  0  0  0  0  0  0  0  0  0  0  0
    4.3647   -3.8256    7.1167 H   0  0  0  0  0  0  0  0  0  0  0  0
    3.1421   -2.9360    4.1926 H   0  0  0  0  0  0  0  0  0  0  0  0
    2.2680   -5.6313    3.0334 H   0  0  0  0  0  0  0  0  0  0  0  0
    1.3450   -4.1435    3.0941 H   0  0  0  0  0  0  0  0  0  0  0  0
    3.6808   -2.2636    2.2219 H   0  0  0  0  0  0  0  0  0  0  0  0
  2  1  1  1
  1 22  1  0
  1 23  1  0
  1 24  1  0
  2  8  1  0
  2 21  1  0
  2  3  1  0
  3  4  2  0
  3 25  1  0
  4  5  1  0
  4 26  1  0
  5  6  2  0
  5  7  1  0
  7  8  1  0
  7 27  1  0
  7 28  1  0
  8  9  2  0
  9 10  1  0
  9 29  1  0
 10 11  1  0
 10 30  1  0
 10 31  1  0
 11 21  1  0
 11 12  1  0
 11 32  1  1
 12 17  1  0
 12 13  1  0
 12 33  1  6
 13 14  1  0
 13 34  1  0
 13 35  1  0
 14 15  1  0
 14 36  1  0
 14 37  1  0
 15 16  2  0
 15 17  1  0
 17 18  1  0
 17 38  1  1
 18 19  1  0
 18 39  1  0
 18 40  1  0
 19 20  2  0
 19 21  1  0
 21 41  1  1
M  END
>  <i_m_ct_stereo_status>  (186) 
1

>  <s_m_source_file>  (186) 
/var/tmp/pbs.5076255.sched01/tmpnx1894nc/68p53si2vm.sdf

>  <i_m_source_file_index>  (186) 
4

>  <i_lp_mmshare_version>  (186) 
48012

>  <i_f3d_flags>  (186) 
0

>  <s_epik_input>  (186) 
W0NIXTE9W0NIXUMoPU8pW0NIMl1DKFtDQEBdMTJbQ0gzXSk9W0NIXVtDSDJdW0NAQEhdM1tDQEBIXTRbQ0BIXShDKD1PKVtDSDJdW0NIMl00KVtDSDJdQyg9TylbQ0BIXTIz

>  <s_epik_cmdline>  (186) 
J2VwaWtfcHl0aG9uJywgJy1waHQnLCAnMi4wJywgJy1waCcsICc3LjAnLCAnLXRuJywgJzgnLCAnLW1hJywgJzIwMCcsICctaW1hZScsICc8aW5maWxlLm1hZT4nLCAnLW9tYWUnLCAnPG91dGZpbGUubWFlPic=

>  <r_lp_tautomer_probability>  (186) 
1

>  <r_epik_Ionization_Penalty>  (186) 
2.44712e-12

>  <r_epik_Ionization_Penalty_Charging>  (186) 
0

>  <r_epik_Ionization_Penalty_Neutral>  (186) 
2.44712e-12

>  <r_epik_State_Penalty>  (186) 
-0

>  <r_epik_Charging_Adjusted_Penalty>  (186) 
0

>  <i_epik_Tot_Q>  (186) 
0

>  <i_epik_Tot_abs_Q>  (186) 
0

>  <s_lp_Force_Field>  (186) 
OPLS3e

>  <r_lp_Energy>  (186) 
24.3519

>  <b_lp_Chiralities_Consistent>  (186) 
1

>  <s_lp_Variant>  (186) 
54:0-1

>  <s_i_glide_gridfile>  (186) 
pfpi4k_grid

>  <i_i_glide_lignum>  (186) 
4

>  <i_i_glide_rotatable_bonds>  (186) 
0

>  <r_i_docking_score>  (186) 
-3.58971

>  <r_i_glide_ligand_efficiency>  (186) 
-0.170938

>  <r_i_glide_ligand_efficiency_sa>  (186) 
-0.471606

>  <r_i_glide_ligand_efficiency_ln>  (186) 
-0.887548

>  <r_i_glide_gscore>  (186) 
-3.58971

>  <r_i_glide_lipo>  (186) 
-0.528203

>  <r_i_glide_hbond>  (186) 
-0.0516546

>  <r_i_glide_metal>  (186) 
-0

>  <r_i_glide_rewards>  (186) 
-1.56479

>  <r_i_glide_evdw>  (186) 
-20.6731

>  <r_i_glide_ecoul>  (186) 
-2.71337

>  <r_i_glide_erotb>  (186) 
0

>  <r_i_glide_esite>  (186) 
-0.00439748

>  <r_i_glide_emodel>  (186) 
-28.2554

>  <r_i_glide_energy>  (186) 
-23.3865

>  <r_i_glide_einternal>  (186) 
0

>  <r_i_glide_intrahb_reward>  (186) 
-0

>  <i_i_glide_confnum>  (186) 
2

>  <i_i_glide_posenum>  (186) 
1

>  <r_i_glide_eff_state_penalty>  (186) 
0

>  <ligand_id>  (186) 
54

>  <original_smiles>  (186) 
CC12C=CC(=O)CC1=CCC1C3CCC(=O)C3CC(=O)C12

>  <smiles>  (186) 
[H]C1=C([H])C2(C([H])([H])[H])C(=C([H])C([H])([H])C3([H])C2([H])C(=O)C([H])([H])C2([H])C(=O)C([H])([H])C([H])([H])C23[H])C([H])([H])C1=O

$$$$
54:0:2
     RDKit          3D

 41 44  0  0  1  0  0  0  0  0999 V2000
    6.1458   -3.2789   -0.7847 C   0  0  0  0  0  0  0  0  0  0  0  0
    4.9088   -2.4139   -0.4615 C   0  0  1  0  0  0  0  0  0  0  0  0
    5.1507   -1.0697   -1.1422 C   0  0  0  0  0  0  0  0  0  0  0  0
    4.6011   -0.6574   -2.2976 C   0  0  0  0  0  0  0  0  0  0  0  0
    3.7117   -1.5274   -3.0687 C   0  0  0  0  0  0  0  0  0  0  0  0
    3.2453   -1.1817   -4.1517 O   0  0  0  0  0  0  0  0  0  0  0  0
    3.4314   -2.9418   -2.5640 C   0  0  0  0  0  0  0  0  0  0  0  0
    3.6937   -3.1199   -1.0696 C   0  0  0  0  0  0  0  0  0  0  0  0
    2.9114   -3.9234   -0.3276 C   0  0  0  0  0  0  0  0  0  0  0  0
    3.1187   -4.2447    1.1399 C   0  0  0  0  0  0  0  0  0  0  0  0
    4.3709   -3.5970    1.7961 C   0  0  2  0  0  0  0  0  0  0  0  0
    4.1516   -3.4157    3.3285 C   0  0  1  0  0  0  0  0  0  0  0  0
    4.7798   -4.4306    4.3028 C   0  0  0  0  0  0  0  0  0  0  0  0
    4.7467   -3.7269    5.6801 C   0  0  0  0  0  0  0  0  0  0  0  0
    4.6020   -2.2526    5.3239 C   0  0  0  0  0  0  0  0  0  0  0  0
    4.4603   -1.3452    6.1407 O   0  0  0  0  0  0  0  0  0  0  0  0
    4.6771   -2.0689    3.8219 C   0  0  2  0  0  0  0  0  0  0  0  0
    3.9202   -0.8961    3.1706 C   0  0  0  0  0  0  0  0  0  0  0  0
    3.8749   -1.1070    1.6462 C   0  0  0  0  0  0  0  0  0  0  0  0
    3.1829   -0.3858    0.9326 O   0  0  0  0  0  0  0  0  0  0  0  0
    4.7654   -2.2558    1.0945 C   0  0  2  0  0  0  0  0  0  0  0  0
    6.3039   -3.3544   -1.8629 H   0  0  0  0  0  0  0  0  0  0  0  0
    6.0292   -4.2981   -0.4166 H   0  0  0  0  0  0  0  0  0  0  0  0
    7.0535   -2.8631   -0.3469 H   0  0  0  0  0  0  0  0  0  0  0  0
    5.8083   -0.3932   -0.6147 H   0  0  0  0  0  0  0  0  0  0  0  0
    4.8144    0.3162   -2.7067 H   0  0  0  0  0  0  0  0  0  0  0  0
    2.3975   -3.2048   -2.7962 H   0  0  0  0  0  0  0  0  0  0  0  0
    4.0744   -3.6238   -3.1185 H   0  0  0  0  0  0  0  0  0  0  0  0
    2.0815   -4.4235   -0.8046 H   0  0  0  0  0  0  0  0  0  0  0  0
    2.2016   -3.9386    1.6428 H   0  0  0  0  0  0  0  0  0  0  0  0
    3.1853   -5.3281    1.2435 H   0  0  0  0  0  0  0  0  0  0  0  0
    5.2118   -4.2796    1.6703 H   0  0  0  0  0  0  0  0  0  0  0  0
    3.0771   -3.4169    3.5319 H   0  0  0  0  0  0  0  0  0  0  0  0
    4.2408   -5.3782    4.3174 H   0  0  0  0  0  0  0  0  0  0  0  0
    5.8148   -4.6336    4.0228 H   0  0  0  0  0  0  0  0  0  0  0  0
    3.8887   -4.0441    6.2743 H   0  0  0  0  0  0  0  0  0  0  0  0
    5.6532   -3.9058    6.2585 H   0  0  0  0  0  0  0  0  0  0  0  0
    5.7382   -1.9781    3.5924 H   0  0  0  0  0  0  0  0  0  0  0  0
    2.9027   -0.8190    3.5534 H   0  0  0  0  0  0  0  0  0  0  0  0
    4.4142    0.0500    3.3886 H   0  0  0  0  0  0  0  0  0  0  0  0
    5.7632   -1.9957    1.4440 H   0  0  0  0  0  0  0  0  0  0  0  0
  2  1  1  1
  1 22  1  0
  1 23  1  0
  1 24  1  0
  2  8  1  0
  2 21  1  0
  2  3  1  0
  3  4  2  0
  3 25  1  0
  4  5  1  0
  4 26  1  0
  5  6  2  0
  5  7  1  0
  7  8  1  0
  7 27  1  0
  7 28  1  0
  8  9  2  0
  9 10  1  0
  9 29  1  0
 10 11  1  0
 10 30  1  0
 10 31  1  0
 11 21  1  0
 11 12  1  0
 11 32  1  1
 12 17  1  0
 12 13  1  0
 12 33  1  6
 13 14  1  0
 13 34  1  0
 13 35  1  0
 14 15  1  0
 14 36  1  0
 14 37  1  0
 15 16  2  0
 15 17  1  0
 17 18  1  0
 17 38  1  1
 18 19  1  0
 18 39  1  0
 18 40  1  0
 19 20  2  0
 19 21  1  0
 21 41  1  1
M  END
>  <i_m_ct_stereo_status>  (187) 
1

>  <s_m_source_file>  (187) 
/var/tmp/pbs.5076255.sched01/tmpnx1894nc/68p53si2vm.sdf

>  <i_m_source_file_index>  (187) 
4

>  <i_lp_mmshare_version>  (187) 
48012

>  <i_f3d_flags>  (187) 
0

>  <s_epik_input>  (187) 
W0NIXTE9W0NIXUMoPU8pW0NIMl1DKFtDQEBdMTJbQ0gzXSk9W0NIXVtDSDJdW0NAQEhdM1tDQEBIXTRbQ0BIXShDKD1PKVtDSDJdW0NIMl00KVtDSDJdQyg9TylbQ0BIXTIz

>  <s_epik_cmdline>  (187) 
J2VwaWtfcHl0aG9uJywgJy1waHQnLCAnMi4wJywgJy1waCcsICc3LjAnLCAnLXRuJywgJzgnLCAnLW1hJywgJzIwMCcsICctaW1hZScsICc8aW5maWxlLm1hZT4nLCAnLW9tYWUnLCAnPG91dGZpbGUubWFlPic=

>  <r_lp_tautomer_probability>  (187) 
1

>  <r_epik_Ionization_Penalty>  (187) 
2.44712e-12

>  <r_epik_Ionization_Penalty_Charging>  (187) 
0

>  <r_epik_Ionization_Penalty_Neutral>  (187) 
2.44712e-12

>  <r_epik_State_Penalty>  (187) 
-0

>  <r_epik_Charging_Adjusted_Penalty>  (187) 
0

>  <i_epik_Tot_Q>  (187) 
0

>  <i_epik_Tot_abs_Q>  (187) 
0

>  <s_lp_Force_Field>  (187) 
OPLS3e

>  <r_lp_Energy>  (187) 
24.3519

>  <b_lp_Chiralities_Consistent>  (187) 
1

>  <s_lp_Variant>  (187) 
54:0-1

>  <s_i_glide_gridfile>  (187) 
pfpi4k_grid

>  <i_i_glide_lignum>  (187) 
4

>  <i_i_glide_rotatable_bonds>  (187) 
0

>  <r_i_docking_score>  (187) 
-3.02746

>  <r_i_glide_ligand_efficiency>  (187) 
-0.144165

>  <r_i_glide_ligand_efficiency_sa>  (187) 
-0.39774

>  <r_i_glide_ligand_efficiency_ln>  (187) 
-0.748534

>  <r_i_glide_gscore>  (187) 
-3.02746

>  <r_i_glide_lipo>  (187) 
-0.183178

>  <r_i_glide_hbond>  (187) 
0

>  <r_i_glide_metal>  (187) 
-0

>  <r_i_glide_rewards>  (187) 
-1.52692

>  <r_i_glide_evdw>  (187) 
-25.5442

>  <r_i_glide_ecoul>  (187) 
-0.241747

>  <r_i_glide_erotb>  (187) 
0

>  <r_i_glide_esite>  (187) 
-0.0038926

>  <r_i_glide_emodel>  (187) 
-29.7434

>  <r_i_glide_energy>  (187) 
-25.7859

>  <r_i_glide_einternal>  (187) 
0

>  <r_i_glide_intrahb_reward>  (187) 
-0

>  <i_i_glide_confnum>  (187) 
1

>  <i_i_glide_posenum>  (187) 
29

>  <r_i_glide_eff_state_penalty>  (187) 
0

>  <ligand_id>  (187) 
54

>  <original_smiles>  (187) 
CC12C=CC(=O)CC1=CCC1C3CCC(=O)C3CC(=O)C12

>  <smiles>  (187) 
[H]C1=C([H])C2(C([H])([H])[H])C(=C([H])C([H])([H])C3([H])C2([H])C(=O)C([H])([H])C2([H])C(=O)C([H])([H])C([H])([H])C23[H])C([H])([H])C1=O

$$$$
56:0:0
     RDKit          3D

 37 39  0  0  1  0  0  0  0  0999 V2000
    4.1180   -4.7943    0.2535 C   0  0  0  0  0  0  0  0  0  0  0  0
    3.2611   -3.5091    0.3298 C   0  0  2  0  0  0  0  0  0  0  0  0
    3.5329   -2.6649   -0.9183 C   0  0  0  0  0  0  0  0  0  0  0  0
    2.9527   -3.0556   -2.1453 C   0  0  0  0  0  0  0  0  0  0  0  0
    3.2116   -2.3393   -3.3277 C   0  0  0  0  0  0  0  0  0  0  0  0
    4.0525   -1.2140   -3.2905 C   0  0  0  0  0  0  0  0  0  0  0  0
    4.6142   -0.7998   -2.0692 C   0  0  0  0  0  0  0  0  0  0  0  0
    4.3489   -1.5079   -0.8768 C   0  0  0  0  0  0  0  0  0  0  0  0
    4.8929   -0.9627    0.4351 C   0  0  0  0  0  0  0  0  0  0  0  0
    4.7882   -1.9469    1.6217 C   0  0  1  0  0  0  0  0  0  0  0  0
    5.1323   -1.2895    2.9705 C   0  0  0  0  0  0  0  0  0  0  0  0
    5.5582   -0.1416    3.0544 O   0  0  0  0  0  0  0  0  0  0  0  0
    4.9871   -2.1572    4.2184 C   0  0  0  0  0  0  0  0  0  0  0  0
    3.6517   -2.9132    4.2307 C   0  0  0  0  0  0  0  0  0  0  0  0
    3.4022   -3.6502    2.9013 C   0  0  0  0  0  0  0  0  0  0  0  0
    3.4318   -2.7071    1.6611 C   0  0  2  0  0  0  0  0  0  0  0  0
    2.2488   -1.7117    1.7909 C   0  0  0  0  0  0  0  0  0  0  0  0
    4.0176   -5.2696   -0.7204 H   0  0  0  0  0  0  0  0  0  0  0  0
    3.8073   -5.5478    0.9776 H   0  0  0  0  0  0  0  0  0  0  0  0
    5.1807   -4.5925    0.3924 H   0  0  0  0  0  0  0  0  0  0  0  0
    2.2196   -3.8299    0.2708 H   0  0  0  0  0  0  0  0  0  0  0  0
    2.2998   -3.9133   -2.1831 H   0  0  0  0  0  0  0  0  0  0  0  0
    2.7540   -2.6496   -4.2561 H   0  0  0  0  0  0  0  0  0  0  0  0
    4.2490   -0.6524   -4.1900 H   0  0  0  0  0  0  0  0  0  0  0  0
    5.2254    0.0856   -2.0458 H   0  0  0  0  0  0  0  0  0  0  0  0
    5.9288   -0.6514    0.2972 H   0  0  0  0  0  0  0  0  0  0  0  0
    4.3330   -0.0518    0.6592 H   0  0  0  0  0  0  0  0  0  0  0  0
    5.5671   -2.6917    1.4733 H   0  0  0  0  0  0  0  0  0  0  0  0
    5.8127   -2.8663    4.2332 H   0  0  0  0  0  0  0  0  0  0  0  0
    5.0872   -1.5394    5.1108 H   0  0  0  0  0  0  0  0  0  0  0  0
    3.6580   -3.6344    5.0497 H   0  0  0  0  0  0  0  0  0  0  0  0
    2.8364   -2.2212    4.4480 H   0  0  0  0  0  0  0  0  0  0  0  0
    4.1833   -4.4066    2.8225 H   0  0  0  0  0  0  0  0  0  0  0  0
    2.4526   -4.1855    2.9465 H   0  0  0  0  0  0  0  0  0  0  0  0
    2.3661   -1.0061    2.6140 H   0  0  0  0  0  0  0  0  0  0  0  0
    1.3083   -2.2398    1.9507 H   0  0  0  0  0  0  0  0  0  0  0  0
    2.1426   -1.1106    0.8889 H   0  0  0  0  0  0  0  0  0  0  0  0
  1  2  1  0
  1 18  1  0
  1 19  1  0
  1 20  1  0
  2 16  1  0
  2  3  1  0
  2 21  1  6
  3  8  2  0
  3  4  1  0
  4  5  2  0
  4 22  1  0
  5  6  1  0
  5 23  1  0
  6  7  2  0
  6 24  1  0
  7  8  1  0
  7 25  1  0
  8  9  1  0
  9 10  1  0
  9 26  1  0
  9 27  1  0
 10 16  1  0
 10 11  1  0
 10 28  1  6
 11 12  2  0
 11 13  1  0
 13 14  1  0
 13 29  1  0
 13 30  1  0
 14 15  1  0
 14 31  1  0
 14 32  1  0
 15 16  1  0
 15 33  1  0
 15 34  1  0
 16 17  1  1
 17 35  1  0
 17 36  1  0
 17 37  1  0
M  END
>  <i_m_ct_stereo_status>  (188) 
1

>  <s_m_source_file>  (188) 
/var/tmp/pbs.5076255.sched01/tmpnx1894nc/68p53si2vm.sdf

>  <i_m_source_file_index>  (188) 
6

>  <i_lp_mmshare_version>  (188) 
48012

>  <i_f3d_flags>  (188) 
0

>  <s_epik_input>  (188) 
W2NIXTFbY0hdW2NIXVtjSF1jKFtDQEhdMltDSDNdKWMxW0NIMl1bQ0BIXShbQ0BAXTIzW0NIM10pQyg9TylbQ0gyXVtDSDJdW0NIMl0z

>  <s_epik_cmdline>  (188) 
J2VwaWtfcHl0aG9uJywgJy1waHQnLCAnMi4wJywgJy1waCcsICc3LjAnLCAnLXRuJywgJzgnLCAnLW1hJywgJzIwMCcsICctaW1hZScsICc8aW5maWxlLm1hZT4nLCAnLW9tYWUnLCAnPG91dGZpbGUubWFlPic=

>  <r_lp_tautomer_probability>  (188) 
1

>  <r_epik_Ionization_Penalty>  (188) 
1.86681e-13

>  <r_epik_Ionization_Penalty_Charging>  (188) 
0

>  <r_epik_Ionization_Penalty_Neutral>  (188) 
1.86681e-13

>  <r_epik_State_Penalty>  (188) 
-0

>  <r_epik_Charging_Adjusted_Penalty>  (188) 
0

>  <i_epik_Tot_Q>  (188) 
0

>  <i_epik_Tot_abs_Q>  (188) 
0

>  <s_lp_Force_Field>  (188) 
OPLS3e

>  <r_lp_Energy>  (188) 
24.7922

>  <b_lp_Chiralities_Consistent>  (188) 
1

>  <s_lp_Variant>  (188) 
56:0-1

>  <s_i_glide_gridfile>  (188) 
pfpi4k_grid

>  <i_i_glide_lignum>  (188) 
6

>  <i_i_glide_rotatable_bonds>  (188) 
0

>  <r_i_docking_score>  (188) 
-3.7231

>  <r_i_glide_ligand_efficiency>  (188) 
-0.219006

>  <r_i_glide_ligand_efficiency_sa>  (188) 
-0.563125

>  <r_i_glide_ligand_efficiency_ln>  (188) 
-0.971273

>  <r_i_glide_gscore>  (188) 
-3.7231

>  <r_i_glide_lipo>  (188) 
-0.462066

>  <r_i_glide_hbond>  (188) 
-0.0803307

>  <r_i_glide_metal>  (188) 
-0

>  <r_i_glide_rewards>  (188) 
-1.98793

>  <r_i_glide_evdw>  (188) 
-20.9447

>  <r_i_glide_ecoul>  (188) 
-0.970256

>  <r_i_glide_erotb>  (188) 
0

>  <r_i_glide_esite>  (188) 
0

>  <r_i_glide_emodel>  (188) 
-26.8107

>  <r_i_glide_energy>  (188) 
-21.915

>  <r_i_glide_einternal>  (188) 
0

>  <r_i_glide_intrahb_reward>  (188) 
-0

>  <i_i_glide_confnum>  (188) 
2

>  <i_i_glide_posenum>  (188) 
39

>  <r_i_glide_eff_state_penalty>  (188) 
0

>  <ligand_id>  (188) 
56

>  <original_smiles>  (188) 
CC1c2ccccc2CC2C(=O)CCCC21C

>  <smiles>  (188) 
[H]c1c([H])c([H])c2c(c1[H])C([H])([H])C1([H])C(=O)C([H])([H])C([H])([H])C([H])([H])C1(C([H])([H])[H])C2([H])C([H])([H])[H]

$$$$
56:0:1
     RDKit          3D

 37 39  0  0  1  0  0  0  0  0999 V2000
    3.9794   -0.5165    1.0278 C   0  0  0  0  0  0  0  0  0  0  0  0
    4.6516   -1.7605    0.4029 C   0  0  2  0  0  0  0  0  0  0  0  0
    4.1669   -1.9077   -1.0396 C   0  0  0  0  0  0  0  0  0  0  0  0
    4.6687   -1.0249   -2.0171 C   0  0  0  0  0  0  0  0  0  0  0  0
    4.2096   -1.0916   -3.3471 C   0  0  0  0  0  0  0  0  0  0  0  0
    3.2325   -2.0371   -3.7082 C   0  0  0  0  0  0  0  0  0  0  0  0
    2.7389   -2.9374   -2.7470 C   0  0  0  0  0  0  0  0  0  0  0  0
    3.2136   -2.8867   -1.4182 C   0  0  0  0  0  0  0  0  0  0  0  0
    2.6997   -3.9135   -0.4304 C   0  0  0  0  0  0  0  0  0  0  0  0
    3.0328   -3.6095    1.0433 C   0  0  1  0  0  0  0  0  0  0  0  0
    2.7041   -4.7895    1.9728 C   0  0  0  0  0  0  0  0  0  0  0  0
    2.0941   -5.7837    1.5765 O   0  0  0  0  0  0  0  0  0  0  0  0
    3.0820   -4.6317    3.4451 C   0  0  0  0  0  0  0  0  0  0  0  0
    4.5084   -4.0812    3.6124 C   0  0  0  0  0  0  0  0  0  0  0  0
    4.7488   -2.8313    2.7443 C   0  0  0  0  0  0  0  0  0  0  0  0
    4.4833   -3.0750    1.2288 C   0  0  2  0  0  0  0  0  0  0  0  0
    5.5302   -4.1048    0.7158 C   0  0  0  0  0  0  0  0  0  0  0  0
    4.0736    0.3480    0.3728 H   0  0  0  0  0  0  0  0  0  0  0  0
    4.4437   -0.2254    1.9700 H   0  0  0  0  0  0  0  0  0  0  0  0
    2.9133   -0.6692    1.2010 H   0  0  0  0  0  0  0  0  0  0  0  0
    5.7182   -1.5360    0.3533 H   0  0  0  0  0  0  0  0  0  0  0  0
    5.3986   -0.2758   -1.7383 H   0  0  0  0  0  0  0  0  0  0  0  0
    4.5924   -0.4048   -4.0844 H   0  0  0  0  0  0  0  0  0  0  0  0
    2.8578   -2.0693   -4.7186 H   0  0  0  0  0  0  0  0  0  0  0  0
    1.9933   -3.6667   -3.0281 H   0  0  0  0  0  0  0  0  0  0  0  0
    1.6272   -4.0292   -0.5747 H   0  0  0  0  0  0  0  0  0  0  0  0
    3.1456   -4.8661   -0.7177 H   0  0  0  0  0  0  0  0  0  0  0  0
    2.3594   -2.8164    1.3603 H   0  0  0  0  0  0  0  0  0  0  0  0
    2.3689   -3.9480    3.8998 H   0  0  0  0  0  0  0  0  0  0  0  0
    2.9782   -5.5847    3.9656 H   0  0  0  0  0  0  0  0  0  0  0  0
    4.6735   -3.8296    4.6615 H   0  0  0  0  0  0  0  0  0  0  0  0
    5.2363   -4.8602    3.3754 H   0  0  0  0  0  0  0  0  0  0  0  0
    4.0758   -2.0630    3.1274 H   0  0  0  0  0  0  0  0  0  0  0  0
    5.7644   -2.4603    2.8937 H   0  0  0  0  0  0  0  0  0  0  0  0
    5.3798   -5.1000    1.1352 H   0  0  0  0  0  0  0  0  0  0  0  0
    6.5438   -3.7882    0.9708 H   0  0  0  0  0  0  0  0  0  0  0  0
    5.4930   -4.2230   -0.3669 H   0  0  0  0  0  0  0  0  0  0  0  0
  1  2  1  0
  1 18  1  0
  1 19  1  0
  1 20  1  0
  2 16  1  0
  2  3  1  0
  2 21  1  6
  3  8  2  0
  3  4  1  0
  4  5  2  0
  4 22  1  0
  5  6  1  0
  5 23  1  0
  6  7  2  0
  6 24  1  0
  7  8  1  0
  7 25  1  0
  8  9  1  0
  9 10  1  0
  9 26  1  0
  9 27  1  0
 10 16  1  0
 10 11  1  0
 10 28  1  1
 11 12  2  0
 11 13  1  0
 13 14  1  0
 13 29  1  0
 13 30  1  0
 14 15  1  0
 14 31  1  0
 14 32  1  0
 15 16  1  0
 15 33  1  0
 15 34  1  0
 16 17  1  6
 17 35  1  0
 17 36  1  0
 17 37  1  0
M  END
>  <i_m_ct_stereo_status>  (189) 
1

>  <s_m_source_file>  (189) 
/var/tmp/pbs.5076255.sched01/tmpnx1894nc/68p53si2vm.sdf

>  <i_m_source_file_index>  (189) 
6

>  <i_lp_mmshare_version>  (189) 
48012

>  <i_f3d_flags>  (189) 
0

>  <s_epik_input>  (189) 
W2NIXTFbY0hdW2NIXVtjSF1jKFtDQEhdMltDSDNdKWMxW0NIMl1bQ0BIXShbQ0BAXTIzW0NIM10pQyg9TylbQ0gyXVtDSDJdW0NIMl0z

>  <s_epik_cmdline>  (189) 
J2VwaWtfcHl0aG9uJywgJy1waHQnLCAnMi4wJywgJy1waCcsICc3LjAnLCAnLXRuJywgJzgnLCAnLW1hJywgJzIwMCcsICctaW1hZScsICc8aW5maWxlLm1hZT4nLCAnLW9tYWUnLCAnPG91dGZpbGUubWFlPic=

>  <r_lp_tautomer_probability>  (189) 
1

>  <r_epik_Ionization_Penalty>  (189) 
1.86681e-13

>  <r_epik_Ionization_Penalty_Charging>  (189) 
0

>  <r_epik_Ionization_Penalty_Neutral>  (189) 
1.86681e-13

>  <r_epik_State_Penalty>  (189) 
-0

>  <r_epik_Charging_Adjusted_Penalty>  (189) 
0

>  <i_epik_Tot_Q>  (189) 
0

>  <i_epik_Tot_abs_Q>  (189) 
0

>  <s_lp_Force_Field>  (189) 
OPLS3e

>  <r_lp_Energy>  (189) 
24.7922

>  <b_lp_Chiralities_Consistent>  (189) 
1

>  <s_lp_Variant>  (189) 
56:0-1

>  <s_i_glide_gridfile>  (189) 
pfpi4k_grid

>  <i_i_glide_lignum>  (189) 
6

>  <i_i_glide_rotatable_bonds>  (189) 
0

>  <r_i_docking_score>  (189) 
-3.6707

>  <r_i_glide_ligand_efficiency>  (189) 
-0.215924

>  <r_i_glide_ligand_efficiency_sa>  (189) 
-0.5552

>  <r_i_glide_ligand_efficiency_ln>  (189) 
-0.957604

>  <r_i_glide_gscore>  (189) 
-3.6707

>  <r_i_glide_lipo>  (189) 
-0.530054

>  <r_i_glide_hbond>  (189) 
0

>  <r_i_glide_metal>  (189) 
-0

>  <r_i_glide_rewards>  (189) 
-1.8523

>  <r_i_glide_evdw>  (189) 
-22.0885

>  <r_i_glide_ecoul>  (189) 
-1.16296

>  <r_i_glide_erotb>  (189) 
0

>  <r_i_glide_esite>  (189) 
-0.00948041

>  <r_i_glide_emodel>  (189) 
-28.0867

>  <r_i_glide_energy>  (189) 
-23.2514

>  <r_i_glide_einternal>  (189) 
0

>  <r_i_glide_intrahb_reward>  (189) 
-0

>  <i_i_glide_confnum>  (189) 
2

>  <i_i_glide_posenum>  (189) 
1

>  <r_i_glide_eff_state_penalty>  (189) 
0

>  <ligand_id>  (189) 
56

>  <original_smiles>  (189) 
CC1c2ccccc2CC2C(=O)CCCC21C

>  <smiles>  (189) 
[H]c1c([H])c([H])c2c(c1[H])C([H])([H])C1([H])C(=O)C([H])([H])C([H])([H])C([H])([H])C1(C([H])([H])[H])C2([H])C([H])([H])[H]

$$$$
56:0:2
     RDKit          3D

 37 39  0  0  1  0  0  0  0  0999 V2000
    6.8453   -3.4988   -0.1503 C   0  0  0  0  0  0  0  0  0  0  0  0
    5.3016   -3.5736   -0.1130 C   0  0  2  0  0  0  0  0  0  0  0  0
    4.7604   -2.9466   -1.3986 C   0  0  0  0  0  0  0  0  0  0  0  0
    4.8467   -3.6817   -2.5973 C   0  0  0  0  0  0  0  0  0  0  0  0
    4.3815   -3.1471   -3.8090 C   0  0  0  0  0  0  0  0  0  0  0  0
    3.8472   -1.8452   -3.8383 C   0  0  0  0  0  0  0  0  0  0  0  0
    3.7493   -1.1042   -2.6484 C   0  0  0  0  0  0  0  0  0  0  0  0
    4.1838   -1.6554   -1.4220 C   0  0  0  0  0  0  0  0  0  0  0  0
    3.9612   -0.8765   -0.1381 C   0  0  0  0  0  0  0  0  0  0  0  0
    4.7111   -1.4182    1.0867 C   0  0  1  0  0  0  0  0  0  0  0  0
    4.2725   -0.7269    2.3920 C   0  0  0  0  0  0  0  0  0  0  0  0
    3.4886    0.2177    2.4109 O   0  0  0  0  0  0  0  0  0  0  0  0
    4.9017   -1.2475    3.6835 C   0  0  0  0  0  0  0  0  0  0  0  0
    4.8589   -2.7834    3.7502 C   0  0  0  0  0  0  0  0  0  0  0  0
    5.3987   -3.4311    2.4585 C   0  0  0  0  0  0  0  0  0  0  0  0
    4.6506   -2.9681    1.1755 C   0  0  2  0  0  0  0  0  0  0  0  0
    3.1836   -3.4740    1.2661 C   0  0  0  0  0  0  0  0  0  0  0  0
    7.2262   -3.8523   -1.1080 H   0  0  0  0  0  0  0  0  0  0  0  0
    7.3051   -4.1284    0.6114 H   0  0  0  0  0  0  0  0  0  0  0  0
    7.2116   -2.4823   -0.0237 H   0  0  0  0  0  0  0  0  0  0  0  0
    5.0414   -4.6342   -0.1442 H   0  0  0  0  0  0  0  0  0  0  0  0
    5.2556   -4.6790   -2.5838 H   0  0  0  0  0  0  0  0  0  0  0  0
    4.4454   -3.7384   -4.7096 H   0  0  0  0  0  0  0  0  0  0  0  0
    3.4932   -1.4142   -4.7625 H   0  0  0  0  0  0  0  0  0  0  0  0
    3.3078   -0.1187   -2.6953 H   0  0  0  0  0  0  0  0  0  0  0  0
    4.2475    0.1549   -0.3076 H   0  0  0  0  0  0  0  0  0  0  0  0
    2.8885   -0.8716    0.0602 H   0  0  0  0  0  0  0  0  0  0  0  0
    5.7563   -1.1413    0.9638 H   0  0  0  0  0  0  0  0  0  0  0  0
    5.9322   -0.8965    3.7154 H   0  0  0  0  0  0  0  0  0  0  0  0
    4.3926   -0.8143    4.5459 H   0  0  0  0  0  0  0  0  0  0  0  0
    5.4559   -3.1212    4.5996 H   0  0  0  0  0  0  0  0  0  0  0  0
    3.8406   -3.1185    3.9508 H   0  0  0  0  0  0  0  0  0  0  0  0
    6.4467   -3.1486    2.3885 H   0  0  0  0  0  0  0  0  0  0  0  0
    5.3716   -4.5196    2.5466 H   0  0  0  0  0  0  0  0  0  0  0  0
    2.6175   -2.9767    2.0549 H   0  0  0  0  0  0  0  0  0  0  0  0
    3.1523   -4.5464    1.4682 H   0  0  0  0  0  0  0  0  0  0  0  0
    2.6350   -3.3034    0.3382 H   0  0  0  0  0  0  0  0  0  0  0  0
  1  2  1  0
  1 18  1  0
  1 19  1  0
  1 20  1  0
  2 16  1  0
  2  3  1  0
  2 21  1  6
  3  8  2  0
  3  4  1  0
  4  5  2  0
  4 22  1  0
  5  6  1  0
  5 23  1  0
  6  7  2  0
  6 24  1  0
  7  8  1  0
  7 25  1  0
  8  9  1  0
  9 10  1  0
  9 26  1  0
  9 27  1  0
 10 16  1  0
 10 11  1  0
 10 28  1  6
 11 12  2  0
 11 13  1  0
 13 14  1  0
 13 29  1  0
 13 30  1  0
 14 15  1  0
 14 31  1  0
 14 32  1  0
 15 16  1  0
 15 33  1  0
 15 34  1  0
 16 17  1  1
 17 35  1  0
 17 36  1  0
 17 37  1  0
M  END
>  <i_m_ct_stereo_status>  (190) 
1

>  <s_m_source_file>  (190) 
/var/tmp/pbs.5076255.sched01/tmpnx1894nc/68p53si2vm.sdf

>  <i_m_source_file_index>  (190) 
6

>  <i_lp_mmshare_version>  (190) 
48012

>  <i_f3d_flags>  (190) 
0

>  <s_epik_input>  (190) 
W2NIXTFbY0hdW2NIXVtjSF1jKFtDQEhdMltDSDNdKWMxW0NIMl1bQ0BIXShbQ0BAXTIzW0NIM10pQyg9TylbQ0gyXVtDSDJdW0NIMl0z

>  <s_epik_cmdline>  (190) 
J2VwaWtfcHl0aG9uJywgJy1waHQnLCAnMi4wJywgJy1waCcsICc3LjAnLCAnLXRuJywgJzgnLCAnLW1hJywgJzIwMCcsICctaW1hZScsICc8aW5maWxlLm1hZT4nLCAnLW9tYWUnLCAnPG91dGZpbGUubWFlPic=

>  <r_lp_tautomer_probability>  (190) 
1

>  <r_epik_Ionization_Penalty>  (190) 
1.86681e-13

>  <r_epik_Ionization_Penalty_Charging>  (190) 
0

>  <r_epik_Ionization_Penalty_Neutral>  (190) 
1.86681e-13

>  <r_epik_State_Penalty>  (190) 
-0

>  <r_epik_Charging_Adjusted_Penalty>  (190) 
0

>  <i_epik_Tot_Q>  (190) 
0

>  <i_epik_Tot_abs_Q>  (190) 
0

>  <s_lp_Force_Field>  (190) 
OPLS3e

>  <r_lp_Energy>  (190) 
24.7922

>  <b_lp_Chiralities_Consistent>  (190) 
1

>  <s_lp_Variant>  (190) 
56:0-1

>  <s_i_glide_gridfile>  (190) 
pfpi4k_grid

>  <i_i_glide_lignum>  (190) 
6

>  <i_i_glide_rotatable_bonds>  (190) 
0

>  <r_i_docking_score>  (190) 
-3.53844

>  <r_i_glide_ligand_efficiency>  (190) 
-0.208144

>  <r_i_glide_ligand_efficiency_sa>  (190) 
-0.535196

>  <r_i_glide_ligand_efficiency_ln>  (190) 
-0.923101

>  <r_i_glide_gscore>  (190) 
-3.53844

>  <r_i_glide_lipo>  (190) 
-0.642303

>  <r_i_glide_hbond>  (190) 
0

>  <r_i_glide_metal>  (190) 
-0

>  <r_i_glide_rewards>  (190) 
-1.92398

>  <r_i_glide_evdw>  (190) 
-21.9149

>  <r_i_glide_ecoul>  (190) 
0.823885

>  <r_i_glide_erotb>  (190) 
0

>  <r_i_glide_esite>  (190) 
0

>  <r_i_glide_emodel>  (190) 
-25.7302

>  <r_i_glide_energy>  (190) 
-21.091

>  <r_i_glide_einternal>  (190) 
0

>  <r_i_glide_intrahb_reward>  (190) 
-0

>  <i_i_glide_confnum>  (190) 
1

>  <i_i_glide_posenum>  (190) 
7

>  <r_i_glide_eff_state_penalty>  (190) 
0

>  <ligand_id>  (190) 
56

>  <original_smiles>  (190) 
CC1c2ccccc2CC2C(=O)CCCC21C

>  <smiles>  (190) 
[H]c1c([H])c([H])c2c(c1[H])C([H])([H])C1([H])C(=O)C([H])([H])C([H])([H])C([H])([H])C1(C([H])([H])[H])C2([H])C([H])([H])[H]

$$$$
57:0:0
     RDKit          3D

 43 46  0  0  1  0  0  0  0  0999 V2000
    2.6187   -5.8853    2.3592 C   0  0  0  0  0  0  0  0  0  0  0  0
    2.7821   -4.5502    1.6099 C   0  0  2  0  0  0  0  0  0  0  0  0
    2.9622   -4.8310    0.1137 C   0  0  0  0  0  0  0  0  0  0  0  0
    2.9736   -3.5324   -0.6892 C   0  0  0  0  0  0  0  0  0  0  0  0
    4.0428   -2.5561   -0.1880 C   0  0  2  0  0  0  0  0  0  0  0  0
    5.4991   -2.9664   -0.5236 C   0  0  1  0  0  0  0  0  0  0  0  0
    5.9047   -2.6301   -1.9715 C   0  0  0  0  0  0  0  0  0  0  0  0
    6.3482   -2.3066    0.5881 C   0  0  1  0  0  0  0  0  0  0  0  0
    7.3631   -1.4568    0.1007 O   0  0  0  0  0  0  0  0  0  0  0  0
    5.3393   -1.5018    1.4137 C   0  0  2  0  0  0  0  0  0  0  0  0
    5.7475   -1.2524    2.7287 O   0  0  0  0  0  0  0  0  0  0  0  0
    4.6479   -1.0325    3.5963 C   0  0  2  0  0  0  0  0  0  0  0  0
    5.0485    0.1116    4.5349 C   0  0  0  0  0  0  0  0  0  0  0  0
    4.4773   -2.3319    4.3880 C   0  0  0  0  0  0  0  0  0  0  0  0
    3.6554   -3.4039    3.6736 C   0  0  0  0  0  0  0  0  0  0  0  0
    3.9221   -3.6388    2.1662 C   0  0  2  0  0  0  0  0  0  0  0  0
    4.0338   -2.3064    1.3398 C   0  0  2  0  0  0  0  0  0  0  0  0
    2.9900   -1.4479    1.7694 O   0  0  0  0  0  0  0  0  0  0  0  0
    3.4517   -0.5576    2.9483 O   0  0  0  0  0  0  0  0  0  0  0  0
    3.5577   -6.4375    2.3958 H   0  0  0  0  0  0  0  0  0  0  0  0
    1.8814   -6.5225    1.8692 H   0  0  0  0  0  0  0  0  0  0  0  0
    2.2667   -5.7395    3.3802 H   0  0  0  0  0  0  0  0  0  0  0  0
    1.8413   -4.0101    1.7243 H   0  0  0  0  0  0  0  0  0  0  0  0
    3.8793   -5.3992   -0.0529 H   0  0  0  0  0  0  0  0  0  0  0  0
    2.1517   -5.4612   -0.2553 H   0  0  0  0  0  0  0  0  0  0  0  0
    3.1305   -3.7534   -1.7458 H   0  0  0  0  0  0  0  0  0  0  0  0
    1.9967   -3.0556   -0.6109 H   0  0  0  0  0  0  0  0  0  0  0  0
    3.8490   -1.5975   -0.6790 H   0  0  0  0  0  0  0  0  0  0  0  0
    5.6112   -4.0430   -0.4039 H   0  0  0  0  0  0  0  0  0  0  0  0
    5.8210   -1.5616   -2.1782 H   0  0  0  0  0  0  0  0  0  0  0  0
    5.2628   -3.1528   -2.6792 H   0  0  0  0  0  0  0  0  0  0  0  0
    6.9307   -2.9399   -2.1760 H   0  0  0  0  0  0  0  0  0  0  0  0
    6.8030   -3.0762    1.2153 H   0  0  0  0  0  0  0  0  0  0  0  0
    7.7364   -1.0111    0.8514 H   0  0  0  0  0  0  0  0  0  0  0  0
    5.1836   -0.5328    0.9329 H   0  0  0  0  0  0  0  0  0  0  0  0
    5.1824    1.0312    3.9649 H   0  0  0  0  0  0  0  0  0  0  0  0
    5.9780   -0.0952    5.0692 H   0  0  0  0  0  0  0  0  0  0  0  0
    4.2689    0.3046    5.2779 H   0  0  0  0  0  0  0  0  0  0  0  0
    5.4638   -2.7307    4.6325 H   0  0  0  0  0  0  0  0  0  0  0  0
    4.0037   -2.1304    5.3524 H   0  0  0  0  0  0  0  0  0  0  0  0
    3.8268   -4.3361    4.2116 H   0  0  0  0  0  0  0  0  0  0  0  0
    2.6032   -3.1578    3.8172 H   0  0  0  0  0  0  0  0  0  0  0  0
    4.8590   -4.1827    2.0691 H   0  0  0  0  0  0  0  0  0  0  0  0
  1  2  1  0
  1 20  1  0
  1 21  1  0
  1 22  1  0
  2 16  1  0
  2  3  1  0
  2 23  1  6
  3  4  1  0
  3 24  1  0
  3 25  1  0
  4  5  1  0
  4 26  1  0
  4 27  1  0
  5 17  1  0
  5  6  1  0
  5 28  1  6
  6  7  1  0
  6  8  1  0
  6 29  1  6
  7 30  1  0
  7 31  1  0
  7 32  1  0
  8  9  1  0
  8 10  1  0
  8 33  1  1
  9 34  1  0
 10 17  1  0
 10 11  1  0
 10 35  1  6
 11 12  1  0
 12 19  1  0
 12 13  1  1
 12 14  1  0
 13 36  1  0
 13 37  1  0
 13 38  1  0
 14 15  1  0
 14 39  1  0
 14 40  1  0
 15 16  1  0
 15 41  1  0
 15 42  1  0
 16 17  1  0
 16 43  1  1
 17 18  1  6
 18 19  1  0
M  END
>  <i_m_ct_stereo_status>  (191) 
1

>  <s_m_source_file>  (191) 
/var/tmp/pbs.5076255.sched01/tmpnx1894nc/68p53si2vm.sdf

>  <i_m_source_file_index>  (191) 
7

>  <i_lp_mmshare_version>  (191) 
48012

>  <i_f3d_flags>  (191) 
0

>  <s_epik_input>  (191) 
W0NAQF0xMjNbQ0BASF00W0NIMl1bQ0gyXVtDQEBIXShbQ0gzXSlbQ0BASF0yW0NIMl1bQ0gyXVtDQF0oW0NIM10pKE9PMylPW0NASF0xW0NASF0oW09IXSlbQ0BASF00W0NIM10=

>  <s_epik_cmdline>  (191) 
J2VwaWtfcHl0aG9uJywgJy1waHQnLCAnMi4wJywgJy1waCcsICc3LjAnLCAnLXRuJywgJzgnLCAnLW1hJywgJzIwMCcsICctaW1hZScsICc8aW5maWxlLm1hZT4nLCAnLW9tYWUnLCAnPG91dGZpbGUubWFlPic=

>  <r_lp_tautomer_probability>  (191) 
1

>  <r_epik_Ionization_Penalty>  (191) 
4.86243e-08

>  <r_epik_Ionization_Penalty_Charging>  (191) 
0

>  <r_epik_Ionization_Penalty_Neutral>  (191) 
4.86243e-08

>  <r_epik_State_Penalty>  (191) 
-0

>  <r_epik_Charging_Adjusted_Penalty>  (191) 
0

>  <i_epik_Tot_Q>  (191) 
0

>  <i_epik_Tot_abs_Q>  (191) 
0

>  <s_lp_Force_Field>  (191) 
OPLS3e

>  <r_lp_Energy>  (191) 
40.8722

>  <b_lp_Chiralities_Consistent>  (191) 
1

>  <s_lp_Variant>  (191) 
57:0-1

>  <s_i_glide_gridfile>  (191) 
pfpi4k_grid

>  <i_i_glide_lignum>  (191) 
7

>  <i_i_glide_rotatable_bonds>  (191) 
1

>  <r_i_docking_score>  (191) 
-3.3138

>  <r_i_glide_ligand_efficiency>  (191) 
-0.174411

>  <r_i_glide_ligand_efficiency_sa>  (191) 
-0.465397

>  <r_i_glide_ligand_efficiency_ln>  (191) 
-0.840119

>  <r_i_glide_gscore>  (191) 
-3.3138

>  <r_i_glide_lipo>  (191) 
-0.318076

>  <r_i_glide_hbond>  (191) 
0

>  <r_i_glide_metal>  (191) 
-0

>  <r_i_glide_rewards>  (191) 
-1.65812

>  <r_i_glide_evdw>  (191) 
-19.3392

>  <r_i_glide_ecoul>  (191) 
-2.47097

>  <r_i_glide_erotb>  (191) 
0

>  <r_i_glide_esite>  (191) 
0

>  <r_i_glide_emodel>  (191) 
-26.2834

>  <r_i_glide_energy>  (191) 
-21.8102

>  <r_i_glide_einternal>  (191) 
0.397903

>  <r_i_glide_intrahb_reward>  (191) 
-0

>  <i_i_glide_confnum>  (191) 
1

>  <i_i_glide_posenum>  (191) 
14

>  <r_i_glide_eff_state_penalty>  (191) 
0

>  <ligand_id>  (191) 
57

>  <original_smiles>  (191) 
CC1CCC2C(C)C(O)C3OC4(C)CCC1C23OO4

>  <smiles>  (191) 
[H]OC1([H])C2([H])OC3(C([H])([H])[H])OOC24C([H])(C([H])([H])C3([H])[H])C([H])(C([H])([H])[H])C([H])([H])C([H])([H])C4([H])C1([H])C([H])([H])[H]

$$$$
57:0:1
     RDKit          3D

 43 46  0  0  1  0  0  0  0  0999 V2000
    5.3186   -4.9925    3.7414 C   0  0  0  0  0  0  0  0  0  0  0  0
    4.4556   -4.5599    2.5433 C   0  0  2  0  0  0  0  0  0  0  0  0
    4.8522   -5.3935    1.3180 C   0  0  0  0  0  0  0  0  0  0  0  0
    3.9155   -5.1145    0.1487 C   0  0  0  0  0  0  0  0  0  0  0  0
    3.8500   -3.6220   -0.2041 C   0  0  2  0  0  0  0  0  0  0  0  0
    5.1173   -3.0582   -0.9033 C   0  0  1  0  0  0  0  0  0  0  0  0
    5.1797   -3.3928   -2.4062 C   0  0  0  0  0  0  0  0  0  0  0  0
    5.1267   -1.5533   -0.5361 C   0  0  1  0  0  0  0  0  0  0  0  0
    5.1575   -0.6754   -1.6490 O   0  0  0  0  0  0  0  0  0  0  0  0
    3.8335   -1.3518    0.2565 C   0  0  2  0  0  0  0  0  0  0  0  0
    3.8797   -0.2585    1.1315 O   0  0  0  0  0  0  0  0  0  0  0  0
    2.9499   -0.3860    2.1950 C   0  0  2  0  0  0  0  0  0  0  0  0
    2.3038    0.9919    2.3914 C   0  0  0  0  0  0  0  0  0  0  0  0
    3.7920   -0.7685    3.4146 C   0  0  0  0  0  0  0  0  0  0  0  0
    4.0898   -2.2652    3.5241 C   0  0  0  0  0  0  0  0  0  0  0  0
    4.4990   -3.0274    2.2377 C   0  0  2  0  0  0  0  0  0  0  0  0
    3.6002   -2.6751    0.9984 C   0  0  2  0  0  0  0  0  0  0  0  0
    2.2563   -2.6731    1.4470 O   0  0  0  0  0  0  0  0  0  0  0  0
    1.8393   -1.2717    1.9533 O   0  0  0  0  0  0  0  0  0  0  0  0
    6.3465   -4.6754    3.6073 H   0  0  0  0  0  0  0  0  0  0  0  0
    5.3231   -6.0754    3.8524 H   0  0  0  0  0  0  0  0  0  0  0  0
    4.9476   -4.5864    4.6830 H   0  0  0  0  0  0  0  0  0  0  0  0
    3.4256   -4.8279    2.7918 H   0  0  0  0  0  0  0  0  0  0  0  0
    5.8886   -5.1874    1.0433 H   0  0  0  0  0  0  0  0  0  0  0  0
    4.8077   -6.4595    1.5559 H   0  0  0  0  0  0  0  0  0  0  0  0
    4.2300   -5.6948   -0.7198 H   0  0  0  0  0  0  0  0  0  0  0  0
    2.9158   -5.4636    0.4083 H   0  0  0  0  0  0  0  0  0  0  0  0
    3.0169   -3.4991   -0.9018 H   0  0  0  0  0  0  0  0  0  0  0  0
    5.9966   -3.5089   -0.4417 H   0  0  0  0  0  0  0  0  0  0  0  0
    4.3368   -2.9721   -2.9562 H   0  0  0  0  0  0  0  0  0  0  0  0
    5.1661   -4.4734   -2.5627 H   0  0  0  0  0  0  0  0  0  0  0  0
    6.0996   -3.0134   -2.8525 H   0  0  0  0  0  0  0  0  0  0  0  0
    5.9818   -1.3458    0.1062 H   0  0  0  0  0  0  0  0  0  0  0  0
    5.0140    0.2147   -1.3354 H   0  0  0  0  0  0  0  0  0  0  0  0
    3.0168   -1.1876   -0.4433 H   0  0  0  0  0  0  0  0  0  0  0  0
    1.7209    1.2701    1.5121 H   0  0  0  0  0  0  0  0  0  0  0  0
    3.0433    1.7770    2.5622 H   0  0  0  0  0  0  0  0  0  0  0  0
    1.6179    0.9912    3.2421 H   0  0  0  0  0  0  0  0  0  0  0  0
    4.7299   -0.2081    3.3897 H   0  0  0  0  0  0  0  0  0  0  0  0
    3.2919   -0.4542    4.3337 H   0  0  0  0  0  0  0  0  0  0  0  0
    4.8843   -2.3692    4.2599 H   0  0  0  0  0  0  0  0  0  0  0  0
    3.2101   -2.7428    3.9548 H   0  0  0  0  0  0  0  0  0  0  0  0
    5.5288   -2.7643    1.9985 H   0  0  0  0  0  0  0  0  0  0  0  0
  1  2  1  0
  1 20  1  0
  1 21  1  0
  1 22  1  0
  2 16  1  0
  2  3  1  0
  2 23  1  1
  3  4  1  0
  3 24  1  0
  3 25  1  0
  4  5  1  0
  4 26  1  0
  4 27  1  0
  5 17  1  0
  5  6  1  0
  5 28  1  6
  6  7  1  0
  6  8  1  0
  6 29  1  1
  7 30  1  0
  7 31  1  0
  7 32  1  0
  8  9  1  0
  8 10  1  0
  8 33  1  1
  9 34  1  0
 10 17  1  0
 10 11  1  0
 10 35  1  6
 11 12  1  0
 12 19  1  0
 12 13  1  1
 12 14  1  0
 13 36  1  0
 13 37  1  0
 13 38  1  0
 14 15  1  0
 14 39  1  0
 14 40  1  0
 15 16  1  0
 15 41  1  0
 15 42  1  0
 16 17  1  0
 16 43  1  6
 17 18  1  1
 18 19  1  0
M  END
>  <i_m_ct_stereo_status>  (192) 
1

>  <s_m_source_file>  (192) 
/var/tmp/pbs.5076255.sched01/tmpnx1894nc/68p53si2vm.sdf

>  <i_m_source_file_index>  (192) 
7

>  <i_lp_mmshare_version>  (192) 
48012

>  <i_f3d_flags>  (192) 
0

>  <s_epik_input>  (192) 
W0NAQF0xMjNbQ0BASF00W0NIMl1bQ0gyXVtDQEBIXShbQ0gzXSlbQ0BASF0yW0NIMl1bQ0gyXVtDQF0oW0NIM10pKE9PMylPW0NASF0xW0NASF0oW09IXSlbQ0BASF00W0NIM10=

>  <s_epik_cmdline>  (192) 
J2VwaWtfcHl0aG9uJywgJy1waHQnLCAnMi4wJywgJy1waCcsICc3LjAnLCAnLXRuJywgJzgnLCAnLW1hJywgJzIwMCcsICctaW1hZScsICc8aW5maWxlLm1hZT4nLCAnLW9tYWUnLCAnPG91dGZpbGUubWFlPic=

>  <r_lp_tautomer_probability>  (192) 
1

>  <r_epik_Ionization_Penalty>  (192) 
4.86243e-08

>  <r_epik_Ionization_Penalty_Charging>  (192) 
0

>  <r_epik_Ionization_Penalty_Neutral>  (192) 
4.86243e-08

>  <r_epik_State_Penalty>  (192) 
-0

>  <r_epik_Charging_Adjusted_Penalty>  (192) 
0

>  <i_epik_Tot_Q>  (192) 
0

>  <i_epik_Tot_abs_Q>  (192) 
0

>  <s_lp_Force_Field>  (192) 
OPLS3e

>  <r_lp_Energy>  (192) 
40.8722

>  <b_lp_Chiralities_Consistent>  (192) 
1

>  <s_lp_Variant>  (192) 
57:0-1

>  <s_i_glide_gridfile>  (192) 
pfpi4k_grid

>  <i_i_glide_lignum>  (192) 
7

>  <i_i_glide_rotatable_bonds>  (192) 
1

>  <r_i_docking_score>  (192) 
-3.2871

>  <r_i_glide_ligand_efficiency>  (192) 
-0.173006

>  <r_i_glide_ligand_efficiency_sa>  (192) 
-0.461648

>  <r_i_glide_ligand_efficiency_ln>  (192) 
-0.833352

>  <r_i_glide_gscore>  (192) 
-3.2871

>  <r_i_glide_lipo>  (192) 
-0.315572

>  <r_i_glide_hbond>  (192) 
0

>  <r_i_glide_metal>  (192) 
-0

>  <r_i_glide_rewards>  (192) 
-1.57944

>  <r_i_glide_evdw>  (192) 
-20.2805

>  <r_i_glide_ecoul>  (192) 
-2.40832

>  <r_i_glide_erotb>  (192) 
0

>  <r_i_glide_esite>  (192) 
-0.0168204

>  <r_i_glide_emodel>  (192) 
-27.0416

>  <r_i_glide_energy>  (192) 
-22.6888

>  <r_i_glide_einternal>  (192) 
0.45431

>  <r_i_glide_intrahb_reward>  (192) 
-0

>  <i_i_glide_confnum>  (192) 
2

>  <i_i_glide_posenum>  (192) 
1

>  <r_i_glide_eff_state_penalty>  (192) 
0

>  <ligand_id>  (192) 
57

>  <original_smiles>  (192) 
CC1CCC2C(C)C(O)C3OC4(C)CCC1C23OO4

>  <smiles>  (192) 
[H]OC1([H])C2([H])OC3(C([H])([H])[H])OOC24C([H])(C([H])([H])C3([H])[H])C([H])(C([H])([H])[H])C([H])([H])C([H])([H])C4([H])C1([H])C([H])([H])[H]

$$$$
57:0:2
     RDKit          3D

 43 46  0  0  1  0  0  0  0  0999 V2000
    5.4042   -4.9736    3.6559 C   0  0  0  0  0  0  0  0  0  0  0  0
    4.4928   -4.5879    2.4786 C   0  0  2  0  0  0  0  0  0  0  0  0
    4.8322   -5.4771    1.2761 C   0  0  0  0  0  0  0  0  0  0  0  0
    3.8490   -5.2416    0.1366 C   0  0  0  0  0  0  0  0  0  0  0  0
    3.7779   -3.7666   -0.2801 C   0  0  2  0  0  0  0  0  0  0  0  0
    5.0218   -3.2574   -1.0518 C   0  0  1  0  0  0  0  0  0  0  0  0
    5.0178   -3.6457   -2.5460 C   0  0  0  0  0  0  0  0  0  0  0  0
    5.0806   -1.7434   -0.7515 C   0  0  1  0  0  0  0  0  0  0  0  0
    5.0893   -0.9549   -1.9229 O   0  0  0  0  0  0  0  0  0  0  0  0
    3.8262   -1.4751    0.0832 C   0  0  2  0  0  0  0  0  0  0  0  0
    3.8978   -0.3427    0.9045 O   0  0  0  0  0  0  0  0  0  0  0  0
    3.0105   -0.4165    2.0080 C   0  0  2  0  0  0  0  0  0  0  0  0
    2.3808    0.9714    2.1702 C   0  0  0  0  0  0  0  0  0  0  0  0
    3.8967   -0.7560    3.2077 C   0  0  0  0  0  0  0  0  0  0  0  0
    4.1881   -2.2492    3.3721 C   0  0  0  0  0  0  0  0  0  0  0  0
    4.5356   -3.0697    2.1046 C   0  0  2  0  0  0  0  0  0  0  0  0
    3.5899   -2.7649    0.8869 C   0  0  2  0  0  0  0  0  0  0  0  0
    2.2650   -2.7242    1.3887 O   0  0  0  0  0  0  0  0  0  0  0  0
    1.8833   -1.3009    1.8426 O   0  0  0  0  0  0  0  0  0  0  0  0
    6.4284   -4.6701    3.4601 H   0  0  0  0  0  0  0  0  0  0  0  0
    5.4045   -6.0517    3.8126 H   0  0  0  0  0  0  0  0  0  0  0  0
    5.0779   -4.5249    4.5919 H   0  0  0  0  0  0  0  0  0  0  0  0
    3.4727   -4.8330    2.7803 H   0  0  0  0  0  0  0  0  0  0  0  0
    5.8584   -5.2948    0.9507 H   0  0  0  0  0  0  0  0  0  0  0  0
    4.7887   -6.5293    1.5620 H   0  0  0  0  0  0  0  0  0  0  0  0
    4.1378   -5.8601   -0.7137 H   0  0  0  0  0  0  0  0  0  0  0  0
    2.8578   -5.5699    0.4516 H   0  0  0  0  0  0  0  0  0  0  0  0
    2.9173   -3.6653   -0.9474 H   0  0  0  0  0  0  0  0  0  0  0  0
    5.9178   -3.6909   -0.6126 H   0  0  0  0  0  0  0  0  0  0  0  0
    4.1511   -3.2498   -3.0803 H   0  0  0  0  0  0  0  0  0  0  0  0
    5.0128   -4.7299   -2.6556 H   0  0  0  0  0  0  0  0  0  0  0  0
    5.9193   -3.2825   -3.0434 H   0  0  0  0  0  0  0  0  0  0  0  0
    5.9651   -1.5163   -0.1594 H   0  0  0  0  0  0  0  0  0  0  0  0
    4.2071   -0.9288   -2.2635 H   0  0  0  0  0  0  0  0  0  0  0  0
    2.9998   -1.3242   -0.6076 H   0  0  0  0  0  0  0  0  0  0  0  0
    1.7658    1.2148    1.3025 H   0  0  0  0  0  0  0  0  0  0  0  0
    3.1331    1.7538    2.2788 H   0  0  0  0  0  0  0  0  0  0  0  0
    1.7300    1.0127    3.0478 H   0  0  0  0  0  0  0  0  0  0  0  0
    4.8383   -0.2080    3.1205 H   0  0  0  0  0  0  0  0  0  0  0  0
    3.4393   -0.3963    4.1336 H   0  0  0  0  0  0  0  0  0  0  0  0
    5.0115   -2.3305    4.0800 H   0  0  0  0  0  0  0  0  0  0  0  0
    3.3207   -2.6987    3.8562 H   0  0  0  0  0  0  0  0  0  0  0  0
    5.5554   -2.8274    1.8109 H   0  0  0  0  0  0  0  0  0  0  0  0
  1  2  1  0
  1 20  1  0
  1 21  1  0
  1 22  1  0
  2 16  1  0
  2  3  1  0
  2 23  1  1
  3  4  1  0
  3 24  1  0
  3 25  1  0
  4  5  1  0
  4 26  1  0
  4 27  1  0
  5 17  1  0
  5  6  1  0
  5 28  1  6
  6  7  1  0
  6  8  1  0
  6 29  1  1
  7 30  1  0
  7 31  1  0
  7 32  1  0
  8  9  1  0
  8 10  1  0
  8 33  1  1
  9 34  1  0
 10 17  1  0
 10 11  1  0
 10 35  1  6
 11 12  1  0
 12 19  1  0
 12 13  1  1
 12 14  1  0
 13 36  1  0
 13 37  1  0
 13 38  1  0
 14 15  1  0
 14 39  1  0
 14 40  1  0
 15 16  1  0
 15 41  1  0
 15 42  1  0
 16 17  1  0
 16 43  1  6
 17 18  1  1
 18 19  1  0
M  END
>  <i_m_ct_stereo_status>  (193) 
1

>  <s_m_source_file>  (193) 
/var/tmp/pbs.5076255.sched01/tmpnx1894nc/68p53si2vm.sdf

>  <i_m_source_file_index>  (193) 
7

>  <i_lp_mmshare_version>  (193) 
48012

>  <i_f3d_flags>  (193) 
0

>  <s_epik_input>  (193) 
W0NAQF0xMjNbQ0BASF00W0NIMl1bQ0gyXVtDQEBIXShbQ0gzXSlbQ0BASF0yW0NIMl1bQ0gyXVtDQF0oW0NIM10pKE9PMylPW0NASF0xW0NASF0oW09IXSlbQ0BASF00W0NIM10=

>  <s_epik_cmdline>  (193) 
J2VwaWtfcHl0aG9uJywgJy1waHQnLCAnMi4wJywgJy1waCcsICc3LjAnLCAnLXRuJywgJzgnLCAnLW1hJywgJzIwMCcsICctaW1hZScsICc8aW5maWxlLm1hZT4nLCAnLW9tYWUnLCAnPG91dGZpbGUubWFlPic=

>  <r_lp_tautomer_probability>  (193) 
1

>  <r_epik_Ionization_Penalty>  (193) 
4.86243e-08

>  <r_epik_Ionization_Penalty_Charging>  (193) 
0

>  <r_epik_Ionization_Penalty_Neutral>  (193) 
4.86243e-08

>  <r_epik_State_Penalty>  (193) 
-0

>  <r_epik_Charging_Adjusted_Penalty>  (193) 
0

>  <i_epik_Tot_Q>  (193) 
0

>  <i_epik_Tot_abs_Q>  (193) 
0

>  <s_lp_Force_Field>  (193) 
OPLS3e

>  <r_lp_Energy>  (193) 
40.8722

>  <b_lp_Chiralities_Consistent>  (193) 
1

>  <s_lp_Variant>  (193) 
57:0-1

>  <s_i_glide_gridfile>  (193) 
pfpi4k_grid

>  <i_i_glide_lignum>  (193) 
7

>  <i_i_glide_rotatable_bonds>  (193) 
1

>  <r_i_docking_score>  (193) 
-2.90257

>  <r_i_glide_ligand_efficiency>  (193) 
-0.152767

>  <r_i_glide_ligand_efficiency_sa>  (193) 
-0.407643

>  <r_i_glide_ligand_efficiency_ln>  (193) 
-0.735863

>  <r_i_glide_gscore>  (193) 
-2.90257

>  <r_i_glide_lipo>  (193) 
-0.227241

>  <r_i_glide_hbond>  (193) 
0

>  <r_i_glide_metal>  (193) 
-0

>  <r_i_glide_rewards>  (193) 
-1.57944

>  <r_i_glide_evdw>  (193) 
-20.9791

>  <r_i_glide_ecoul>  (193) 
-0.167043

>  <r_i_glide_erotb>  (193) 
0

>  <r_i_glide_esite>  (193) 
-0.0218726

>  <r_i_glide_emodel>  (193) 
-24.919

>  <r_i_glide_energy>  (193) 
-21.1461

>  <r_i_glide_einternal>  (193) 
0.173412

>  <r_i_glide_intrahb_reward>  (193) 
-0

>  <i_i_glide_confnum>  (193) 
2

>  <i_i_glide_posenum>  (193) 
20

>  <r_i_glide_eff_state_penalty>  (193) 
0

>  <ligand_id>  (193) 
57

>  <original_smiles>  (193) 
CC1CCC2C(C)C(O)C3OC4(C)CCC1C23OO4

>  <smiles>  (193) 
[H]OC1([H])C2([H])OC3(C([H])([H])[H])OOC24C([H])(C([H])([H])C3([H])[H])C([H])(C([H])([H])[H])C([H])([H])C([H])([H])C4([H])C1([H])C([H])([H])[H]

$$$$
58:0:0
     RDKit          3D

 73 79  0  0  1  0  0  0  0  0999 V2000
    3.5337   -3.2710   -0.7737 C   0  0  0  0  0  0  0  0  0  0  0  0
    4.6822   -2.7991   -0.0810 O   0  0  0  0  0  0  0  0  0  0  0  0
    4.8115   -3.1958    1.2588 C   0  0  2  0  0  0  0  0  0  0  0  0
    4.6486   -4.5866    1.3651 O   0  0  0  0  0  0  0  0  0  0  0  0
    4.5958   -5.1600    2.6533 C   0  0  1  0  0  0  0  0  0  0  0  0
    3.3686   -4.6111    3.3379 C   0  0  1  0  0  0  0  0  0  0  0  0
    2.7330   -3.3664    2.6821 C   0  0  1  0  0  0  0  0  0  0  0  0
    1.4687   -2.8254    3.3779 C   0  0  0  0  0  0  0  0  0  0  0  0
    1.2080   -1.3454    3.0613 C   0  0  1  0  0  0  0  0  0  0  0  0
    0.3590   -0.7847    4.0307 O   0  0  0  0  0  0  0  0  0  0  0  0
    2.5136   -0.5450    2.8939 C   0  0  2  0  0  0  0  0  0  0  0  0
    3.2732   -1.0696    1.6329 C   0  0  1  0  0  0  0  0  0  0  0  0
    4.5502   -0.2405    1.3490 C   0  0  0  0  0  0  0  0  0  0  0  0
    5.4083   -0.6653    2.5261 C   0  0  0  0  0  0  0  0  0  0  0  0
    4.6338   -1.5053    3.2467 C   0  0  0  0  0  0  0  0  0  0  0  0
    3.5947   -0.7016    4.0400 C   0  0  0  0  0  0  0  0  0  0  0  0
    4.0153    0.7347    4.4801 C   0  0  0  0  0  0  0  0  0  0  0  0
    3.2585   -1.3998    5.3789 C   0  0  0  0  0  0  0  0  0  0  0  0
    3.8500   -2.3641    2.2268 C   0  0  2  0  0  0  0  0  0  0  0  0
    2.6958   -6.0201    3.3324 C   0  0  1  0  0  0  0  0  0  0  0  0
    2.2632   -6.4803    4.7620 C   0  0  1  0  0  0  0  0  0  0  0  0
    1.5455   -5.4386    5.3821 O   0  0  0  0  0  0  0  0  0  0  0  0
    1.3959   -7.7534    4.8417 C   0  0  1  0  0  0  0  0  0  0  0  0
    1.0157   -8.1373    6.2824 C   0  0  0  0  0  0  0  0  0  0  0  0
    0.1636   -7.6102    3.9450 C   0  0  0  0  0  0  0  0  0  0  0  0
    0.5851   -7.4347    2.4883 C   0  0  1  0  0  0  0  0  0  0  0  0
   -0.5658   -7.1127    1.7460 O   0  0  0  0  0  0  0  0  0  0  0  0
    1.6441   -6.3260    2.2464 C   0  0  2  0  0  0  0  0  0  0  0  0
    2.4038   -6.7725    1.1093 O   0  0  0  0  0  0  0  0  0  0  0  0
    3.6491   -7.3810    1.4738 C   0  0  0  0  0  0  0  0  0  0  0  0
    3.4802   -8.8865    1.7482 C   0  0  0  0  0  0  0  0  0  0  0  0
    4.6400   -7.2378    0.3111 C   0  0  0  0  0  0  0  0  0  0  0  0
    3.9953   -6.5783    2.7354 C   0  0  1  0  0  0  0  0  0  0  0  0
    3.5670   -2.8795   -1.7874 H   0  0  0  0  0  0  0  0  0  0  0  0
    2.5906   -2.9464   -0.3404 H   0  0  0  0  0  0  0  0  0  0  0  0
    3.5017   -4.3561   -0.8314 H   0  0  0  0  0  0  0  0  0  0  0  0
    5.8591   -3.0357    1.5159 H   0  0  0  0  0  0  0  0  0  0  0  0
    5.5171   -5.0457    3.2358 H   0  0  0  0  0  0  0  0  0  0  0  0
    3.7001   -4.3967    4.3495 H   0  0  0  0  0  0  0  0  0  0  0  0
    2.3326   -3.6926    1.7284 H   0  0  0  0  0  0  0  0  0  0  0  0
    0.6113   -3.3973    3.0278 H   0  0  0  0  0  0  0  0  0  0  0  0
    1.4659   -3.0179    4.4463 H   0  0  0  0  0  0  0  0  0  0  0  0
    0.6739   -1.2891    2.1090 H   0  0  0  0  0  0  0  0  0  0  0  0
    0.2200    0.1264    3.8060 H   0  0  0  0  0  0  0  0  0  0  0  0
    2.2563    0.5042    2.7342 H   0  0  0  0  0  0  0  0  0  0  0  0
    2.6092   -1.1214    0.7704 H   0  0  0  0  0  0  0  0  0  0  0  0
    5.0419   -0.4694    0.4071 H   0  0  0  0  0  0  0  0  0  0  0  0
    4.3054    0.8201    1.3511 H   0  0  0  0  0  0  0  0  0  0  0  0
    5.9646    0.1356    2.9784 H   0  0  0  0  0  0  0  0  0  0  0  0
    3.2161    1.1979    5.0652 H   0  0  0  0  0  0  0  0  0  0  0  0
    4.1975    1.4123    3.6470 H   0  0  0  0  0  0  0  0  0  0  0  0
    4.9125    0.7277    5.1014 H   0  0  0  0  0  0  0  0  0  0  0  0
    2.2913   -1.0834    5.7759 H   0  0  0  0  0  0  0  0  0  0  0  0
    4.0008   -1.1653    6.1412 H   0  0  0  0  0  0  0  0  0  0  0  0
    3.2737   -2.4818    5.3169 H   0  0  0  0  0  0  0  0  0  0  0  0
    3.1531   -6.6411    5.3664 H   0  0  0  0  0  0  0  0  0  0  0  0
    1.4217   -5.6753    6.2977 H   0  0  0  0  0  0  0  0  0  0  0  0
    1.9955   -8.5787    4.4747 H   0  0  0  0  0  0  0  0  0  0  0  0
    0.3508   -7.4095    6.7454 H   0  0  0  0  0  0  0  0  0  0  0  0
    1.9043   -8.2391    6.9079 H   0  0  0  0  0  0  0  0  0  0  0  0
    0.5029   -9.1013    6.2896 H   0  0  0  0  0  0  0  0  0  0  0  0
   -0.4737   -8.4927    4.0425 H   0  0  0  0  0  0  0  0  0  0  0  0
   -0.4341   -6.7562    4.2618 H   0  0  0  0  0  0  0  0  0  0  0  0
    0.9420   -8.3961    2.1219 H   0  0  0  0  0  0  0  0  0  0  0  0
   -0.9399   -7.9426    1.4483 H   0  0  0  0  0  0  0  0  0  0  0  0
    1.1003   -5.4276    1.9636 H   0  0  0  0  0  0  0  0  0  0  0  0
    4.4430   -9.3822    1.8654 H   0  0  0  0  0  0  0  0  0  0  0  0
    2.9721   -9.3757    0.9161 H   0  0  0  0  0  0  0  0  0  0  0  0
    2.9164   -9.1072    2.6457 H   0  0  0  0  0  0  0  0  0  0  0  0
    5.6674   -7.2615    0.6688 H   0  0  0  0  0  0  0  0  0  0  0  0
    4.4988   -6.3220   -0.2562 H   0  0  0  0  0  0  0  0  0  0  0  0
    4.5318   -8.0510   -0.4055 H   0  0  0  0  0  0  0  0  0  0  0  0
    4.5615   -7.1413    3.4756 H   0  0  0  0  0  0  0  0  0  0  0  0
  1  2  1  0
  1 34  1  0
  1 35  1  0
  1 36  1  0
  2  3  1  0
  3 19  1  0
  3  4  1  0
  3 37  1  1
  4  5  1  0
  5 33  1  0
  5  6  1  0
  5 38  1  1
  6  7  1  0
  6 20  1  0
  6 39  1  1
  7 19  1  0
  7  8  1  0
  7 40  1  6
  8  9  1  0
  8 41  1  0
  8 42  1  0
  9 10  1  0
  9 11  1  0
  9 43  1  6
 10 44  1  0
 11 16  1  0
 11 12  1  0
 11 45  1  6
 12 19  1  0
 12 13  1  0
 12 46  1  6
 13 14  1  0
 13 47  1  0
 13 48  1  0
 14 15  2  0
 14 49  1  0
 15 16  1  0
 19 15  1  1
 16 17  1  0
 16 18  1  0
 17 50  1  0
 17 51  1  0
 17 52  1  0
 18 53  1  0
 18 54  1  0
 18 55  1  0
 20 28  1  0
 20 33  1  0
 20 21  1  1
 21 22  1  0
 21 23  1  0
 21 56  1  1
 22 57  1  0
 23 24  1  0
 23 25  1  0
 23 58  1  6
 24 59  1  0
 24 60  1  0
 24 61  1  0
 25 26  1  0
 25 62  1  0
 25 63  1  0
 26 27  1  0
 26 28  1  0
 26 64  1  6
 27 65  1  0
 28 29  1  0
 28 66  1  6
 29 30  1  0
 30 31  1  0
 30 32  1  0
 30 33  1  0
 31 67  1  0
 31 68  1  0
 31 69  1  0
 32 70  1  0
 32 71  1  0
 32 72  1  0
 33 73  1  1
M  END
>  <i_m_ct_stereo_status>  (194) 
1

>  <s_m_source_file>  (194) 
/var/tmp/pbs.5076255.sched01/tmpnx1894nc/68p53si2vm.sdf

>  <i_m_source_file_index>  (194) 
8

>  <i_lp_mmshare_version>  (194) 
48012

>  <i_f3d_flags>  (194) 
0

>  <s_epik_input>  (194) 
W0NIM11PW0NAQEhdMU9bQ0BASF0yW0NAQEhdM0MoW0NIM10pKFtDSDNdKU9bQ0BASF0oW0NASF0oW09IXSlbQ0gyXVtDQEhdKFtDSDNdKVtDQEBIXTRbT0hdKVtDQF0zNFtDQEBIXTJbQ0BIXShbQ0BAXTE1NilbQ0gyXVtDQEBIXShbT0hdKVtDQEBIXTdbQ0BIXTVbQ0gyXVtDSF09QzZDNyhbQ0gzXSlbQ0gzXQ==

>  <s_epik_cmdline>  (194) 
J2VwaWtfcHl0aG9uJywgJy1waHQnLCAnMi4wJywgJy1waCcsICc3LjAnLCAnLXRuJywgJzgnLCAnLW1hJywgJzIwMCcsICctaW1hZScsICc8aW5maWxlLm1hZT4nLCAnLW9tYWUnLCAnPG91dGZpbGUubWFlPic=

>  <r_lp_tautomer_probability>  (194) 
1

>  <r_epik_Ionization_Penalty>  (194) 
1.15204e-06

>  <r_epik_Ionization_Penalty_Charging>  (194) 
0

>  <r_epik_Ionization_Penalty_Neutral>  (194) 
1.15204e-06

>  <r_epik_State_Penalty>  (194) 
-0

>  <r_epik_Charging_Adjusted_Penalty>  (194) 
0

>  <i_epik_Tot_Q>  (194) 
0

>  <i_epik_Tot_abs_Q>  (194) 
0

>  <s_epik_Chemistry_Notes>  (194) 
This compound contains an acetal/aminal-like group ( X-CH(R)-Y where X, Y are N, S, or O) that may be acid/base labile, releasing an aldehyde.

>  <s_lp_Force_Field>  (194) 
OPLS3e

>  <r_lp_Energy>  (194) 
123.885

>  <b_lp_Chiralities_Consistent>  (194) 
1

>  <s_lp_Variant>  (194) 
58:0-1

>  <s_i_glide_gridfile>  (194) 
pfpi4k_grid

>  <i_i_glide_lignum>  (194) 
8

>  <i_i_glide_rotatable_bonds>  (194) 
4

>  <r_i_docking_score>  (194) 
-2.71045

>  <r_i_glide_ligand_efficiency>  (194) 
-0.082135

>  <r_i_glide_ligand_efficiency_sa>  (194) 
-0.263451

>  <r_i_glide_ligand_efficiency_ln>  (194) 
-0.602791

>  <r_i_glide_gscore>  (194) 
-2.71045

>  <r_i_glide_lipo>  (194) 
-0.533891

>  <r_i_glide_hbond>  (194) 
0

>  <r_i_glide_metal>  (194) 
-0

>  <r_i_glide_rewards>  (194) 
-0.306127

>  <r_i_glide_evdw>  (194) 
-23.2361

>  <r_i_glide_ecoul>  (194) 
-4.7242

>  <r_i_glide_erotb>  (194) 
0

>  <r_i_glide_esite>  (194) 
0

>  <r_i_glide_emodel>  (194) 
-31.1239

>  <r_i_glide_energy>  (194) 
-27.9603

>  <r_i_glide_einternal>  (194) 
3.35167

>  <r_i_glide_intrahb_reward>  (194) 
-0

>  <i_i_glide_confnum>  (194) 
1

>  <i_i_glide_posenum>  (194) 
4

>  <r_i_glide_eff_state_penalty>  (194) 
0

>  <ligand_id>  (194) 
58

>  <original_smiles>  (194) 
COC1OC2C(C3CC(O)C4C5CC=C(C4(C)C)C153)C13C(O)C(C)CC(O)C1OC(C)(C)C23

>  <smiles>  (194) 
[H]OC1([H])C([H])([H])C([H])(C([H])([H])[H])C([H])(O[H])C23C1([H])OC(C([H])([H])[H])(C([H])([H])[H])C2([H])C1([H])OC([H])(OC([H])([H])[H])C24C5=C([H])C([H])([H])C2([H])C([H])(C([H])(O[H])C([H])([H])C4([H])C13[H])C5(C([H])([H])[H])C([H])([H])[H]

$$$$
58:0:1
     RDKit          3D

 73 79  0  0  1  0  0  0  0  0999 V2000
    5.0956   -4.0216    4.9879 C   0  0  0  0  0  0  0  0  0  0  0  0
    4.9931   -4.4765    6.3292 O   0  0  0  0  0  0  0  0  0  0  0  0
    3.9262   -5.3391    6.6182 C   0  0  2  0  0  0  0  0  0  0  0  0
    3.8833   -6.3817    5.6798 O   0  0  0  0  0  0  0  0  0  0  0  0
    2.7888   -7.2715    5.7119 C   0  0  1  0  0  0  0  0  0  0  0  0
    1.5546   -6.4636    5.3930 C   0  0  1  0  0  0  0  0  0  0  0  0
    1.7045   -4.9320    5.4918 C   0  0  1  0  0  0  0  0  0  0  0  0
    0.4387   -4.1204    5.1494 C   0  0  0  0  0  0  0  0  0  0  0  0
    0.4456   -2.7193    5.7773 C   0  0  1  0  0  0  0  0  0  0  0  0
   -0.8581   -2.1941    5.8492 O   0  0  0  0  0  0  0  0  0  0  0  0
    1.1483   -2.6930    7.1473 C   0  0  2  0  0  0  0  0  0  0  0  0
    2.6636   -3.0285    6.9545 C   0  0  1  0  0  0  0  0  0  0  0  0
    3.4458   -2.9344    8.2932 C   0  0  0  0  0  0  0  0  0  0  0  0
    2.8713   -4.1346    9.0204 C   0  0  0  0  0  0  0  0  0  0  0  0
    1.9488   -4.6502    8.1842 C   0  0  0  0  0  0  0  0  0  0  0  0
    0.6840   -3.7779    8.1991 C   0  0  0  0  0  0  0  0  0  0  0  0
    0.3781   -3.0246    9.5305 C   0  0  0  0  0  0  0  0  0  0  0  0
   -0.5824   -4.6357    7.9676 C   0  0  0  0  0  0  0  0  0  0  0  0
    2.5418   -4.5501    6.7611 C   0  0  2  0  0  0  0  0  0  0  0  0
    1.3684   -7.2240    4.0421 C   0  0  1  0  0  0  0  0  0  0  0  0
   -0.0398   -7.8802    3.9229 C   0  0  1  0  0  0  0  0  0  0  0  0
   -1.0306   -6.9291    4.2502 O   0  0  0  0  0  0  0  0  0  0  0  0
   -0.4056   -8.4649    2.5498 C   0  0  1  0  0  0  0  0  0  0  0  0
   -1.8052   -9.0721    2.5225 C   0  0  0  0  0  0  0  0  0  0  0  0
   -0.2372   -7.4064    1.4615 C   0  0  0  0  0  0  0  0  0  0  0  0
    1.2196   -6.9726    1.3789 C   0  0  1  0  0  0  0  0  0  0  0  0
    1.2716   -5.9117    0.4659 O   0  0  0  0  0  0  0  0  0  0  0  0
    1.8449   -6.5419    2.7350 C   0  0  2  0  0  0  0  0  0  0  0  0
    3.2435   -6.8786    2.6218 O   0  0  0  0  0  0  0  0  0  0  0  0
    3.5743   -8.1098    3.2788 C   0  0  0  0  0  0  0  0  0  0  0  0
    3.3855   -9.3025    2.3234 C   0  0  0  0  0  0  0  0  0  0  0  0
    5.0539   -8.0822    3.6961 C   0  0  0  0  0  0  0  0  0  0  0  0
    2.5629   -8.1043    4.4336 C   0  0  1  0  0  0  0  0  0  0  0  0
    5.9575   -3.3634    4.9295 H   0  0  0  0  0  0  0  0  0  0  0  0
    4.2369   -3.4499    4.6476 H   0  0  0  0  0  0  0  0  0  0  0  0
    5.2423   -4.8348    4.2813 H   0  0  0  0  0  0  0  0  0  0  0  0
    4.1920   -5.8388    7.5509 H   0  0  0  0  0  0  0  0  0  0  0  0
    2.7076   -7.8627    6.6309 H   0  0  0  0  0  0  0  0  0  0  0  0
    0.8097   -6.8337    6.0951 H   0  0  0  0  0  0  0  0  0  0  0  0
    2.3742   -4.6396    4.6907 H   0  0  0  0  0  0  0  0  0  0  0  0
    0.3948   -3.9987    4.0659 H   0  0  0  0  0  0  0  0  0  0  0  0
   -0.4721   -4.6639    5.3738 H   0  0  0  0  0  0  0  0  0  0  0  0
    1.0114   -2.0579    5.1204 H   0  0  0  0  0  0  0  0  0  0  0  0
   -1.1407   -2.0019    4.9640 H   0  0  0  0  0  0  0  0  0  0  0  0
    1.0644   -1.6837    7.5531 H   0  0  0  0  0  0  0  0  0  0  0  0
    3.0990   -2.4193    6.1636 H   0  0  0  0  0  0  0  0  0  0  0  0
    4.5243   -3.0234    8.1923 H   0  0  0  0  0  0  0  0  0  0  0  0
    3.2329   -2.0004    8.8117 H   0  0  0  0  0  0  0  0  0  0  0  0
    2.6683   -3.9432   10.0605 H   0  0  0  0  0  0  0  0  0  0  0  0
   -0.5584   -2.4692    9.4448 H   0  0  0  0  0  0  0  0  0  0  0  0
    1.1352   -2.2873    9.8016 H   0  0  0  0  0  0  0  0  0  0  0  0
    0.2688   -3.7120   10.3721 H   0  0  0  0  0  0  0  0  0  0  0  0
   -1.4230   -4.0448    7.5977 H   0  0  0  0  0  0  0  0  0  0  0  0
   -0.9128   -5.1033    8.8946 H   0  0  0  0  0  0  0  0  0  0  0  0
   -0.4188   -5.4685    7.2921 H   0  0  0  0  0  0  0  0  0  0  0  0
   -0.1286   -8.6766    4.6622 H   0  0  0  0  0  0  0  0  0  0  0  0
   -1.8254   -7.4170    4.4427 H   0  0  0  0  0  0  0  0  0  0  0  0
    0.2713   -9.2880    2.3463 H   0  0  0  0  0  0  0  0  0  0  0  0
   -2.5868   -8.3256    2.6495 H   0  0  0  0  0  0  0  0  0  0  0  0
   -1.9211   -9.8465    3.2780 H   0  0  0  0  0  0  0  0  0  0  0  0
   -1.9554   -9.5489    1.5651 H   0  0  0  0  0  0  0  0  0  0  0  0
   -0.5559   -7.8031    0.4985 H   0  0  0  0  0  0  0  0  0  0  0  0
   -0.8720   -6.5512    1.6689 H   0  0  0  0  0  0  0  0  0  0  0  0
    1.7812   -7.7924    0.9336 H   0  0  0  0  0  0  0  0  0  0  0  0
    2.1929   -5.7643    0.2579 H   0  0  0  0  0  0  0  0  0  0  0  0
    1.7517   -5.4584    2.8020 H   0  0  0  0  0  0  0  0  0  0  0  0
    3.7872  -10.2222    2.7452 H   0  0  0  0  0  0  0  0  0  0  0  0
    3.9112   -9.1263    1.3845 H   0  0  0  0  0  0  0  0  0  0  0  0
    2.3519   -9.5110    2.0788 H   0  0  0  0  0  0  0  0  0  0  0  0
    5.2499   -8.7595    4.5254 H   0  0  0  0  0  0  0  0  0  0  0  0
    5.3879   -7.0898    3.9841 H   0  0  0  0  0  0  0  0  0  0  0  0
    5.7000   -8.3831    2.8716 H   0  0  0  0  0  0  0  0  0  0  0  0
    2.2346   -9.0990    4.7383 H   0  0  0  0  0  0  0  0  0  0  0  0
  1  2  1  0
  1 34  1  0
  1 35  1  0
  1 36  1  0
  2  3  1  0
  3 19  1  0
  3  4  1  0
  3 37  1  1
  4  5  1  0
  5 33  1  0
  5  6  1  0
  5 38  1  1
  6  7  1  0
  6 20  1  0
  6 39  1  1
  7 19  1  0
  7  8  1  0
  7 40  1  6
  8  9  1  0
  8 41  1  0
  8 42  1  0
  9 10  1  0
  9 11  1  0
  9 43  1  6
 10 44  1  0
 11 16  1  0
 11 12  1  0
 11 45  1  1
 12 19  1  0
 12 13  1  0
 12 46  1  6
 13 14  1  0
 13 47  1  0
 13 48  1  0
 14 15  2  0
 14 49  1  0
 15 16  1  0
 19 15  1  1
 16 17  1  0
 16 18  1  0
 17 50  1  0
 17 51  1  0
 17 52  1  0
 18 53  1  0
 18 54  1  0
 18 55  1  0
 20 28  1  0
 20 33  1  0
 20 21  1  6
 21 22  1  0
 21 23  1  0
 21 56  1  1
 22 57  1  0
 23 24  1  0
 23 25  1  0
 23 58  1  6
 24 59  1  0
 24 60  1  0
 24 61  1  0
 25 26  1  0
 25 62  1  0
 25 63  1  0
 26 27  1  0
 26 28  1  0
 26 64  1  6
 27 65  1  0
 28 29  1  0
 28 66  1  1
 29 30  1  0
 30 31  1  0
 30 32  1  0
 30 33  1  0
 31 67  1  0
 31 68  1  0
 31 69  1  0
 32 70  1  0
 32 71  1  0
 32 72  1  0
 33 73  1  1
M  END
>  <i_m_ct_stereo_status>  (195) 
1

>  <s_m_source_file>  (195) 
/var/tmp/pbs.5076255.sched01/tmpnx1894nc/68p53si2vm.sdf

>  <i_m_source_file_index>  (195) 
8

>  <i_lp_mmshare_version>  (195) 
48012

>  <i_f3d_flags>  (195) 
0

>  <s_epik_input>  (195) 
W0NIM11PW0NAQEhdMU9bQ0BASF0yW0NAQEhdM0MoW0NIM10pKFtDSDNdKU9bQ0BASF0oW0NASF0oW09IXSlbQ0gyXVtDQEhdKFtDSDNdKVtDQEBIXTRbT0hdKVtDQF0zNFtDQEBIXTJbQ0BIXShbQ0BAXTE1NilbQ0gyXVtDQEBIXShbT0hdKVtDQEBIXTdbQ0BIXTVbQ0gyXVtDSF09QzZDNyhbQ0gzXSlbQ0gzXQ==

>  <s_epik_cmdline>  (195) 
J2VwaWtfcHl0aG9uJywgJy1waHQnLCAnMi4wJywgJy1waCcsICc3LjAnLCAnLXRuJywgJzgnLCAnLW1hJywgJzIwMCcsICctaW1hZScsICc8aW5maWxlLm1hZT4nLCAnLW9tYWUnLCAnPG91dGZpbGUubWFlPic=

>  <r_lp_tautomer_probability>  (195) 
1

>  <r_epik_Ionization_Penalty>  (195) 
1.15204e-06

>  <r_epik_Ionization_Penalty_Charging>  (195) 
0

>  <r_epik_Ionization_Penalty_Neutral>  (195) 
1.15204e-06

>  <r_epik_State_Penalty>  (195) 
-0

>  <r_epik_Charging_Adjusted_Penalty>  (195) 
0

>  <i_epik_Tot_Q>  (195) 
0

>  <i_epik_Tot_abs_Q>  (195) 
0

>  <s_epik_Chemistry_Notes>  (195) 
This compound contains an acetal/aminal-like group ( X-CH(R)-Y where X, Y are N, S, or O) that may be acid/base labile, releasing an aldehyde.

>  <s_lp_Force_Field>  (195) 
OPLS3e

>  <r_lp_Energy>  (195) 
123.885

>  <b_lp_Chiralities_Consistent>  (195) 
1

>  <s_lp_Variant>  (195) 
58:0-1

>  <s_i_glide_gridfile>  (195) 
pfpi4k_grid

>  <i_i_glide_lignum>  (195) 
8

>  <i_i_glide_rotatable_bonds>  (195) 
4

>  <r_i_docking_score>  (195) 
-2.55209

>  <r_i_glide_ligand_efficiency>  (195) 
-0.077336

>  <r_i_glide_ligand_efficiency_sa>  (195) 
-0.248058

>  <r_i_glide_ligand_efficiency_ln>  (195) 
-0.567571

>  <r_i_glide_gscore>  (195) 
-2.55209

>  <r_i_glide_lipo>  (195) 
-0.218823

>  <r_i_glide_hbond>  (195) 
0

>  <r_i_glide_metal>  (195) 
-0

>  <r_i_glide_rewards>  (195) 
-0.268617

>  <r_i_glide_evdw>  (195) 
-19.6062

>  <r_i_glide_ecoul>  (195) 
-7.22892

>  <r_i_glide_erotb>  (195) 
0

>  <r_i_glide_esite>  (195) 
0

>  <r_i_glide_emodel>  (195) 
-30.0376

>  <r_i_glide_energy>  (195) 
-26.8351

>  <r_i_glide_einternal>  (195) 
3.02849

>  <r_i_glide_intrahb_reward>  (195) 
-0

>  <i_i_glide_confnum>  (195) 
1

>  <i_i_glide_posenum>  (195) 
6

>  <r_i_glide_eff_state_penalty>  (195) 
0

>  <ligand_id>  (195) 
58

>  <original_smiles>  (195) 
COC1OC2C(C3CC(O)C4C5CC=C(C4(C)C)C153)C13C(O)C(C)CC(O)C1OC(C)(C)C23

>  <smiles>  (195) 
[H]OC1([H])C([H])([H])C([H])(C([H])([H])[H])C([H])(O[H])C23C1([H])OC(C([H])([H])[H])(C([H])([H])[H])C2([H])C1([H])OC([H])(OC([H])([H])[H])C24C5=C([H])C([H])([H])C2([H])C([H])(C([H])(O[H])C([H])([H])C4([H])C13[H])C5(C([H])([H])[H])C([H])([H])[H]

$$$$
58:0:2
     RDKit          3D

 73 79  0  0  1  0  0  0  0  0999 V2000
    2.8483   -1.5947    0.9860 C   0  0  0  0  0  0  0  0  0  0  0  0
    3.7728   -1.1004    1.9442 O   0  0  0  0  0  0  0  0  0  0  0  0
    3.8315   -1.7785    3.1672 C   0  0  2  0  0  0  0  0  0  0  0  0
    3.9651   -3.1597    2.9446 O   0  0  0  0  0  0  0  0  0  0  0  0
    3.8943   -4.0294    4.0535 C   0  0  1  0  0  0  0  0  0  0  0  0
    2.5067   -3.9009    4.6303 C   0  0  1  0  0  0  0  0  0  0  0  0
    1.6918   -2.6738    4.1694 C   0  0  1  0  0  0  0  0  0  0  0  0
    0.2738   -2.5606    4.7618 C   0  0  0  0  0  0  0  0  0  0  0  0
   -0.2686   -1.1252    4.7324 C   0  0  1  0  0  0  0  0  0  0  0  0
   -1.3358   -0.9731    5.6392 O   0  0  0  0  0  0  0  0  0  0  0  0
    0.8421   -0.0789    4.9464 C   0  0  2  0  0  0  0  0  0  0  0  0
    1.8326   -0.1272    3.7393 C   0  0  1  0  0  0  0  0  0  0  0  0
    2.9292    0.9654    3.8545 C   0  0  0  0  0  0  0  0  0  0  0  0
    3.7241    0.4267    5.0269 C   0  0  0  0  0  0  0  0  0  0  0  0
    3.0663   -0.6910    5.4165 C   0  0  0  0  0  0  0  0  0  0  0  0
    1.7985   -0.3060    6.1861 C   0  0  0  0  0  0  0  0  0  0  0  0
    1.8419    1.0351    6.9817 C   0  0  0  0  0  0  0  0  0  0  0  0
    1.4720   -1.3584    7.2732 C   0  0  0  0  0  0  0  0  0  0  0  0
    2.6085   -1.3990    4.1226 C   0  0  2  0  0  0  0  0  0  0  0  0
    2.1628   -5.3657    4.2141 C   0  0  1  0  0  0  0  0  0  0  0  0
    1.6820   -6.2299    5.4248 C   0  0  1  0  0  0  0  0  0  0  0  0
    0.6881   -5.5210    6.1285 O   0  0  0  0  0  0  0  0  0  0  0  0
    1.1097   -7.6220    5.0905 C   0  0  1  0  0  0  0  0  0  0  0  0
    0.6661   -8.4101    6.3374 C   0  0  0  0  0  0  0  0  0  0  0  0
   -0.0147   -7.4990    4.0653 C   0  0  0  0  0  0  0  0  0  0  0  0
    0.5192   -6.9071    2.7602 C   0  0  1  0  0  0  0  0  0  0  0  0
   -0.5788   -6.6618    1.9228 O   0  0  0  0  0  0  0  0  0  0  0  0
    1.3345   -5.5934    2.9321 C   0  0  2  0  0  0  0  0  0  0  0  0
    2.2957   -5.6089    1.8559 O   0  0  0  0  0  0  0  0  0  0  0  0
    3.5988   -6.0313    2.2821 C   0  0  0  0  0  0  0  0  0  0  0  0
    3.7299   -7.5637    2.2037 C   0  0  0  0  0  0  0  0  0  0  0  0
    4.6631   -5.4306    1.3485 C   0  0  0  0  0  0  0  0  0  0  0  0
    3.6124   -5.5094    3.7275 C   0  0  1  0  0  0  0  0  0  0  0  0
    2.9290   -0.9626    0.1048 H   0  0  0  0  0  0  0  0  0  0  0  0
    1.8118   -1.5675    1.3119 H   0  0  0  0  0  0  0  0  0  0  0  0
    3.0593   -2.6188    0.6866 H   0  0  0  0  0  0  0  0  0  0  0  0
    4.7847   -1.4934    3.6143 H   0  0  0  0  0  0  0  0  0  0  0  0
    4.6939   -3.8945    4.7895 H   0  0  0  0  0  0  0  0  0  0  0  0
    2.6690   -3.8831    5.7025 H   0  0  0  0  0  0  0  0  0  0  0  0
    1.4783   -2.8232    3.1141 H   0  0  0  0  0  0  0  0  0  0  0  0
   -0.3868   -3.1656    4.1504 H   0  0  0  0  0  0  0  0  0  0  0  0
    0.1891   -3.0142    5.7427 H   0  0  0  0  0  0  0  0  0  0  0  0
   -0.6825   -0.9428    3.7397 H   0  0  0  0  0  0  0  0  0  0  0  0
   -1.6528   -0.0813    5.5457 H   0  0  0  0  0  0  0  0  0  0  0  0
    0.3813    0.9117    4.9777 H   0  0  0  0  0  0  0  0  0  0  0  0
    1.2935   -0.0908    2.7923 H   0  0  0  0  0  0  0  0  0  0  0  0
    3.5585    1.0673    2.9737 H   0  0  0  0  0  0  0  0  0  0  0  0
    2.4952    1.9429    4.0688 H   0  0  0  0  0  0  0  0  0  0  0  0
    4.0255    1.1872    5.7224 H   0  0  0  0  0  0  0  0  0  0  0  0
    0.9015    1.1845    7.5180 H   0  0  0  0  0  0  0  0  0  0  0  0
    1.9678    1.9154    6.3499 H   0  0  0  0  0  0  0  0  0  0  0  0
    2.6436    1.0416    7.7243 H   0  0  0  0  0  0  0  0  0  0  0  0
    0.4215   -1.3332    7.5686 H   0  0  0  0  0  0  0  0  0  0  0  0
    2.0580   -1.1824    8.1769 H   0  0  0  0  0  0  0  0  0  0  0  0
    1.7305   -2.3716    6.9826 H   0  0  0  0  0  0  0  0  0  0  0  0
    2.5102   -6.3649    6.1171 H   0  0  0  0  0  0  0  0  0  0  0  0
    0.5076   -6.0033    6.9334 H   0  0  0  0  0  0  0  0  0  0  0  0
    1.9121   -8.2076    4.6569 H   0  0  0  0  0  0  0  0  0  0  0  0
   -0.1828   -7.9518    6.8372 H   0  0  0  0  0  0  0  0  0  0  0  0
    1.4816   -8.4975    7.0590 H   0  0  0  0  0  0  0  0  0  0  0  0
    0.3729   -9.4245    6.0542 H   0  0  0  0  0  0  0  0  0  0  0  0
   -0.4535   -8.4793    3.8692 H   0  0  0  0  0  0  0  0  0  0  0  0
   -0.8153   -6.8678    4.4526 H   0  0  0  0  0  0  0  0  0  0  0  0
    1.1242   -7.6705    2.2688 H   0  0  0  0  0  0  0  0  0  0  0  0
   -0.8996   -7.5052    1.6139 H   0  0  0  0  0  0  0  0  0  0  0  0
    0.6415   -4.7694    2.7772 H   0  0  0  0  0  0  0  0  0  0  0  0
    4.7568   -7.8840    2.3663 H   0  0  0  0  0  0  0  0  0  0  0  0
    3.4340   -7.9189    1.2169 H   0  0  0  0  0  0  0  0  0  0  0  0
    3.1280   -8.0913    2.9312 H   0  0  0  0  0  0  0  0  0  0  0  0
    5.6317   -5.3590    1.8386 H   0  0  0  0  0  0  0  0  0  0  0  0
    4.3902   -4.4431    0.9906 H   0  0  0  0  0  0  0  0  0  0  0  0
    4.7931   -6.0419    0.4563 H   0  0  0  0  0  0  0  0  0  0  0  0
    4.1978   -6.1172    4.4134 H   0  0  0  0  0  0  0  0  0  0  0  0
  1  2  1  0
  1 34  1  0
  1 35  1  0
  1 36  1  0
  2  3  1  0
  3 19  1  0
  3  4  1  0
  3 37  1  1
  4  5  1  0
  5 33  1  0
  5  6  1  0
  5 38  1  1
  6  7  1  0
  6 20  1  0
  6 39  1  1
  7 19  1  0
  7  8  1  0
  7 40  1  6
  8  9  1  0
  8 41  1  0
  8 42  1  0
  9 10  1  0
  9 11  1  0
  9 43  1  6
 10 44  1  0
 11 16  1  0
 11 12  1  0
 11 45  1  1
 12 19  1  0
 12 13  1  0
 12 46  1  6
 13 14  1  0
 13 47  1  0
 13 48  1  0
 14 15  2  0
 14 49  1  0
 15 16  1  0
 19 15  1  1
 16 17  1  0
 16 18  1  0
 17 50  1  0
 17 51  1  0
 17 52  1  0
 18 53  1  0
 18 54  1  0
 18 55  1  0
 20 28  1  0
 20 33  1  0
 20 21  1  1
 21 22  1  0
 21 23  1  0
 21 56  1  1
 22 57  1  0
 23 24  1  0
 23 25  1  0
 23 58  1  6
 24 59  1  0
 24 60  1  0
 24 61  1  0
 25 26  1  0
 25 62  1  0
 25 63  1  0
 26 27  1  0
 26 28  1  0
 26 64  1  6
 27 65  1  0
 28 29  1  0
 28 66  1  6
 29 30  1  0
 30 31  1  0
 30 32  1  0
 30 33  1  0
 31 67  1  0
 31 68  1  0
 31 69  1  0
 32 70  1  0
 32 71  1  0
 32 72  1  0
 33 73  1  1
M  END
>  <i_m_ct_stereo_status>  (196) 
1

>  <s_m_source_file>  (196) 
/var/tmp/pbs.5076255.sched01/tmpnx1894nc/68p53si2vm.sdf

>  <i_m_source_file_index>  (196) 
8

>  <i_lp_mmshare_version>  (196) 
48012

>  <i_f3d_flags>  (196) 
0

>  <s_epik_input>  (196) 
W0NIM11PW0NAQEhdMU9bQ0BASF0yW0NAQEhdM0MoW0NIM10pKFtDSDNdKU9bQ0BASF0oW0NASF0oW09IXSlbQ0gyXVtDQEhdKFtDSDNdKVtDQEBIXTRbT0hdKVtDQF0zNFtDQEBIXTJbQ0BIXShbQ0BAXTE1NilbQ0gyXVtDQEBIXShbT0hdKVtDQEBIXTdbQ0BIXTVbQ0gyXVtDSF09QzZDNyhbQ0gzXSlbQ0gzXQ==

>  <s_epik_cmdline>  (196) 
J2VwaWtfcHl0aG9uJywgJy1waHQnLCAnMi4wJywgJy1waCcsICc3LjAnLCAnLXRuJywgJzgnLCAnLW1hJywgJzIwMCcsICctaW1hZScsICc8aW5maWxlLm1hZT4nLCAnLW9tYWUnLCAnPG91dGZpbGUubWFlPic=

>  <r_lp_tautomer_probability>  (196) 
1

>  <r_epik_Ionization_Penalty>  (196) 
1.15204e-06

>  <r_epik_Ionization_Penalty_Charging>  (196) 
0

>  <r_epik_Ionization_Penalty_Neutral>  (196) 
1.15204e-06

>  <r_epik_State_Penalty>  (196) 
-0

>  <r_epik_Charging_Adjusted_Penalty>  (196) 
0

>  <i_epik_Tot_Q>  (196) 
0

>  <i_epik_Tot_abs_Q>  (196) 
0

>  <s_epik_Chemistry_Notes>  (196) 
This compound contains an acetal/aminal-like group ( X-CH(R)-Y where X, Y are N, S, or O) that may be acid/base labile, releasing an aldehyde.

>  <s_lp_Force_Field>  (196) 
OPLS3e

>  <r_lp_Energy>  (196) 
123.885

>  <b_lp_Chiralities_Consistent>  (196) 
1

>  <s_lp_Variant>  (196) 
58:0-1

>  <s_i_glide_gridfile>  (196) 
pfpi4k_grid

>  <i_i_glide_lignum>  (196) 
8

>  <i_i_glide_rotatable_bonds>  (196) 
4

>  <r_i_docking_score>  (196) 
-2.34368

>  <r_i_glide_ligand_efficiency>  (196) 
-0.0710205

>  <r_i_glide_ligand_efficiency_sa>  (196) 
-0.227801

>  <r_i_glide_ligand_efficiency_ln>  (196) 
-0.521222

>  <r_i_glide_gscore>  (196) 
-2.34368

>  <r_i_glide_lipo>  (196) 
-0.0916445

>  <r_i_glide_hbond>  (196) 
0

>  <r_i_glide_metal>  (196) 
-0

>  <r_i_glide_rewards>  (196) 
-0.268677

>  <r_i_glide_evdw>  (196) 
-17.3328

>  <r_i_glide_ecoul>  (196) 
-7.44477

>  <r_i_glide_erotb>  (196) 
0

>  <r_i_glide_esite>  (196) 
0

>  <r_i_glide_emodel>  (196) 
-27.6636

>  <r_i_glide_energy>  (196) 
-24.7776

>  <r_i_glide_einternal>  (196) 
2.87174

>  <r_i_glide_intrahb_reward>  (196) 
-0

>  <i_i_glide_confnum>  (196) 
1

>  <i_i_glide_posenum>  (196) 
3

>  <r_i_glide_eff_state_penalty>  (196) 
0

>  <ligand_id>  (196) 
58

>  <original_smiles>  (196) 
COC1OC2C(C3CC(O)C4C5CC=C(C4(C)C)C153)C13C(O)C(C)CC(O)C1OC(C)(C)C23

>  <smiles>  (196) 
[H]OC1([H])C([H])([H])C([H])(C([H])([H])[H])C([H])(O[H])C23C1([H])OC(C([H])([H])[H])(C([H])([H])[H])C2([H])C1([H])OC([H])(OC([H])([H])[H])C24C5=C([H])C([H])([H])C2([H])C([H])(C([H])(O[H])C([H])([H])C4([H])C13[H])C5(C([H])([H])[H])C([H])([H])[H]

$$$$
60:0:0
     RDKit          3D

 53 57  0  0  1  0  0  0  0  0999 V2000
    5.3316   -5.7020    3.5343 C   0  0  0  0  0  0  0  0  0  0  0  0
    4.8821   -6.4377    2.3926 O   0  0  0  0  0  0  0  0  0  0  0  0
    3.5207   -6.3926    2.0610 C   0  0  2  0  0  0  0  0  0  0  0  0
    3.3776   -6.4938    0.6649 O   0  0  0  0  0  0  0  0  0  0  0  0
    3.4285   -5.1698    0.0828 C   0  0  2  0  0  0  0  0  0  0  0  0
    4.7514   -4.7856   -0.5916 C   0  0  0  0  0  0  0  0  0  0  0  0
    4.6810   -3.3313   -1.1143 C   0  0  1  0  0  0  0  0  0  0  0  0
    4.0089   -3.2279   -2.4884 C   0  0  0  0  0  0  0  0  0  0  0  0
    4.0394   -2.3554   -0.1042 C   0  0  0  0  0  0  0  0  0  0  0  0
    4.1618   -1.1520   -0.3430 O   0  0  0  0  0  0  0  0  0  0  0  0
    3.4053   -2.8905    1.1401 C   0  0  0  0  0  0  0  0  0  0  0  0
    3.2137   -2.0621    2.1798 O   0  0  0  0  0  0  0  0  0  0  0  0
    3.1717   -4.2209    1.2194 C   0  0  0  0  0  0  0  0  0  0  0  0
    2.9498   -5.0394    2.3605 C   0  0  0  0  0  0  0  0  0  0  0  0
    2.0650   -5.0009    3.3536 C   0  0  0  0  0  0  0  0  0  0  0  0
    1.8185   -6.3664    3.7708 C   0  0  0  0  0  0  0  0  0  0  0  0
    0.7947   -6.7675    4.5204 C   0  0  0  0  0  0  0  0  0  0  0  0
    0.3302   -8.2091    4.4069 C   0  0  0  0  0  0  0  0  0  0  0  0
    0.3321   -8.6602    2.9120 C   0  0  0  0  0  0  0  0  0  0  0  0
   -0.1600  -10.1304    2.8544 C   0  0  0  0  0  0  0  0  0  0  0  0
   -0.7666   -7.8350    2.1998 C   0  0  0  0  0  0  0  0  0  0  0  0
    1.7061   -8.3560    2.1685 C   0  0  2  0  0  0  0  0  0  0  0  0
    2.6173   -9.5957    2.1168 C   0  0  1  0  0  0  0  0  0  0  0  0
    3.5734   -9.4869    1.0872 O   0  0  0  0  0  0  0  0  0  0  0  0
    3.2032   -9.6585    3.3669 O   0  0  0  0  0  0  0  0  0  0  0  0
    3.4804   -8.3446    3.8141 C   0  0  0  0  0  0  0  0  0  0  0  0
    2.6346   -7.3674    2.9383 C   0  0  1  0  0  0  0  0  0  0  0  0
    6.3682   -5.9505    3.7457 H   0  0  0  0  0  0  0  0  0  0  0  0
    4.7358   -5.9310    4.4156 H   0  0  0  0  0  0  0  0  0  0  0  0
    5.2728   -4.6276    3.3686 H   0  0  0  0  0  0  0  0  0  0  0  0
    2.6116   -5.0454   -0.6281 H   0  0  0  0  0  0  0  0  0  0  0  0
    5.5855   -4.8765    0.1100 H   0  0  0  0  0  0  0  0  0  0  0  0
    4.9862   -5.4615   -1.4159 H   0  0  0  0  0  0  0  0  0  0  0  0
    5.7055   -3.0012   -1.2516 H   0  0  0  0  0  0  0  0  0  0  0  0
    4.0937   -2.2199   -2.8940 H   0  0  0  0  0  0  0  0  0  0  0  0
    2.9486   -3.4623   -2.4246 H   0  0  0  0  0  0  0  0  0  0  0  0
    4.4617   -3.9082   -3.2121 H   0  0  0  0  0  0  0  0  0  0  0  0
    2.7653   -2.5465    2.8603 H   0  0  0  0  0  0  0  0  0  0  0  0
    1.4083   -4.1644    3.5977 H   0  0  0  0  0  0  0  0  0  0  0  0
    0.1440   -6.0776    5.0534 H   0  0  0  0  0  0  0  0  0  0  0  0
    0.9699   -8.8576    5.0014 H   0  0  0  0  0  0  0  0  0  0  0  0
   -0.6584   -8.2988    4.8487 H   0  0  0  0  0  0  0  0  0  0  0  0
   -0.2102  -10.5290    1.8404 H   0  0  0  0  0  0  0  0  0  0  0  0
   -1.1647  -10.2094    3.2646 H   0  0  0  0  0  0  0  0  0  0  0  0
    0.4565  -10.8036    3.4510 H   0  0  0  0  0  0  0  0  0  0  0  0
   -0.9276   -8.1949    1.1801 H   0  0  0  0  0  0  0  0  0  0  0  0
   -0.4843   -6.7810    2.1359 H   0  0  0  0  0  0  0  0  0  0  0  0
   -1.7278   -7.8967    2.7202 H   0  0  0  0  0  0  0  0  0  0  0  0
    1.4901   -8.0506    1.1370 H   0  0  0  0  0  0  0  0  0  0  0  0
    2.1043  -10.5436    1.9537 H   0  0  0  0  0  0  0  0  0  0  0  0
    3.8524  -10.3850    0.8925 H   0  0  0  0  0  0  0  0  0  0  0  0
    3.2062   -8.2970    4.8654 H   0  0  0  0  0  0  0  0  0  0  0  0
    4.5566   -8.2073    3.7978 H   0  0  0  0  0  0  0  0  0  0  0  0
  1  2  1  0
  1 28  1  0
  1 29  1  0
  1 30  1  0
  3  2  1  6
  3 14  1  0
  3 27  1  0
  3  4  1  0
  4  5  1  0
  5 13  1  0
  5  6  1  0
  5 31  1  6
  6  7  1  0
  6 32  1  0
  6 33  1  0
  7  8  1  0
  7  9  1  0
  7 34  1  6
  8 35  1  0
  8 36  1  0
  8 37  1  0
  9 10  2  0
  9 11  1  0
 11 12  1  0
 11 13  2  0
 12 38  1  0
 13 14  1  0
 14 15  2  0
 15 16  1  0
 15 39  1  0
 16 27  1  0
 16 17  2  0
 17 18  1  0
 17 40  1  0
 18 19  1  0
 18 41  1  0
 18 42  1  0
 19 20  1  0
 19 21  1  0
 19 22  1  0
 20 43  1  0
 20 44  1  0
 20 45  1  0
 21 46  1  0
 21 47  1  0
 21 48  1  0
 22 27  1  0
 22 23  1  0
 22 49  1  6
 23 24  1  0
 23 25  1  0
 23 50  1  6
 24 51  1  0
 25 26  1  0
 27 26  1  1
 26 52  1  0
 26 53  1  0
M  END
>  <i_m_ct_stereo_status>  (197) 
1

>  <s_m_source_file>  (197) 
/var/tmp/pbs.5076255.sched01/tmpnx1894nc/68p53si2vm.sdf

>  <i_m_source_file_index>  (197) 
11

>  <i_lp_mmshare_version>  (197) 
48012

>  <i_f3d_flags>  (197) 
0

>  <s_epik_input>  (197) 
W09IXUM9MUMoPU8pW0NASF0oW0NIM10pW0NIMl1bQ0BASF0oTzIpQzFDKFtDQF0yKFtDQEBdMzQ1KU9bQ0gzXSk9W0NIXUMzPVtDSF1bQ0gyXUMoW0NIM10pKFtDSDNdKVtDQEBIXTRbQ0BASF0oW09IXSlPW0NIMl01

>  <s_epik_cmdline>  (197) 
J2VwaWtfcHl0aG9uJywgJy1waHQnLCAnMi4wJywgJy1waCcsICc3LjAnLCAnLXRuJywgJzgnLCAnLW1hJywgJzIwMCcsICctaW1hZScsICc8aW5maWxlLm1hZT4nLCAnLW9tYWUnLCAnPG91dGZpbGUubWFlPic=

>  <r_epik_Ionization_Penalty>  (197) 
0.0353758

>  <r_epik_Ionization_Penalty_Charging>  (197) 
0

>  <r_epik_Ionization_Penalty_Neutral>  (197) 
0.0353758

>  <r_epik_State_Penalty>  (197) 
0.0294876

>  <r_epik_Charging_Adjusted_Penalty>  (197) 
0.0294876

>  <i_epik_Tot_Q>  (197) 
0

>  <i_epik_Tot_abs_Q>  (197) 
0

>  <s_epik_Chemistry_Notes>  (197) 
This compound contains an acetal/aminal-like group ( X-CH(R)-Y where X, Y are N, S, or O) that may be acid/base labile, releasing an aldehyde.

>  <s_lp_Force_Field>  (197) 
OPLS3e

>  <r_lp_Energy>  (197) 
51.8082

>  <b_lp_Chiralities_Consistent>  (197) 
1

>  <s_lp_Variant>  (197) 
60:0-1

>  <s_i_glide_gridfile>  (197) 
pfpi4k_grid

>  <i_i_glide_lignum>  (197) 
11

>  <i_i_glide_rotatable_bonds>  (197) 
3

>  <r_i_docking_score>  (197) 
-2.76732

>  <r_i_glide_ligand_efficiency>  (197) 
-0.102493

>  <r_i_glide_ligand_efficiency_sa>  (197) 
-0.30748

>  <r_i_glide_ligand_efficiency_ln>  (197) 
-0.644187

>  <r_i_glide_gscore>  (197) 
-2.76732

>  <r_i_glide_lipo>  (197) 
-0.0353916

>  <r_i_glide_hbond>  (197) 
0

>  <r_i_glide_metal>  (197) 
-0

>  <r_i_glide_rewards>  (197) 
-0.882028

>  <r_i_glide_evdw>  (197) 
-23.7603

>  <r_i_glide_ecoul>  (197) 
-4.21691

>  <r_i_glide_erotb>  (197) 
0

>  <r_i_glide_esite>  (197) 
-0.0293525

>  <r_i_glide_emodel>  (197) 
-32.2159

>  <r_i_glide_energy>  (197) 
-27.9772

>  <r_i_glide_einternal>  (197) 
0.627681

>  <r_i_glide_intrahb_reward>  (197) 
-0

>  <i_i_glide_confnum>  (197) 
1

>  <i_i_glide_posenum>  (197) 
34

>  <r_i_glide_eff_state_penalty>  (197) 
0

>  <ligand_id>  (197) 
60

>  <original_smiles>  (197) 
COC12OC3CC(C)C(=O)C(O)=C3C1=CC1=CCC(C)(C)C3C(O)OCC132

>  <smiles>  (197) 
[H]OC1=C2C3=C([H])C4=C([H])C([H])([H])C(C([H])([H])[H])(C([H])([H])[H])C5([H])C([H])(O[H])OC([H])([H])C45C3(OC([H])([H])[H])OC2([H])C([H])([H])C([H])(C([H])([H])[H])C1=O

$$$$
60:0:1
     RDKit          3D

 53 57  0  0  1  0  0  0  0  0999 V2000
    5.7074   -7.4548    2.1272 C   0  0  0  0  0  0  0  0  0  0  0  0
    4.8455   -6.4828    2.7024 O   0  0  0  0  0  0  0  0  0  0  0  0
    3.5383   -6.4215    2.2210 C   0  0  2  0  0  0  0  0  0  0  0  0
    3.4655   -6.5078    0.8136 O   0  0  0  0  0  0  0  0  0  0  0  0
    3.6778   -5.1955    0.2558 C   0  0  2  0  0  0  0  0  0  0  0  0
    5.0726   -4.9120   -0.3288 C   0  0  0  0  0  0  0  0  0  0  0  0
    5.1623   -3.4628   -0.8600 C   0  0  1  0  0  0  0  0  0  0  0  0
    4.5954   -3.3310   -2.2782 C   0  0  0  0  0  0  0  0  0  0  0  0
    4.5145   -2.4379    0.0927 C   0  0  0  0  0  0  0  0  0  0  0  0
    4.7038   -1.2432   -0.1504 O   0  0  0  0  0  0  0  0  0  0  0  0
    3.7582   -2.9092    1.2997 C   0  0  0  0  0  0  0  0  0  0  0  0
    3.5497   -2.0397    2.2959 O   0  0  0  0  0  0  0  0  0  0  0  0
    3.4380   -4.2258    1.3744 C   0  0  0  0  0  0  0  0  0  0  0  0
    3.0788   -5.0336    2.4922 C   0  0  0  0  0  0  0  0  0  0  0  0
    2.1357   -4.8941    3.4431 C   0  0  0  0  0  0  0  0  0  0  0  0
    1.7317   -6.2301    3.8170 C   0  0  0  0  0  0  0  0  0  0  0  0
    0.6166   -6.5350    4.5017 C   0  0  0  0  0  0  0  0  0  0  0  0
    0.0517   -7.9376    4.3694 C   0  0  0  0  0  0  0  0  0  0  0  0
    0.1137   -8.4077    2.8857 C   0  0  0  0  0  0  0  0  0  0  0  0
   -0.4840   -9.8328    2.8068 C   0  0  0  0  0  0  0  0  0  0  0  0
   -0.8466   -7.5076    2.0787 C   0  0  0  0  0  0  0  0  0  0  0  0
    1.5618   -8.2412    2.2448 C   0  0  2  0  0  0  0  0  0  0  0  0
    2.3925   -9.5422    2.2596 C   0  0  1  0  0  0  0  0  0  0  0  0
    3.3850   -9.4978    1.2629 O   0  0  0  0  0  0  0  0  0  0  0  0
    2.9356   -9.6037    3.5427 O   0  0  0  0  0  0  0  0  0  0  0  0
    3.2042   -8.3026    4.0393 C   0  0  0  0  0  0  0  0  0  0  0  0
    2.5163   -7.3005    3.0653 C   0  0  1  0  0  0  0  0  0  0  0  0
    6.7172   -7.2806    2.5193 H   0  0  0  0  0  0  0  0  0  0  0  0
    5.7459   -7.3881    1.0344 H   0  0  0  0  0  0  0  0  0  0  0  0
    5.4261   -8.4734    2.3983 H   0  0  0  0  0  0  0  0  0  0  0  0
    2.9358   -5.0172   -0.5184 H   0  0  0  0  0  0  0  0  0  0  0  0
    5.8460   -5.0555    0.4335 H   0  0  0  0  0  0  0  0  0  0  0  0
    5.2931   -5.6242   -1.1278 H   0  0  0  0  0  0  0  0  0  0  0  0
    6.2121   -3.2104   -0.9176 H   0  0  0  0  0  0  0  0  0  0  0  0
    4.7870   -2.3392   -2.6869 H   0  0  0  0  0  0  0  0  0  0  0  0
    3.5161   -3.4873   -2.2862 H   0  0  0  0  0  0  0  0  0  0  0  0
    5.0414   -4.0571   -2.9604 H   0  0  0  0  0  0  0  0  0  0  0  0
    3.0239   -2.4784    2.9569 H   0  0  0  0  0  0  0  0  0  0  0  0
    1.5678   -4.0106    3.6388 H   0  0  0  0  0  0  0  0  0  0  0  0
    0.0061   -5.7905    4.9808 H   0  0  0  0  0  0  0  0  0  0  0  0
    0.5966   -8.6247    5.0096 H   0  0  0  0  0  0  0  0  0  0  0  0
   -0.9691   -7.9481    4.7418 H   0  0  0  0  0  0  0  0  0  0  0  0
   -0.4897  -10.2374    1.7926 H   0  0  0  0  0  0  0  0  0  0  0  0
   -1.5210   -9.8327    3.1432 H   0  0  0  0  0  0  0  0  0  0  0  0
    0.0427  -10.5424    3.4484 H   0  0  0  0  0  0  0  0  0  0  0  0
   -0.9536   -7.8713    1.0525 H   0  0  0  0  0  0  0  0  0  0  0  0
   -0.4730   -6.4872    2.0226 H   0  0  0  0  0  0  0  0  0  0  0  0
   -1.8434   -7.4808    2.5226 H   0  0  0  0  0  0  0  0  0  0  0  0
    1.4526   -7.9252    1.1974 H   0  0  0  0  0  0  0  0  0  0  0  0
    1.8117  -10.4470    2.0681 H   0  0  0  0  0  0  0  0  0  0  0  0
    3.7109  -10.3929    1.1276 H   0  0  0  0  0  0  0  0  0  0  0  0
    2.7909   -8.2339    5.0397 H   0  0  0  0  0  0  0  0  0  0  0  0
    4.2592   -8.1434    4.2168 H   0  0  0  0  0  0  0  0  0  0  0  0
  1  2  1  0
  1 28  1  0
  1 29  1  0
  1 30  1  0
  3  2  1  1
  3 14  1  0
  3 27  1  0
  3  4  1  0
  4  5  1  0
  5 13  1  0
  5  6  1  0
  5 31  1  6
  6  7  1  0
  6 32  1  0
  6 33  1  0
  7  8  1  0
  7  9  1  0
  7 34  1  6
  8 35  1  0
  8 36  1  0
  8 37  1  0
  9 10  2  0
  9 11  1  0
 11 12  1  0
 11 13  2  0
 12 38  1  0
 13 14  1  0
 14 15  2  0
 15 16  1  0
 15 39  1  0
 16 27  1  0
 16 17  2  0
 17 18  1  0
 17 40  1  0
 18 19  1  0
 18 41  1  0
 18 42  1  0
 19 20  1  0
 19 21  1  0
 19 22  1  0
 20 43  1  0
 20 44  1  0
 20 45  1  0
 21 46  1  0
 21 47  1  0
 21 48  1  0
 22 27  1  0
 22 23  1  0
 22 49  1  6
 23 24  1  0
 23 25  1  0
 23 50  1  6
 24 51  1  0
 25 26  1  0
 27 26  1  1
 26 52  1  0
 26 53  1  0
M  END
>  <i_m_ct_stereo_status>  (198) 
1

>  <s_m_source_file>  (198) 
/var/tmp/pbs.5076255.sched01/tmpnx1894nc/68p53si2vm.sdf

>  <i_m_source_file_index>  (198) 
11

>  <i_lp_mmshare_version>  (198) 
48012

>  <i_f3d_flags>  (198) 
0

>  <s_epik_input>  (198) 
W09IXUM9MUMoPU8pW0NASF0oW0NIM10pW0NIMl1bQ0BASF0oTzIpQzFDKFtDQF0yKFtDQEBdMzQ1KU9bQ0gzXSk9W0NIXUMzPVtDSF1bQ0gyXUMoW0NIM10pKFtDSDNdKVtDQEBIXTRbQ0BASF0oW09IXSlPW0NIMl01

>  <s_epik_cmdline>  (198) 
J2VwaWtfcHl0aG9uJywgJy1waHQnLCAnMi4wJywgJy1waCcsICc3LjAnLCAnLXRuJywgJzgnLCAnLW1hJywgJzIwMCcsICctaW1hZScsICc8aW5maWxlLm1hZT4nLCAnLW9tYWUnLCAnPG91dGZpbGUubWFlPic=

>  <r_epik_Ionization_Penalty>  (198) 
0.0353758

>  <r_epik_Ionization_Penalty_Charging>  (198) 
0

>  <r_epik_Ionization_Penalty_Neutral>  (198) 
0.0353758

>  <r_epik_State_Penalty>  (198) 
0.0294876

>  <r_epik_Charging_Adjusted_Penalty>  (198) 
0.0294876

>  <i_epik_Tot_Q>  (198) 
0

>  <i_epik_Tot_abs_Q>  (198) 
0

>  <s_epik_Chemistry_Notes>  (198) 
This compound contains an acetal/aminal-like group ( X-CH(R)-Y where X, Y are N, S, or O) that may be acid/base labile, releasing an aldehyde.

>  <s_lp_Force_Field>  (198) 
OPLS3e

>  <r_lp_Energy>  (198) 
51.8082

>  <b_lp_Chiralities_Consistent>  (198) 
1

>  <s_lp_Variant>  (198) 
60:0-1

>  <s_i_glide_gridfile>  (198) 
pfpi4k_grid

>  <i_i_glide_lignum>  (198) 
11

>  <i_i_glide_rotatable_bonds>  (198) 
3

>  <r_i_docking_score>  (198) 
-2.75628

>  <r_i_glide_ligand_efficiency>  (198) 
-0.102084

>  <r_i_glide_ligand_efficiency_sa>  (198) 
-0.306253

>  <r_i_glide_ligand_efficiency_ln>  (198) 
-0.641616

>  <r_i_glide_gscore>  (198) 
-2.75628

>  <r_i_glide_lipo>  (198) 
-0.130555

>  <r_i_glide_hbond>  (198) 
0

>  <r_i_glide_metal>  (198) 
-0

>  <r_i_glide_rewards>  (198) 
-0.897602

>  <r_i_glide_evdw>  (198) 
-24.6187

>  <r_i_glide_ecoul>  (198) 
-3.27758

>  <r_i_glide_erotb>  (198) 
0

>  <r_i_glide_esite>  (198) 
-0.00554761

>  <r_i_glide_emodel>  (198) 
-32.2653

>  <r_i_glide_energy>  (198) 
-27.8963

>  <r_i_glide_einternal>  (198) 
0.479915

>  <r_i_glide_intrahb_reward>  (198) 
-0

>  <i_i_glide_confnum>  (198) 
2

>  <i_i_glide_posenum>  (198) 
1

>  <r_i_glide_eff_state_penalty>  (198) 
0

>  <ligand_id>  (198) 
60

>  <original_smiles>  (198) 
COC12OC3CC(C)C(=O)C(O)=C3C1=CC1=CCC(C)(C)C3C(O)OCC132

>  <smiles>  (198) 
[H]OC1=C2C3=C([H])C4=C([H])C([H])([H])C(C([H])([H])[H])(C([H])([H])[H])C5([H])C([H])(O[H])OC([H])([H])C45C3(OC([H])([H])[H])OC2([H])C([H])([H])C([H])(C([H])([H])[H])C1=O

$$$$
60:0:2
     RDKit          3D

 53 57  0  0  1  0  0  0  0  0999 V2000
    5.6767   -7.1609    1.9188 C   0  0  0  0  0  0  0  0  0  0  0  0
    4.7832   -6.2136    2.4878 O   0  0  0  0  0  0  0  0  0  0  0  0
    3.4603   -6.2389    2.0519 C   0  0  2  0  0  0  0  0  0  0  0  0
    3.3506   -6.3784    0.6536 O   0  0  0  0  0  0  0  0  0  0  0  0
    3.4725   -5.0696    0.0568 C   0  0  2  0  0  0  0  0  0  0  0  0
    4.8185   -4.7307   -0.6047 C   0  0  0  0  0  0  0  0  0  0  0  0
    4.8039   -3.2964   -1.1802 C   0  0  1  0  0  0  0  0  0  0  0  0
    4.1848   -3.2403   -2.5818 C   0  0  0  0  0  0  0  0  0  0  0  0
    4.1247   -2.2804   -0.2356 C   0  0  0  0  0  0  0  0  0  0  0  0
    4.2389   -1.0830   -0.4826 O   0  0  0  0  0  0  0  0  0  0  0  0
    3.4406   -2.7580    1.0004 C   0  0  0  0  0  0  0  0  0  0  0  0
    3.1920   -1.8546    1.9411 O   0  0  0  0  0  0  0  0  0  0  0  0
    3.2167   -4.0794    1.1445 C   0  0  0  0  0  0  0  0  0  0  0  0
    2.9308   -4.8661    2.2936 C   0  0  0  0  0  0  0  0  0  0  0  0
    2.0191   -4.7469    3.2781 C   0  0  0  0  0  0  0  0  0  0  0  0
    1.6983   -6.0888    3.7001 C   0  0  0  0  0  0  0  0  0  0  0  0
    0.6247   -6.4317    4.4352 C   0  0  0  0  0  0  0  0  0  0  0  0
    0.1376   -7.8640    4.3665 C   0  0  0  0  0  0  0  0  0  0  0  0
    0.1788   -8.3814    2.8956 C   0  0  0  0  0  0  0  0  0  0  0  0
   -0.3441   -9.8377    2.8833 C   0  0  0  0  0  0  0  0  0  0  0  0
   -0.8556   -7.5578    2.0952 C   0  0  0  0  0  0  0  0  0  0  0  0
    1.5944   -8.1592    2.1973 C   0  0  2  0  0  0  0  0  0  0  0  0
    2.4862   -9.4210    2.2285 C   0  0  1  0  0  0  0  0  0  0  0  0
    3.4428   -9.3829    1.1955 O   0  0  0  0  0  0  0  0  0  0  0  0
    3.0740   -9.4040    3.4913 O   0  0  0  0  0  0  0  0  0  0  0  0
    3.2877   -8.0703    3.9378 C   0  0  0  0  0  0  0  0  0  0  0  0
    2.5142   -7.1439    2.9555 C   0  0  1  0  0  0  0  0  0  0  0  0
    6.6878   -6.9154    2.2657 H   0  0  0  0  0  0  0  0  0  0  0  0
    5.6681   -7.1346    0.8250 H   0  0  0  0  0  0  0  0  0  0  0  0
    5.4585   -8.1806    2.2406 H   0  0  0  0  0  0  0  0  0  0  0  0
    2.6835   -4.9614   -0.6928 H   0  0  0  0  0  0  0  0  0  0  0  0
    5.6256   -4.8064    0.1287 H   0  0  0  0  0  0  0  0  0  0  0  0
    5.0351   -5.4545   -1.3894 H   0  0  0  0  0  0  0  0  0  0  0  0
    5.8360   -2.9832   -1.2862 H   0  0  0  0  0  0  0  0  0  0  0  0
    4.3048   -2.2545   -3.0306 H   0  0  0  0  0  0  0  0  0  0  0  0
    3.1176   -3.4594   -2.5465 H   0  0  0  0  0  0  0  0  0  0  0  0
    4.6464   -3.9630   -3.2543 H   0  0  0  0  0  0  0  0  0  0  0  0
    3.3672   -1.0101    1.5359 H   0  0  0  0  0  0  0  0  0  0  0  0
    1.4160   -3.8780    3.4560 H   0  0  0  0  0  0  0  0  0  0  0  0
   -0.0079   -5.7023    4.9131 H   0  0  0  0  0  0  0  0  0  0  0  0
    0.7421   -8.4989    5.0095 H   0  0  0  0  0  0  0  0  0  0  0  0
   -0.8679   -7.9189    4.7767 H   0  0  0  0  0  0  0  0  0  0  0  0
   -0.3601  -10.2774    1.8850 H   0  0  0  0  0  0  0  0  0  0  0  0
   -1.3671   -9.8778    3.2580 H   0  0  0  0  0  0  0  0  0  0  0  0
    0.2430  -10.4952    3.5278 H   0  0  0  0  0  0  0  0  0  0  0  0
   -0.9611   -7.9507    1.0826 H   0  0  0  0  0  0  0  0  0  0  0  0
   -0.5457   -6.5192    2.0016 H   0  0  0  0  0  0  0  0  0  0  0  0
   -1.8424   -7.5761    2.5652 H   0  0  0  0  0  0  0  0  0  0  0  0
    1.4287   -7.8853    1.1481 H   0  0  0  0  0  0  0  0  0  0  0  0
    1.9449  -10.3545    2.0802 H   0  0  0  0  0  0  0  0  0  0  0  0
    3.8006  -10.2627    1.0850 H   0  0  0  0  0  0  0  0  0  0  0  0
    2.9026   -7.9881    4.9498 H   0  0  0  0  0  0  0  0  0  0  0  0
    4.3383   -7.8441    4.0792 H   0  0  0  0  0  0  0  0  0  0  0  0
  1  2  1  0
  1 28  1  0
  1 29  1  0
  1 30  1  0
  3  2  1  1
  3 14  1  0
  3 27  1  0
  3  4  1  0
  4  5  1  0
  5 13  1  0
  5  6  1  0
  5 31  1  6
  6  7  1  0
  6 32  1  0
  6 33  1  0
  7  8  1  0
  7  9  1  0
  7 34  1  6
  8 35  1  0
  8 36  1  0
  8 37  1  0
  9 10  2  0
  9 11  1  0
 11 12  1  0
 11 13  2  0
 12 38  1  0
 13 14  1  0
 14 15  2  0
 15 16  1  0
 15 39  1  0
 16 27  1  0
 16 17  2  0
 17 18  1  0
 17 40  1  0
 18 19  1  0
 18 41  1  0
 18 42  1  0
 19 20  1  0
 19 21  1  0
 19 22  1  0
 20 43  1  0
 20 44  1  0
 20 45  1  0
 21 46  1  0
 21 47  1  0
 21 48  1  0
 22 27  1  0
 22 23  1  0
 22 49  1  6
 23 24  1  0
 23 25  1  0
 23 50  1  6
 24 51  1  0
 25 26  1  0
 27 26  1  1
 26 52  1  0
 26 53  1  0
M  END
>  <i_m_ct_stereo_status>  (199) 
1

>  <s_m_source_file>  (199) 
/var/tmp/pbs.5076255.sched01/tmpnx1894nc/68p53si2vm.sdf

>  <i_m_source_file_index>  (199) 
11

>  <i_lp_mmshare_version>  (199) 
48012

>  <i_f3d_flags>  (199) 
0

>  <s_epik_input>  (199) 
W09IXUM9MUMoPU8pW0NASF0oW0NIM10pW0NIMl1bQ0BASF0oTzIpQzFDKFtDQF0yKFtDQEBdMzQ1KU9bQ0gzXSk9W0NIXUMzPVtDSF1bQ0gyXUMoW0NIM10pKFtDSDNdKVtDQEBIXTRbQ0BASF0oW09IXSlPW0NIMl01

>  <s_epik_cmdline>  (199) 
J2VwaWtfcHl0aG9uJywgJy1waHQnLCAnMi4wJywgJy1waCcsICc3LjAnLCAnLXRuJywgJzgnLCAnLW1hJywgJzIwMCcsICctaW1hZScsICc8aW5maWxlLm1hZT4nLCAnLW9tYWUnLCAnPG91dGZpbGUubWFlPic=

>  <r_epik_Ionization_Penalty>  (199) 
0.0353758

>  <r_epik_Ionization_Penalty_Charging>  (199) 
0

>  <r_epik_Ionization_Penalty_Neutral>  (199) 
0.0353758

>  <r_epik_State_Penalty>  (199) 
0.0294876

>  <r_epik_Charging_Adjusted_Penalty>  (199) 
0.0294876

>  <i_epik_Tot_Q>  (199) 
0

>  <i_epik_Tot_abs_Q>  (199) 
0

>  <s_epik_Chemistry_Notes>  (199) 
This compound contains an acetal/aminal-like group ( X-CH(R)-Y where X, Y are N, S, or O) that may be acid/base labile, releasing an aldehyde.

>  <s_lp_Force_Field>  (199) 
OPLS3e

>  <r_lp_Energy>  (199) 
51.8082

>  <b_lp_Chiralities_Consistent>  (199) 
1

>  <s_lp_Variant>  (199) 
60:0-1

>  <s_i_glide_gridfile>  (199) 
pfpi4k_grid

>  <i_i_glide_lignum>  (199) 
11

>  <i_i_glide_rotatable_bonds>  (199) 
3

>  <r_i_docking_score>  (199) 
-2.74846

>  <r_i_glide_ligand_efficiency>  (199) 
-0.101795

>  <r_i_glide_ligand_efficiency_sa>  (199) 
-0.305385

>  <r_i_glide_ligand_efficiency_ln>  (199) 
-0.639796

>  <r_i_glide_gscore>  (199) 
-2.74846

>  <r_i_glide_lipo>  (199) 
-0.0939759

>  <r_i_glide_hbond>  (199) 
0

>  <r_i_glide_metal>  (199) 
-0

>  <r_i_glide_rewards>  (199) 
-0.890741

>  <r_i_glide_evdw>  (199) 
-25.8941

>  <r_i_glide_ecoul>  (199) 
-3.00539

>  <r_i_glide_erotb>  (199) 
0

>  <r_i_glide_esite>  (199) 
-0.0182312

>  <r_i_glide_emodel>  (199) 
-32.1263

>  <r_i_glide_energy>  (199) 
-28.8995

>  <r_i_glide_einternal>  (199) 
2.58443

>  <r_i_glide_intrahb_reward>  (199) 
-0

>  <i_i_glide_confnum>  (199) 
2

>  <i_i_glide_posenum>  (199) 
23

>  <r_i_glide_eff_state_penalty>  (199) 
0

>  <ligand_id>  (199) 
60

>  <original_smiles>  (199) 
COC12OC3CC(C)C(=O)C(O)=C3C1=CC1=CCC(C)(C)C3C(O)OCC132

>  <smiles>  (199) 
[H]OC1=C2C3=C([H])C4=C([H])C([H])([H])C(C([H])([H])[H])(C([H])([H])[H])C5([H])C([H])(O[H])OC([H])([H])C45C3(OC([H])([H])[H])OC2([H])C([H])([H])C([H])(C([H])([H])[H])C1=O

$$$$
60:1:0
     RDKit          3D

 52 56  0  0  1  0  0  0  0  0999 V2000
    4.3717    0.5503    3.9754 C   0  0  0  0  0  0  0  0  0  0  0  0
    3.7038   -0.6865    4.1897 O   0  0  0  0  0  0  0  0  0  0  0  0
    3.0231   -1.2174    3.0995 C   0  0  2  0  0  0  0  0  0  0  0  0
    2.2644   -0.2619    2.3813 O   0  0  0  0  0  0  0  0  0  0  0  0
    0.9850   -0.0867    3.0313 C   0  0  2  0  0  0  0  0  0  0  0  0
    0.8597    1.1456    3.9398 C   0  0  0  0  0  0  0  0  0  0  0  0
   -0.5321    1.1676    4.6004 C   0  0  1  0  0  0  0  0  0  0  0  0
   -1.5731    1.8765    3.7090 C   0  0  0  0  0  0  0  0  0  0  0  0
   -1.0268   -0.2373    5.0637 C   0  0  0  0  0  0  0  0  0  0  0  0
   -2.1040   -0.2813    5.6600 O   0  0  0  0  0  0  0  0  0  0  0  0
   -0.1847   -1.5018    4.8614 C   0  0  0  0  0  0  0  0  0  0  0  0
   -0.4732   -2.4490    5.6586 O   0  0  0  0  0  0  0  0  0  0  0  0
    0.7898   -1.3162    3.8947 C   0  0  0  0  0  0  0  0  0  0  0  0
    1.9727   -2.0965    3.7042 C   0  0  0  0  0  0  0  0  0  0  0  0
    2.1455   -3.4129    3.5471 C   0  0  0  0  0  0  0  0  0  0  0  0
    3.2707   -3.5901    2.6589 C   0  0  0  0  0  0  0  0  0  0  0  0
    3.5816   -4.7235    2.0083 C   0  0  0  0  0  0  0  0  0  0  0  0
    4.4409   -4.6226    0.7592 C   0  0  0  0  0  0  0  0  0  0  0  0
    3.9963   -3.4072   -0.1131 C   0  0  0  0  0  0  0  0  0  0  0  0
    4.8848   -3.3492   -1.3799 C   0  0  0  0  0  0  0  0  0  0  0  0
    2.5610   -3.6941   -0.6188 C   0  0  0  0  0  0  0  0  0  0  0  0
    3.8974   -2.0576    0.7162 C   0  0  2  0  0  0  0  0  0  0  0  0
    5.1673   -1.2042    0.5596 C   0  0  1  0  0  0  0  0  0  0  0  0
    4.8657    0.1496    0.8760 O   0  0  0  0  0  0  0  0  0  0  0  0
    6.0896   -1.7188    1.4542 O   0  0  0  0  0  0  0  0  0  0  0  0
    5.4106   -2.2189    2.6061 C   0  0  0  0  0  0  0  0  0  0  0  0
    3.8919   -2.2586    2.2609 C   0  0  1  0  0  0  0  0  0  0  0  0
    4.7292    0.9073    4.9407 H   0  0  0  0  0  0  0  0  0  0  0  0
    3.7299    1.3118    3.5313 H   0  0  0  0  0  0  0  0  0  0  0  0
    5.2444    0.4513    3.3374 H   0  0  0  0  0  0  0  0  0  0  0  0
    0.2080   -0.0329    2.2627 H   0  0  0  0  0  0  0  0  0  0  0  0
    1.6105    1.1171    4.7298 H   0  0  0  0  0  0  0  0  0  0  0  0
    1.0438    2.0632    3.3879 H   0  0  0  0  0  0  0  0  0  0  0  0
   -0.4533    1.7853    5.4968 H   0  0  0  0  0  0  0  0  0  0  0  0
   -2.5163    2.0345    4.2317 H   0  0  0  0  0  0  0  0  0  0  0  0
   -1.7860    1.2780    2.8288 H   0  0  0  0  0  0  0  0  0  0  0  0
   -1.2188    2.8485    3.3601 H   0  0  0  0  0  0  0  0  0  0  0  0
    1.3979   -4.1702    3.7381 H   0  0  0  0  0  0  0  0  0  0  0  0
    3.1069   -5.6788    2.2028 H   0  0  0  0  0  0  0  0  0  0  0  0
    5.4944   -4.5228    1.0218 H   0  0  0  0  0  0  0  0  0  0  0  0
    4.3725   -5.5503    0.1914 H   0  0  0  0  0  0  0  0  0  0  0  0
    4.6188   -2.5192   -2.0382 H   0  0  0  0  0  0  0  0  0  0  0  0
    4.7923   -4.2624   -1.9729 H   0  0  0  0  0  0  0  0  0  0  0  0
    5.9445   -3.2667   -1.1367 H   0  0  0  0  0  0  0  0  0  0  0  0
    2.2242   -2.9417   -1.3399 H   0  0  0  0  0  0  0  0  0  0  0  0
    1.8462   -3.7158    0.1934 H   0  0  0  0  0  0  0  0  0  0  0  0
    2.4942   -4.6523   -1.1133 H   0  0  0  0  0  0  0  0  0  0  0  0
    3.0402   -1.4792    0.3549 H   0  0  0  0  0  0  0  0  0  0  0  0
    5.5932   -1.1786   -0.4434 H   0  0  0  0  0  0  0  0  0  0  0  0
    5.1669    0.7041    0.1735 H   0  0  0  0  0  0  0  0  0  0  0  0
    5.8103   -3.2065    2.8176 H   0  0  0  0  0  0  0  0  0  0  0  0
    5.6845   -1.7084    3.5180 H   0  0  0  0  0  0  0  0  0  0  0  0
  1  2  1  0
  1 28  1  0
  1 29  1  0
  1 30  1  0
  3  2  1  1
  3 14  1  0
  3 27  1  0
  3  4  1  0
  4  5  1  0
  5 13  1  0
  5  6  1  0
  5 31  1  6
  6  7  1  0
  6 32  1  0
  6 33  1  0
  7  8  1  0
  7  9  1  0
  7 34  1  1
  8 35  1  0
  8 36  1  0
  8 37  1  0
  9 10  2  0
  9 11  1  0
 11 12  1  0
 11 13  2  0
 13 14  1  0
 14 15  2  0
 15 16  1  0
 15 38  1  0
 16 27  1  0
 16 17  2  0
 17 18  1  0
 17 39  1  0
 18 19  1  0
 18 40  1  0
 18 41  1  0
 19 20  1  0
 19 21  1  0
 19 22  1  0
 20 42  1  0
 20 43  1  0
 20 44  1  0
 21 45  1  0
 21 46  1  0
 21 47  1  0
 22 27  1  0
 22 23  1  0
 22 48  1  6
 23 24  1  0
 23 25  1  0
 23 49  1  6
 24 50  1  0
 25 26  1  0
 27 26  1  1
 26 51  1  0
 26 52  1  0
M  CHG  1  12  -1
M  END
>  <i_m_ct_stereo_status>  (200) 
1

>  <s_m_source_file>  (200) 
/var/tmp/pbs.5076255.sched01/tmpnx1894nc/68p53si2vm.sdf

>  <i_m_source_file_index>  (200) 
12

>  <i_lp_mmshare_version>  (200) 
48012

>  <i_f3d_flags>  (200) 
0

>  <s_epik_input>  (200) 
W09IXUM9MUMoPU8pW0NASF0oW0NIM10pW0NIMl1bQ0BASF0oTzIpQzFDKFtDQF0yKFtDQEBdMzQ1KU9bQ0gzXSk9W0NIXUMzPVtDSF1bQ0gyXUMoW0NIM10pKFtDSDNdKVtDQEBIXTRbQ0BASF0oW09IXSlPW0NIMl01

>  <s_epik_cmdline>  (200) 
J2VwaWtfcHl0aG9uJywgJy1waHQnLCAnMi4wJywgJy1waCcsICc3LjAnLCAnLXRuJywgJzgnLCAnLW1hJywgJzIwMCcsICctaW1hZScsICc8aW5maWxlLm1hZT4nLCAnLW9tYWUnLCAnPG91dGZpbGUubWFlPic=

>  <r_epik_Ionization_Penalty>  (200) 
1.68742

>  <r_epik_Ionization_Penalty_Charging>  (200) 
1.68742

>  <r_epik_Ionization_Penalty_Neutral>  (200) 
3.00486e-07

>  <r_epik_State_Penalty>  (200) 
1.79235

>  <r_epik_Charging_Adjusted_Penalty>  (200) 
3.47977

>  <i_epik_Tot_Q>  (200) 
-1

>  <i_epik_Tot_abs_Q>  (200) 
1

>  <s_epik_Chemistry_Notes>  (200) 
This compound contains an acetal/aminal-like group ( X-CH(R)-Y where X, Y are N, S, or O) that may be acid/base labile, releasing an aldehyde.

>  <s_lp_Force_Field>  (200) 
OPLS3e

>  <r_lp_Energy>  (200) 
60.0714

>  <b_lp_Chiralities_Consistent>  (200) 
1

>  <s_lp_Variant>  (200) 
60:0-2

>  <s_i_glide_gridfile>  (200) 
pfpi4k_grid

>  <i_i_glide_lignum>  (200) 
12

>  <i_i_glide_rotatable_bonds>  (200) 
2

>  <r_i_docking_score>  (200) 
-2.83461

>  <r_i_glide_ligand_efficiency>  (200) 
-0.104986

>  <r_i_glide_ligand_efficiency_sa>  (200) 
-0.314957

>  <r_i_glide_ligand_efficiency_ln>  (200) 
-0.659851

>  <r_i_glide_gscore>  (200) 
-2.83461

>  <r_i_glide_lipo>  (200) 
-0.197453

>  <r_i_glide_hbond>  (200) 
-0.0709847

>  <r_i_glide_metal>  (200) 
-0

>  <r_i_glide_rewards>  (200) 
-0.985328

>  <r_i_glide_evdw>  (200) 
-21.9094

>  <r_i_glide_ecoul>  (200) 
-3.00039

>  <r_i_glide_erotb>  (200) 
0

>  <r_i_glide_esite>  (200) 
-0.0353169

>  <r_i_glide_emodel>  (200) 
-29.246

>  <r_i_glide_energy>  (200) 
-24.9098

>  <r_i_glide_einternal>  (200) 
1.63099

>  <r_i_glide_intrahb_reward>  (200) 
-0

>  <i_i_glide_confnum>  (200) 
2

>  <i_i_glide_posenum>  (200) 
25

>  <r_i_glide_eff_state_penalty>  (200) 
0

>  <ligand_id>  (200) 
60

>  <original_smiles>  (200) 
COC12OC3CC(C)C(=O)C(O)=C3C1=CC1=CCC(C)(C)C3C(O)OCC132

>  <smiles>  (200) 
[H]OC1([H])OC([H])([H])C23C(=C([H])C([H])([H])C(C([H])([H])[H])(C([H])([H])[H])C12[H])C([H])=C1C2=C([O-])C(=O)C([H])(C([H])([H])[H])C([H])([H])C2([H])OC13OC([H])([H])[H]

$$$$
60:1:1
     RDKit          3D

 52 56  0  0  1  0  0  0  0  0999 V2000
    4.6437   -7.3272    0.6423 C   0  0  0  0  0  0  0  0  0  0  0  0
    3.3833   -6.6611    0.5772 O   0  0  0  0  0  0  0  0  0  0  0  0
    3.0439   -5.7583    1.5798 C   0  0  2  0  0  0  0  0  0  0  0  0
    2.2124   -4.7530    1.0356 O   0  0  0  0  0  0  0  0  0  0  0  0
    3.0458   -3.6735    0.5435 C   0  0  2  0  0  0  0  0  0  0  0  0
    3.2750   -3.6717   -0.9697 C   0  0  0  0  0  0  0  0  0  0  0  0
    4.2336   -2.5447   -1.3768 C   0  0  1  0  0  0  0  0  0  0  0  0
    3.5072   -1.2110   -1.6177 C   0  0  0  0  0  0  0  0  0  0  0  0
    5.4214   -2.3756   -0.3913 C   0  0  0  0  0  0  0  0  0  0  0  0
    6.2552   -1.5110   -0.6820 O   0  0  0  0  0  0  0  0  0  0  0  0
    5.5908   -3.2749    0.8405 C   0  0  0  0  0  0  0  0  0  0  0  0
    6.7650   -3.4022    1.2600 O   0  0  0  0  0  0  0  0  0  0  0  0
    4.3830   -3.8588    1.2168 C   0  0  0  0  0  0  0  0  0  0  0  0
    4.2574   -5.0155    2.0371 C   0  0  0  0  0  0  0  0  0  0  0  0
    4.6592   -5.2792    3.2773 C   0  0  0  0  0  0  0  0  0  0  0  0
    3.6736   -6.1523    3.8716 C   0  0  0  0  0  0  0  0  0  0  0  0
    3.5463   -6.3962    5.1803 C   0  0  0  0  0  0  0  0  0  0  0  0
    2.1970   -6.8314    5.7095 C   0  0  0  0  0  0  0  0  0  0  0  0
    1.0541   -6.0010    5.0389 C   0  0  0  0  0  0  0  0  0  0  0  0
   -0.3011   -6.4688    5.6284 C   0  0  0  0  0  0  0  0  0  0  0  0
    1.2145   -4.5411    5.5191 C   0  0  0  0  0  0  0  0  0  0  0  0
    1.1480   -5.9793    3.4476 C   0  0  2  0  0  0  0  0  0  0  0  0
    0.2069   -7.0298    2.8006 C   0  0  1  0  0  0  0  0  0  0  0  0
   -0.0852   -6.7162    1.4624 O   0  0  0  0  0  0  0  0  0  0  0  0
    0.8862   -8.2275    2.9227 O   0  0  0  0  0  0  0  0  0  0  0  0
    2.2744   -7.9986    2.7299 C   0  0  0  0  0  0  0  0  0  0  0  0
    2.5242   -6.4664    2.8979 C   0  0  1  0  0  0  0  0  0  0  0  0
    4.6680   -8.0931   -0.1279 H   0  0  0  0  0  0  0  0  0  0  0  0
    4.8153   -7.8081    1.6061 H   0  0  0  0  0  0  0  0  0  0  0  0
    5.4725   -6.6388    0.4724 H   0  0  0  0  0  0  0  0  0  0  0  0
    2.6157   -2.7166    0.8343 H   0  0  0  0  0  0  0  0  0  0  0  0
    3.7571   -4.6051   -1.2468 H   0  0  0  0  0  0  0  0  0  0  0  0
    2.3445   -3.5963   -1.5223 H   0  0  0  0  0  0  0  0  0  0  0  0
    4.6627   -2.8171   -2.3405 H   0  0  0  0  0  0  0  0  0  0  0  0
    4.1682   -0.4553   -2.0378 H   0  0  0  0  0  0  0  0  0  0  0  0
    3.1250   -0.8293   -0.6781 H   0  0  0  0  0  0  0  0  0  0  0  0
    2.6598   -1.3161   -2.2930 H   0  0  0  0  0  0  0  0  0  0  0  0
    5.4057   -4.6999    3.8351 H   0  0  0  0  0  0  0  0  0  0  0  0
    4.2981   -6.1027    5.9080 H   0  0  0  0  0  0  0  0  0  0  0  0
    2.0402   -7.8936    5.5365 H   0  0  0  0  0  0  0  0  0  0  0  0
    2.1850   -6.7102    6.7876 H   0  0  0  0  0  0  0  0  0  0  0  0
   -1.1506   -5.9227    5.2137 H   0  0  0  0  0  0  0  0  0  0  0  0
   -0.3337   -6.3142    6.7099 H   0  0  0  0  0  0  0  0  0  0  0  0
   -0.4769   -7.5339    5.4776 H   0  0  0  0  0  0  0  0  0  0  0  0
    0.3775   -3.9168    5.1894 H   0  0  0  0  0  0  0  0  0  0  0  0
    2.1259   -4.0894    5.1177 H   0  0  0  0  0  0  0  0  0  0  0  0
    1.2716   -4.4702    6.6085 H   0  0  0  0  0  0  0  0  0  0  0  0
    0.8590   -4.9878    3.0880 H   0  0  0  0  0  0  0  0  0  0  0  0
   -0.7654   -7.1397    3.2958 H   0  0  0  0  0  0  0  0  0  0  0  0
    0.6893   -6.9760    0.9551 H   0  0  0  0  0  0  0  0  0  0  0  0
    2.8095   -8.5847    3.4705 H   0  0  0  0  0  0  0  0  0  0  0  0
    2.5596   -8.4378    1.7804 H   0  0  0  0  0  0  0  0  0  0  0  0
  1  2  1  0
  1 28  1  0
  1 29  1  0
  1 30  1  0
  3  2  1  6
  3 14  1  0
  3 27  1  0
  3  4  1  0
  4  5  1  0
  5 13  1  0
  5  6  1  0
  5 31  1  1
  6  7  1  0
  6 32  1  0
  6 33  1  0
  7  8  1  0
  7  9  1  0
  7 34  1  6
  8 35  1  0
  8 36  1  0
  8 37  1  0
  9 10  2  0
  9 11  1  0
 11 12  1  0
 11 13  2  0
 13 14  1  0
 14 15  2  0
 15 16  1  0
 15 38  1  0
 16 27  1  0
 16 17  2  0
 17 18  1  0
 17 39  1  0
 18 19  1  0
 18 40  1  0
 18 41  1  0
 19 20  1  0
 19 21  1  0
 19 22  1  0
 20 42  1  0
 20 43  1  0
 20 44  1  0
 21 45  1  0
 21 46  1  0
 21 47  1  0
 22 27  1  0
 22 23  1  0
 22 48  1  6
 23 24  1  0
 23 25  1  0
 23 49  1  1
 24 50  1  0
 25 26  1  0
 27 26  1  6
 26 51  1  0
 26 52  1  0
M  CHG  1  12  -1
M  END
>  <i_m_ct_stereo_status>  (201) 
1

>  <s_m_source_file>  (201) 
/var/tmp/pbs.5076255.sched01/tmpnx1894nc/68p53si2vm.sdf

>  <i_m_source_file_index>  (201) 
12

>  <i_lp_mmshare_version>  (201) 
48012

>  <i_f3d_flags>  (201) 
0

>  <s_epik_input>  (201) 
W09IXUM9MUMoPU8pW0NASF0oW0NIM10pW0NIMl1bQ0BASF0oTzIpQzFDKFtDQF0yKFtDQEBdMzQ1KU9bQ0gzXSk9W0NIXUMzPVtDSF1bQ0gyXUMoW0NIM10pKFtDSDNdKVtDQEBIXTRbQ0BASF0oW09IXSlPW0NIMl01

>  <s_epik_cmdline>  (201) 
J2VwaWtfcHl0aG9uJywgJy1waHQnLCAnMi4wJywgJy1waCcsICc3LjAnLCAnLXRuJywgJzgnLCAnLW1hJywgJzIwMCcsICctaW1hZScsICc8aW5maWxlLm1hZT4nLCAnLW9tYWUnLCAnPG91dGZpbGUubWFlPic=

>  <r_epik_Ionization_Penalty>  (201) 
1.68742

>  <r_epik_Ionization_Penalty_Charging>  (201) 
1.68742

>  <r_epik_Ionization_Penalty_Neutral>  (201) 
3.00486e-07

>  <r_epik_State_Penalty>  (201) 
1.79235

>  <r_epik_Charging_Adjusted_Penalty>  (201) 
3.47977

>  <i_epik_Tot_Q>  (201) 
-1

>  <i_epik_Tot_abs_Q>  (201) 
1

>  <s_epik_Chemistry_Notes>  (201) 
This compound contains an acetal/aminal-like group ( X-CH(R)-Y where X, Y are N, S, or O) that may be acid/base labile, releasing an aldehyde.

>  <s_lp_Force_Field>  (201) 
OPLS3e

>  <r_lp_Energy>  (201) 
60.0714

>  <b_lp_Chiralities_Consistent>  (201) 
1

>  <s_lp_Variant>  (201) 
60:0-2

>  <s_i_glide_gridfile>  (201) 
pfpi4k_grid

>  <i_i_glide_lignum>  (201) 
12

>  <i_i_glide_rotatable_bonds>  (201) 
2

>  <r_i_docking_score>  (201) 
-2.60658

>  <r_i_glide_ligand_efficiency>  (201) 
-0.0965401

>  <r_i_glide_ligand_efficiency_sa>  (201) 
-0.28962

>  <r_i_glide_ligand_efficiency_ln>  (201) 
-0.60677

>  <r_i_glide_gscore>  (201) 
-2.60658

>  <r_i_glide_lipo>  (201) 
-0.198828

>  <r_i_glide_hbond>  (201) 
-0.133692

>  <r_i_glide_metal>  (201) 
-0

>  <r_i_glide_rewards>  (201) 
-0.876873

>  <r_i_glide_evdw>  (201) 
-20.1227

>  <r_i_glide_ecoul>  (201) 
-2.12588

>  <r_i_glide_erotb>  (201) 
0

>  <r_i_glide_esite>  (201) 
-0.0721739

>  <r_i_glide_emodel>  (201) 
-26.5954

>  <r_i_glide_energy>  (201) 
-22.2486

>  <r_i_glide_einternal>  (201) 
1.38086

>  <r_i_glide_intrahb_reward>  (201) 
-0

>  <i_i_glide_confnum>  (201) 
2

>  <i_i_glide_posenum>  (201) 
12

>  <r_i_glide_eff_state_penalty>  (201) 
0

>  <ligand_id>  (201) 
60

>  <original_smiles>  (201) 
COC12OC3CC(C)C(=O)C(O)=C3C1=CC1=CCC(C)(C)C3C(O)OCC132

>  <smiles>  (201) 
[H]OC1([H])OC([H])([H])C23C(=C([H])C([H])([H])C(C([H])([H])[H])(C([H])([H])[H])C12[H])C([H])=C1C2=C([O-])C(=O)C([H])(C([H])([H])[H])C([H])([H])C2([H])OC13OC([H])([H])[H]

$$$$
60:1:2
     RDKit          3D

 52 56  0  0  1  0  0  0  0  0999 V2000
    5.0445   -0.9984    3.8020 C   0  0  0  0  0  0  0  0  0  0  0  0
    4.6449   -2.3351    3.5076 O   0  0  0  0  0  0  0  0  0  0  0  0
    3.7530   -2.5163    2.4532 C   0  0  2  0  0  0  0  0  0  0  0  0
    2.7144   -1.5587    2.4391 O   0  0  0  0  0  0  0  0  0  0  0  0
    1.6513   -2.0175    3.3207 C   0  0  2  0  0  0  0  0  0  0  0  0
    1.6170   -1.3787    4.7101 C   0  0  0  0  0  0  0  0  0  0  0  0
    0.4793   -1.9938    5.5508 C   0  0  1  0  0  0  0  0  0  0  0  0
   -0.8599   -1.2790    5.3253 C   0  0  0  0  0  0  0  0  0  0  0  0
    0.3451   -3.5278    5.3739 C   0  0  0  0  0  0  0  0  0  0  0  0
   -0.5075   -4.0865    6.0777 O   0  0  0  0  0  0  0  0  0  0  0  0
    1.2489   -4.3192    4.4137 C   0  0  0  0  0  0  0  0  0  0  0  0
    1.3438   -5.5446    4.6679 O   0  0  0  0  0  0  0  0  0  0  0  0
    1.8761   -3.4870    3.4979 C   0  0  0  0  0  0  0  0  0  0  0  0
    3.0369   -3.7983    2.7354 C   0  0  0  0  0  0  0  0  0  0  0  0
    3.3417   -4.8311    1.9344 C   0  0  0  0  0  0  0  0  0  0  0  0
    4.1884   -4.3111    0.8840 C   0  0  0  0  0  0  0  0  0  0  0  0
    4.4651   -4.9230   -0.2706 C   0  0  0  0  0  0  0  0  0  0  0  0
    4.9030   -4.0813   -1.4571 C   0  0  0  0  0  0  0  0  0  0  0  0
    4.0518   -2.7820   -1.5420 C   0  0  0  0  0  0  0  0  0  0  0  0
    4.5189   -1.9518   -2.7598 C   0  0  0  0  0  0  0  0  0  0  0  0
    2.5965   -3.2015   -1.8718 C   0  0  0  0  0  0  0  0  0  0  0  0
    4.0101   -1.9849   -0.1557 C   0  0  2  0  0  0  0  0  0  0  0  0
    5.0360   -0.8437   -0.1027 C   0  0  1  0  0  0  0  0  0  0  0  0
    4.6463    0.1037    0.8727 O   0  0  0  0  0  0  0  0  0  0  0  0
    6.2427   -1.4546    0.2262 O   0  0  0  0  0  0  0  0  0  0  0  0
    6.0142   -2.5611    1.0978 C   0  0  0  0  0  0  0  0  0  0  0  0
    4.4816   -2.8279    1.0705 C   0  0  1  0  0  0  0  0  0  0  0  0
    5.6015   -1.0252    4.7414 H   0  0  0  0  0  0  0  0  0  0  0  0
    4.1971   -0.3249    3.9144 H   0  0  0  0  0  0  0  0  0  0  0  0
    5.7115   -0.5966    3.0462 H   0  0  0  0  0  0  0  0  0  0  0  0
    0.6833   -1.8426    2.8278 H   0  0  0  0  0  0  0  0  0  0  0  0
    2.5565   -1.5554    5.2332 H   0  0  0  0  0  0  0  0  0  0  0  0
    1.5060   -0.2936    4.6521 H   0  0  0  0  0  0  0  0  0  0  0  0
    0.7329   -1.8317    6.5969 H   0  0  0  0  0  0  0  0  0  0  0  0
   -1.6234   -1.6123    6.0277 H   0  0  0  0  0  0  0  0  0  0  0  0
   -1.2329   -1.4731    4.3215 H   0  0  0  0  0  0  0  0  0  0  0  0
   -0.7666   -0.1980    5.4389 H   0  0  0  0  0  0  0  0  0  0  0  0
    2.7862   -5.7442    1.8755 H   0  0  0  0  0  0  0  0  0  0  0  0
    4.1948   -5.9532   -0.4779 H   0  0  0  0  0  0  0  0  0  0  0  0
    5.9642   -3.8407   -1.3823 H   0  0  0  0  0  0  0  0  0  0  0  0
    4.8075   -4.6641   -2.3672 H   0  0  0  0  0  0  0  0  0  0  0  0
    3.9674   -1.0165   -2.8678 H   0  0  0  0  0  0  0  0  0  0  0  0
    4.3907   -2.5071   -3.6862 H   0  0  0  0  0  0  0  0  0  0  0  0
    5.5826   -1.7219   -2.6928 H   0  0  0  0  0  0  0  0  0  0  0  0
    1.9823   -2.3330   -2.0866 H   0  0  0  0  0  0  0  0  0  0  0  0
    2.1416   -3.7344   -1.0375 H   0  0  0  0  0  0  0  0  0  0  0  0
    2.5443   -3.8480   -2.7446 H   0  0  0  0  0  0  0  0  0  0  0  0
    3.0060   -1.5587   -0.0335 H   0  0  0  0  0  0  0  0  0  0  0  0
    5.1460   -0.2823   -1.0209 H   0  0  0  0  0  0  0  0  0  0  0  0
    4.2327   -0.3748    1.5879 H   0  0  0  0  0  0  0  0  0  0  0  0
    6.5854   -3.4053    0.7150 H   0  0  0  0  0  0  0  0  0  0  0  0
    6.4627   -2.4299    2.0745 H   0  0  0  0  0  0  0  0  0  0  0  0
  1  2  1  0
  1 28  1  0
  1 29  1  0
  1 30  1  0
  3  2  1  1
  3 14  1  0
  3 27  1  0
  3  4  1  0
  4  5  1  0
  5 13  1  0
  5  6  1  0
  5 31  1  6
  6  7  1  0
  6 32  1  0
  6 33  1  0
  7  8  1  0
  7  9  1  0
  7 34  1  1
  8 35  1  0
  8 36  1  0
  8 37  1  0
  9 10  2  0
  9 11  1  0
 11 12  1  0
 11 13  2  0
 13 14  1  0
 14 15  2  0
 15 16  1  0
 15 38  1  0
 16 27  1  0
 16 17  2  0
 17 18  1  0
 17 39  1  0
 18 19  1  0
 18 40  1  0
 18 41  1  0
 19 20  1  0
 19 21  1  0
 19 22  1  0
 20 42  1  0
 20 43  1  0
 20 44  1  0
 21 45  1  0
 21 46  1  0
 21 47  1  0
 22 27  1  0
 22 23  1  0
 22 48  1  1
 23 24  1  0
 23 25  1  0
 23 49  1  6
 24 50  1  0
 25 26  1  0
 27 26  1  1
 26 51  1  0
 26 52  1  0
M  CHG  1  12  -1
M  END
>  <i_m_ct_stereo_status>  (202) 
1

>  <s_m_source_file>  (202) 
/var/tmp/pbs.5076255.sched01/tmpnx1894nc/68p53si2vm.sdf

>  <i_m_source_file_index>  (202) 
12

>  <i_lp_mmshare_version>  (202) 
48012

>  <i_f3d_flags>  (202) 
0

>  <s_epik_input>  (202) 
W09IXUM9MUMoPU8pW0NASF0oW0NIM10pW0NIMl1bQ0BASF0oTzIpQzFDKFtDQF0yKFtDQEBdMzQ1KU9bQ0gzXSk9W0NIXUMzPVtDSF1bQ0gyXUMoW0NIM10pKFtDSDNdKVtDQEBIXTRbQ0BASF0oW09IXSlPW0NIMl01

>  <s_epik_cmdline>  (202) 
J2VwaWtfcHl0aG9uJywgJy1waHQnLCAnMi4wJywgJy1waCcsICc3LjAnLCAnLXRuJywgJzgnLCAnLW1hJywgJzIwMCcsICctaW1hZScsICc8aW5maWxlLm1hZT4nLCAnLW9tYWUnLCAnPG91dGZpbGUubWFlPic=

>  <r_epik_Ionization_Penalty>  (202) 
1.68742

>  <r_epik_Ionization_Penalty_Charging>  (202) 
1.68742

>  <r_epik_Ionization_Penalty_Neutral>  (202) 
3.00486e-07

>  <r_epik_State_Penalty>  (202) 
1.79235

>  <r_epik_Charging_Adjusted_Penalty>  (202) 
3.47977

>  <i_epik_Tot_Q>  (202) 
-1

>  <i_epik_Tot_abs_Q>  (202) 
1

>  <s_epik_Chemistry_Notes>  (202) 
This compound contains an acetal/aminal-like group ( X-CH(R)-Y where X, Y are N, S, or O) that may be acid/base labile, releasing an aldehyde.

>  <s_lp_Force_Field>  (202) 
OPLS3e

>  <r_lp_Energy>  (202) 
60.0714

>  <b_lp_Chiralities_Consistent>  (202) 
1

>  <s_lp_Variant>  (202) 
60:0-2

>  <s_i_glide_gridfile>  (202) 
pfpi4k_grid

>  <i_i_glide_lignum>  (202) 
12

>  <i_i_glide_rotatable_bonds>  (202) 
2

>  <r_i_docking_score>  (202) 
-2.31576

>  <r_i_glide_ligand_efficiency>  (202) 
-0.0857688

>  <r_i_glide_ligand_efficiency_sa>  (202) 
-0.257307

>  <r_i_glide_ligand_efficiency_ln>  (202) 
-0.53907

>  <r_i_glide_gscore>  (202) 
-2.31576

>  <r_i_glide_lipo>  (202) 
-0.370409

>  <r_i_glide_hbond>  (202) 
0

>  <r_i_glide_metal>  (202) 
-0

>  <r_i_glide_rewards>  (202) 
-0.863411

>  <r_i_glide_evdw>  (202) 
-22.0826

>  <r_i_glide_ecoul>  (202) 
0.182327

>  <r_i_glide_erotb>  (202) 
0

>  <r_i_glide_esite>  (202) 
-0.00515623

>  <r_i_glide_emodel>  (202) 
-26.3001

>  <r_i_glide_energy>  (202) 
-21.9003

>  <r_i_glide_einternal>  (202) 
0.100959

>  <r_i_glide_intrahb_reward>  (202) 
-0

>  <i_i_glide_confnum>  (202) 
1

>  <i_i_glide_posenum>  (202) 
34

>  <r_i_glide_eff_state_penalty>  (202) 
0

>  <ligand_id>  (202) 
60

>  <original_smiles>  (202) 
COC12OC3CC(C)C(=O)C(O)=C3C1=CC1=CCC(C)(C)C3C(O)OCC132

>  <smiles>  (202) 
[H]OC1([H])OC([H])([H])C23C(=C([H])C([H])([H])C(C([H])([H])[H])(C([H])([H])[H])C12[H])C([H])=C1C2=C([O-])C(=O)C([H])(C([H])([H])[H])C([H])([H])C2([H])OC13OC([H])([H])[H]

$$$$
61:0:0
     RDKit          3D

 79 86  0  0  1  0  0  0  0  0999 V2000
    7.5345   -8.8070    3.3293 C   0  0  0  0  0  0  0  0  0  0  0  0
    6.2098   -8.2707    2.9579 N   0  0  2  0  0  0  0  0  0  0  0  0
    5.6079   -8.9795    1.8050 C   0  0  0  0  0  0  0  0  0  0  0  0
    4.6468   -7.9888    1.1141 C   0  0  0  0  0  0  0  0  0  0  0  0
    4.8340   -6.6412    1.8398 C   0  0  1  0  0  0  0  0  0  0  0  0
    5.1289   -5.4278    0.8920 C   0  0  1  0  0  0  0  0  0  0  0  0
    4.3666   -5.0541   -0.3762 C   0  0  0  0  0  0  0  0  0  0  0  0
    5.1037   -3.8682   -1.0796 C   0  0  0  0  0  0  0  0  0  0  0  0
    5.8844   -2.8911   -0.1416 C   0  0  1  0  0  0  0  0  0  0  0  0
    5.2171   -1.6085    0.3473 C   0  0  0  0  0  0  0  0  0  0  0  0
    5.6512   -1.8542    1.7130 O   0  0  0  0  0  0  0  0  0  0  0  0
    6.0441   -3.2054    1.3591 C   0  0  1  0  0  0  0  0  0  0  0  0
    5.0239   -4.2336    1.8156 C   0  0  2  0  0  0  0  0  0  0  0  0
    4.9055   -4.8970    3.2148 C   0  0  2  0  0  0  0  0  0  0  0  0
    4.5248   -3.9271    4.1719 O   0  0  0  0  0  0  0  0  0  0  0  0
    6.1743   -5.6995    3.6101 C   0  0  1  0  0  0  0  0  0  0  0  0
    6.0871   -6.1487    5.0666 C   0  0  0  0  0  0  0  0  0  0  0  0
    4.8635   -7.0322    5.3294 C   0  0  0  0  0  0  0  0  0  0  0  0
    3.6138   -6.8137    4.4066 C   0  0  2  0  0  0  0  0  0  0  0  0
    2.4609   -7.9291    4.5161 C   0  0  2  0  0  0  0  0  0  0  0  0
    2.2215   -8.1255    6.0476 C   0  0  0  0  0  0  0  0  0  0  0  0
    2.8533   -9.3122    3.8901 C   0  0  1  0  0  0  0  0  0  0  0  0
    3.9567   -9.9237    4.5229 O   0  0  0  0  0  0  0  0  0  0  0  0
    1.7257  -10.3578    3.8185 C   0  0  0  0  0  0  0  0  0  0  0  0
    0.4745   -9.8078    3.1274 C   0  0  0  0  0  0  0  0  0  0  0  0
   -0.0588   -8.5146    3.7755 C   0  0  0  0  0  0  0  0  0  0  0  0
   -1.3236   -8.0975    2.9734 C   0  0  0  0  0  0  0  0  0  0  0  0
   -0.6226   -8.8020    5.1943 C   0  0  0  0  0  0  0  0  0  0  0  0
    1.1162   -7.4314    3.7955 C   0  0  2  0  0  0  0  0  0  0  0  0
    1.4664   -6.8394    2.3797 C   0  0  1  0  0  0  0  0  0  0  0  0
    0.3691   -6.3287    1.6394 O   0  0  0  0  0  0  0  0  0  0  0  0
    2.4725   -5.6967    2.5344 C   0  0  0  0  0  0  0  0  0  0  0  0
    2.1015   -4.5252    2.4505 O   0  0  0  0  0  0  0  0  0  0  0  0
    3.8899   -6.0859    3.0086 C   0  0  2  0  0  0  0  0  0  0  0  0
    6.1842   -6.8400    2.5607 C   0  0  1  0  0  0  0  0  0  0  0  0
    8.2417   -8.6955    2.5047 H   0  0  0  0  0  0  0  0  0  0  0  0
    7.4471   -9.8703    3.5717 H   0  0  0  0  0  0  0  0  0  0  0  0
    7.9540   -8.3039    4.2009 H   0  0  0  0  0  0  0  0  0  0  0  0
    6.3863   -9.2511    1.0874 H   0  0  0  0  0  0  0  0  0  0  0  0
    5.1189   -9.9107    2.0978 H   0  0  0  0  0  0  0  0  0  0  0  0
    4.9674   -7.8915    0.0761 H   0  0  0  0  0  0  0  0  0  0  0  0
    3.6226   -8.3393    1.0455 H   0  0  0  0  0  0  0  0  0  0  0  0
    6.1461   -5.5372    0.5165 H   0  0  0  0  0  0  0  0  0  0  0  0
    4.3298   -5.9171   -1.0351 H   0  0  0  0  0  0  0  0  0  0  0  0
    3.3358   -4.7668   -0.1515 H   0  0  0  0  0  0  0  0  0  0  0  0
    5.8139   -4.2973   -1.7826 H   0  0  0  0  0  0  0  0  0  0  0  0
    4.3964   -3.3249   -1.7067 H   0  0  0  0  0  0  0  0  0  0  0  0
    6.8551   -2.6238   -0.5614 H   0  0  0  0  0  0  0  0  0  0  0  0
    5.6525   -0.7046   -0.0876 H   0  0  0  0  0  0  0  0  0  0  0  0
    4.1284   -1.6244    0.2496 H   0  0  0  0  0  0  0  0  0  0  0  0
    7.0818   -3.4313    1.6098 H   0  0  0  0  0  0  0  0  0  0  0  0
    4.0859   -3.7240    1.6407 H   0  0  0  0  0  0  0  0  0  0  0  0
    3.7521   -3.4867    3.8454 H   0  0  0  0  0  0  0  0  0  0  0  0
    7.0525   -5.0711    3.4851 H   0  0  0  0  0  0  0  0  0  0  0  0
    6.9963   -6.6653    5.3713 H   0  0  0  0  0  0  0  0  0  0  0  0
    6.0458   -5.2683    5.7112 H   0  0  0  0  0  0  0  0  0  0  0  0
    5.1904   -8.0652    5.3550 H   0  0  0  0  0  0  0  0  0  0  0  0
    4.5862   -6.8143    6.3623 H   0  0  0  0  0  0  0  0  0  0  0  0
    3.1436   -5.9949    4.9584 H   0  0  0  0  0  0  0  0  0  0  0  0
    1.6248   -8.9937    6.2869 H   0  0  0  0  0  0  0  0  0  0  0  0
    1.7532   -7.2509    6.5016 H   0  0  0  0  0  0  0  0  0  0  0  0
    3.1294   -8.3351    6.6073 H   0  0  0  0  0  0  0  0  0  0  0  0
    3.1460   -9.1495    2.8706 H   0  0  0  0  0  0  0  0  0  0  0  0
    4.0027  -10.8267    4.2425 H   0  0  0  0  0  0  0  0  0  0  0  0
    2.0694  -11.2197    3.2456 H   0  0  0  0  0  0  0  0  0  0  0  0
    1.4861  -10.7531    4.8038 H   0  0  0  0  0  0  0  0  0  0  0  0
    0.7190   -9.6151    2.0822 H   0  0  0  0  0  0  0  0  0  0  0  0
   -0.3036  -10.5710    3.1125 H   0  0  0  0  0  0  0  0  0  0  0  0
   -1.6455   -7.0846    3.2237 H   0  0  0  0  0  0  0  0  0  0  0  0
   -2.1705   -8.7591    3.1674 H   0  0  0  0  0  0  0  0  0  0  0  0
   -1.1820   -8.1836    1.8975 H   0  0  0  0  0  0  0  0  0  0  0  0
   -0.4910   -7.9618    5.8763 H   0  0  0  0  0  0  0  0  0  0  0  0
   -0.1984   -9.6979    5.6472 H   0  0  0  0  0  0  0  0  0  0  0  0
   -1.6909   -9.0170    5.1907 H   0  0  0  0  0  0  0  0  0  0  0  0
    0.7359   -6.5900    4.3808 H   0  0  0  0  0  0  0  0  0  0  0  0
    1.8977   -7.6205    1.7624 H   0  0  0  0  0  0  0  0  0  0  0  0
   -0.1786   -7.0685    1.4155 H   0  0  0  0  0  0  0  0  0  0  0  0
    7.0454   -6.7047    1.9053 H   0  0  0  0  0  0  0  0  0  0  0  0
    5.5689   -8.3847    3.7340 H   0  0  0  0  0  0  0  0  0  0  0  0
  1  2  1  0
  1 36  1  0
  1 37  1  0
  1 38  1  0
  2 35  1  0
  2  3  1  0
  2 79  1  1
  3  4  1  0
  3 39  1  0
  3 40  1  0
  5  4  1  6
  4 41  1  0
  4 42  1  0
  5 34  1  0
  5 35  1  0
  5  6  1  0
  6 13  1  0
  6  7  1  0
  6 43  1  6
  7  8  1  0
  7 44  1  0
  7 45  1  0
  8  9  1  0
  8 46  1  0
  8 47  1  0
  9 12  1  0
  9 10  1  0
  9 48  1  6
 10 11  1  0
 10 49  1  0
 10 50  1  0
 11 12  1  0
 12 13  1  0
 12 51  1  6
 13 14  1  0
 13 52  1  6
 14 34  1  0
 14 15  1  1
 14 16  1  0
 15 53  1  0
 16 17  1  0
 16 35  1  0
 16 54  1  1
 17 18  1  0
 17 55  1  0
 17 56  1  0
 18 19  1  0
 18 57  1  0
 18 58  1  0
 19 34  1  0
 19 20  1  0
 19 59  1  1
 20 29  1  0
 20 21  1  1
 20 22  1  0
 21 60  1  0
 21 61  1  0
 21 62  1  0
 22 23  1  0
 22 24  1  0
 22 63  1  6
 23 64  1  0
 24 25  1  0
 24 65  1  0
 24 66  1  0
 25 26  1  0
 25 67  1  0
 25 68  1  0
 26 27  1  0
 26 28  1  0
 26 29  1  0
 27 69  1  0
 27 70  1  0
 27 71  1  0
 28 72  1  0
 28 73  1  0
 28 74  1  0
 29 30  1  0
 29 75  1  1
 30 31  1  0
 30 32  1  0
 30 76  1  6
 31 77  1  0
 32 33  2  0
 34 32  1  6
 35 78  1  6
M  CHG  1   2   1
M  END
>  <i_m_ct_stereo_status>  (203) 
1

>  <s_m_source_file>  (203) 
/var/tmp/pbs.5076255.sched01/tmpnx1894nc/68p53si2vm.sdf

>  <i_m_source_file_index>  (203) 
13

>  <i_lp_mmshare_version>  (203) 
48012

>  <i_f3d_flags>  (203) 
0

>  <s_epik_input>  (203) 
W0NIMl0xT1tDQEBIXTJbQ0BIXTFbQ0gyXVtDSDJdW0NASF0zW0NASF0yW0NAQF0oW09IXSkoW0NAQF00NVtDQF0zNjcpW0NASF0oW0NASF03TihbQ0gzXSlbQ0gyXVtDSDJdNilbQ0gyXVtDSDJdW0NAQEhdNFtDQEBdOChbQ0gzXSlbQ0BASF0oW0NAQEhdKFtPSF0pQzU9TylDKFtDSDNdKShbQ0gzXSlbQ0gyXVtDSDJdW0NAQEhdOFtPSF0=

>  <s_epik_cmdline>  (203) 
J2VwaWtfcHl0aG9uJywgJy1waHQnLCAnMi4wJywgJy1waCcsICc3LjAnLCAnLXRuJywgJzgnLCAnLW1hJywgJzIwMCcsICctaW1hZScsICc8aW5maWxlLm1hZT4nLCAnLW9tYWUnLCAnPG91dGZpbGUubWFlPic=

>  <r_epik_Ionization_Penalty>  (203) 
0.000967269

>  <r_epik_Ionization_Penalty_Charging>  (203) 
0.000966377

>  <r_epik_Ionization_Penalty_Neutral>  (203) 
8.9164e-07

>  <r_epik_State_Penalty>  (203) 
0.000628501

>  <r_epik_Charging_Adjusted_Penalty>  (203) 
0.00159488

>  <i_epik_Tot_Q>  (203) 
1

>  <i_epik_Tot_abs_Q>  (203) 
1

>  <s_lp_Force_Field>  (203) 
OPLS3e

>  <r_lp_Energy>  (203) 
140.29

>  <b_lp_Chiralities_Consistent>  (203) 
1

>  <s_lp_Variant>  (203) 
61:0-1

>  <s_i_glide_gridfile>  (203) 
pfpi4k_grid

>  <i_i_glide_lignum>  (203) 
13

>  <i_i_glide_rotatable_bonds>  (203) 
3

>  <r_i_docking_score>  (203) 
-3.34753

>  <r_i_glide_ligand_efficiency>  (203) 
-0.0956439

>  <r_i_glide_ligand_efficiency_sa>  (203) 
-0.312857

>  <r_i_glide_ligand_efficiency_ln>  (203) 
-0.734858

>  <r_i_glide_gscore>  (203) 
-3.34753

>  <r_i_glide_lipo>  (203) 
-0.439358

>  <r_i_glide_hbond>  (203) 
0

>  <r_i_glide_metal>  (203) 
-0

>  <r_i_glide_rewards>  (203) 
-1.09093

>  <r_i_glide_evdw>  (203) 
-21.936

>  <r_i_glide_ecoul>  (203) 
-4.74975

>  <r_i_glide_erotb>  (203) 
0

>  <r_i_glide_esite>  (203) 
-0.0079817

>  <r_i_glide_emodel>  (203) 
-43.0752

>  <r_i_glide_energy>  (203) 
-26.6858

>  <r_i_glide_einternal>  (203) 
0.52346

>  <r_i_glide_intrahb_reward>  (203) 
-1

>  <i_i_glide_confnum>  (203) 
1

>  <i_i_glide_posenum>  (203) 
36

>  <r_i_glide_eff_state_penalty>  (203) 
0

>  <ligand_id>  (203) 
61

>  <original_smiles>  (203) 
CN1CCC23C4CCC5COC5C4C4(O)C(CCC5C6(C)C(O)CCC(C)(C)C6C(O)C(=O)C542)C13

>  <smiles>  (203) 
[H]OC1([H])C(=O)C23C([H])(C([H])([H])C([H])([H])C4([H])C2(O[H])C2([H])C5([H])OC([H])([H])C5([H])C([H])([H])C([H])([H])C2([H])C32C([H])([H])C([H])([H])[N+]([H])(C([H])([H])[H])C42[H])C2(C([H])([H])[H])C([H])(O[H])C([H])([H])C([H])([H])C(C([H])([H])[H])(C([H])([H])[H])C12[H]

$$$$
61:0:1
     RDKit          3D

 79 86  0  0  1  0  0  0  0  0999 V2000
    7.5624   -8.8042    3.3285 C   0  0  0  0  0  0  0  0  0  0  0  0
    6.2344   -8.2741    2.9559 N   0  0  2  0  0  0  0  0  0  0  0  0
    5.6288   -8.9948    1.8125 C   0  0  0  0  0  0  0  0  0  0  0  0
    4.6662   -8.0108    1.1160 C   0  0  0  0  0  0  0  0  0  0  0  0
    4.8533   -6.6553    1.8303 C   0  0  1  0  0  0  0  0  0  0  0  0
    5.1428   -5.4489    0.8722 C   0  0  1  0  0  0  0  0  0  0  0  0
    4.3781   -5.0872   -0.3973 C   0  0  0  0  0  0  0  0  0  0  0  0
    5.1077   -3.9046   -1.1104 C   0  0  0  0  0  0  0  0  0  0  0  0
    5.8939   -2.9196   -0.1860 C   0  0  1  0  0  0  0  0  0  0  0  0
    5.2250   -1.6350    0.2925 C   0  0  0  0  0  0  0  0  0  0  0  0
    5.6613   -1.8670    1.6600 O   0  0  0  0  0  0  0  0  0  0  0  0
    6.0560   -3.2200    1.3179 C   0  0  1  0  0  0  0  0  0  0  0  0
    5.0395   -4.2465    1.7848 C   0  0  2  0  0  0  0  0  0  0  0  0
    4.9258   -4.9002    3.1896 C   0  0  2  0  0  0  0  0  0  0  0  0
    4.5435   -3.9231    4.1403 O   0  0  0  0  0  0  0  0  0  0  0  0
    6.1966   -5.6972    3.5870 C   0  0  1  0  0  0  0  0  0  0  0  0
    6.1141   -6.1331    5.0484 C   0  0  0  0  0  0  0  0  0  0  0  0
    4.8925   -7.0164    5.3228 C   0  0  0  0  0  0  0  0  0  0  0  0
    3.6390   -6.8086    4.4019 C   0  0  2  0  0  0  0  0  0  0  0  0
    2.4867   -7.9240    4.5271 C   0  0  2  0  0  0  0  0  0  0  0  0
    2.2516   -8.1082    6.0600 C   0  0  0  0  0  0  0  0  0  0  0  0
    2.8819   -9.3125    3.9190 C   0  0  1  0  0  0  0  0  0  0  0  0
    3.9664   -9.9263    4.5817 O   0  0  0  0  0  0  0  0  0  0  0  0
    1.7568  -10.3606    3.8432 C   0  0  0  0  0  0  0  0  0  0  0  0
    0.5036   -9.8178    3.1503 C   0  0  0  0  0  0  0  0  0  0  0  0
   -0.0315   -8.5223    3.7926 C   0  0  0  0  0  0  0  0  0  0  0  0
   -1.2984   -8.1135    2.9877 C   0  0  0  0  0  0  0  0  0  0  0  0
   -0.5938   -8.8003    5.2148 C   0  0  0  0  0  0  0  0  0  0  0  0
    1.1412   -7.4359    3.8006 C   0  0  2  0  0  0  0  0  0  0  0  0
    1.4875   -6.8543    2.3794 C   0  0  1  0  0  0  0  0  0  0  0  0
    0.3884   -6.3508    1.6354 O   0  0  0  0  0  0  0  0  0  0  0  0
    2.4925   -5.7102    2.5224 C   0  0  0  0  0  0  0  0  0  0  0  0
    2.1198   -4.5389    2.4275 O   0  0  0  0  0  0  0  0  0  0  0  0
    3.9113   -6.0922    2.9963 C   0  0  2  0  0  0  0  0  0  0  0  0
    6.2040   -6.8465    2.5486 C   0  0  1  0  0  0  0  0  0  0  0  0
    8.2680   -8.6894    2.5044 H   0  0  0  0  0  0  0  0  0  0  0  0
    7.4800   -9.8660    3.5741 H   0  0  0  0  0  0  0  0  0  0  0  0
    7.9794   -8.2954    4.1958 H   0  0  0  0  0  0  0  0  0  0  0  0
    6.4058   -9.2721    1.0967 H   0  0  0  0  0  0  0  0  0  0  0  0
    5.1425   -9.9228    2.1186 H   0  0  0  0  0  0  0  0  0  0  0  0
    4.9846   -7.9194    0.0775 H   0  0  0  0  0  0  0  0  0  0  0  0
    3.6425   -8.3631    1.0537 H   0  0  0  0  0  0  0  0  0  0  0  0
    6.1598   -5.5598    0.4951 H   0  0  0  0  0  0  0  0  0  0  0  0
    4.3439   -5.9547   -1.0505 H   0  0  0  0  0  0  0  0  0  0  0  0
    3.3473   -4.8017   -0.1737 H   0  0  0  0  0  0  0  0  0  0  0  0
    5.8095   -4.3412   -1.8158 H   0  0  0  0  0  0  0  0  0  0  0  0
    4.4014   -3.3695   -1.7436 H   0  0  0  0  0  0  0  0  0  0  0  0
    6.8615   -2.6545   -0.6114 H   0  0  0  0  0  0  0  0  0  0  0  0
    5.6570   -0.7338   -0.1509 H   0  0  0  0  0  0  0  0  0  0  0  0
    4.1361   -1.6525    0.1974 H   0  0  0  0  0  0  0  0  0  0  0  0
    7.0941   -3.4414    1.5691 H   0  0  0  0  0  0  0  0  0  0  0  0
    4.1007   -3.7394    1.6072 H   0  0  0  0  0  0  0  0  0  0  0  0
    3.7624   -3.4952    3.8175 H   0  0  0  0  0  0  0  0  0  0  0  0
    7.0729   -5.0696    3.4549 H   0  0  0  0  0  0  0  0  0  0  0  0
    7.0247   -6.6461    5.3558 H   0  0  0  0  0  0  0  0  0  0  0  0
    6.0750   -5.2464    5.6856 H   0  0  0  0  0  0  0  0  0  0  0  0
    5.2234   -8.0478    5.3548 H   0  0  0  0  0  0  0  0  0  0  0  0
    4.6170   -6.7894    6.3528 H   0  0  0  0  0  0  0  0  0  0  0  0
    3.1686   -5.9851    4.9465 H   0  0  0  0  0  0  0  0  0  0  0  0
    1.6546   -8.9747    6.3083 H   0  0  0  0  0  0  0  0  0  0  0  0
    1.7849   -7.2301    6.5067 H   0  0  0  0  0  0  0  0  0  0  0  0
    3.1620   -8.3084    6.6199 H   0  0  0  0  0  0  0  0  0  0  0  0
    3.1904   -9.1532    2.9030 H   0  0  0  0  0  0  0  0  0  0  0  0
    3.6303  -10.3693    5.3486 H   0  0  0  0  0  0  0  0  0  0  0  0
    2.1082  -11.2241    3.2761 H   0  0  0  0  0  0  0  0  0  0  0  0
    1.5111  -10.7530    4.8274 H   0  0  0  0  0  0  0  0  0  0  0  0
    0.7446   -9.6313    2.1033 H   0  0  0  0  0  0  0  0  0  0  0  0
   -0.2721  -10.5838    3.1416 H   0  0  0  0  0  0  0  0  0  0  0  0
   -1.6214   -7.0993    3.2300 H   0  0  0  0  0  0  0  0  0  0  0  0
   -2.1438   -8.7753    3.1886 H   0  0  0  0  0  0  0  0  0  0  0  0
   -1.1587   -8.2079    1.9113 H   0  0  0  0  0  0  0  0  0  0  0  0
   -0.4570   -7.9559    5.8895 H   0  0  0  0  0  0  0  0  0  0  0  0
   -0.1772   -9.6959    5.6717 H   0  0  0  0  0  0  0  0  0  0  0  0
   -1.6625   -9.0099    5.2143 H   0  0  0  0  0  0  0  0  0  0  0  0
    0.7588   -6.5903    4.3786 H   0  0  0  0  0  0  0  0  0  0  0  0
    1.9201   -7.6393    1.7679 H   0  0  0  0  0  0  0  0  0  0  0  0
   -0.1513   -7.0941    1.4076 H   0  0  0  0  0  0  0  0  0  0  0  0
    7.0633   -6.7162    1.8902 H   0  0  0  0  0  0  0  0  0  0  0  0
    5.5940   -8.3904    3.7348 H   0  0  0  0  0  0  0  0  0  0  0  0
  1  2  1  0
  1 36  1  0
  1 37  1  0
  1 38  1  0
  2 35  1  0
  2  3  1  0
  2 79  1  1
  3  4  1  0
  3 39  1  0
  3 40  1  0
  5  4  1  6
  4 41  1  0
  4 42  1  0
  5 34  1  0
  5 35  1  0
  5  6  1  0
  6 13  1  0
  6  7  1  0
  6 43  1  6
  7  8  1  0
  7 44  1  0
  7 45  1  0
  8  9  1  0
  8 46  1  0
  8 47  1  0
  9 12  1  0
  9 10  1  0
  9 48  1  6
 10 11  1  0
 10 49  1  0
 10 50  1  0
 11 12  1  0
 12 13  1  0
 12 51  1  6
 13 14  1  0
 13 52  1  6
 14 34  1  0
 14 15  1  1
 14 16  1  0
 15 53  1  0
 16 17  1  0
 16 35  1  0
 16 54  1  1
 17 18  1  0
 17 55  1  0
 17 56  1  0
 18 19  1  0
 18 57  1  0
 18 58  1  0
 19 34  1  0
 19 20  1  0
 19 59  1  1
 20 29  1  0
 20 21  1  1
 20 22  1  0
 21 60  1  0
 21 61  1  0
 21 62  1  0
 22 23  1  0
 22 24  1  0
 22 63  1  6
 23 64  1  0
 24 25  1  0
 24 65  1  0
 24 66  1  0
 25 26  1  0
 25 67  1  0
 25 68  1  0
 26 27  1  0
 26 28  1  0
 26 29  1  0
 27 69  1  0
 27 70  1  0
 27 71  1  0
 28 72  1  0
 28 73  1  0
 28 74  1  0
 29 30  1  0
 29 75  1  1
 30 31  1  0
 30 32  1  0
 30 76  1  6
 31 77  1  0
 32 33  2  0
 34 32  1  6
 35 78  1  6
M  CHG  1   2   1
M  END
>  <i_m_ct_stereo_status>  (204) 
1

>  <s_m_source_file>  (204) 
/var/tmp/pbs.5076255.sched01/tmpnx1894nc/68p53si2vm.sdf

>  <i_m_source_file_index>  (204) 
13

>  <i_lp_mmshare_version>  (204) 
48012

>  <i_f3d_flags>  (204) 
0

>  <s_epik_input>  (204) 
W0NIMl0xT1tDQEBIXTJbQ0BIXTFbQ0gyXVtDSDJdW0NASF0zW0NASF0yW0NAQF0oW09IXSkoW0NAQF00NVtDQF0zNjcpW0NASF0oW0NASF03TihbQ0gzXSlbQ0gyXVtDSDJdNilbQ0gyXVtDSDJdW0NAQEhdNFtDQEBdOChbQ0gzXSlbQ0BASF0oW0NAQEhdKFtPSF0pQzU9TylDKFtDSDNdKShbQ0gzXSlbQ0gyXVtDSDJdW0NAQEhdOFtPSF0=

>  <s_epik_cmdline>  (204) 
J2VwaWtfcHl0aG9uJywgJy1waHQnLCAnMi4wJywgJy1waCcsICc3LjAnLCAnLXRuJywgJzgnLCAnLW1hJywgJzIwMCcsICctaW1hZScsICc8aW5maWxlLm1hZT4nLCAnLW9tYWUnLCAnPG91dGZpbGUubWFlPic=

>  <r_epik_Ionization_Penalty>  (204) 
0.000967269

>  <r_epik_Ionization_Penalty_Charging>  (204) 
0.000966377

>  <r_epik_Ionization_Penalty_Neutral>  (204) 
8.9164e-07

>  <r_epik_State_Penalty>  (204) 
0.000628501

>  <r_epik_Charging_Adjusted_Penalty>  (204) 
0.00159488

>  <i_epik_Tot_Q>  (204) 
1

>  <i_epik_Tot_abs_Q>  (204) 
1

>  <s_lp_Force_Field>  (204) 
OPLS3e

>  <r_lp_Energy>  (204) 
140.29

>  <b_lp_Chiralities_Consistent>  (204) 
1

>  <s_lp_Variant>  (204) 
61:0-1

>  <s_i_glide_gridfile>  (204) 
pfpi4k_grid

>  <i_i_glide_lignum>  (204) 
13

>  <i_i_glide_rotatable_bonds>  (204) 
3

>  <r_i_docking_score>  (204) 
-3.32607

>  <r_i_glide_ligand_efficiency>  (204) 
-0.0950305

>  <r_i_glide_ligand_efficiency_sa>  (204) 
-0.310851

>  <r_i_glide_ligand_efficiency_ln>  (204) 
-0.730146

>  <r_i_glide_gscore>  (204) 
-3.32607

>  <r_i_glide_lipo>  (204) 
-0.420989

>  <r_i_glide_hbond>  (204) 
0

>  <r_i_glide_metal>  (204) 
-0

>  <r_i_glide_rewards>  (204) 
-1.09093

>  <r_i_glide_evdw>  (204) 
-21.9289

>  <r_i_glide_ecoul>  (204) 
-4.73261

>  <r_i_glide_erotb>  (204) 
0

>  <r_i_glide_esite>  (204) 
-0.00780813

>  <r_i_glide_emodel>  (204) 
-43.0551

>  <r_i_glide_energy>  (204) 
-26.6616

>  <r_i_glide_einternal>  (204) 
0.388555

>  <r_i_glide_intrahb_reward>  (204) 
-1

>  <i_i_glide_confnum>  (204) 
2

>  <i_i_glide_posenum>  (204) 
19

>  <r_i_glide_eff_state_penalty>  (204) 
0

>  <ligand_id>  (204) 
61

>  <original_smiles>  (204) 
CN1CCC23C4CCC5COC5C4C4(O)C(CCC5C6(C)C(O)CCC(C)(C)C6C(O)C(=O)C542)C13

>  <smiles>  (204) 
[H]OC1([H])C(=O)C23C([H])(C([H])([H])C([H])([H])C4([H])C2(O[H])C2([H])C5([H])OC([H])([H])C5([H])C([H])([H])C([H])([H])C2([H])C32C([H])([H])C([H])([H])[N+]([H])(C([H])([H])[H])C42[H])C2(C([H])([H])[H])C([H])(O[H])C([H])([H])C([H])([H])C(C([H])([H])[H])(C([H])([H])[H])C12[H]

$$$$
61:0:2
     RDKit          3D

 79 86  0  0  1  0  0  0  0  0999 V2000
    7.4363   -8.8106    3.3449 C   0  0  0  0  0  0  0  0  0  0  0  0
    6.1259   -8.2568    2.9283 N   0  0  2  0  0  0  0  0  0  0  0  0
    5.5639   -8.9528    1.7474 C   0  0  0  0  0  0  0  0  0  0  0  0
    4.6344   -7.9460    1.0357 C   0  0  0  0  0  0  0  0  0  0  0  0
    4.7989   -6.6053    1.7868 C   0  0  1  0  0  0  0  0  0  0  0  0
    5.1349   -5.3817    0.8682 C   0  0  1  0  0  0  0  0  0  0  0  0
    4.4306   -4.9872   -0.4315 C   0  0  0  0  0  0  0  0  0  0  0  0
    5.1971   -3.7944   -1.0867 C   0  0  0  0  0  0  0  0  0  0  0  0
    5.9427   -2.8325   -0.1046 C   0  0  1  0  0  0  0  0  0  0  0  0
    5.2623   -1.5584    0.3769 C   0  0  0  0  0  0  0  0  0  0  0  0
    5.6426   -1.8264    1.7562 O   0  0  0  0  0  0  0  0  0  0  0  0
    6.0394   -3.1732    1.3940 C   0  0  1  0  0  0  0  0  0  0  0  0
    5.0004   -4.1972    1.8016 C   0  0  2  0  0  0  0  0  0  0  0  0
    4.8261   -4.8800    3.1888 C   0  0  2  0  0  0  0  0  0  0  0  0
    4.4231   -3.9253    4.1598 O   0  0  0  0  0  0  0  0  0  0  0  0
    6.0802   -5.6959    3.6146 C   0  0  1  0  0  0  0  0  0  0  0  0
    5.9263   -6.1681    5.0628 C   0  0  0  0  0  0  0  0  0  0  0  0
    4.6869   -7.0466    5.2629 C   0  0  0  0  0  0  0  0  0  0  0  0
    3.4749   -6.8079    4.2946 C   0  0  2  0  0  0  0  0  0  0  0  0
    2.3124   -7.9193    4.3445 C   0  0  2  0  0  0  0  0  0  0  0  0
    2.0097   -8.1365    5.8610 C   0  0  0  0  0  0  0  0  0  0  0  0
    2.7252   -9.2974    3.7244 C   0  0  1  0  0  0  0  0  0  0  0  0
    3.7775   -9.9282    4.4200 O   0  0  0  0  0  0  0  0  0  0  0  0
    1.5996  -10.3370    3.5806 C   0  0  0  0  0  0  0  0  0  0  0  0
    0.3824   -9.7704    2.8476 C   0  0  0  0  0  0  0  0  0  0  0  0
   -0.1737   -8.4823    3.4877 C   0  0  0  0  0  0  0  0  0  0  0  0
   -1.4030   -8.0560    2.6354 C   0  0  0  0  0  0  0  0  0  0  0  0
   -0.8015   -8.7703    4.8758 C   0  0  0  0  0  0  0  0  0  0  0  0
    1.0037   -7.4063    3.5706 C   0  0  2  0  0  0  0  0  0  0  0  0
    1.4166   -6.8017    2.1800 C   0  0  1  0  0  0  0  0  0  0  0  0
    0.3509   -6.2842    1.3966 O   0  0  0  0  0  0  0  0  0  0  0  0
    2.4156   -5.6636    2.3900 C   0  0  0  0  0  0  0  0  0  0  0  0
    2.0505   -4.4944    2.2809 O   0  0  0  0  0  0  0  0  0  0  0  0
    3.8131   -6.0594    2.9225 C   0  0  2  0  0  0  0  0  0  0  0  0
    6.1194   -6.8237    2.5518 C   0  0  1  0  0  0  0  0  0  0  0  0
    8.1817   -8.6964    2.5583 H   0  0  0  0  0  0  0  0  0  0  0  0
    7.3269   -9.8729    3.5680 H   0  0  0  0  0  0  0  0  0  0  0  0
    7.8129   -8.3197    4.2390 H   0  0  0  0  0  0  0  0  0  0  0  0
    6.3648   -9.2150    1.0561 H   0  0  0  0  0  0  0  0  0  0  0  0
    5.0577   -9.8808    2.0103 H   0  0  0  0  0  0  0  0  0  0  0  0
    4.9981   -7.8239    0.0153 H   0  0  0  0  0  0  0  0  0  0  0  0
    3.6105   -8.2899    0.9172 H   0  0  0  0  0  0  0  0  0  0  0  0
    6.1657   -5.4898    0.5308 H   0  0  0  0  0  0  0  0  0  0  0  0
    4.4236   -5.8298   -1.1040 H   0  0  0  0  0  0  0  0  0  0  0  0
    3.3892   -4.7015   -0.2456 H   0  0  0  0  0  0  0  0  0  0  0  0
    5.9247   -4.2365   -1.7635 H   0  0  0  0  0  0  0  0  0  0  0  0
    4.5174   -3.2433   -1.7371 H   0  0  0  0  0  0  0  0  0  0  0  0
    6.9267   -2.5664   -0.4800 H   0  0  0  0  0  0  0  0  0  0  0  0
    5.7201   -0.6478   -0.0252 H   0  0  0  0  0  0  0  0  0  0  0  0
    4.1763   -1.5646    0.2364 H   0  0  0  0  0  0  0  0  0  0  0  0
    7.0704   -3.4120    1.6623 H   0  0  0  0  0  0  0  0  0  0  0  0
    4.0710   -3.6837    1.6019 H   0  0  0  0  0  0  0  0  0  0  0  0
    5.0385   -3.2064    4.1347 H   0  0  0  0  0  0  0  0  0  0  0  0
    6.9750   -5.0807    3.5413 H   0  0  0  0  0  0  0  0  0  0  0  0
    6.8190   -6.6945    5.4013 H   0  0  0  0  0  0  0  0  0  0  0  0
    5.8622   -5.2971    5.7212 H   0  0  0  0  0  0  0  0  0  0  0  0
    5.0090   -8.0799    5.2861 H   0  0  0  0  0  0  0  0  0  0  0  0
    4.3666   -6.8406    6.2849 H   0  0  0  0  0  0  0  0  0  0  0  0
    2.9857   -5.9933    4.8377 H   0  0  0  0  0  0  0  0  0  0  0  0
    1.4003   -9.0057    6.0639 H   0  0  0  0  0  0  0  0  0  0  0  0
    1.5271   -7.2660    6.3059 H   0  0  0  0  0  0  0  0  0  0  0  0
    2.8936   -8.3551    6.4545 H   0  0  0  0  0  0  0  0  0  0  0  0
    3.0769   -9.1194    2.7256 H   0  0  0  0  0  0  0  0  0  0  0  0
    3.4103  -10.3566    5.1825 H   0  0  0  0  0  0  0  0  0  0  0  0
    1.9709  -11.1885    3.0074 H   0  0  0  0  0  0  0  0  0  0  0  0
    1.3103  -10.7507    4.5438 H   0  0  0  0  0  0  0  0  0  0  0  0
    0.6819   -9.5578    1.8232 H   0  0  0  0  0  0  0  0  0  0  0  0
   -0.3977  -10.5280    2.7765 H   0  0  0  0  0  0  0  0  0  0  0  0
   -1.7356   -7.0484    2.8880 H   0  0  0  0  0  0  0  0  0  0  0  0
   -2.2576   -8.7196    2.7837 H   0  0  0  0  0  0  0  0  0  0  0  0
   -1.2148   -8.1295    1.5650 H   0  0  0  0  0  0  0  0  0  0  0  0
   -0.6846   -7.9411    5.5734 H   0  0  0  0  0  0  0  0  0  0  0  0
   -0.3966   -9.6705    5.3344 H   0  0  0  0  0  0  0  0  0  0  0  0
   -1.8696   -8.9798    4.8205 H   0  0  0  0  0  0  0  0  0  0  0  0
    0.5998   -6.5705    4.1495 H   0  0  0  0  0  0  0  0  0  0  0  0
    1.8708   -7.5767    1.5713 H   0  0  0  0  0  0  0  0  0  0  0  0
   -0.1781   -7.0245    1.1337 H   0  0  0  0  0  0  0  0  0  0  0  0
    7.0049   -6.6844    1.9316 H   0  0  0  0  0  0  0  0  0  0  0  0
    5.4508   -8.3885    3.6752 H   0  0  0  0  0  0  0  0  0  0  0  0
  1  2  1  0
  1 36  1  0
  1 37  1  0
  1 38  1  0
  2 35  1  0
  2  3  1  0
  2 79  1  1
  3  4  1  0
  3 39  1  0
  3 40  1  0
  5  4  1  6
  4 41  1  0
  4 42  1  0
  5 34  1  0
  5 35  1  0
  5  6  1  0
  6 13  1  0
  6  7  1  0
  6 43  1  6
  7  8  1  0
  7 44  1  0
  7 45  1  0
  8  9  1  0
  8 46  1  0
  8 47  1  0
  9 12  1  0
  9 10  1  0
  9 48  1  6
 10 11  1  0
 10 49  1  0
 10 50  1  0
 11 12  1  0
 12 13  1  0
 12 51  1  1
 13 14  1  0
 13 52  1  6
 14 34  1  0
 14 15  1  1
 14 16  1  0
 15 53  1  0
 16 17  1  0
 16 35  1  0
 16 54  1  1
 17 18  1  0
 17 55  1  0
 17 56  1  0
 18 19  1  0
 18 57  1  0
 18 58  1  0
 19 34  1  0
 19 20  1  0
 19 59  1  1
 20 29  1  0
 20 21  1  1
 20 22  1  0
 21 60  1  0
 21 61  1  0
 21 62  1  0
 22 23  1  0
 22 24  1  0
 22 63  1  6
 23 64  1  0
 24 25  1  0
 24 65  1  0
 24 66  1  0
 25 26  1  0
 25 67  1  0
 25 68  1  0
 26 27  1  0
 26 28  1  0
 26 29  1  0
 27 69  1  0
 27 70  1  0
 27 71  1  0
 28 72  1  0
 28 73  1  0
 28 74  1  0
 29 30  1  0
 29 75  1  1
 30 31  1  0
 30 32  1  0
 30 76  1  6
 31 77  1  0
 32 33  2  0
 34 32  1  6
 35 78  1  6
M  CHG  1   2   1
M  END
>  <i_m_ct_stereo_status>  (205) 
1

>  <s_m_source_file>  (205) 
/var/tmp/pbs.5076255.sched01/tmpnx1894nc/68p53si2vm.sdf

>  <i_m_source_file_index>  (205) 
13

>  <i_lp_mmshare_version>  (205) 
48012

>  <i_f3d_flags>  (205) 
0

>  <s_epik_input>  (205) 
W0NIMl0xT1tDQEBIXTJbQ0BIXTFbQ0gyXVtDSDJdW0NASF0zW0NASF0yW0NAQF0oW09IXSkoW0NAQF00NVtDQF0zNjcpW0NASF0oW0NASF03TihbQ0gzXSlbQ0gyXVtDSDJdNilbQ0gyXVtDSDJdW0NAQEhdNFtDQEBdOChbQ0gzXSlbQ0BASF0oW0NAQEhdKFtPSF0pQzU9TylDKFtDSDNdKShbQ0gzXSlbQ0gyXVtDSDJdW0NAQEhdOFtPSF0=

>  <s_epik_cmdline>  (205) 
J2VwaWtfcHl0aG9uJywgJy1waHQnLCAnMi4wJywgJy1waCcsICc3LjAnLCAnLXRuJywgJzgnLCAnLW1hJywgJzIwMCcsICctaW1hZScsICc8aW5maWxlLm1hZT4nLCAnLW9tYWUnLCAnPG91dGZpbGUubWFlPic=

>  <r_epik_Ionization_Penalty>  (205) 
0.000967269

>  <r_epik_Ionization_Penalty_Charging>  (205) 
0.000966377

>  <r_epik_Ionization_Penalty_Neutral>  (205) 
8.9164e-07

>  <r_epik_State_Penalty>  (205) 
0.000628501

>  <r_epik_Charging_Adjusted_Penalty>  (205) 
0.00159488

>  <i_epik_Tot_Q>  (205) 
1

>  <i_epik_Tot_abs_Q>  (205) 
1

>  <s_lp_Force_Field>  (205) 
OPLS3e

>  <r_lp_Energy>  (205) 
140.29

>  <b_lp_Chiralities_Consistent>  (205) 
1

>  <s_lp_Variant>  (205) 
61:0-1

>  <s_i_glide_gridfile>  (205) 
pfpi4k_grid

>  <i_i_glide_lignum>  (205) 
13

>  <i_i_glide_rotatable_bonds>  (205) 
3

>  <r_i_docking_score>  (205) 
-2.93235

>  <r_i_glide_ligand_efficiency>  (205) 
-0.0837815

>  <r_i_glide_ligand_efficiency_sa>  (205) 
-0.274055

>  <r_i_glide_ligand_efficiency_ln>  (205) 
-0.643716

>  <r_i_glide_gscore>  (205) 
-2.93235

>  <r_i_glide_lipo>  (205) 
-0.511484

>  <r_i_glide_hbond>  (205) 
0

>  <r_i_glide_metal>  (205) 
-0

>  <r_i_glide_rewards>  (205) 
-0.590932

>  <r_i_glide_evdw>  (205) 
-21.4938

>  <r_i_glide_ecoul>  (205) 
-4.96687

>  <r_i_glide_erotb>  (205) 
0

>  <r_i_glide_esite>  (205) 
-0.0102139

>  <r_i_glide_emodel>  (205) 
-37.0211

>  <r_i_glide_energy>  (205) 
-26.4607

>  <r_i_glide_einternal>  (205) 
0.314445

>  <r_i_glide_intrahb_reward>  (205) 
-0.5

>  <i_i_glide_confnum>  (205) 
2

>  <i_i_glide_posenum>  (205) 
1

>  <r_i_glide_eff_state_penalty>  (205) 
0

>  <ligand_id>  (205) 
61

>  <original_smiles>  (205) 
CN1CCC23C4CCC5COC5C4C4(O)C(CCC5C6(C)C(O)CCC(C)(C)C6C(O)C(=O)C542)C13

>  <smiles>  (205) 
[H]OC1([H])C(=O)C23C([H])(C([H])([H])C([H])([H])C4([H])C2(O[H])C2([H])C5([H])OC([H])([H])C5([H])C([H])([H])C([H])([H])C2([H])C32C([H])([H])C([H])([H])[N+]([H])(C([H])([H])[H])C42[H])C2(C([H])([H])[H])C([H])(O[H])C([H])([H])C([H])([H])C(C([H])([H])[H])(C([H])([H])[H])C12[H]

$$$$
62:0:0
     RDKit          3D

 75 81  0  0  1  0  0  0  0  0999 V2000
   -1.7095   -7.2621    4.2750 C   0  0  0  0  0  0  0  0  0  0  0  0
   -0.8201   -8.0003    3.2761 C   0  0  0  0  0  0  0  0  0  0  0  0
   -1.5858   -9.1083    2.5507 C   0  0  0  0  0  0  0  0  0  0  0  0
   -0.4075   -7.0589    2.3343 O   0  0  0  0  0  0  0  0  0  0  0  0
    0.9593   -7.1789    1.9938 C   0  0  0  0  0  0  0  0  0  0  0  0
    1.8343   -6.9562    3.2579 C   0  0  1  0  0  0  0  0  0  0  0  0
    1.5124   -5.4626    3.6163 C   0  0  0  0  0  0  0  0  0  0  0  0
    1.3340   -7.8666    4.4133 C   0  0  1  0  0  0  0  0  0  0  0  0
    0.2204   -8.6448    3.9618 O   0  0  0  0  0  0  0  0  0  0  0  0
    2.4197   -8.7815    5.0942 C   0  0  1  0  0  0  0  0  0  0  0  0
    1.7768   -9.4551    6.1582 O   0  0  0  0  0  0  0  0  0  0  0  0
    3.2638   -9.8108    4.2627 C   0  0  1  0  0  0  0  0  0  0  0  0
    2.2898  -10.4520    3.2463 C   0  0  0  0  0  0  0  0  0  0  0  0
    1.4791  -11.2866    3.6368 O   0  0  0  0  0  0  0  0  0  0  0  0
    2.3153   -9.9765    1.9512 O   0  0  0  0  0  0  0  0  0  0  0  0
    3.3489   -9.1500    1.3664 C   0  0  0  0  0  0  0  0  0  0  0  0
    4.1242   -8.3693    2.4189 C   0  0  2  0  0  0  0  0  0  0  0  0
    3.3719   -7.0622    2.9657 C   0  0  2  0  0  0  0  0  0  0  0  0
    4.1866   -6.3896    4.1293 C   0  0  0  0  0  0  0  0  0  0  0  0
    5.3904   -7.1876    4.6446 C   0  0  0  0  0  0  0  0  0  0  0  0
    5.7373   -8.3641    3.7345 C   0  0  2  0  0  0  0  0  0  0  0  0
    7.0873   -8.9076    4.2538 C   0  0  0  0  0  0  0  0  0  0  0  0
    5.6410   -8.0541    2.1802 C   0  0  1  0  0  0  0  0  0  0  0  0
    6.3234   -8.9170    1.2778 O   0  0  0  0  0  0  0  0  0  0  0  0
    6.0030   -6.6227    1.7127 C   0  0  0  0  0  0  0  0  0  0  0  0
    7.0841   -5.8819    2.1076 C   0  0  0  0  0  0  0  0  0  0  0  0
    7.1448   -4.6808    1.3303 C   0  0  0  0  0  0  0  0  0  0  0  0
    6.1419   -4.6432    0.4268 C   0  0  0  0  0  0  0  0  0  0  0  0
    5.7472   -3.4745   -0.3827 C   0  0  0  0  0  0  0  0  0  0  0  0
    5.1618   -3.7054   -1.6490 C   0  0  0  0  0  0  0  0  0  0  0  0
    4.7715   -2.6273   -2.4655 C   0  0  0  0  0  0  0  0  0  0  0  0
    4.9203   -1.3072   -2.0071 C   0  0  0  0  0  0  0  0  0  0  0  0
    5.4360   -1.0558   -0.7142 C   0  0  0  0  0  0  0  0  0  0  0  0
    5.8570   -2.1508    0.0926 C   0  0  0  0  0  0  0  0  0  0  0  0
    5.2923   -5.8805    0.5654 C   0  0  0  0  0  0  0  0  0  0  0  0
    4.5744   -9.4113    3.4779 C   0  0  1  0  0  0  0  0  0  0  0  0
    5.1569  -10.8441    3.1247 C   0  0  0  0  0  0  0  0  0  0  0  0
   -1.1782   -6.4377    4.7570 H   0  0  0  0  0  0  0  0  0  0  0  0
   -2.0324   -7.9876    5.0098 H   0  0  0  0  0  0  0  0  0  0  0  0
   -2.5824   -6.8612    3.7675 H   0  0  0  0  0  0  0  0  0  0  0  0
   -0.9119   -9.6290    1.8716 H   0  0  0  0  0  0  0  0  0  0  0  0
   -2.4234   -8.6995    1.9900 H   0  0  0  0  0  0  0  0  0  0  0  0
   -1.9465   -9.8326    3.2783 H   0  0  0  0  0  0  0  0  0  0  0  0
    1.0470   -8.1349    1.5033 H   0  0  0  0  0  0  0  0  0  0  0  0
    1.1881   -6.4333    1.2370 H   0  0  0  0  0  0  0  0  0  0  0  0
    1.8418   -5.1567    4.6065 H   0  0  0  0  0  0  0  0  0  0  0  0
    0.4477   -5.2362    3.6044 H   0  0  0  0  0  0  0  0  0  0  0  0
    1.9706   -4.7874    2.8959 H   0  0  0  0  0  0  0  0  0  0  0  0
    0.9471   -7.2320    5.2179 H   0  0  0  0  0  0  0  0  0  0  0  0
    3.1130   -8.1694    5.6401 H   0  0  0  0  0  0  0  0  0  0  0  0
    1.3183  -10.2132    5.8080 H   0  0  0  0  0  0  0  0  0  0  0  0
    3.5227  -10.6191    4.9492 H   0  0  0  0  0  0  0  0  0  0  0  0
    4.0544   -9.8140    0.8626 H   0  0  0  0  0  0  0  0  0  0  0  0
    2.9712   -8.5146    0.5636 H   0  0  0  0  0  0  0  0  0  0  0  0
    3.3500   -6.3677    2.1457 H   0  0  0  0  0  0  0  0  0  0  0  0
    4.5507   -5.4458    3.7338 H   0  0  0  0  0  0  0  0  0  0  0  0
    3.6096   -6.1184    5.0167 H   0  0  0  0  0  0  0  0  0  0  0  0
    6.2550   -6.5253    4.7526 H   0  0  0  0  0  0  0  0  0  0  0  0
    5.2025   -7.5705    5.6465 H   0  0  0  0  0  0  0  0  0  0  0  0
    7.5298   -9.6370    3.5752 H   0  0  0  0  0  0  0  0  0  0  0  0
    6.9785   -9.4007    5.2218 H   0  0  0  0  0  0  0  0  0  0  0  0
    7.8425   -8.1246    4.3519 H   0  0  0  0  0  0  0  0  0  0  0  0
    5.8947   -9.7558    1.3043 H   0  0  0  0  0  0  0  0  0  0  0  0
    7.8430   -6.2110    2.8057 H   0  0  0  0  0  0  0  0  0  0  0  0
    7.8232   -3.8594    1.5132 H   0  0  0  0  0  0  0  0  0  0  0  0
    5.0222   -4.7171   -1.9858 H   0  0  0  0  0  0  0  0  0  0  0  0
    4.3790   -2.8289   -3.4543 H   0  0  0  0  0  0  0  0  0  0  0  0
    4.6340   -0.4848   -2.6469 H   0  0  0  0  0  0  0  0  0  0  0  0
    5.5339   -0.0561   -0.3450 H   0  0  0  0  0  0  0  0  0  0  0  0
    6.2435   -1.9338    1.0791 H   0  0  0  0  0  0  0  0  0  0  0  0
    5.2756   -6.4715   -0.3494 H   0  0  0  0  0  0  0  0  0  0  0  0
    4.3234   -5.4132    0.7447 H   0  0  0  0  0  0  0  0  0  0  0  0
    6.0970  -10.8745    2.5798 H   0  0  0  0  0  0  0  0  0  0  0  0
    4.4953  -11.4864    2.5392 H   0  0  0  0  0  0  0  0  0  0  0  0
    5.3670  -11.3858    4.0491 H   0  0  0  0  0  0  0  0  0  0  0  0
  1  2  1  0
  1 38  1  0
  1 39  1  0
  1 40  1  0
  2  9  1  0
  2  3  1  0
  2  4  1  0
  3 41  1  0
  3 42  1  0
  3 43  1  0
  4  5  1  0
  5  6  1  0
  5 44  1  0
  5 45  1  0
  6 18  1  0
  6  7  1  1
  6  8  1  0
  7 46  1  0
  7 47  1  0
  7 48  1  0
  8  9  1  0
  8 10  1  0
  8 49  1  1
 10 11  1  0
 10 12  1  0
 10 50  1  1
 11 51  1  0
 12 36  1  0
 12 13  1  0
 12 52  1  1
 13 14  2  0
 13 15  1  0
 15 16  1  0
 17 16  1  6
 16 53  1  0
 16 54  1  0
 17 23  1  0
 17 36  1  0
 17 18  1  0
 18 19  1  0
 18 55  1  6
 19 20  1  0
 19 56  1  0
 19 57  1  0
 20 21  1  0
 20 58  1  0
 20 59  1  0
 21 22  1  6
 21 23  1  0
 21 36  1  0
 22 60  1  0
 22 61  1  0
 22 62  1  0
 23 24  1  6
 23 25  1  0
 24 63  1  0
 25 35  1  0
 25 26  2  0
 26 27  1  0
 26 64  1  0
 27 28  2  0
 27 65  1  0
 28 29  1  0
 28 35  1  0
 29 34  1  0
 29 30  2  0
 30 31  1  0
 30 66  1  0
 31 32  2  0
 31 67  1  0
 32 33  1  0
 32 68  1  0
 33 34  2  0
 33 69  1  0
 34 70  1  0
 35 71  1  0
 35 72  1  0
 36 37  1  6
 37 73  1  0
 37 74  1  0
 37 75  1  0
M  END
>  <i_m_ct_stereo_status>  (206) 
1

>  <s_m_source_file>  (206) 
/var/tmp/pbs.5076255.sched01/tmpnx1894nc/68p53si2vm.sdf

>  <i_m_source_file_index>  (206) 
14

>  <i_lp_mmshare_version>  (206) 
48012

>  <i_f3d_flags>  (206) 
0

>  <s_epik_input>  (206) 
W0NIMl0xT0MoW0NIM10pKFtDSDNdKU9bQ0BIXShbQ0BAXTEoW0NIM10pW0NAQEhdMltDQEBdMzQ1KVtDQEBIXShbT0hdKVtDQEBIXShDKD1PKU9bQ0gyXTMpW0NAXTUoW0NIM10pW0NAXShbQ0gzXSkoW0NIMl1bQ0gyXTIpW0NAXTQoW09IXSlDNj1bQ0hdW0NIXT1DKFtDSDJdNiljN1tjSF1bY0hdW2NIXVtjSF1bY0hdNw==

>  <s_epik_cmdline>  (206) 
J2VwaWtfcHl0aG9uJywgJy1waHQnLCAnMi4wJywgJy1waCcsICc3LjAnLCAnLXRuJywgJzgnLCAnLW1hJywgJzIwMCcsICctaW1hZScsICc8aW5maWxlLm1hZT4nLCAnLW9tYWUnLCAnPG91dGZpbGUubWFlPic=

>  <r_lp_tautomer_probability>  (206) 
1

>  <r_epik_Ionization_Penalty>  (206) 
1.93398e-07

>  <r_epik_Ionization_Penalty_Charging>  (206) 
0

>  <r_epik_Ionization_Penalty_Neutral>  (206) 
1.93398e-07

>  <r_epik_State_Penalty>  (206) 
-0

>  <r_epik_Charging_Adjusted_Penalty>  (206) 
0

>  <i_epik_Tot_Q>  (206) 
0

>  <i_epik_Tot_abs_Q>  (206) 
0

>  <s_epik_Chemistry_Notes>  (206) 
This compound has an ester and may undergo hydrolysis at high or low pH.

>  <s_lp_Force_Field>  (206) 
OPLS3e

>  <r_lp_Energy>  (206) 
128.155

>  <b_lp_Chiralities_Consistent>  (206) 
1

>  <s_lp_Variant>  (206) 
62:0-1

>  <s_i_glide_gridfile>  (206) 
pfpi4k_grid

>  <i_i_glide_lignum>  (206) 
14

>  <i_i_glide_rotatable_bonds>  (206) 
4

>  <r_i_docking_score>  (206) 
-3.4874

>  <r_i_glide_ligand_efficiency>  (206) 
-0.0942541

>  <r_i_glide_ligand_efficiency_sa>  (206) 
-0.314076

>  <r_i_glide_ligand_efficiency_ln>  (206) 
-0.756336

>  <r_i_glide_gscore>  (206) 
-3.4874

>  <r_i_glide_lipo>  (206) 
-0.882907

>  <r_i_glide_hbond>  (206) 
-0.112137

>  <r_i_glide_metal>  (206) 
-0

>  <r_i_glide_rewards>  (206) 
-0.541523

>  <r_i_glide_evdw>  (206) 
-33.7602

>  <r_i_glide_ecoul>  (206) 
-2.41456

>  <r_i_glide_erotb>  (206) 
0.159434

>  <r_i_glide_esite>  (206) 
-0.0600759

>  <r_i_glide_emodel>  (206) 
-43.8802

>  <r_i_glide_energy>  (206) 
-36.1748

>  <r_i_glide_einternal>  (206) 
5.0579

>  <r_i_glide_intrahb_reward>  (206) 
-0.5

>  <i_i_glide_confnum>  (206) 
3

>  <i_i_glide_posenum>  (206) 
7

>  <r_i_glide_eff_state_penalty>  (206) 
0

>  <ligand_id>  (206) 
62

>  <original_smiles>  (206) 
CC1(C)OCC2(C)C(O1)C(O)C1C(=O)OCC34C2CCC(C)(C3(O)C2=CC=C(c3ccccc3)C2)C14C

>  <smiles>  (206) 
[H]OC1([H])C2([H])OC(C([H])([H])[H])(C([H])([H])[H])OC([H])([H])C2(C([H])([H])[H])C2([H])C([H])([H])C([H])([H])C3(C([H])([H])[H])C(O[H])(C4=C([H])C([H])=C(c5c([H])c([H])c([H])c([H])c5[H])C4([H])[H])C24C([H])([H])OC(=O)C1([H])C34C([H])([H])[H]

$$$$
62:0:1
     RDKit          3D

 75 81  0  0  1  0  0  0  0  0999 V2000
   -1.9146   -8.0048    4.1330 C   0  0  0  0  0  0  0  0  0  0  0  0
   -0.8339   -8.5330    3.1662 C   0  0  0  0  0  0  0  0  0  0  0  0
   -1.2763   -9.8050    2.4784 C   0  0  0  0  0  0  0  0  0  0  0  0
   -0.6302   -7.5579    2.2138 O   0  0  0  0  0  0  0  0  0  0  0  0
    0.7259   -7.4140    1.8554 C   0  0  0  0  0  0  0  0  0  0  0  0
    1.5144   -6.9435    3.1076 C   0  0  1  0  0  0  0  0  0  0  0  0
    0.8555   -5.5595    3.4144 C   0  0  0  0  0  0  0  0  0  0  0  0
    1.2144   -7.8861    4.3086 C   0  0  1  0  0  0  0  0  0  0  0  0
    0.3129   -8.9010    3.8925 O   0  0  0  0  0  0  0  0  0  0  0  0
    2.4522   -8.5051    5.0515 C   0  0  1  0  0  0  0  0  0  0  0  0
    1.9758   -9.2524    6.1565 O   0  0  0  0  0  0  0  0  0  0  0  0
    3.5162   -9.3522    4.2711 C   0  0  1  0  0  0  0  0  0  0  0  0
    2.7342  -10.2556    3.2873 C   0  0  0  0  0  0  0  0  0  0  0  0
    2.1335  -11.2260    3.7381 O   0  0  0  0  0  0  0  0  0  0  0  0
    2.6798   -9.8509    1.9732 O   0  0  0  0  0  0  0  0  0  0  0  0
    3.5039   -8.8340    1.3574 C   0  0  0  0  0  0  0  0  0  0  0  0
    4.0568   -7.8302    2.3687 C   0  0  2  0  0  0  0  0  0  0  0  0
    3.0307   -6.6856    2.8247 C   0  0  2  0  0  0  0  0  0  0  0  0
    3.6308   -5.8156    3.9845 C   0  0  0  0  0  0  0  0  0  0  0  0
    4.9465   -6.3147    4.5790 C   0  0  0  0  0  0  0  0  0  0  0  0
    5.5925   -7.3946    3.7197 C   0  0  2  0  0  0  0  0  0  0  0  0
    7.0121   -7.5806    4.2787 C   0  0  0  0  0  0  0  0  0  0  0  0
    5.4734   -7.2103    2.1494 C   0  0  1  0  0  0  0  0  0  0  0  0
    6.3717   -7.9258    1.3202 O   0  0  0  0  0  0  0  0  0  0  0  0
    5.4973   -5.7565    1.5930 C   0  0  0  0  0  0  0  0  0  0  0  0
    6.0545   -4.6694    2.1211 C   0  0  0  0  0  0  0  0  0  0  0  0
    5.9013   -3.5476    1.2296 C   0  0  0  0  0  0  0  0  0  0  0  0
    5.3134   -3.9443    0.1005 C   0  0  0  0  0  0  0  0  0  0  0  0
    4.9465   -3.0656   -1.0427 C   0  0  0  0  0  0  0  0  0  0  0  0
    4.7416   -1.6735   -0.8852 C   0  0  0  0  0  0  0  0  0  0  0  0
    4.3964   -0.8934   -2.0117 C   0  0  0  0  0  0  0  0  0  0  0  0
    4.2358   -1.4711   -3.2884 C   0  0  0  0  0  0  0  0  0  0  0  0
    4.4564   -2.8511   -3.4363 C   0  0  0  0  0  0  0  0  0  0  0  0
    4.8155   -3.6335   -2.3234 C   0  0  0  0  0  0  0  0  0  0  0  0
    4.9543   -5.4262    0.1909 C   0  0  0  0  0  0  0  0  0  0  0  0
    4.7056   -8.6891    3.4852 C   0  0  1  0  0  0  0  0  0  0  0  0
    5.6064   -9.9625    3.2257 C   0  0  0  0  0  0  0  0  0  0  0  0
   -1.6056   -7.0594    4.5772 H   0  0  0  0  0  0  0  0  0  0  0  0
   -2.1093   -8.7100    4.9307 H   0  0  0  0  0  0  0  0  0  0  0  0
   -2.8401   -7.8335    3.5844 H   0  0  0  0  0  0  0  0  0  0  0  0
   -0.5041  -10.1956    1.8090 H   0  0  0  0  0  0  0  0  0  0  0  0
   -2.2185   -9.6671    1.9326 H   0  0  0  0  0  0  0  0  0  0  0  0
   -1.3374  -10.5215    3.2640 H   0  0  0  0  0  0  0  0  0  0  0  0
    1.0206   -8.3637    1.4393 H   0  0  0  0  0  0  0  0  0  0  0  0
    0.7784   -6.6819    1.0540 H   0  0  0  0  0  0  0  0  0  0  0  0
    1.0650   -5.1470    4.3994 H   0  0  0  0  0  0  0  0  0  0  0  0
   -0.2161   -5.6468    3.4398 H   0  0  0  0  0  0  0  0  0  0  0  0
    1.1129   -4.8096    2.6651 H   0  0  0  0  0  0  0  0  0  0  0  0
    0.6680   -7.3307    5.0752 H   0  0  0  0  0  0  0  0  0  0  0  0
    2.9641   -7.7224    5.5795 H   0  0  0  0  0  0  0  0  0  0  0  0
    1.7406  -10.1331    5.8745 H   0  0  0  0  0  0  0  0  0  0  0  0
    3.9331  -10.0312    5.0113 H   0  0  0  0  0  0  0  0  0  0  0  0
    4.3471   -9.3569    0.9007 H   0  0  0  0  0  0  0  0  0  0  0  0
    3.0015   -8.3588    0.5214 H   0  0  0  0  0  0  0  0  0  0  0  0
    2.9450   -6.0026    1.9813 H   0  0  0  0  0  0  0  0  0  0  0  0
    3.7604   -4.8077    3.5964 H   0  0  0  0  0  0  0  0  0  0  0  0
    2.9581   -5.6795    4.8287 H   0  0  0  0  0  0  0  0  0  0  0  0
    5.6150   -5.4698    4.7361 H   0  0  0  0  0  0  0  0  0  0  0  0
    4.8050   -6.6945    5.5889 H   0  0  0  0  0  0  0  0  0  0  0  0
    7.6270   -8.2145    3.6425 H   0  0  0  0  0  0  0  0  0  0  0  0
    7.0058   -8.0390    5.2651 H   0  0  0  0  0  0  0  0  0  0  0  0
    7.5664   -6.6413    4.3363 H   0  0  0  0  0  0  0  0  0  0  0  0
    5.9871   -8.7749    1.1651 H   0  0  0  0  0  0  0  0  0  0  0  0
    6.6131   -4.6435    3.0437 H   0  0  0  0  0  0  0  0  0  0  0  0
    6.2278   -2.5420    1.4407 H   0  0  0  0  0  0  0  0  0  0  0  0
    4.8165   -1.1989    0.0846 H   0  0  0  0  0  0  0  0  0  0  0  0
    4.2379    0.1663   -1.9162 H   0  0  0  0  0  0  0  0  0  0  0  0
    3.9678   -0.8541   -4.1330 H   0  0  0  0  0  0  0  0  0  0  0  0
    4.3674   -3.3202   -4.4072 H   0  0  0  0  0  0  0  0  0  0  0  0
    4.9875   -4.6889   -2.4615 H   0  0  0  0  0  0  0  0  0  0  0  0
    5.4760   -5.9984   -0.5657 H   0  0  0  0  0  0  0  0  0  0  0  0
    3.8793   -5.5545    0.0844 H   0  0  0  0  0  0  0  0  0  0  0  0
    6.5386   -9.7976    2.7017 H   0  0  0  0  0  0  0  0  0  0  0  0
    5.1309  -10.7728    2.6714 H   0  0  0  0  0  0  0  0  0  0  0  0
    5.9195  -10.3929    4.1790 H   0  0  0  0  0  0  0  0  0  0  0  0
  1  2  1  0
  1 38  1  0
  1 39  1  0
  1 40  1  0
  2  9  1  0
  2  3  1  0
  2  4  1  0
  3 41  1  0
  3 42  1  0
  3 43  1  0
  4  5  1  0
  5  6  1  0
  5 44  1  0
  5 45  1  0
  6 18  1  0
  6  7  1  1
  6  8  1  0
  7 46  1  0
  7 47  1  0
  7 48  1  0
  8  9  1  0
  8 10  1  0
  8 49  1  1
 10 11  1  0
 10 12  1  0
 10 50  1  1
 11 51  1  0
 12 36  1  0
 12 13  1  0
 12 52  1  1
 13 14  2  0
 13 15  1  0
 15 16  1  0
 17 16  1  6
 16 53  1  0
 16 54  1  0
 17 23  1  0
 17 36  1  0
 17 18  1  0
 18 19  1  0
 18 55  1  6
 19 20  1  0
 19 56  1  0
 19 57  1  0
 20 21  1  0
 20 58  1  0
 20 59  1  0
 21 22  1  6
 21 23  1  0
 21 36  1  0
 22 60  1  0
 22 61  1  0
 22 62  1  0
 23 24  1  6
 23 25  1  0
 24 63  1  0
 25 35  1  0
 25 26  2  0
 26 27  1  0
 26 64  1  0
 27 28  2  0
 27 65  1  0
 28 29  1  0
 28 35  1  0
 29 34  1  0
 29 30  2  0
 30 31  1  0
 30 66  1  0
 31 32  2  0
 31 67  1  0
 32 33  1  0
 32 68  1  0
 33 34  2  0
 33 69  1  0
 34 70  1  0
 35 71  1  0
 35 72  1  0
 36 37  1  6
 37 73  1  0
 37 74  1  0
 37 75  1  0
M  END
>  <i_m_ct_stereo_status>  (207) 
1

>  <s_m_source_file>  (207) 
/var/tmp/pbs.5076255.sched01/tmpnx1894nc/68p53si2vm.sdf

>  <i_m_source_file_index>  (207) 
14

>  <i_lp_mmshare_version>  (207) 
48012

>  <i_f3d_flags>  (207) 
0

>  <s_epik_input>  (207) 
W0NIMl0xT0MoW0NIM10pKFtDSDNdKU9bQ0BIXShbQ0BAXTEoW0NIM10pW0NAQEhdMltDQEBdMzQ1KVtDQEBIXShbT0hdKVtDQEBIXShDKD1PKU9bQ0gyXTMpW0NAXTUoW0NIM10pW0NAXShbQ0gzXSkoW0NIMl1bQ0gyXTIpW0NAXTQoW09IXSlDNj1bQ0hdW0NIXT1DKFtDSDJdNiljN1tjSF1bY0hdW2NIXVtjSF1bY0hdNw==

>  <s_epik_cmdline>  (207) 
J2VwaWtfcHl0aG9uJywgJy1waHQnLCAnMi4wJywgJy1waCcsICc3LjAnLCAnLXRuJywgJzgnLCAnLW1hJywgJzIwMCcsICctaW1hZScsICc8aW5maWxlLm1hZT4nLCAnLW9tYWUnLCAnPG91dGZpbGUubWFlPic=

>  <r_lp_tautomer_probability>  (207) 
1

>  <r_epik_Ionization_Penalty>  (207) 
1.93398e-07

>  <r_epik_Ionization_Penalty_Charging>  (207) 
0

>  <r_epik_Ionization_Penalty_Neutral>  (207) 
1.93398e-07

>  <r_epik_State_Penalty>  (207) 
-0

>  <r_epik_Charging_Adjusted_Penalty>  (207) 
0

>  <i_epik_Tot_Q>  (207) 
0

>  <i_epik_Tot_abs_Q>  (207) 
0

>  <s_epik_Chemistry_Notes>  (207) 
This compound has an ester and may undergo hydrolysis at high or low pH.

>  <s_lp_Force_Field>  (207) 
OPLS3e

>  <r_lp_Energy>  (207) 
128.155

>  <b_lp_Chiralities_Consistent>  (207) 
1

>  <s_lp_Variant>  (207) 
62:0-1

>  <s_i_glide_gridfile>  (207) 
pfpi4k_grid

>  <i_i_glide_lignum>  (207) 
14

>  <i_i_glide_rotatable_bonds>  (207) 
4

>  <r_i_docking_score>  (207) 
-2.67811

>  <r_i_glide_ligand_efficiency>  (207) 
-0.0723815

>  <r_i_glide_ligand_efficiency_sa>  (207) 
-0.241191

>  <r_i_glide_ligand_efficiency_ln>  (207) 
-0.58082

>  <r_i_glide_gscore>  (207) 
-2.67811

>  <r_i_glide_lipo>  (207) 
-0.734348

>  <r_i_glide_hbond>  (207) 
0

>  <r_i_glide_metal>  (207) 
-0

>  <r_i_glide_rewards>  (207) 
-0.5

>  <r_i_glide_evdw>  (207) 
-31.1892

>  <r_i_glide_ecoul>  (207) 
0.112197

>  <r_i_glide_erotb>  (207) 
0.159434

>  <r_i_glide_esite>  (207) 
-0.0605677

>  <r_i_glide_emodel>  (207) 
-39.8421

>  <r_i_glide_energy>  (207) 
-31.077

>  <r_i_glide_einternal>  (207) 
1.68807

>  <r_i_glide_intrahb_reward>  (207) 
-0.5

>  <i_i_glide_confnum>  (207) 
5

>  <i_i_glide_posenum>  (207) 
31

>  <r_i_glide_eff_state_penalty>  (207) 
0

>  <ligand_id>  (207) 
62

>  <original_smiles>  (207) 
CC1(C)OCC2(C)C(O1)C(O)C1C(=O)OCC34C2CCC(C)(C3(O)C2=CC=C(c3ccccc3)C2)C14C

>  <smiles>  (207) 
[H]OC1([H])C2([H])OC(C([H])([H])[H])(C([H])([H])[H])OC([H])([H])C2(C([H])([H])[H])C2([H])C([H])([H])C([H])([H])C3(C([H])([H])[H])C(O[H])(C4=C([H])C([H])=C(c5c([H])c([H])c([H])c([H])c5[H])C4([H])[H])C24C([H])([H])OC(=O)C1([H])C34C([H])([H])[H]

$$$$
62:0:2
     RDKit          3D

 75 81  0  0  1  0  0  0  0  0999 V2000
   -1.8704   -7.6206    4.1992 C   0  0  0  0  0  0  0  0  0  0  0  0
   -0.8796   -8.2465    3.2227 C   0  0  0  0  0  0  0  0  0  0  0  0
   -1.5029   -9.4516    2.5181 C   0  0  0  0  0  0  0  0  0  0  0  0
   -0.5828   -7.2781    2.2669 O   0  0  0  0  0  0  0  0  0  0  0  0
    0.7808   -7.2527    1.9152 C   0  0  0  0  0  0  0  0  0  0  0  0
    1.6159   -6.8936    3.1744 C   0  0  1  0  0  0  0  0  0  0  0  0
    1.1118   -5.4509    3.5073 C   0  0  0  0  0  0  0  0  0  0  0  0
    1.2382   -7.8291    4.3545 C   0  0  1  0  0  0  0  0  0  0  0  0
    0.2291   -8.7384    3.9203 O   0  0  0  0  0  0  0  0  0  0  0  0
    2.4152   -8.5895    5.0694 C   0  0  1  0  0  0  0  0  0  0  0  0
    1.8060   -9.2663    6.1606 O   0  0  0  0  0  0  0  0  0  0  0  0
    3.3632   -9.5358    4.2546 C   0  0  1  0  0  0  0  0  0  0  0  0
    2.4838  -10.3183    3.2526 C   0  0  0  0  0  0  0  0  0  0  0  0
    1.7955  -11.2492    3.6610 O   0  0  0  0  0  0  0  0  0  0  0  0
    2.4657   -9.8708    1.9454 O   0  0  0  0  0  0  0  0  0  0  0  0
    3.3977   -8.9366    1.3551 C   0  0  0  0  0  0  0  0  0  0  0  0
    4.0585   -8.0273    2.3855 C   0  0  2  0  0  0  0  0  0  0  0  0
    3.1597   -6.8026    2.8944 C   0  0  2  0  0  0  0  0  0  0  0  0
    3.8703   -6.0195    4.0547 C   0  0  0  0  0  0  0  0  0  0  0  0
    5.1468   -6.6711    4.6057 C   0  0  0  0  0  0  0  0  0  0  0  0
    5.6469   -7.8053    3.7192 C   0  0  2  0  0  0  0  0  0  0  0  0
    7.0455   -8.1622    4.2618 C   0  0  0  0  0  0  0  0  0  0  0  0
    5.5360   -7.5648    2.1581 C   0  0  1  0  0  0  0  0  0  0  0  0
    6.3266   -8.3484    1.2878 O   0  0  0  0  0  0  0  0  0  0  0  0
    5.7049   -6.1138    1.6364 C   0  0  0  0  0  0  0  0  0  0  0  0
    6.5107   -5.1484    2.1492 C   0  0  0  0  0  0  0  0  0  0  0  0
    6.4432   -3.9846    1.3014 C   0  0  0  0  0  0  0  0  0  0  0  0
    5.6717   -4.2208    0.2276 C   0  0  0  0  0  0  0  0  0  0  0  0
    5.2917   -3.2298   -0.7901 C   0  0  0  0  0  0  0  0  0  0  0  0
    5.1866   -1.8455   -0.5205 C   0  0  0  0  0  0  0  0  0  0  0  0
    4.7860   -0.9583   -1.5383 C   0  0  0  0  0  0  0  0  0  0  0  0
    4.5251   -1.4256   -2.8411 C   0  0  0  0  0  0  0  0  0  0  0  0
    4.6291   -2.7996   -3.1134 C   0  0  0  0  0  0  0  0  0  0  0  0
    4.9986   -3.6918   -2.0988 C   0  0  0  0  0  0  0  0  0  0  0  0
    5.0988   -5.6295    0.3205 C   0  0  0  0  0  0  0  0  0  0  0  0
    4.6227   -8.9915    3.4703 C   0  0  1  0  0  0  0  0  0  0  0  0
    5.3731  -10.3477    3.1691 C   0  0  0  0  0  0  0  0  0  0  0  0
   -1.4635   -6.7258    4.6709 H   0  0  0  0  0  0  0  0  0  0  0  0
   -2.1281   -8.3624    4.9516 H   0  0  0  0  0  0  0  0  0  0  0  0
   -2.7772   -7.3463    3.6669 H   0  0  0  0  0  0  0  0  0  0  0  0
   -0.7766   -9.9244    1.8619 H   0  0  0  0  0  0  0  0  0  0  0  0
   -2.3982   -9.1761    1.9596 H   0  0  0  0  0  0  0  0  0  0  0  0
   -1.7646  -10.1797    3.2762 H   0  0  0  0  0  0  0  0  0  0  0  0
    0.9743   -8.2105    1.4648 H   0  0  0  0  0  0  0  0  0  0  0  0
    0.9139   -6.5091    1.1339 H   0  0  0  0  0  0  0  0  0  0  0  0
    1.3926   -5.0870    4.4933 H   0  0  0  0  0  0  0  0  0  0  0  0
    0.0298   -5.3931    3.5227 H   0  0  0  0  0  0  0  0  0  0  0  0
    1.4628   -4.7234    2.7718 H   0  0  0  0  0  0  0  0  0  0  0  0
    0.7663   -7.2308    5.1347 H   0  0  0  0  0  0  0  0  0  0  0  0
    3.0400   -7.8916    5.6013 H   0  0  0  0  0  0  0  0  0  0  0  0
    2.2404  -10.0878    6.3286 H   0  0  0  0  0  0  0  0  0  0  0  0
    3.7182  -10.2867    4.9629 H   0  0  0  0  0  0  0  0  0  0  0  0
    4.1694   -9.5393    0.8767 H   0  0  0  0  0  0  0  0  0  0  0  0
    2.9504   -8.3841    0.5315 H   0  0  0  0  0  0  0  0  0  0  0  0
    3.1109   -6.0868    2.0787 H   0  0  0  0  0  0  0  0  0  0  0  0
    4.1177   -5.0332    3.6652 H   0  0  0  0  0  0  0  0  0  0  0  0
    3.2351   -5.8221    4.9145 H   0  0  0  0  0  0  0  0  0  0  0  0
    5.9088   -5.9007    4.7289 H   0  0  0  0  0  0  0  0  0  0  0  0
    4.9834   -7.0437    5.6160 H   0  0  0  0  0  0  0  0  0  0  0  0
    7.5743   -8.8410    3.6035 H   0  0  0  0  0  0  0  0  0  0  0  0
    6.9942   -8.6406    5.2400 H   0  0  0  0  0  0  0  0  0  0  0  0
    7.6933   -7.2897    4.3396 H   0  0  0  0  0  0  0  0  0  0  0  0
    6.0068   -9.2401    1.3618 H   0  0  0  0  0  0  0  0  0  0  0  0
    7.1593   -5.2535    2.9974 H   0  0  0  0  0  0  0  0  0  0  0  0
    6.9385   -3.0469    1.5033 H   0  0  0  0  0  0  0  0  0  0  0  0
    5.3725   -1.4583    0.4749 H   0  0  0  0  0  0  0  0  0  0  0  0
    4.6598    0.0965   -1.3421 H   0  0  0  0  0  0  0  0  0  0  0  0
    4.2400   -0.7313   -3.6220 H   0  0  0  0  0  0  0  0  0  0  0  0
    4.4245   -3.1765   -4.1075 H   0  0  0  0  0  0  0  0  0  0  0  0
    5.0469   -4.7445   -2.3106 H   0  0  0  0  0  0  0  0  0  0  0  0
    5.4257   -6.2546   -0.5108 H   0  0  0  0  0  0  0  0  0  0  0  0
    4.0112   -5.5205    0.2751 H   0  0  0  0  0  0  0  0  0  0  0  0
    6.3177  -10.2817    2.6389 H   0  0  0  0  0  0  0  0  0  0  0  0
    4.8034  -11.0818    2.5961 H   0  0  0  0  0  0  0  0  0  0  0  0
    5.6386  -10.8340    4.1101 H   0  0  0  0  0  0  0  0  0  0  0  0
  1  2  1  0
  1 38  1  0
  1 39  1  0
  1 40  1  0
  2  9  1  0
  2  3  1  0
  2  4  1  0
  3 41  1  0
  3 42  1  0
  3 43  1  0
  4  5  1  0
  5  6  1  0
  5 44  1  0
  5 45  1  0
  6 18  1  0
  6  7  1  1
  6  8  1  0
  7 46  1  0
  7 47  1  0
  7 48  1  0
  8  9  1  0
  8 10  1  0
  8 49  1  1
 10 11  1  0
 10 12  1  0
 10 50  1  1
 11 51  1  0
 12 36  1  0
 12 13  1  0
 12 52  1  1
 13 14  2  0
 13 15  1  0
 15 16  1  0
 17 16  1  6
 16 53  1  0
 16 54  1  0
 17 23  1  0
 17 36  1  0
 17 18  1  0
 18 19  1  0
 18 55  1  6
 19 20  1  0
 19 56  1  0
 19 57  1  0
 20 21  1  0
 20 58  1  0
 20 59  1  0
 21 22  1  6
 21 23  1  0
 21 36  1  0
 22 60  1  0
 22 61  1  0
 22 62  1  0
 23 24  1  6
 23 25  1  0
 24 63  1  0
 25 35  1  0
 25 26  2  0
 26 27  1  0
 26 64  1  0
 27 28  2  0
 27 65  1  0
 28 29  1  0
 28 35  1  0
 29 34  1  0
 29 30  2  0
 30 31  1  0
 30 66  1  0
 31 32  2  0
 31 67  1  0
 32 33  1  0
 32 68  1  0
 33 34  2  0
 33 69  1  0
 34 70  1  0
 35 71  1  0
 35 72  1  0
 36 37  1  6
 37 73  1  0
 37 74  1  0
 37 75  1  0
M  END
>  <i_m_ct_stereo_status>  (208) 
1

>  <s_m_source_file>  (208) 
/var/tmp/pbs.5076255.sched01/tmpnx1894nc/68p53si2vm.sdf

>  <i_m_source_file_index>  (208) 
14

>  <i_lp_mmshare_version>  (208) 
48012

>  <i_f3d_flags>  (208) 
0

>  <s_epik_input>  (208) 
W0NIMl0xT0MoW0NIM10pKFtDSDNdKU9bQ0BIXShbQ0BAXTEoW0NIM10pW0NAQEhdMltDQEBdMzQ1KVtDQEBIXShbT0hdKVtDQEBIXShDKD1PKU9bQ0gyXTMpW0NAXTUoW0NIM10pW0NAXShbQ0gzXSkoW0NIMl1bQ0gyXTIpW0NAXTQoW09IXSlDNj1bQ0hdW0NIXT1DKFtDSDJdNiljN1tjSF1bY0hdW2NIXVtjSF1bY0hdNw==

>  <s_epik_cmdline>  (208) 
J2VwaWtfcHl0aG9uJywgJy1waHQnLCAnMi4wJywgJy1waCcsICc3LjAnLCAnLXRuJywgJzgnLCAnLW1hJywgJzIwMCcsICctaW1hZScsICc8aW5maWxlLm1hZT4nLCAnLW9tYWUnLCAnPG91dGZpbGUubWFlPic=

>  <r_lp_tautomer_probability>  (208) 
1

>  <r_epik_Ionization_Penalty>  (208) 
1.93398e-07

>  <r_epik_Ionization_Penalty_Charging>  (208) 
0

>  <r_epik_Ionization_Penalty_Neutral>  (208) 
1.93398e-07

>  <r_epik_State_Penalty>  (208) 
-0

>  <r_epik_Charging_Adjusted_Penalty>  (208) 
0

>  <i_epik_Tot_Q>  (208) 
0

>  <i_epik_Tot_abs_Q>  (208) 
0

>  <s_epik_Chemistry_Notes>  (208) 
This compound has an ester and may undergo hydrolysis at high or low pH.

>  <s_lp_Force_Field>  (208) 
OPLS3e

>  <r_lp_Energy>  (208) 
128.155

>  <b_lp_Chiralities_Consistent>  (208) 
1

>  <s_lp_Variant>  (208) 
62:0-1

>  <s_i_glide_gridfile>  (208) 
pfpi4k_grid

>  <i_i_glide_lignum>  (208) 
14

>  <i_i_glide_rotatable_bonds>  (208) 
4

>  <r_i_docking_score>  (208) 
-2.6138

>  <r_i_glide_ligand_efficiency>  (208) 
-0.0706432

>  <r_i_glide_ligand_efficiency_sa>  (208) 
-0.235399

>  <r_i_glide_ligand_efficiency_ln>  (208) 
-0.566871

>  <r_i_glide_gscore>  (208) 
-2.6138

>  <r_i_glide_lipo>  (208) 
-0.814998

>  <r_i_glide_hbond>  (208) 
-0.0634552

>  <r_i_glide_metal>  (208) 
-0

>  <r_i_glide_rewards>  (208) 
-0.00238897

>  <r_i_glide_evdw>  (208) 
-32.6692

>  <r_i_glide_ecoul>  (208) 
-1.34334

>  <r_i_glide_erotb>  (208) 
0.159434

>  <r_i_glide_esite>  (208) 
-0.0574279

>  <r_i_glide_emodel>  (208) 
-37.0196

>  <r_i_glide_energy>  (208) 
-34.0125

>  <r_i_glide_einternal>  (208) 
2.88958

>  <r_i_glide_intrahb_reward>  (208) 
-0

>  <i_i_glide_confnum>  (208) 
1

>  <i_i_glide_posenum>  (208) 
34

>  <r_i_glide_eff_state_penalty>  (208) 
0

>  <ligand_id>  (208) 
62

>  <original_smiles>  (208) 
CC1(C)OCC2(C)C(O1)C(O)C1C(=O)OCC34C2CCC(C)(C3(O)C2=CC=C(c3ccccc3)C2)C14C

>  <smiles>  (208) 
[H]OC1([H])C2([H])OC(C([H])([H])[H])(C([H])([H])[H])OC([H])([H])C2(C([H])([H])[H])C2([H])C([H])([H])C([H])([H])C3(C([H])([H])[H])C(O[H])(C4=C([H])C([H])=C(c5c([H])c([H])c([H])c([H])c5[H])C4([H])[H])C24C([H])([H])OC(=O)C1([H])C34C([H])([H])[H]

$$$$
64:0:0
     RDKit          3D

 56 59  0  0  1  0  0  0  0  0999 V2000
    7.0022   -7.8771    2.3932 C   0  0  0  0  0  0  0  0  0  0  0  0
    5.8581   -6.8762    2.5408 C   0  0  0  0  0  0  0  0  0  0  0  0
    6.1185   -5.7810    3.6015 C   0  0  0  0  0  0  0  0  0  0  0  0
    5.0521   -4.8456    3.6749 O   0  0  0  0  0  0  0  0  0  0  0  0
    4.9940   -3.9084    2.6446 C   0  0  2  0  0  0  0  0  0  0  0  0
    3.8025   -2.9905    2.9634 C   0  0  0  0  0  0  0  0  0  0  0  0
    3.7699   -1.7714    2.0226 C   0  0  1  0  0  0  0  0  0  0  0  0
    4.5482   -0.5853    2.6224 C   0  0  0  0  0  0  0  0  0  0  0  0
    3.9647   -2.0703    0.4948 C   0  0  1  0  0  0  0  0  0  0  0  0
    3.5941   -0.8620   -0.3472 C   0  0  0  0  0  0  0  0  0  0  0  0
    3.4135   -1.1963   -1.8414 C   0  0  0  0  0  0  0  0  0  0  0  0
    4.3164   -2.3358   -2.3200 C   0  0  1  0  0  0  0  0  0  0  0  0
    4.4586   -2.2415   -3.8505 C   0  0  0  0  0  0  0  0  0  0  0  0
    5.6322   -2.3457   -1.5040 C   0  0  2  0  0  0  0  0  0  0  0  0
    6.6759   -3.2718   -2.1414 C   0  0  0  0  0  0  0  0  0  0  0  0
    7.9844   -3.4274   -1.3422 C   0  0  0  0  0  0  0  0  0  0  0  0
    7.7832   -3.7057    0.1627 C   0  0  1  0  0  0  0  0  0  0  0  0
    9.0239   -4.3853    0.7471 C   0  0  0  0  0  0  0  0  0  0  0  0
    7.6820   -2.5069    0.8835 O   0  0  0  0  0  0  0  0  0  0  0  0
    6.3767   -1.7873    0.6754 O   0  0  0  0  0  0  0  0  0  0  0  0
    5.3677   -2.5798    0.0388 C   0  0  1  0  0  0  0  0  0  0  0  0
    5.4505   -4.1185    0.3563 C   0  0  2  0  0  0  0  0  0  0  0  0
    4.6874   -4.5058    1.4422 O   0  0  0  0  0  0  0  0  0  0  0  0
    6.7413   -4.6010    0.4582 O   0  0  0  0  0  0  0  0  0  0  0  0
    6.7726   -8.5150    1.5447 H   0  0  0  0  0  0  0  0  0  0  0  0
    7.1712   -8.5066    3.2822 H   0  0  0  0  0  0  0  0  0  0  0  0
    7.9200   -7.3462    2.1501 H   0  0  0  0  0  0  0  0  0  0  0  0
    5.7587   -6.4677    1.5623 H   0  0  0  0  0  0  0  0  0  0  0  0
    4.9167   -7.3888    2.7727 H   0  0  0  0  0  0  0  0  0  0  0  0
    6.1648   -6.2318    4.5986 H   0  0  0  0  0  0  0  0  0  0  0  0
    7.0853   -5.2905    3.4774 H   0  0  0  0  0  0  0  0  0  0  0  0
    5.9196   -3.3461    2.6055 H   0  0  0  0  0  0  0  0  0  0  0  0
    2.9031   -3.5806    2.8410 H   0  0  0  0  0  0  0  0  0  0  0  0
    3.8103   -2.6832    4.0214 H   0  0  0  0  0  0  0  0  0  0  0  0
    2.7330   -1.4484    2.0788 H   0  0  0  0  0  0  0  0  0  0  0  0
    5.5965   -0.8220    2.8011 H   0  0  0  0  0  0  0  0  0  0  0  0
    4.1110   -0.3097    3.5817 H   0  0  0  0  0  0  0  0  0  0  0  0
    4.4914    0.2955    1.9827 H   0  0  0  0  0  0  0  0  0  0  0  0
    3.2419   -2.8500    0.2395 H   0  0  0  0  0  0  0  0  0  0  0  0
    2.7039   -0.4083    0.0938 H   0  0  0  0  0  0  0  0  0  0  0  0
    4.3630   -0.1089   -0.2568 H   0  0  0  0  0  0  0  0  0  0  0  0
    2.4116   -1.5604   -2.0457 H   0  0  0  0  0  0  0  0  0  0  0  0
    3.5225   -0.2954   -2.4553 H   0  0  0  0  0  0  0  0  0  0  0  0
    3.7931   -3.2794   -2.1257 H   0  0  0  0  0  0  0  0  0  0  0  0
    5.0103   -1.3510   -4.1464 H   0  0  0  0  0  0  0  0  0  0  0  0
    3.4763   -2.1815   -4.3191 H   0  0  0  0  0  0  0  0  0  0  0  0
    4.9467   -3.1255   -4.2543 H   0  0  0  0  0  0  0  0  0  0  0  0
    6.0378   -1.3404   -1.5948 H   0  0  0  0  0  0  0  0  0  0  0  0
    6.1877   -4.2299   -2.3244 H   0  0  0  0  0  0  0  0  0  0  0  0
    6.9360   -2.8902   -3.1154 H   0  0  0  0  0  0  0  0  0  0  0  0
    8.6114   -4.2099   -1.8046 H   0  0  0  0  0  0  0  0  0  0  0  0
    8.6043   -2.5446   -1.4533 H   0  0  0  0  0  0  0  0  0  0  0  0
    8.8980   -4.6024    1.7997 H   0  0  0  0  0  0  0  0  0  0  0  0
    9.8368   -3.6852    0.6631 H   0  0  0  0  0  0  0  0  0  0  0  0
    9.2751   -5.3289    0.2455 H   0  0  0  0  0  0  0  0  0  0  0  0
    4.9645   -4.6446   -0.4643 H   0  0  0  0  0  0  0  0  0  0  0  0
  1  2  1  0
  1 25  1  0
  1 26  1  0
  1 27  1  0
  2  3  1  0
  2 28  1  0
  2 29  1  0
  3  4  1  0
  3 30  1  0
  3 31  1  0
  4  5  1  0
  5 23  1  0
  5  6  1  0
  5 32  1  6
  6  7  1  0
  6 33  1  0
  6 34  1  0
  7  8  1  0
  7  9  1  0
  7 35  1  6
  8 36  1  0
  8 37  1  0
  8 38  1  0
  9 21  1  0
  9 10  1  0
  9 39  1  6
 10 11  1  0
 10 40  1  0
 10 41  1  0
 11 12  1  0
 11 42  1  0
 11 43  1  0
 12 13  1  0
 12 14  1  0
 12 44  1  6
 13 45  1  0
 13 46  1  0
 13 47  1  0
 14 21  1  0
 14 15  1  0
 14 48  1  1
 15 16  1  0
 15 49  1  0
 15 50  1  0
 16 17  1  0
 16 51  1  0
 16 52  1  0
 17 24  1  0
 17 18  1  1
 17 19  1  0
 18 53  1  0
 18 54  1  0
 18 55  1  0
 19 20  1  0
 21 20  1  1
 21 22  1  0
 22 23  1  0
 22 24  1  0
 22 56  1  6
M  END
>  <i_m_ct_stereo_status>  (209) 
1

>  <s_m_source_file>  (209) 
/var/tmp/pbs.5076255.sched01/tmpnx1894nc/68p53si2vm.sdf

>  <i_m_source_file_index>  (209) 
16

>  <i_lp_mmshare_version>  (209) 
48012

>  <i_f3d_flags>  (209) 
0

>  <s_epik_input>  (209) 
W0NIM11bQ0gyXVtDSDJdT1tDQEhdKFtDSDJdW0NAQEhdKFtDSDNdKVtDQEBIXTFbQ0BAXTIzNClPW0NAQEhdNE9bQ0BdKFtDSDNdKShPTzMpW0NIMl1bQ0gyXVtDQEhdMltDQEhdKFtDSDNdKVtDSDJdW0NIMl0x

>  <s_epik_cmdline>  (209) 
J2VwaWtfcHl0aG9uJywgJy1waHQnLCAnMi4wJywgJy1waCcsICc3LjAnLCAnLXRuJywgJzgnLCAnLW1hJywgJzIwMCcsICctaW1hZScsICc8aW5maWxlLm1hZT4nLCAnLW9tYWUnLCAnPG91dGZpbGUubWFlPic=

>  <r_lp_tautomer_probability>  (209) 
1

>  <r_epik_Ionization_Penalty>  (209) 
1.65606e-12

>  <r_epik_Ionization_Penalty_Charging>  (209) 
0

>  <r_epik_Ionization_Penalty_Neutral>  (209) 
1.65606e-12

>  <r_epik_State_Penalty>  (209) 
-0

>  <r_epik_Charging_Adjusted_Penalty>  (209) 
0

>  <i_epik_Tot_Q>  (209) 
0

>  <i_epik_Tot_abs_Q>  (209) 
0

>  <s_epik_Chemistry_Notes>  (209) 
This compound contains an acetal/aminal-like group ( X-CH(R)-Y where X, Y are N, S, or O) that may be acid/base labile, releasing an aldehyde.

>  <s_lp_Force_Field>  (209) 
OPLS3e

>  <r_lp_Energy>  (209) 
42.5285

>  <b_lp_Chiralities_Consistent>  (209) 
1

>  <s_lp_Variant>  (209) 
64:0-1

>  <s_i_glide_gridfile>  (209) 
pfpi4k_grid

>  <i_i_glide_lignum>  (209) 
16

>  <i_i_glide_rotatable_bonds>  (209) 
3

>  <r_i_docking_score>  (209) 
-2.45636

>  <r_i_glide_ligand_efficiency>  (209) 
-0.102348

>  <r_i_glide_ligand_efficiency_sa>  (209) 
-0.295223

>  <r_i_glide_ligand_efficiency_ln>  (209) 
-0.587919

>  <r_i_glide_gscore>  (209) 
-2.45636

>  <r_i_glide_lipo>  (209) 
-0.318365

>  <r_i_glide_hbond>  (209) 
0

>  <r_i_glide_metal>  (209) 
-0

>  <r_i_glide_rewards>  (209) 
-1.46931

>  <r_i_glide_evdw>  (209) 
-17.9462

>  <r_i_glide_ecoul>  (209) 
-0.654285

>  <r_i_glide_erotb>  (209) 
0.326766

>  <r_i_glide_esite>  (209) 
0

>  <r_i_glide_emodel>  (209) 
-19.9169

>  <r_i_glide_energy>  (209) 
-18.6005

>  <r_i_glide_einternal>  (209) 
1.01471

>  <r_i_glide_intrahb_reward>  (209) 
-0

>  <i_i_glide_confnum>  (209) 
3

>  <i_i_glide_posenum>  (209) 
25

>  <r_i_glide_eff_state_penalty>  (209) 
0

>  <ligand_id>  (209) 
64

>  <original_smiles>  (209) 
CCCOC1CC(C)C2CCC(C)C3CCC4(C)OOC32C(O1)O4

>  <smiles>  (209) 
[H]C([H])([H])C([H])([H])C([H])([H])OC1([H])OC2([H])OC3(C([H])([H])[H])OOC24C([H])(C([H])([H])C([H])([H])C([H])(C([H])([H])[H])C4([H])C([H])([H])C3([H])[H])C([H])(C([H])([H])[H])C1([H])[H]

$$$$
64:0:1
     RDKit          3D

 56 59  0  0  1  0  0  0  0  0999 V2000
    4.3979   -7.3419    3.4496 C   0  0  0  0  0  0  0  0  0  0  0  0
    5.6801   -6.7224    2.8771 C   0  0  0  0  0  0  0  0  0  0  0  0
    6.1700   -5.5350    3.7362 C   0  0  0  0  0  0  0  0  0  0  0  0
    5.2099   -4.4908    3.8625 O   0  0  0  0  0  0  0  0  0  0  0  0
    5.1197   -3.6304    2.7754 C   0  0  2  0  0  0  0  0  0  0  0  0
    3.9287   -2.7063    3.0636 C   0  0  0  0  0  0  0  0  0  0  0  0
    3.8474   -1.5516    2.0467 C   0  0  1  0  0  0  0  0  0  0  0  0
    4.6177   -0.3176    2.5501 C   0  0  0  0  0  0  0  0  0  0  0  0
    4.0106   -1.9452    0.5409 C   0  0  1  0  0  0  0  0  0  0  0  0
    3.6041   -0.7983   -0.3611 C   0  0  0  0  0  0  0  0  0  0  0  0
    3.3770   -1.2314   -1.8260 C   0  0  0  0  0  0  0  0  0  0  0  0
    4.2874   -2.3804   -2.2661 C   0  0  1  0  0  0  0  0  0  0  0  0
    4.3928   -2.3775   -3.8049 C   0  0  0  0  0  0  0  0  0  0  0  0
    5.6267   -2.3247   -1.4865 C   0  0  2  0  0  0  0  0  0  0  0  0
    6.6641   -3.2767   -2.0815 C   0  0  0  0  0  0  0  0  0  0  0  0
    7.9952   -3.3654   -1.3145 C   0  0  0  0  0  0  0  0  0  0  0  0
    7.8472   -3.5523    0.2183 C   0  0  1  0  0  0  0  0  0  0  0  0
    9.1342   -4.1586    0.7975 C   0  0  0  0  0  0  0  0  0  0  0  0
    7.7371   -2.3118    0.8774 O   0  0  0  0  0  0  0  0  0  0  0  0
    6.4241   -1.6317    0.6243 O   0  0  0  0  0  0  0  0  0  0  0  0
    5.4112   -2.4740    0.0815 C   0  0  1  0  0  0  0  0  0  0  0  0
    5.5243   -3.9893    0.4977 C   0  0  2  0  0  0  0  0  0  0  0  0
    4.7919   -4.2985    1.6219 O   0  0  0  0  0  0  0  0  0  0  0  0
    6.8274   -4.4529    0.5937 O   0  0  0  0  0  0  0  0  0  0  0  0
    3.9961   -8.0853    2.7615 H   0  0  0  0  0  0  0  0  0  0  0  0
    3.6217   -6.5884    3.5940 H   0  0  0  0  0  0  0  0  0  0  0  0
    4.5580   -7.8320    4.4202 H   0  0  0  0  0  0  0  0  0  0  0  0
    6.4632   -7.4875    2.8584 H   0  0  0  0  0  0  0  0  0  0  0  0
    5.5021   -6.4210    1.8629 H   0  0  0  0  0  0  0  0  0  0  0  0
    6.3546   -5.8746    4.7584 H   0  0  0  0  0  0  0  0  0  0  0  0
    7.1298   -5.1573    3.3777 H   0  0  0  0  0  0  0  0  0  0  0  0
    6.0371   -3.0609    2.6838 H   0  0  0  0  0  0  0  0  0  0  0  0
    3.0358   -3.3199    2.9991 H   0  0  0  0  0  0  0  0  0  0  0  0
    3.9555   -2.3317    4.0997 H   0  0  0  0  0  0  0  0  0  0  0  0
    2.8056   -1.2433    2.1155 H   0  0  0  0  0  0  0  0  0  0  0  0
    5.6757   -0.5257    2.7159 H   0  0  0  0  0  0  0  0  0  0  0  0
    4.2034    0.0122    3.5036 H   0  0  0  0  0  0  0  0  0  0  0  0
    4.5273    0.5198    1.8607 H   0  0  0  0  0  0  0  0  0  0  0  0
    3.2931   -2.7517    0.3541 H   0  0  0  0  0  0  0  0  0  0  0  0
    2.7391   -0.3341    0.0821 H   0  0  0  0  0  0  0  0  0  0  0  0
    4.3634   -0.0270   -0.3339 H   0  0  0  0  0  0  0  0  0  0  0  0
    2.3713   -1.6262   -1.9812 H   0  0  0  0  0  0  0  0  0  0  0  0
    3.4568   -0.3729   -2.4930 H   0  0  0  0  0  0  0  0  0  0  0  0
    3.7928   -3.3156   -1.9978 H   0  0  0  0  0  0  0  0  0  0  0  0
    4.9164   -1.4954   -4.1621 H   0  0  0  0  0  0  0  0  0  0  0  0
    3.3982   -2.3697   -4.2507 H   0  0  0  0  0  0  0  0  0  0  0  0
    4.8927   -3.2739   -4.1711 H   0  0  0  0  0  0  0  0  0  0  0  0
    6.0122   -1.3183   -1.6516 H   0  0  0  0  0  0  0  0  0  0  0  0
    6.1886   -4.2496   -2.1862 H   0  0  0  0  0  0  0  0  0  0  0  0
    6.8939   -2.9619   -3.0943 H   0  0  0  0  0  0  0  0  0  0  0  0
    8.6042   -4.1677   -1.7417 H   0  0  0  0  0  0  0  0  0  0  0  0
    8.5980   -2.4801   -1.4969 H   0  0  0  0  0  0  0  0  0  0  0  0
    9.0308   -4.3092    1.8680 H   0  0  0  0  0  0  0  0  0  0  0  0
    9.9465   -3.4601    0.6400 H   0  0  0  0  0  0  0  0  0  0  0  0
    9.3717   -5.1275    0.3558 H   0  0  0  0  0  0  0  0  0  0  0  0
    5.0293   -4.5810   -0.2734 H   0  0  0  0  0  0  0  0  0  0  0  0
  1  2  1  0
  1 25  1  0
  1 26  1  0
  1 27  1  0
  2  3  1  0
  2 28  1  0
  2 29  1  0
  3  4  1  0
  3 30  1  0
  3 31  1  0
  4  5  1  0
  5 23  1  0
  5  6  1  0
  5 32  1  6
  6  7  1  0
  6 33  1  0
  6 34  1  0
  7  8  1  0
  7  9  1  0
  7 35  1  6
  8 36  1  0
  8 37  1  0
  8 38  1  0
  9 21  1  0
  9 10  1  0
  9 39  1  6
 10 11  1  0
 10 40  1  0
 10 41  1  0
 11 12  1  0
 11 42  1  0
 11 43  1  0
 12 13  1  0
 12 14  1  0
 12 44  1  1
 13 45  1  0
 13 46  1  0
 13 47  1  0
 14 21  1  0
 14 15  1  0
 14 48  1  1
 15 16  1  0
 15 49  1  0
 15 50  1  0
 16 17  1  0
 16 51  1  0
 16 52  1  0
 17 24  1  0
 17 18  1  1
 17 19  1  0
 18 53  1  0
 18 54  1  0
 18 55  1  0
 19 20  1  0
 21 20  1  1
 21 22  1  0
 22 23  1  0
 22 24  1  0
 22 56  1  6
M  END
>  <i_m_ct_stereo_status>  (210) 
1

>  <s_m_source_file>  (210) 
/var/tmp/pbs.5076255.sched01/tmpnx1894nc/68p53si2vm.sdf

>  <i_m_source_file_index>  (210) 
16

>  <i_lp_mmshare_version>  (210) 
48012

>  <i_f3d_flags>  (210) 
0

>  <s_epik_input>  (210) 
W0NIM11bQ0gyXVtDSDJdT1tDQEhdKFtDSDJdW0NAQEhdKFtDSDNdKVtDQEBIXTFbQ0BAXTIzNClPW0NAQEhdNE9bQ0BdKFtDSDNdKShPTzMpW0NIMl1bQ0gyXVtDQEhdMltDQEhdKFtDSDNdKVtDSDJdW0NIMl0x

>  <s_epik_cmdline>  (210) 
J2VwaWtfcHl0aG9uJywgJy1waHQnLCAnMi4wJywgJy1waCcsICc3LjAnLCAnLXRuJywgJzgnLCAnLW1hJywgJzIwMCcsICctaW1hZScsICc8aW5maWxlLm1hZT4nLCAnLW9tYWUnLCAnPG91dGZpbGUubWFlPic=

>  <r_lp_tautomer_probability>  (210) 
1

>  <r_epik_Ionization_Penalty>  (210) 
1.65606e-12

>  <r_epik_Ionization_Penalty_Charging>  (210) 
0

>  <r_epik_Ionization_Penalty_Neutral>  (210) 
1.65606e-12

>  <r_epik_State_Penalty>  (210) 
-0

>  <r_epik_Charging_Adjusted_Penalty>  (210) 
0

>  <i_epik_Tot_Q>  (210) 
0

>  <i_epik_Tot_abs_Q>  (210) 
0

>  <s_epik_Chemistry_Notes>  (210) 
This compound contains an acetal/aminal-like group ( X-CH(R)-Y where X, Y are N, S, or O) that may be acid/base labile, releasing an aldehyde.

>  <s_lp_Force_Field>  (210) 
OPLS3e

>  <r_lp_Energy>  (210) 
42.5285

>  <b_lp_Chiralities_Consistent>  (210) 
1

>  <s_lp_Variant>  (210) 
64:0-1

>  <s_i_glide_gridfile>  (210) 
pfpi4k_grid

>  <i_i_glide_lignum>  (210) 
16

>  <i_i_glide_rotatable_bonds>  (210) 
3

>  <r_i_docking_score>  (210) 
-2.41579

>  <r_i_glide_ligand_efficiency>  (210) 
-0.100658

>  <r_i_glide_ligand_efficiency_sa>  (210) 
-0.290348

>  <r_i_glide_ligand_efficiency_ln>  (210) 
-0.57821

>  <r_i_glide_gscore>  (210) 
-2.41579

>  <r_i_glide_lipo>  (210) 
-0.296741

>  <r_i_glide_hbond>  (210) 
0

>  <r_i_glide_metal>  (210) 
-0

>  <r_i_glide_rewards>  (210) 
-1.5103

>  <r_i_glide_evdw>  (210) 
-16.7232

>  <r_i_glide_ecoul>  (210) 
-0.662339

>  <r_i_glide_erotb>  (210) 
0.326766

>  <r_i_glide_esite>  (210) 
0

>  <r_i_glide_emodel>  (210) 
-18.4694

>  <r_i_glide_energy>  (210) 
-17.3856

>  <r_i_glide_einternal>  (210) 
2.15915

>  <r_i_glide_intrahb_reward>  (210) 
-0

>  <i_i_glide_confnum>  (210) 
3

>  <i_i_glide_posenum>  (210) 
7

>  <r_i_glide_eff_state_penalty>  (210) 
0

>  <ligand_id>  (210) 
64

>  <original_smiles>  (210) 
CCCOC1CC(C)C2CCC(C)C3CCC4(C)OOC32C(O1)O4

>  <smiles>  (210) 
[H]C([H])([H])C([H])([H])C([H])([H])OC1([H])OC2([H])OC3(C([H])([H])[H])OOC24C([H])(C([H])([H])C([H])([H])C([H])(C([H])([H])[H])C4([H])C([H])([H])C3([H])[H])C([H])(C([H])([H])[H])C1([H])[H]

$$$$
64:0:2
     RDKit          3D

 56 59  0  0  1  0  0  0  0  0999 V2000
   -1.2500   -1.3637    5.2993 C   0  0  0  0  0  0  0  0  0  0  0  0
   -0.3439   -2.5550    5.6490 C   0  0  0  0  0  0  0  0  0  0  0  0
    0.7087   -2.8634    4.5701 C   0  0  0  0  0  0  0  0  0  0  0  0
    1.4694   -1.6959    4.3031 O   0  0  0  0  0  0  0  0  0  0  0  0
    2.4926   -1.8534    3.3708 C   0  0  2  0  0  0  0  0  0  0  0  0
    3.1243   -0.4652    3.1958 C   0  0  0  0  0  0  0  0  0  0  0  0
    4.4525   -0.5081    2.4190 C   0  0  1  0  0  0  0  0  0  0  0  0
    5.6528   -0.7066    3.3664 C   0  0  0  0  0  0  0  0  0  0  0  0
    4.4319   -1.3275    1.0883 C   0  0  1  0  0  0  0  0  0  0  0  0
    5.6804   -1.0000    0.2463 C   0  0  0  0  0  0  0  0  0  0  0  0
    5.5394   -1.4738   -1.2050 C   0  0  0  0  0  0  0  0  0  0  0  0
    4.6812   -2.7463   -1.3539 C   0  0  1  0  0  0  0  0  0  0  0  0
    5.0456   -3.4487   -2.6795 C   0  0  0  0  0  0  0  0  0  0  0  0
    4.7569   -3.6344   -0.0762 C   0  0  2  0  0  0  0  0  0  0  0  0
    4.1524   -5.0323   -0.2897 C   0  0  0  0  0  0  0  0  0  0  0  0
    4.1086   -5.9348    0.9518 C   0  0  0  0  0  0  0  0  0  0  0  0
    3.5500   -5.2716    2.2295 C   0  0  1  0  0  0  0  0  0  0  0  0
    3.0297   -6.3431    3.1993 C   0  0  0  0  0  0  0  0  0  0  0  0
    4.5299   -4.5839    2.9842 O   0  0  0  0  0  0  0  0  0  0  0  0
    5.0762   -3.3663    2.2571 O   0  0  0  0  0  0  0  0  0  0  0  0
    4.2278   -2.8829    1.2107 C   0  0  1  0  0  0  0  0  0  0  0  0
    2.6932   -3.1914    1.4321 C   0  0  2  0  0  0  0  0  0  0  0  0
    1.9929   -2.1924    2.1163 O   0  0  0  0  0  0  0  0  0  0  0  0
    2.4340   -4.4592    1.9544 O   0  0  0  0  0  0  0  0  0  0  0  0
   -1.9954   -1.1935    6.0741 H   0  0  0  0  0  0  0  0  0  0  0  0
   -1.7785   -1.5139    4.3600 H   0  0  0  0  0  0  0  0  0  0  0  0
   -0.6661   -0.4486    5.1967 H   0  0  0  0  0  0  0  0  0  0  0  0
    0.1530   -2.3617    6.6001 H   0  0  0  0  0  0  0  0  0  0  0  0
   -0.9579   -3.4431    5.8037 H   0  0  0  0  0  0  0  0  0  0  0  0
    1.3594   -3.6713    4.9104 H   0  0  0  0  0  0  0  0  0  0  0  0
    0.2175   -3.1993    3.6578 H   0  0  0  0  0  0  0  0  0  0  0  0
    3.1976   -2.5869    3.7669 H   0  0  0  0  0  0  0  0  0  0  0  0
    2.4023    0.1559    2.6612 H   0  0  0  0  0  0  0  0  0  0  0  0
    3.2621    0.0011    4.1741 H   0  0  0  0  0  0  0  0  0  0  0  0
    4.5677    0.5247    2.0882 H   0  0  0  0  0  0  0  0  0  0  0  0
    5.5837   -1.6326    3.9407 H   0  0  0  0  0  0  0  0  0  0  0  0
    5.6976    0.1073    4.0905 H   0  0  0  0  0  0  0  0  0  0  0  0
    6.6035   -0.7003    2.8355 H   0  0  0  0  0  0  0  0  0  0  0  0
    3.5803   -0.9400    0.5190 H   0  0  0  0  0  0  0  0  0  0  0  0
    5.8778    0.0726    0.2538 H   0  0  0  0  0  0  0  0  0  0  0  0
    6.5506   -1.4781    0.6968 H   0  0  0  0  0  0  0  0  0  0  0  0
    5.0831   -0.6827   -1.8025 H   0  0  0  0  0  0  0  0  0  0  0  0
    6.5287   -1.6467   -1.6268 H   0  0  0  0  0  0  0  0  0  0  0  0
    3.6456   -2.4244   -1.4533 H   0  0  0  0  0  0  0  0  0  0  0  0
    6.0574   -3.8508   -2.6569 H   0  0  0  0  0  0  0  0  0  0  0  0
    4.9981   -2.7422   -3.5084 H   0  0  0  0  0  0  0  0  0  0  0  0
    4.3546   -4.2581   -2.9185 H   0  0  0  0  0  0  0  0  0  0  0  0
    5.8206   -3.8101    0.0924 H   0  0  0  0  0  0  0  0  0  0  0  0
    3.1467   -4.9353   -0.6963 H   0  0  0  0  0  0  0  0  0  0  0  0
    4.7228   -5.5625   -1.0514 H   0  0  0  0  0  0  0  0  0  0  0  0
    3.4847   -6.7912    0.6855 H   0  0  0  0  0  0  0  0  0  0  0  0
    5.0931   -6.3596    1.1547 H   0  0  0  0  0  0  0  0  0  0  0  0
    2.6494   -5.8704    4.1078 H   0  0  0  0  0  0  0  0  0  0  0  0
    3.8221   -7.0370    3.4923 H   0  0  0  0  0  0  0  0  0  0  0  0
    2.2160   -6.9284    2.7669 H   0  0  0  0  0  0  0  0  0  0  0  0
    2.2156   -3.1689    0.4573 H   0  0  0  0  0  0  0  0  0  0  0  0
  1  2  1  0
  1 25  1  0
  1 26  1  0
  1 27  1  0
  2  3  1  0
  2 28  1  0
  2 29  1  0
  3  4  1  0
  3 30  1  0
  3 31  1  0
  4  5  1  0
  5 23  1  0
  5  6  1  0
  5 32  1  1
  6  7  1  0
  6 33  1  0
  6 34  1  0
  7  8  1  0
  7  9  1  0
  7 35  1  6
  8 36  1  0
  8 37  1  0
  8 38  1  0
  9 21  1  0
  9 10  1  0
  9 39  1  6
 10 11  1  0
 10 40  1  0
 10 41  1  0
 11 12  1  0
 11 42  1  0
 11 43  1  0
 12 13  1  0
 12 14  1  0
 12 44  1  6
 13 45  1  0
 13 46  1  0
 13 47  1  0
 14 21  1  0
 14 15  1  0
 14 48  1  1
 15 16  1  0
 15 49  1  0
 15 50  1  0
 16 17  1  0
 16 51  1  0
 16 52  1  0
 17 24  1  0
 17 18  1  1
 17 19  1  0
 18 53  1  0
 18 54  1  0
 18 55  1  0
 19 20  1  0
 21 20  1  1
 21 22  1  0
 22 23  1  0
 22 24  1  0
 22 56  1  6
M  END
>  <i_m_ct_stereo_status>  (211) 
1

>  <s_m_source_file>  (211) 
/var/tmp/pbs.5076255.sched01/tmpnx1894nc/68p53si2vm.sdf

>  <i_m_source_file_index>  (211) 
16

>  <i_lp_mmshare_version>  (211) 
48012

>  <i_f3d_flags>  (211) 
0

>  <s_epik_input>  (211) 
W0NIM11bQ0gyXVtDSDJdT1tDQEhdKFtDSDJdW0NAQEhdKFtDSDNdKVtDQEBIXTFbQ0BAXTIzNClPW0NAQEhdNE9bQ0BdKFtDSDNdKShPTzMpW0NIMl1bQ0gyXVtDQEhdMltDQEhdKFtDSDNdKVtDSDJdW0NIMl0x

>  <s_epik_cmdline>  (211) 
J2VwaWtfcHl0aG9uJywgJy1waHQnLCAnMi4wJywgJy1waCcsICc3LjAnLCAnLXRuJywgJzgnLCAnLW1hJywgJzIwMCcsICctaW1hZScsICc8aW5maWxlLm1hZT4nLCAnLW9tYWUnLCAnPG91dGZpbGUubWFlPic=

>  <r_lp_tautomer_probability>  (211) 
1

>  <r_epik_Ionization_Penalty>  (211) 
1.65606e-12

>  <r_epik_Ionization_Penalty_Charging>  (211) 
0

>  <r_epik_Ionization_Penalty_Neutral>  (211) 
1.65606e-12

>  <r_epik_State_Penalty>  (211) 
-0

>  <r_epik_Charging_Adjusted_Penalty>  (211) 
0

>  <i_epik_Tot_Q>  (211) 
0

>  <i_epik_Tot_abs_Q>  (211) 
0

>  <s_epik_Chemistry_Notes>  (211) 
This compound contains an acetal/aminal-like group ( X-CH(R)-Y where X, Y are N, S, or O) that may be acid/base labile, releasing an aldehyde.

>  <s_lp_Force_Field>  (211) 
OPLS3e

>  <r_lp_Energy>  (211) 
42.5285

>  <b_lp_Chiralities_Consistent>  (211) 
1

>  <s_lp_Variant>  (211) 
64:0-1

>  <s_i_glide_gridfile>  (211) 
pfpi4k_grid

>  <i_i_glide_lignum>  (211) 
16

>  <i_i_glide_rotatable_bonds>  (211) 
3

>  <r_i_docking_score>  (211) 
-2.23464

>  <r_i_glide_ligand_efficiency>  (211) 
-0.0931102

>  <r_i_glide_ligand_efficiency_sa>  (211) 
-0.268576

>  <r_i_glide_ligand_efficiency_ln>  (211) 
-0.534853

>  <r_i_glide_gscore>  (211) 
-2.23464

>  <r_i_glide_lipo>  (211) 
-0.571555

>  <r_i_glide_hbond>  (211) 
0

>  <r_i_glide_metal>  (211) 
-0

>  <r_i_glide_rewards>  (211) 
-1.09032

>  <r_i_glide_evdw>  (211) 
-19.5262

>  <r_i_glide_ecoul>  (211) 
0.584783

>  <r_i_glide_erotb>  (211) 
0.326766

>  <r_i_glide_esite>  (211) 
-0.0109443

>  <r_i_glide_emodel>  (211) 
-20.6767

>  <r_i_glide_energy>  (211) 
-18.9414

>  <r_i_glide_einternal>  (211) 
1.21178

>  <r_i_glide_intrahb_reward>  (211) 
-0

>  <i_i_glide_confnum>  (211) 
3

>  <i_i_glide_posenum>  (211) 
34

>  <r_i_glide_eff_state_penalty>  (211) 
0

>  <ligand_id>  (211) 
64

>  <original_smiles>  (211) 
CCCOC1CC(C)C2CCC(C)C3CCC4(C)OOC32C(O1)O4

>  <smiles>  (211) 
[H]C([H])([H])C([H])([H])C([H])([H])OC1([H])OC2([H])OC3(C([H])([H])[H])OOC24C([H])(C([H])([H])C([H])([H])C([H])(C([H])([H])[H])C4([H])C([H])([H])C3([H])[H])C([H])(C([H])([H])[H])C1([H])[H]

$$$$
65:0:0
     RDKit          3D

 84 88  0  0  1  0  0  0  0  0999 V2000
    3.4884  -11.2107    5.8862 C   0  0  0  0  0  0  0  0  0  0  0  0
    4.0887  -10.5393    4.8811 C   0  0  0  0  0  0  0  0  0  0  0  0
    3.8721  -10.9925    3.4473 C   0  0  0  0  0  0  0  0  0  0  0  0
    5.0043   -9.3405    5.1275 C   0  0  2  0  0  0  0  0  0  0  0  0
    4.5552   -8.0881    4.3783 C   0  0  0  0  0  0  0  0  0  0  0  0
    5.2872   -7.4143    3.4622 C   0  0  0  0  0  0  0  0  0  0  0  0
    4.8579   -6.0108    2.9881 C   0  0  1  0  0  0  0  0  0  0  0  0
    5.3581   -4.9608    3.9877 C   0  0  0  0  0  0  0  0  0  0  0  0
    4.9001   -3.5649    3.6033 C   0  0  0  0  0  0  0  0  0  0  0  0
    5.4106   -3.1132    2.2064 C   0  0  2  0  0  0  0  0  0  0  0  0
    5.1421   -1.5742    1.9329 C   0  0  2  0  0  0  0  0  0  0  0  0
    6.0859   -1.0283    0.8286 C   0  0  0  0  0  0  0  0  0  0  0  0
    5.3660   -0.6695    3.1695 C   0  0  0  0  0  0  0  0  0  0  0  0
    4.0356   -0.5136    3.9048 C   0  0  0  0  0  0  0  0  0  0  0  0
    2.9242   -0.8854    2.9124 C   0  0  1  0  0  0  0  0  0  0  0  0
    1.7911    0.1905    2.8177 C   0  0  0  0  0  0  0  0  0  0  0  0
    1.1813    0.5003    4.2014 C   0  0  0  0  0  0  0  0  0  0  0  0
    2.1862    1.5043    2.1207 C   0  0  0  0  0  0  0  0  0  0  0  0
    0.7173   -0.3489    2.0821 O   0  0  0  0  0  0  0  0  0  0  0  0
    3.6672   -1.2613    1.5975 C   0  0  2  0  0  0  0  0  0  0  0  0
    2.9735   -2.3362    0.7306 C   0  0  1  0  0  0  0  0  0  0  0  0
    3.0188   -1.9078   -0.6145 O   0  0  0  0  0  0  0  0  0  0  0  0
    3.3815   -3.8289    0.9149 C   0  0  1  0  0  0  0  0  0  0  0  0
    2.7527   -4.5217   -0.1464 O   0  0  0  0  0  0  0  0  0  0  0  0
    4.9187   -4.1313    1.0932 C   0  0  1  0  0  0  0  0  0  0  0  0
    5.6435   -3.8710   -0.2665 C   0  0  0  0  0  0  0  0  0  0  0  0
    5.2755   -5.6559    1.5270 C   0  0  2  0  0  0  0  0  0  0  0  0
    4.4936   -6.6733    0.6379 C   0  0  0  0  0  0  0  0  0  0  0  0
    6.8258   -5.9235    1.3804 C   0  0  0  0  0  0  0  0  0  0  0  0
    7.5345   -6.8134    2.4423 C   0  0  0  0  0  0  0  0  0  0  0  0
    6.6726   -7.9479    3.0290 C   0  0  2  0  0  0  0  0  0  0  0  0
    6.5800   -9.0586    1.9539 C   0  0  0  0  0  0  0  0  0  0  0  0
    7.3350   -8.5463    4.2972 C   0  0  0  0  0  0  0  0  0  0  0  0
    6.5009   -9.6908    4.9068 C   0  0  0  0  0  0  0  0  0  0  0  0
    2.8598  -12.0630    5.6701 H   0  0  0  0  0  0  0  0  0  0  0  0
    3.6175  -10.9384    6.9270 H   0  0  0  0  0  0  0  0  0  0  0  0
    4.8130  -11.3327    3.0218 H   0  0  0  0  0  0  0  0  0  0  0  0
    3.4669  -10.1832    2.8409 H   0  0  0  0  0  0  0  0  0  0  0  0
    3.1833  -11.8357    3.3871 H   0  0  0  0  0  0  0  0  0  0  0  0
    4.9085   -9.0719    6.1838 H   0  0  0  0  0  0  0  0  0  0  0  0
    3.6160   -7.6723    4.7112 H   0  0  0  0  0  0  0  0  0  0  0  0
    3.7686   -5.9965    3.0418 H   0  0  0  0  0  0  0  0  0  0  0  0
    4.9827   -5.1962    4.9837 H   0  0  0  0  0  0  0  0  0  0  0  0
    6.4417   -4.9619    4.0778 H   0  0  0  0  0  0  0  0  0  0  0  0
    3.8153   -3.5269    3.6671 H   0  0  0  0  0  0  0  0  0  0  0  0
    5.2771   -2.9163    4.3937 H   0  0  0  0  0  0  0  0  0  0  0  0
    6.4912   -3.1997    2.2628 H   0  0  0  0  0  0  0  0  0  0  0  0
    6.1512    0.0601    0.8429 H   0  0  0  0  0  0  0  0  0  0  0  0
    5.7347   -1.2478   -0.1746 H   0  0  0  0  0  0  0  0  0  0  0  0
    7.1035   -1.4060    0.9429 H   0  0  0  0  0  0  0  0  0  0  0  0
    6.1739   -1.0011    3.8135 H   0  0  0  0  0  0  0  0  0  0  0  0
    5.6514    0.3388    2.8687 H   0  0  0  0  0  0  0  0  0  0  0  0
    3.9844   -1.1620    4.7801 H   0  0  0  0  0  0  0  0  0  0  0  0
    3.9651    0.5072    4.2797 H   0  0  0  0  0  0  0  0  0  0  0  0
    2.4601   -1.7934    3.2986 H   0  0  0  0  0  0  0  0  0  0  0  0
    1.8845    0.9974    4.8685 H   0  0  0  0  0  0  0  0  0  0  0  0
    0.8386   -0.4089    4.6977 H   0  0  0  0  0  0  0  0  0  0  0  0
    0.3236    1.1695    4.1077 H   0  0  0  0  0  0  0  0  0  0  0  0
    3.0246    1.9912    2.6141 H   0  0  0  0  0  0  0  0  0  0  0  0
    1.3546    2.2102    2.1131 H   0  0  0  0  0  0  0  0  0  0  0  0
    2.4496    1.3451    1.0790 H   0  0  0  0  0  0  0  0  0  0  0  0
    0.9330   -0.3252    1.1497 H   0  0  0  0  0  0  0  0  0  0  0  0
    3.7060   -0.3465    1.0048 H   0  0  0  0  0  0  0  0  0  0  0  0
    1.9092   -2.2918    0.9426 H   0  0  0  0  0  0  0  0  0  0  0  0
    2.1435   -1.5098   -0.7716 H   0  0  0  0  0  0  0  0  0  0  0  0
    2.8723   -4.1765    1.8096 H   0  0  0  0  0  0  0  0  0  0  0  0
    3.2006   -4.2832   -0.9604 H   0  0  0  0  0  0  0  0  0  0  0  0
    5.6725   -4.7458   -0.9108 H   0  0  0  0  0  0  0  0  0  0  0  0
    6.6799   -3.5622   -0.1307 H   0  0  0  0  0  0  0  0  0  0  0  0
    5.1650   -3.1148   -0.8749 H   0  0  0  0  0  0  0  0  0  0  0  0
    4.6177   -6.5209   -0.4300 H   0  0  0  0  0  0  0  0  0  0  0  0
    3.4278   -6.6450    0.8471 H   0  0  0  0  0  0  0  0  0  0  0  0
    4.7510   -7.7060    0.8214 H   0  0  0  0  0  0  0  0  0  0  0  0
    7.0040   -6.3647    0.4067 H   0  0  0  0  0  0  0  0  0  0  0  0
    7.3951   -4.9848    1.3664 H   0  0  0  0  0  0  0  0  0  0  0  0
    8.4380   -7.2455    2.0009 H   0  0  0  0  0  0  0  0  0  0  0  0
    7.9050   -6.1883    3.2526 H   0  0  0  0  0  0  0  0  0  0  0  0
    7.3931   -9.7736    2.0708 H   0  0  0  0  0  0  0  0  0  0  0  0
    6.6504   -8.6804    0.9352 H   0  0  0  0  0  0  0  0  0  0  0  0
    5.6418   -9.6019    2.0331 H   0  0  0  0  0  0  0  0  0  0  0  0
    8.3343   -8.9120    4.0715 H   0  0  0  0  0  0  0  0  0  0  0  0
    7.4633   -7.7655    5.0479 H   0  0  0  0  0  0  0  0  0  0  0  0
    6.9345  -10.0041    5.8577 H   0  0  0  0  0  0  0  0  0  0  0  0
    6.5834  -10.5674    4.2680 H   0  0  0  0  0  0  0  0  0  0  0  0
  1  2  2  0
  1 35  1  0
  1 36  1  0
  2  3  1  0
  2  4  1  0
  3 37  1  0
  3 38  1  0
  3 39  1  0
  4 34  1  0
  4  5  1  0
  4 40  1  1
  5  6  2  0
  5 41  1  0
  6 31  1  0
  6  7  1  0
  7 27  1  0
  7  8  1  0
  7 42  1  6
  8  9  1  0
  8 43  1  0
  8 44  1  0
  9 10  1  0
  9 45  1  0
  9 46  1  0
 10 25  1  0
 10 11  1  0
 10 47  1  1
 11 20  1  0
 11 12  1  6
 11 13  1  0
 12 48  1  0
 12 49  1  0
 12 50  1  0
 13 14  1  0
 13 51  1  0
 13 52  1  0
 14 15  1  0
 14 53  1  0
 14 54  1  0
 15 16  1  0
 15 20  1  0
 15 55  1  1
 16 17  1  0
 16 18  1  0
 16 19  1  0
 17 56  1  0
 17 57  1  0
 17 58  1  0
 18 59  1  0
 18 60  1  0
 18 61  1  0
 19 62  1  0
 20 21  1  0
 20 63  1  6
 21 22  1  0
 21 23  1  0
 21 64  1  1
 22 65  1  0
 23 24  1  0
 23 25  1  0
 23 66  1  1
 24 67  1  0
 25 26  1  6
 25 27  1  0
 26 68  1  0
 26 69  1  0
 26 70  1  0
 27 28  1  6
 27 29  1  0
 28 71  1  0
 28 72  1  0
 28 73  1  0
 29 30  1  0
 29 74  1  0
 29 75  1  0
 30 31  1  0
 30 76  1  0
 30 77  1  0
 31 32  1  6
 31 33  1  0
 32 78  1  0
 32 79  1  0
 32 80  1  0
 33 34  1  0
 33 81  1  0
 33 82  1  0
 34 83  1  0
 34 84  1  0
M  END
>  <i_m_ct_stereo_status>  (212) 
1

>  <s_m_source_file>  (212) 
/var/tmp/pbs.5076255.sched01/tmpnx1894nc/68p53si2vm.sdf

>  <i_m_source_file_index>  (212) 
17

>  <i_lp_mmshare_version>  (212) 
48012

>  <i_f3d_flags>  (212) 
0

>  <s_epik_input>  (212) 
W0NIMl09QyhbQ0gzXSlbQ0BIXShbQ0hdPTEpW0NIMl1bQ0gyXVtDQF0oW0NIM10pKFtDSDJdW0NIMl0yKUMxW0NAQEhdKFtDSDJdW0NIMl0zKVtDQEBdMihbQ0gzXSlbQ0BdKFtDSDNdKShbQ0BIXTNbQ0BdNDVbQ0gzXSlbQ0BIXShbT0hdKVtDQEhdKFtPSF0pW0NASF01W0NAQEhdKFtDSDJdW0NIMl00KUMoW0NIM10pKFtDSDNdKVtPSF0=

>  <s_epik_cmdline>  (212) 
J2VwaWtfcHl0aG9uJywgJy1waHQnLCAnMi4wJywgJy1waCcsICc3LjAnLCAnLXRuJywgJzgnLCAnLW1hJywgJzIwMCcsICctaW1hZScsICc8aW5maWxlLm1hZT4nLCAnLW9tYWUnLCAnPG91dGZpbGUubWFlPic=

>  <r_lp_tautomer_probability>  (212) 
1

>  <r_epik_Ionization_Penalty>  (212) 
3.00688e-06

>  <r_epik_Ionization_Penalty_Charging>  (212) 
0

>  <r_epik_Ionization_Penalty_Neutral>  (212) 
3.00688e-06

>  <r_epik_State_Penalty>  (212) 
-0

>  <r_epik_Charging_Adjusted_Penalty>  (212) 
0

>  <i_epik_Tot_Q>  (212) 
0

>  <i_epik_Tot_abs_Q>  (212) 
0

>  <s_lp_Force_Field>  (212) 
OPLS3e

>  <r_lp_Energy>  (212) 
85.3046

>  <b_lp_Chiralities_Consistent>  (212) 
1

>  <s_lp_Variant>  (212) 
65:0-1

>  <s_i_glide_gridfile>  (212) 
pfpi4k_grid

>  <i_i_glide_lignum>  (212) 
17

>  <i_i_glide_rotatable_bonds>  (212) 
5

>  <r_i_docking_score>  (212) 
-3.63812

>  <r_i_glide_ligand_efficiency>  (212) 
-0.107004

>  <r_i_glide_ligand_efficiency_sa>  (212) 
-0.34665

>  <r_i_glide_ligand_efficiency_ln>  (212) 
-0.803764

>  <r_i_glide_gscore>  (212) 
-3.63812

>  <r_i_glide_lipo>  (212) 
-0.911724

>  <r_i_glide_hbond>  (212) 
-0.152505

>  <r_i_glide_metal>  (212) 
-0

>  <r_i_glide_rewards>  (212) 
-0.199589

>  <r_i_glide_evdw>  (212) 
-26.5152

>  <r_i_glide_ecoul>  (212) 
-8.20622

>  <r_i_glide_erotb>  (212) 
0.182389

>  <r_i_glide_esite>  (212) 
0

>  <r_i_glide_emodel>  (212) 
-41.9177

>  <r_i_glide_energy>  (212) 
-34.7215

>  <r_i_glide_einternal>  (212) 
2.76194

>  <r_i_glide_intrahb_reward>  (212) 
-0

>  <i_i_glide_confnum>  (212) 
3

>  <i_i_glide_posenum>  (212) 
16

>  <r_i_glide_eff_state_penalty>  (212) 
0

>  <ligand_id>  (212) 
65

>  <original_smiles>  (212) 
C=C(C)C1C=C2C3CCC4C5(C)CCC(C(C)(C)O)C5C(O)C(O)C4(C)C3(C)CCC2(C)CC1

>  <smiles>  (212) 
[H]OC1([H])C([H])(O[H])C2(C([H])([H])[H])C([H])(C([H])([H])C([H])([H])C3([H])C4=C([H])C([H])(C(=C([H])[H])C([H])([H])[H])C([H])([H])C([H])([H])C4(C([H])([H])[H])C([H])([H])C([H])([H])C32C([H])([H])[H])C2(C([H])([H])[H])C([H])([H])C([H])([H])C([H])(C(O[H])(C([H])([H])[H])C([H])([H])[H])C12[H]

$$$$
65:0:1
     RDKit          3D

 84 88  0  0  1  0  0  0  0  0999 V2000
    0.6640  -10.0106    2.4995 C   0  0  0  0  0  0  0  0  0  0  0  0
    1.2865  -10.3167    3.6564 C   0  0  0  0  0  0  0  0  0  0  0  0
    1.0148  -11.6380    4.3546 C   0  0  0  0  0  0  0  0  0  0  0  0
    2.2846   -9.4014    4.3639 C   0  0  2  0  0  0  0  0  0  0  0  0
    2.2413   -7.9532    3.8803 C   0  0  0  0  0  0  0  0  0  0  0  0
    3.2805   -7.2853    3.3294 C   0  0  0  0  0  0  0  0  0  0  0  0
    3.2111   -5.7550    3.1412 C   0  0  1  0  0  0  0  0  0  0  0  0
    3.6036   -5.0601    4.4524 C   0  0  0  0  0  0  0  0  0  0  0  0
    3.4740   -3.5524    4.3362 C   0  0  0  0  0  0  0  0  0  0  0  0
    4.3947   -2.9447    3.2409 C   0  0  2  0  0  0  0  0  0  0  0  0
    4.4397   -1.3555    3.3058 C   0  0  2  0  0  0  0  0  0  0  0  0
    5.6970   -0.7973    2.5853 C   0  0  0  0  0  0  0  0  0  0  0  0
    4.4797   -0.7992    4.7534 C   0  0  0  0  0  0  0  0  0  0  0  0
    3.0371   -0.5203    5.2055 C   0  0  0  0  0  0  0  0  0  0  0  0
    2.1669   -0.4431    3.9310 C   0  0  1  0  0  0  0  0  0  0  0  0
    1.2956    0.8595    3.8329 C   0  0  0  0  0  0  0  0  0  0  0  0
    0.5103    0.9729    2.5143 C   0  0  0  0  0  0  0  0  0  0  0  0
    0.3066    0.9905    5.0113 C   0  0  0  0  0  0  0  0  0  0  0  0
    2.1339    1.9957    3.8811 O   0  0  0  0  0  0  0  0  0  0  0  0
    3.1568   -0.6885    2.7606 C   0  0  2  0  0  0  0  0  0  0  0  0
    2.5613   -1.3934    1.5224 C   0  0  1  0  0  0  0  0  0  0  0  0
    3.0384   -0.7187    0.3805 O   0  0  0  0  0  0  0  0  0  0  0  0
    2.6859   -2.9399    1.3962 C   0  0  1  0  0  0  0  0  0  0  0  0
    2.3095   -3.2243    0.0551 O   0  0  0  0  0  0  0  0  0  0  0  0
    4.0521   -3.5898    1.8279 C   0  0  1  0  0  0  0  0  0  0  0  0
    5.1279   -3.2206    0.7565 C   0  0  0  0  0  0  0  0  0  0  0  0
    4.0336   -5.2120    1.9319 C   0  0  2  0  0  0  0  0  0  0  0  0
    3.3449   -5.8340    0.6755 C   0  0  0  0  0  0  0  0  0  0  0  0
    5.5032   -5.7773    2.0335 C   0  0  0  0  0  0  0  0  0  0  0  0
    5.7689   -6.9907    2.9703 C   0  0  0  0  0  0  0  0  0  0  0  0
    4.6131   -8.0087    3.0718 C   0  0  2  0  0  0  0  0  0  0  0  0
    4.5894   -8.8638    1.7737 C   0  0  0  0  0  0  0  0  0  0  0  0
    4.8395   -8.9733    4.2625 C   0  0  0  0  0  0  0  0  0  0  0  0
    3.7072  -10.0121    4.3762 C   0  0  0  0  0  0  0  0  0  0  0  0
   -0.0339  -10.7064    2.0574 H   0  0  0  0  0  0  0  0  0  0  0  0
    0.8370   -9.0808    1.9771 H   0  0  0  0  0  0  0  0  0  0  0  0
    0.6144  -11.4669    5.3551 H   0  0  0  0  0  0  0  0  0  0  0  0
    1.9328  -12.2246    4.4510 H   0  0  0  0  0  0  0  0  0  0  0  0
    0.2968  -12.2438    3.8013 H   0  0  0  0  0  0  0  0  0  0  0  0
    1.9532   -9.3386    5.4011 H   0  0  0  0  0  0  0  0  0  0  0  0
    1.3342   -7.4201    4.1044 H   0  0  0  0  0  0  0  0  0  0  0  0
    2.1619   -5.5168    2.9653 H   0  0  0  0  0  0  0  0  0  0  0  0
    2.9549   -5.4101    5.2562 H   0  0  0  0  0  0  0  0  0  0  0  0
    4.6208   -5.2904    4.7606 H   0  0  0  0  0  0  0  0  0  0  0  0
    2.4272   -3.2951    4.1748 H   0  0  0  0  0  0  0  0  0  0  0  0
    3.7323   -3.1762    5.3218 H   0  0  0  0  0  0  0  0  0  0  0  0
    5.3977   -3.2691    3.5137 H   0  0  0  0  0  0  0  0  0  0  0  0
    5.9414    0.2170    2.8959 H   0  0  0  0  0  0  0  0  0  0  0  0
    5.5744   -0.7240    1.5086 H   0  0  0  0  0  0  0  0  0  0  0  0
    6.5784   -1.4039    2.7827 H   0  0  0  0  0  0  0  0  0  0  0  0
    5.0397   -1.4283    5.4451 H   0  0  0  0  0  0  0  0  0  0  0  0
    4.9873    0.1650    4.7806 H   0  0  0  0  0  0  0  0  0  0  0  0
    2.6695   -1.3060    5.8650 H   0  0  0  0  0  0  0  0  0  0  0  0
    3.0145    0.3972    5.7943 H   0  0  0  0  0  0  0  0  0  0  0  0
    1.4793   -1.2854    3.9639 H   0  0  0  0  0  0  0  0  0  0  0  0
   -0.1787    0.1381    2.4036 H   0  0  0  0  0  0  0  0  0  0  0  0
    1.1717    0.9908    1.6492 H   0  0  0  0  0  0  0  0  0  0  0  0
   -0.0821    1.8869    2.4677 H   0  0  0  0  0  0  0  0  0  0  0  0
   -0.3658    0.1325    5.0625 H   0  0  0  0  0  0  0  0  0  0  0  0
   -0.3140    1.8828    4.9033 H   0  0  0  0  0  0  0  0  0  0  0  0
    0.8160    1.0723    5.9743 H   0  0  0  0  0  0  0  0  0  0  0  0
    1.6449    2.7399    3.5593 H   0  0  0  0  0  0  0  0  0  0  0  0
    3.4528    0.3179    2.4541 H   0  0  0  0  0  0  0  0  0  0  0  0
    1.4930   -1.2052    1.5053 H   0  0  0  0  0  0  0  0  0  0  0  0
    2.3076   -0.6505   -0.2315 H   0  0  0  0  0  0  0  0  0  0  0  0
    1.9023   -3.3586    2.0239 H   0  0  0  0  0  0  0  0  0  0  0  0
    1.9362   -2.4314   -0.3162 H   0  0  0  0  0  0  0  0  0  0  0  0
    5.1750   -3.9317   -0.0649 H   0  0  0  0  0  0  0  0  0  0  0  0
    6.1301   -3.1660    1.1753 H   0  0  0  0  0  0  0  0  0  0  0  0
    4.9392   -2.2755    0.2623 H   0  0  0  0  0  0  0  0  0  0  0  0
    3.7583   -5.4988   -0.2716 H   0  0  0  0  0  0  0  0  0  0  0  0
    2.2804   -5.6220    0.6555 H   0  0  0  0  0  0  0  0  0  0  0  0
    3.3862   -6.9105    0.6472 H   0  0  0  0  0  0  0  0  0  0  0  0
    5.8488   -6.0336    1.0298 H   0  0  0  0  0  0  0  0  0  0  0  0
    6.1932   -5.0067    2.3738 H   0  0  0  0  0  0  0  0  0  0  0  0
    6.6737   -7.4993    2.6384 H   0  0  0  0  0  0  0  0  0  0  0  0
    6.0121   -6.6310    3.9695 H   0  0  0  0  0  0  0  0  0  0  0  0
    5.2693   -9.7127    1.8478 H   0  0  0  0  0  0  0  0  0  0  0  0
    4.9195   -8.3134    0.8944 H   0  0  0  0  0  0  0  0  0  0  0  0
    3.5959   -9.2700    1.5692 H   0  0  0  0  0  0  0  0  0  0  0  0
    5.7939   -9.4876    4.1663 H   0  0  0  0  0  0  0  0  0  0  0  0
    4.8949   -8.4046    5.1889 H   0  0  0  0  0  0  0  0  0  0  0  0
    3.8350  -10.6005    5.2854 H   0  0  0  0  0  0  0  0  0  0  0  0
    3.8024  -10.7305    3.5609 H   0  0  0  0  0  0  0  0  0  0  0  0
  1  2  2  0
  1 35  1  0
  1 36  1  0
  2  3  1  0
  2  4  1  0
  3 37  1  0
  3 38  1  0
  3 39  1  0
  4 34  1  0
  4  5  1  0
  4 40  1  1
  5  6  2  0
  5 41  1  0
  6 31  1  0
  6  7  1  0
  7 27  1  0
  7  8  1  0
  7 42  1  6
  8  9  1  0
  8 43  1  0
  8 44  1  0
  9 10  1  0
  9 45  1  0
  9 46  1  0
 10 25  1  0
 10 11  1  0
 10 47  1  1
 11 20  1  0
 11 12  1  6
 11 13  1  0
 12 48  1  0
 12 49  1  0
 12 50  1  0
 13 14  1  0
 13 51  1  0
 13 52  1  0
 14 15  1  0
 14 53  1  0
 14 54  1  0
 15 16  1  0
 15 20  1  0
 15 55  1  1
 16 17  1  0
 16 18  1  0
 16 19  1  0
 17 56  1  0
 17 57  1  0
 17 58  1  0
 18 59  1  0
 18 60  1  0
 18 61  1  0
 19 62  1  0
 20 21  1  0
 20 63  1  6
 21 22  1  0
 21 23  1  0
 21 64  1  1
 22 65  1  0
 23 24  1  0
 23 25  1  0
 23 66  1  1
 24 67  1  0
 25 26  1  6
 25 27  1  0
 26 68  1  0
 26 69  1  0
 26 70  1  0
 27 28  1  6
 27 29  1  0
 28 71  1  0
 28 72  1  0
 28 73  1  0
 29 30  1  0
 29 74  1  0
 29 75  1  0
 30 31  1  0
 30 76  1  0
 30 77  1  0
 31 32  1  6
 31 33  1  0
 32 78  1  0
 32 79  1  0
 32 80  1  0
 33 34  1  0
 33 81  1  0
 33 82  1  0
 34 83  1  0
 34 84  1  0
M  END
>  <i_m_ct_stereo_status>  (213) 
1

>  <s_m_source_file>  (213) 
/var/tmp/pbs.5076255.sched01/tmpnx1894nc/68p53si2vm.sdf

>  <i_m_source_file_index>  (213) 
17

>  <i_lp_mmshare_version>  (213) 
48012

>  <i_f3d_flags>  (213) 
0

>  <s_epik_input>  (213) 
W0NIMl09QyhbQ0gzXSlbQ0BIXShbQ0hdPTEpW0NIMl1bQ0gyXVtDQF0oW0NIM10pKFtDSDJdW0NIMl0yKUMxW0NAQEhdKFtDSDJdW0NIMl0zKVtDQEBdMihbQ0gzXSlbQ0BdKFtDSDNdKShbQ0BIXTNbQ0BdNDVbQ0gzXSlbQ0BIXShbT0hdKVtDQEhdKFtPSF0pW0NASF01W0NAQEhdKFtDSDJdW0NIMl00KUMoW0NIM10pKFtDSDNdKVtPSF0=

>  <s_epik_cmdline>  (213) 
J2VwaWtfcHl0aG9uJywgJy1waHQnLCAnMi4wJywgJy1waCcsICc3LjAnLCAnLXRuJywgJzgnLCAnLW1hJywgJzIwMCcsICctaW1hZScsICc8aW5maWxlLm1hZT4nLCAnLW9tYWUnLCAnPG91dGZpbGUubWFlPic=

>  <r_lp_tautomer_probability>  (213) 
1

>  <r_epik_Ionization_Penalty>  (213) 
3.00688e-06

>  <r_epik_Ionization_Penalty_Charging>  (213) 
0

>  <r_epik_Ionization_Penalty_Neutral>  (213) 
3.00688e-06

>  <r_epik_State_Penalty>  (213) 
-0

>  <r_epik_Charging_Adjusted_Penalty>  (213) 
0

>  <i_epik_Tot_Q>  (213) 
0

>  <i_epik_Tot_abs_Q>  (213) 
0

>  <s_lp_Force_Field>  (213) 
OPLS3e

>  <r_lp_Energy>  (213) 
85.3046

>  <b_lp_Chiralities_Consistent>  (213) 
1

>  <s_lp_Variant>  (213) 
65:0-1

>  <s_i_glide_gridfile>  (213) 
pfpi4k_grid

>  <i_i_glide_lignum>  (213) 
17

>  <i_i_glide_rotatable_bonds>  (213) 
5

>  <r_i_docking_score>  (213) 
-2.89831

>  <r_i_glide_ligand_efficiency>  (213) 
-0.0852444

>  <r_i_glide_ligand_efficiency_sa>  (213) 
-0.276159

>  <r_i_glide_ligand_efficiency_ln>  (213) 
-0.640318

>  <r_i_glide_gscore>  (213) 
-2.89831

>  <r_i_glide_lipo>  (213) 
-0.485017

>  <r_i_glide_hbond>  (213) 
0

>  <r_i_glide_metal>  (213) 
-0

>  <r_i_glide_rewards>  (213) 
-0.199589

>  <r_i_glide_evdw>  (213) 
-25.638

>  <r_i_glide_ecoul>  (213) 
-7.06316

>  <r_i_glide_erotb>  (213) 
0.127672

>  <r_i_glide_esite>  (213) 
0

>  <r_i_glide_emodel>  (213) 
-37.9924

>  <r_i_glide_energy>  (213) 
-32.7011

>  <r_i_glide_einternal>  (213) 
3.1758

>  <r_i_glide_intrahb_reward>  (213) 
-0

>  <i_i_glide_confnum>  (213) 
5

>  <i_i_glide_posenum>  (213) 
28

>  <r_i_glide_eff_state_penalty>  (213) 
0

>  <ligand_id>  (213) 
65

>  <original_smiles>  (213) 
C=C(C)C1C=C2C3CCC4C5(C)CCC(C(C)(C)O)C5C(O)C(O)C4(C)C3(C)CCC2(C)CC1

>  <smiles>  (213) 
[H]OC1([H])C([H])(O[H])C2(C([H])([H])[H])C([H])(C([H])([H])C([H])([H])C3([H])C4=C([H])C([H])(C(=C([H])[H])C([H])([H])[H])C([H])([H])C([H])([H])C4(C([H])([H])[H])C([H])([H])C([H])([H])C32C([H])([H])[H])C2(C([H])([H])[H])C([H])([H])C([H])([H])C([H])(C(O[H])(C([H])([H])[H])C([H])([H])[H])C12[H]

$$$$
65:0:2
     RDKit          3D

 84 88  0  0  1  0  0  0  0  0999 V2000
   -2.1272   -8.9730    3.6894 C   0  0  0  0  0  0  0  0  0  0  0  0
   -0.9903   -8.3191    3.4647 C   0  0  0  0  0  0  0  0  0  0  0  0
   -0.4427   -8.3411    2.0650 C   0  0  0  0  0  0  0  0  0  0  0  0
   -0.2330   -7.5754    4.5389 C   0  0  2  0  0  0  0  0  0  0  0  0
    0.2782   -6.2201    4.0832 C   0  0  0  0  0  0  0  0  0  0  0  0
    1.5813   -5.8458    4.0213 C   0  0  0  0  0  0  0  0  0  0  0  0
    1.9427   -4.3696    3.8014 C   0  0  1  0  0  0  0  0  0  0  0  0
    1.8714   -3.6177    5.1372 C   0  0  0  0  0  0  0  0  0  0  0  0
    2.1602   -2.1431    4.9581 C   0  0  0  0  0  0  0  0  0  0  0  0
    3.5708   -1.8560    4.3726 C   0  0  2  0  0  0  0  0  0  0  0  0
    3.9455   -0.3131    4.4354 C   0  0  2  0  0  0  0  0  0  0  0  0
    5.4829   -0.1018    4.3722 C   0  0  0  0  0  0  0  0  0  0  0  0
    3.4845    0.3818    5.7456 C   0  0  0  0  0  0  0  0  0  0  0  0
    2.0927    0.9886    5.5017 C   0  0  0  0  0  0  0  0  0  0  0  0
    1.9164    1.0985    3.9763 C   0  0  1  0  0  0  0  0  0  0  0  0
    1.4800    2.5242    3.4913 C   0  0  0  0  0  0  0  0  0  0  0  0
    0.0510    2.8418    3.9715 C   0  0  0  0  0  0  0  0  0  0  0  0
    2.4361    3.6751    3.8796 C   0  0  0  0  0  0  0  0  0  0  0  0
    1.4173    2.4983    2.0749 O   0  0  0  0  0  0  0  0  0  0  0  0
    3.2223    0.5312    3.3618 C   0  0  2  0  0  0  0  0  0  0  0  0
    3.0676   -0.1668    1.9825 C   0  0  1  0  0  0  0  0  0  0  0  0
    4.1898    0.2032    1.2124 O   0  0  0  0  0  0  0  0  0  0  0  0
    2.8556   -1.7131    1.9590 C   0  0  1  0  0  0  0  0  0  0  0  0
    3.0103   -2.0884    0.5957 O   0  0  0  0  0  0  0  0  0  0  0  0
    3.7269   -2.5711    2.9627 C   0  0  1  0  0  0  0  0  0  0  0  0
    5.2084   -2.5557    2.4855 C   0  0  0  0  0  0  0  0  0  0  0  0
    3.3057   -4.1385    3.0794 C   0  0  2  0  0  0  0  0  0  0  0  0
    3.1118   -4.7616    1.6606 C   0  0  0  0  0  0  0  0  0  0  0  0
    4.4103   -4.9616    3.8631 C   0  0  0  0  0  0  0  0  0  0  0  0
    3.9635   -6.0845    4.8425 C   0  0  0  0  0  0  0  0  0  0  0  0
    2.6901   -6.8418    4.4177 C   0  0  2  0  0  0  0  0  0  0  0  0
    3.0917   -7.7944    3.2591 C   0  0  0  0  0  0  0  0  0  0  0  0
    2.1390   -7.6975    5.5849 C   0  0  0  0  0  0  0  0  0  0  0  0
    0.8609   -8.4652    5.1828 C   0  0  0  0  0  0  0  0  0  0  0  0
   -2.6090   -9.4918    2.8867 H   0  0  0  0  0  0  0  0  0  0  0  0
   -2.5617   -9.0506    4.6773 H   0  0  0  0  0  0  0  0  0  0  0  0
    0.4548   -8.9530    2.0354 H   0  0  0  0  0  0  0  0  0  0  0  0
   -0.2500   -7.3539    1.6436 H   0  0  0  0  0  0  0  0  0  0  0  0
   -1.1732   -8.8151    1.4011 H   0  0  0  0  0  0  0  0  0  0  0  0
   -0.9541   -7.3441    5.3182 H   0  0  0  0  0  0  0  0  0  0  0  0
   -0.4814   -5.4946    3.8898 H   0  0  0  0  0  0  0  0  0  0  0  0
    1.1547   -3.9545    3.1673 H   0  0  0  0  0  0  0  0  0  0  0  0
    0.8786   -3.7382    5.5642 H   0  0  0  0  0  0  0  0  0  0  0  0
    2.5653   -4.0164    5.8720 H   0  0  0  0  0  0  0  0  0  0  0  0
    1.3770   -1.7040    4.3383 H   0  0  0  0  0  0  0  0  0  0  0  0
    2.0475   -1.7167    5.9478 H   0  0  0  0  0  0  0  0  0  0  0  0
    4.2536   -2.3408    5.0688 H   0  0  0  0  0  0  0  0  0  0  0  0
    5.7932    0.8811    4.7204 H   0  0  0  0  0  0  0  0  0  0  0  0
    5.8809   -0.1610    3.3634 H   0  0  0  0  0  0  0  0  0  0  0  0
    5.9959   -0.8300    4.9968 H   0  0  0  0  0  0  0  0  0  0  0  0
    3.5326   -0.2676    6.6200 H   0  0  0  0  0  0  0  0  0  0  0  0
    4.1403    1.2215    5.9813 H   0  0  0  0  0  0  0  0  0  0  0  0
    1.3114    0.3578    5.9211 H   0  0  0  0  0  0  0  0  0  0  0  0
    2.0168    1.9396    6.0245 H   0  0  0  0  0  0  0  0  0  0  0  0
    1.1233    0.4113    3.6971 H   0  0  0  0  0  0  0  0  0  0  0  0
   -0.0098    2.9145    5.0564 H   0  0  0  0  0  0  0  0  0  0  0  0
   -0.6521    2.0742    3.6514 H   0  0  0  0  0  0  0  0  0  0  0  0
   -0.2937    3.7909    3.5618 H   0  0  0  0  0  0  0  0  0  0  0  0
    2.5706    3.7789    4.9540 H   0  0  0  0  0  0  0  0  0  0  0  0
    2.0511    4.6295    3.5217 H   0  0  0  0  0  0  0  0  0  0  0  0
    3.4198    3.5524    3.4361 H   0  0  0  0  0  0  0  0  0  0  0  0
    0.9423    3.2509    1.7273 H   0  0  0  0  0  0  0  0  0  0  0  0
    3.8365    1.4181    3.2228 H   0  0  0  0  0  0  0  0  0  0  0  0
    2.2214    0.2630    1.4593 H   0  0  0  0  0  0  0  0  0  0  0  0
    4.2104    1.1552    1.1746 H   0  0  0  0  0  0  0  0  0  0  0  0
    1.8100   -1.8890    2.1965 H   0  0  0  0  0  0  0  0  0  0  0  0
    2.3818   -1.5828    0.0780 H   0  0  0  0  0  0  0  0  0  0  0  0
    5.4562   -3.3563    1.7915 H   0  0  0  0  0  0  0  0  0  0  0  0
    5.8907   -2.6551    3.3221 H   0  0  0  0  0  0  0  0  0  0  0  0
    5.4958   -1.6595    1.9547 H   0  0  0  0  0  0  0  0  0  0  0  0
    3.9609   -4.6226    0.9992 H   0  0  0  0  0  0  0  0  0  0  0  0
    2.2437   -4.3450    1.1614 H   0  0  0  0  0  0  0  0  0  0  0  0
    2.9151   -5.8204    1.6711 H   0  0  0  0  0  0  0  0  0  0  0  0
    5.0758   -5.4077    3.1182 H   0  0  0  0  0  0  0  0  0  0  0  0
    5.0566   -4.3059    4.4440 H   0  0  0  0  0  0  0  0  0  0  0  0
    4.7779   -6.7938    4.9495 H   0  0  0  0  0  0  0  0  0  0  0  0
    3.8244   -5.6715    5.8429 H   0  0  0  0  0  0  0  0  0  0  0  0
    3.4196   -8.7585    3.6444 H   0  0  0  0  0  0  0  0  0  0  0  0
    3.9490   -7.4292    2.6906 H   0  0  0  0  0  0  0  0  0  0  0  0
    2.2692   -7.9592    2.5812 H   0  0  0  0  0  0  0  0  0  0  0  0
    2.8809   -8.4029    5.9409 H   0  0  0  0  0  0  0  0  0  0  0  0
    1.9032   -7.0549    6.4288 H   0  0  0  0  0  0  0  0  0  0  0  0
    0.4358   -8.9670    6.0555 H   0  0  0  0  0  0  0  0  0  0  0  0
    1.1163   -9.2726    4.5028 H   0  0  0  0  0  0  0  0  0  0  0  0
  1  2  2  0
  1 35  1  0
  1 36  1  0
  2  3  1  0
  2  4  1  0
  3 37  1  0
  3 38  1  0
  3 39  1  0
  4 34  1  0
  4  5  1  0
  4 40  1  1
  5  6  2  0
  5 41  1  0
  6 31  1  0
  6  7  1  0
  7 27  1  0
  7  8  1  0
  7 42  1  6
  8  9  1  0
  8 43  1  0
  8 44  1  0
  9 10  1  0
  9 45  1  0
  9 46  1  0
 10 25  1  0
 10 11  1  0
 10 47  1  1
 11 20  1  0
 11 12  1  6
 11 13  1  0
 12 48  1  0
 12 49  1  0
 12 50  1  0
 13 14  1  0
 13 51  1  0
 13 52  1  0
 14 15  1  0
 14 53  1  0
 14 54  1  0
 15 16  1  0
 15 20  1  0
 15 55  1  6
 16 17  1  0
 16 18  1  0
 16 19  1  0
 17 56  1  0
 17 57  1  0
 17 58  1  0
 18 59  1  0
 18 60  1  0
 18 61  1  0
 19 62  1  0
 20 21  1  0
 20 63  1  6
 21 22  1  0
 21 23  1  0
 21 64  1  6
 22 65  1  0
 23 24  1  0
 23 25  1  0
 23 66  1  1
 24 67  1  0
 25 26  1  6
 25 27  1  0
 26 68  1  0
 26 69  1  0
 26 70  1  0
 27 28  1  6
 27 29  1  0
 28 71  1  0
 28 72  1  0
 28 73  1  0
 29 30  1  0
 29 74  1  0
 29 75  1  0
 30 31  1  0
 30 76  1  0
 30 77  1  0
 31 32  1  6
 31 33  1  0
 32 78  1  0
 32 79  1  0
 32 80  1  0
 33 34  1  0
 33 81  1  0
 33 82  1  0
 34 83  1  0
 34 84  1  0
M  END
>  <i_m_ct_stereo_status>  (214) 
1

>  <s_m_source_file>  (214) 
/var/tmp/pbs.5076255.sched01/tmpnx1894nc/68p53si2vm.sdf

>  <i_m_source_file_index>  (214) 
17

>  <i_lp_mmshare_version>  (214) 
48012

>  <i_f3d_flags>  (214) 
0

>  <s_epik_input>  (214) 
W0NIMl09QyhbQ0gzXSlbQ0BIXShbQ0hdPTEpW0NIMl1bQ0gyXVtDQF0oW0NIM10pKFtDSDJdW0NIMl0yKUMxW0NAQEhdKFtDSDJdW0NIMl0zKVtDQEBdMihbQ0gzXSlbQ0BdKFtDSDNdKShbQ0BIXTNbQ0BdNDVbQ0gzXSlbQ0BIXShbT0hdKVtDQEhdKFtPSF0pW0NASF01W0NAQEhdKFtDSDJdW0NIMl00KUMoW0NIM10pKFtDSDNdKVtPSF0=

>  <s_epik_cmdline>  (214) 
J2VwaWtfcHl0aG9uJywgJy1waHQnLCAnMi4wJywgJy1waCcsICc3LjAnLCAnLXRuJywgJzgnLCAnLW1hJywgJzIwMCcsICctaW1hZScsICc8aW5maWxlLm1hZT4nLCAnLW9tYWUnLCAnPG91dGZpbGUubWFlPic=

>  <r_lp_tautomer_probability>  (214) 
1

>  <r_epik_Ionization_Penalty>  (214) 
3.00688e-06

>  <r_epik_Ionization_Penalty_Charging>  (214) 
0

>  <r_epik_Ionization_Penalty_Neutral>  (214) 
3.00688e-06

>  <r_epik_State_Penalty>  (214) 
-0

>  <r_epik_Charging_Adjusted_Penalty>  (214) 
0

>  <i_epik_Tot_Q>  (214) 
0

>  <i_epik_Tot_abs_Q>  (214) 
0

>  <s_lp_Force_Field>  (214) 
OPLS3e

>  <r_lp_Energy>  (214) 
85.3046

>  <b_lp_Chiralities_Consistent>  (214) 
1

>  <s_lp_Variant>  (214) 
65:0-1

>  <s_i_glide_gridfile>  (214) 
pfpi4k_grid

>  <i_i_glide_lignum>  (214) 
17

>  <i_i_glide_rotatable_bonds>  (214) 
5

>  <r_i_docking_score>  (214) 
-2.71538

>  <r_i_glide_ligand_efficiency>  (214) 
-0.0798641

>  <r_i_glide_ligand_efficiency_sa>  (214) 
-0.258729

>  <r_i_glide_ligand_efficiency_ln>  (214) 
-0.599903

>  <r_i_glide_gscore>  (214) 
-2.71538

>  <r_i_glide_lipo>  (214) 
-0.13706

>  <r_i_glide_hbond>  (214) 
-0.147617

>  <r_i_glide_metal>  (214) 
-0

>  <r_i_glide_rewards>  (214) 
-0.199589

>  <r_i_glide_evdw>  (214) 
-25.37

>  <r_i_glide_ecoul>  (214) 
-7.63333

>  <r_i_glide_erotb>  (214) 
0.182389

>  <r_i_glide_esite>  (214) 
0

>  <r_i_glide_emodel>  (214) 
-38.29

>  <r_i_glide_energy>  (214) 
-33.0034

>  <r_i_glide_einternal>  (214) 
2.21042

>  <r_i_glide_intrahb_reward>  (214) 
-0

>  <i_i_glide_confnum>  (214) 
3

>  <i_i_glide_posenum>  (214) 
31

>  <r_i_glide_eff_state_penalty>  (214) 
0

>  <ligand_id>  (214) 
65

>  <original_smiles>  (214) 
C=C(C)C1C=C2C3CCC4C5(C)CCC(C(C)(C)O)C5C(O)C(O)C4(C)C3(C)CCC2(C)CC1

>  <smiles>  (214) 
[H]OC1([H])C([H])(O[H])C2(C([H])([H])[H])C([H])(C([H])([H])C([H])([H])C3([H])C4=C([H])C([H])(C(=C([H])[H])C([H])([H])[H])C([H])([H])C([H])([H])C4(C([H])([H])[H])C([H])([H])C([H])([H])C32C([H])([H])[H])C2(C([H])([H])[H])C([H])([H])C([H])([H])C([H])(C(O[H])(C([H])([H])[H])C([H])([H])[H])C12[H]

$$$$
66:0:0
     RDKit          3D

 36 38  0  0  1  0  0  0  0  0999 V2000
   -5.5089   -4.7267   -5.3954 C   0  0  0  0  0  0  0  0  0  0  0  0
   -5.5809   -6.2386   -5.1828 C   0  0  0  0  0  0  0  0  0  0  0  0
   -5.6078   -7.0486   -6.4938 C   0  0  0  0  0  0  0  0  0  0  0  0
   -6.0078   -8.4588   -6.3413 N   0  0  1  0  0  0  0  0  0  0  0  0
   -7.3566   -8.6170   -5.7971 C   0  0  0  0  0  0  0  0  0  0  0  0
   -7.7486  -10.0541   -6.0477 C   0  0  0  0  0  0  0  0  0  0  0  0
   -6.8836  -10.4735   -7.2459 C   0  0  2  0  0  0  0  0  0  0  0  0
   -7.7737  -10.9780   -8.3913 C   0  0  0  0  0  0  0  0  0  0  0  0
   -6.9129  -11.7251   -9.4336 C   0  0  0  0  0  0  0  0  0  0  0  0
   -6.2289  -12.8492   -8.9412 O   0  0  0  0  0  0  0  0  0  0  0  0
   -5.6666  -12.6503   -7.7590 C   0  0  0  0  0  0  0  0  0  0  0  0
   -4.8503  -13.5445   -7.2750 N   0  0  0  0  0  0  0  0  0  0  0  0
   -4.5332  -12.9961   -6.0985 N   0  0  0  0  0  0  0  0  0  0  0  0
   -5.0909  -11.7722   -5.8526 C   0  0  0  0  0  0  0  0  0  0  0  0
   -5.9299  -11.5500   -6.8997 C   0  0  0  0  0  0  0  0  0  0  0  0
   -6.0479   -9.2247   -7.5905 C   0  0  0  0  0  0  0  0  0  0  0  0
   -3.8904  -13.4380   -5.4153 H   0  0  0  0  0  0  0  0  0  0  0  0
   -5.5631   -4.2191   -4.4347 H   0  0  0  0  0  0  0  0  0  0  0  0
   -6.3611   -4.3978   -5.9932 H   0  0  0  0  0  0  0  0  0  0  0  0
   -4.6010   -4.4056   -5.8931 H   0  0  0  0  0  0  0  0  0  0  0  0
   -4.7716   -6.6114   -4.5505 H   0  0  0  0  0  0  0  0  0  0  0  0
   -6.4936   -6.3357   -4.6008 H   0  0  0  0  0  0  0  0  0  0  0  0
   -6.2789   -6.5673   -7.2077 H   0  0  0  0  0  0  0  0  0  0  0  0
   -4.6091   -7.0606   -6.9292 H   0  0  0  0  0  0  0  0  0  0  0  0
   -7.3654   -8.3930   -4.7384 H   0  0  0  0  0  0  0  0  0  0  0  0
   -8.0424   -7.9587   -6.3252 H   0  0  0  0  0  0  0  0  0  0  0  0
   -7.5407  -10.6114   -5.1479 H   0  0  0  0  0  0  0  0  0  0  0  0
   -8.8260  -10.1627   -6.1991 H   0  0  0  0  0  0  0  0  0  0  0  0
   -8.5233  -11.6623   -7.9875 H   0  0  0  0  0  0  0  0  0  0  0  0
   -8.3417  -10.1598   -8.8539 H   0  0  0  0  0  0  0  0  0  0  0  0
   -7.5498  -12.0592  -10.2401 H   0  0  0  0  0  0  0  0  0  0  0  0
   -6.1702  -11.0604   -9.8434 H   0  0  0  0  0  0  0  0  0  0  0  0
   -4.9013  -11.2339   -4.9339 H   0  0  0  0  0  0  0  0  0  0  0  0
   -6.5751   -8.6303   -8.3407 H   0  0  0  0  0  0  0  0  0  0  0  0
   -5.0510   -9.4403   -8.0033 H   0  0  0  0  0  0  0  0  0  0  0  0
   -5.3702   -8.9408   -5.7236 H   0  0  0  0  0  0  0  0  0  0  0  0
  1  2  1  0
  1 18  1  0
  1 19  1  0
  1 20  1  0
  2  3  1  0
  2 21  1  0
  2 22  1  0
  3  4  1  0
  3 23  1  0
  3 24  1  0
  4 16  1  0
  4  5  1  0
  4 36  1  1
  5  6  1  0
  5 25  1  0
  5 26  1  0
  7  6  1  1
  6 27  1  0
  6 28  1  0
  7 15  1  0
  7  8  1  0
  7 16  1  0
  8  9  1  0
  8 29  1  0
  8 30  1  0
  9 10  1  0
  9 31  1  0
  9 32  1  0
 10 11  1  0
 11 15  1  0
 11 12  2  0
 12 13  1  0
 13 17  1  0
 13 14  1  0
 14 15  2  0
 14 33  1  0
 16 34  1  0
 16 35  1  0
M  CHG  1   4   1
M  END
>  <i_m_ct_stereo_status>  (215) 
1

>  <s_m_source_file>  (215) 
/var/tmp/pbs.5076255.sched01/tmpnx1894nc/68p53si2vm.sdf

>  <i_m_source_file_index>  (215) 
18

>  <i_lp_mmshare_version>  (215) 
48012

>  <i_f3d_flags>  (215) 
0

>  <s_epik_input>  (215) 
W0NIM11bQ0gyXVtDSDJdTihbQ0gyXTEpW0NIMl1bQ0gyXVtDQF0xMmMzYyhPW0NIMl1bQ0gyXTIpbltuSF1bY0hdMw==

>  <s_epik_cmdline>  (215) 
J2VwaWtfcHl0aG9uJywgJy1waHQnLCAnMi4wJywgJy1waCcsICc3LjAnLCAnLXRuJywgJzgnLCAnLW1hJywgJzIwMCcsICctaW1hZScsICc8aW5maWxlLm1hZT4nLCAnLW9tYWUnLCAnPG91dGZpbGUubWFlPic=

>  <r_lp_tautomer_probability>  (215) 
0.977003

>  <r_epik_Ionization_Penalty>  (215) 
0.0012055

>  <r_epik_Ionization_Penalty_Charging>  (215) 
0.00104745

>  <r_epik_Ionization_Penalty_Neutral>  (215) 
0.000158048

>  <r_epik_State_Penalty>  (215) 
0.0107468

>  <r_epik_Charging_Adjusted_Penalty>  (215) 
0.0117943

>  <i_epik_Tot_Q>  (215) 
1

>  <i_epik_Tot_abs_Q>  (215) 
1

>  <s_lp_Force_Field>  (215) 
OPLS3e

>  <r_lp_Energy>  (215) 
17.4916

>  <b_lp_Chiralities_Consistent>  (215) 
1

>  <s_lp_Variant>  (215) 
66:0-1

>  <s_i_glide_gridfile>  (215) 
pfpi4k_grid

>  <i_i_glide_lignum>  (215) 
18

>  <i_i_glide_rotatable_bonds>  (215) 
2

>  <r_i_docking_score>  (215) 
-5.82145

>  <r_i_glide_ligand_efficiency>  (215) 
-0.363841

>  <r_i_glide_ligand_efficiency_sa>  (215) 
-0.916821

>  <r_i_glide_ligand_efficiency_ln>  (215) 
-1.54309

>  <r_i_glide_gscore>  (215) 
-5.82145

>  <r_i_glide_lipo>  (215) 
-1.28786

>  <r_i_glide_hbond>  (215) 
-0.32

>  <r_i_glide_metal>  (215) 
-0

>  <r_i_glide_rewards>  (215) 
-2.91836

>  <r_i_glide_evdw>  (215) 
-5.02224

>  <r_i_glide_ecoul>  (215) 
-6.6433

>  <r_i_glide_erotb>  (215) 
0

>  <r_i_glide_esite>  (215) 
-0.0476198

>  <r_i_glide_emodel>  (215) 
-19.9051

>  <r_i_glide_energy>  (215) 
-11.6655

>  <r_i_glide_einternal>  (215) 
1.50037

>  <r_i_glide_intrahb_reward>  (215) 
-0

>  <i_i_glide_confnum>  (215) 
2

>  <i_i_glide_posenum>  (215) 
2

>  <r_i_glide_eff_state_penalty>  (215) 
0

>  <ligand_id>  (215) 
66

>  <original_smiles>  (215) 
CCCN1CCC2(CCOc3n[nH]cc32)C1

>  <smiles>  (215) 
[H]c1c2c(nn1[H])OC([H])([H])C([H])([H])C21C([H])([H])C([H])([H])[N+]([H])(C([H])([H])C([H])([H])C([H])([H])[H])C1([H])[H]

$$$$
66:0:1
     RDKit          3D

 36 38  0  0  1  0  0  0  0  0999 V2000
   -6.2632   -6.5979   -4.6981 C   0  0  0  0  0  0  0  0  0  0  0  0
   -5.2257   -7.1260   -5.7091 C   0  0  0  0  0  0  0  0  0  0  0  0
   -5.8284   -7.5241   -7.0661 C   0  0  0  0  0  0  0  0  0  0  0  0
   -6.2905   -8.9288   -7.0720 N   0  0  1  0  0  0  0  0  0  0  0  0
   -7.3888   -9.2144   -6.1445 C   0  0  0  0  0  0  0  0  0  0  0  0
   -7.9611  -10.5468   -6.5742 C   0  0  0  0  0  0  0  0  0  0  0  0
   -7.5493  -10.6743   -8.0510 C   0  0  2  0  0  0  0  0  0  0  0  0
   -8.7790  -10.8769   -8.9575 C   0  0  0  0  0  0  0  0  0  0  0  0
   -8.3733  -11.3563  -10.3700 C   0  0  0  0  0  0  0  0  0  0  0  0
   -7.6542  -12.6087  -10.3710 O   0  0  0  0  0  0  0  0  0  0  0  0
   -6.7246  -12.7080   -9.3592 C   0  0  0  0  0  0  0  0  0  0  0  0
   -5.8269  -13.6838   -9.3419 N   0  0  0  0  0  0  0  0  0  0  0  0
   -5.1338  -13.4332   -8.2159 N   0  0  0  0  0  0  0  0  0  0  0  0
   -5.5665  -12.3212   -7.5212 C   0  0  0  0  0  0  0  0  0  0  0  0
   -6.6260  -11.8387   -8.2416 C   0  0  0  0  0  0  0  0  0  0  0  0
   -6.7884   -9.3825   -8.3766 C   0  0  0  0  0  0  0  0  0  0  0  0
   -4.3735  -14.0390   -7.9286 H   0  0  0  0  0  0  0  0  0  0  0  0
   -5.7726   -6.2971   -3.7698 H   0  0  0  0  0  0  0  0  0  0  0  0
   -7.0218   -7.3398   -4.4504 H   0  0  0  0  0  0  0  0  0  0  0  0
   -6.7699   -5.7148   -5.0992 H   0  0  0  0  0  0  0  0  0  0  0  0
   -4.4790   -6.3515   -5.8816 H   0  0  0  0  0  0  0  0  0  0  0  0
   -4.6645   -7.9622   -5.2949 H   0  0  0  0  0  0  0  0  0  0  0  0
   -6.6322   -6.8415   -7.3551 H   0  0  0  0  0  0  0  0  0  0  0  0
   -5.0706   -7.4535   -7.8446 H   0  0  0  0  0  0  0  0  0  0  0  0
   -7.0734   -9.2559   -5.1200 H   0  0  0  0  0  0  0  0  0  0  0  0
   -8.1534   -8.4514   -6.3070 H   0  0  0  0  0  0  0  0  0  0  0  0
   -7.5240  -11.3342   -5.9608 H   0  0  0  0  0  0  0  0  0  0  0  0
   -9.0458  -10.5868   -6.4233 H   0  0  0  0  0  0  0  0  0  0  0  0
   -9.4339  -11.6330   -8.5214 H   0  0  0  0  0  0  0  0  0  0  0  0
   -9.3746   -9.9649   -9.0178 H   0  0  0  0  0  0  0  0  0  0  0  0
   -9.2649  -11.4825  -10.9811 H   0  0  0  0  0  0  0  0  0  0  0  0
   -7.7873  -10.5709  -10.8610 H   0  0  0  0  0  0  0  0  0  0  0  0
   -5.1011  -11.9924   -6.6036 H   0  0  0  0  0  0  0  0  0  0  0  0
   -7.4629   -8.6250   -8.7869 H   0  0  0  0  0  0  0  0  0  0  0  0
   -5.9839   -9.5231   -9.1061 H   0  0  0  0  0  0  0  0  0  0  0  0
   -5.5136   -9.5259   -6.8203 H   0  0  0  0  0  0  0  0  0  0  0  0
  1  2  1  0
  1 18  1  0
  1 19  1  0
  1 20  1  0
  2  3  1  0
  2 21  1  0
  2 22  1  0
  3  4  1  0
  3 23  1  0
  3 24  1  0
  4 16  1  0
  4  5  1  0
  4 36  1  1
  5  6  1  0
  5 25  1  0
  5 26  1  0
  7  6  1  1
  6 27  1  0
  6 28  1  0
  7 15  1  0
  7  8  1  0
  7 16  1  0
  8  9  1  0
  8 29  1  0
  8 30  1  0
  9 10  1  0
  9 31  1  0
  9 32  1  0
 10 11  1  0
 11 15  1  0
 11 12  2  0
 12 13  1  0
 13 17  1  0
 13 14  1  0
 14 15  2  0
 14 33  1  0
 16 34  1  0
 16 35  1  0
M  CHG  1   4   1
M  END
>  <i_m_ct_stereo_status>  (216) 
1

>  <s_m_source_file>  (216) 
/var/tmp/pbs.5076255.sched01/tmpnx1894nc/68p53si2vm.sdf

>  <i_m_source_file_index>  (216) 
18

>  <i_lp_mmshare_version>  (216) 
48012

>  <i_f3d_flags>  (216) 
0

>  <s_epik_input>  (216) 
W0NIM11bQ0gyXVtDSDJdTihbQ0gyXTEpW0NIMl1bQ0gyXVtDQF0xMmMzYyhPW0NIMl1bQ0gyXTIpbltuSF1bY0hdMw==

>  <s_epik_cmdline>  (216) 
J2VwaWtfcHl0aG9uJywgJy1waHQnLCAnMi4wJywgJy1waCcsICc3LjAnLCAnLXRuJywgJzgnLCAnLW1hJywgJzIwMCcsICctaW1hZScsICc8aW5maWxlLm1hZT4nLCAnLW9tYWUnLCAnPG91dGZpbGUubWFlPic=

>  <r_lp_tautomer_probability>  (216) 
0.977003

>  <r_epik_Ionization_Penalty>  (216) 
0.0012055

>  <r_epik_Ionization_Penalty_Charging>  (216) 
0.00104745

>  <r_epik_Ionization_Penalty_Neutral>  (216) 
0.000158048

>  <r_epik_State_Penalty>  (216) 
0.0107468

>  <r_epik_Charging_Adjusted_Penalty>  (216) 
0.0117943

>  <i_epik_Tot_Q>  (216) 
1

>  <i_epik_Tot_abs_Q>  (216) 
1

>  <s_lp_Force_Field>  (216) 
OPLS3e

>  <r_lp_Energy>  (216) 
17.4916

>  <b_lp_Chiralities_Consistent>  (216) 
1

>  <s_lp_Variant>  (216) 
66:0-1

>  <s_i_glide_gridfile>  (216) 
pfpi4k_grid

>  <i_i_glide_lignum>  (216) 
18

>  <i_i_glide_rotatable_bonds>  (216) 
2

>  <r_i_docking_score>  (216) 
-4.40578

>  <r_i_glide_ligand_efficiency>  (216) 
-0.275361

>  <r_i_glide_ligand_efficiency_sa>  (216) 
-0.693867

>  <r_i_glide_ligand_efficiency_ln>  (216) 
-1.16784

>  <r_i_glide_gscore>  (216) 
-4.40578

>  <r_i_glide_lipo>  (216) 
-1.40217

>  <r_i_glide_hbond>  (216) 
0

>  <r_i_glide_metal>  (216) 
-0

>  <r_i_glide_rewards>  (216) 
-2.08503

>  <r_i_glide_evdw>  (216) 
-14.9973

>  <r_i_glide_ecoul>  (216) 
-1.10096

>  <r_i_glide_erotb>  (216) 
0

>  <r_i_glide_esite>  (216) 
-0.00357019

>  <r_i_glide_emodel>  (216) 
-21.3063

>  <r_i_glide_energy>  (216) 
-16.0982

>  <r_i_glide_einternal>  (216) 
3.31244

>  <r_i_glide_intrahb_reward>  (216) 
-0

>  <i_i_glide_confnum>  (216) 
2

>  <i_i_glide_posenum>  (216) 
3

>  <r_i_glide_eff_state_penalty>  (216) 
0

>  <ligand_id>  (216) 
66

>  <original_smiles>  (216) 
CCCN1CCC2(CCOc3n[nH]cc32)C1

>  <smiles>  (216) 
[H]c1c2c(nn1[H])OC([H])([H])C([H])([H])C21C([H])([H])C([H])([H])[N+]([H])(C([H])([H])C([H])([H])C([H])([H])[H])C1([H])[H]

$$$$
66:0:2
     RDKit          3D

 36 38  0  0  1  0  0  0  0  0999 V2000
    3.4149    0.1520   -5.8870 C   0  0  0  0  0  0  0  0  0  0  0  0
    3.6498   -0.7799   -4.7180 C   0  0  0  0  0  0  0  0  0  0  0  0
    3.2642   -0.1644   -3.3685 C   0  0  0  0  0  0  0  0  0  0  0  0
    3.4061   -1.1131   -2.2382 N   0  0  1  0  0  0  0  0  0  0  0  0
    2.8425   -2.4614   -2.4196 C   0  0  0  0  0  0  0  0  0  0  0  0
    3.3960   -3.2887   -1.2843 C   0  0  0  0  0  0  0  0  0  0  0  0
    4.6847   -2.5471   -0.8820 C   0  0  2  0  0  0  0  0  0  0  0  0
    5.9570   -3.4215   -1.0388 C   0  0  0  0  0  0  0  0  0  0  0  0
    7.1560   -2.7997   -0.2749 C   0  0  0  0  0  0  0  0  0  0  0  0
    6.9374   -2.6651    1.1348 O   0  0  0  0  0  0  0  0  0  0  0  0
    5.6870   -2.1815    1.4273 C   0  0  0  0  0  0  0  0  0  0  0  0
    5.3979   -1.7839    2.6593 N   0  0  0  0  0  0  0  0  0  0  0  0
    4.1086   -1.4117    2.5408 N   0  0  0  0  0  0  0  0  0  0  0  0
    3.5797   -1.5724    1.2731 C   0  0  0  0  0  0  0  0  0  0  0  0
    4.5969   -2.1075    0.5404 C   0  0  0  0  0  0  0  0  0  0  0  0
    4.7762   -1.2910   -1.7612 C   0  0  0  0  0  0  0  0  0  0  0  0
    3.6142   -1.0568    3.3435 H   0  0  0  0  0  0  0  0  0  0  0  0
    3.6687   -0.3856   -6.8007 H   0  0  0  0  0  0  0  0  0  0  0  0
    4.0303    1.0522   -5.8243 H   0  0  0  0  0  0  0  0  0  0  0  0
    2.3606    0.4103   -5.9201 H   0  0  0  0  0  0  0  0  0  0  0  0
    3.0132   -1.6328   -4.9172 H   0  0  0  0  0  0  0  0  0  0  0  0
    4.6839   -1.1143   -4.7325 H   0  0  0  0  0  0  0  0  0  0  0  0
    3.8318    0.7524   -3.1882 H   0  0  0  0  0  0  0  0  0  0  0  0
    2.2209    0.1292   -3.4121 H   0  0  0  0  0  0  0  0  0  0  0  0
    1.7581   -2.4837   -2.4594 H   0  0  0  0  0  0  0  0  0  0  0  0
    3.2378   -2.9705   -3.2971 H   0  0  0  0  0  0  0  0  0  0  0  0
    2.6784   -3.4160   -0.4655 H   0  0  0  0  0  0  0  0  0  0  0  0
    3.6498   -4.2648   -1.6570 H   0  0  0  0  0  0  0  0  0  0  0  0
    5.7675   -4.4195   -0.6354 H   0  0  0  0  0  0  0  0  0  0  0  0
    6.2324   -3.5900   -2.0800 H   0  0  0  0  0  0  0  0  0  0  0  0
    8.0241   -3.4430   -0.3680 H   0  0  0  0  0  0  0  0  0  0  0  0
    7.4257   -1.8155   -0.6739 H   0  0  0  0  0  0  0  0  0  0  0  0
    2.5597   -1.3172    1.0214 H   0  0  0  0  0  0  0  0  0  0  0  0
    5.4290   -1.4884   -2.6118 H   0  0  0  0  0  0  0  0  0  0  0  0
    5.1809   -0.4080   -1.2494 H   0  0  0  0  0  0  0  0  0  0  0  0
    2.8833   -0.7378   -1.4515 H   0  0  0  0  0  0  0  0  0  0  0  0
  1  2  1  0
  1 18  1  0
  1 19  1  0
  1 20  1  0
  2  3  1  0
  2 21  1  0
  2 22  1  0
  3  4  1  0
  3 23  1  0
  3 24  1  0
  4 16  1  0
  4  5  1  0
  4 36  1  1
  5  6  1  0
  5 25  1  0
  5 26  1  0
  7  6  1  6
  6 27  1  0
  6 28  1  0
  7 15  1  0
  7  8  1  0
  7 16  1  0
  8  9  1  0
  8 29  1  0
  8 30  1  0
  9 10  1  0
  9 31  1  0
  9 32  1  0
 10 11  1  0
 11 15  1  0
 11 12  2  0
 12 13  1  0
 13 17  1  0
 13 14  1  0
 14 15  2  0
 14 33  1  0
 16 34  1  0
 16 35  1  0
M  CHG  1   4   1
M  END
>  <i_m_ct_stereo_status>  (217) 
1

>  <s_m_source_file>  (217) 
/var/tmp/pbs.5076255.sched01/tmpnx1894nc/68p53si2vm.sdf

>  <i_m_source_file_index>  (217) 
18

>  <i_lp_mmshare_version>  (217) 
48012

>  <i_f3d_flags>  (217) 
0

>  <s_epik_input>  (217) 
W0NIM11bQ0gyXVtDSDJdTihbQ0gyXTEpW0NIMl1bQ0gyXVtDQF0xMmMzYyhPW0NIMl1bQ0gyXTIpbltuSF1bY0hdMw==

>  <s_epik_cmdline>  (217) 
J2VwaWtfcHl0aG9uJywgJy1waHQnLCAnMi4wJywgJy1waCcsICc3LjAnLCAnLXRuJywgJzgnLCAnLW1hJywgJzIwMCcsICctaW1hZScsICc8aW5maWxlLm1hZT4nLCAnLW9tYWUnLCAnPG91dGZpbGUubWFlPic=

>  <r_lp_tautomer_probability>  (217) 
0.977003

>  <r_epik_Ionization_Penalty>  (217) 
0.0012055

>  <r_epik_Ionization_Penalty_Charging>  (217) 
0.00104745

>  <r_epik_Ionization_Penalty_Neutral>  (217) 
0.000158048

>  <r_epik_State_Penalty>  (217) 
0.0107468

>  <r_epik_Charging_Adjusted_Penalty>  (217) 
0.0117943

>  <i_epik_Tot_Q>  (217) 
1

>  <i_epik_Tot_abs_Q>  (217) 
1

>  <s_lp_Force_Field>  (217) 
OPLS3e

>  <r_lp_Energy>  (217) 
17.4916

>  <b_lp_Chiralities_Consistent>  (217) 
1

>  <s_lp_Variant>  (217) 
66:0-1

>  <s_i_glide_gridfile>  (217) 
pfpi4k_grid

>  <i_i_glide_lignum>  (217) 
18

>  <i_i_glide_rotatable_bonds>  (217) 
2

>  <r_i_docking_score>  (217) 
-4.22233

>  <r_i_glide_ligand_efficiency>  (217) 
-0.263896

>  <r_i_glide_ligand_efficiency_sa>  (217) 
-0.664975

>  <r_i_glide_ligand_efficiency_ln>  (217) 
-1.11921

>  <r_i_glide_gscore>  (217) 
-4.22233

>  <r_i_glide_lipo>  (217) 
-0.558971

>  <r_i_glide_hbond>  (217) 
-0.0566375

>  <r_i_glide_metal>  (217) 
-0

>  <r_i_glide_rewards>  (217) 
-1.94336

>  <r_i_glide_evdw>  (217) 
-18.6259

>  <r_i_glide_ecoul>  (217) 
-4.45109

>  <r_i_glide_erotb>  (217) 
0

>  <r_i_glide_esite>  (217) 
-0.0644019

>  <r_i_glide_emodel>  (217) 
-24.4853

>  <r_i_glide_energy>  (217) 
-23.077

>  <r_i_glide_einternal>  (217) 
9.99476

>  <r_i_glide_intrahb_reward>  (217) 
-0

>  <i_i_glide_confnum>  (217) 
1

>  <i_i_glide_posenum>  (217) 
12

>  <r_i_glide_eff_state_penalty>  (217) 
0

>  <ligand_id>  (217) 
66

>  <original_smiles>  (217) 
CCCN1CCC2(CCOc3n[nH]cc32)C1

>  <smiles>  (217) 
[H]c1c2c(nn1[H])OC([H])([H])C([H])([H])C21C([H])([H])C([H])([H])[N+]([H])(C([H])([H])C([H])([H])C([H])([H])[H])C1([H])[H]

$$$$
66:1:0
     RDKit          3D

 36 38  0  0  1  0  0  0  0  0999 V2000
   -4.2109  -10.4574   -6.4462 C   0  0  0  0  0  0  0  0  0  0  0  0
   -5.4226   -9.8926   -5.6475 C   0  0  0  0  0  0  0  0  0  0  0  0
   -5.7735   -8.3871   -5.8717 C   0  0  0  0  0  0  0  0  0  0  0  0
   -6.6165   -8.1094   -7.0903 N   0  0  1  0  0  0  0  0  0  0  0  0
   -6.0433   -8.6058   -8.3464 C   0  0  0  0  0  0  0  0  0  0  0  0
   -7.1472   -8.5960   -9.3514 C   0  0  0  0  0  0  0  0  0  0  0  0
   -8.4371   -8.7109   -8.5049 C   0  0  2  0  0  0  0  0  0  0  0  0
   -9.2591   -9.9924   -8.7998 C   0  0  0  0  0  0  0  0  0  0  0  0
  -10.6823   -9.8920   -8.2047 C   0  0  0  0  0  0  0  0  0  0  0  0
  -11.4068   -8.7293   -8.6461 O   0  0  0  0  0  0  0  0  0  0  0  0
  -10.6597   -7.6181   -8.7517 C   0  0  0  0  0  0  0  0  0  0  0  0
  -11.1525   -6.3720   -8.9999 N   0  0  0  0  0  0  0  0  0  0  0  0
  -10.1519   -5.4698   -9.0965 N   0  0  0  0  0  0  0  0  0  0  0  0
   -9.0350   -6.1453   -8.9267 C   0  0  0  0  0  0  0  0  0  0  0  0
   -9.3030   -7.5190   -8.7220 C   0  0  0  0  0  0  0  0  0  0  0  0
   -7.9535   -8.7077   -7.0550 C   0  0  0  0  0  0  0  0  0  0  0  0
  -12.1253   -6.1253   -9.0567 H   0  0  0  0  0  0  0  0  0  0  0  0
   -4.1420  -11.5236   -6.2383 H   0  0  0  0  0  0  0  0  0  0  0  0
   -3.3338   -9.9029   -6.1318 H   0  0  0  0  0  0  0  0  0  0  0  0
   -4.2290  -10.3996   -7.5420 H   0  0  0  0  0  0  0  0  0  0  0  0
   -6.2631  -10.5655   -5.7784 H   0  0  0  0  0  0  0  0  0  0  0  0
   -5.2057   -9.9864   -4.5854 H   0  0  0  0  0  0  0  0  0  0  0  0
   -6.3274   -7.9639   -5.0149 H   0  0  0  0  0  0  0  0  0  0  0  0
   -4.8618   -7.7866   -5.9112 H   0  0  0  0  0  0  0  0  0  0  0  0
   -5.1027   -8.1515   -8.6335 H   0  0  0  0  0  0  0  0  0  0  0  0
   -5.9650   -9.6757   -8.2760 H   0  0  0  0  0  0  0  0  0  0  0  0
   -7.0850   -7.7235  -10.0005 H   0  0  0  0  0  0  0  0  0  0  0  0
   -7.0271   -9.5087   -9.9446 H   0  0  0  0  0  0  0  0  0  0  0  0
   -9.3431  -10.1007   -9.8787 H   0  0  0  0  0  0  0  0  0  0  0  0
   -8.7474  -10.8949   -8.4427 H   0  0  0  0  0  0  0  0  0  0  0  0
  -11.2524  -10.7781   -8.4667 H   0  0  0  0  0  0  0  0  0  0  0  0
  -10.6246   -9.8790   -7.1209 H   0  0  0  0  0  0  0  0  0  0  0  0
   -8.0837   -5.6239   -8.9797 H   0  0  0  0  0  0  0  0  0  0  0  0
   -7.9773   -9.7384   -6.7419 H   0  0  0  0  0  0  0  0  0  0  0  0
   -8.5781   -8.1864   -6.3264 H   0  0  0  0  0  0  0  0  0  0  0  0
   -6.7271   -7.1171   -7.1605 H   0  0  0  0  0  0  0  0  0  0  0  0
  1  2  1  0
  1 18  1  0
  1 19  1  0
  1 20  1  0
  2  3  1  0
  2 21  1  0
  2 22  1  0
  3  4  1  0
  3 23  1  0
  3 24  1  0
  4 16  1  0
  4  5  1  0
  4 36  1  6
  5  6  1  0
  5 25  1  0
  5 26  1  0
  7  6  1  6
  6 27  1  0
  6 28  1  0
  7  8  1  0
  7 16  1  0
  7 15  1  0
  8  9  1  0
  8 29  1  0
  8 30  1  0
  9 31  1  0
  9 32  1  0
  9 10  1  0
 10 11  1  0
 11 12  1  0
 11 15  2  0
 12 13  1  0
 12 17  1  0
 13 14  2  0
 14 15  1  0
 14 33  1  0
 16 34  1  0
 16 35  1  0
M  CHG  1   4   1
M  END
>  <i_m_ct_stereo_status>  (218) 
1

>  <s_m_source_file>  (218) 
/var/tmp/pbs.5076255.sched01/tmpnx1894nc/68p53si2vm.sdf

>  <i_m_source_file_index>  (218) 
19

>  <i_lp_mmshare_version>  (218) 
48012

>  <i_f3d_flags>  (218) 
0

>  <s_epik_input>  (218) 
W0NIM11bQ0gyXVtDSDJdTihbQ0gyXTEpW0NIMl1bQ0gyXVtDQF0xMmMzYyhPW0NIMl1bQ0gyXTIpbltuSF1bY0hdMw==

>  <s_epik_cmdline>  (218) 
J2VwaWtfcHl0aG9uJywgJy1waHQnLCAnMi4wJywgJy1waCcsICc3LjAnLCAnLXRuJywgJzgnLCAnLW1hJywgJzIwMCcsICctaW1hZScsICc8aW5maWxlLm1hZT4nLCAnLW9tYWUnLCAnPG91dGZpbGUubWFlPic=

>  <r_lp_tautomer_probability>  (218) 
0.0229966

>  <r_epik_Ionization_Penalty>  (218) 
0.00107629

>  <r_epik_Ionization_Penalty_Charging>  (218) 
0.00107205

>  <r_epik_Ionization_Penalty_Neutral>  (218) 
4.2344e-06

>  <r_epik_State_Penalty>  (218) 
2.38107

>  <r_epik_Charging_Adjusted_Penalty>  (218) 
2.38214

>  <i_epik_Tot_Q>  (218) 
1

>  <i_epik_Tot_abs_Q>  (218) 
1

>  <s_lp_Force_Field>  (218) 
OPLS3e

>  <r_lp_Energy>  (218) 
17.5727

>  <b_lp_Chiralities_Consistent>  (218) 
1

>  <s_lp_Variant>  (218) 
66:0-2

>  <s_i_glide_gridfile>  (218) 
pfpi4k_grid

>  <i_i_glide_lignum>  (218) 
19

>  <i_i_glide_rotatable_bonds>  (218) 
2

>  <r_i_docking_score>  (218) 
-4.8856

>  <r_i_glide_ligand_efficiency>  (218) 
-0.30535

>  <r_i_glide_ligand_efficiency_sa>  (218) 
-0.769434

>  <r_i_glide_ligand_efficiency_ln>  (218) 
-1.29503

>  <r_i_glide_gscore>  (218) 
-4.8856

>  <r_i_glide_lipo>  (218) 
-1.11846

>  <r_i_glide_hbond>  (218) 
-0.15668

>  <r_i_glide_metal>  (218) 
-0

>  <r_i_glide_rewards>  (218) 
-2.21877

>  <r_i_glide_evdw>  (218) 
-13.1296

>  <r_i_glide_ecoul>  (218) 
-4.39836

>  <r_i_glide_erotb>  (218) 
0

>  <r_i_glide_esite>  (218) 
-0.0754571

>  <r_i_glide_emodel>  (218) 
-14.0559

>  <r_i_glide_energy>  (218) 
-17.528

>  <r_i_glide_einternal>  (218) 
13.1158

>  <r_i_glide_intrahb_reward>  (218) 
-0

>  <i_i_glide_confnum>  (218) 
1

>  <i_i_glide_posenum>  (218) 
4

>  <r_i_glide_eff_state_penalty>  (218) 
0

>  <ligand_id>  (218) 
66

>  <original_smiles>  (218) 
CCCN1CCC2(CCOc3n[nH]cc32)C1

>  <smiles>  (218) 
[H]c1nn([H])c2c1C1(C([H])([H])C([H])([H])O2)C([H])([H])C([H])([H])[N+]([H])(C([H])([H])C([H])([H])C([H])([H])[H])C1([H])[H]

$$$$
66:1:1
     RDKit          3D

 36 38  0  0  1  0  0  0  0  0999 V2000
   -6.3104   -5.4884   -4.2540 C   0  0  0  0  0  0  0  0  0  0  0  0
   -6.8048   -4.2415   -5.0119 C   0  0  0  0  0  0  0  0  0  0  0  0
   -8.3489   -4.1886   -5.2535 C   0  0  0  0  0  0  0  0  0  0  0  0
   -8.8087   -4.9029   -6.4607 N   0  0  1  0  0  0  0  0  0  0  0  0
   -8.5235   -4.2353   -7.7529 C   0  0  0  0  0  0  0  0  0  0  0  0
   -8.6762   -5.3445   -8.8090 C   0  0  0  0  0  0  0  0  0  0  0  0
   -8.4971   -6.6846   -8.0438 C   0  0  2  0  0  0  0  0  0  0  0  0
   -7.3387   -7.5804   -8.5441 C   0  0  0  0  0  0  0  0  0  0  0  0
   -7.3461   -9.0158   -7.9419 C   0  0  0  0  0  0  0  0  0  0  0  0
   -8.5672   -9.7187   -8.2166 O   0  0  0  0  0  0  0  0  0  0  0  0
   -9.6571   -8.9193   -8.1690 C   0  0  0  0  0  0  0  0  0  0  0  0
  -10.9421   -9.4106   -8.1767 N   0  0  0  0  0  0  0  0  0  0  0  0
  -11.8637   -8.4305   -8.1079 N   0  0  0  0  0  0  0  0  0  0  0  0
  -11.1287   -7.3025   -8.0561 C   0  0  0  0  0  0  0  0  0  0  0  0
   -9.7402   -7.5583   -8.1063 C   0  0  0  0  0  0  0  0  0  0  0  0
   -8.2235   -6.2334   -6.6249 C   0  0  0  0  0  0  0  0  0  0  0  0
  -11.2091  -10.3782   -8.2463 H   0  0  0  0  0  0  0  0  0  0  0  0
   -5.2243   -5.4539   -4.2064 H   0  0  0  0  0  0  0  0  0  0  0  0
   -6.5556   -6.4386   -4.7185 H   0  0  0  0  0  0  0  0  0  0  0  0
   -6.6980   -5.4783   -3.2312 H   0  0  0  0  0  0  0  0  0  0  0  0
   -6.5222   -3.3541   -4.4455 H   0  0  0  0  0  0  0  0  0  0  0  0
   -6.2646   -4.1313   -5.9529 H   0  0  0  0  0  0  0  0  0  0  0  0
   -8.8521   -4.5612   -4.3566 H   0  0  0  0  0  0  0  0  0  0  0  0
   -8.6875   -3.1518   -5.3034 H   0  0  0  0  0  0  0  0  0  0  0  0
   -9.1610   -3.3707   -7.9367 H   0  0  0  0  0  0  0  0  0  0  0  0
   -7.4860   -3.8892   -7.7304 H   0  0  0  0  0  0  0  0  0  0  0  0
   -9.6692   -5.2791   -9.2780 H   0  0  0  0  0  0  0  0  0  0  0  0
   -7.9090   -5.2470   -9.5835 H   0  0  0  0  0  0  0  0  0  0  0  0
   -7.3420   -7.6440   -9.6378 H   0  0  0  0  0  0  0  0  0  0  0  0
   -6.3923   -7.1488   -8.2481 H   0  0  0  0  0  0  0  0  0  0  0  0
   -6.5036   -9.5665   -8.3650 H   0  0  0  0  0  0  0  0  0  0  0  0
   -7.1679   -8.9719   -6.8622 H   0  0  0  0  0  0  0  0  0  0  0  0
  -11.6377   -6.3386   -7.9566 H   0  0  0  0  0  0  0  0  0  0  0  0
   -7.1539   -6.1267   -6.5590 H   0  0  0  0  0  0  0  0  0  0  0  0
   -8.4853   -6.9378   -5.8459 H   0  0  0  0  0  0  0  0  0  0  0  0
   -9.8317   -4.9930   -6.4175 H   0  0  0  0  0  0  0  0  0  0  0  0
  1  2  1  0
  1 18  1  0
  1 19  1  0
  1 20  1  0
  2  3  1  0
  2 21  1  0
  2 22  1  0
  3  4  1  0
  3 23  1  0
  3 24  1  0
  4 16  1  0
  4  5  1  0
  4 36  1  1
  5  6  1  0
  5 25  1  0
  5 26  1  0
  7  6  1  6
  6 27  1  0
  6 28  1  0
  7  8  1  0
  7 16  1  0
  7 15  1  0
  8  9  1  0
  8 29  1  0
  8 30  1  0
  9 31  1  0
  9 32  1  0
  9 10  1  0
 10 11  1  0
 11 12  1  0
 11 15  2  0
 12 13  1  0
 12 17  1  0
 13 14  2  0
 14 15  1  0
 14 33  1  0
 16 34  1  0
 16 35  1  0
M  CHG  1   4   1
M  END
>  <i_m_ct_stereo_status>  (219) 
1

>  <s_m_source_file>  (219) 
/var/tmp/pbs.5076255.sched01/tmpnx1894nc/68p53si2vm.sdf

>  <i_m_source_file_index>  (219) 
19

>  <i_lp_mmshare_version>  (219) 
48012

>  <i_f3d_flags>  (219) 
0

>  <s_epik_input>  (219) 
W0NIM11bQ0gyXVtDSDJdTihbQ0gyXTEpW0NIMl1bQ0gyXVtDQF0xMmMzYyhPW0NIMl1bQ0gyXTIpbltuSF1bY0hdMw==

>  <s_epik_cmdline>  (219) 
J2VwaWtfcHl0aG9uJywgJy1waHQnLCAnMi4wJywgJy1waCcsICc3LjAnLCAnLXRuJywgJzgnLCAnLW1hJywgJzIwMCcsICctaW1hZScsICc8aW5maWxlLm1hZT4nLCAnLW9tYWUnLCAnPG91dGZpbGUubWFlPic=

>  <r_lp_tautomer_probability>  (219) 
0.0229966

>  <r_epik_Ionization_Penalty>  (219) 
0.00107629

>  <r_epik_Ionization_Penalty_Charging>  (219) 
0.00107205

>  <r_epik_Ionization_Penalty_Neutral>  (219) 
4.2344e-06

>  <r_epik_State_Penalty>  (219) 
2.38107

>  <r_epik_Charging_Adjusted_Penalty>  (219) 
2.38214

>  <i_epik_Tot_Q>  (219) 
1

>  <i_epik_Tot_abs_Q>  (219) 
1

>  <s_lp_Force_Field>  (219) 
OPLS3e

>  <r_lp_Energy>  (219) 
17.5727

>  <b_lp_Chiralities_Consistent>  (219) 
1

>  <s_lp_Variant>  (219) 
66:0-2

>  <s_i_glide_gridfile>  (219) 
pfpi4k_grid

>  <i_i_glide_lignum>  (219) 
19

>  <i_i_glide_rotatable_bonds>  (219) 
2

>  <r_i_docking_score>  (219) 
-4.39339

>  <r_i_glide_ligand_efficiency>  (219) 
-0.274587

>  <r_i_glide_ligand_efficiency_sa>  (219) 
-0.691916

>  <r_i_glide_ligand_efficiency_ln>  (219) 
-1.16456

>  <r_i_glide_gscore>  (219) 
-4.39339

>  <r_i_glide_lipo>  (219) 
-1.77112

>  <r_i_glide_hbond>  (219) 
0

>  <r_i_glide_metal>  (219) 
-0

>  <r_i_glide_rewards>  (219) 
-2.19535

>  <r_i_glide_evdw>  (219) 
-14.2718

>  <r_i_glide_ecoul>  (219) 
1.9696

>  <r_i_glide_erotb>  (219) 
0

>  <r_i_glide_esite>  (219) 
-0.00876985

>  <r_i_glide_emodel>  (219) 
-6.41841

>  <r_i_glide_energy>  (219) 
-12.3022

>  <r_i_glide_einternal>  (219) 
18.6114

>  <r_i_glide_intrahb_reward>  (219) 
-0

>  <i_i_glide_confnum>  (219) 
1

>  <i_i_glide_posenum>  (219) 
13

>  <r_i_glide_eff_state_penalty>  (219) 
0

>  <ligand_id>  (219) 
66

>  <original_smiles>  (219) 
CCCN1CCC2(CCOc3n[nH]cc32)C1

>  <smiles>  (219) 
[H]c1nn([H])c2c1C1(C([H])([H])C([H])([H])O2)C([H])([H])C([H])([H])[N+]([H])(C([H])([H])C([H])([H])C([H])([H])[H])C1([H])[H]

$$$$
66:1:2
     RDKit          3D

 36 38  0  0  1  0  0  0  0  0999 V2000
   -6.5022   -5.7631   -3.8711 C   0  0  0  0  0  0  0  0  0  0  0  0
   -6.9223   -4.4434   -4.5353 C   0  0  0  0  0  0  0  0  0  0  0  0
   -8.4419   -4.3827   -4.7832 C   0  0  0  0  0  0  0  0  0  0  0  0
   -8.8701   -5.3765   -5.8245 N   0  0  1  0  0  0  0  0  0  0  0  0
  -10.2795   -5.3153   -6.2555 C   0  0  0  0  0  0  0  0  0  0  0  0
  -10.4469   -6.2221   -7.4743 C   0  0  0  0  0  0  0  0  0  0  0  0
   -9.0250   -6.2552   -8.0482 C   0  0  2  0  0  0  0  0  0  0  0  0
   -9.1212   -5.7152   -9.4570 C   0  0  0  0  0  0  0  0  0  0  0  0
   -7.7903   -5.8555  -10.2196 C   0  0  0  0  0  0  0  0  0  0  0  0
   -7.3756   -7.2180  -10.3424 O   0  0  0  0  0  0  0  0  0  0  0  0
   -7.6160   -7.9346   -9.2315 C   0  0  0  0  0  0  0  0  0  0  0  0
   -7.2137   -9.2110   -9.0504 N   0  0  0  0  0  0  0  0  0  0  0  0
   -7.6375   -9.7275   -7.8820 N   0  0  0  0  0  0  0  0  0  0  0  0
   -8.3362   -8.7529   -7.3318 C   0  0  0  0  0  0  0  0  0  0  0  0
   -8.3775   -7.5888   -8.1461 C   0  0  0  0  0  0  0  0  0  0  0  0
   -8.1873   -5.3325   -7.1126 C   0  0  0  0  0  0  0  0  0  0  0  0
   -6.6531   -9.7270   -9.7082 H   0  0  0  0  0  0  0  0  0  0  0  0
   -5.4253   -5.8529   -3.7776 H   0  0  0  0  0  0  0  0  0  0  0  0
   -6.8007   -6.6440   -4.4374 H   0  0  0  0  0  0  0  0  0  0  0  0
   -6.9554   -5.8242   -2.8715 H   0  0  0  0  0  0  0  0  0  0  0  0
   -6.6531   -3.6072   -3.8903 H   0  0  0  0  0  0  0  0  0  0  0  0
   -6.3470   -4.2767   -5.4501 H   0  0  0  0  0  0  0  0  0  0  0  0
   -8.9460   -4.5552   -3.8184 H   0  0  0  0  0  0  0  0  0  0  0  0
   -8.7408   -3.3793   -5.0909 H   0  0  0  0  0  0  0  0  0  0  0  0
  -10.9662   -5.7175   -5.5532 H   0  0  0  0  0  0  0  0  0  0  0  0
  -10.6106   -4.2882   -6.3878 H   0  0  0  0  0  0  0  0  0  0  0  0
  -10.8299   -7.2145   -7.2265 H   0  0  0  0  0  0  0  0  0  0  0  0
  -11.2299   -5.7847   -8.0995 H   0  0  0  0  0  0  0  0  0  0  0  0
   -9.9490   -6.1523  -10.0437 H   0  0  0  0  0  0  0  0  0  0  0  0
   -9.3713   -4.6961   -9.1950 H   0  0  0  0  0  0  0  0  0  0  0  0
   -7.8630   -5.3811  -11.1959 H   0  0  0  0  0  0  0  0  0  0  0  0
   -7.0315   -5.3032   -9.6413 H   0  0  0  0  0  0  0  0  0  0  0  0
   -8.8048   -8.9432   -6.3800 H   0  0  0  0  0  0  0  0  0  0  0  0
   -8.2512   -4.2790   -7.3834 H   0  0  0  0  0  0  0  0  0  0  0  0
   -7.1361   -5.6074   -7.0691 H   0  0  0  0  0  0  0  0  0  0  0  0
   -8.7005   -6.2977   -5.4508 H   0  0  0  0  0  0  0  0  0  0  0  0
  1  2  1  0
  1 18  1  0
  1 19  1  0
  1 20  1  0
  2  3  1  0
  2 21  1  0
  2 22  1  0
  3  4  1  0
  3 23  1  0
  3 24  1  0
  4 16  1  0
  4  5  1  0
  4 36  1  1
  5  6  1  0
  5 25  1  0
  5 26  1  0
  7  6  1  1
  6 27  1  0
  6 28  1  0
  7  8  1  0
  7 16  1  0
  7 15  1  0
  8  9  1  0
  8 29  1  0
  8 30  1  0
  9 31  1  0
  9 32  1  0
  9 10  1  0
 10 11  1  0
 11 12  1  0
 11 15  2  0
 12 13  1  0
 12 17  1  0
 13 14  2  0
 14 15  1  0
 14 33  1  0
 16 34  1  0
 16 35  1  0
M  CHG  1   4   1
M  END
>  <i_m_ct_stereo_status>  (220) 
1

>  <s_m_source_file>  (220) 
/var/tmp/pbs.5076255.sched01/tmpnx1894nc/68p53si2vm.sdf

>  <i_m_source_file_index>  (220) 
19

>  <i_lp_mmshare_version>  (220) 
48012

>  <i_f3d_flags>  (220) 
0

>  <s_epik_input>  (220) 
W0NIM11bQ0gyXVtDSDJdTihbQ0gyXTEpW0NIMl1bQ0gyXVtDQF0xMmMzYyhPW0NIMl1bQ0gyXTIpbltuSF1bY0hdMw==

>  <s_epik_cmdline>  (220) 
J2VwaWtfcHl0aG9uJywgJy1waHQnLCAnMi4wJywgJy1waCcsICc3LjAnLCAnLXRuJywgJzgnLCAnLW1hJywgJzIwMCcsICctaW1hZScsICc8aW5maWxlLm1hZT4nLCAnLW9tYWUnLCAnPG91dGZpbGUubWFlPic=

>  <r_lp_tautomer_probability>  (220) 
0.0229966

>  <r_epik_Ionization_Penalty>  (220) 
0.00107629

>  <r_epik_Ionization_Penalty_Charging>  (220) 
0.00107205

>  <r_epik_Ionization_Penalty_Neutral>  (220) 
4.2344e-06

>  <r_epik_State_Penalty>  (220) 
2.38107

>  <r_epik_Charging_Adjusted_Penalty>  (220) 
2.38214

>  <i_epik_Tot_Q>  (220) 
1

>  <i_epik_Tot_abs_Q>  (220) 
1

>  <s_lp_Force_Field>  (220) 
OPLS3e

>  <r_lp_Energy>  (220) 
17.5727

>  <b_lp_Chiralities_Consistent>  (220) 
1

>  <s_lp_Variant>  (220) 
66:0-2

>  <s_i_glide_gridfile>  (220) 
pfpi4k_grid

>  <i_i_glide_lignum>  (220) 
19

>  <i_i_glide_rotatable_bonds>  (220) 
2

>  <r_i_docking_score>  (220) 
-4.24

>  <r_i_glide_ligand_efficiency>  (220) 
-0.265

>  <r_i_glide_ligand_efficiency_sa>  (220) 
-0.667758

>  <r_i_glide_ligand_efficiency_ln>  (220) 
-1.1239

>  <r_i_glide_gscore>  (220) 
-4.24

>  <r_i_glide_lipo>  (220) 
-1.82493

>  <r_i_glide_hbond>  (220) 
0

>  <r_i_glide_metal>  (220) 
-0

>  <r_i_glide_rewards>  (220) 
-2.26338

>  <r_i_glide_evdw>  (220) 
-4.32302

>  <r_i_glide_ecoul>  (220) 
0.429707

>  <r_i_glide_erotb>  (220) 
0

>  <r_i_glide_esite>  (220) 
0

>  <r_i_glide_emodel>  (220) 
-5.44444

>  <r_i_glide_energy>  (220) 
-3.89332

>  <r_i_glide_einternal>  (220) 
2.70348

>  <r_i_glide_intrahb_reward>  (220) 
-0

>  <i_i_glide_confnum>  (220) 
1

>  <i_i_glide_posenum>  (220) 
1

>  <r_i_glide_eff_state_penalty>  (220) 
0

>  <ligand_id>  (220) 
66

>  <original_smiles>  (220) 
CCCN1CCC2(CCOc3n[nH]cc32)C1

>  <smiles>  (220) 
[H]c1nn([H])c2c1C1(C([H])([H])C([H])([H])O2)C([H])([H])C([H])([H])[N+]([H])(C([H])([H])C([H])([H])C([H])([H])[H])C1([H])[H]

$$$$
67:0:0
     RDKit          3D

 82 87  0  0  1  0  0  0  0  0999 V2000
    4.5836   -8.6264    0.6086 C   0  0  0  0  0  0  0  0  0  0  0  0
    4.8343   -7.9216    1.7279 C   0  0  0  0  0  0  0  0  0  0  0  0
    4.9113   -8.7104    3.0330 C   0  0  0  0  0  0  0  0  0  0  0  0
    3.6311   -8.8121    3.9027 C   0  0  2  0  0  0  0  0  0  0  0  0
    3.9608   -9.7753    4.9312 O   0  0  0  0  0  0  0  0  0  0  0  0
    3.9883  -11.1829    4.6232 C   0  0  0  0  0  0  0  0  0  0  0  0
    2.3423   -9.2562    3.1886 C   0  0  0  0  0  0  0  0  0  0  0  0
    1.7432   -8.2124    2.2744 C   0  0  1  0  0  0  0  0  0  0  0  0
    0.3749   -8.5263    2.1134 O   0  0  0  0  0  0  0  0  0  0  0  0
    1.9138   -6.7083    2.6272 C   0  0  2  0  0  0  0  0  0  0  0  0
    2.0367   -5.9607    1.2995 C   0  0  0  0  0  0  0  0  0  0  0  0
    3.0496   -5.5483    0.5010 C   0  0  0  0  0  0  0  0  0  0  0  0
    4.5922   -5.5778    0.5394 C   0  0  1  0  0  0  0  0  0  0  0  0
    5.1702   -4.1501    0.1190 C   0  0  1  0  0  0  0  0  0  0  0  0
    4.6421   -2.9763    0.9413 C   0  0  0  0  0  0  0  0  0  0  0  0
    6.5726   -4.1002    0.2411 O   0  0  0  0  0  0  0  0  0  0  0  0
    4.9141   -3.8618   -1.3854 C   0  0  0  0  0  0  0  0  0  0  0  0
    5.4842   -2.5421   -1.9372 C   0  0  0  0  0  0  0  0  0  0  0  0
    5.2649   -6.4351    1.7068 C   0  0  2  0  0  0  0  0  0  0  0  0
    6.6329   -6.4803    1.2860 O   0  0  0  0  0  0  0  0  0  0  0  0
    7.6297   -7.1750    2.0322 C   0  0  0  0  0  0  0  0  0  0  0  0
    5.2078   -5.7028    3.0845 C   0  0  0  0  0  0  0  0  0  0  0  0
    3.8469   -5.1182    3.5843 C   0  0  1  0  0  0  0  0  0  0  0  0
    2.7373   -6.2306    3.9130 C   0  0  1  0  0  0  0  0  0  0  0  0
    1.6697   -5.7827    4.9336 C   0  0  0  0  0  0  0  0  0  0  0  0
    1.0018   -4.5476    5.0710 C   0  0  0  0  0  0  0  0  0  0  0  0
    0.0176   -4.4491    6.0769 C   0  0  0  0  0  0  0  0  0  0  0  0
   -0.2588   -5.5625    6.9007 C   0  0  0  0  0  0  0  0  0  0  0  0
    0.4468   -6.7707    6.7624 C   0  0  0  0  0  0  0  0  0  0  0  0
    0.1486   -7.7981    7.6244 O   0  0  0  0  0  0  0  0  0  0  0  0
   -0.0568   -9.0769    7.0128 C   0  0  0  0  0  0  0  0  0  0  0  0
    1.4829   -6.8603    5.7964 C   0  0  0  0  0  0  0  0  0  0  0  0
    2.3563   -7.8826    5.6409 O   0  0  0  0  0  0  0  0  0  0  0  0
    3.3383   -7.4949    4.6824 C   0  0  1  0  0  0  0  0  0  0  0  0
    1.5662   -3.4377    4.2133 C   0  0  0  0  0  0  0  0  0  0  0  0
    2.9775   -2.9797    4.6353 C   0  0  0  0  0  0  0  0  0  0  0  0
    4.0355   -4.0870    4.7596 N   0  0  2  0  0  0  0  0  0  0  0  0
    5.3779   -3.3446    4.7806 C   0  0  0  0  0  0  0  0  0  0  0  0
    3.9562   -4.6845    5.9673 O   0  0  0  0  0  0  0  0  0  0  0  0
    4.6167   -8.2012   -0.3793 H   0  0  0  0  0  0  0  0  0  0  0  0
    4.3658   -9.6891    0.6568 H   0  0  0  0  0  0  0  0  0  0  0  0
    5.2006   -9.7038    2.6991 H   0  0  0  0  0  0  0  0  0  0  0  0
    5.7538   -8.4032    3.6582 H   0  0  0  0  0  0  0  0  0  0  0  0
    4.1767  -11.7679    5.5302 H   0  0  0  0  0  0  0  0  0  0  0  0
    4.7790  -11.4455    3.9134 H   0  0  0  0  0  0  0  0  0  0  0  0
    3.0438  -11.5736    4.2294 H   0  0  0  0  0  0  0  0  0  0  0  0
    2.5032  -10.1248    2.5684 H   0  0  0  0  0  0  0  0  0  0  0  0
    1.6221   -9.5509    3.9452 H   0  0  0  0  0  0  0  0  0  0  0  0
    2.1625   -8.3880    1.2871 H   0  0  0  0  0  0  0  0  0  0  0  0
    0.2947   -9.2464    1.4971 H   0  0  0  0  0  0  0  0  0  0  0  0
    0.8855   -6.4188    2.8685 H   0  0  0  0  0  0  0  0  0  0  0  0
    1.0620   -5.8183    0.8568 H   0  0  0  0  0  0  0  0  0  0  0  0
    2.6697   -5.1077   -0.4047 H   0  0  0  0  0  0  0  0  0  0  0  0
    4.8340   -6.1581   -0.3500 H   0  0  0  0  0  0  0  0  0  0  0  0
    3.5667   -2.8254    0.8510 H   0  0  0  0  0  0  0  0  0  0  0  0
    5.1322   -2.0371    0.6986 H   0  0  0  0  0  0  0  0  0  0  0  0
    4.8845   -3.1697    1.9672 H   0  0  0  0  0  0  0  0  0  0  0  0
    6.8761   -3.2318    0.0197 H   0  0  0  0  0  0  0  0  0  0  0  0
    5.3125   -4.6817   -1.9880 H   0  0  0  0  0  0  0  0  0  0  0  0
    3.8451   -3.8165   -1.5873 H   0  0  0  0  0  0  0  0  0  0  0  0
    5.2723   -2.4869   -3.0075 H   0  0  0  0  0  0  0  0  0  0  0  0
    6.5672   -2.4638   -1.8084 H   0  0  0  0  0  0  0  0  0  0  0  0
    5.0091   -1.6685   -1.4801 H   0  0  0  0  0  0  0  0  0  0  0  0
    8.5959   -6.9797    1.5647 H   0  0  0  0  0  0  0  0  0  0  0  0
    7.4901   -8.2568    2.0148 H   0  0  0  0  0  0  0  0  0  0  0  0
    7.6986   -6.8325    3.0643 H   0  0  0  0  0  0  0  0  0  0  0  0
    5.6615   -6.2733    3.8869 H   0  0  0  0  0  0  0  0  0  0  0  0
    5.9035   -4.8913    2.9278 H   0  0  0  0  0  0  0  0  0  0  0  0
    3.4659   -4.4734    2.8015 H   0  0  0  0  0  0  0  0  0  0  0  0
   -0.5176   -3.5238    6.2394 H   0  0  0  0  0  0  0  0  0  0  0  0
   -1.0362   -5.5030    7.6653 H   0  0  0  0  0  0  0  0  0  0  0  0
   -0.1645   -9.8442    7.7844 H   0  0  0  0  0  0  0  0  0  0  0  0
    0.7585   -9.4117    6.3633 H   0  0  0  0  0  0  0  0  0  0  0  0
   -0.9697   -9.0742    6.4031 H   0  0  0  0  0  0  0  0  0  0  0  0
    4.2136   -7.1936    5.2744 H   0  0  0  0  0  0  0  0  0  0  0  0
    1.4633   -3.6695    3.1550 H   0  0  0  0  0  0  0  0  0  0  0  0
    0.9108   -2.5922    4.3753 H   0  0  0  0  0  0  0  0  0  0  0  0
    3.3319   -2.2694    3.8875 H   0  0  0  0  0  0  0  0  0  0  0  0
    2.9568   -2.4516    5.5904 H   0  0  0  0  0  0  0  0  0  0  0  0
    5.5707   -2.7791    3.8639 H   0  0  0  0  0  0  0  0  0  0  0  0
    6.1759   -4.0588    4.9865 H   0  0  0  0  0  0  0  0  0  0  0  0
    5.3484   -2.6277    5.6076 H   0  0  0  0  0  0  0  0  0  0  0  0
  1  2  2  0
  1 40  1  0
  1 41  1  0
  2 19  1  0
  2  3  1  0
  3  4  1  0
  3 42  1  0
  3 43  1  0
  4 34  1  0
  4  5  1  1
  4  7  1  0
  5  6  1  0
  6 44  1  0
  6 45  1  0
  6 46  1  0
  7  8  1  0
  7 47  1  0
  7 48  1  0
  8  9  1  0
  8 10  1  0
  8 49  1  6
  9 50  1  0
 10 24  1  0
 10 11  1  0
 10 51  1  1
 11 12  2  3
 11 52  1  0
 12 13  1  0
 12 53  1  0
 13 14  1  0
 13 19  1  0
 13 54  1  6
 14 15  1  0
 14 16  1  6
 14 17  1  0
 15 55  1  0
 15 56  1  0
 15 57  1  0
 16 58  1  0
 17 18  1  0
 17 59  1  0
 17 60  1  0
 18 61  1  0
 18 62  1  0
 18 63  1  0
 19 20  1  6
 19 22  1  0
 20 21  1  0
 21 64  1  0
 21 65  1  0
 21 66  1  0
 22 23  1  0
 22 67  1  0
 22 68  1  0
 23 37  1  0
 23 24  1  0
 23 69  1  6
 24 34  1  0
 24 25  1  1
 25 32  2  0
 25 26  1  0
 26 27  2  0
 26 35  1  0
 27 28  1  0
 27 70  1  0
 28 29  2  0
 28 71  1  0
 29 30  1  0
 29 32  1  0
 30 31  1  0
 31 72  1  0
 31 73  1  0
 31 74  1  0
 32 33  1  0
 33 34  1  0
 34 75  1  1
 35 36  1  0
 35 76  1  0
 35 77  1  0
 36 37  1  0
 36 78  1  0
 36 79  1  0
 37 38  1  0
 37 39  1  1
 38 80  1  0
 38 81  1  0
 38 82  1  0
M  CHG  2  37   1  39  -1
M  END
>  <i_m_ct_stereo_status>  (221) 
1

>  <s_m_source_file>  (221) 
/var/tmp/pbs.5076255.sched01/tmpnx1894nc/68p53si2vm.sdf

>  <i_m_source_file_index>  (221) 
20

>  <i_lp_mmshare_version>  (221) 
48012

>  <i_f3d_flags>  (221) 
0

>  <s_epik_input>  (221) 
W0NIM11bQ0gyXVtDQF0oW0NIM10pKFtPSF0pW0NASF0oL1tDSF09W0NIXVwxKVtDQEBdKEMoPVtDSDJdKVtDSDJdMikoT1tDSDNdKVtDSDJdW0NAQEhdM1tOQEArXShbTy1dKShbQ0gzXSlbQ0gyXVtDSDJdYyhbY0hdW2NIXWM0T1tDSDNdKWM1YzRPW0NASF02W0NAQF0yKE9bQ0gzXSlbQ0gyXVtDQEBIXShbT0hdKVtDQEhdMVtDQEBdMzU2

>  <s_epik_cmdline>  (221) 
J2VwaWtfcHl0aG9uJywgJy1waHQnLCAnMi4wJywgJy1waCcsICc3LjAnLCAnLXRuJywgJzgnLCAnLW1hJywgJzIwMCcsICctaW1hZScsICc8aW5maWxlLm1hZT4nLCAnLW9tYWUnLCAnPG91dGZpbGUubWFlPic=

>  <r_lp_tautomer_probability>  (221) 
1

>  <r_epik_Ionization_Penalty>  (221) 
0.00482219

>  <r_epik_Ionization_Penalty_Charging>  (221) 
0.00482203

>  <r_epik_Ionization_Penalty_Neutral>  (221) 
1.56398e-07

>  <r_epik_State_Penalty>  (221) 
0.00349683

>  <r_epik_Charging_Adjusted_Penalty>  (221) 
0.00831886

>  <i_epik_Tot_Q>  (221) 
0

>  <i_epik_Tot_abs_Q>  (221) 
2

>  <s_lp_Force_Field>  (221) 
OPLS3e

>  <r_lp_Energy>  (221) 
117.444

>  <b_lp_Chiralities_Consistent>  (221) 
1

>  <s_lp_Variant>  (221) 
67:0-1

>  <s_i_glide_gridfile>  (221) 
pfpi4k_grid

>  <i_i_glide_lignum>  (221) 
20

>  <i_i_glide_rotatable_bonds>  (221) 
7

>  <r_i_docking_score>  (221) 
-2.6996

>  <r_i_glide_ligand_efficiency>  (221) 
-0.0692206

>  <r_i_glide_ligand_efficiency_sa>  (221) 
-0.234742

>  <r_i_glide_ligand_efficiency_ln>  (221) 
-0.578872

>  <r_i_glide_gscore>  (221) 
-2.6996

>  <r_i_glide_lipo>  (221) 
-0.321948

>  <r_i_glide_hbond>  (221) 
-0.307078

>  <r_i_glide_metal>  (221) 
-0

>  <r_i_glide_rewards>  (221) 
0

>  <r_i_glide_evdw>  (221) 
-27.9166

>  <r_i_glide_ecoul>  (221) 
-4.96825

>  <r_i_glide_erotb>  (221) 
0.0704874

>  <r_i_glide_esite>  (221) 
0

>  <r_i_glide_emodel>  (221) 
-31.952

>  <r_i_glide_energy>  (221) 
-32.8848

>  <r_i_glide_einternal>  (221) 
11.6503

>  <r_i_glide_intrahb_reward>  (221) 
-0

>  <i_i_glide_confnum>  (221) 
1

>  <i_i_glide_posenum>  (221) 
7

>  <r_i_glide_eff_state_penalty>  (221) 
0

>  <ligand_id>  (221) 
67

>  <original_smiles>  (221) 
C=C1CC2(OC)CC(O)C3C=CC(C(C)(O)CC)C1(OC)CC1C34c3c(ccc(OC)c3OC24)CC[N+]1(C)[O-]

>  <smiles>  (221) 
[H]OC1([H])C([H])([H])C2(OC([H])([H])[H])C([H])([H])C(=C([H])[H])C3(OC([H])([H])[H])C([H])([H])C4([H])C5(c6c(c(OC([H])([H])[H])c([H])c([H])c6C([H])([H])C([H])([H])[N+]4([O-])C([H])([H])[H])OC25[H])C1([H])C([H])=C([H])C3([H])C(O[H])(C([H])([H])[H])C([H])([H])C([H])([H])[H]

$$$$
67:0:1
     RDKit          3D

 82 87  0  0  1  0  0  0  0  0999 V2000
    7.5886   -5.0788    1.6699 C   0  0  0  0  0  0  0  0  0  0  0  0
    6.5284   -5.1163    2.5110 C   0  0  0  0  0  0  0  0  0  0  0  0
    6.7545   -5.7414    3.8815 C   0  0  0  0  0  0  0  0  0  0  0  0
    6.3800   -7.2399    4.0729 C   0  0  2  0  0  0  0  0  0  0  0  0
    6.9146   -7.5834    5.3689 O   0  0  0  0  0  0  0  0  0  0  0  0
    8.3342   -7.7173    5.5731 C   0  0  0  0  0  0  0  0  0  0  0  0
    6.9565   -8.2222    3.0415 C   0  0  0  0  0  0  0  0  0  0  0  0
    6.3047   -8.1526    1.6692 C   0  0  1  0  0  0  0  0  0  0  0  0
    6.5583   -9.3735    0.9994 O   0  0  0  0  0  0  0  0  0  0  0  0
    4.7935   -7.7512    1.5669 C   0  0  2  0  0  0  0  0  0  0  0  0
    4.6192   -6.9277    0.2897 C   0  0  0  0  0  0  0  0  0  0  0  0
    4.6643   -5.6111   -0.0365 C   0  0  0  0  0  0  0  0  0  0  0  0
    4.8304   -4.2901    0.7207 C   0  0  1  0  0  0  0  0  0  0  0  0
    3.7666   -3.2204    0.1986 C   0  0  1  0  0  0  0  0  0  0  0  0
    2.3554   -3.8111    0.0109 C   0  0  0  0  0  0  0  0  0  0  0  0
    3.5533   -2.1131    1.0580 O   0  0  0  0  0  0  0  0  0  0  0  0
    4.2003   -2.5899   -1.1569 C   0  0  0  0  0  0  0  0  0  0  0  0
    5.5074   -1.7582   -1.1643 C   0  0  0  0  0  0  0  0  0  0  0  0
    5.2138   -4.3512    2.2516 C   0  0  2  0  0  0  0  0  0  0  0  0
    5.5420   -2.9806    2.5273 O   0  0  0  0  0  0  0  0  0  0  0  0
    5.4119   -2.4126    3.8294 C   0  0  0  0  0  0  0  0  0  0  0  0
    4.0036   -4.7717    3.1234 C   0  0  0  0  0  0  0  0  0  0  0  0
    3.1577   -6.0223    2.7581 C   0  0  1  0  0  0  0  0  0  0  0  0
    3.9434   -7.4031    2.8732 C   0  0  1  0  0  0  0  0  0  0  0  0
    3.0288   -8.6136    3.1227 C   0  0  0  0  0  0  0  0  0  0  0  0
    1.7816   -8.9380    2.5485 C   0  0  0  0  0  0  0  0  0  0  0  0
    1.2112  -10.1828    2.8833 C   0  0  0  0  0  0  0  0  0  0  0  0
    1.8764  -11.0560    3.7745 C   0  0  0  0  0  0  0  0  0  0  0  0
    3.0905  -10.6575    4.3856 C   0  0  0  0  0  0  0  0  0  0  0  0
    3.7848  -11.4078    5.3087 O   0  0  0  0  0  0  0  0  0  0  0  0
    3.7264  -12.8114    5.1797 C   0  0  0  0  0  0  0  0  0  0  0  0
    3.6428   -9.4047    4.0766 C   0  0  0  0  0  0  0  0  0  0  0  0
    4.7438   -8.8546    4.6419 O   0  0  0  0  0  0  0  0  0  0  0  0
    4.8449   -7.5011    4.1821 C   0  0  1  0  0  0  0  0  0  0  0  0
    1.1483   -7.8395    1.7368 C   0  0  0  0  0  0  0  0  0  0  0  0
    0.6978   -6.6303    2.5787 C   0  0  0  0  0  0  0  0  0  0  0  0
    1.7689   -6.0117    3.4957 N   0  0  2  0  0  0  0  0  0  0  0  0
    1.2308   -4.6129    3.8070 C   0  0  0  0  0  0  0  0  0  0  0  0
    1.8263   -6.6557    4.6775 O   0  0  0  0  0  0  0  0  0  0  0  0
    7.6062   -4.5682    0.7219 H   0  0  0  0  0  0  0  0  0  0  0  0
    8.5132   -5.5619    1.9497 H   0  0  0  0  0  0  0  0  0  0  0  0
    7.8259   -5.6218    4.0463 H   0  0  0  0  0  0  0  0  0  0  0  0
    6.3090   -5.1442    4.6731 H   0  0  0  0  0  0  0  0  0  0  0  0
    8.5239   -8.0984    6.5846 H   0  0  0  0  0  0  0  0  0  0  0  0
    8.8510   -6.7606    5.4909 H   0  0  0  0  0  0  0  0  0  0  0  0
    8.7943   -8.4280    4.8833 H   0  0  0  0  0  0  0  0  0  0  0  0
    8.0259   -8.0709    2.8946 H   0  0  0  0  0  0  0  0  0  0  0  0
    6.8635   -9.2342    3.4299 H   0  0  0  0  0  0  0  0  0  0  0  0
    6.8814   -7.4304    1.0982 H   0  0  0  0  0  0  0  0  0  0  0  0
    6.0742  -10.0579    1.4361 H   0  0  0  0  0  0  0  0  0  0  0  0
    4.3318   -8.6756    1.2155 H   0  0  0  0  0  0  0  0  0  0  0  0
    4.5374   -7.5692   -0.5759 H   0  0  0  0  0  0  0  0  0  0  0  0
    4.5937   -5.4406   -1.0994 H   0  0  0  0  0  0  0  0  0  0  0  0
    5.7442   -3.9325    0.2737 H   0  0  0  0  0  0  0  0  0  0  0  0
    2.3140   -4.6174   -0.7218 H   0  0  0  0  0  0  0  0  0  0  0  0
    1.6779   -3.0447   -0.3497 H   0  0  0  0  0  0  0  0  0  0  0  0
    1.9557   -4.1712    0.9498 H   0  0  0  0  0  0  0  0  0  0  0  0
    2.9193   -1.5353    0.6557 H   0  0  0  0  0  0  0  0  0  0  0  0
    4.2682   -3.3700   -1.9105 H   0  0  0  0  0  0  0  0  0  0  0  0
    3.4000   -1.9360   -1.5082 H   0  0  0  0  0  0  0  0  0  0  0  0
    5.7094   -1.4152   -2.1805 H   0  0  0  0  0  0  0  0  0  0  0  0
    6.3849   -2.3210   -0.8446 H   0  0  0  0  0  0  0  0  0  0  0  0
    5.4185   -0.8786   -0.5224 H   0  0  0  0  0  0  0  0  0  0  0  0
    5.6847   -1.3554    3.7613 H   0  0  0  0  0  0  0  0  0  0  0  0
    6.0619   -2.8853    4.5587 H   0  0  0  0  0  0  0  0  0  0  0  0
    4.3839   -2.4380    4.2146 H   0  0  0  0  0  0  0  0  0  0  0  0
    4.2338   -4.8010    4.1839 H   0  0  0  0  0  0  0  0  0  0  0  0
    3.3642   -3.9142    2.9879 H   0  0  0  0  0  0  0  0  0  0  0  0
    2.8460   -5.8897    1.7308 H   0  0  0  0  0  0  0  0  0  0  0  0
    0.2555  -10.4769    2.4812 H   0  0  0  0  0  0  0  0  0  0  0  0
    1.4224  -11.9991    4.0125 H   0  0  0  0  0  0  0  0  0  0  0  0
    4.2925  -13.2698    5.9854 H   0  0  0  0  0  0  0  0  0  0  0  0
    4.1625  -13.1249    4.2280 H   0  0  0  0  0  0  0  0  0  0  0  0
    2.7101  -13.1728    5.2801 H   0  0  0  0  0  0  0  0  0  0  0  0
    4.4257   -6.8866    4.9809 H   0  0  0  0  0  0  0  0  0  0  0  0
    1.7823   -7.5661    0.8994 H   0  0  0  0  0  0  0  0  0  0  0  0
    0.2352   -8.2350    1.2953 H   0  0  0  0  0  0  0  0  0  0  0  0
    0.3822   -5.8580    1.8797 H   0  0  0  0  0  0  0  0  0  0  0  0
   -0.1536   -6.8698    3.2106 H   0  0  0  0  0  0  0  0  0  0  0  0
    1.1920   -3.9948    2.9080 H   0  0  0  0  0  0  0  0  0  0  0  0
    1.8604   -4.1637    4.5753 H   0  0  0  0  0  0  0  0  0  0  0  0
    0.2210   -4.7262    4.2104 H   0  0  0  0  0  0  0  0  0  0  0  0
  1  2  2  0
  1 40  1  0
  1 41  1  0
  2 19  1  0
  2  3  1  0
  3  4  1  0
  3 42  1  0
  3 43  1  0
  4 34  1  0
  4  5  1  1
  4  7  1  0
  5  6  1  0
  6 44  1  0
  6 45  1  0
  6 46  1  0
  7  8  1  0
  7 47  1  0
  7 48  1  0
  8  9  1  0
  8 10  1  0
  8 49  1  6
  9 50  1  0
 10 24  1  0
 10 11  1  0
 10 51  1  6
 11 12  2  3
 11 52  1  0
 12 13  1  0
 12 53  1  0
 13 14  1  0
 13 19  1  0
 13 54  1  6
 14 15  1  0
 14 16  1  1
 14 17  1  0
 15 55  1  0
 15 56  1  0
 15 57  1  0
 16 58  1  0
 17 18  1  0
 17 59  1  0
 17 60  1  0
 18 61  1  0
 18 62  1  0
 18 63  1  0
 19 20  1  1
 19 22  1  0
 20 21  1  0
 21 64  1  0
 21 65  1  0
 21 66  1  0
 22 23  1  0
 22 67  1  0
 22 68  1  0
 23 37  1  0
 23 24  1  0
 23 69  1  6
 24 34  1  0
 24 25  1  1
 25 32  2  0
 25 26  1  0
 26 27  2  0
 26 35  1  0
 27 28  1  0
 27 70  1  0
 28 29  2  0
 28 71  1  0
 29 30  1  0
 29 32  1  0
 30 31  1  0
 31 72  1  0
 31 73  1  0
 31 74  1  0
 32 33  1  0
 33 34  1  0
 34 75  1  1
 35 36  1  0
 35 76  1  0
 35 77  1  0
 36 37  1  0
 36 78  1  0
 36 79  1  0
 37 38  1  0
 37 39  1  1
 38 80  1  0
 38 81  1  0
 38 82  1  0
M  CHG  2  37   1  39  -1
M  END
>  <i_m_ct_stereo_status>  (222) 
1

>  <s_m_source_file>  (222) 
/var/tmp/pbs.5076255.sched01/tmpnx1894nc/68p53si2vm.sdf

>  <i_m_source_file_index>  (222) 
20

>  <i_lp_mmshare_version>  (222) 
48012

>  <i_f3d_flags>  (222) 
0

>  <s_epik_input>  (222) 
W0NIM11bQ0gyXVtDQF0oW0NIM10pKFtPSF0pW0NASF0oL1tDSF09W0NIXVwxKVtDQEBdKEMoPVtDSDJdKVtDSDJdMikoT1tDSDNdKVtDSDJdW0NAQEhdM1tOQEArXShbTy1dKShbQ0gzXSlbQ0gyXVtDSDJdYyhbY0hdW2NIXWM0T1tDSDNdKWM1YzRPW0NASF02W0NAQF0yKE9bQ0gzXSlbQ0gyXVtDQEBIXShbT0hdKVtDQEhdMVtDQEBdMzU2

>  <s_epik_cmdline>  (222) 
J2VwaWtfcHl0aG9uJywgJy1waHQnLCAnMi4wJywgJy1waCcsICc3LjAnLCAnLXRuJywgJzgnLCAnLW1hJywgJzIwMCcsICctaW1hZScsICc8aW5maWxlLm1hZT4nLCAnLW9tYWUnLCAnPG91dGZpbGUubWFlPic=

>  <r_lp_tautomer_probability>  (222) 
1

>  <r_epik_Ionization_Penalty>  (222) 
0.00482219

>  <r_epik_Ionization_Penalty_Charging>  (222) 
0.00482203

>  <r_epik_Ionization_Penalty_Neutral>  (222) 
1.56398e-07

>  <r_epik_State_Penalty>  (222) 
0.00349683

>  <r_epik_Charging_Adjusted_Penalty>  (222) 
0.00831886

>  <i_epik_Tot_Q>  (222) 
0

>  <i_epik_Tot_abs_Q>  (222) 
2

>  <s_lp_Force_Field>  (222) 
OPLS3e

>  <r_lp_Energy>  (222) 
117.444

>  <b_lp_Chiralities_Consistent>  (222) 
1

>  <s_lp_Variant>  (222) 
67:0-1

>  <s_i_glide_gridfile>  (222) 
pfpi4k_grid

>  <i_i_glide_lignum>  (222) 
20

>  <i_i_glide_rotatable_bonds>  (222) 
7

>  <r_i_docking_score>  (222) 
-2.53143

>  <r_i_glide_ligand_efficiency>  (222) 
-0.0649084

>  <r_i_glide_ligand_efficiency_sa>  (222) 
-0.220118

>  <r_i_glide_ligand_efficiency_ln>  (222) 
-0.54281

>  <r_i_glide_gscore>  (222) 
-2.53143

>  <r_i_glide_lipo>  (222) 
-0.738476

>  <r_i_glide_hbond>  (222) 
0

>  <r_i_glide_metal>  (222) 
-0

>  <r_i_glide_rewards>  (222) 
0

>  <r_i_glide_evdw>  (222) 
-26.7404

>  <r_i_glide_ecoul>  (222) 
-3.45725

>  <r_i_glide_erotb>  (222) 
0.0704874

>  <r_i_glide_esite>  (222) 
-0.00783341

>  <r_i_glide_emodel>  (222) 
-29.7945

>  <r_i_glide_energy>  (222) 
-30.1976

>  <r_i_glide_einternal>  (222) 
9.67163

>  <r_i_glide_intrahb_reward>  (222) 
-0

>  <i_i_glide_confnum>  (222) 
2

>  <i_i_glide_posenum>  (222) 
21

>  <r_i_glide_eff_state_penalty>  (222) 
0

>  <ligand_id>  (222) 
67

>  <original_smiles>  (222) 
C=C1CC2(OC)CC(O)C3C=CC(C(C)(O)CC)C1(OC)CC1C34c3c(ccc(OC)c3OC24)CC[N+]1(C)[O-]

>  <smiles>  (222) 
[H]OC1([H])C([H])([H])C2(OC([H])([H])[H])C([H])([H])C(=C([H])[H])C3(OC([H])([H])[H])C([H])([H])C4([H])C5(c6c(c(OC([H])([H])[H])c([H])c([H])c6C([H])([H])C([H])([H])[N+]4([O-])C([H])([H])[H])OC25[H])C1([H])C([H])=C([H])C3([H])C(O[H])(C([H])([H])[H])C([H])([H])C([H])([H])[H]

$$$$
67:0:2
     RDKit          3D

 82 87  0  0  1  0  0  0  0  0999 V2000
    3.1705    2.5955    4.2726 C   0  0  0  0  0  0  0  0  0  0  0  0
    2.9430    1.5667    5.1157 C   0  0  0  0  0  0  0  0  0  0  0  0
    4.1401    1.0099    5.8835 C   0  0  0  0  0  0  0  0  0  0  0  0
    4.8965   -0.2119    5.2833 C   0  0  2  0  0  0  0  0  0  0  0  0
    6.0714   -0.3608    6.1106 O   0  0  0  0  0  0  0  0  0  0  0  0
    7.1799    0.5544    5.9633 C   0  0  0  0  0  0  0  0  0  0  0  0
    5.3003   -0.1209    3.8119 C   0  0  0  0  0  0  0  0  0  0  0  0
    4.1606   -0.2267    2.8185 C   0  0  1  0  0  0  0  0  0  0  0  0
    4.7197   -0.6003    1.5773 O   0  0  0  0  0  0  0  0  0  0  0  0
    2.9296   -1.1160    3.1729 C   0  0  2  0  0  0  0  0  0  0  0  0
    1.7074   -0.4294    2.5544 C   0  0  0  0  0  0  0  0  0  0  0  0
    0.7918    0.4730    2.9807 C   0  0  0  0  0  0  0  0  0  0  0  0
    0.4815    1.2089    4.2983 C   0  0  1  0  0  0  0  0  0  0  0  0
   -1.0863    1.2035    4.5740 C   0  0  1  0  0  0  0  0  0  0  0  0
   -1.7035   -0.1990    4.5693 C   0  0  0  0  0  0  0  0  0  0  0  0
   -1.4749    1.7047    5.8295 O   0  0  0  0  0  0  0  0  0  0  0  0
   -1.8824    2.0558    3.5530 C   0  0  0  0  0  0  0  0  0  0  0  0
   -1.5031    3.5513    3.4153 C   0  0  0  0  0  0  0  0  0  0  0  0
    1.5203    1.0905    5.4935 C   0  0  2  0  0  0  0  0  0  0  0  0
    1.0324    2.0946    6.3954 O   0  0  0  0  0  0  0  0  0  0  0  0
    1.6920    2.3558    7.6328 C   0  0  0  0  0  0  0  0  0  0  0  0
    1.4313   -0.2779    6.2179 C   0  0  0  0  0  0  0  0  0  0  0  0
    1.4580   -1.5891    5.3623 C   0  0  1  0  0  0  0  0  0  0  0  0
    2.8320   -1.8681    4.5853 C   0  0  1  0  0  0  0  0  0  0  0  0
    3.0921   -3.3531    4.2751 C   0  0  0  0  0  0  0  0  0  0  0  0
    2.2126   -4.3542    3.8147 C   0  0  0  0  0  0  0  0  0  0  0  0
    2.7434   -5.6181    3.5322 C   0  0  0  0  0  0  0  0  0  0  0  0
    4.1253   -5.8749    3.7253 C   0  0  0  0  0  0  0  0  0  0  0  0
    4.9610   -4.8778    4.2740 C   0  0  0  0  0  0  0  0  0  0  0  0
    6.2955   -5.0756    4.5645 O   0  0  0  0  0  0  0  0  0  0  0  0
    6.8967   -6.3087    4.2188 C   0  0  0  0  0  0  0  0  0  0  0  0
    4.4348   -3.6025    4.5701 C   0  0  0  0  0  0  0  0  0  0  0  0
    5.0843   -2.5668    5.1645 O   0  0  0  0  0  0  0  0  0  0  0  0
    4.1223   -1.5578    5.4812 C   0  0  1  0  0  0  0  0  0  0  0  0
    0.7604   -3.9366    3.8428 C   0  0  0  0  0  0  0  0  0  0  0  0
    0.1812   -3.7728    5.2613 C   0  0  0  0  0  0  0  0  0  0  0  0
    0.9498   -2.8272    6.1900 N   0  0  2  0  0  0  0  0  0  0  0  0
   -0.0377   -2.5136    7.3134 C   0  0  0  0  0  0  0  0  0  0  0  0
    1.9710   -3.4711    6.7842 O   0  0  0  0  0  0  0  0  0  0  0  0
    2.4103    3.1476    3.7474 H   0  0  0  0  0  0  0  0  0  0  0  0
    4.1768    2.9409    4.1009 H   0  0  0  0  0  0  0  0  0  0  0  0
    4.8197    1.8621    5.9254 H   0  0  0  0  0  0  0  0  0  0  0  0
    3.9090    0.8247    6.9294 H   0  0  0  0  0  0  0  0  0  0  0  0
    7.9951    0.2384    6.6194 H   0  0  0  0  0  0  0  0  0  0  0  0
    6.9253    1.5725    6.2532 H   0  0  0  0  0  0  0  0  0  0  0  0
    7.5915    0.5689    4.9524 H   0  0  0  0  0  0  0  0  0  0  0  0
    5.8101    0.8220    3.6112 H   0  0  0  0  0  0  0  0  0  0  0  0
    6.0376   -0.8923    3.6061 H   0  0  0  0  0  0  0  0  0  0  0  0
    3.8087    0.7871    2.6449 H   0  0  0  0  0  0  0  0  0  0  0  0
    5.0565   -1.4832    1.6589 H   0  0  0  0  0  0  0  0  0  0  0  0
    3.0151   -1.9353    2.4589 H   0  0  0  0  0  0  0  0  0  0  0  0
    1.6179   -0.6654    1.4983 H   0  0  0  0  0  0  0  0  0  0  0  0
    0.1261    0.7777    2.1923 H   0  0  0  0  0  0  0  0  0  0  0  0
    0.6420    2.2387    4.0163 H   0  0  0  0  0  0  0  0  0  0  0  0
   -1.6089   -0.6739    3.6092 H   0  0  0  0  0  0  0  0  0  0  0  0
   -2.7688   -0.2009    4.8082 H   0  0  0  0  0  0  0  0  0  0  0  0
   -1.2108   -0.8118    5.2877 H   0  0  0  0  0  0  0  0  0  0  0  0
   -1.0364    2.5350    5.9637 H   0  0  0  0  0  0  0  0  0  0  0  0
   -1.8477    1.5982    2.5668 H   0  0  0  0  0  0  0  0  0  0  0  0
   -2.9374    2.0379    3.8316 H   0  0  0  0  0  0  0  0  0  0  0  0
   -2.1446    4.0124    2.6497 H   0  0  0  0  0  0  0  0  0  0  0  0
   -0.4757    3.7216    3.0805 H   0  0  0  0  0  0  0  0  0  0  0  0
   -1.6567    4.0872    4.3548 H   0  0  0  0  0  0  0  0  0  0  0  0
    1.1072    3.0985    8.1799 H   0  0  0  0  0  0  0  0  0  0  0  0
    2.6916    2.7775    7.5073 H   0  0  0  0  0  0  0  0  0  0  0  0
    1.7508    1.4683    8.2626 H   0  0  0  0  0  0  0  0  0  0  0  0
    2.1363   -0.3873    7.0295 H   0  0  0  0  0  0  0  0  0  0  0  0
    0.4653   -0.2039    6.7075 H   0  0  0  0  0  0  0  0  0  0  0  0
    0.6625   -1.4934    4.6254 H   0  0  0  0  0  0  0  0  0  0  0  0
    2.1218   -6.4162    3.1945 H   0  0  0  0  0  0  0  0  0  0  0  0
    4.5006   -6.8555    3.4893 H   0  0  0  0  0  0  0  0  0  0  0  0
    7.9512   -6.2661    4.4732 H   0  0  0  0  0  0  0  0  0  0  0  0
    6.8267   -6.5115    3.1524 H   0  0  0  0  0  0  0  0  0  0  0  0
    6.4561   -7.1343    4.7729 H   0  0  0  0  0  0  0  0  0  0  0  0
    3.8841   -1.7001    6.5375 H   0  0  0  0  0  0  0  0  0  0  0  0
    0.5922   -3.1048    3.1774 H   0  0  0  0  0  0  0  0  0  0  0  0
    0.2465   -4.7880    3.3919 H   0  0  0  0  0  0  0  0  0  0  0  0
   -0.8194   -3.3507    5.1531 H   0  0  0  0  0  0  0  0  0  0  0  0
    0.0877   -4.7194    5.7636 H   0  0  0  0  0  0  0  0  0  0  0  0
   -0.9227   -2.0058    6.9639 H   0  0  0  0  0  0  0  0  0  0  0  0
    0.4745   -1.9531    8.0861 H   0  0  0  0  0  0  0  0  0  0  0  0
   -0.3353   -3.4651    7.7599 H   0  0  0  0  0  0  0  0  0  0  0  0
  1  2  2  0
  1 40  1  0
  1 41  1  0
  2 19  1  0
  2  3  1  0
  3  4  1  0
  3 42  1  0
  3 43  1  0
  4 34  1  0
  4  5  1  1
  4  7  1  0
  5  6  1  0
  6 44  1  0
  6 45  1  0
  6 46  1  0
  7  8  1  0
  7 47  1  0
  7 48  1  0
  8  9  1  0
  8 10  1  0
  8 49  1  6
  9 50  1  0
 10 24  1  0
 10 11  1  0
 10 51  1  6
 11 12  2  3
 11 52  1  0
 12 13  1  0
 12 53  1  0
 13 14  1  0
 13 19  1  0
 13 54  1  6
 14 15  1  0
 14 16  1  1
 14 17  1  0
 15 55  1  0
 15 56  1  0
 15 57  1  0
 16 58  1  0
 17 18  1  0
 17 59  1  0
 17 60  1  0
 18 61  1  0
 18 62  1  0
 18 63  1  0
 19 20  1  1
 19 22  1  0
 20 21  1  0
 21 64  1  0
 21 65  1  0
 21 66  1  0
 22 23  1  0
 22 67  1  0
 22 68  1  0
 23 37  1  0
 23 24  1  0
 23 69  1  6
 24 34  1  0
 24 25  1  6
 25 32  2  0
 25 26  1  0
 26 27  2  0
 26 35  1  0
 27 28  1  0
 27 70  1  0
 28 29  2  0
 28 71  1  0
 29 30  1  0
 29 32  1  0
 30 31  1  0
 31 72  1  0
 31 73  1  0
 31 74  1  0
 32 33  1  0
 33 34  1  0
 34 75  1  1
 35 36  1  0
 35 76  1  0
 35 77  1  0
 36 37  1  0
 36 78  1  0
 36 79  1  0
 37 38  1  0
 37 39  1  1
 38 80  1  0
 38 81  1  0
 38 82  1  0
M  CHG  2  37   1  39  -1
M  END
>  <i_m_ct_stereo_status>  (223) 
1

>  <s_m_source_file>  (223) 
/var/tmp/pbs.5076255.sched01/tmpnx1894nc/68p53si2vm.sdf

>  <i_m_source_file_index>  (223) 
20

>  <i_lp_mmshare_version>  (223) 
48012

>  <i_f3d_flags>  (223) 
0

>  <s_epik_input>  (223) 
W0NIM11bQ0gyXVtDQF0oW0NIM10pKFtPSF0pW0NASF0oL1tDSF09W0NIXVwxKVtDQEBdKEMoPVtDSDJdKVtDSDJdMikoT1tDSDNdKVtDSDJdW0NAQEhdM1tOQEArXShbTy1dKShbQ0gzXSlbQ0gyXVtDSDJdYyhbY0hdW2NIXWM0T1tDSDNdKWM1YzRPW0NASF02W0NAQF0yKE9bQ0gzXSlbQ0gyXVtDQEBIXShbT0hdKVtDQEhdMVtDQEBdMzU2

>  <s_epik_cmdline>  (223) 
J2VwaWtfcHl0aG9uJywgJy1waHQnLCAnMi4wJywgJy1waCcsICc3LjAnLCAnLXRuJywgJzgnLCAnLW1hJywgJzIwMCcsICctaW1hZScsICc8aW5maWxlLm1hZT4nLCAnLW9tYWUnLCAnPG91dGZpbGUubWFlPic=

>  <r_lp_tautomer_probability>  (223) 
1

>  <r_epik_Ionization_Penalty>  (223) 
0.00482219

>  <r_epik_Ionization_Penalty_Charging>  (223) 
0.00482203

>  <r_epik_Ionization_Penalty_Neutral>  (223) 
1.56398e-07

>  <r_epik_State_Penalty>  (223) 
0.00349683

>  <r_epik_Charging_Adjusted_Penalty>  (223) 
0.00831886

>  <i_epik_Tot_Q>  (223) 
0

>  <i_epik_Tot_abs_Q>  (223) 
2

>  <s_lp_Force_Field>  (223) 
OPLS3e

>  <r_lp_Energy>  (223) 
117.444

>  <b_lp_Chiralities_Consistent>  (223) 
1

>  <s_lp_Variant>  (223) 
67:0-1

>  <s_i_glide_gridfile>  (223) 
pfpi4k_grid

>  <i_i_glide_lignum>  (223) 
20

>  <i_i_glide_rotatable_bonds>  (223) 
7

>  <r_i_docking_score>  (223) 
-1.92045

>  <r_i_glide_ligand_efficiency>  (223) 
-0.0492422

>  <r_i_glide_ligand_efficiency_sa>  (223) 
-0.166991

>  <r_i_glide_ligand_efficiency_ln>  (223) 
-0.411798

>  <r_i_glide_gscore>  (223) 
-1.92045

>  <r_i_glide_lipo>  (223) 
-0.380538

>  <r_i_glide_hbond>  (223) 
0

>  <r_i_glide_metal>  (223) 
-0

>  <r_i_glide_rewards>  (223) 
0

>  <r_i_glide_evdw>  (223) 
-23.863

>  <r_i_glide_ecoul>  (223) 
-2.76337

>  <r_i_glide_erotb>  (223) 
0.0704874

>  <r_i_glide_esite>  (223) 
-0.00273778

>  <r_i_glide_emodel>  (223) 
-27.7947

>  <r_i_glide_energy>  (223) 
-26.6264

>  <r_i_glide_einternal>  (223) 
4.4407

>  <r_i_glide_intrahb_reward>  (223) 
-0

>  <i_i_glide_confnum>  (223) 
1

>  <i_i_glide_posenum>  (223) 
29

>  <r_i_glide_eff_state_penalty>  (223) 
0

>  <ligand_id>  (223) 
67

>  <original_smiles>  (223) 
C=C1CC2(OC)CC(O)C3C=CC(C(C)(O)CC)C1(OC)CC1C34c3c(ccc(OC)c3OC24)CC[N+]1(C)[O-]

>  <smiles>  (223) 
[H]OC1([H])C([H])([H])C2(OC([H])([H])[H])C([H])([H])C(=C([H])[H])C3(OC([H])([H])[H])C([H])([H])C4([H])C5(c6c(c(OC([H])([H])[H])c([H])c([H])c6C([H])([H])C([H])([H])[N+]4([O-])C([H])([H])[H])OC25[H])C1([H])C([H])=C([H])C3([H])C(O[H])(C([H])([H])[H])C([H])([H])C([H])([H])[H]

$$$$
67:1:0
     RDKit          3D

 82 87  0  0  1  0  0  0  0  0999 V2000
    2.3273   -7.7031    7.3043 C   0  0  0  0  0  0  0  0  0  0  0  0
    2.5992   -6.4712    6.8207 C   0  0  0  0  0  0  0  0  0  0  0  0
    3.2970   -5.4812    7.7591 C   0  0  0  0  0  0  0  0  0  0  0  0
    2.4806   -4.3815    8.5370 C   0  0  2  0  0  0  0  0  0  0  0  0
    3.4158   -3.9688    9.5618 O   0  0  0  0  0  0  0  0  0  0  0  0
    3.6935   -4.8090   10.7084 C   0  0  0  0  0  0  0  0  0  0  0  0
    1.1448   -4.7563    9.2433 C   0  0  0  0  0  0  0  0  0  0  0  0
   -0.1739   -4.2119    8.6457 C   0  0  1  0  0  0  0  0  0  0  0  0
   -0.6001   -3.0585    9.3467 O   0  0  0  0  0  0  0  0  0  0  0  0
   -0.1450   -3.9969    7.1066 C   0  0  2  0  0  0  0  0  0  0  0  0
   -0.1508   -5.4048    6.5409 C   0  0  0  0  0  0  0  0  0  0  0  0
   -0.1490   -5.7511    5.2498 C   0  0  0  0  0  0  0  0  0  0  0  0
    0.9562   -6.6748    4.7567 C   0  0  1  0  0  0  0  0  0  0  0  0
    0.8266   -6.9994    3.2009 C   0  0  1  0  0  0  0  0  0  0  0  0
    1.4498   -8.3759    2.8394 C   0  0  0  0  0  0  0  0  0  0  0  0
   -0.5551   -7.1468    2.9156 O   0  0  0  0  0  0  0  0  0  0  0  0
    1.3369   -5.8814    2.2582 C   0  0  0  0  0  0  0  0  0  0  0  0
    1.2577   -6.1220    0.7396 C   0  0  0  0  0  0  0  0  0  0  0  0
    2.3654   -6.1083    5.3268 C   0  0  2  0  0  0  0  0  0  0  0  0
    3.3181   -6.8756    4.5890 O   0  0  0  0  0  0  0  0  0  0  0  0
    4.7158   -6.7273    4.8477 C   0  0  0  0  0  0  0  0  0  0  0  0
    2.6795   -4.5774    5.0111 C   0  0  0  0  0  0  0  0  0  0  0  0
    1.6153   -3.4010    5.1096 C   0  0  1  0  0  0  0  0  0  0  0  0
    1.0785   -3.0698    6.5998 C   0  0  1  0  0  0  0  0  0  0  0  0
    0.6216   -1.6115    6.7896 C   0  0  0  0  0  0  0  0  0  0  0  0
   -0.1723   -0.7959    5.9543 C   0  0  0  0  0  0  0  0  0  0  0  0
   -0.4935    0.4959    6.4216 C   0  0  0  0  0  0  0  0  0  0  0  0
   -0.0209    0.9353    7.6816 C   0  0  0  0  0  0  0  0  0  0  0  0
    0.8090    0.1091    8.4661 C   0  0  0  0  0  0  0  0  0  0  0  0
    1.2628    0.6163    9.6611 O   0  0  0  0  0  0  0  0  0  0  0  0
    1.0068   -0.2072   10.7979 C   0  0  0  0  0  0  0  0  0  0  0  0
    1.1889   -1.1675    7.9874 C   0  0  0  0  0  0  0  0  0  0  0  0
    2.0550   -2.0321    8.5658 O   0  0  0  0  0  0  0  0  0  0  0  0
    2.2786   -3.1076    7.6525 C   0  0  1  0  0  0  0  0  0  0  0  0
   -0.4028   -1.3575    4.5757 C   0  0  0  0  0  0  0  0  0  0  0  0
    0.8715   -1.3897    3.7081 C   0  0  0  0  0  0  0  0  0  0  0  0
    2.0893   -2.1195    4.3225 N   0  0  2  0  0  0  0  0  0  0  0  0
    2.9517   -2.4362    3.1001 C   0  0  0  0  0  0  0  0  0  0  0  0
    2.8166   -1.2941    5.0990 O   0  0  0  0  0  0  0  0  0  0  0  0
    1.9262   -8.5035    6.7019 H   0  0  0  0  0  0  0  0  0  0  0  0
    2.5477   -7.9542    8.3342 H   0  0  0  0  0  0  0  0  0  0  0  0
    3.7743   -6.1532    8.4617 H   0  0  0  0  0  0  0  0  0  0  0  0
    4.1716   -5.0350    7.2871 H   0  0  0  0  0  0  0  0  0  0  0  0
    4.3673   -4.2727   11.3820 H   0  0  0  0  0  0  0  0  0  0  0  0
    4.1850   -5.7490   10.4641 H   0  0  0  0  0  0  0  0  0  0  0  0
    2.8202   -5.0543   11.3131 H   0  0  0  0  0  0  0  0  0  0  0  0
    1.1054   -5.8413    9.3221 H   0  0  0  0  0  0  0  0  0  0  0  0
    1.1359   -4.4026   10.2701 H   0  0  0  0  0  0  0  0  0  0  0  0
   -0.9452   -4.9423    8.8940 H   0  0  0  0  0  0  0  0  0  0  0  0
   -0.4708   -3.2120   10.2733 H   0  0  0  0  0  0  0  0  0  0  0  0
   -1.0959   -3.5618    6.7855 H   0  0  0  0  0  0  0  0  0  0  0  0
    0.2427   -6.1314    7.2314 H   0  0  0  0  0  0  0  0  0  0  0  0
   -0.5325   -5.0866    4.4990 H   0  0  0  0  0  0  0  0  0  0  0  0
    0.7313   -7.6272    5.2318 H   0  0  0  0  0  0  0  0  0  0  0  0
    2.5272   -8.4192    3.0044 H   0  0  0  0  0  0  0  0  0  0  0  0
    1.3116   -8.6338    1.7874 H   0  0  0  0  0  0  0  0  0  0  0  0
    1.0051   -9.1975    3.4024 H   0  0  0  0  0  0  0  0  0  0  0  0
   -0.8246   -7.9955    3.2374 H   0  0  0  0  0  0  0  0  0  0  0  0
    0.8673   -4.9307    2.5123 H   0  0  0  0  0  0  0  0  0  0  0  0
    2.4059   -5.7949    2.4043 H   0  0  0  0  0  0  0  0  0  0  0  0
    1.7350   -5.2931    0.2186 H   0  0  0  0  0  0  0  0  0  0  0  0
    0.2498   -6.2711    0.3572 H   0  0  0  0  0  0  0  0  0  0  0  0
    1.8551   -6.9820    0.4747 H   0  0  0  0  0  0  0  0  0  0  0  0
    5.2569   -7.4496    4.2358 H   0  0  0  0  0  0  0  0  0  0  0  0
    4.9951   -6.9285    5.8831 H   0  0  0  0  0  0  0  0  0  0  0  0
    5.0810   -5.7397    4.5686 H   0  0  0  0  0  0  0  0  0  0  0  0
    3.5875   -4.2320    5.5006 H   0  0  0  0  0  0  0  0  0  0  0  0
    3.0083   -4.6459    3.9943 H   0  0  0  0  0  0  0  0  0  0  0  0
    0.7976   -3.6552    4.4609 H   0  0  0  0  0  0  0  0  0  0  0  0
   -1.0719    1.1745    5.8134 H   0  0  0  0  0  0  0  0  0  0  0  0
   -0.2645    1.9150    8.0514 H   0  0  0  0  0  0  0  0  0  0  0  0
    1.5430    0.1961   11.6627 H   0  0  0  0  0  0  0  0  0  0  0  0
    1.3152   -1.2468   10.6876 H   0  0  0  0  0  0  0  0  0  0  0  0
   -0.0631   -0.1882   11.0156 H   0  0  0  0  0  0  0  0  0  0  0  0
    3.2149   -2.8435    7.1554 H   0  0  0  0  0  0  0  0  0  0  0  0
   -0.9410   -2.2960    4.6089 H   0  0  0  0  0  0  0  0  0  0  0  0
   -1.0797   -0.6585    4.0847 H   0  0  0  0  0  0  0  0  0  0  0  0
    0.6226   -1.9012    2.7758 H   0  0  0  0  0  0  0  0  0  0  0  0
    1.2082   -0.3945    3.4324 H   0  0  0  0  0  0  0  0  0  0  0  0
    2.4369   -3.1499    2.4539 H   0  0  0  0  0  0  0  0  0  0  0  0
    3.9165   -2.8092    3.4321 H   0  0  0  0  0  0  0  0  0  0  0  0
    3.1230   -1.5072    2.5548 H   0  0  0  0  0  0  0  0  0  0  0  0
  1  2  2  0
  1 40  1  0
  1 41  1  0
  2 19  1  0
  2  3  1  0
  3  4  1  0
  3 42  1  0
  3 43  1  0
  4 34  1  0
  4  5  1  1
  4  7  1  0
  5  6  1  0
  6 44  1  0
  6 45  1  0
  6 46  1  0
  7  8  1  0
  7 47  1  0
  7 48  1  0
  8  9  1  0
  8 10  1  0
  8 49  1  6
  9 50  1  0
 10 24  1  0
 10 11  1  0
 10 51  1  6
 11 12  2  3
 11 52  1  0
 12 13  1  0
 12 53  1  0
 13 14  1  0
 13 19  1  0
 13 54  1  1
 14 15  1  0
 14 16  1  6
 14 17  1  0
 15 55  1  0
 15 56  1  0
 15 57  1  0
 16 58  1  0
 17 18  1  0
 17 59  1  0
 17 60  1  0
 18 61  1  0
 18 62  1  0
 18 63  1  0
 19 20  1  6
 19 22  1  0
 20 21  1  0
 21 64  1  0
 21 65  1  0
 21 66  1  0
 22 23  1  0
 22 67  1  0
 22 68  1  0
 23 37  1  0
 23 24  1  0
 23 69  1  6
 24 34  1  0
 24 25  1  6
 25 32  2  0
 25 26  1  0
 26 27  2  0
 26 35  1  0
 27 28  1  0
 27 70  1  0
 28 29  2  0
 28 71  1  0
 29 30  1  0
 29 32  1  0
 30 31  1  0
 31 72  1  0
 31 73  1  0
 31 74  1  0
 32 33  1  0
 33 34  1  0
 34 75  1  6
 35 36  1  0
 35 76  1  0
 35 77  1  0
 36 37  1  0
 36 78  1  0
 36 79  1  0
 37 38  1  0
 37 39  1  1
 38 80  1  0
 38 81  1  0
 38 82  1  0
M  CHG  2  37   1  39  -1
M  END
>  <i_m_ct_stereo_status>  (224) 
1

>  <s_m_source_file>  (224) 
/var/tmp/pbs.5076255.sched01/tmpnx1894nc/68p53si2vm.sdf

>  <i_m_source_file_index>  (224) 
21

>  <i_lp_mmshare_version>  (224) 
48012

>  <i_f3d_flags>  (224) 
0

>  <s_epik_input>  (224) 
W0NIM11bQ0gyXVtDQF0oW0NIM10pKFtPSF0pW0NASF0oL1tDSF09W0NIXVwxKVtDQEBdKEMoPVtDSDJdKVtDSDJdMikoT1tDSDNdKVtDSDJdW0NAQEhdM1tOQEArXShbTy1dKShbQ0gzXSlbQ0gyXVtDSDJdYyhbY0hdW2NIXWM0T1tDSDNdKWM1YzRPW0NASF02W0NAQF0yKE9bQ0gzXSlbQ0gyXVtDQEBIXShbT0hdKVtDQEhdMVtDQEBdMzU2

>  <s_epik_cmdline>  (224) 
J2VwaWtfcHl0aG9uJywgJy1waHQnLCAnMi4wJywgJy1waCcsICc3LjAnLCAnLXRuJywgJzgnLCAnLW1hJywgJzIwMCcsICctaW1hZScsICc8aW5maWxlLm1hZT4nLCAnLW9tYWUnLCAnPG91dGZpbGUubWFlPic=

>  <r_lp_tautomer_probability>  (224) 
1

>  <r_epik_Ionization_Penalty>  (224) 
0.00482219

>  <r_epik_Ionization_Penalty_Charging>  (224) 
0.00482203

>  <r_epik_Ionization_Penalty_Neutral>  (224) 
1.56398e-07

>  <r_epik_State_Penalty>  (224) 
0.00349683

>  <r_epik_Charging_Adjusted_Penalty>  (224) 
0.00831886

>  <i_epik_Tot_Q>  (224) 
0

>  <i_epik_Tot_abs_Q>  (224) 
2

>  <s_lp_Force_Field>  (224) 
OPLS3e

>  <r_lp_Energy>  (224) 
141.691

>  <b_lp_Chiralities_Consistent>  (224) 
1

>  <s_lp_Variant>  (224) 
67:0-2

>  <s_i_glide_gridfile>  (224) 
pfpi4k_grid

>  <i_i_glide_lignum>  (224) 
21

>  <i_i_glide_rotatable_bonds>  (224) 
7

>  <r_i_docking_score>  (224) 
-2.38983

>  <r_i_glide_ligand_efficiency>  (224) 
-0.0612776

>  <r_i_glide_ligand_efficiency_sa>  (224) 
-0.207805

>  <r_i_glide_ligand_efficiency_ln>  (224) 
-0.512446

>  <r_i_glide_gscore>  (224) 
-2.38983

>  <r_i_glide_lipo>  (224) 
-0.0266745

>  <r_i_glide_hbond>  (224) 
-0.0846055

>  <r_i_glide_metal>  (224) 
-0

>  <r_i_glide_rewards>  (224) 
0

>  <r_i_glide_evdw>  (224) 
-19.3644

>  <r_i_glide_ecoul>  (224) 
-9.20542

>  <r_i_glide_erotb>  (224) 
0.0704874

>  <r_i_glide_esite>  (224) 
0

>  <r_i_glide_emodel>  (224) 
-25.2245

>  <r_i_glide_energy>  (224) 
-28.5698

>  <r_i_glide_einternal>  (224) 
14.01

>  <r_i_glide_intrahb_reward>  (224) 
-0

>  <i_i_glide_confnum>  (224) 
2

>  <i_i_glide_posenum>  (224) 
23

>  <r_i_glide_eff_state_penalty>  (224) 
0

>  <ligand_id>  (224) 
67

>  <original_smiles>  (224) 
C=C1CC2(OC)CC(O)C3C=CC(C(C)(O)CC)C1(OC)CC1C34c3c(ccc(OC)c3OC24)CC[N+]1(C)[O-]

>  <smiles>  (224) 
[H]OC1([H])C([H])([H])C2(OC([H])([H])[H])C([H])([H])C(=C([H])[H])C3(OC([H])([H])[H])C([H])([H])C4([H])C5(c6c(c(OC([H])([H])[H])c([H])c([H])c6C([H])([H])C([H])([H])[N+]4([O-])C([H])([H])[H])OC25[H])C1([H])C([H])=C([H])C3([H])C(O[H])(C([H])([H])[H])C([H])([H])C([H])([H])[H]

$$$$
67:1:1
     RDKit          3D

 82 87  0  0  1  0  0  0  0  0999 V2000
    4.5320   -1.0037    5.3494 C   0  0  0  0  0  0  0  0  0  0  0  0
    4.0401   -2.2138    5.7019 C   0  0  0  0  0  0  0  0  0  0  0  0
    5.0376   -3.3742    5.8363 C   0  0  0  0  0  0  0  0  0  0  0  0
    5.1741   -4.4744    4.7272 C   0  0  2  0  0  0  0  0  0  0  0  0
    6.4693   -5.0540    4.9839 O   0  0  0  0  0  0  0  0  0  0  0  0
    6.7351   -5.7619    6.1975 C   0  0  0  0  0  0  0  0  0  0  0  0
    5.3461   -3.9609    3.2626 C   0  0  0  0  0  0  0  0  0  0  0  0
    4.1820   -4.2575    2.2701 C   0  0  1  0  0  0  0  0  0  0  0  0
    4.4673   -5.3908    1.4762 O   0  0  0  0  0  0  0  0  0  0  0  0
    2.7777   -4.3224    2.9395 C   0  0  2  0  0  0  0  0  0  0  0  0
    2.4685   -2.8795    3.2860 C   0  0  0  0  0  0  0  0  0  0  0  0
    1.3542   -2.4277    3.8625 C   0  0  0  0  0  0  0  0  0  0  0  0
    1.5015   -1.6183    5.1410 C   0  0  1  0  0  0  0  0  0  0  0  0
    0.1101   -1.1024    5.7359 C   0  0  1  0  0  0  0  0  0  0  0  0
   -1.0871   -1.2327    4.7618 C   0  0  0  0  0  0  0  0  0  0  0  0
   -0.2565   -1.8746    6.8594 O   0  0  0  0  0  0  0  0  0  0  0  0
    0.2281    0.3758    6.2161 C   0  0  0  0  0  0  0  0  0  0  0  0
   -1.0354    1.0322    6.8297 C   0  0  0  0  0  0  0  0  0  0  0  0
    2.5436   -2.3845    6.1220 C   0  0  2  0  0  0  0  0  0  0  0  0
    2.3996   -1.6675    7.3603 O   0  0  0  0  0  0  0  0  0  0  0  0
    3.2004   -2.0309    8.4869 C   0  0  0  0  0  0  0  0  0  0  0  0
    2.1427   -3.8907    6.4283 C   0  0  0  0  0  0  0  0  0  0  0  0
    1.6340   -4.9411    5.3451 C   0  0  1  0  0  0  0  0  0  0  0  0
    2.6837   -5.3514    4.1821 C   0  0  1  0  0  0  0  0  0  0  0  0
    2.4594   -6.7519    3.5824 C   0  0  0  0  0  0  0  0  0  0  0  0
    1.2653   -7.3778    3.1819 C   0  0  0  0  0  0  0  0  0  0  0  0
    1.3580   -8.6490    2.5751 C   0  0  0  0  0  0  0  0  0  0  0  0
    2.6194   -9.2651    2.3986 C   0  0  0  0  0  0  0  0  0  0  0  0
    3.7921   -8.6450    2.8951 C   0  0  0  0  0  0  0  0  0  0  0  0
    5.0579   -9.1931    2.8243 O   0  0  0  0  0  0  0  0  0  0  0  0
    5.2344  -10.3850    2.0814 C   0  0  0  0  0  0  0  0  0  0  0  0
    3.6894   -7.3895    3.5240 C   0  0  0  0  0  0  0  0  0  0  0  0
    4.7016   -6.7024    4.1022 O   0  0  0  0  0  0  0  0  0  0  0  0
    4.1167   -5.6007    4.8020 C   0  0  1  0  0  0  0  0  0  0  0  0
    0.0172   -6.6698    3.6213 C   0  0  0  0  0  0  0  0  0  0  0  0
   -0.2078   -6.7068    5.1463 C   0  0  0  0  0  0  0  0  0  0  0  0
    0.9616   -6.1897    6.0220 N   0  0  2  0  0  0  0  0  0  0  0  0
    0.2912   -5.8722    7.3552 C   0  0  0  0  0  0  0  0  0  0  0  0
    1.8546   -7.1660    6.2773 O   0  0  0  0  0  0  0  0  0  0  0  0
    3.9206   -0.1136    5.3116 H   0  0  0  0  0  0  0  0  0  0  0  0
    5.5768   -0.8811    5.1055 H   0  0  0  0  0  0  0  0  0  0  0  0
    6.0189   -2.9051    5.9149 H   0  0  0  0  0  0  0  0  0  0  0  0
    4.9068   -3.8245    6.8165 H   0  0  0  0  0  0  0  0  0  0  0  0
    7.7687   -6.1068    6.1804 H   0  0  0  0  0  0  0  0  0  0  0  0
    6.1084   -6.6443    6.3078 H   0  0  0  0  0  0  0  0  0  0  0  0
    6.6313   -5.1379    7.0833 H   0  0  0  0  0  0  0  0  0  0  0  0
    5.5348   -2.8889    3.2858 H   0  0  0  0  0  0  0  0  0  0  0  0
    6.2593   -4.3692    2.8185 H   0  0  0  0  0  0  0  0  0  0  0  0
    4.1766   -3.4449    1.5395 H   0  0  0  0  0  0  0  0  0  0  0  0
    3.8452   -5.4353    0.7651 H   0  0  0  0  0  0  0  0  0  0  0  0
    2.0240   -4.5916    2.1968 H   0  0  0  0  0  0  0  0  0  0  0  0
    3.3474   -2.2769    3.4017 H   0  0  0  0  0  0  0  0  0  0  0  0
    0.4565   -3.0032    3.7534 H   0  0  0  0  0  0  0  0  0  0  0  0
    1.9777   -0.7072    4.7905 H   0  0  0  0  0  0  0  0  0  0  0  0
   -0.8998   -0.6941    3.8323 H   0  0  0  0  0  0  0  0  0  0  0  0
   -2.0234   -0.8627    5.1794 H   0  0  0  0  0  0  0  0  0  0  0  0
   -1.2991   -2.2701    4.5243 H   0  0  0  0  0  0  0  0  0  0  0  0
    0.5121   -1.9104    7.4198 H   0  0  0  0  0  0  0  0  0  0  0  0
    1.0437    0.4750    6.9344 H   0  0  0  0  0  0  0  0  0  0  0  0
    0.5270    0.9799    5.3632 H   0  0  0  0  0  0  0  0  0  0  0  0
   -0.8389    2.0770    7.0717 H   0  0  0  0  0  0  0  0  0  0  0  0
   -1.3313    0.5447    7.7581 H   0  0  0  0  0  0  0  0  0  0  0  0
   -1.8901    1.0391    6.1531 H   0  0  0  0  0  0  0  0  0  0  0  0
    2.9993   -1.3384    9.3080 H   0  0  0  0  0  0  0  0  0  0  0  0
    4.2711   -1.9756    8.2878 H   0  0  0  0  0  0  0  0  0  0  0  0
    2.9677   -3.0312    8.8532 H   0  0  0  0  0  0  0  0  0  0  0  0
    2.8829   -4.3866    7.0476 H   0  0  0  0  0  0  0  0  0  0  0  0
    1.3314   -3.7334    7.1201 H   0  0  0  0  0  0  0  0  0  0  0  0
    0.7349   -4.5258    4.9241 H   0  0  0  0  0  0  0  0  0  0  0  0
    0.4721   -9.1793    2.2604 H   0  0  0  0  0  0  0  0  0  0  0  0
    2.6608  -10.2319    1.9253 H   0  0  0  0  0  0  0  0  0  0  0  0
    6.2807  -10.6829    2.1175 H   0  0  0  0  0  0  0  0  0  0  0  0
    4.9708  -10.2345    1.0366 H   0  0  0  0  0  0  0  0  0  0  0  0
    4.6445  -11.2054    2.4895 H   0  0  0  0  0  0  0  0  0  0  0  0
    4.0160   -5.9343    5.8359 H   0  0  0  0  0  0  0  0  0  0  0  0
   -0.0196   -5.6667    3.2110 H   0  0  0  0  0  0  0  0  0  0  0  0
   -0.8154   -7.2095    3.1803 H   0  0  0  0  0  0  0  0  0  0  0  0
   -1.0779   -6.0859    5.3639 H   0  0  0  0  0  0  0  0  0  0  0  0
   -0.4394   -7.7110    5.4957 H   0  0  0  0  0  0  0  0  0  0  0  0
   -0.4117   -5.0430    7.2293 H   0  0  0  0  0  0  0  0  0  0  0  0
    1.0626   -5.6524    8.0934 H   0  0  0  0  0  0  0  0  0  0  0  0
   -0.2394   -6.7700    7.6825 H   0  0  0  0  0  0  0  0  0  0  0  0
  1  2  2  0
  1 40  1  0
  1 41  1  0
  2 19  1  0
  2  3  1  0
  3  4  1  0
  3 42  1  0
  3 43  1  0
  4 34  1  0
  4  5  1  1
  4  7  1  0
  5  6  1  0
  6 44  1  0
  6 45  1  0
  6 46  1  0
  7  8  1  0
  7 47  1  0
  7 48  1  0
  8  9  1  0
  8 10  1  0
  8 49  1  6
  9 50  1  0
 10 24  1  0
 10 11  1  0
 10 51  1  6
 11 12  2  3
 11 52  1  0
 12 13  1  0
 12 53  1  0
 13 14  1  0
 13 19  1  0
 13 54  1  6
 14 15  1  0
 14 16  1  1
 14 17  1  0
 15 55  1  0
 15 56  1  0
 15 57  1  0
 16 58  1  0
 17 18  1  0
 17 59  1  0
 17 60  1  0
 18 61  1  0
 18 62  1  0
 18 63  1  0
 19 20  1  1
 19 22  1  0
 20 21  1  0
 21 64  1  0
 21 65  1  0
 21 66  1  0
 22 23  1  0
 22 67  1  0
 22 68  1  0
 23 37  1  0
 23 24  1  0
 23 69  1  6
 24 34  1  0
 24 25  1  6
 25 32  2  0
 25 26  1  0
 26 27  2  0
 26 35  1  0
 27 28  1  0
 27 70  1  0
 28 29  2  0
 28 71  1  0
 29 30  1  0
 29 32  1  0
 30 31  1  0
 31 72  1  0
 31 73  1  0
 31 74  1  0
 32 33  1  0
 33 34  1  0
 34 75  1  1
 35 36  1  0
 35 76  1  0
 35 77  1  0
 36 37  1  0
 36 78  1  0
 36 79  1  0
 37 38  1  0
 37 39  1  1
 38 80  1  0
 38 81  1  0
 38 82  1  0
M  CHG  2  37   1  39  -1
M  END
>  <i_m_ct_stereo_status>  (225) 
1

>  <s_m_source_file>  (225) 
/var/tmp/pbs.5076255.sched01/tmpnx1894nc/68p53si2vm.sdf

>  <i_m_source_file_index>  (225) 
21

>  <i_lp_mmshare_version>  (225) 
48012

>  <i_f3d_flags>  (225) 
0

>  <s_epik_input>  (225) 
W0NIM11bQ0gyXVtDQF0oW0NIM10pKFtPSF0pW0NASF0oL1tDSF09W0NIXVwxKVtDQEBdKEMoPVtDSDJdKVtDSDJdMikoT1tDSDNdKVtDSDJdW0NAQEhdM1tOQEArXShbTy1dKShbQ0gzXSlbQ0gyXVtDSDJdYyhbY0hdW2NIXWM0T1tDSDNdKWM1YzRPW0NASF02W0NAQF0yKE9bQ0gzXSlbQ0gyXVtDQEBIXShbT0hdKVtDQEhdMVtDQEBdMzU2

>  <s_epik_cmdline>  (225) 
J2VwaWtfcHl0aG9uJywgJy1waHQnLCAnMi4wJywgJy1waCcsICc3LjAnLCAnLXRuJywgJzgnLCAnLW1hJywgJzIwMCcsICctaW1hZScsICc8aW5maWxlLm1hZT4nLCAnLW9tYWUnLCAnPG91dGZpbGUubWFlPic=

>  <r_lp_tautomer_probability>  (225) 
1

>  <r_epik_Ionization_Penalty>  (225) 
0.00482219

>  <r_epik_Ionization_Penalty_Charging>  (225) 
0.00482203

>  <r_epik_Ionization_Penalty_Neutral>  (225) 
1.56398e-07

>  <r_epik_State_Penalty>  (225) 
0.00349683

>  <r_epik_Charging_Adjusted_Penalty>  (225) 
0.00831886

>  <i_epik_Tot_Q>  (225) 
0

>  <i_epik_Tot_abs_Q>  (225) 
2

>  <s_lp_Force_Field>  (225) 
OPLS3e

>  <r_lp_Energy>  (225) 
141.691

>  <b_lp_Chiralities_Consistent>  (225) 
1

>  <s_lp_Variant>  (225) 
67:0-2

>  <s_i_glide_gridfile>  (225) 
pfpi4k_grid

>  <i_i_glide_lignum>  (225) 
21

>  <i_i_glide_rotatable_bonds>  (225) 
7

>  <r_i_docking_score>  (225) 
-1.90202

>  <r_i_glide_ligand_efficiency>  (225) 
-0.0487697

>  <r_i_glide_ligand_efficiency_sa>  (225) 
-0.165388

>  <r_i_glide_ligand_efficiency_ln>  (225) 
-0.407847

>  <r_i_glide_gscore>  (225) 
-1.90202

>  <r_i_glide_lipo>  (225) 
-0.0788055

>  <r_i_glide_hbond>  (225) 
0

>  <r_i_glide_metal>  (225) 
-0

>  <r_i_glide_rewards>  (225) 
-0.5

>  <r_i_glide_evdw>  (225) 
-21.2525

>  <r_i_glide_ecoul>  (225) 
-2.19819

>  <r_i_glide_erotb>  (225) 
0.0704874

>  <r_i_glide_esite>  (225) 
-0.00134771

>  <r_i_glide_emodel>  (225) 
-28.3534

>  <r_i_glide_energy>  (225) 
-23.4507

>  <r_i_glide_einternal>  (225) 
6.43568

>  <r_i_glide_intrahb_reward>  (225) 
-0.5

>  <i_i_glide_confnum>  (225) 
5

>  <i_i_glide_posenum>  (225) 
22

>  <r_i_glide_eff_state_penalty>  (225) 
0

>  <ligand_id>  (225) 
67

>  <original_smiles>  (225) 
C=C1CC2(OC)CC(O)C3C=CC(C(C)(O)CC)C1(OC)CC1C34c3c(ccc(OC)c3OC24)CC[N+]1(C)[O-]

>  <smiles>  (225) 
[H]OC1([H])C([H])([H])C2(OC([H])([H])[H])C([H])([H])C(=C([H])[H])C3(OC([H])([H])[H])C([H])([H])C4([H])C5(c6c(c(OC([H])([H])[H])c([H])c([H])c6C([H])([H])C([H])([H])[N+]4([O-])C([H])([H])[H])OC25[H])C1([H])C([H])=C([H])C3([H])C(O[H])(C([H])([H])[H])C([H])([H])C([H])([H])[H]

$$$$
67:1:2
     RDKit          3D

 82 87  0  0  1  0  0  0  0  0999 V2000
    1.3298   -8.5896    6.6443 C   0  0  0  0  0  0  0  0  0  0  0  0
    1.9234   -7.3808    6.5247 C   0  0  0  0  0  0  0  0  0  0  0  0
    2.4600   -6.7351    7.8105 C   0  0  0  0  0  0  0  0  0  0  0  0
    1.6520   -5.5997    8.5351 C   0  0  2  0  0  0  0  0  0  0  0  0
    2.1855   -5.6142    9.8808 O   0  0  0  0  0  0  0  0  0  0  0  0
    3.5537   -5.2680   10.1313 C   0  0  0  0  0  0  0  0  0  0  0  0
    0.1315   -5.8951    8.7690 C   0  0  0  0  0  0  0  0  0  0  0  0
   -0.8939   -4.9893    8.0153 C   0  0  1  0  0  0  0  0  0  0  0  0
   -1.3766   -3.9250    8.8239 O   0  0  0  0  0  0  0  0  0  0  0  0
   -0.3957   -4.5159    6.6188 C   0  0  2  0  0  0  0  0  0  0  0  0
   -0.4329   -5.7740    5.7654 C   0  0  0  0  0  0  0  0  0  0  0  0
   -0.0920   -5.8561    4.4755 C   0  0  0  0  0  0  0  0  0  0  0  0
    0.9801   -6.8611    4.0680 C   0  0  1  0  0  0  0  0  0  0  0  0
    1.2765   -6.8630    2.4784 C   0  0  1  0  0  0  0  0  0  0  0  0
    1.8362   -8.1640    1.8642 C   0  0  0  0  0  0  0  0  0  0  0  0
    0.0465   -6.7458    1.7841 O   0  0  0  0  0  0  0  0  0  0  0  0
    2.2068   -5.7105    2.0210 C   0  0  0  0  0  0  0  0  0  0  0  0
    2.6400   -5.6878    0.5397 C   0  0  0  0  0  0  0  0  0  0  0  0
    2.2112   -6.7363    5.1201 C   0  0  2  0  0  0  0  0  0  0  0  0
    3.2728   -7.5323    4.5525 O   0  0  0  0  0  0  0  0  0  0  0  0
    3.0614   -8.9534    4.3272 C   0  0  0  0  0  0  0  0  0  0  0  0
    2.8231   -5.2549    5.2340 C   0  0  0  0  0  0  0  0  0  0  0  0
    1.9539   -3.9155    5.3403 C   0  0  1  0  0  0  0  0  0  0  0  0
    1.0310   -3.7588    6.6596 C   0  0  1  0  0  0  0  0  0  0  0  0
    0.7573   -2.2964    7.0490 C   0  0  0  0  0  0  0  0  0  0  0  0
    0.3877   -1.1981    6.2497 C   0  0  0  0  0  0  0  0  0  0  0  0
    0.0964    0.0189    6.8934 C   0  0  0  0  0  0  0  0  0  0  0  0
    0.2078    0.1392    8.2928 C   0  0  0  0  0  0  0  0  0  0  0  0
    0.6725   -0.9590    9.0648 C   0  0  0  0  0  0  0  0  0  0  0  0
    0.8652   -0.9296   10.4307 O   0  0  0  0  0  0  0  0  0  0  0  0
    0.4950    0.2382   11.1475 C   0  0  0  0  0  0  0  0  0  0  0  0
    0.9746   -2.1656    8.4113 C   0  0  0  0  0  0  0  0  0  0  0  0
    1.4818   -3.2710    8.9923 O   0  0  0  0  0  0  0  0  0  0  0  0
    1.8446   -4.1761    7.9467 C   0  0  1  0  0  0  0  0  0  0  0  0
    0.4979   -1.3791    4.7657 C   0  0  0  0  0  0  0  0  0  0  0  0
    1.9525   -1.5587    4.2654 C   0  0  0  0  0  0  0  0  0  0  0  0
    2.8148   -2.6231    5.0074 N   0  0  2  0  0  0  0  0  0  0  0  0
    3.9645   -2.8844    4.0281 C   0  0  0  0  0  0  0  0  0  0  0  0
    3.3788   -2.0998    6.1156 O   0  0  0  0  0  0  0  0  0  0  0  0
    1.0035   -9.1513    5.7835 H   0  0  0  0  0  0  0  0  0  0  0  0
    1.2173   -9.0856    7.5916 H   0  0  0  0  0  0  0  0  0  0  0  0
    2.5578   -7.5460    8.5372 H   0  0  0  0  0  0  0  0  0  0  0  0
    3.4938   -6.4349    7.6499 H   0  0  0  0  0  0  0  0  0  0  0  0
    3.7439   -5.3450   11.2017 H   0  0  0  0  0  0  0  0  0  0  0  0
    3.7935   -4.2439    9.8485 H   0  0  0  0  0  0  0  0  0  0  0  0
    4.2630   -5.9367    9.6461 H   0  0  0  0  0  0  0  0  0  0  0  0
   -0.0778   -6.9534    8.5913 H   0  0  0  0  0  0  0  0  0  0  0  0
   -0.0939   -5.7597    9.8262 H   0  0  0  0  0  0  0  0  0  0  0  0
   -1.8018   -5.5777    7.8808 H   0  0  0  0  0  0  0  0  0  0  0  0
   -1.6659   -4.2819    9.6512 H   0  0  0  0  0  0  0  0  0  0  0  0
   -1.1392   -3.8436    6.1905 H   0  0  0  0  0  0  0  0  0  0  0  0
   -0.3626   -6.6796    6.3331 H   0  0  0  0  0  0  0  0  0  0  0  0
   -0.1687   -4.9722    3.8738 H   0  0  0  0  0  0  0  0  0  0  0  0
    0.4802   -7.8062    4.2498 H   0  0  0  0  0  0  0  0  0  0  0  0
    2.8720   -8.3496    2.1788 H   0  0  0  0  0  0  0  0  0  0  0  0
    2.0002   -8.1749    0.8208 H   0  0  0  0  0  0  0  0  0  0  0  0
    1.1927   -9.0489    2.0602 H   0  0  0  0  0  0  0  0  0  0  0  0
   -0.3261   -7.6160    1.7433 H   0  0  0  0  0  0  0  0  0  0  0  0
    1.7414   -4.7519    2.2712 H   0  0  0  0  0  0  0  0  0  0  0  0
    3.1461   -5.7757    2.5574 H   0  0  0  0  0  0  0  0  0  0  0  0
    3.3516   -4.8841    0.3758 H   0  0  0  0  0  0  0  0  0  0  0  0
    1.7873   -5.5389   -0.1146 H   0  0  0  0  0  0  0  0  0  0  0  0
    3.1613   -6.5961    0.2460 H   0  0  0  0  0  0  0  0  0  0  0  0
    3.9129   -9.3436    3.7307 H   0  0  0  0  0  0  0  0  0  0  0  0
    2.1536   -9.1703    3.7929 H   0  0  0  0  0  0  0  0  0  0  0  0
    2.9236   -9.5897    5.1485 H   0  0  0  0  0  0  0  0  0  0  0  0
    3.6323   -5.2064    5.9582 H   0  0  0  0  0  0  0  0  0  0  0  0
    3.3894   -5.1886    4.3315 H   0  0  0  0  0  0  0  0  0  0  0  0
    1.3448   -3.8913    4.4566 H   0  0  0  0  0  0  0  0  0  0  0  0
   -0.1837    0.8820    6.3027 H   0  0  0  0  0  0  0  0  0  0  0  0
   -0.0247    1.0854    8.7421 H   0  0  0  0  0  0  0  0  0  0  0  0
    0.7082    0.0851   12.2056 H   0  0  0  0  0  0  0  0  0  0  0  0
   -0.5729    0.4452   11.0541 H   0  0  0  0  0  0  0  0  0  0  0  0
    1.0643    1.1108   10.8214 H   0  0  0  0  0  0  0  0  0  0  0  0
    2.9047   -3.9917    7.7796 H   0  0  0  0  0  0  0  0  0  0  0  0
   -0.1666   -2.1716    4.4277 H   0  0  0  0  0  0  0  0  0  0  0  0
    0.1080   -0.4642    4.2995 H   0  0  0  0  0  0  0  0  0  0  0  0
    1.8978   -1.8457    3.2129 H   0  0  0  0  0  0  0  0  0  0  0  0
    2.5096   -0.6218    4.3141 H   0  0  0  0  0  0  0  0  0  0  0  0
    3.5780   -3.3527    3.1240 H   0  0  0  0  0  0  0  0  0  0  0  0
    4.7145   -3.5025    4.5184 H   0  0  0  0  0  0  0  0  0  0  0  0
    4.4279   -1.9290    3.7776 H   0  0  0  0  0  0  0  0  0  0  0  0
  1  2  2  0
  1 40  1  0
  1 41  1  0
  2 19  1  0
  2  3  1  0
  3  4  1  0
  3 42  1  0
  3 43  1  0
  4 34  1  0
  4  5  1  1
  4  7  1  0
  5  6  1  0
  6 44  1  0
  6 45  1  0
  6 46  1  0
  7  8  1  0
  7 47  1  0
  7 48  1  0
  8  9  1  0
  8 10  1  0
  8 49  1  6
  9 50  1  0
 10 24  1  0
 10 11  1  0
 10 51  1  6
 11 12  2  3
 11 52  1  0
 12 13  1  0
 12 53  1  0
 13 14  1  0
 13 19  1  0
 13 54  1  1
 14 15  1  0
 14 16  1  6
 14 17  1  0
 15 55  1  0
 15 56  1  0
 15 57  1  0
 16 58  1  0
 17 18  1  0
 17 59  1  0
 17 60  1  0
 18 61  1  0
 18 62  1  0
 18 63  1  0
 19 20  1  6
 19 22  1  0
 20 21  1  0
 21 64  1  0
 21 65  1  0
 21 66  1  0
 22 23  1  0
 22 67  1  0
 22 68  1  0
 23 37  1  0
 23 24  1  0
 23 69  1  6
 24 34  1  0
 24 25  1  1
 25 32  2  0
 25 26  1  0
 26 27  2  0
 26 35  1  0
 27 28  1  0
 27 70  1  0
 28 29  2  0
 28 71  1  0
 29 30  1  0
 29 32  1  0
 30 31  1  0
 31 72  1  0
 31 73  1  0
 31 74  1  0
 32 33  1  0
 33 34  1  0
 34 75  1  6
 35 36  1  0
 35 76  1  0
 35 77  1  0
 36 37  1  0
 36 78  1  0
 36 79  1  0
 37 38  1  0
 37 39  1  1
 38 80  1  0
 38 81  1  0
 38 82  1  0
M  CHG  2  37   1  39  -1
M  END
>  <i_m_ct_stereo_status>  (226) 
1

>  <s_m_source_file>  (226) 
/var/tmp/pbs.5076255.sched01/tmpnx1894nc/68p53si2vm.sdf

>  <i_m_source_file_index>  (226) 
21

>  <i_lp_mmshare_version>  (226) 
48012

>  <i_f3d_flags>  (226) 
0

>  <s_epik_input>  (226) 
W0NIM11bQ0gyXVtDQF0oW0NIM10pKFtPSF0pW0NASF0oL1tDSF09W0NIXVwxKVtDQEBdKEMoPVtDSDJdKVtDSDJdMikoT1tDSDNdKVtDSDJdW0NAQEhdM1tOQEArXShbTy1dKShbQ0gzXSlbQ0gyXVtDSDJdYyhbY0hdW2NIXWM0T1tDSDNdKWM1YzRPW0NASF02W0NAQF0yKE9bQ0gzXSlbQ0gyXVtDQEBIXShbT0hdKVtDQEhdMVtDQEBdMzU2

>  <s_epik_cmdline>  (226) 
J2VwaWtfcHl0aG9uJywgJy1waHQnLCAnMi4wJywgJy1waCcsICc3LjAnLCAnLXRuJywgJzgnLCAnLW1hJywgJzIwMCcsICctaW1hZScsICc8aW5maWxlLm1hZT4nLCAnLW9tYWUnLCAnPG91dGZpbGUubWFlPic=

>  <r_lp_tautomer_probability>  (226) 
1

>  <r_epik_Ionization_Penalty>  (226) 
0.00482219

>  <r_epik_Ionization_Penalty_Charging>  (226) 
0.00482203

>  <r_epik_Ionization_Penalty_Neutral>  (226) 
1.56398e-07

>  <r_epik_State_Penalty>  (226) 
0.00349683

>  <r_epik_Charging_Adjusted_Penalty>  (226) 
0.00831886

>  <i_epik_Tot_Q>  (226) 
0

>  <i_epik_Tot_abs_Q>  (226) 
2

>  <s_lp_Force_Field>  (226) 
OPLS3e

>  <r_lp_Energy>  (226) 
141.691

>  <b_lp_Chiralities_Consistent>  (226) 
1

>  <s_lp_Variant>  (226) 
67:0-2

>  <s_i_glide_gridfile>  (226) 
pfpi4k_grid

>  <i_i_glide_lignum>  (226) 
21

>  <i_i_glide_rotatable_bonds>  (226) 
7

>  <r_i_docking_score>  (226) 
-1.86285

>  <r_i_glide_ligand_efficiency>  (226) 
-0.0477654

>  <r_i_glide_ligand_efficiency_sa>  (226) 
-0.161983

>  <r_i_glide_ligand_efficiency_ln>  (226) 
-0.399448

>  <r_i_glide_gscore>  (226) 
-1.86285

>  <r_i_glide_lipo>  (226) 
-0.0455726

>  <r_i_glide_hbond>  (226) 
-0.106808

>  <r_i_glide_metal>  (226) 
-0

>  <r_i_glide_rewards>  (226) 
0

>  <r_i_glide_evdw>  (226) 
-18.9669

>  <r_i_glide_ecoul>  (226) 
-8.6918

>  <r_i_glide_erotb>  (226) 
0.0704874

>  <r_i_glide_esite>  (226) 
0

>  <r_i_glide_emodel>  (226) 
-22.6222

>  <r_i_glide_energy>  (226) 
-27.6587

>  <r_i_glide_einternal>  (226) 
7.68316

>  <r_i_glide_intrahb_reward>  (226) 
-0

>  <i_i_glide_confnum>  (226) 
2

>  <i_i_glide_posenum>  (226) 
35

>  <r_i_glide_eff_state_penalty>  (226) 
0

>  <ligand_id>  (226) 
67

>  <original_smiles>  (226) 
C=C1CC2(OC)CC(O)C3C=CC(C(C)(O)CC)C1(OC)CC1C34c3c(ccc(OC)c3OC24)CC[N+]1(C)[O-]

>  <smiles>  (226) 
[H]OC1([H])C([H])([H])C2(OC([H])([H])[H])C([H])([H])C(=C([H])[H])C3(OC([H])([H])[H])C([H])([H])C4([H])C5(c6c(c(OC([H])([H])[H])c([H])c([H])c6C([H])([H])C([H])([H])[N+]4([O-])C([H])([H])[H])OC25[H])C1([H])C([H])=C([H])C3([H])C(O[H])(C([H])([H])[H])C([H])([H])C([H])([H])[H]

$$$$
68:0:0
     RDKit          3D

 85 92  0  0  1  0  0  0  0  0999 V2000
    3.8008  -10.9509    5.9245 C   0  0  0  0  0  0  0  0  0  0  0  0
    3.2481   -9.8617    4.9572 C   0  0  2  0  0  0  0  0  0  0  0  0
    1.7070   -9.6478    5.0188 C   0  0  2  0  0  0  0  0  0  0  0  0
    1.0019  -10.9948    4.8412 C   0  0  0  0  0  0  0  0  0  0  0  0
    1.3822  -11.6331    3.4923 C   0  0  0  0  0  0  0  0  0  0  0  0
    2.8818  -11.4964    3.1236 C   0  0  0  0  0  0  0  0  0  0  0  0
    3.4272  -10.0806    3.4533 C   0  0  2  0  0  0  0  0  0  0  0  0
    4.9193  -10.0130    2.9866 C   0  0  0  0  0  0  0  0  0  0  0  0
    2.5321   -8.9752    2.8555 C   0  0  2  0  0  0  0  0  0  0  0  0
    2.2801   -8.8842    1.4469 O   0  0  0  0  0  0  0  0  0  0  0  0
    3.0792   -7.8348    2.0085 C   0  0  1  0  0  0  0  0  0  0  0  0
    2.4827   -6.4193    2.0664 C   0  0  2  0  0  0  0  0  0  0  0  0
    2.3463   -5.8252    0.7500 O   0  0  0  0  0  0  0  0  0  0  0  0
    2.8242   -4.5145    0.5030 C   0  0  2  0  0  0  0  0  0  0  0  0
    2.2246   -4.0619   -0.7047 O   0  0  0  0  0  0  0  0  0  0  0  0
    4.3143   -4.6753    0.1840 C   0  0  0  0  0  0  0  0  0  0  0  0
    5.1285   -5.2736    1.3417 C   0  0  0  0  0  0  0  0  0  0  0  0
    4.6135   -5.0313    2.7785 C   0  0  1  0  0  0  0  0  0  0  0  0
    5.0682   -3.6549    3.3433 C   0  0  0  0  0  0  0  0  0  0  0  0
    4.7082   -2.2988    2.6162 C   0  0  2  0  0  0  0  0  0  0  0  0
    5.8959   -1.9567    1.6644 C   0  0  0  0  0  0  0  0  0  0  0  0
    4.6363   -1.1127    3.6738 C   0  0  1  0  0  0  0  0  0  0  0  0
    4.6012    0.0983    2.9100 O   0  0  0  0  0  0  0  0  0  0  0  0
    3.4047    0.2448    2.3653 C   0  0  0  0  0  0  0  0  0  0  0  0
    2.9862    1.1740    1.6833 O   0  0  0  0  0  0  0  0  0  0  0  0
    2.6122   -1.0104    2.7814 C   0  0  2  0  0  0  0  0  0  0  0  0
    1.1028   -0.7929    2.6465 C   0  0  0  0  0  0  0  0  0  0  0  0
    3.1968   -1.0146    4.2443 C   0  0  0  0  0  0  0  0  0  0  0  0
    2.7615   -2.1119    5.2312 C   0  0  0  0  0  0  0  0  0  0  0  0
    2.9244    0.2756    5.1154 C   0  0  0  0  0  0  0  0  0  0  0  0
    3.2900   -2.1826    1.9041 C   0  0  1  0  0  0  0  0  0  0  0  0
    3.3766   -1.7119    0.5473 O   0  0  0  0  0  0  0  0  0  0  0  0
    2.4205   -3.4880    1.6776 C   0  0  2  0  0  0  0  0  0  0  0  0
    2.1848   -4.2624    2.9331 C   0  0  0  0  0  0  0  0  0  0  0  0
    1.1771   -4.0848    3.6422 O   0  0  0  0  0  0  0  0  0  0  0  0
    3.1210   -5.4309    3.1066 C   0  0  1  0  0  0  0  0  0  0  0  0
    3.0308   -5.9309    4.5742 C   0  0  0  0  0  0  0  0  0  0  0  0
    1.3621   -8.7297    3.8335 C   0  0  1  0  0  0  0  0  0  0  0  0
   -0.0779   -8.7795    3.2468 C   0  0  0  0  0  0  0  0  0  0  0  0
    3.4102  -11.9511    5.7078 H   0  0  0  0  0  0  0  0  0  0  0  0
    3.5029  -10.7289    6.9524 H   0  0  0  0  0  0  0  0  0  0  0  0
    4.8932  -11.0189    5.8657 H   0  0  0  0  0  0  0  0  0  0  0  0
    3.7539   -8.9393    5.2569 H   0  0  0  0  0  0  0  0  0  0  0  0
    1.4291   -9.1743    5.9570 H   0  0  0  0  0  0  0  0  0  0  0  0
    1.2406  -11.6562    5.6693 H   0  0  0  0  0  0  0  0  0  0  0  0
   -0.0737  -10.8466    4.9327 H   0  0  0  0  0  0  0  0  0  0  0  0
    1.0785  -12.6546    3.5768 H   0  0  0  0  0  0  0  0  0  0  0  0
    0.8050  -11.2751    2.6429 H   0  0  0  0  0  0  0  0  0  0  0  0
    3.4869  -12.2825    3.5812 H   0  0  0  0  0  0  0  0  0  0  0  0
    2.9878  -11.6645    2.0749 H   0  0  0  0  0  0  0  0  0  0  0  0
    4.9818  -10.2286    1.9219 H   0  0  0  0  0  0  0  0  0  0  0  0
    5.5221  -10.7632    3.5069 H   0  0  0  0  0  0  0  0  0  0  0  0
    5.3750   -9.0360    3.1704 H   0  0  0  0  0  0  0  0  0  0  0  0
    4.1006   -7.8956    1.6435 H   0  0  0  0  0  0  0  0  0  0  0  0
    1.4334   -6.5543    2.3306 H   0  0  0  0  0  0  0  0  0  0  0  0
    2.5428   -4.6089   -1.3934 H   0  0  0  0  0  0  0  0  0  0  0  0
    4.4002   -5.3638   -0.6551 H   0  0  0  0  0  0  0  0  0  0  0  0
    4.7154   -3.7351   -0.1661 H   0  0  0  0  0  0  0  0  0  0  0  0
    5.2697   -6.3345    1.1663 H   0  0  0  0  0  0  0  0  0  0  0  0
    6.1546   -4.9104    1.2737 H   0  0  0  0  0  0  0  0  0  0  0  0
    5.1961   -5.7481    3.3626 H   0  0  0  0  0  0  0  0  0  0  0  0
    4.8839   -3.6179    4.4121 H   0  0  0  0  0  0  0  0  0  0  0  0
    6.1501   -3.7236    3.3426 H   0  0  0  0  0  0  0  0  0  0  0  0
    5.7385   -1.0647    1.0594 H   0  0  0  0  0  0  0  0  0  0  0  0
    6.1630   -2.7542    0.9802 H   0  0  0  0  0  0  0  0  0  0  0  0
    6.7811   -1.7387    2.2401 H   0  0  0  0  0  0  0  0  0  0  0  0
    5.4126   -1.1206    4.4310 H   0  0  0  0  0  0  0  0  0  0  0  0
    0.5529   -1.5309    3.2235 H   0  0  0  0  0  0  0  0  0  0  0  0
    0.7771   -0.8635    1.6072 H   0  0  0  0  0  0  0  0  0  0  0  0
    0.7985    0.1950    3.0018 H   0  0  0  0  0  0  0  0  0  0  0  0
    1.6812   -2.1024    5.3916 H   0  0  0  0  0  0  0  0  0  0  0  0
    3.2301   -1.9612    6.2021 H   0  0  0  0  0  0  0  0  0  0  0  0
    3.0353   -3.1144    4.9815 H   0  0  0  0  0  0  0  0  0  0  0  0
    1.8692    0.3389    5.3931 H   0  0  0  0  0  0  0  0  0  0  0  0
    3.1800    1.2399    4.6798 H   0  0  0  0  0  0  0  0  0  0  0  0
    3.4868    0.2297    6.0458 H   0  0  0  0  0  0  0  0  0  0  0  0
    2.5101   -1.5159    0.2205 H   0  0  0  0  0  0  0  0  0  0  0  0
    1.4280   -3.1268    1.4464 H   0  0  0  0  0  0  0  0  0  0  0  0
    3.4509   -6.9288    4.6311 H   0  0  0  0  0  0  0  0  0  0  0  0
    1.9935   -6.0042    4.9205 H   0  0  0  0  0  0  0  0  0  0  0  0
    3.5904   -5.3126    5.2859 H   0  0  0  0  0  0  0  0  0  0  0  0
    1.4363   -7.7312    4.2399 H   0  0  0  0  0  0  0  0  0  0  0  0
   -0.3861   -9.7065    2.7331 H   0  0  0  0  0  0  0  0  0  0  0  0
   -0.2091   -7.9549    2.5485 H   0  0  0  0  0  0  0  0  0  0  0  0
   -0.7620   -8.5951    4.0773 H   0  0  0  0  0  0  0  0  0  0  0  0
  1  2  1  0
  1 40  1  0
  1 41  1  0
  1 42  1  0
  2  7  1  0
  2  3  1  0
  2 43  1  1
  3 38  1  0
  3  4  1  0
  3 44  1  1
  4  5  1  0
  4 45  1  0
  4 46  1  0
  5  6  1  0
  5 47  1  0
  5 48  1  0
  6  7  1  0
  6 49  1  0
  6 50  1  0
  7  8  1  1
  7  9  1  0
  8 51  1  0
  8 52  1  0
  8 53  1  0
  9 11  1  0
  9 10  1  6
  9 38  1  0
 10 11  1  0
 11 12  1  0
 11 54  1  6
 12 36  1  0
 12 13  1  0
 12 55  1  1
 13 14  1  0
 14 33  1  0
 14 15  1  6
 14 16  1  0
 15 56  1  0
 16 17  1  0
 16 57  1  0
 16 58  1  0
 17 18  1  0
 17 59  1  0
 17 60  1  0
 18 36  1  0
 18 19  1  0
 18 61  1  1
 19 20  1  0
 19 62  1  0
 19 63  1  0
 20 31  1  0
 20 21  1  6
 20 22  1  0
 21 64  1  0
 21 65  1  0
 21 66  1  0
 22 28  1  0
 22 23  1  0
 22 67  1  1
 23 24  1  0
 24 25  2  0
 24 26  1  0
 26 27  1  1
 26 28  1  0
 26 31  1  0
 27 68  1  0
 27 69  1  0
 27 70  1  0
 28 29  1  0
 28 30  1  0
 29 71  1  0
 29 72  1  0
 29 73  1  0
 30 74  1  0
 30 75  1  0
 30 76  1  0
 31 32  1  6
 31 33  1  0
 32 77  1  0
 33 34  1  0
 33 78  1  6
 34 35  2  0
 34 36  1  0
 36 37  1  1
 37 79  1  0
 37 80  1  0
 37 81  1  0
 38 39  1  0
 38 82  1  1
 39 83  1  0
 39 84  1  0
 39 85  1  0
M  END
>  <i_m_ct_stereo_status>  (227) 
1

>  <s_m_source_file>  (227) 
/var/tmp/pbs.5076255.sched01/tmpnx1894nc/68p53si2vm.sdf

>  <i_m_source_file_index>  (227) 
22

>  <i_lp_mmshare_version>  (227) 
48012

>  <i_f3d_flags>  (227) 
0

>  <s_epik_input>  (227) 
W0NIMl0xW0NIMl1bQ0gyXVtDQEhdKFtDQEBIXTJbQ0gzXSlbQ0BASF0oW0NIM10pW0NAXTEoW0NIM10pW0NAQF0yM09bQ0BIXTNbQ0BIXShPNClbQ0BAXShDNT1PKShbQ0gzXSlbQ0BASF0oW0NIMl1bQ0gyXTYpW0NIMl1bQ0BAXShbQ0gzXSkoW0NAQF03KFtPSF0pW0NASF01W0NAXTQ2W09IXSlbQ0BIXThPQyg9TylbQ0BdNyhbQ0gzXSlDOChbQ0gzXSlbQ0gzXQ==

>  <s_epik_cmdline>  (227) 
J2VwaWtfcHl0aG9uJywgJy1waHQnLCAnMi4wJywgJy1waCcsICc3LjAnLCAnLXRuJywgJzgnLCAnLW1hJywgJzIwMCcsICctaW1hZScsICc8aW5maWxlLm1hZT4nLCAnLW9tYWUnLCAnPG91dGZpbGUubWFlPic=

>  <r_lp_tautomer_probability>  (227) 
1

>  <r_epik_Ionization_Penalty>  (227) 
4.80155e-06

>  <r_epik_Ionization_Penalty_Charging>  (227) 
0

>  <r_epik_Ionization_Penalty_Neutral>  (227) 
4.80155e-06

>  <r_epik_State_Penalty>  (227) 
-0

>  <r_epik_Charging_Adjusted_Penalty>  (227) 
0

>  <i_epik_Tot_Q>  (227) 
0

>  <i_epik_Tot_abs_Q>  (227) 
0

>  <s_epik_Chemistry_Notes>  (227) 
This compound has an ester and may undergo hydrolysis at high or low pH.

>  <s_lp_Force_Field>  (227) 
OPLS3e

>  <r_lp_Energy>  (227) 
122.691

>  <b_lp_Chiralities_Consistent>  (227) 
1

>  <s_lp_Variant>  (227) 
68:0-1

>  <s_i_glide_gridfile>  (227) 
pfpi4k_grid

>  <i_i_glide_lignum>  (227) 
22

>  <i_i_glide_rotatable_bonds>  (227) 
3

>  <r_i_docking_score>  (227) 
-2.59911

>  <r_i_glide_ligand_efficiency>  (227) 
-0.0666438

>  <r_i_glide_ligand_efficiency_sa>  (227) 
-0.226003

>  <r_i_glide_ligand_efficiency_ln>  (227) 
-0.557322

>  <r_i_glide_gscore>  (227) 
-2.59911

>  <r_i_glide_lipo>  (227) 
-0.410162

>  <r_i_glide_hbond>  (227) 
-0.0137606

>  <r_i_glide_metal>  (227) 
-0

>  <r_i_glide_rewards>  (227) 
-0.0476052

>  <r_i_glide_evdw>  (227) 
-27.6381

>  <r_i_glide_ecoul>  (227) 
-5.23711

>  <r_i_glide_erotb>  (227) 
0.0702414

>  <r_i_glide_esite>  (227) 
-0.0303468

>  <r_i_glide_emodel>  (227) 
-37.0906

>  <r_i_glide_energy>  (227) 
-32.8752

>  <r_i_glide_einternal>  (227) 
0.157876

>  <r_i_glide_intrahb_reward>  (227) 
-0

>  <i_i_glide_confnum>  (227) 
3

>  <i_i_glide_posenum>  (227) 
22

>  <r_i_glide_eff_state_penalty>  (227) 
0

>  <ligand_id>  (227) 
68

>  <original_smiles>  (227) 
CC1C2CCCC1(C)C1(OC1C1OC3(O)CCC4CC5(C)C6OC(=O)C(C)(C6(C)C)C5(O)C3C(=O)C41C)C2C

>  <smiles>  (227) 
[H]OC12OC([H])(C3([H])OC34C([H])(C([H])([H])[H])C3([H])C([H])([H])C([H])([H])C([H])([H])C4(C([H])([H])[H])C3([H])C([H])([H])[H])C3(C([H])([H])[H])C(=O)C1([H])C1(O[H])C4(C([H])([H])[H])C(=O)OC([H])(C1(C([H])([H])[H])C([H])([H])C3([H])C([H])([H])C2([H])[H])C4(C([H])([H])[H])C([H])([H])[H]

$$$$
68:0:1
     RDKit          3D

 85 92  0  0  1  0  0  0  0  0999 V2000
    3.3078   -9.9415    6.0169 C   0  0  0  0  0  0  0  0  0  0  0  0
    2.8813   -8.8278    5.0292 C   0  0  2  0  0  0  0  0  0  0  0  0
    1.3693   -8.7592    4.7095 C   0  0  2  0  0  0  0  0  0  0  0  0
    0.8797  -10.1591    4.2709 C   0  0  0  0  0  0  0  0  0  0  0  0
    1.6481  -10.6553    3.0118 C   0  0  0  0  0  0  0  0  0  0  0  0
    3.1664  -10.3026    3.0031 C   0  0  0  0  0  0  0  0  0  0  0  0
    3.4678   -8.8895    3.5793 C   0  0  2  0  0  0  0  0  0  0  0  0
    4.9968   -8.6354    3.5353 C   0  0  0  0  0  0  0  0  0  0  0  0
    2.6184   -7.7924    2.8780 C   0  0  2  0  0  0  0  0  0  0  0  0
    2.7106   -7.5869    1.4672 O   0  0  0  0  0  0  0  0  0  0  0  0
    3.2409   -6.5339    2.2853 C   0  0  1  0  0  0  0  0  0  0  0  0
    2.5005   -5.1859    2.2944 C   0  0  2  0  0  0  0  0  0  0  0  0
    2.6227   -4.4947    1.0340 O   0  0  0  0  0  0  0  0  0  0  0  0
    3.0120   -3.1367    0.9855 C   0  0  2  0  0  0  0  0  0  0  0  0
    2.7708   -2.6798   -0.3151 O   0  0  0  0  0  0  0  0  0  0  0  0
    4.5342   -3.1398    1.0463 C   0  0  0  0  0  0  0  0  0  0  0  0
    5.1148   -3.7568    2.3152 C   0  0  0  0  0  0  0  0  0  0  0  0
    4.2522   -3.6856    3.5916 C   0  0  1  0  0  0  0  0  0  0  0  0
    4.4210   -2.3278    4.3364 C   0  0  0  0  0  0  0  0  0  0  0  0
    4.0845   -0.9586    3.6358 C   0  0  2  0  0  0  0  0  0  0  0  0
    5.4297   -0.4380    3.0405 C   0  0  0  0  0  0  0  0  0  0  0  0
    3.6345    0.1139    4.7156 C   0  0  1  0  0  0  0  0  0  0  0  0
    3.6680    1.3958    4.0661 O   0  0  0  0  0  0  0  0  0  0  0  0
    2.6144    1.4911    3.2321 C   0  0  0  0  0  0  0  0  0  0  0  0
    2.2725    2.4507    2.5504 O   0  0  0  0  0  0  0  0  0  0  0  0
    1.8950    0.1378    3.3558 C   0  0  2  0  0  0  0  0  0  0  0  0
    0.4380    0.2237    2.8735 C   0  0  0  0  0  0  0  0  0  0  0  0
    2.1007    0.0450    4.9108 C   0  0  0  0  0  0  0  0  0  0  0  0
    1.5702   -1.1693    5.7018 C   0  0  0  0  0  0  0  0  0  0  0  0
    1.4996    1.2180    5.7853 C   0  0  0  0  0  0  0  0  0  0  0  0
    2.8588   -0.9015    2.6053 C   0  0  1  0  0  0  0  0  0  0  0  0
    3.2182   -0.3232    1.3456 O   0  0  0  0  0  0  0  0  0  0  0  0
    2.2110   -2.2550    2.0730 C   0  0  2  0  0  0  0  0  0  0  0  0
    1.7779   -3.1478    3.2184 C   0  0  0  0  0  0  0  0  0  0  0  0
    0.6519   -3.1009    3.7107 O   0  0  0  0  0  0  0  0  0  0  0  0
    2.7812   -4.2508    3.5168 C   0  0  1  0  0  0  0  0  0  0  0  0
    2.3922   -4.8889    4.8723 C   0  0  0  0  0  0  0  0  0  0  0  0
    1.2362   -7.7194    3.5592 C   0  0  1  0  0  0  0  0  0  0  0  0
    0.0021   -7.8707    2.6079 C   0  0  0  0  0  0  0  0  0  0  0  0
    3.1009  -10.9455    5.6464 H   0  0  0  0  0  0  0  0  0  0  0  0
    2.7552   -9.8446    6.9510 H   0  0  0  0  0  0  0  0  0  0  0  0
    4.3822   -9.9072    6.2350 H   0  0  0  0  0  0  0  0  0  0  0  0
    3.2060   -7.8927    5.4945 H   0  0  0  0  0  0  0  0  0  0  0  0
    0.8288   -8.3953    5.5676 H   0  0  0  0  0  0  0  0  0  0  0  0
    0.9465  -10.8510    5.1120 H   0  0  0  0  0  0  0  0  0  0  0  0
   -0.1902  -10.1020    4.0768 H   0  0  0  0  0  0  0  0  0  0  0  0
    1.5206  -11.7464    2.9411 H   0  0  0  0  0  0  0  0  0  0  0  0
    1.2435  -10.2219    2.1033 H   0  0  0  0  0  0  0  0  0  0  0  0
    3.7311  -11.0577    3.5514 H   0  0  0  0  0  0  0  0  0  0  0  0
    3.5339  -10.3547    1.9790 H   0  0  0  0  0  0  0  0  0  0  0  0
    5.3499   -8.7337    2.5145 H   0  0  0  0  0  0  0  0  0  0  0  0
    5.5365   -9.3705    4.1356 H   0  0  0  0  0  0  0  0  0  0  0  0
    5.2896   -7.6471    3.9002 H   0  0  0  0  0  0  0  0  0  0  0  0
    4.3132   -6.4785    2.1804 H   0  0  0  0  0  0  0  0  0  0  0  0
    1.4390   -5.4313    2.2854 H   0  0  0  0  0  0  0  0  0  0  0  0
    1.9945   -2.1106   -0.3283 H   0  0  0  0  0  0  0  0  0  0  0  0
    4.8758   -3.7333    0.1919 H   0  0  0  0  0  0  0  0  0  0  0  0
    4.9002   -2.1331    0.8464 H   0  0  0  0  0  0  0  0  0  0  0  0
    5.3962   -4.7802    2.0939 H   0  0  0  0  0  0  0  0  0  0  0  0
    6.0795   -3.2960    2.5002 H   0  0  0  0  0  0  0  0  0  0  0  0
    4.7535   -4.3999    4.2416 H   0  0  0  0  0  0  0  0  0  0  0  0
    3.9765   -2.4067    5.3218 H   0  0  0  0  0  0  0  0  0  0  0  0
    5.4734   -2.2895    4.6167 H   0  0  0  0  0  0  0  0  0  0  0  0
    5.3112    0.4829    2.4773 H   0  0  0  0  0  0  0  0  0  0  0  0
    5.9197   -1.1327    2.3708 H   0  0  0  0  0  0  0  0  0  0  0  0
    6.1447   -0.2227    3.8323 H   0  0  0  0  0  0  0  0  0  0  0  0
    4.2155    0.1091    5.6397 H   0  0  0  0  0  0  0  0  0  0  0  0
   -0.1506   -0.6092    3.2619 H   0  0  0  0  0  0  0  0  0  0  0  0
    0.3654    0.2121    1.7816 H   0  0  0  0  0  0  0  0  0  0  0  0
   -0.0515    1.1421    3.2128 H   0  0  0  0  0  0  0  0  0  0  0  0
    0.4884   -1.2706    5.5977 H   0  0  0  0  0  0  0  0  0  0  0  0
    1.7829   -1.0651    6.7661 H   0  0  0  0  0  0  0  0  0  0  0  0
    2.0068   -2.1165    5.4701 H   0  0  0  0  0  0  0  0  0  0  0  0
    0.4102    1.1643    5.8027 H   0  0  0  0  0  0  0  0  0  0  0  0
    1.7477    2.2364    5.4906 H   0  0  0  0  0  0  0  0  0  0  0  0
    1.8353    1.1392    6.8177 H   0  0  0  0  0  0  0  0  0  0  0  0
    2.4667   -0.3478    0.7660 H   0  0  0  0  0  0  0  0  0  0  0  0
    1.2568   -1.9949    1.6122 H   0  0  0  0  0  0  0  0  0  0  0  0
    2.9046   -5.8375    4.9712 H   0  0  0  0  0  0  0  0  0  0  0  0
    1.3344   -5.1030    4.9421 H   0  0  0  0  0  0  0  0  0  0  0  0
    2.6917   -4.2848    5.7421 H   0  0  0  0  0  0  0  0  0  0  0  0
    1.1087   -6.8034    4.0393 H   0  0  0  0  0  0  0  0  0  0  0  0
   -0.0452   -8.7620    1.9882 H   0  0  0  0  0  0  0  0  0  0  0  0
   -0.0531   -6.9988    1.9502 H   0  0  0  0  0  0  0  0  0  0  0  0
   -0.8911   -7.8231    3.2366 H   0  0  0  0  0  0  0  0  0  0  0  0
  1  2  1  0
  1 40  1  0
  1 41  1  0
  1 42  1  0
  2  7  1  0
  2  3  1  0
  2 43  1  1
  3 38  1  0
  3  4  1  0
  3 44  1  1
  4  5  1  0
  4 45  1  0
  4 46  1  0
  5  6  1  0
  5 47  1  0
  5 48  1  0
  6  7  1  0
  6 49  1  0
  6 50  1  0
  7  8  1  1
  7  9  1  0
  8 51  1  0
  8 52  1  0
  8 53  1  0
  9 11  1  0
  9 10  1  6
  9 38  1  0
 10 11  1  0
 11 12  1  0
 11 54  1  6
 12 36  1  0
 12 13  1  0
 12 55  1  1
 13 14  1  0
 14 33  1  0
 14 15  1  6
 14 16  1  0
 15 56  1  0
 16 17  1  0
 16 57  1  0
 16 58  1  0
 17 18  1  0
 17 59  1  0
 17 60  1  0
 18 36  1  0
 18 19  1  0
 18 61  1  1
 19 20  1  0
 19 62  1  0
 19 63  1  0
 20 31  1  0
 20 21  1  6
 20 22  1  0
 21 64  1  0
 21 65  1  0
 21 66  1  0
 22 28  1  0
 22 23  1  0
 22 67  1  1
 23 24  1  0
 24 25  2  0
 24 26  1  0
 26 27  1  1
 26 28  1  0
 26 31  1  0
 27 68  1  0
 27 69  1  0
 27 70  1  0
 28 29  1  0
 28 30  1  0
 29 71  1  0
 29 72  1  0
 29 73  1  0
 30 74  1  0
 30 75  1  0
 30 76  1  0
 31 32  1  6
 31 33  1  0
 32 77  1  0
 33 34  1  0
 33 78  1  6
 34 35  2  0
 34 36  1  0
 36 37  1  1
 37 79  1  0
 37 80  1  0
 37 81  1  0
 38 39  1  0
 38 82  1  1
 39 83  1  0
 39 84  1  0
 39 85  1  0
M  END
>  <i_m_ct_stereo_status>  (228) 
1

>  <s_m_source_file>  (228) 
/var/tmp/pbs.5076255.sched01/tmpnx1894nc/68p53si2vm.sdf

>  <i_m_source_file_index>  (228) 
22

>  <i_lp_mmshare_version>  (228) 
48012

>  <i_f3d_flags>  (228) 
0

>  <s_epik_input>  (228) 
W0NIMl0xW0NIMl1bQ0gyXVtDQEhdKFtDQEBIXTJbQ0gzXSlbQ0BASF0oW0NIM10pW0NAXTEoW0NIM10pW0NAQF0yM09bQ0BIXTNbQ0BIXShPNClbQ0BAXShDNT1PKShbQ0gzXSlbQ0BASF0oW0NIMl1bQ0gyXTYpW0NIMl1bQ0BAXShbQ0gzXSkoW0NAQF03KFtPSF0pW0NASF01W0NAXTQ2W09IXSlbQ0BIXThPQyg9TylbQ0BdNyhbQ0gzXSlDOChbQ0gzXSlbQ0gzXQ==

>  <s_epik_cmdline>  (228) 
J2VwaWtfcHl0aG9uJywgJy1waHQnLCAnMi4wJywgJy1waCcsICc3LjAnLCAnLXRuJywgJzgnLCAnLW1hJywgJzIwMCcsICctaW1hZScsICc8aW5maWxlLm1hZT4nLCAnLW9tYWUnLCAnPG91dGZpbGUubWFlPic=

>  <r_lp_tautomer_probability>  (228) 
1

>  <r_epik_Ionization_Penalty>  (228) 
4.80155e-06

>  <r_epik_Ionization_Penalty_Charging>  (228) 
0

>  <r_epik_Ionization_Penalty_Neutral>  (228) 
4.80155e-06

>  <r_epik_State_Penalty>  (228) 
-0

>  <r_epik_Charging_Adjusted_Penalty>  (228) 
0

>  <i_epik_Tot_Q>  (228) 
0

>  <i_epik_Tot_abs_Q>  (228) 
0

>  <s_epik_Chemistry_Notes>  (228) 
This compound has an ester and may undergo hydrolysis at high or low pH.

>  <s_lp_Force_Field>  (228) 
OPLS3e

>  <r_lp_Energy>  (228) 
122.691

>  <b_lp_Chiralities_Consistent>  (228) 
1

>  <s_lp_Variant>  (228) 
68:0-1

>  <s_i_glide_gridfile>  (228) 
pfpi4k_grid

>  <i_i_glide_lignum>  (228) 
22

>  <i_i_glide_rotatable_bonds>  (228) 
3

>  <r_i_docking_score>  (228) 
-2.35523

>  <r_i_glide_ligand_efficiency>  (228) 
-0.0603906

>  <r_i_glide_ligand_efficiency_sa>  (228) 
-0.204797

>  <r_i_glide_ligand_efficiency_ln>  (228) 
-0.505029

>  <r_i_glide_gscore>  (228) 
-2.35523

>  <r_i_glide_lipo>  (228) 
-0.336477

>  <r_i_glide_hbond>  (228) 
0

>  <r_i_glide_metal>  (228) 
-0

>  <r_i_glide_rewards>  (228) 
-0.0223307

>  <r_i_glide_evdw>  (228) 
-32.8719

>  <r_i_glide_ecoul>  (228) 
-2.67024

>  <r_i_glide_erotb>  (228) 
0.0702414

>  <r_i_glide_esite>  (228) 
-0.0225344

>  <r_i_glide_emodel>  (228) 
-37.4755

>  <r_i_glide_energy>  (228) 
-35.5421

>  <r_i_glide_einternal>  (228) 
1.52721

>  <r_i_glide_intrahb_reward>  (228) 
-0

>  <i_i_glide_confnum>  (228) 
1

>  <i_i_glide_posenum>  (228) 
34

>  <r_i_glide_eff_state_penalty>  (228) 
0

>  <ligand_id>  (228) 
68

>  <original_smiles>  (228) 
CC1C2CCCC1(C)C1(OC1C1OC3(O)CCC4CC5(C)C6OC(=O)C(C)(C6(C)C)C5(O)C3C(=O)C41C)C2C

>  <smiles>  (228) 
[H]OC12OC([H])(C3([H])OC34C([H])(C([H])([H])[H])C3([H])C([H])([H])C([H])([H])C([H])([H])C4(C([H])([H])[H])C3([H])C([H])([H])[H])C3(C([H])([H])[H])C(=O)C1([H])C1(O[H])C4(C([H])([H])[H])C(=O)OC([H])(C1(C([H])([H])[H])C([H])([H])C3([H])C([H])([H])C2([H])[H])C4(C([H])([H])[H])C([H])([H])[H]

$$$$
68:0:2
     RDKit          3D

 85 92  0  0  1  0  0  0  0  0999 V2000
    3.4224  -10.2575    6.2855 C   0  0  0  0  0  0  0  0  0  0  0  0
    2.9895   -9.1754    5.2615 C   0  0  2  0  0  0  0  0  0  0  0  0
    1.4771   -9.1457    4.9088 C   0  0  2  0  0  0  0  0  0  0  0  0
    1.0157  -10.5574    4.4900 C   0  0  0  0  0  0  0  0  0  0  0  0
    1.8331  -11.0823    3.2660 C   0  0  0  0  0  0  0  0  0  0  0  0
    3.3302  -10.6848    3.2766 C   0  0  0  0  0  0  0  0  0  0  0  0
    3.6032   -9.2581    3.8287 C   0  0  2  0  0  0  0  0  0  0  0  0
    5.1173   -8.9723    3.8180 C   0  0  0  0  0  0  0  0  0  0  0  0
    2.7343   -8.1836    3.0992 C   0  0  2  0  0  0  0  0  0  0  0  0
    2.8465   -7.9950    1.6802 O   0  0  0  0  0  0  0  0  0  0  0  0
    3.3537   -6.9286    2.4878 C   0  0  1  0  0  0  0  0  0  0  0  0
    2.5991   -5.5838    2.4504 C   0  0  2  0  0  0  0  0  0  0  0  0
    2.6906   -4.9553    1.1571 O   0  0  0  0  0  0  0  0  0  0  0  0
    3.0183   -3.5739    1.0444 C   0  0  2  0  0  0  0  0  0  0  0  0
    2.6209   -3.1436   -0.2299 O   0  0  0  0  0  0  0  0  0  0  0  0
    4.5599   -3.5438    1.0568 C   0  0  0  0  0  0  0  0  0  0  0  0
    5.1870   -4.1090    2.3396 C   0  0  0  0  0  0  0  0  0  0  0  0
    4.3568   -4.0066    3.6432 C   0  0  1  0  0  0  0  0  0  0  0  0
    4.5304   -2.6149    4.3298 C   0  0  0  0  0  0  0  0  0  0  0  0
    4.1603   -1.2759    3.5797 C   0  0  2  0  0  0  0  0  0  0  0  0
    5.4762   -0.7557    2.9270 C   0  0  0  0  0  0  0  0  0  0  0  0
    3.7164   -0.1621    4.6177 C   0  0  1  0  0  0  0  0  0  0  0  0
    3.7102    1.0837    3.9164 O   0  0  0  0  0  0  0  0  0  0  0  0
    2.6385    1.1305    3.1143 C   0  0  0  0  0  0  0  0  0  0  0  0
    2.2692    2.0577    2.4104 O   0  0  0  0  0  0  0  0  0  0  0  0
    1.9528   -0.2274    3.3203 C   0  0  2  0  0  0  0  0  0  0  0  0
    0.4713   -0.1767    2.8663 C   0  0  0  0  0  0  0  0  0  0  0  0
    2.1943   -0.2537    4.8684 C   0  0  0  0  0  0  0  0  0  0  0  0
    1.6901   -1.4442    5.7192 C   0  0  0  0  0  0  0  0  0  0  0  0
    1.5900    0.9468    5.7022 C   0  0  0  0  0  0  0  0  0  0  0  0
    2.9056   -1.2861    2.5738 C   0  0  1  0  0  0  0  0  0  0  0  0
    3.2197   -0.7526    1.2799 O   0  0  0  0  0  0  0  0  0  0  0  0
    2.2599   -2.6695    2.1343 C   0  0  2  0  0  0  0  0  0  0  0  0
    1.8655   -3.5241    3.2997 C   0  0  0  0  0  0  0  0  0  0  0  0
    0.7371   -3.4808    3.7968 O   0  0  0  0  0  0  0  0  0  0  0  0
    2.8918   -4.5874    3.6301 C   0  0  1  0  0  0  0  0  0  0  0  0
    2.5566   -5.1872    5.0282 C   0  0  0  0  0  0  0  0  0  0  0  0
    1.3540   -8.1429    3.7471 C   0  0  1  0  0  0  0  0  0  0  0  0
    0.1298   -8.2783    2.7920 C   0  0  0  0  0  0  0  0  0  0  0  0
    3.2375  -11.2786    5.9474 H   0  0  0  0  0  0  0  0  0  0  0  0
    2.8631  -10.1386    7.2270 H   0  0  0  0  0  0  0  0  0  0  0  0
    4.4857  -10.1990    6.5392 H   0  0  0  0  0  0  0  0  0  0  0  0
    3.2807   -8.2259    5.7103 H   0  0  0  0  0  0  0  0  0  0  0  0
    0.9167   -8.7793    5.7682 H   0  0  0  0  0  0  0  0  0  0  0  0
    1.0806  -11.2339    5.3526 H   0  0  0  0  0  0  0  0  0  0  0  0
   -0.0493  -10.5110    4.2653 H   0  0  0  0  0  0  0  0  0  0  0  0
    1.7330  -12.1690    3.2230 H   0  0  0  0  0  0  0  0  0  0  0  0
    1.4355  -10.6710    2.3338 H   0  0  0  0  0  0  0  0  0  0  0  0
    3.9204  -11.4237    3.8420 H   0  0  0  0  0  0  0  0  0  0  0  0
    3.7152  -10.7280    2.2434 H   0  0  0  0  0  0  0  0  0  0  0  0
    5.4966   -9.0771    2.7892 H   0  0  0  0  0  0  0  0  0  0  0  0
    5.6691   -9.6940    4.4339 H   0  0  0  0  0  0  0  0  0  0  0  0
    5.3911   -7.9689    4.1720 H   0  0  0  0  0  0  0  0  0  0  0  0
    4.4369   -6.8478    2.4068 H   0  0  0  0  0  0  0  0  0  0  0  0
    1.5377   -5.8304    2.4742 H   0  0  0  0  0  0  0  0  0  0  0  0
    3.0724   -3.6784   -0.8584 H   0  0  0  0  0  0  0  0  0  0  0  0
    4.9035   -4.1690    0.2372 H   0  0  0  0  0  0  0  0  0  0  0  0
    4.9185   -2.5459    0.8198 H   0  0  0  0  0  0  0  0  0  0  0  0
    5.4760   -5.1427    2.1688 H   0  0  0  0  0  0  0  0  0  0  0  0
    6.1542   -3.6366    2.4987 H   0  0  0  0  0  0  0  0  0  0  0  0
    4.8889   -4.6800    4.3186 H   0  0  0  0  0  0  0  0  0  0  0  0
    4.1075   -2.6551    5.3291 H   0  0  0  0  0  0  0  0  0  0  0  0
    5.5859   -2.5470    4.5805 H   0  0  0  0  0  0  0  0  0  0  0  0
    5.3350    0.1395    2.3224 H   0  0  0  0  0  0  0  0  0  0  0  0
    5.9609   -1.4760    2.2853 H   0  0  0  0  0  0  0  0  0  0  0  0
    6.2038   -0.4932    3.6955 H   0  0  0  0  0  0  0  0  0  0  0  0
    4.3196   -0.1344    5.5368 H   0  0  0  0  0  0  0  0  0  0  0  0
   -0.0815   -1.0040    3.2991 H   0  0  0  0  0  0  0  0  0  0  0  0
    0.3875   -0.2342    1.7805 H   0  0  0  0  0  0  0  0  0  0  0  0
   -0.0136    0.7456    3.1818 H   0  0  0  0  0  0  0  0  0  0  0  0
    0.6093   -1.5599    5.6444 H   0  0  0  0  0  0  0  0  0  0  0  0
    1.9292   -1.2871    6.7680 H   0  0  0  0  0  0  0  0  0  0  0  0
    2.1334   -2.3949    5.5123 H   0  0  0  0  0  0  0  0  0  0  0  0
    0.5036    0.8768    5.7431 H   0  0  0  0  0  0  0  0  0  0  0  0
    1.8192    1.9564    5.3512 H   0  0  0  0  0  0  0  0  0  0  0  0
    1.9566    0.9157    6.7269 H   0  0  0  0  0  0  0  0  0  0  0  0
    2.4407   -0.7906    0.7274 H   0  0  0  0  0  0  0  0  0  0  0  0
    1.3036   -2.4157    1.6840 H   0  0  0  0  0  0  0  0  0  0  0  0
    3.0724   -6.1317    5.1524 H   0  0  0  0  0  0  0  0  0  0  0  0
    1.4905   -5.3959    5.1499 H   0  0  0  0  0  0  0  0  0  0  0  0
    2.8859   -4.5387    5.8508 H   0  0  0  0  0  0  0  0  0  0  0  0
    1.2310   -7.1804    4.2381 H   0  0  0  0  0  0  0  0  0  0  0  0
    0.0664   -9.1749    2.1552 H   0  0  0  0  0  0  0  0  0  0  0  0
    0.0686   -7.4113    2.1413 H   0  0  0  0  0  0  0  0  0  0  0  0
   -0.7717   -8.2174    3.3900 H   0  0  0  0  0  0  0  0  0  0  0  0
  1  2  1  0
  1 40  1  0
  1 41  1  0
  1 42  1  0
  2  7  1  0
  2  3  1  0
  2 43  1  1
  3 38  1  0
  3  4  1  0
  3 44  1  1
  4  5  1  0
  4 45  1  0
  4 46  1  0
  5  6  1  0
  5 47  1  0
  5 48  1  0
  6  7  1  0
  6 49  1  0
  6 50  1  0
  7  8  1  1
  7  9  1  0
  8 51  1  0
  8 52  1  0
  8 53  1  0
  9 11  1  0
  9 10  1  6
  9 38  1  0
 10 11  1  0
 11 12  1  0
 11 54  1  1
 12 36  1  0
 12 13  1  0
 12 55  1  1
 13 14  1  0
 14 33  1  0
 14 15  1  6
 14 16  1  0
 15 56  1  0
 16 17  1  0
 16 57  1  0
 16 58  1  0
 17 18  1  0
 17 59  1  0
 17 60  1  0
 18 36  1  0
 18 19  1  0
 18 61  1  1
 19 20  1  0
 19 62  1  0
 19 63  1  0
 20 31  1  0
 20 21  1  6
 20 22  1  0
 21 64  1  0
 21 65  1  0
 21 66  1  0
 22 28  1  0
 22 23  1  0
 22 67  1  1
 23 24  1  0
 24 25  2  0
 24 26  1  0
 26 27  1  1
 26 28  1  0
 26 31  1  0
 27 68  1  0
 27 69  1  0
 27 70  1  0
 28 29  1  0
 28 30  1  0
 29 71  1  0
 29 72  1  0
 29 73  1  0
 30 74  1  0
 30 75  1  0
 30 76  1  0
 31 32  1  6
 31 33  1  0
 32 77  1  0
 33 34  1  0
 33 78  1  6
 34 35  2  0
 34 36  1  0
 36 37  1  1
 37 79  1  0
 37 80  1  0
 37 81  1  0
 38 39  1  0
 38 82  1  1
 39 83  1  0
 39 84  1  0
 39 85  1  0
M  END
>  <i_m_ct_stereo_status>  (229) 
1

>  <s_m_source_file>  (229) 
/var/tmp/pbs.5076255.sched01/tmpnx1894nc/68p53si2vm.sdf

>  <i_m_source_file_index>  (229) 
22

>  <i_lp_mmshare_version>  (229) 
48012

>  <i_f3d_flags>  (229) 
0

>  <s_epik_input>  (229) 
W0NIMl0xW0NIMl1bQ0gyXVtDQEhdKFtDQEBIXTJbQ0gzXSlbQ0BASF0oW0NIM10pW0NAXTEoW0NIM10pW0NAQF0yM09bQ0BIXTNbQ0BIXShPNClbQ0BAXShDNT1PKShbQ0gzXSlbQ0BASF0oW0NIMl1bQ0gyXTYpW0NIMl1bQ0BAXShbQ0gzXSkoW0NAQF03KFtPSF0pW0NASF01W0NAXTQ2W09IXSlbQ0BIXThPQyg9TylbQ0BdNyhbQ0gzXSlDOChbQ0gzXSlbQ0gzXQ==

>  <s_epik_cmdline>  (229) 
J2VwaWtfcHl0aG9uJywgJy1waHQnLCAnMi4wJywgJy1waCcsICc3LjAnLCAnLXRuJywgJzgnLCAnLW1hJywgJzIwMCcsICctaW1hZScsICc8aW5maWxlLm1hZT4nLCAnLW9tYWUnLCAnPG91dGZpbGUubWFlPic=

>  <r_lp_tautomer_probability>  (229) 
1

>  <r_epik_Ionization_Penalty>  (229) 
4.80155e-06

>  <r_epik_Ionization_Penalty_Charging>  (229) 
0

>  <r_epik_Ionization_Penalty_Neutral>  (229) 
4.80155e-06

>  <r_epik_State_Penalty>  (229) 
-0

>  <r_epik_Charging_Adjusted_Penalty>  (229) 
0

>  <i_epik_Tot_Q>  (229) 
0

>  <i_epik_Tot_abs_Q>  (229) 
0

>  <s_epik_Chemistry_Notes>  (229) 
This compound has an ester and may undergo hydrolysis at high or low pH.

>  <s_lp_Force_Field>  (229) 
OPLS3e

>  <r_lp_Energy>  (229) 
122.691

>  <b_lp_Chiralities_Consistent>  (229) 
1

>  <s_lp_Variant>  (229) 
68:0-1

>  <s_i_glide_gridfile>  (229) 
pfpi4k_grid

>  <i_i_glide_lignum>  (229) 
22

>  <i_i_glide_rotatable_bonds>  (229) 
3

>  <r_i_docking_score>  (229) 
-1.99779

>  <r_i_glide_ligand_efficiency>  (229) 
-0.0512255

>  <r_i_glide_ligand_efficiency_sa>  (229) 
-0.173716

>  <r_i_glide_ligand_efficiency_ln>  (229) 
-0.428384

>  <r_i_glide_gscore>  (229) 
-1.99779

>  <r_i_glide_lipo>  (229) 
-0.323423

>  <r_i_glide_hbond>  (229) 
0

>  <r_i_glide_metal>  (229) 
-0

>  <r_i_glide_rewards>  (229) 
-0.0138019

>  <r_i_glide_evdw>  (229) 
-32.8738

>  <r_i_glide_ecoul>  (229) 
-0.506419

>  <r_i_glide_erotb>  (229) 
0.0702414

>  <r_i_glide_esite>  (229) 
-0.0111587

>  <r_i_glide_emodel>  (229) 
-37.1029

>  <r_i_glide_energy>  (229) 
-33.3802

>  <r_i_glide_einternal>  (229) 
0.177369

>  <r_i_glide_intrahb_reward>  (229) 
-0

>  <i_i_glide_confnum>  (229) 
3

>  <i_i_glide_posenum>  (229) 
27

>  <r_i_glide_eff_state_penalty>  (229) 
0

>  <ligand_id>  (229) 
68

>  <original_smiles>  (229) 
CC1C2CCCC1(C)C1(OC1C1OC3(O)CCC4CC5(C)C6OC(=O)C(C)(C6(C)C)C5(O)C3C(=O)C41C)C2C

>  <smiles>  (229) 
[H]OC12OC([H])(C3([H])OC34C([H])(C([H])([H])[H])C3([H])C([H])([H])C([H])([H])C([H])([H])C4(C([H])([H])[H])C3([H])C([H])([H])[H])C3(C([H])([H])[H])C(=O)C1([H])C1(O[H])C4(C([H])([H])[H])C(=O)OC([H])(C1(C([H])([H])[H])C([H])([H])C3([H])C([H])([H])C2([H])[H])C4(C([H])([H])[H])C([H])([H])[H]

$$$$
69:0:0
     RDKit          3D

 50 54  0  0  1  0  0  0  0  0999 V2000
    4.1088   -2.2755   -2.9011 C   0  0  0  0  0  0  0  0  0  0  0  0
    4.8346   -3.1233   -2.0239 O   0  0  0  0  0  0  0  0  0  0  0  0
    4.5188   -3.1042   -0.6814 C   0  0  0  0  0  0  0  0  0  0  0  0
    5.2093   -4.0110    0.1462 C   0  0  0  0  0  0  0  0  0  0  0  0
    4.9386   -4.0712    1.5272 C   0  0  0  0  0  0  0  0  0  0  0  0
    3.9800   -3.2110    2.1011 C   0  0  0  0  0  0  0  0  0  0  0  0
    3.3018   -2.2645    1.2951 C   0  0  0  0  0  0  0  0  0  0  0  0
    3.5625   -2.2338   -0.0959 C   0  0  0  0  0  0  0  0  0  0  0  0
    2.2662   -1.2943    1.8879 C   0  0  1  0  0  0  0  0  0  0  0  0
    1.8465   -1.5569    3.3657 C   0  0  1  0  0  0  0  0  0  0  0  0
    3.0505   -2.0787    4.1990 C   0  0  2  0  0  0  0  0  0  0  0  0
    4.0784   -0.9775    4.4406 C   0  0  0  0  0  0  0  0  0  0  0  0
    3.8581    0.2944    4.0503 C   0  0  0  0  0  0  0  0  0  0  0  0
    2.5658    0.7012    3.3320 C   0  0  2  0  0  0  0  0  0  0  0  0
    2.2640    2.2086    3.4963 C   0  0  0  0  0  0  0  0  0  0  0  0
    0.8642    2.6016    2.9826 C   0  0  0  0  0  0  0  0  0  0  0  0
   -0.1999    1.7565    3.5755 N   0  0  1  0  0  0  0  0  0  0  0  0
   -1.5510    2.1953    3.1570 C   0  0  0  0  0  0  0  0  0  0  0  0
    0.0250    0.3117    3.3185 C   0  0  0  0  0  0  0  0  0  0  0  0
    1.3980   -0.1584    3.8652 C   0  0  1  0  0  0  0  0  0  0  0  0
    1.2632   -0.0994    5.2779 O   0  0  0  0  0  0  0  0  0  0  0  0
    2.6535    0.2196    1.8569 C   0  0  1  0  0  0  0  0  0  0  0  0
    3.9124    0.5166    1.2821 O   0  0  0  0  0  0  0  0  0  0  0  0
    3.6706   -3.3399    3.5795 C   0  0  0  0  0  0  0  0  0  0  0  0
    4.4785   -2.4120   -3.9175 H   0  0  0  0  0  0  0  0  0  0  0  0
    4.2439   -1.2235   -2.6429 H   0  0  0  0  0  0  0  0  0  0  0  0
    3.0441   -2.5170   -2.9035 H   0  0  0  0  0  0  0  0  0  0  0  0
    5.9510   -4.6668   -0.2852 H   0  0  0  0  0  0  0  0  0  0  0  0
    5.4700   -4.7858    2.1414 H   0  0  0  0  0  0  0  0  0  0  0  0
    3.0196   -1.5203   -0.6997 H   0  0  0  0  0  0  0  0  0  0  0  0
    1.3737   -1.4125    1.2809 H   0  0  0  0  0  0  0  0  0  0  0  0
    1.0368   -2.2850    3.4078 H   0  0  0  0  0  0  0  0  0  0  0  0
    2.6951   -2.3553    5.1919 H   0  0  0  0  0  0  0  0  0  0  0  0
    4.9954   -1.2561    4.9346 H   0  0  0  0  0  0  0  0  0  0  0  0
    4.5993    1.0623    4.2181 H   0  0  0  0  0  0  0  0  0  0  0  0
    2.3432    2.4796    4.5520 H   0  0  0  0  0  0  0  0  0  0  0  0
    3.0075    2.8056    2.9687 H   0  0  0  0  0  0  0  0  0  0  0  0
    0.6738    3.6463    3.2330 H   0  0  0  0  0  0  0  0  0  0  0  0
    0.8190    2.5390    1.8956 H   0  0  0  0  0  0  0  0  0  0  0  0
   -1.6866    2.0695    2.0798 H   0  0  0  0  0  0  0  0  0  0  0  0
   -1.7220    3.2472    3.4002 H   0  0  0  0  0  0  0  0  0  0  0  0
   -2.3196    1.6182    3.6740 H   0  0  0  0  0  0  0  0  0  0  0  0
   -0.7677   -0.2616    3.8015 H   0  0  0  0  0  0  0  0  0  0  0  0
   -0.0752    0.1310    2.2491 H   0  0  0  0  0  0  0  0  0  0  0  0
    2.0980   -0.3396    5.6530 H   0  0  0  0  0  0  0  0  0  0  0  0
    1.9189    0.7320    1.2351 H   0  0  0  0  0  0  0  0  0  0  0  0
    4.0989    1.4358    1.4059 H   0  0  0  0  0  0  0  0  0  0  0  0
    2.9479   -4.1515    3.6711 H   0  0  0  0  0  0  0  0  0  0  0  0
    4.5507   -3.6630    4.1339 H   0  0  0  0  0  0  0  0  0  0  0  0
   -0.1384    1.8727    4.5809 H   0  0  0  0  0  0  0  0  0  0  0  0
  1  2  1  0
  1 25  1  0
  1 26  1  0
  1 27  1  0
  2  3  1  0
  3  8  2  0
  3  4  1  0
  4  5  2  0
  4 28  1  0
  5  6  1  0
  5 29  1  0
  6 24  1  0
  6  7  2  0
  7  8  1  0
  7  9  1  0
  8 30  1  0
  9 22  1  0
  9 10  1  0
  9 31  1  6
 10 20  1  0
 10 11  1  0
 10 32  1  6
 11 12  1  0
 11 24  1  0
 11 33  1  1
 12 13  2  0
 12 34  1  0
 13 14  1  0
 13 35  1  0
 14 20  1  0
 14 15  1  6
 14 22  1  0
 15 16  1  0
 15 36  1  0
 15 37  1  0
 16 17  1  0
 16 38  1  0
 16 39  1  0
 17 18  1  0
 17 19  1  0
 17 50  1  1
 18 40  1  0
 18 41  1  0
 18 42  1  0
 19 20  1  0
 19 43  1  0
 19 44  1  0
 20 21  1  1
 21 45  1  0
 22 23  1  0
 22 46  1  6
 23 47  1  0
 24 48  1  0
 24 49  1  0
M  CHG  1  17   1
M  END
>  <i_m_ct_stereo_status>  (230) 
1

>  <s_m_source_file>  (230) 
/var/tmp/pbs.5076255.sched01/tmpnx1894nc/68p53si2vm.sdf

>  <i_m_source_file_index>  (230) 
23

>  <i_lp_mmshare_version>  (230) 
48012

>  <i_f3d_flags>  (230) 
0

>  <s_epik_input>  (230) 
W0NIM11PYyhbY0hdMSlbY0hdW2NIXWMoW0NIMl1bQ0BIXTJbQ0hdPVtDSF0zKWMxW0NASF0oW0NAQEhdNFtPSF0pW0NAQEhdMltDQF0oW0NAQF0zNDUpKFtPSF0pW0NIMl1OKFtDSDNdKVtDSDJdW0NIMl01

>  <s_epik_cmdline>  (230) 
J2VwaWtfcHl0aG9uJywgJy1waHQnLCAnMi4wJywgJy1waCcsICc3LjAnLCAnLXRuJywgJzgnLCAnLW1hJywgJzIwMCcsICctaW1hZScsICc8aW5maWxlLm1hZT4nLCAnLW9tYWUnLCAnPG91dGZpbGUubWFlPic=

>  <r_lp_tautomer_probability>  (230) 
1

>  <r_epik_Ionization_Penalty>  (230) 
0.0134879

>  <r_epik_Ionization_Penalty_Charging>  (230) 
0.0134878

>  <r_epik_Ionization_Penalty_Neutral>  (230) 
8.82513e-08

>  <r_epik_State_Penalty>  (230) 
0.0104997

>  <r_epik_Charging_Adjusted_Penalty>  (230) 
0.0239876

>  <i_epik_Tot_Q>  (230) 
1

>  <i_epik_Tot_abs_Q>  (230) 
1

>  <s_lp_Force_Field>  (230) 
OPLS3e

>  <r_lp_Energy>  (230) 
57.0496

>  <b_lp_Chiralities_Consistent>  (230) 
1

>  <s_lp_Variant>  (230) 
69:0-1

>  <s_i_glide_gridfile>  (230) 
pfpi4k_grid

>  <i_i_glide_lignum>  (230) 
23

>  <i_i_glide_rotatable_bonds>  (230) 
3

>  <r_i_docking_score>  (230) 
-3.60561

>  <r_i_glide_ligand_efficiency>  (230) 
-0.150234

>  <r_i_glide_ligand_efficiency_sa>  (230) 
-0.43335

>  <r_i_glide_ligand_efficiency_ln>  (230) 
-0.862989

>  <r_i_glide_gscore>  (230) 
-3.60561

>  <r_i_glide_lipo>  (230) 
-0.234928

>  <r_i_glide_hbond>  (230) 
-0.274175

>  <r_i_glide_metal>  (230) 
-0

>  <r_i_glide_rewards>  (230) 
-1.16983

>  <r_i_glide_evdw>  (230) 
-19.5085

>  <r_i_glide_ecoul>  (230) 
-6.1234

>  <r_i_glide_erotb>  (230) 
0

>  <r_i_glide_esite>  (230) 
-0.0327477

>  <r_i_glide_emodel>  (230) 
-32.3926

>  <r_i_glide_energy>  (230) 
-25.6319

>  <r_i_glide_einternal>  (230) 
0.458178

>  <r_i_glide_intrahb_reward>  (230) 
-0

>  <i_i_glide_confnum>  (230) 
2

>  <i_i_glide_posenum>  (230) 
39

>  <r_i_glide_eff_state_penalty>  (230) 
0

>  <ligand_id>  (230) 
69

>  <original_smiles>  (230) 
COc1ccc2c(c1)C1C3C(C=CC4(CCN(C)CC34O)C1O)C2

>  <smiles>  (230) 
[H]OC1([H])C2([H])c3c([H])c(OC([H])([H])[H])c([H])c([H])c3C([H])([H])C3([H])C([H])=C([H])C14C([H])([H])C([H])([H])[N+]([H])(C([H])([H])[H])C([H])([H])C4(O[H])C32[H]

$$$$
69:0:1
     RDKit          3D

 50 54  0  0  1  0  0  0  0  0999 V2000
    4.2543   -3.0829   -3.0546 C   0  0  0  0  0  0  0  0  0  0  0  0
    5.0465   -3.7981   -2.1212 O   0  0  0  0  0  0  0  0  0  0  0  0
    4.7500   -3.6789   -0.7809 C   0  0  0  0  0  0  0  0  0  0  0  0
    5.4504   -4.5266    0.1008 C   0  0  0  0  0  0  0  0  0  0  0  0
    5.2007   -4.4883    1.4856 C   0  0  0  0  0  0  0  0  0  0  0  0
    4.2582   -3.5843    2.0090 C   0  0  0  0  0  0  0  0  0  0  0  0
    3.5761   -2.6940    1.1467 C   0  0  0  0  0  0  0  0  0  0  0  0
    3.8037   -2.7670   -0.2468 C   0  0  0  0  0  0  0  0  0  0  0  0
    2.5608   -1.6795    1.6805 C   0  0  1  0  0  0  0  0  0  0  0  0
    2.1543   -1.8321    3.1733 C   0  0  1  0  0  0  0  0  0  0  0  0
    3.3650   -2.3025    4.0294 C   0  0  2  0  0  0  0  0  0  0  0  0
    4.4039   -1.1964    4.1794 C   0  0  0  0  0  0  0  0  0  0  0  0
    4.1891    0.0462    3.6998 C   0  0  0  0  0  0  0  0  0  0  0  0
    2.8880    0.4104    2.9755 C   0  0  2  0  0  0  0  0  0  0  0  0
    2.5868    1.9266    3.0460 C   0  0  0  0  0  0  0  0  0  0  0  0
    1.1864    2.2944    2.5159 C   0  0  0  0  0  0  0  0  0  0  0  0
    0.1220    1.5034    3.1770 N   0  0  1  0  0  0  0  0  0  0  0  0
   -1.2291    1.9182    2.7439 C   0  0  0  0  0  0  0  0  0  0  0  0
    0.3420    0.0411    3.0239 C   0  0  0  0  0  0  0  0  0  0  0  0
    1.7203   -0.4002    3.5867 C   0  0  1  0  0  0  0  0  0  0  0  0
    1.5995   -0.2853    5.0031 O   0  0  0  0  0  0  0  0  0  0  0  0
    2.9580   -0.1751    1.5311 C   0  0  1  0  0  0  0  0  0  0  0  0
    4.2114    0.0791    0.9144 O   0  0  0  0  0  0  0  0  0  0  0  0
    3.9697   -3.6076    3.4981 C   0  0  0  0  0  0  0  0  0  0  0  0
    4.6145   -3.2889   -4.0619 H   0  0  0  0  0  0  0  0  0  0  0  0
    4.3214   -2.0058   -2.8987 H   0  0  0  0  0  0  0  0  0  0  0  0
    3.2110   -3.3972   -3.0089 H   0  0  0  0  0  0  0  0  0  0  0  0
    6.1811   -5.2177   -0.2933 H   0  0  0  0  0  0  0  0  0  0  0  0
    5.7350   -5.1654    2.1393 H   0  0  0  0  0  0  0  0  0  0  0  0
    3.2443   -2.0983   -0.8858 H   0  0  0  0  0  0  0  0  0  0  0  0
    1.6608   -1.8454    1.0931 H   0  0  0  0  0  0  0  0  0  0  0  0
    1.3380   -2.5460    3.2865 H   0  0  0  0  0  0  0  0  0  0  0  0
    3.0200   -2.4961    5.0468 H   0  0  0  0  0  0  0  0  0  0  0  0
    5.3196   -1.4466    4.6850 H   0  0  0  0  0  0  0  0  0  0  0  0
    4.9322    0.8218    3.8109 H   0  0  0  0  0  0  0  0  0  0  0  0
    2.6892    2.2678    4.0798 H   0  0  0  0  0  0  0  0  0  0  0  0
    3.3264    2.4830    2.4746 H   0  0  0  0  0  0  0  0  0  0  0  0
    1.0182    3.3538    2.7090 H   0  0  0  0  0  0  0  0  0  0  0  0
    1.1265    2.1544    1.4367 H   0  0  0  0  0  0  0  0  0  0  0  0
   -1.3772    1.7180    1.6820 H   0  0  0  0  0  0  0  0  0  0  0  0
   -1.3882    2.9856    2.9202 H   0  0  0  0  0  0  0  0  0  0  0  0
   -1.9931    1.3784    3.3066 H   0  0  0  0  0  0  0  0  0  0  0  0
   -0.4447   -0.4927    3.5577 H   0  0  0  0  0  0  0  0  0  0  0  0
    0.2324   -0.2184    1.9710 H   0  0  0  0  0  0  0  0  0  0  0  0
    1.5195    0.6223    5.2485 H   0  0  0  0  0  0  0  0  0  0  0  0
    2.2099    0.2930    0.8882 H   0  0  0  0  0  0  0  0  0  0  0  0
    4.2981    1.0103    0.7737 H   0  0  0  0  0  0  0  0  0  0  0  0
    3.2454   -4.4055    3.6567 H   0  0  0  0  0  0  0  0  0  0  0  0
    4.8565   -3.8913    4.0610 H   0  0  0  0  0  0  0  0  0  0  0  0
    0.1714    1.7206    4.1601 H   0  0  0  0  0  0  0  0  0  0  0  0
  1  2  1  0
  1 25  1  0
  1 26  1  0
  1 27  1  0
  2  3  1  0
  3  8  2  0
  3  4  1  0
  4  5  2  0
  4 28  1  0
  5  6  1  0
  5 29  1  0
  6 24  1  0
  6  7  2  0
  7  8  1  0
  7  9  1  0
  8 30  1  0
  9 22  1  0
  9 10  1  0
  9 31  1  6
 10 20  1  0
 10 11  1  0
 10 32  1  6
 11 12  1  0
 11 24  1  0
 11 33  1  1
 12 13  2  0
 12 34  1  0
 13 14  1  0
 13 35  1  0
 14 20  1  0
 14 15  1  6
 14 22  1  0
 15 16  1  0
 15 36  1  0
 15 37  1  0
 16 17  1  0
 16 38  1  0
 16 39  1  0
 17 18  1  0
 17 19  1  0
 17 50  1  1
 18 40  1  0
 18 41  1  0
 18 42  1  0
 19 20  1  0
 19 43  1  0
 19 44  1  0
 20 21  1  1
 21 45  1  0
 22 23  1  0
 22 46  1  6
 23 47  1  0
 24 48  1  0
 24 49  1  0
M  CHG  1  17   1
M  END
>  <i_m_ct_stereo_status>  (231) 
1

>  <s_m_source_file>  (231) 
/var/tmp/pbs.5076255.sched01/tmpnx1894nc/68p53si2vm.sdf

>  <i_m_source_file_index>  (231) 
23

>  <i_lp_mmshare_version>  (231) 
48012

>  <i_f3d_flags>  (231) 
0

>  <s_epik_input>  (231) 
W0NIM11PYyhbY0hdMSlbY0hdW2NIXWMoW0NIMl1bQ0BIXTJbQ0hdPVtDSF0zKWMxW0NASF0oW0NAQEhdNFtPSF0pW0NAQEhdMltDQF0oW0NAQF0zNDUpKFtPSF0pW0NIMl1OKFtDSDNdKVtDSDJdW0NIMl01

>  <s_epik_cmdline>  (231) 
J2VwaWtfcHl0aG9uJywgJy1waHQnLCAnMi4wJywgJy1waCcsICc3LjAnLCAnLXRuJywgJzgnLCAnLW1hJywgJzIwMCcsICctaW1hZScsICc8aW5maWxlLm1hZT4nLCAnLW9tYWUnLCAnPG91dGZpbGUubWFlPic=

>  <r_lp_tautomer_probability>  (231) 
1

>  <r_epik_Ionization_Penalty>  (231) 
0.0134879

>  <r_epik_Ionization_Penalty_Charging>  (231) 
0.0134878

>  <r_epik_Ionization_Penalty_Neutral>  (231) 
8.82513e-08

>  <r_epik_State_Penalty>  (231) 
0.0104997

>  <r_epik_Charging_Adjusted_Penalty>  (231) 
0.0239876

>  <i_epik_Tot_Q>  (231) 
1

>  <i_epik_Tot_abs_Q>  (231) 
1

>  <s_lp_Force_Field>  (231) 
OPLS3e

>  <r_lp_Energy>  (231) 
57.0496

>  <b_lp_Chiralities_Consistent>  (231) 
1

>  <s_lp_Variant>  (231) 
69:0-1

>  <s_i_glide_gridfile>  (231) 
pfpi4k_grid

>  <i_i_glide_lignum>  (231) 
23

>  <i_i_glide_rotatable_bonds>  (231) 
3

>  <r_i_docking_score>  (231) 
-3.34521

>  <r_i_glide_ligand_efficiency>  (231) 
-0.139384

>  <r_i_glide_ligand_efficiency_sa>  (231) 
-0.402053

>  <r_i_glide_ligand_efficiency_ln>  (231) 
-0.800663

>  <r_i_glide_gscore>  (231) 
-3.34521

>  <r_i_glide_lipo>  (231) 
-0.255943

>  <r_i_glide_hbond>  (231) 
-0.0394754

>  <r_i_glide_metal>  (231) 
-0

>  <r_i_glide_rewards>  (231) 
-1.16983

>  <r_i_glide_evdw>  (231) 
-21.4512

>  <r_i_glide_ecoul>  (231) 
-5.1232

>  <r_i_glide_erotb>  (231) 
0

>  <r_i_glide_esite>  (231) 
-0.0389302

>  <r_i_glide_emodel>  (231) 
-32.8321

>  <r_i_glide_energy>  (231) 
-26.5744

>  <r_i_glide_einternal>  (231) 
0.447567

>  <r_i_glide_intrahb_reward>  (231) 
-0

>  <i_i_glide_confnum>  (231) 
2

>  <i_i_glide_posenum>  (231) 
18

>  <r_i_glide_eff_state_penalty>  (231) 
0

>  <ligand_id>  (231) 
69

>  <original_smiles>  (231) 
COc1ccc2c(c1)C1C3C(C=CC4(CCN(C)CC34O)C1O)C2

>  <smiles>  (231) 
[H]OC1([H])C2([H])c3c([H])c(OC([H])([H])[H])c([H])c([H])c3C([H])([H])C3([H])C([H])=C([H])C14C([H])([H])C([H])([H])[N+]([H])(C([H])([H])[H])C([H])([H])C4(O[H])C32[H]

$$$$
69:0:2
     RDKit          3D

 50 54  0  0  1  0  0  0  0  0999 V2000
    2.3478   -8.3045    3.0458 C   0  0  0  0  0  0  0  0  0  0  0  0
    1.7058   -7.0296    2.9230 O   0  0  0  0  0  0  0  0  0  0  0  0
    2.3169   -5.9514    3.5377 C   0  0  0  0  0  0  0  0  0  0  0  0
    3.5172   -6.0626    4.2803 C   0  0  0  0  0  0  0  0  0  0  0  0
    4.0751   -4.9395    4.8997 C   0  0  0  0  0  0  0  0  0  0  0  0
    3.4663   -3.6834    4.7803 C   0  0  0  0  0  0  0  0  0  0  0  0
    2.2909   -3.5259    4.0138 C   0  0  0  0  0  0  0  0  0  0  0  0
    1.7090   -4.6791    3.4209 C   0  0  0  0  0  0  0  0  0  0  0  0
    1.6217   -2.1522    3.8507 C   0  0  1  0  0  0  0  0  0  0  0  0
    2.1872   -1.0110    4.7552 C   0  0  1  0  0  0  0  0  0  0  0  0
    3.7245   -1.1584    4.9498 C   0  0  2  0  0  0  0  0  0  0  0  0
    4.4827   -0.8341    3.6646 C   0  0  0  0  0  0  0  0  0  0  0  0
    3.8507   -0.3716    2.5686 C   0  0  0  0  0  0  0  0  0  0  0  0
    2.3338   -0.1528    2.5584 C   0  0  2  0  0  0  0  0  0  0  0  0
    1.9084    0.8887    1.4975 C   0  0  0  0  0  0  0  0  0  0  0  0
    0.4198    1.3062    1.6002 C   0  0  0  0  0  0  0  0  0  0  0  0
    0.0703    1.7535    2.9717 N   0  0  1  0  0  0  0  0  0  0  0  0
   -1.3266    2.2313    3.0564 C   0  0  0  0  0  0  0  0  0  0  0  0
    0.3748    0.7101    3.9922 C   0  0  0  0  0  0  0  0  0  0  0  0
    1.8708    0.2876    3.9664 C   0  0  1  0  0  0  0  0  0  0  0  0
    2.5791    1.4068    4.4919 O   0  0  0  0  0  0  0  0  0  0  0  0
    1.6460   -1.5404    2.4129 C   0  0  1  0  0  0  0  0  0  0  0  0
    2.2337   -2.3252    1.3911 O   0  0  0  0  0  0  0  0  0  0  0  0
    4.0931   -2.5265    5.5252 C   0  0  0  0  0  0  0  0  0  0  0  0
    1.8071   -9.1006    2.5271 H   0  0  0  0  0  0  0  0  0  0  0  0
    2.4246   -8.6004    4.0955 H   0  0  0  0  0  0  0  0  0  0  0  0
    3.3539   -8.2719    2.6197 H   0  0  0  0  0  0  0  0  0  0  0  0
    4.0452   -6.9929    4.4073 H   0  0  0  0  0  0  0  0  0  0  0  0
    4.9780   -5.0671    5.4748 H   0  0  0  0  0  0  0  0  0  0  0  0
    0.7892   -4.5749    2.8685 H   0  0  0  0  0  0  0  0  0  0  0  0
    0.5750   -2.2955    4.1239 H   0  0  0  0  0  0  0  0  0  0  0  0
    1.7051   -1.0112    5.7329 H   0  0  0  0  0  0  0  0  0  0  0  0
    4.0625   -0.4075    5.6675 H   0  0  0  0  0  0  0  0  0  0  0  0
    5.5477   -0.9926    3.6677 H   0  0  0  0  0  0  0  0  0  0  0  0
    4.3971   -0.1511    1.6612 H   0  0  0  0  0  0  0  0  0  0  0  0
    2.5396    1.7755    1.6077 H   0  0  0  0  0  0  0  0  0  0  0  0
    2.0898    0.4899    0.4988 H   0  0  0  0  0  0  0  0  0  0  0  0
    0.2199    2.1176    0.8971 H   0  0  0  0  0  0  0  0  0  0  0  0
   -0.2232    0.4764    1.2989 H   0  0  0  0  0  0  0  0  0  0  0  0
   -2.0269    1.4217    2.8390 H   0  0  0  0  0  0  0  0  0  0  0  0
   -1.5005    3.0446    2.3452 H   0  0  0  0  0  0  0  0  0  0  0  0
   -1.5384    2.6151    4.0578 H   0  0  0  0  0  0  0  0  0  0  0  0
    0.1322    1.0989    4.9830 H   0  0  0  0  0  0  0  0  0  0  0  0
   -0.2871   -0.1412    3.8274 H   0  0  0  0  0  0  0  0  0  0  0  0
    2.5365    2.1312    3.8880 H   0  0  0  0  0  0  0  0  0  0  0  0
    0.6140   -1.4115    2.1021 H   0  0  0  0  0  0  0  0  0  0  0  0
    2.0524   -1.8981    0.5618 H   0  0  0  0  0  0  0  0  0  0  0  0
    3.7214   -2.5829    6.5478 H   0  0  0  0  0  0  0  0  0  0  0  0
    5.1727   -2.6506    5.5845 H   0  0  0  0  0  0  0  0  0  0  0  0
    0.6491    2.5626    3.1557 H   0  0  0  0  0  0  0  0  0  0  0  0
  1  2  1  0
  1 25  1  0
  1 26  1  0
  1 27  1  0
  2  3  1  0
  3  8  2  0
  3  4  1  0
  4  5  2  0
  4 28  1  0
  5  6  1  0
  5 29  1  0
  6 24  1  0
  6  7  2  0
  7  8  1  0
  7  9  1  0
  8 30  1  0
  9 22  1  0
  9 10  1  0
  9 31  1  1
 10 20  1  0
 10 11  1  0
 10 32  1  1
 11 12  1  0
 11 24  1  0
 11 33  1  1
 12 13  2  0
 12 34  1  0
 13 14  1  0
 13 35  1  0
 14 20  1  0
 14 15  1  6
 14 22  1  0
 15 16  1  0
 15 36  1  0
 15 37  1  0
 16 17  1  0
 16 38  1  0
 16 39  1  0
 17 18  1  0
 17 19  1  0
 17 50  1  1
 18 40  1  0
 18 41  1  0
 18 42  1  0
 19 20  1  0
 19 43  1  0
 19 44  1  0
 20 21  1  1
 21 45  1  0
 22 23  1  0
 22 46  1  6
 23 47  1  0
 24 48  1  0
 24 49  1  0
M  CHG  1  17   1
M  END
>  <i_m_ct_stereo_status>  (232) 
1

>  <s_m_source_file>  (232) 
/var/tmp/pbs.5076255.sched01/tmpnx1894nc/68p53si2vm.sdf

>  <i_m_source_file_index>  (232) 
23

>  <i_lp_mmshare_version>  (232) 
48012

>  <i_f3d_flags>  (232) 
0

>  <s_epik_input>  (232) 
W0NIM11PYyhbY0hdMSlbY0hdW2NIXWMoW0NIMl1bQ0BIXTJbQ0hdPVtDSF0zKWMxW0NASF0oW0NAQEhdNFtPSF0pW0NAQEhdMltDQF0oW0NAQF0zNDUpKFtPSF0pW0NIMl1OKFtDSDNdKVtDSDJdW0NIMl01

>  <s_epik_cmdline>  (232) 
J2VwaWtfcHl0aG9uJywgJy1waHQnLCAnMi4wJywgJy1waCcsICc3LjAnLCAnLXRuJywgJzgnLCAnLW1hJywgJzIwMCcsICctaW1hZScsICc8aW5maWxlLm1hZT4nLCAnLW9tYWUnLCAnPG91dGZpbGUubWFlPic=

>  <r_lp_tautomer_probability>  (232) 
1

>  <r_epik_Ionization_Penalty>  (232) 
0.0134879

>  <r_epik_Ionization_Penalty_Charging>  (232) 
0.0134878

>  <r_epik_Ionization_Penalty_Neutral>  (232) 
8.82513e-08

>  <r_epik_State_Penalty>  (232) 
0.0104997

>  <r_epik_Charging_Adjusted_Penalty>  (232) 
0.0239876

>  <i_epik_Tot_Q>  (232) 
1

>  <i_epik_Tot_abs_Q>  (232) 
1

>  <s_lp_Force_Field>  (232) 
OPLS3e

>  <r_lp_Energy>  (232) 
57.0496

>  <b_lp_Chiralities_Consistent>  (232) 
1

>  <s_lp_Variant>  (232) 
69:0-1

>  <s_i_glide_gridfile>  (232) 
pfpi4k_grid

>  <i_i_glide_lignum>  (232) 
23

>  <i_i_glide_rotatable_bonds>  (232) 
3

>  <r_i_docking_score>  (232) 
-3.13582

>  <r_i_glide_ligand_efficiency>  (232) 
-0.130659

>  <r_i_glide_ligand_efficiency_sa>  (232) 
-0.376887

>  <r_i_glide_ligand_efficiency_ln>  (232) 
-0.750547

>  <r_i_glide_gscore>  (232) 
-3.13582

>  <r_i_glide_lipo>  (232) 
-0.0961786

>  <r_i_glide_hbond>  (232) 
-0.132738

>  <r_i_glide_metal>  (232) 
-0

>  <r_i_glide_rewards>  (232) 
-1.16983

>  <r_i_glide_evdw>  (232) 
-15.0616

>  <r_i_glide_ecoul>  (232) 
-6.20252

>  <r_i_glide_erotb>  (232) 
0

>  <r_i_glide_esite>  (232) 
-0.0536207

>  <r_i_glide_emodel>  (232) 
-25.4866

>  <r_i_glide_energy>  (232) 
-21.2642

>  <r_i_glide_einternal>  (232) 
3.4339

>  <r_i_glide_intrahb_reward>  (232) 
-0

>  <i_i_glide_confnum>  (232) 
1

>  <i_i_glide_posenum>  (232) 
28

>  <r_i_glide_eff_state_penalty>  (232) 
0

>  <ligand_id>  (232) 
69

>  <original_smiles>  (232) 
COc1ccc2c(c1)C1C3C(C=CC4(CCN(C)CC34O)C1O)C2

>  <smiles>  (232) 
[H]OC1([H])C2([H])c3c([H])c(OC([H])([H])[H])c([H])c([H])c3C([H])([H])C3([H])C([H])=C([H])C14C([H])([H])C([H])([H])[N+]([H])(C([H])([H])[H])C([H])([H])C4(O[H])C32[H]

$$$$
69:1:0
     RDKit          3D

 49 53  0  0  1  0  0  0  0  0999 V2000
    0.0724   -3.4838    5.4616 C   0  0  0  0  0  0  0  0  0  0  0  0
    0.3790   -3.1116    4.1292 O   0  0  0  0  0  0  0  0  0  0  0  0
    1.6951   -3.1508    3.7299 C   0  0  0  0  0  0  0  0  0  0  0  0
    2.7496   -3.6753    4.5160 C   0  0  0  0  0  0  0  0  0  0  0  0
    4.0689   -3.6405    4.0303 C   0  0  0  0  0  0  0  0  0  0  0  0
    4.3468   -3.1134    2.7575 C   0  0  0  0  0  0  0  0  0  0  0  0
    3.3036   -2.6387    1.9383 C   0  0  0  0  0  0  0  0  0  0  0  0
    1.9920   -2.6331    2.4562 C   0  0  0  0  0  0  0  0  0  0  0  0
    3.5618   -2.0887    0.5276 C   0  0  1  0  0  0  0  0  0  0  0  0
    5.0559   -1.8607    0.1577 C   0  0  1  0  0  0  0  0  0  0  0  0
    5.9574   -2.9570    0.7841 C   0  0  2  0  0  0  0  0  0  0  0  0
    5.7628   -4.3077    0.1068 C   0  0  0  0  0  0  0  0  0  0  0  0
    4.9700   -4.4476   -0.9732 C   0  0  0  0  0  0  0  0  0  0  0  0
    4.2186   -3.2498   -1.5684 C   0  0  2  0  0  0  0  0  0  0  0  0
    3.8561   -3.4446   -3.0646 C   0  0  0  0  0  0  0  0  0  0  0  0
    3.3236   -2.1636   -3.7240 C   0  0  0  0  0  0  0  0  0  0  0  0
    4.2164   -1.0261   -3.5552 N   0  0  0  0  0  0  0  0  0  0  0  0
    3.6852    0.1577   -4.2196 C   0  0  0  0  0  0  0  0  0  0  0  0
    4.4774   -0.7712   -2.1365 C   0  0  0  0  0  0  0  0  0  0  0  0
    5.0819   -1.9802   -1.3803 C   0  0  1  0  0  0  0  0  0  0  0  0
    6.4126   -2.1328   -1.8648 O   0  0  0  0  0  0  0  0  0  0  0  0
    3.0027   -2.9509   -0.6556 C   0  0  1  0  0  0  0  0  0  0  0  0
    2.3016   -4.1349   -0.3071 O   0  0  0  0  0  0  0  0  0  0  0  0
    5.7828   -3.0528    2.2969 C   0  0  0  0  0  0  0  0  0  0  0  0
   -0.9990   -3.3952    5.6225 H   0  0  0  0  0  0  0  0  0  0  0  0
    0.5568   -2.8157    6.1714 H   0  0  0  0  0  0  0  0  0  0  0  0
    0.3434   -4.5186    5.6745 H   0  0  0  0  0  0  0  0  0  0  0  0
    2.5676   -4.0988    5.4930 H   0  0  0  0  0  0  0  0  0  0  0  0
    4.8656   -4.0133    4.6581 H   0  0  0  0  0  0  0  0  0  0  0  0
    1.2020   -2.2344    1.8458 H   0  0  0  0  0  0  0  0  0  0  0  0
    3.0565   -1.1218    0.4926 H   0  0  0  0  0  0  0  0  0  0  0  0
    5.3976   -0.8810    0.4913 H   0  0  0  0  0  0  0  0  0  0  0  0
    7.0017   -2.7090    0.5956 H   0  0  0  0  0  0  0  0  0  0  0  0
    6.2737   -5.1560    0.5336 H   0  0  0  0  0  0  0  0  0  0  0  0
    4.8131   -5.4139   -1.4367 H   0  0  0  0  0  0  0  0  0  0  0  0
    4.7415   -3.7927   -3.6004 H   0  0  0  0  0  0  0  0  0  0  0  0
    3.0861   -4.1995   -3.2119 H   0  0  0  0  0  0  0  0  0  0  0  0
    3.1936   -2.3745   -4.7824 H   0  0  0  0  0  0  0  0  0  0  0  0
    2.3304   -1.9198   -3.3383 H   0  0  0  0  0  0  0  0  0  0  0  0
    4.3527    1.0112   -4.1072 H   0  0  0  0  0  0  0  0  0  0  0  0
    2.7230    0.4464   -3.7990 H   0  0  0  0  0  0  0  0  0  0  0  0
    3.5478   -0.0168   -5.2850 H   0  0  0  0  0  0  0  0  0  0  0  0
    5.1479    0.0811   -2.0403 H   0  0  0  0  0  0  0  0  0  0  0  0
    3.5388   -0.4976   -1.6672 H   0  0  0  0  0  0  0  0  0  0  0  0
    6.6786   -3.0274   -1.6906 H   0  0  0  0  0  0  0  0  0  0  0  0
    2.2998   -2.3400   -1.2174 H   0  0  0  0  0  0  0  0  0  0  0  0
    2.2642   -4.6784   -1.0847 H   0  0  0  0  0  0  0  0  0  0  0  0
    6.2163   -2.1589    2.7444 H   0  0  0  0  0  0  0  0  0  0  0  0
    6.2976   -3.9300    2.6752 H   0  0  0  0  0  0  0  0  0  0  0  0
  1  2  1  0
  1 25  1  0
  1 26  1  0
  1 27  1  0
  2  3  1  0
  3  8  2  0
  3  4  1  0
  4  5  2  0
  4 28  1  0
  5  6  1  0
  5 29  1  0
  6 24  1  0
  6  7  2  0
  7  8  1  0
  7  9  1  0
  8 30  1  0
  9 22  1  0
  9 10  1  0
  9 31  1  1
 10 20  1  0
 10 11  1  0
 10 32  1  6
 11 12  1  0
 11 24  1  0
 11 33  1  1
 12 13  2  0
 12 34  1  0
 13 14  1  0
 13 35  1  0
 14 20  1  0
 14 15  1  6
 14 22  1  0
 15 16  1  0
 15 36  1  0
 15 37  1  0
 16 17  1  0
 16 38  1  0
 16 39  1  0
 17 18  1  0
 17 19  1  0
 18 40  1  0
 18 41  1  0
 18 42  1  0
 19 20  1  0
 19 43  1  0
 19 44  1  0
 20 21  1  6
 21 45  1  0
 22 23  1  0
 22 46  1  6
 23 47  1  0
 24 48  1  0
 24 49  1  0
M  END
>  <i_m_ct_stereo_status>  (233) 
1

>  <s_m_source_file>  (233) 
/var/tmp/pbs.5076255.sched01/tmpnx1894nc/68p53si2vm.sdf

>  <i_m_source_file_index>  (233) 
24

>  <i_lp_mmshare_version>  (233) 
48012

>  <i_f3d_flags>  (233) 
0

>  <s_epik_input>  (233) 
W0NIM11PYyhbY0hdMSlbY0hdW2NIXWMoW0NIMl1bQ0BIXTJbQ0hdPVtDSF0zKWMxW0NASF0oW0NAQEhdNFtPSF0pW0NAQEhdMltDQF0oW0NAQF0zNDUpKFtPSF0pW0NIMl1OKFtDSDNdKVtDSDJdW0NIMl01

>  <s_epik_cmdline>  (233) 
J2VwaWtfcHl0aG9uJywgJy1waHQnLCAnMi4wJywgJy1waCcsICc3LjAnLCAnLXRuJywgJzgnLCAnLW1hJywgJzIwMCcsICctaW1hZScsICc8aW5maWxlLm1hZT4nLCAnLW9tYWUnLCAnPG91dGZpbGUubWFlPic=

>  <r_lp_tautomer_probability>  (233) 
1

>  <r_epik_Ionization_Penalty>  (233) 
2.24783

>  <r_epik_Ionization_Penalty_Charging>  (233) 
0

>  <r_epik_Ionization_Penalty_Neutral>  (233) 
2.24783

>  <r_epik_State_Penalty>  (233) 
2.39472

>  <r_epik_Charging_Adjusted_Penalty>  (233) 
2.39472

>  <i_epik_Tot_Q>  (233) 
0

>  <i_epik_Tot_abs_Q>  (233) 
0

>  <s_lp_Force_Field>  (233) 
OPLS3e

>  <r_lp_Energy>  (233) 
48.0262

>  <b_lp_Chiralities_Consistent>  (233) 
1

>  <s_lp_Variant>  (233) 
69:0-2

>  <s_i_glide_gridfile>  (233) 
pfpi4k_grid

>  <i_i_glide_lignum>  (233) 
24

>  <i_i_glide_rotatable_bonds>  (233) 
3

>  <r_i_docking_score>  (233) 
-3.95612

>  <r_i_glide_ligand_efficiency>  (233) 
-0.164838

>  <r_i_glide_ligand_efficiency_sa>  (233) 
-0.475476

>  <r_i_glide_ligand_efficiency_ln>  (233) 
-0.94688

>  <r_i_glide_gscore>  (233) 
-3.95612

>  <r_i_glide_lipo>  (233) 
-0.529513

>  <r_i_glide_hbond>  (233) 
-0.351731

>  <r_i_glide_metal>  (233) 
-0

>  <r_i_glide_rewards>  (233) 
-1.1767

>  <r_i_glide_evdw>  (233) 
-18.714

>  <r_i_glide_ecoul>  (233) 
-6.41648

>  <r_i_glide_erotb>  (233) 
0

>  <r_i_glide_esite>  (233) 
0

>  <r_i_glide_emodel>  (233) 
-30.9096

>  <r_i_glide_energy>  (233) 
-25.1305

>  <r_i_glide_einternal>  (233) 
1.17702

>  <r_i_glide_intrahb_reward>  (233) 
-0

>  <i_i_glide_confnum>  (233) 
2

>  <i_i_glide_posenum>  (233) 
12

>  <r_i_glide_eff_state_penalty>  (233) 
0

>  <ligand_id>  (233) 
69

>  <original_smiles>  (233) 
COc1ccc2c(c1)C1C3C(C=CC4(CCN(C)CC34O)C1O)C2

>  <smiles>  (233) 
[H]OC1([H])C2([H])c3c([H])c(OC([H])([H])[H])c([H])c([H])c3C([H])([H])C3([H])C([H])=C([H])C14C([H])([H])C([H])([H])N(C([H])([H])[H])C([H])([H])C4(O[H])C32[H]

$$$$
69:1:1
     RDKit          3D

 49 53  0  0  1  0  0  0  0  0999 V2000
   -0.0874   -2.8490    5.2688 C   0  0  0  0  0  0  0  0  0  0  0  0
    0.2591   -2.5932    3.9161 O   0  0  0  0  0  0  0  0  0  0  0  0
    1.5826   -2.6851    3.5519 C   0  0  0  0  0  0  0  0  0  0  0  0
    2.6114   -3.1829    4.3955 C   0  0  0  0  0  0  0  0  0  0  0  0
    3.9494   -3.2102    3.9365 C   0  0  0  0  0  0  0  0  0  0  0  0
    4.2543   -2.7722    2.6317 C   0  0  0  0  0  0  0  0  0  0  0  0
    3.2412   -2.3337    1.7578 C   0  0  0  0  0  0  0  0  0  0  0  0
    1.9142   -2.2545    2.2431 C   0  0  0  0  0  0  0  0  0  0  0  0
    3.5355   -1.8823    0.3222 C   0  0  1  0  0  0  0  0  0  0  0  0
    5.0366   -1.7222   -0.0308 C   0  0  1  0  0  0  0  0  0  0  0  0
    5.8976   -2.8044    0.6835 C   0  0  2  0  0  0  0  0  0  0  0  0
    5.6699   -4.1974    0.1002 C   0  0  0  0  0  0  0  0  0  0  0  0
    4.8928   -4.3828   -0.9826 C   0  0  0  0  0  0  0  0  0  0  0  0
    4.1928   -3.2058   -1.6708 C   0  0  2  0  0  0  0  0  0  0  0  0
    3.8315   -3.4800   -3.1639 C   0  0  0  0  0  0  0  0  0  0  0  0
    3.3548   -2.2240   -3.9138 C   0  0  0  0  0  0  0  0  0  0  0  0
    4.2647   -1.1050   -3.8014 N   0  0  0  0  0  0  0  0  0  0  0  0
    3.7902    0.0448   -4.5554 C   0  0  0  0  0  0  0  0  0  0  0  0
    4.5215   -0.7755   -2.3970 C   0  0  0  0  0  0  0  0  0  0  0  0
    5.0723   -1.9563   -1.5495 C   0  0  1  0  0  0  0  0  0  0  0  0
    6.3982   -2.2355   -1.9496 O   0  0  0  0  0  0  0  0  0  0  0  0
    2.9861   -2.8162   -0.8011 C   0  0  1  0  0  0  0  0  0  0  0  0
    2.3123   -3.9887   -0.3690 O   0  0  0  0  0  0  0  0  0  0  0  0
    5.7034   -2.7799    2.1964 C   0  0  0  0  0  0  0  0  0  0  0  0
   -1.1628   -2.7262    5.3754 H   0  0  0  0  0  0  0  0  0  0  0  0
    0.3925   -2.1284    5.9308 H   0  0  0  0  0  0  0  0  0  0  0  0
    0.1579   -3.8663    5.5782 H   0  0  0  0  0  0  0  0  0  0  0  0
    2.4025   -3.5430    5.3944 H   0  0  0  0  0  0  0  0  0  0  0  0
    4.7271   -3.5752    4.5955 H   0  0  0  0  0  0  0  0  0  0  0  0
    1.1418   -1.8715    1.5927 H   0  0  0  0  0  0  0  0  0  0  0  0
    3.0587   -0.9092    0.2097 H   0  0  0  0  0  0  0  0  0  0  0  0
    5.4093   -0.7361    0.2439 H   0  0  0  0  0  0  0  0  0  0  0  0
    6.9542   -2.6054    0.4930 H   0  0  0  0  0  0  0  0  0  0  0  0
    6.1611   -5.0279    0.5814 H   0  0  0  0  0  0  0  0  0  0  0  0
    4.7234   -5.3638   -1.4011 H   0  0  0  0  0  0  0  0  0  0  0  0
    4.7119   -3.8967   -3.6654 H   0  0  0  0  0  0  0  0  0  0  0  0
    3.0471   -4.2283   -3.2760 H   0  0  0  0  0  0  0  0  0  0  0  0
    3.2565   -2.5077   -4.9538 H   0  0  0  0  0  0  0  0  0  0  0  0
    2.3584   -1.9464   -3.5842 H   0  0  0  0  0  0  0  0  0  0  0  0
    4.4899    0.8732   -4.5069 H   0  0  0  0  0  0  0  0  0  0  0  0
    2.8387    0.4021   -4.1731 H   0  0  0  0  0  0  0  0  0  0  0  0
    3.6585   -0.2064   -5.6066 H   0  0  0  0  0  0  0  0  0  0  0  0
    5.2170    0.0528   -2.3261 H   0  0  0  0  0  0  0  0  0  0  0  0
    3.6022   -0.4054   -1.9593 H   0  0  0  0  0  0  0  0  0  0  0  0
    6.3492   -2.5158   -2.8503 H   0  0  0  0  0  0  0  0  0  0  0  0
    2.2859   -2.2812   -1.4394 H   0  0  0  0  0  0  0  0  0  0  0  0
    2.1487   -4.4931   -1.1505 H   0  0  0  0  0  0  0  0  0  0  0  0
    6.1487   -1.8608    2.5769 H   0  0  0  0  0  0  0  0  0  0  0  0
    6.2002   -3.6261    2.6638 H   0  0  0  0  0  0  0  0  0  0  0  0
  1  2  1  0
  1 25  1  0
  1 26  1  0
  1 27  1  0
  2  3  1  0
  3  8  2  0
  3  4  1  0
  4  5  2  0
  4 28  1  0
  5  6  1  0
  5 29  1  0
  6 24  1  0
  6  7  2  0
  7  8  1  0
  7  9  1  0
  8 30  1  0
  9 22  1  0
  9 10  1  0
  9 31  1  6
 10 20  1  0
 10 11  1  0
 10 32  1  6
 11 12  1  0
 11 24  1  0
 11 33  1  1
 12 13  2  0
 12 34  1  0
 13 14  1  0
 13 35  1  0
 14 20  1  0
 14 15  1  6
 14 22  1  0
 15 16  1  0
 15 36  1  0
 15 37  1  0
 16 17  1  0
 16 38  1  0
 16 39  1  0
 17 18  1  0
 17 19  1  0
 18 40  1  0
 18 41  1  0
 18 42  1  0
 19 20  1  0
 19 43  1  0
 19 44  1  0
 20 21  1  6
 21 45  1  0
 22 23  1  0
 22 46  1  6
 23 47  1  0
 24 48  1  0
 24 49  1  0
M  END
>  <i_m_ct_stereo_status>  (234) 
1

>  <s_m_source_file>  (234) 
/var/tmp/pbs.5076255.sched01/tmpnx1894nc/68p53si2vm.sdf

>  <i_m_source_file_index>  (234) 
24

>  <i_lp_mmshare_version>  (234) 
48012

>  <i_f3d_flags>  (234) 
0

>  <s_epik_input>  (234) 
W0NIM11PYyhbY0hdMSlbY0hdW2NIXWMoW0NIMl1bQ0BIXTJbQ0hdPVtDSF0zKWMxW0NASF0oW0NAQEhdNFtPSF0pW0NAQEhdMltDQF0oW0NAQF0zNDUpKFtPSF0pW0NIMl1OKFtDSDNdKVtDSDJdW0NIMl01

>  <s_epik_cmdline>  (234) 
J2VwaWtfcHl0aG9uJywgJy1waHQnLCAnMi4wJywgJy1waCcsICc3LjAnLCAnLXRuJywgJzgnLCAnLW1hJywgJzIwMCcsICctaW1hZScsICc8aW5maWxlLm1hZT4nLCAnLW9tYWUnLCAnPG91dGZpbGUubWFlPic=

>  <r_lp_tautomer_probability>  (234) 
1

>  <r_epik_Ionization_Penalty>  (234) 
2.24783

>  <r_epik_Ionization_Penalty_Charging>  (234) 
0

>  <r_epik_Ionization_Penalty_Neutral>  (234) 
2.24783

>  <r_epik_State_Penalty>  (234) 
2.39472

>  <r_epik_Charging_Adjusted_Penalty>  (234) 
2.39472

>  <i_epik_Tot_Q>  (234) 
0

>  <i_epik_Tot_abs_Q>  (234) 
0

>  <s_lp_Force_Field>  (234) 
OPLS3e

>  <r_lp_Energy>  (234) 
48.0262

>  <b_lp_Chiralities_Consistent>  (234) 
1

>  <s_lp_Variant>  (234) 
69:0-2

>  <s_i_glide_gridfile>  (234) 
pfpi4k_grid

>  <i_i_glide_lignum>  (234) 
24

>  <i_i_glide_rotatable_bonds>  (234) 
3

>  <r_i_docking_score>  (234) 
-3.71995

>  <r_i_glide_ligand_efficiency>  (234) 
-0.154998

>  <r_i_glide_ligand_efficiency_sa>  (234) 
-0.447092

>  <r_i_glide_ligand_efficiency_ln>  (234) 
-0.890356

>  <r_i_glide_gscore>  (234) 
-3.71995

>  <r_i_glide_lipo>  (234) 
-0.568223

>  <r_i_glide_hbond>  (234) 
-0.212241

>  <r_i_glide_metal>  (234) 
-0

>  <r_i_glide_rewards>  (234) 
-1.1767

>  <r_i_glide_evdw>  (234) 
-20.8865

>  <r_i_glide_ecoul>  (234) 
-4.78979

>  <r_i_glide_erotb>  (234) 
0

>  <r_i_glide_esite>  (234) 
0

>  <r_i_glide_emodel>  (234) 
-30.8321

>  <r_i_glide_energy>  (234) 
-25.6762

>  <r_i_glide_einternal>  (234) 
1.06785

>  <r_i_glide_intrahb_reward>  (234) 
-0

>  <i_i_glide_confnum>  (234) 
2

>  <i_i_glide_posenum>  (234) 
21

>  <r_i_glide_eff_state_penalty>  (234) 
0

>  <ligand_id>  (234) 
69

>  <original_smiles>  (234) 
COc1ccc2c(c1)C1C3C(C=CC4(CCN(C)CC34O)C1O)C2

>  <smiles>  (234) 
[H]OC1([H])C2([H])c3c([H])c(OC([H])([H])[H])c([H])c([H])c3C([H])([H])C3([H])C([H])=C([H])C14C([H])([H])C([H])([H])N(C([H])([H])[H])C([H])([H])C4(O[H])C32[H]

$$$$
69:1:2
     RDKit          3D

 49 53  0  0  1  0  0  0  0  0999 V2000
    0.3166   -3.4004    5.4420 C   0  0  0  0  0  0  0  0  0  0  0  0
    0.6171   -2.9414    4.1334 O   0  0  0  0  0  0  0  0  0  0  0  0
    1.9186   -3.0369    3.6890 C   0  0  0  0  0  0  0  0  0  0  0  0
    2.9852   -3.5916    4.4403 C   0  0  0  0  0  0  0  0  0  0  0  0
    4.2857   -3.6278    3.9018 C   0  0  0  0  0  0  0  0  0  0  0  0
    4.5383   -3.1357    2.6095 C   0  0  0  0  0  0  0  0  0  0  0  0
    3.4787   -2.6177    1.8329 C   0  0  0  0  0  0  0  0  0  0  0  0
    2.1903   -2.5479    2.3977 C   0  0  0  0  0  0  0  0  0  0  0  0
    3.6957   -2.0896    0.4087 C   0  0  1  0  0  0  0  0  0  0  0  0
    5.1776   -1.9386   -0.0296 C   0  0  1  0  0  0  0  0  0  0  0  0
    6.0596   -3.0733    0.5667 C   0  0  2  0  0  0  0  0  0  0  0  0
    5.7557   -4.4200   -0.0718 C   0  0  0  0  0  0  0  0  0  0  0  0
    4.9025   -4.5289   -1.1037 C   0  0  0  0  0  0  0  0  0  0  0  0
    4.1872   -3.3053   -1.6934 C   0  0  2  0  0  0  0  0  0  0  0  0
    3.7453   -3.4960   -3.1706 C   0  0  0  0  0  0  0  0  0  0  0  0
    3.2592   -2.2005   -3.8306 C   0  0  0  0  0  0  0  0  0  0  0  0
    4.2138   -1.1078   -3.7162 N   0  0  0  0  0  0  0  0  0  0  0  0
    3.7148    0.0913   -4.3780 C   0  0  0  0  0  0  0  0  0  0  0  0
    4.5503   -0.8434   -2.3128 C   0  0  0  0  0  0  0  0  0  0  0  0
    5.1200   -2.0738   -1.5607 C   0  0  1  0  0  0  0  0  0  0  0  0
    6.4374   -2.2667   -2.0539 O   0  0  0  0  0  0  0  0  0  0  0  0
    3.0302   -2.9263   -0.7326 C   0  0  1  0  0  0  0  0  0  0  0  0
    2.2549   -4.0482   -0.3260 O   0  0  0  0  0  0  0  0  0  0  0  0
    5.9593   -3.1357    2.0827 C   0  0  0  0  0  0  0  0  0  0  0  0
   -0.7453   -3.2492    5.6380 H   0  0  0  0  0  0  0  0  0  0  0  0
    0.8696   -2.8474    6.2002 H   0  0  0  0  0  0  0  0  0  0  0  0
    0.5179   -4.4676    5.5496 H   0  0  0  0  0  0  0  0  0  0  0  0
    2.8258   -3.9896    5.4335 H   0  0  0  0  0  0  0  0  0  0  0  0
    5.0925   -4.0322    4.5007 H   0  0  0  0  0  0  0  0  0  0  0  0
    1.3914   -2.1220    1.8103 H   0  0  0  0  0  0  0  0  0  0  0  0
    3.2446   -1.0963    0.3859 H   0  0  0  0  0  0  0  0  0  0  0  0
    5.5862   -0.9763    0.2732 H   0  0  0  0  0  0  0  0  0  0  0  0
    7.1062   -2.8870    0.3240 H   0  0  0  0  0  0  0  0  0  0  0  0
    6.2413   -5.2929    0.3363 H   0  0  0  0  0  0  0  0  0  0  0  0
    4.6844   -5.5007   -1.5203 H   0  0  0  0  0  0  0  0  0  0  0  0
    4.5752   -3.9111   -3.7445 H   0  0  0  0  0  0  0  0  0  0  0  0
    2.9167   -4.2007   -3.2664 H   0  0  0  0  0  0  0  0  0  0  0  0
    3.0806   -2.4218   -4.8791 H   0  0  0  0  0  0  0  0  0  0  0  0
    2.2936   -1.9054   -3.4152 H   0  0  0  0  0  0  0  0  0  0  0  0
    4.4342    0.9065   -4.3147 H   0  0  0  0  0  0  0  0  0  0  0  0
    2.7909    0.4404   -3.9176 H   0  0  0  0  0  0  0  0  0  0  0  0
    3.5175   -0.0956   -5.4315 H   0  0  0  0  0  0  0  0  0  0  0  0
    5.2766   -0.0356   -2.2644 H   0  0  0  0  0  0  0  0  0  0  0  0
    3.6579   -0.4861   -1.8071 H   0  0  0  0  0  0  0  0  0  0  0  0
    6.6901   -3.1627   -1.8702 H   0  0  0  0  0  0  0  0  0  0  0  0
    2.3441   -2.2700   -1.2619 H   0  0  0  0  0  0  0  0  0  0  0  0
    2.8556   -4.7674   -0.1728 H   0  0  0  0  0  0  0  0  0  0  0  0
    6.4233   -2.2340    2.4757 H   0  0  0  0  0  0  0  0  0  0  0  0
    6.5150   -3.9956    2.4579 H   0  0  0  0  0  0  0  0  0  0  0  0
  1  2  1  0
  1 25  1  0
  1 26  1  0
  1 27  1  0
  2  3  1  0
  3  8  2  0
  3  4  1  0
  4  5  2  0
  4 28  1  0
  5  6  1  0
  5 29  1  0
  6 24  1  0
  6  7  2  0
  7  8  1  0
  7  9  1  0
  8 30  1  0
  9 22  1  0
  9 10  1  0
  9 31  1  1
 10 20  1  0
 10 11  1  0
 10 32  1  6
 11 12  1  0
 11 24  1  0
 11 33  1  1
 12 13  2  0
 12 34  1  0
 13 14  1  0
 13 35  1  0
 14 20  1  0
 14 15  1  6
 14 22  1  0
 15 16  1  0
 15 36  1  0
 15 37  1  0
 16 17  1  0
 16 38  1  0
 16 39  1  0
 17 18  1  0
 17 19  1  0
 18 40  1  0
 18 41  1  0
 18 42  1  0
 19 20  1  0
 19 43  1  0
 19 44  1  0
 20 21  1  6
 21 45  1  0
 22 23  1  0
 22 46  1  6
 23 47  1  0
 24 48  1  0
 24 49  1  0
M  END
>  <i_m_ct_stereo_status>  (235) 
1

>  <s_m_source_file>  (235) 
/var/tmp/pbs.5076255.sched01/tmpnx1894nc/68p53si2vm.sdf

>  <i_m_source_file_index>  (235) 
24

>  <i_lp_mmshare_version>  (235) 
48012

>  <i_f3d_flags>  (235) 
0

>  <s_epik_input>  (235) 
W0NIM11PYyhbY0hdMSlbY0hdW2NIXWMoW0NIMl1bQ0BIXTJbQ0hdPVtDSF0zKWMxW0NASF0oW0NAQEhdNFtPSF0pW0NAQEhdMltDQF0oW0NAQF0zNDUpKFtPSF0pW0NIMl1OKFtDSDNdKVtDSDJdW0NIMl01

>  <s_epik_cmdline>  (235) 
J2VwaWtfcHl0aG9uJywgJy1waHQnLCAnMi4wJywgJy1waCcsICc3LjAnLCAnLXRuJywgJzgnLCAnLW1hJywgJzIwMCcsICctaW1hZScsICc8aW5maWxlLm1hZT4nLCAnLW9tYWUnLCAnPG91dGZpbGUubWFlPic=

>  <r_lp_tautomer_probability>  (235) 
1

>  <r_epik_Ionization_Penalty>  (235) 
2.24783

>  <r_epik_Ionization_Penalty_Charging>  (235) 
0

>  <r_epik_Ionization_Penalty_Neutral>  (235) 
2.24783

>  <r_epik_State_Penalty>  (235) 
2.39472

>  <r_epik_Charging_Adjusted_Penalty>  (235) 
2.39472

>  <i_epik_Tot_Q>  (235) 
0

>  <i_epik_Tot_abs_Q>  (235) 
0

>  <s_lp_Force_Field>  (235) 
OPLS3e

>  <r_lp_Energy>  (235) 
48.0262

>  <b_lp_Chiralities_Consistent>  (235) 
1

>  <s_lp_Variant>  (235) 
69:0-2

>  <s_i_glide_gridfile>  (235) 
pfpi4k_grid

>  <i_i_glide_lignum>  (235) 
24

>  <i_i_glide_rotatable_bonds>  (235) 
3

>  <r_i_docking_score>  (235) 
-3.4329

>  <r_i_glide_ligand_efficiency>  (235) 
-0.143037

>  <r_i_glide_ligand_efficiency_sa>  (235) 
-0.412591

>  <r_i_glide_ligand_efficiency_ln>  (235) 
-0.82165

>  <r_i_glide_gscore>  (235) 
-3.4329

>  <r_i_glide_lipo>  (235) 
-0.551928

>  <r_i_glide_hbond>  (235) 
-0.114247

>  <r_i_glide_metal>  (235) 
-0

>  <r_i_glide_rewards>  (235) 
-1.1767

>  <r_i_glide_evdw>  (235) 
-18.7259

>  <r_i_glide_ecoul>  (235) 
-4.35818

>  <r_i_glide_erotb>  (235) 
0

>  <r_i_glide_esite>  (235) 
0

>  <r_i_glide_emodel>  (235) 
-28.2942

>  <r_i_glide_energy>  (235) 
-23.0841

>  <r_i_glide_einternal>  (235) 
0.539811

>  <r_i_glide_intrahb_reward>  (235) 
-0

>  <i_i_glide_confnum>  (235) 
2

>  <i_i_glide_posenum>  (235) 
1

>  <r_i_glide_eff_state_penalty>  (235) 
0

>  <ligand_id>  (235) 
69

>  <original_smiles>  (235) 
COc1ccc2c(c1)C1C3C(C=CC4(CCN(C)CC34O)C1O)C2

>  <smiles>  (235) 
[H]OC1([H])C2([H])c3c([H])c(OC([H])([H])[H])c([H])c([H])c3C([H])([H])C3([H])C([H])=C([H])C14C([H])([H])C([H])([H])N(C([H])([H])[H])C([H])([H])C4(O[H])C32[H]

$$$$
70:0:0
     RDKit          3D

 65 71  0  0  1  0  0  0  0  0999 V2000
    4.2973   -9.8320    1.6747 C   0  0  0  0  0  0  0  0  0  0  0  0
    4.2684   -8.5149    2.1957 O   0  0  0  0  0  0  0  0  0  0  0  0
    3.1160   -7.8240    2.1890 C   0  0  0  0  0  0  0  0  0  0  0  0
    2.0573   -8.2287    1.7081 O   0  0  0  0  0  0  0  0  0  0  0  0
    3.2763   -6.4153    2.8211 C   0  0  2  0  0  0  0  0  0  0  0  0
    3.7026   -6.5378    4.3180 C   0  0  0  0  0  0  0  0  0  0  0  0
    2.5792   -6.8840    5.1958 N   0  0  0  0  0  0  0  0  0  0  0  0
    2.9883   -7.1281    6.5742 C   0  0  0  0  0  0  0  0  0  0  0  0
    1.4169   -5.9700    5.0539 C   0  0  1  0  0  0  0  0  0  0  0  0
    1.7208   -4.4953    5.4993 C   0  0  0  0  0  0  0  0  0  0  0  0
    1.6265   -3.4164    4.3706 C   0  0  2  0  0  0  0  0  0  0  0  0
    2.3302   -3.9308    3.0229 C   0  0  1  0  0  0  0  0  0  0  0  0
    3.7556   -3.7052    2.8381 O   0  0  0  0  0  0  0  0  0  0  0  0
    4.0996   -2.4188    2.4771 C   0  0  0  0  0  0  0  0  0  0  0  0
    4.5171   -2.0914    1.1700 C   0  0  0  0  0  0  0  0  0  0  0  0
    4.3179   -0.7857    0.6793 C   0  0  0  0  0  0  0  0  0  0  0  0
    3.5231    0.1069    1.4201 C   0  0  0  0  0  0  0  0  0  0  0  0
    3.0812   -0.2268    2.7197 C   0  0  0  0  0  0  0  0  0  0  0  0
    3.7334   -1.3302    3.2866 C   0  0  0  0  0  0  0  0  0  0  0  0
    3.5014   -1.6252    4.7694 C   0  0  1  0  0  0  0  0  0  0  0  0
    4.5961   -2.5811    5.3345 C   0  0  0  0  0  0  0  0  0  0  0  0
    3.2075   -0.5729    5.8905 C   0  0  0  0  0  0  0  0  0  0  0  0
    2.0393   -1.5228    6.2680 C   0  0  0  0  0  0  0  0  0  0  0  0
    1.4505   -1.8287    7.3023 O   0  0  0  0  0  0  0  0  0  0  0  0
    1.9810   -1.9455    4.7843 C   0  0  2  0  0  0  0  0  0  0  0  0
    1.1053   -0.8588    4.0880 C   0  0  0  0  0  0  0  0  0  0  0  0
   -0.2545   -0.6896    4.4367 C   0  0  0  0  0  0  0  0  0  0  0  0
   -0.9955    0.3846    3.9044 C   0  0  0  0  0  0  0  0  0  0  0  0
   -0.3869    1.3012    3.0253 C   0  0  0  0  0  0  0  0  0  0  0  0
    0.9622    1.1427    2.6735 C   0  0  0  0  0  0  0  0  0  0  0  0
    1.7177    0.0715    3.1938 C   0  0  0  0  0  0  0  0  0  0  0  0
    2.0363   -5.4458    2.6416 C   0  0  1  0  0  0  0  0  0  0  0  0
    1.4937   -5.4916    1.3124 O   0  0  0  0  0  0  0  0  0  0  0  0
    2.3364   -5.1195    0.2281 C   0  0  0  0  0  0  0  0  0  0  0  0
    0.9559   -5.9680    3.5978 C   0  0  0  0  0  0  0  0  0  0  0  0
   -0.1734   -6.2882    3.2155 O   0  0  0  0  0  0  0  0  0  0  0  0
    5.3004  -10.2467    1.7676 H   0  0  0  0  0  0  0  0  0  0  0  0
    4.0278   -9.8389    0.6180 H   0  0  0  0  0  0  0  0  0  0  0  0
    3.6087  -10.4862    2.2104 H   0  0  0  0  0  0  0  0  0  0  0  0
    4.1244   -5.9914    2.2839 H   0  0  0  0  0  0  0  0  0  0  0  0
    4.4651   -7.3092    4.4229 H   0  0  0  0  0  0  0  0  0  0  0  0
    4.1875   -5.6275    4.6549 H   0  0  0  0  0  0  0  0  0  0  0  0
    2.1343   -7.4429    7.1750 H   0  0  0  0  0  0  0  0  0  0  0  0
    3.4385   -6.2528    7.0433 H   0  0  0  0  0  0  0  0  0  0  0  0
    3.7202   -7.9369    6.6099 H   0  0  0  0  0  0  0  0  0  0  0  0
    0.6077   -6.3598    5.6764 H   0  0  0  0  0  0  0  0  0  0  0  0
    0.9746   -4.2413    6.2524 H   0  0  0  0  0  0  0  0  0  0  0  0
    2.6712   -4.4227    6.0227 H   0  0  0  0  0  0  0  0  0  0  0  0
    0.5600   -3.3886    4.1384 H   0  0  0  0  0  0  0  0  0  0  0  0
    1.8354   -3.3301    2.2574 H   0  0  0  0  0  0  0  0  0  0  0  0
    4.8745   -2.8569    0.4952 H   0  0  0  0  0  0  0  0  0  0  0  0
    4.5801   -0.5384   -0.3388 H   0  0  0  0  0  0  0  0  0  0  0  0
    3.1077    0.9512    0.8982 H   0  0  0  0  0  0  0  0  0  0  0  0
    4.4731   -2.7572    6.4034 H   0  0  0  0  0  0  0  0  0  0  0  0
    5.5939   -2.1588    5.2060 H   0  0  0  0  0  0  0  0  0  0  0  0
    4.6163   -3.5723    4.9067 H   0  0  0  0  0  0  0  0  0  0  0  0
    3.9907   -0.4899    6.6466 H   0  0  0  0  0  0  0  0  0  0  0  0
    2.8889    0.4164    5.5591 H   0  0  0  0  0  0  0  0  0  0  0  0
   -0.7234   -1.3715    5.1312 H   0  0  0  0  0  0  0  0  0  0  0  0
   -2.0391    0.5112    4.1651 H   0  0  0  0  0  0  0  0  0  0  0  0
   -0.9578    2.1129    2.6024 H   0  0  0  0  0  0  0  0  0  0  0  0
    1.3898    1.8378    1.9678 H   0  0  0  0  0  0  0  0  0  0  0  0
    1.8165   -5.3483   -0.7029 H   0  0  0  0  0  0  0  0  0  0  0  0
    3.2794   -5.6656    0.2141 H   0  0  0  0  0  0  0  0  0  0  0  0
    2.5479   -4.0514    0.2283 H   0  0  0  0  0  0  0  0  0  0  0  0
  1  2  1  0
  1 37  1  0
  1 38  1  0
  1 39  1  0
  2  3  1  0
  3  4  2  0
  3  5  1  0
  5 32  1  0
  5  6  1  0
  5 40  1  6
  6  7  1  0
  6 41  1  0
  6 42  1  0
  7  8  1  0
  7  9  1  0
  8 43  1  0
  8 44  1  0
  8 45  1  0
  9 35  1  0
  9 10  1  0
  9 46  1  1
 10 11  1  0
 10 47  1  0
 10 48  1  0
 11 25  1  0
 11 12  1  0
 11 49  1  6
 12 13  1  0
 12 32  1  0
 12 50  1  6
 13 14  1  0
 14 19  2  0
 14 15  1  0
 15 16  2  0
 15 51  1  0
 16 17  1  0
 16 52  1  0
 17 18  2  0
 17 53  1  0
 18 31  1  0
 18 19  1  0
 19 20  1  0
 20 25  1  0
 20 21  1  1
 20 22  1  0
 21 54  1  0
 21 55  1  0
 21 56  1  0
 22 23  1  0
 22 57  1  0
 22 58  1  0
 23 24  2  0
 25 23  1  1
 25 26  1  0
 26 31  2  0
 26 27  1  0
 27 28  2  0
 27 59  1  0
 28 29  1  0
 28 60  1  0
 29 30  2  0
 29 61  1  0
 30 31  1  0
 30 62  1  0
 32 33  1  6
 32 35  1  0
 33 34  1  0
 34 63  1  0
 34 64  1  0
 34 65  1  0
 35 36  2  0
M  END
>  <i_m_ct_stereo_status>  (236) 
1

>  <s_m_source_file>  (236) 
/var/tmp/pbs.5076255.sched01/tmpnx1894nc/68p53si2vm.sdf

>  <i_m_source_file_index>  (236) 
25

>  <i_lp_mmshare_version>  (236) 
48012

>  <i_f3d_flags>  (236) 
0

>  <s_epik_input>  (236) 
Tz1DMVtDSF0oW0NIMl0yKU4oW0NIM10pW0NIMl1bQ0BASF0oQyg9TylPW0NIM10pW0NAXTEoT1tDSDNdKVtDQEBIXShbQ0BASF0yW0NAXTM0NSlPYzZjKFtDQEBdMyhbQ0gzXSlbQ0gyXUM0PU8pYyhbY0hdW2NIXVtjSF02KWM3YzVbY0hdW2NIXVtjSF1bY0hdNw==

>  <s_epik_cmdline>  (236) 
J2VwaWtfcHl0aG9uJywgJy1waHQnLCAnMi4wJywgJy1waCcsICc3LjAnLCAnLXRuJywgJzgnLCAnLW1hJywgJzIwMCcsICctaW1hZScsICc8aW5maWxlLm1hZT4nLCAnLW9tYWUnLCAnPG91dGZpbGUubWFlPic=

>  <r_lp_tautomer_probability>  (236) 
1

>  <r_epik_Ionization_Penalty>  (236) 
0.00652036

>  <r_epik_Ionization_Penalty_Charging>  (236) 
0

>  <r_epik_Ionization_Penalty_Neutral>  (236) 
0.00652036

>  <r_epik_State_Penalty>  (236) 
0.00482706

>  <r_epik_Charging_Adjusted_Penalty>  (236) 
0.00482706

>  <i_epik_Tot_Q>  (236) 
0

>  <i_epik_Tot_abs_Q>  (236) 
0

>  <s_epik_Chemistry_Notes>  (236) 
This compound has an ester and may undergo hydrolysis at high or low pH.

>  <s_lp_Force_Field>  (236) 
OPLS3e

>  <r_lp_Energy>  (236) 
124.114

>  <b_lp_Chiralities_Consistent>  (236) 
1

>  <s_lp_Variant>  (236) 
70:0-1

>  <s_i_glide_gridfile>  (236) 
pfpi4k_grid

>  <i_i_glide_lignum>  (236) 
25

>  <i_i_glide_rotatable_bonds>  (236) 
3

>  <r_i_docking_score>  (236) 
-2.4634

>  <r_i_glide_ligand_efficiency>  (236) 
-0.0684278

>  <r_i_glide_ligand_efficiency_sa>  (236) 
-0.225944

>  <r_i_glide_ligand_efficiency_ln>  (236) 
-0.537448

>  <r_i_glide_gscore>  (236) 
-2.4634

>  <r_i_glide_lipo>  (236) 
-0.136571

>  <r_i_glide_hbond>  (236) 
-0.23841

>  <r_i_glide_metal>  (236) 
-0

>  <r_i_glide_rewards>  (236) 
-0.0849296

>  <r_i_glide_evdw>  (236) 
-25.4753

>  <r_i_glide_ecoul>  (236) 
-5.24778

>  <r_i_glide_erotb>  (236) 
0.0855288

>  <r_i_glide_esite>  (236) 
-0.0280863

>  <r_i_glide_emodel>  (236) 
-36.0088

>  <r_i_glide_energy>  (236) 
-30.7231

>  <r_i_glide_einternal>  (236) 
0.057875

>  <r_i_glide_intrahb_reward>  (236) 
-0

>  <i_i_glide_confnum>  (236) 
1

>  <i_i_glide_posenum>  (236) 
34

>  <r_i_glide_eff_state_penalty>  (236) 
0

>  <ligand_id>  (236) 
70

>  <original_smiles>  (236) 
COC(=O)C1CN(C)C2CC3C(Oc4cccc5c4C4(C)CC(=O)C34c3ccccc3-5)C1(OC)C2=O

>  <smiles>  (236) 
[H]c1c([H])c([H])c2c(c1[H])-c1c([H])c([H])c([H])c3c1C1(C([H])([H])[H])C([H])([H])C(=O)C21C1([H])C([H])([H])C2([H])C(=O)C(OC([H])([H])[H])(C1([H])O3)C([H])(C(=O)OC([H])([H])[H])C([H])([H])N2C([H])([H])[H]

$$$$
70:0:1
     RDKit          3D

 65 71  0  0  1  0  0  0  0  0999 V2000
    0.8333  -11.7444    2.9733 C   0  0  0  0  0  0  0  0  0  0  0  0
    1.4040  -10.4556    3.0518 O   0  0  0  0  0  0  0  0  0  0  0  0
    0.6091   -9.3799    3.0770 C   0  0  0  0  0  0  0  0  0  0  0  0
   -0.6087   -9.3954    2.8923 O   0  0  0  0  0  0  0  0  0  0  0  0
    1.4179   -8.0780    3.3175 C   0  0  2  0  0  0  0  0  0  0  0  0
    2.2025   -8.1737    4.6652 C   0  0  0  0  0  0  0  0  0  0  0  0
    1.3416   -7.9626    5.8352 N   0  0  0  0  0  0  0  0  0  0  0  0
    2.0350   -8.1849    7.0987 C   0  0  0  0  0  0  0  0  0  0  0  0
    0.5645   -6.6990    5.7705 C   0  0  1  0  0  0  0  0  0  0  0  0
    1.4612   -5.4112    5.8052 C   0  0  0  0  0  0  0  0  0  0  0  0
    1.4047   -4.5163    4.5249 C   0  0  2  0  0  0  0  0  0  0  0  0
    1.4731   -5.4161    3.2011 C   0  0  1  0  0  0  0  0  0  0  0  0
    2.7662   -5.7696    2.6337 O   0  0  0  0  0  0  0  0  0  0  0  0
    3.3867   -4.7601    1.9325 C   0  0  0  0  0  0  0  0  0  0  0  0
    3.4807   -4.7693    0.5266 C   0  0  0  0  0  0  0  0  0  0  0  0
    3.5925   -3.5517   -0.1750 C   0  0  0  0  0  0  0  0  0  0  0  0
    3.4072   -2.3404    0.5197 C   0  0  0  0  0  0  0  0  0  0  0  0
    3.2814   -2.3295    1.9284 C   0  0  0  0  0  0  0  0  0  0  0  0
    3.6615   -3.5270    2.5493 C   0  0  0  0  0  0  0  0  0  0  0  0
    3.7934   -3.5423    4.0740 C   0  0  1  0  0  0  0  0  0  0  0  0
    4.6257   -4.7682    4.5604 C   0  0  0  0  0  0  0  0  0  0  0  0
    4.2160   -2.3331    4.9757 C   0  0  0  0  0  0  0  0  0  0  0  0
    2.9688   -2.7166    5.8129 C   0  0  0  0  0  0  0  0  0  0  0  0
    2.6465   -2.6611    6.9966 O   0  0  0  0  0  0  0  0  0  0  0  0
    2.3332   -3.2515    4.5121 C   0  0  2  0  0  0  0  0  0  0  0  0
    1.7042   -2.0042    3.8235 C   0  0  0  0  0  0  0  0  0  0  0  0
    0.6400   -1.2951    4.4292 C   0  0  0  0  0  0  0  0  0  0  0  0
    0.1758   -0.0888    3.8688 C   0  0  0  0  0  0  0  0  0  0  0  0
    0.7753    0.4250    2.7005 C   0  0  0  0  0  0  0  0  0  0  0  0
    1.8290   -0.2745    2.0887 C   0  0  0  0  0  0  0  0  0  0  0  0
    2.3024   -1.4851    2.6326 C   0  0  0  0  0  0  0  0  0  0  0  0
    0.5855   -6.7306    3.2250 C   0  0  1  0  0  0  0  0  0  0  0  0
   -0.3040   -6.6716    2.0965 O   0  0  0  0  0  0  0  0  0  0  0  0
    0.2433   -6.9140    0.8080 C   0  0  0  0  0  0  0  0  0  0  0  0
   -0.2722   -6.6970    4.4937 C   0  0  0  0  0  0  0  0  0  0  0  0
   -1.5036   -6.6693    4.4629 O   0  0  0  0  0  0  0  0  0  0  0  0
    1.6302  -12.4815    2.9211 H   0  0  0  0  0  0  0  0  0  0  0  0
    0.2157  -11.8596    2.0833 H   0  0  0  0  0  0  0  0  0  0  0  0
    0.2209  -11.9465    3.8527 H   0  0  0  0  0  0  0  0  0  0  0  0
    2.1595   -8.0833    2.5188 H   0  0  0  0  0  0  0  0  0  0  0  0
    2.6638   -9.1560    4.7604 H   0  0  0  0  0  0  0  0  0  0  0  0
    3.0392   -7.4823    4.6714 H   0  0  0  0  0  0  0  0  0  0  0  0
    1.3444   -8.0794    7.9355 H   0  0  0  0  0  0  0  0  0  0  0  0
    2.8705   -7.5003    7.2487 H   0  0  0  0  0  0  0  0  0  0  0  0
    2.4279   -9.2031    7.1337 H   0  0  0  0  0  0  0  0  0  0  0  0
   -0.1066   -6.6733    6.6314 H   0  0  0  0  0  0  0  0  0  0  0  0
    1.1026   -4.8067    6.6384 H   0  0  0  0  0  0  0  0  0  0  0  0
    2.4934   -5.6462    6.0628 H   0  0  0  0  0  0  0  0  0  0  0  0
    0.3887   -4.1141    4.5465 H   0  0  0  0  0  0  0  0  0  0  0  0
    1.0097   -4.7639    2.4611 H   0  0  0  0  0  0  0  0  0  0  0  0
    3.3521   -5.6844   -0.0360 H   0  0  0  0  0  0  0  0  0  0  0  0
    3.6074   -3.5534   -1.2531 H   0  0  0  0  0  0  0  0  0  0  0  0
    3.1598   -1.4674   -0.0630 H   0  0  0  0  0  0  0  0  0  0  0  0
    4.7730   -4.7575    5.6406 H   0  0  0  0  0  0  0  0  0  0  0  0
    5.6218   -4.7750    4.1141 H   0  0  0  0  0  0  0  0  0  0  0  0
    4.1862   -5.7334    4.3671 H   0  0  0  0  0  0  0  0  0  0  0  0
    5.1697   -2.4671    5.4918 H   0  0  0  0  0  0  0  0  0  0  0  0
    4.1640   -1.3414    4.5221 H   0  0  0  0  0  0  0  0  0  0  0  0
    0.2043   -1.6602    5.3490 H   0  0  0  0  0  0  0  0  0  0  0  0
   -0.6368    0.4556    4.3362 H   0  0  0  0  0  0  0  0  0  0  0  0
    0.4111    1.3398    2.2596 H   0  0  0  0  0  0  0  0  0  0  0  0
    2.2334    0.1159    1.1685 H   0  0  0  0  0  0  0  0  0  0  0  0
   -0.5784   -7.0312    0.1007 H   0  0  0  0  0  0  0  0  0  0  0  0
    0.8336   -7.8262    0.7500 H   0  0  0  0  0  0  0  0  0  0  0  0
    0.8616   -6.0819    0.4799 H   0  0  0  0  0  0  0  0  0  0  0  0
  1  2  1  0
  1 37  1  0
  1 38  1  0
  1 39  1  0
  2  3  1  0
  3  4  2  0
  3  5  1  0
  5 32  1  0
  5  6  1  0
  5 40  1  6
  6  7  1  0
  6 41  1  0
  6 42  1  0
  7  8  1  0
  7  9  1  0
  8 43  1  0
  8 44  1  0
  8 45  1  0
  9 35  1  0
  9 10  1  0
  9 46  1  1
 10 11  1  0
 10 47  1  0
 10 48  1  0
 11 25  1  0
 11 12  1  0
 11 49  1  6
 12 13  1  0
 12 32  1  0
 12 50  1  6
 13 14  1  0
 14 19  2  0
 14 15  1  0
 15 16  2  0
 15 51  1  0
 16 17  1  0
 16 52  1  0
 17 18  2  0
 17 53  1  0
 18 31  1  0
 18 19  1  0
 19 20  1  0
 20 25  1  0
 20 21  1  1
 20 22  1  0
 21 54  1  0
 21 55  1  0
 21 56  1  0
 22 23  1  0
 22 57  1  0
 22 58  1  0
 23 24  2  0
 25 23  1  1
 25 26  1  0
 26 31  2  0
 26 27  1  0
 27 28  2  0
 27 59  1  0
 28 29  1  0
 28 60  1  0
 29 30  2  0
 29 61  1  0
 30 31  1  0
 30 62  1  0
 32 33  1  6
 32 35  1  0
 33 34  1  0
 34 63  1  0
 34 64  1  0
 34 65  1  0
 35 36  2  0
M  END
>  <i_m_ct_stereo_status>  (237) 
1

>  <s_m_source_file>  (237) 
/var/tmp/pbs.5076255.sched01/tmpnx1894nc/68p53si2vm.sdf

>  <i_m_source_file_index>  (237) 
25

>  <i_lp_mmshare_version>  (237) 
48012

>  <i_f3d_flags>  (237) 
0

>  <s_epik_input>  (237) 
Tz1DMVtDSF0oW0NIMl0yKU4oW0NIM10pW0NIMl1bQ0BASF0oQyg9TylPW0NIM10pW0NAXTEoT1tDSDNdKVtDQEBIXShbQ0BASF0yW0NAXTM0NSlPYzZjKFtDQEBdMyhbQ0gzXSlbQ0gyXUM0PU8pYyhbY0hdW2NIXVtjSF02KWM3YzVbY0hdW2NIXVtjSF1bY0hdNw==

>  <s_epik_cmdline>  (237) 
J2VwaWtfcHl0aG9uJywgJy1waHQnLCAnMi4wJywgJy1waCcsICc3LjAnLCAnLXRuJywgJzgnLCAnLW1hJywgJzIwMCcsICctaW1hZScsICc8aW5maWxlLm1hZT4nLCAnLW9tYWUnLCAnPG91dGZpbGUubWFlPic=

>  <r_lp_tautomer_probability>  (237) 
1

>  <r_epik_Ionization_Penalty>  (237) 
0.00652036

>  <r_epik_Ionization_Penalty_Charging>  (237) 
0

>  <r_epik_Ionization_Penalty_Neutral>  (237) 
0.00652036

>  <r_epik_State_Penalty>  (237) 
0.00482706

>  <r_epik_Charging_Adjusted_Penalty>  (237) 
0.00482706

>  <i_epik_Tot_Q>  (237) 
0

>  <i_epik_Tot_abs_Q>  (237) 
0

>  <s_epik_Chemistry_Notes>  (237) 
This compound has an ester and may undergo hydrolysis at high or low pH.

>  <s_lp_Force_Field>  (237) 
OPLS3e

>  <r_lp_Energy>  (237) 
124.114

>  <b_lp_Chiralities_Consistent>  (237) 
1

>  <s_lp_Variant>  (237) 
70:0-1

>  <s_i_glide_gridfile>  (237) 
pfpi4k_grid

>  <i_i_glide_lignum>  (237) 
25

>  <i_i_glide_rotatable_bonds>  (237) 
3

>  <r_i_docking_score>  (237) 
-2.24871

>  <r_i_glide_ligand_efficiency>  (237) 
-0.0624643

>  <r_i_glide_ligand_efficiency_sa>  (237) 
-0.206252

>  <r_i_glide_ligand_efficiency_ln>  (237) 
-0.490609

>  <r_i_glide_gscore>  (237) 
-2.24871

>  <r_i_glide_lipo>  (237) 
-0.0622828

>  <r_i_glide_hbond>  (237) 
-0.16

>  <r_i_glide_metal>  (237) 
-0

>  <r_i_glide_rewards>  (237) 
-0.0849296

>  <r_i_glide_evdw>  (237) 
-30.6358

>  <r_i_glide_ecoul>  (237) 
-2.97096

>  <r_i_glide_erotb>  (237) 
0.0855288

>  <r_i_glide_esite>  (237) 
-0.0495963

>  <r_i_glide_emodel>  (237) 
-38.0195

>  <r_i_glide_energy>  (237) 
-33.6068

>  <r_i_glide_einternal>  (237) 
0.614715

>  <r_i_glide_intrahb_reward>  (237) 
-0

>  <i_i_glide_confnum>  (237) 
1

>  <i_i_glide_posenum>  (237) 
31

>  <r_i_glide_eff_state_penalty>  (237) 
0

>  <ligand_id>  (237) 
70

>  <original_smiles>  (237) 
COC(=O)C1CN(C)C2CC3C(Oc4cccc5c4C4(C)CC(=O)C34c3ccccc3-5)C1(OC)C2=O

>  <smiles>  (237) 
[H]c1c([H])c([H])c2c(c1[H])-c1c([H])c([H])c([H])c3c1C1(C([H])([H])[H])C([H])([H])C(=O)C21C1([H])C([H])([H])C2([H])C(=O)C(OC([H])([H])[H])(C1([H])O3)C([H])(C(=O)OC([H])([H])[H])C([H])([H])N2C([H])([H])[H]

$$$$
70:0:2
     RDKit          3D

 65 71  0  0  1  0  0  0  0  0999 V2000
    5.3165   -0.6624   -0.9535 C   0  0  0  0  0  0  0  0  0  0  0  0
    5.1010   -1.6911   -0.0207 O   0  0  0  0  0  0  0  0  0  0  0  0
    4.8903   -1.4077    1.2713 C   0  0  0  0  0  0  0  0  0  0  0  0
    4.9996   -0.2954    1.7807 O   0  0  0  0  0  0  0  0  0  0  0  0
    4.5156   -2.6383    2.1300 C   0  0  2  0  0  0  0  0  0  0  0  0
    5.7061   -3.6220    2.2199 C   0  0  0  0  0  0  0  0  0  0  0  0
    5.8820   -4.4221    1.0031 N   0  0  0  0  0  0  0  0  0  0  0  0
    7.0782   -5.2522    1.0362 C   0  0  0  0  0  0  0  0  0  0  0  0
    4.6431   -5.1245    0.5680 C   0  0  1  0  0  0  0  0  0  0  0  0
    4.1689   -6.2157    1.5873 C   0  0  0  0  0  0  0  0  0  0  0  0
    2.7806   -5.9513    2.2538 C   0  0  2  0  0  0  0  0  0  0  0  0
    2.6315   -4.4213    2.7117 C   0  0  1  0  0  0  0  0  0  0  0  0
    3.1050   -4.0282    4.0312 O   0  0  0  0  0  0  0  0  0  0  0  0
    2.2719   -4.3711    5.0710 C   0  0  0  0  0  0  0  0  0  0  0  0
    1.4853   -3.4214    5.7530 C   0  0  0  0  0  0  0  0  0  0  0  0
    0.2855   -3.8161    6.3776 C   0  0  0  0  0  0  0  0  0  0  0  0
   -0.2130   -5.1135    6.1414 C   0  0  0  0  0  0  0  0  0  0  0  0
    0.5601   -6.0592    5.4295 C   0  0  0  0  0  0  0  0  0  0  0  0
    1.9088   -5.7147    5.2801 C   0  0  0  0  0  0  0  0  0  0  0  0
    2.8707   -6.7765    4.7394 C   0  0  1  0  0  0  0  0  0  0  0  0
    4.3508   -6.3998    5.0369 C   0  0  0  0  0  0  0  0  0  0  0  0
    2.7491   -8.3252    4.9425 C   0  0  0  0  0  0  0  0  0  0  0  0
    2.9759   -8.3922    3.4084 C   0  0  0  0  0  0  0  0  0  0  0  0
    3.5024   -9.1780    2.6267 O   0  0  0  0  0  0  0  0  0  0  0  0
    2.3107   -7.0047    3.3100 C   0  0  2  0  0  0  0  0  0  0  0  0
    0.7793   -7.2818    3.2736 C   0  0  0  0  0  0  0  0  0  0  0  0
    0.1983   -7.9955    2.1964 C   0  0  0  0  0  0  0  0  0  0  0  0
   -1.1572   -8.3781    2.2523 C   0  0  0  0  0  0  0  0  0  0  0  0
   -1.9375   -8.0467    3.3718 C   0  0  0  0  0  0  0  0  0  0  0  0
   -1.3733   -7.3244    4.4336 C   0  0  0  0  0  0  0  0  0  0  0  0
   -0.0202   -6.9450    4.4027 C   0  0  0  0  0  0  0  0  0  0  0  0
    3.1870   -3.3562    1.6781 C   0  0  1  0  0  0  0  0  0  0  0  0
    2.1810   -2.3897    1.3655 O   0  0  0  0  0  0  0  0  0  0  0  0
    1.6900   -1.5471    2.3998 C   0  0  0  0  0  0  0  0  0  0  0  0
    3.5152   -4.1017    0.3804 C   0  0  0  0  0  0  0  0  0  0  0  0
    2.9271   -3.8691   -0.6763 O   0  0  0  0  0  0  0  0  0  0  0  0
    5.4583   -1.0923   -1.9444 H   0  0  0  0  0  0  0  0  0  0  0  0
    6.2071   -0.0976   -0.6823 H   0  0  0  0  0  0  0  0  0  0  0  0
    4.4618    0.0107   -0.9911 H   0  0  0  0  0  0  0  0  0  0  0  0
    4.3652   -2.2190    3.1258 H   0  0  0  0  0  0  0  0  0  0  0  0
    6.6013   -3.0228    2.3749 H   0  0  0  0  0  0  0  0  0  0  0  0
    5.6108   -4.2598    3.0931 H   0  0  0  0  0  0  0  0  0  0  0  0
    7.2069   -5.7716    0.0880 H   0  0  0  0  0  0  0  0  0  0  0  0
    7.0579   -5.9918    1.8372 H   0  0  0  0  0  0  0  0  0  0  0  0
    7.9629   -4.6305    1.1862 H   0  0  0  0  0  0  0  0  0  0  0  0
    4.8467   -5.6039   -0.3951 H   0  0  0  0  0  0  0  0  0  0  0  0
    4.0905   -7.1446    1.0230 H   0  0  0  0  0  0  0  0  0  0  0  0
    4.9268   -6.4168    2.3439 H   0  0  0  0  0  0  0  0  0  0  0  0
    2.0819   -6.0685    1.4202 H   0  0  0  0  0  0  0  0  0  0  0  0
    1.5486   -4.2770    2.7292 H   0  0  0  0  0  0  0  0  0  0  0  0
    1.7329   -2.3688    5.7091 H   0  0  0  0  0  0  0  0  0  0  0  0
   -0.3401   -3.0847    6.8598 H   0  0  0  0  0  0  0  0  0  0  0  0
   -1.2556   -5.2927    6.3472 H   0  0  0  0  0  0  0  0  0  0  0  0
    5.0425   -7.1737    4.7045 H   0  0  0  0  0  0  0  0  0  0  0  0
    4.5196   -6.2755    6.1071 H   0  0  0  0  0  0  0  0  0  0  0  0
    4.7099   -5.5039    4.5534 H   0  0  0  0  0  0  0  0  0  0  0  0
    3.5530   -8.7633    5.5383 H   0  0  0  0  0  0  0  0  0  0  0  0
    1.7816   -8.7064    5.2715 H   0  0  0  0  0  0  0  0  0  0  0  0
    0.8001   -8.2989    1.3508 H   0  0  0  0  0  0  0  0  0  0  0  0
   -1.5937   -8.9495    1.4433 H   0  0  0  0  0  0  0  0  0  0  0  0
   -2.9737   -8.3373    3.4199 H   0  0  0  0  0  0  0  0  0  0  0  0
   -1.9987   -7.0384    5.2557 H   0  0  0  0  0  0  0  0  0  0  0  0
    1.0057   -0.8254    1.9544 H   0  0  0  0  0  0  0  0  0  0  0  0
    2.4786   -0.9810    2.8942 H   0  0  0  0  0  0  0  0  0  0  0  0
    1.1299   -2.1061    3.1474 H   0  0  0  0  0  0  0  0  0  0  0  0
  1  2  1  0
  1 37  1  0
  1 38  1  0
  1 39  1  0
  2  3  1  0
  3  4  2  0
  3  5  1  0
  5 32  1  0
  5  6  1  0
  5 40  1  1
  6  7  1  0
  6 41  1  0
  6 42  1  0
  7  8  1  0
  7  9  1  0
  8 43  1  0
  8 44  1  0
  8 45  1  0
  9 35  1  0
  9 10  1  0
  9 46  1  6
 10 11  1  0
 10 47  1  0
 10 48  1  0
 11 25  1  0
 11 12  1  0
 11 49  1  6
 12 13  1  0
 12 32  1  0
 12 50  1  1
 13 14  1  0
 14 19  2  0
 14 15  1  0
 15 16  2  0
 15 51  1  0
 16 17  1  0
 16 52  1  0
 17 18  2  0
 17 53  1  0
 18 31  1  0
 18 19  1  0
 19 20  1  0
 20 25  1  0
 20 21  1  6
 20 22  1  0
 21 54  1  0
 21 55  1  0
 21 56  1  0
 22 23  1  0
 22 57  1  0
 22 58  1  0
 23 24  2  0
 25 23  1  6
 25 26  1  0
 26 31  2  0
 26 27  1  0
 27 28  2  0
 27 59  1  0
 28 29  1  0
 28 60  1  0
 29 30  2  0
 29 61  1  0
 30 31  1  0
 30 62  1  0
 32 33  1  6
 32 35  1  0
 33 34  1  0
 34 63  1  0
 34 64  1  0
 34 65  1  0
 35 36  2  0
M  END
>  <i_m_ct_stereo_status>  (238) 
1

>  <s_m_source_file>  (238) 
/var/tmp/pbs.5076255.sched01/tmpnx1894nc/68p53si2vm.sdf

>  <i_m_source_file_index>  (238) 
25

>  <i_lp_mmshare_version>  (238) 
48012

>  <i_f3d_flags>  (238) 
0

>  <s_epik_input>  (238) 
Tz1DMVtDSF0oW0NIMl0yKU4oW0NIM10pW0NIMl1bQ0BASF0oQyg9TylPW0NIM10pW0NAXTEoT1tDSDNdKVtDQEBIXShbQ0BASF0yW0NAXTM0NSlPYzZjKFtDQEBdMyhbQ0gzXSlbQ0gyXUM0PU8pYyhbY0hdW2NIXVtjSF02KWM3YzVbY0hdW2NIXVtjSF1bY0hdNw==

>  <s_epik_cmdline>  (238) 
J2VwaWtfcHl0aG9uJywgJy1waHQnLCAnMi4wJywgJy1waCcsICc3LjAnLCAnLXRuJywgJzgnLCAnLW1hJywgJzIwMCcsICctaW1hZScsICc8aW5maWxlLm1hZT4nLCAnLW9tYWUnLCAnPG91dGZpbGUubWFlPic=

>  <r_lp_tautomer_probability>  (238) 
1

>  <r_epik_Ionization_Penalty>  (238) 
0.00652036

>  <r_epik_Ionization_Penalty_Charging>  (238) 
0

>  <r_epik_Ionization_Penalty_Neutral>  (238) 
0.00652036

>  <r_epik_State_Penalty>  (238) 
0.00482706

>  <r_epik_Charging_Adjusted_Penalty>  (238) 
0.00482706

>  <i_epik_Tot_Q>  (238) 
0

>  <i_epik_Tot_abs_Q>  (238) 
0

>  <s_epik_Chemistry_Notes>  (238) 
This compound has an ester and may undergo hydrolysis at high or low pH.

>  <s_lp_Force_Field>  (238) 
OPLS3e

>  <r_lp_Energy>  (238) 
124.114

>  <b_lp_Chiralities_Consistent>  (238) 
1

>  <s_lp_Variant>  (238) 
70:0-1

>  <s_i_glide_gridfile>  (238) 
pfpi4k_grid

>  <i_i_glide_lignum>  (238) 
25

>  <i_i_glide_rotatable_bonds>  (238) 
3

>  <r_i_docking_score>  (238) 
-1.57017

>  <r_i_glide_ligand_efficiency>  (238) 
-0.0436158

>  <r_i_glide_ligand_efficiency_sa>  (238) 
-0.144016

>  <r_i_glide_ligand_efficiency_ln>  (238) 
-0.342568

>  <r_i_glide_gscore>  (238) 
-1.57017

>  <r_i_glide_lipo>  (238) 
-0.273514

>  <r_i_glide_hbond>  (238) 
-0.0808657

>  <r_i_glide_metal>  (238) 
-0

>  <r_i_glide_rewards>  (238) 
-0.164056

>  <r_i_glide_evdw>  (238) 
-28.6645

>  <r_i_glide_ecoul>  (238) 
2.01177

>  <r_i_glide_erotb>  (238) 
0.0855288

>  <r_i_glide_esite>  (238) 
-0.00579883

>  <r_i_glide_emodel>  (238) 
-29.4487

>  <r_i_glide_energy>  (238) 
-26.6528

>  <r_i_glide_einternal>  (238) 
0.842261

>  <r_i_glide_intrahb_reward>  (238) 
-0

>  <i_i_glide_confnum>  (238) 
1

>  <i_i_glide_posenum>  (238) 
33

>  <r_i_glide_eff_state_penalty>  (238) 
0

>  <ligand_id>  (238) 
70

>  <original_smiles>  (238) 
COC(=O)C1CN(C)C2CC3C(Oc4cccc5c4C4(C)CC(=O)C34c3ccccc3-5)C1(OC)C2=O

>  <smiles>  (238) 
[H]c1c([H])c([H])c2c(c1[H])-c1c([H])c([H])c([H])c3c1C1(C([H])([H])[H])C([H])([H])C(=O)C21C1([H])C([H])([H])C2([H])C(=O)C(OC([H])([H])[H])(C1([H])O3)C([H])(C(=O)OC([H])([H])[H])C([H])([H])N2C([H])([H])[H]

$$$$
71:0:0
     RDKit          3D

 12 13  0  0  1  0  0  0  0  0999 V2000
    1.4474  -10.5595    3.2304 C   0  0  0  0  0  0  0  0  0  0  0  0
    2.5145  -10.0463    2.4605 C   0  0  0  0  0  0  0  0  0  0  0  0
    2.4718   -8.8774    1.7819 N   0  0  0  0  0  0  0  0  0  0  0  0
    1.3195   -8.2135    1.8989 N   0  0  0  0  0  0  0  0  0  0  0  0
    1.0755   -7.0184    1.2983 N   0  0  0  0  0  0  0  0  0  0  0  0
   -0.1329   -6.6988    1.6456 N   0  0  0  0  0  0  0  0  0  0  0  0
   -0.7256   -7.6311    2.4755 N   0  0  0  0  0  0  0  0  0  0  0  0
    0.1828   -8.5928    2.6257 C   0  0  0  0  0  0  0  0  0  0  0  0
    0.2467   -9.8263    3.3236 C   0  0  0  0  0  0  0  0  0  0  0  0
    1.5461  -11.5100    3.7373 H   0  0  0  0  0  0  0  0  0  0  0  0
    3.4274  -10.6136    2.3628 H   0  0  0  0  0  0  0  0  0  0  0  0
   -0.5862  -10.1774    3.9099 H   0  0  0  0  0  0  0  0  0  0  0  0
  1  9  2  0
  1  2  1  0
  1 10  1  0
  2  3  2  0
  2 11  1  0
  3  4  1  0
  4  8  1  0
  4  5  1  0
  5  6  2  0
  6  7  1  0
  7  8  2  0
  8  9  1  0
  9 12  1  0
M  END
>  <i_m_ct_stereo_status>  (239) 
1

>  <s_m_source_file>  (239) 
/var/tmp/pbs.5076255.sched01/tmpnx1894nc/68p53si2vm.sdf

>  <i_m_source_file_index>  (239) 
26

>  <i_lp_mmshare_version>  (239) 
48012

>  <i_f3d_flags>  (239) 
0

>  <s_epik_input>  (239) 
bjFbY0hdW2NIXVtjSF1jKG4xMilubm4y

>  <s_epik_cmdline>  (239) 
J2VwaWtfcHl0aG9uJywgJy1waHQnLCAnMi4wJywgJy1waCcsICc3LjAnLCAnLXRuJywgJzgnLCAnLW1hJywgJzIwMCcsICctaW1hZScsICc8aW5maWxlLm1hZT4nLCAnLW9tYWUnLCAnPG91dGZpbGUubWFlPic=

>  <r_lp_tautomer_probability>  (239) 
1

>  <r_epik_Ionization_Penalty>  (239) 
2.20676e-10

>  <r_epik_Ionization_Penalty_Charging>  (239) 
0

>  <r_epik_Ionization_Penalty_Neutral>  (239) 
2.20676e-10

>  <r_epik_State_Penalty>  (239) 
-0

>  <r_epik_Charging_Adjusted_Penalty>  (239) 
0

>  <i_epik_Tot_Q>  (239) 
0

>  <i_epik_Tot_abs_Q>  (239) 
0

>  <s_lp_Force_Field>  (239) 
OPLS3e

>  <r_lp_Energy>  (239) 
12.6859

>  <b_lp_Chiralities_Consistent>  (239) 
1

>  <s_lp_Variant>  (239) 
71:0-1

>  <s_i_glide_gridfile>  (239) 
pfpi4k_grid

>  <i_i_glide_lignum>  (239) 
26

>  <i_i_glide_rotatable_bonds>  (239) 
0

>  <r_i_docking_score>  (239) 
-4.06315

>  <r_i_glide_ligand_efficiency>  (239) 
-0.451461

>  <r_i_glide_ligand_efficiency_sa>  (239) 
-0.939077

>  <r_i_glide_ligand_efficiency_ln>  (239) 
-1.27084

>  <r_i_glide_gscore>  (239) 
-4.06315

>  <r_i_glide_lipo>  (239) 
-0.132604

>  <r_i_glide_hbond>  (239) 
0

>  <r_i_glide_metal>  (239) 
-0

>  <r_i_glide_rewards>  (239) 
-2.25

>  <r_i_glide_evdw>  (239) 
-14.9367

>  <r_i_glide_ecoul>  (239) 
-4.12123

>  <r_i_glide_erotb>  (239) 
0

>  <r_i_glide_esite>  (239) 
-0.315527

>  <r_i_glide_emodel>  (239) 
-25.177

>  <r_i_glide_energy>  (239) 
-19.0579

>  <r_i_glide_einternal>  (239) 
0

>  <r_i_glide_intrahb_reward>  (239) 
-0

>  <i_i_glide_confnum>  (239) 
2

>  <i_i_glide_posenum>  (239) 
6

>  <r_i_glide_eff_state_penalty>  (239) 
0

>  <ligand_id>  (239) 
71

>  <original_smiles>  (239) 
c1cnn2nnnc2c1

>  <smiles>  (239) 
[H]c1nn2nnnc2c([H])c1[H]

$$$$
71:0:1
     RDKit          3D

 12 13  0  0  1  0  0  0  0  0999 V2000
    0.6279  -10.0900    4.2492 C   0  0  0  0  0  0  0  0  0  0  0  0
    1.7974  -10.1951    3.4664 C   0  0  0  0  0  0  0  0  0  0  0  0
    2.1169   -9.3513    2.4579 N   0  0  0  0  0  0  0  0  0  0  0  0
    1.2194   -8.3851    2.2427 N   0  0  0  0  0  0  0  0  0  0  0  0
    1.3561   -7.4302    1.2860 N   0  0  0  0  0  0  0  0  0  0  0  0
    0.2946   -6.6891    1.3785 N   0  0  0  0  0  0  0  0  0  0  0  0
   -0.5610   -7.0919    2.3900 N   0  0  0  0  0  0  0  0  0  0  0  0
    0.0199   -8.1612    2.9316 C   0  0  0  0  0  0  0  0  0  0  0  0
   -0.2934   -9.0535    3.9878 C   0  0  0  0  0  0  0  0  0  0  0  0
    0.4319  -10.8038    5.0387 H   0  0  0  0  0  0  0  0  0  0  0  0
    2.5068  -10.9880    3.6599 H   0  0  0  0  0  0  0  0  0  0  0  0
   -1.2075   -8.9433    4.5560 H   0  0  0  0  0  0  0  0  0  0  0  0
  1  9  2  0
  1  2  1  0
  1 10  1  0
  2  3  2  0
  2 11  1  0
  3  4  1  0
  4  8  1  0
  4  5  1  0
  5  6  2  0
  6  7  1  0
  7  8  2  0
  8  9  1  0
  9 12  1  0
M  END
>  <i_m_ct_stereo_status>  (240) 
1

>  <s_m_source_file>  (240) 
/var/tmp/pbs.5076255.sched01/tmpnx1894nc/68p53si2vm.sdf

>  <i_m_source_file_index>  (240) 
26

>  <i_lp_mmshare_version>  (240) 
48012

>  <i_f3d_flags>  (240) 
0

>  <s_epik_input>  (240) 
bjFbY0hdW2NIXVtjSF1jKG4xMilubm4y

>  <s_epik_cmdline>  (240) 
J2VwaWtfcHl0aG9uJywgJy1waHQnLCAnMi4wJywgJy1waCcsICc3LjAnLCAnLXRuJywgJzgnLCAnLW1hJywgJzIwMCcsICctaW1hZScsICc8aW5maWxlLm1hZT4nLCAnLW9tYWUnLCAnPG91dGZpbGUubWFlPic=

>  <r_lp_tautomer_probability>  (240) 
1

>  <r_epik_Ionization_Penalty>  (240) 
2.20676e-10

>  <r_epik_Ionization_Penalty_Charging>  (240) 
0

>  <r_epik_Ionization_Penalty_Neutral>  (240) 
2.20676e-10

>  <r_epik_State_Penalty>  (240) 
-0

>  <r_epik_Charging_Adjusted_Penalty>  (240) 
0

>  <i_epik_Tot_Q>  (240) 
0

>  <i_epik_Tot_abs_Q>  (240) 
0

>  <s_lp_Force_Field>  (240) 
OPLS3e

>  <r_lp_Energy>  (240) 
12.6859

>  <b_lp_Chiralities_Consistent>  (240) 
1

>  <s_lp_Variant>  (240) 
71:0-1

>  <s_i_glide_gridfile>  (240) 
pfpi4k_grid

>  <i_i_glide_lignum>  (240) 
26

>  <i_i_glide_rotatable_bonds>  (240) 
0

>  <r_i_docking_score>  (240) 
-3.88992

>  <r_i_glide_ligand_efficiency>  (240) 
-0.432213

>  <r_i_glide_ligand_efficiency_sa>  (240) 
-0.899039

>  <r_i_glide_ligand_efficiency_ln>  (240) 
-1.21665

>  <r_i_glide_gscore>  (240) 
-3.88992

>  <r_i_glide_lipo>  (240) 
-0.0450131

>  <r_i_glide_hbond>  (240) 
0

>  <r_i_glide_metal>  (240) 
-0

>  <r_i_glide_rewards>  (240) 
-2.25

>  <r_i_glide_evdw>  (240) 
-13.9551

>  <r_i_glide_ecoul>  (240) 
-3.89857

>  <r_i_glide_erotb>  (240) 
0

>  <r_i_glide_esite>  (240) 
-0.312361

>  <r_i_glide_emodel>  (240) 
-23.7121

>  <r_i_glide_energy>  (240) 
-17.8537

>  <r_i_glide_einternal>  (240) 
0

>  <r_i_glide_intrahb_reward>  (240) 
-0

>  <i_i_glide_confnum>  (240) 
2

>  <i_i_glide_posenum>  (240) 
12

>  <r_i_glide_eff_state_penalty>  (240) 
0

>  <ligand_id>  (240) 
71

>  <original_smiles>  (240) 
c1cnn2nnnc2c1

>  <smiles>  (240) 
[H]c1nn2nnnc2c([H])c1[H]

$$$$
71:0:2
     RDKit          3D

 12 13  0  0  1  0  0  0  0  0999 V2000
    3.0119   -2.0389   -3.5814 C   0  0  0  0  0  0  0  0  0  0  0  0
    3.9163   -1.0808   -3.0776 C   0  0  0  0  0  0  0  0  0  0  0  0
    4.3891   -1.0651   -1.8119 N   0  0  0  0  0  0  0  0  0  0  0  0
    3.9085   -2.0419   -1.0385 N   0  0  0  0  0  0  0  0  0  0  0  0
    4.2553   -2.2050    0.2633 N   0  0  0  0  0  0  0  0  0  0  0  0
    3.5977   -3.2492    0.6678 N   0  0  0  0  0  0  0  0  0  0  0  0
    2.8097   -3.8120   -0.3211 N   0  0  0  0  0  0  0  0  0  0  0  0
    3.0066   -3.0535   -1.3939 C   0  0  0  0  0  0  0  0  0  0  0  0
    2.5286   -3.0552   -2.7290 C   0  0  0  0  0  0  0  0  0  0  0  0
    2.6788   -1.9926   -4.6067 H   0  0  0  0  0  0  0  0  0  0  0  0
    4.2755   -0.2916   -3.7186 H   0  0  0  0  0  0  0  0  0  0  0  0
    1.8368   -3.8170   -3.0609 H   0  0  0  0  0  0  0  0  0  0  0  0
  1  9  2  0
  1  2  1  0
  1 10  1  0
  2  3  2  0
  2 11  1  0
  3  4  1  0
  4  8  1  0
  4  5  1  0
  5  6  2  0
  6  7  1  0
  7  8  2  0
  8  9  1  0
  9 12  1  0
M  END
>  <i_m_ct_stereo_status>  (241) 
1

>  <s_m_source_file>  (241) 
/var/tmp/pbs.5076255.sched01/tmpnx1894nc/68p53si2vm.sdf

>  <i_m_source_file_index>  (241) 
26

>  <i_lp_mmshare_version>  (241) 
48012

>  <i_f3d_flags>  (241) 
0

>  <s_epik_input>  (241) 
bjFbY0hdW2NIXVtjSF1jKG4xMilubm4y

>  <s_epik_cmdline>  (241) 
J2VwaWtfcHl0aG9uJywgJy1waHQnLCAnMi4wJywgJy1waCcsICc3LjAnLCAnLXRuJywgJzgnLCAnLW1hJywgJzIwMCcsICctaW1hZScsICc8aW5maWxlLm1hZT4nLCAnLW9tYWUnLCAnPG91dGZpbGUubWFlPic=

>  <r_lp_tautomer_probability>  (241) 
1

>  <r_epik_Ionization_Penalty>  (241) 
2.20676e-10

>  <r_epik_Ionization_Penalty_Charging>  (241) 
0

>  <r_epik_Ionization_Penalty_Neutral>  (241) 
2.20676e-10

>  <r_epik_State_Penalty>  (241) 
-0

>  <r_epik_Charging_Adjusted_Penalty>  (241) 
0

>  <i_epik_Tot_Q>  (241) 
0

>  <i_epik_Tot_abs_Q>  (241) 
0

>  <s_lp_Force_Field>  (241) 
OPLS3e

>  <r_lp_Energy>  (241) 
12.6859

>  <b_lp_Chiralities_Consistent>  (241) 
1

>  <s_lp_Variant>  (241) 
71:0-1

>  <s_i_glide_gridfile>  (241) 
pfpi4k_grid

>  <i_i_glide_lignum>  (241) 
26

>  <i_i_glide_rotatable_bonds>  (241) 
0

>  <r_i_docking_score>  (241) 
-3.64748

>  <r_i_glide_ligand_efficiency>  (241) 
-0.405276

>  <r_i_glide_ligand_efficiency_sa>  (241) 
-0.843008

>  <r_i_glide_ligand_efficiency_ln>  (241) 
-1.14083

>  <r_i_glide_gscore>  (241) 
-3.64748

>  <r_i_glide_lipo>  (241) 
-0.352266

>  <r_i_glide_hbond>  (241) 
0

>  <r_i_glide_metal>  (241) 
-0

>  <r_i_glide_rewards>  (241) 
-2.25846

>  <r_i_glide_evdw>  (241) 
-15.8788

>  <r_i_glide_ecoul>  (241) 
-1.04316

>  <r_i_glide_erotb>  (241) 
0

>  <r_i_glide_esite>  (241) 
-0.0863415

>  <r_i_glide_emodel>  (241) 
-22.4148

>  <r_i_glide_energy>  (241) 
-16.922

>  <r_i_glide_einternal>  (241) 
0

>  <r_i_glide_intrahb_reward>  (241) 
-0

>  <i_i_glide_confnum>  (241) 
1

>  <i_i_glide_posenum>  (241) 
14

>  <r_i_glide_eff_state_penalty>  (241) 
0

>  <ligand_id>  (241) 
71

>  <original_smiles>  (241) 
c1cnn2nnnc2c1

>  <smiles>  (241) 
[H]c1nn2nnnc2c([H])c1[H]

$$$$
73:1:0
     RDKit          3D

 68 74  0  0  1  0  0  0  0  0999 V2000
    6.3363   -5.0370    4.9930 C   0  0  0  0  0  0  0  0  0  0  0  0
    5.3915   -5.9959    5.5282 O   0  0  0  0  0  0  0  0  0  0  0  0
    4.0949   -6.1244    4.9132 C   0  0  2  0  0  0  0  0  0  0  0  0
    3.0010   -6.7009    5.8651 C   0  0  0  0  0  0  0  0  0  0  0  0
    1.8038   -6.2732    5.4132 C   0  0  0  0  0  0  0  0  0  0  0  0
    2.1383   -5.4185    4.2079 C   0  0  1  0  0  0  0  0  0  0  0  0
    2.7587   -6.3767    3.5087 O   0  0  0  0  0  0  0  0  0  0  0  0
    4.0133   -6.7704    3.4506 C   0  0  2  0  0  0  0  0  0  0  0  0
    3.2087   -8.0550    2.9344 C   0  0  0  0  0  0  0  0  0  0  0  0
    2.0796   -7.7689    1.7879 C   0  0  0  0  0  0  0  0  0  0  0  0
    0.9593   -6.7587    2.0902 N   0  0  0  0  0  0  0  0  0  0  0  0
   -0.1407   -7.3623    2.8454 C   0  0  0  0  0  0  0  0  0  0  0  0
   -0.8900   -8.4275    2.0784 C   0  0  0  0  0  0  0  0  0  0  0  0
   -2.0765   -9.1140    2.7062 C   0  0  0  0  0  0  0  0  0  0  0  0
   -0.7914   -9.8714    2.4837 C   0  0  0  0  0  0  0  0  0  0  0  0
    1.4401   -5.4335    2.7465 C   0  0  2  0  0  0  0  0  0  0  0  0
    2.3675   -4.6535    1.7307 C   0  0  0  0  0  0  0  0  0  0  0  0
    3.8375   -5.1170    1.4555 C   0  0  0  0  0  0  0  0  0  0  0  0
    4.4720   -4.4958    0.3539 C   0  0  0  0  0  0  0  0  0  0  0  0
    5.8265   -4.7491    0.0826 C   0  0  0  0  0  0  0  0  0  0  0  0
    6.5540   -5.6417    0.8865 C   0  0  0  0  0  0  0  0  0  0  0  0
    7.9003   -5.8043    0.6697 O   0  0  0  0  0  0  0  0  0  0  0  0
    5.9408   -6.2901    1.9522 C   0  0  0  0  0  0  0  0  0  0  0  0
    4.6017   -6.0286    2.2614 C   0  0  0  0  0  0  0  0  0  0  0  0
    3.4439   -4.7368    4.6237 C   0  0  1  0  0  0  0  0  0  0  0  0
    3.3178   -3.7601    5.8400 C   0  0  0  0  0  0  0  0  0  0  0  0
    2.1580   -2.7971    5.7236 C   0  0  0  0  0  0  0  0  0  0  0  0
    2.2705   -1.6642    4.8997 C   0  0  0  0  0  0  0  0  0  0  0  0
    1.1866   -0.7909    4.7645 C   0  0  0  0  0  0  0  0  0  0  0  0
   -0.0182   -1.0452    5.4629 C   0  0  0  0  0  0  0  0  0  0  0  0
   -1.1805   -0.1256    5.3401 C   0  0  0  0  0  0  0  0  0  0  0  0
   -1.1391    0.9531    4.2602 C   0  0  0  0  0  0  0  0  0  0  0  0
   -2.1745   -0.2029    6.0654 O   0  0  0  0  0  0  0  0  0  0  0  0
   -0.1140   -2.1746    6.3038 C   0  0  0  0  0  0  0  0  0  0  0  0
    0.9741   -3.0455    6.4396 C   0  0  0  0  0  0  0  0  0  0  0  0
    7.2832   -5.0658    5.5823 H   0  0  0  0  0  0  0  0  0  0  0  0
    5.9646   -4.0044    5.1154 H   0  0  0  0  0  0  0  0  0  0  0  0
    6.5374   -5.2072    3.9368 H   0  0  0  0  0  0  0  0  0  0  0  0
    3.1982   -7.2790    6.7468 H   0  0  0  0  0  0  0  0  0  0  0  0
    0.8330   -6.4134    5.8747 H   0  0  0  0  0  0  0  0  0  0  0  0
    3.9596   -8.7121    2.4845 H   0  0  0  0  0  0  0  0  0  0  0  0
    2.7903   -8.6502    3.7653 H   0  0  0  0  0  0  0  0  0  0  0  0
    2.6148   -7.4250    0.8976 H   0  0  0  0  0  0  0  0  0  0  0  0
    1.6565   -8.7293    1.5051 H   0  0  0  0  0  0  0  0  0  0  0  0
    0.2047   -7.7770    3.8020 H   0  0  0  0  0  0  0  0  0  0  0  0
   -0.8776   -6.5932    3.0826 H   0  0  0  0  0  0  0  0  0  0  0  0
   -0.9862   -8.2138    1.0174 H   0  0  0  0  0  0  0  0  0  0  0  0
   -2.3393   -8.8418    3.7300 H   0  0  0  0  0  0  0  0  0  0  0  0
   -2.9086   -9.3879    2.0618 H   0  0  0  0  0  0  0  0  0  0  0  0
   -0.7802  -10.6154    1.6908 H   0  0  0  0  0  0  0  0  0  0  0  0
   -0.1820  -10.1011    3.3587 H   0  0  0  0  0  0  0  0  0  0  0  0
    0.5652   -4.7915    2.8866 H   0  0  0  0  0  0  0  0  0  0  0  0
    1.8597   -4.6780    0.7672 H   0  0  0  0  0  0  0  0  0  0  0  0
    2.3889   -3.5945    2.0299 H   0  0  0  0  0  0  0  0  0  0  0  0
    3.9173   -3.8032   -0.2568 H   0  0  0  0  0  0  0  0  0  0  0  0
    6.3129   -4.2026   -0.7205 H   0  0  0  0  0  0  0  0  0  0  0  0
    8.3323   -6.4182    1.2476 H   0  0  0  0  0  0  0  0  0  0  0  0
    6.4776   -7.0636    2.5045 H   0  0  0  0  0  0  0  0  0  0  0  0
    3.8670   -4.1653    3.8018 H   0  0  0  0  0  0  0  0  0  0  0  0
    3.2665   -4.2752    6.8070 H   0  0  0  0  0  0  0  0  0  0  0  0
    4.2142   -3.1533    5.9221 H   0  0  0  0  0  0  0  0  0  0  0  0
    3.1873   -1.4567    4.3656 H   0  0  0  0  0  0  0  0  0  0  0  0
    1.3059    0.0738    4.1288 H   0  0  0  0  0  0  0  0  0  0  0  0
   -0.2914    1.6176    4.4205 H   0  0  0  0  0  0  0  0  0  0  0  0
   -2.0462    1.5561    4.2620 H   0  0  0  0  0  0  0  0  0  0  0  0
   -1.0415    0.4823    3.2835 H   0  0  0  0  0  0  0  0  0  0  0  0
   -1.0223   -2.3835    6.8474 H   0  0  0  0  0  0  0  0  0  0  0  0
    0.9070   -3.9106    7.0777 H   0  0  0  0  0  0  0  0  0  0  0  0
  1  2  1  0
  1 36  1  0
  1 37  1  0
  1 38  1  0
  3  2  1  1
  3  8  1  0
  3 25  1  0
  3  4  1  0
  4  5  2  0
  4 39  1  0
  6  5  1  1
  5 40  1  0
  6 16  1  0
  6  7  1  0
  6 25  1  0
  7  8  1  0
  8 24  1  0
  8  9  1  1
  9 10  1  0
  9 41  1  0
  9 42  1  0
 10 11  1  0
 10 43  1  0
 10 44  1  0
 11 12  1  0
 11 16  1  0
 12 13  1  0
 12 45  1  0
 12 46  1  0
 13 15  1  0
 13 14  1  0
 13 47  1  0
 14 15  1  0
 14 48  1  0
 14 49  1  0
 15 50  1  0
 15 51  1  0
 16 17  1  0
 16 52  1  1
 17 18  1  0
 17 53  1  0
 17 54  1  0
 18 24  2  0
 18 19  1  0
 19 20  2  0
 19 55  1  0
 20 21  1  0
 20 56  1  0
 21 22  1  0
 21 23  2  0
 22 57  1  0
 23 24  1  0
 23 58  1  0
 25 26  1  0
 25 59  1  6
 26 27  1  0
 26 60  1  0
 26 61  1  0
 27 35  1  0
 27 28  2  0
 28 29  1  0
 28 62  1  0
 29 30  2  0
 29 63  1  0
 30 31  1  0
 30 34  1  0
 31 32  1  0
 31 33  2  0
 32 64  1  0
 32 65  1  0
 32 66  1  0
 34 35  2  0
 34 67  1  0
 35 68  1  0
M  END
>  <i_m_ct_stereo_status>  (242) 
1

>  <s_m_source_file>  (242) 
/var/tmp/pbs.5076255.sched01/tmpnx1894nc/68p53si2vm.sdf

>  <i_m_source_file_index>  (242) 
29

>  <i_lp_mmshare_version>  (242) 
48012

>  <i_f3d_flags>  (242) 
0

>  <s_epik_input>  (242) 
W0NIM11DKD1PKWMoW2NIXVtjSF0xKVtjSF1bY0hdYzFbQ0gyXVtDQEhdMltDQEBdKE9bQ0gzXSkoW0NIXT1bQ0hdMylbQ0BAXShPNCkoYzVjKFtDSDJdNilbY0hdW2NIXWMoW09IXSlbY0hdNSlbQ0gyXVtDSDJdTihbQ0BIXTZbQ0BAXTIzNClbQ0gyXVtDSF03W0NIMl1bQ0gyXTc=

>  <s_epik_cmdline>  (242) 
J2VwaWtfcHl0aG9uJywgJy1waHQnLCAnMi4wJywgJy1waCcsICc3LjAnLCAnLXRuJywgJzgnLCAnLW1hJywgJzIwMCcsICctaW1hZScsICc8aW5maWxlLm1hZT4nLCAnLW9tYWUnLCAnPG91dGZpbGUubWFlPic=

>  <r_lp_tautomer_probability>  (242) 
0.99995

>  <r_epik_Ionization_Penalty>  (242) 
1.06049

>  <r_epik_Ionization_Penalty_Charging>  (242) 
0

>  <r_epik_Ionization_Penalty_Neutral>  (242) 
1.06049

>  <r_epik_State_Penalty>  (242) 
0.824687

>  <r_epik_Charging_Adjusted_Penalty>  (242) 
0.824687

>  <i_epik_Tot_Q>  (242) 
0

>  <i_epik_Tot_abs_Q>  (242) 
0

>  <s_lp_Force_Field>  (242) 
OPLS3e

>  <r_lp_Energy>  (242) 
201.679

>  <b_lp_Chiralities_Consistent>  (242) 
1

>  <s_lp_Variant>  (242) 
73:0-2

>  <s_i_glide_gridfile>  (242) 
pfpi4k_grid

>  <i_i_glide_lignum>  (242) 
29

>  <i_i_glide_rotatable_bonds>  (242) 
7

>  <r_i_docking_score>  (242) 
-2.59544

>  <r_i_glide_ligand_efficiency>  (242) 
-0.0741555

>  <r_i_glide_ligand_efficiency_sa>  (242) 
-0.242567

>  <r_i_glide_ligand_efficiency_ln>  (242) 
-0.569757

>  <r_i_glide_gscore>  (242) 
-2.59544

>  <r_i_glide_lipo>  (242) 
-0.422904

>  <r_i_glide_hbond>  (242) 
-0.151976

>  <r_i_glide_metal>  (242) 
-0

>  <r_i_glide_rewards>  (242) 
-0.193723

>  <r_i_glide_evdw>  (242) 
-26.9124

>  <r_i_glide_ecoul>  (242) 
-5.37545

>  <r_i_glide_erotb>  (242) 
0.363564

>  <r_i_glide_esite>  (242) 
-0.0384667

>  <r_i_glide_emodel>  (242) 
-32.5816

>  <r_i_glide_energy>  (242) 
-32.2878

>  <r_i_glide_einternal>  (242) 
7.89291

>  <r_i_glide_intrahb_reward>  (242) 
-0

>  <i_i_glide_confnum>  (242) 
1

>  <i_i_glide_posenum>  (242) 
40

>  <r_i_glide_eff_state_penalty>  (242) 
0

>  <ligand_id>  (242) 
73

>  <original_smiles>  (242) 
COC12C=CC3(OC14CCN(CC1CC1)C3Cc1ccc(O)cc14)C2Cc1ccc(C(C)=O)cc1

>  <smiles>  (242) 
[H]Oc1c([H])c([H])c2c(c1[H])C13OC4(C([H])=C([H])C1(OC([H])([H])[H])C4([H])C([H])([H])c1c([H])c([H])c(C(=O)C([H])([H])[H])c([H])c1[H])C([H])(N(C([H])([H])C1([H])C([H])([H])C1([H])[H])C([H])([H])C3([H])[H])C2([H])[H]

$$$$
73:1:1
     RDKit          3D

 68 74  0  0  1  0  0  0  0  0999 V2000
    5.0461   -8.2241    7.0974 C   0  0  0  0  0  0  0  0  0  0  0  0
    4.7541   -6.9126    6.6326 O   0  0  0  0  0  0  0  0  0  0  0  0
    3.6149   -6.8319    5.7892 C   0  0  2  0  0  0  0  0  0  0  0  0
    2.2488   -7.0694    6.4827 C   0  0  0  0  0  0  0  0  0  0  0  0
    1.3213   -6.4638    5.7203 C   0  0  0  0  0  0  0  0  0  0  0  0
    2.0923   -5.8173    4.5835 C   0  0  1  0  0  0  0  0  0  0  0  0
    2.6261   -6.9329    4.0869 O   0  0  0  0  0  0  0  0  0  0  0  0
    3.7391   -7.5641    4.3781 C   0  0  2  0  0  0  0  0  0  0  0  0
    2.8333   -8.7116    3.7363 C   0  0  0  0  0  0  0  0  0  0  0  0
    2.0716   -8.3361    2.3478 C   0  0  0  0  0  0  0  0  0  0  0  0
    1.1471   -7.1059    2.3398 N   0  0  0  0  0  0  0  0  0  0  0  0
   -0.1979   -7.3937    2.8327 C   0  0  0  0  0  0  0  0  0  0  0  0
   -0.9490   -8.4341    2.0394 C   0  0  0  0  0  0  0  0  0  0  0  0
   -2.1779   -9.0931    2.6200 C   0  0  0  0  0  0  0  0  0  0  0  0
   -0.9059   -9.8775    2.4743 C   0  0  0  0  0  0  0  0  0  0  0  0
    1.7449   -5.8341    3.0002 C   0  0  2  0  0  0  0  0  0  0  0  0
    3.0080   -5.3659    2.1807 C   0  0  0  0  0  0  0  0  0  0  0  0
    4.3729   -6.1057    2.3152 C   0  0  0  0  0  0  0  0  0  0  0  0
    5.3471   -5.7648    1.3591 C   0  0  0  0  0  0  0  0  0  0  0  0
    6.6462   -6.2926    1.4221 C   0  0  0  0  0  0  0  0  0  0  0  0
    6.9966   -7.1870    2.4518 C   0  0  0  0  0  0  0  0  0  0  0  0
    8.2454   -7.7225    2.5354 O   0  0  0  0  0  0  0  0  0  0  0  0
    6.0434   -7.5532    3.4101 C   0  0  0  0  0  0  0  0  0  0  0  0
    4.7379   -7.0411    3.3513 C   0  0  0  0  0  0  0  0  0  0  0  0
    3.3870   -5.3728    5.2766 C   0  0  1  0  0  0  0  0  0  0  0  0
    3.2493   -4.2590    6.3561 C   0  0  0  0  0  0  0  0  0  0  0  0
    2.1472   -3.2471    6.0813 C   0  0  0  0  0  0  0  0  0  0  0  0
    2.4143   -2.0811    5.3369 C   0  0  0  0  0  0  0  0  0  0  0  0
    1.3780   -1.1721    5.0502 C   0  0  0  0  0  0  0  0  0  0  0  0
    0.0571   -1.4261    5.4874 C   0  0  0  0  0  0  0  0  0  0  0  0
   -1.0565   -0.4864    5.1941 C   0  0  0  0  0  0  0  0  0  0  0  0
   -0.7635    0.6819    4.2588 C   0  0  0  0  0  0  0  0  0  0  0  0
   -2.1816   -0.6132    5.6692 O   0  0  0  0  0  0  0  0  0  0  0  0
   -0.2028   -2.5897    6.2427 C   0  0  0  0  0  0  0  0  0  0  0  0
    0.8400   -3.4759    6.5619 C   0  0  0  0  0  0  0  0  0  0  0  0
    5.9783   -8.2116    7.6619 H   0  0  0  0  0  0  0  0  0  0  0  0
    5.1709   -8.9231    6.2708 H   0  0  0  0  0  0  0  0  0  0  0  0
    4.2607   -8.5974    7.7541 H   0  0  0  0  0  0  0  0  0  0  0  0
    2.1047   -7.5676    7.4295 H   0  0  0  0  0  0  0  0  0  0  0  0
    0.2610   -6.3759    5.9079 H   0  0  0  0  0  0  0  0  0  0  0  0
    3.4931   -9.5478    3.5207 H   0  0  0  0  0  0  0  0  0  0  0  0
    2.1228   -9.1204    4.4611 H   0  0  0  0  0  0  0  0  0  0  0  0
    2.8440   -8.1805    1.5884 H   0  0  0  0  0  0  0  0  0  0  0  0
    1.5398   -9.2221    1.9970 H   0  0  0  0  0  0  0  0  0  0  0  0
   -0.1785   -7.6922    3.8792 H   0  0  0  0  0  0  0  0  0  0  0  0
   -0.7960   -6.4905    2.7733 H   0  0  0  0  0  0  0  0  0  0  0  0
   -0.9832   -8.2386    0.9675 H   0  0  0  0  0  0  0  0  0  0  0  0
   -2.4819   -8.8158    3.6262 H   0  0  0  0  0  0  0  0  0  0  0  0
   -2.9789   -9.3597    1.9385 H   0  0  0  0  0  0  0  0  0  0  0  0
   -0.8568  -10.6284    1.6849 H   0  0  0  0  0  0  0  0  0  0  0  0
   -0.3265  -10.1076    3.3662 H   0  0  0  0  0  0  0  0  0  0  0  0
    1.0104   -5.0364    2.8689 H   0  0  0  0  0  0  0  0  0  0  0  0
    2.7329   -5.3884    1.1243 H   0  0  0  0  0  0  0  0  0  0  0  0
    3.1904   -4.3156    2.4161 H   0  0  0  0  0  0  0  0  0  0  0  0
    5.0936   -5.0803    0.5629 H   0  0  0  0  0  0  0  0  0  0  0  0
    7.3722   -6.0145    0.6849 H   0  0  0  0  0  0  0  0  0  0  0  0
    8.8610   -7.4877    1.8530 H   0  0  0  0  0  0  0  0  0  0  0  0
    6.3058   -8.2441    4.1963 H   0  0  0  0  0  0  0  0  0  0  0  0
    4.1478   -5.0065    4.5980 H   0  0  0  0  0  0  0  0  0  0  0  0
    3.0934   -4.6772    7.3505 H   0  0  0  0  0  0  0  0  0  0  0  0
    4.2035   -3.7350    6.4297 H   0  0  0  0  0  0  0  0  0  0  0  0
    3.4125   -1.8687    4.9860 H   0  0  0  0  0  0  0  0  0  0  0  0
    1.6248   -0.2846    4.4900 H   0  0  0  0  0  0  0  0  0  0  0  0
    0.0309    1.3058    4.6652 H   0  0  0  0  0  0  0  0  0  0  0  0
   -1.6468    1.3052    4.1187 H   0  0  0  0  0  0  0  0  0  0  0  0
   -0.4500    0.3052    3.2869 H   0  0  0  0  0  0  0  0  0  0  0  0
   -1.2038   -2.8163    6.5768 H   0  0  0  0  0  0  0  0  0  0  0  0
    0.6225   -4.3436    7.1637 H   0  0  0  0  0  0  0  0  0  0  0  0
  1  2  1  0
  1 36  1  0
  1 37  1  0
  1 38  1  0
  3  2  1  1
  3  8  1  0
  3 25  1  0
  3  4  1  0
  4  5  2  0
  4 39  1  0
  6  5  1  1
  5 40  1  0
  6 16  1  0
  6  7  1  0
  6 25  1  0
  7  8  1  0
  8 24  1  0
  8  9  1  1
  9 10  1  0
  9 41  1  0
  9 42  1  0
 10 11  1  0
 10 43  1  0
 10 44  1  0
 11 12  1  0
 11 16  1  0
 12 13  1  0
 12 45  1  0
 12 46  1  0
 13 15  1  0
 13 14  1  0
 13 47  1  0
 14 15  1  0
 14 48  1  0
 14 49  1  0
 15 50  1  0
 15 51  1  0
 16 17  1  0
 16 52  1  1
 17 18  1  0
 17 53  1  0
 17 54  1  0
 18 24  2  0
 18 19  1  0
 19 20  2  0
 19 55  1  0
 20 21  1  0
 20 56  1  0
 21 22  1  0
 21 23  2  0
 22 57  1  0
 23 24  1  0
 23 58  1  0
 25 26  1  0
 25 59  1  6
 26 27  1  0
 26 60  1  0
 26 61  1  0
 27 35  1  0
 27 28  2  0
 28 29  1  0
 28 62  1  0
 29 30  2  0
 29 63  1  0
 30 31  1  0
 30 34  1  0
 31 32  1  0
 31 33  2  0
 32 64  1  0
 32 65  1  0
 32 66  1  0
 34 35  2  0
 34 67  1  0
 35 68  1  0
M  END
>  <i_m_ct_stereo_status>  (243) 
1

>  <s_m_source_file>  (243) 
/var/tmp/pbs.5076255.sched01/tmpnx1894nc/68p53si2vm.sdf

>  <i_m_source_file_index>  (243) 
29

>  <i_lp_mmshare_version>  (243) 
48012

>  <i_f3d_flags>  (243) 
0

>  <s_epik_input>  (243) 
W0NIM11DKD1PKWMoW2NIXVtjSF0xKVtjSF1bY0hdYzFbQ0gyXVtDQEhdMltDQEBdKE9bQ0gzXSkoW0NIXT1bQ0hdMylbQ0BAXShPNCkoYzVjKFtDSDJdNilbY0hdW2NIXWMoW09IXSlbY0hdNSlbQ0gyXVtDSDJdTihbQ0BIXTZbQ0BAXTIzNClbQ0gyXVtDSF03W0NIMl1bQ0gyXTc=

>  <s_epik_cmdline>  (243) 
J2VwaWtfcHl0aG9uJywgJy1waHQnLCAnMi4wJywgJy1waCcsICc3LjAnLCAnLXRuJywgJzgnLCAnLW1hJywgJzIwMCcsICctaW1hZScsICc8aW5maWxlLm1hZT4nLCAnLW9tYWUnLCAnPG91dGZpbGUubWFlPic=

>  <r_lp_tautomer_probability>  (243) 
0.99995

>  <r_epik_Ionization_Penalty>  (243) 
1.06049

>  <r_epik_Ionization_Penalty_Charging>  (243) 
0

>  <r_epik_Ionization_Penalty_Neutral>  (243) 
1.06049

>  <r_epik_State_Penalty>  (243) 
0.824687

>  <r_epik_Charging_Adjusted_Penalty>  (243) 
0.824687

>  <i_epik_Tot_Q>  (243) 
0

>  <i_epik_Tot_abs_Q>  (243) 
0

>  <s_lp_Force_Field>  (243) 
OPLS3e

>  <r_lp_Energy>  (243) 
201.679

>  <b_lp_Chiralities_Consistent>  (243) 
1

>  <s_lp_Variant>  (243) 
73:0-2

>  <s_i_glide_gridfile>  (243) 
pfpi4k_grid

>  <i_i_glide_lignum>  (243) 
29

>  <i_i_glide_rotatable_bonds>  (243) 
7

>  <r_i_docking_score>  (243) 
-2.37677

>  <r_i_glide_ligand_efficiency>  (243) 
-0.0679078

>  <r_i_glide_ligand_efficiency_sa>  (243) 
-0.222131

>  <r_i_glide_ligand_efficiency_ln>  (243) 
-0.521755

>  <r_i_glide_gscore>  (243) 
-2.37677

>  <r_i_glide_lipo>  (243) 
-0.373153

>  <r_i_glide_hbond>  (243) 
-0.179801

>  <r_i_glide_metal>  (243) 
-0

>  <r_i_glide_rewards>  (243) 
-0.193723

>  <r_i_glide_evdw>  (243) 
-25.6433

>  <r_i_glide_ecoul>  (243) 
-4.49923

>  <r_i_glide_erotb>  (243) 
0.363564

>  <r_i_glide_esite>  (243) 
-0.0366091

>  <r_i_glide_emodel>  (243) 
-32.8868

>  <r_i_glide_energy>  (243) 
-30.1426

>  <r_i_glide_einternal>  (243) 
3.24778

>  <r_i_glide_intrahb_reward>  (243) 
-0

>  <i_i_glide_confnum>  (243) 
1

>  <i_i_glide_posenum>  (243) 
24

>  <r_i_glide_eff_state_penalty>  (243) 
0

>  <ligand_id>  (243) 
73

>  <original_smiles>  (243) 
COC12C=CC3(OC14CCN(CC1CC1)C3Cc1ccc(O)cc14)C2Cc1ccc(C(C)=O)cc1

>  <smiles>  (243) 
[H]Oc1c([H])c([H])c2c(c1[H])C13OC4(C([H])=C([H])C1(OC([H])([H])[H])C4([H])C([H])([H])c1c([H])c([H])c(C(=O)C([H])([H])[H])c([H])c1[H])C([H])(N(C([H])([H])C1([H])C([H])([H])C1([H])[H])C([H])([H])C3([H])[H])C2([H])[H]

$$$$
73:1:2
     RDKit          3D

 68 74  0  0  1  0  0  0  0  0999 V2000
    5.8094   -5.3591    6.7692 C   0  0  0  0  0  0  0  0  0  0  0  0
    5.6045   -5.6421    5.3832 O   0  0  0  0  0  0  0  0  0  0  0  0
    4.2598   -5.7538    4.8907 C   0  0  2  0  0  0  0  0  0  0  0  0
    3.2130   -6.3993    5.8457 C   0  0  0  0  0  0  0  0  0  0  0  0
    1.9976   -5.9939    5.4247 C   0  0  0  0  0  0  0  0  0  0  0  0
    2.2628   -5.1273    4.2057 C   0  0  1  0  0  0  0  0  0  0  0  0
    2.9074   -6.0381    3.4754 O   0  0  0  0  0  0  0  0  0  0  0  0
    4.1835   -6.3512    3.4058 C   0  0  2  0  0  0  0  0  0  0  0  0
    3.4671   -7.6749    2.8655 C   0  0  0  0  0  0  0  0  0  0  0  0
    2.2783   -7.4701    1.7706 C   0  0  0  0  0  0  0  0  0  0  0  0
    1.1126   -6.5378    2.1228 N   0  0  0  0  0  0  0  0  0  0  0  0
    0.0659   -7.2129    2.8858 C   0  0  0  0  0  0  0  0  0  0  0  0
   -0.6542   -8.3063    2.1219 C   0  0  0  0  0  0  0  0  0  0  0  0
   -1.7890   -9.0567    2.7806 C   0  0  0  0  0  0  0  0  0  0  0  0
   -0.4809   -9.7556    2.5233 C   0  0  0  0  0  0  0  0  0  0  0  0
    1.5300   -5.1855    2.7623 C   0  0  2  0  0  0  0  0  0  0  0  0
    2.3686   -4.3504    1.7197 C   0  0  0  0  0  0  0  0  0  0  0  0
    3.8615   -4.6894    1.4311 C   0  0  0  0  0  0  0  0  0  0  0  0
    4.4211   -4.0464    0.3101 C   0  0  0  0  0  0  0  0  0  0  0  0
    5.7779   -4.1867   -0.0055 C   0  0  0  0  0  0  0  0  0  0  0  0
    6.6141   -4.9808    0.8011 C   0  0  0  0  0  0  0  0  0  0  0  0
    7.9409   -5.0948    0.5061 O   0  0  0  0  0  0  0  0  0  0  0  0
    6.0778   -5.6601    1.9035 C   0  0  0  0  0  0  0  0  0  0  0  0
    4.7148   -5.5324    2.2275 C   0  0  0  0  0  0  0  0  0  0  0  0
    3.5473   -4.3873    4.6025 C   0  0  1  0  0  0  0  0  0  0  0  0
    3.3957   -3.4019    5.7857 C   0  0  0  0  0  0  0  0  0  0  0  0
    2.2085   -2.4773    5.6694 C   0  0  0  0  0  0  0  0  0  0  0  0
    2.2787   -1.3442    4.8436 C   0  0  0  0  0  0  0  0  0  0  0  0
    1.1691   -0.4932    4.7317 C   0  0  0  0  0  0  0  0  0  0  0  0
   -0.0176   -0.7711    5.4424 C   0  0  0  0  0  0  0  0  0  0  0  0
   -1.2034    0.1166    5.3376 C   0  0  0  0  0  0  0  0  0  0  0  0
   -1.1906    1.1776    4.2365 C   0  0  0  0  0  0  0  0  0  0  0  0
   -2.1732    0.0253    6.0803 O   0  0  0  0  0  0  0  0  0  0  0  0
   -0.0731   -1.9005    6.2935 C   0  0  0  0  0  0  0  0  0  0  0  0
    1.0400   -2.7484    6.4052 C   0  0  0  0  0  0  0  0  0  0  0  0
    6.8784   -5.2832    6.9686 H   0  0  0  0  0  0  0  0  0  0  0  0
    5.4224   -6.1623    7.3962 H   0  0  0  0  0  0  0  0  0  0  0  0
    5.3698   -4.4196    7.0980 H   0  0  0  0  0  0  0  0  0  0  0  0
    3.4354   -7.0192    6.7006 H   0  0  0  0  0  0  0  0  0  0  0  0
    1.0335   -6.2081    5.8664 H   0  0  0  0  0  0  0  0  0  0  0  0
    4.2379   -8.2801    2.3867 H   0  0  0  0  0  0  0  0  0  0  0  0
    3.1178   -8.3108    3.6846 H   0  0  0  0  0  0  0  0  0  0  0  0
    2.7560   -7.0795    0.8714 H   0  0  0  0  0  0  0  0  0  0  0  0
    1.9005   -8.4545    1.4749 H   0  0  0  0  0  0  0  0  0  0  0  0
    0.4662   -7.6217    3.8156 H   0  0  0  0  0  0  0  0  0  0  0  0
   -0.6925   -6.4871    3.1721 H   0  0  0  0  0  0  0  0  0  0  0  0
   -0.8124   -8.0813    1.0658 H   0  0  0  0  0  0  0  0  0  0  0  0
   -2.0392   -8.8008    3.8102 H   0  0  0  0  0  0  0  0  0  0  0  0
   -2.6280   -9.3486    2.1519 H   0  0  0  0  0  0  0  0  0  0  0  0
   -0.4675  -10.5058    1.7339 H   0  0  0  0  0  0  0  0  0  0  0  0
    0.1680   -9.9609    3.3744 H   0  0  0  0  0  0  0  0  0  0  0  0
    0.6110   -4.6144    2.9075 H   0  0  0  0  0  0  0  0  0  0  0  0
    1.8414   -4.4025    0.7643 H   0  0  0  0  0  0  0  0  0  0  0  0
    2.3279   -3.3010    2.0240 H   0  0  0  0  0  0  0  0  0  0  0  0
    3.7975   -3.4231   -0.3114 H   0  0  0  0  0  0  0  0  0  0  0  0
    6.1753   -3.6792   -0.8651 H   0  0  0  0  0  0  0  0  0  0  0  0
    8.1946   -4.5983   -0.2566 H   0  0  0  0  0  0  0  0  0  0  0  0
    6.7106   -6.2922    2.5097 H   0  0  0  0  0  0  0  0  0  0  0  0
    3.9832   -3.7974    3.8065 H   0  0  0  0  0  0  0  0  0  0  0  0
    3.2890   -3.9161    6.7381 H   0  0  0  0  0  0  0  0  0  0  0  0
    4.3013   -2.7987    5.8673 H   0  0  0  0  0  0  0  0  0  0  0  0
    3.1816   -1.1205    4.3024 H   0  0  0  0  0  0  0  0  0  0  0  0
    1.2589    0.3657    4.0885 H   0  0  0  0  0  0  0  0  0  0  0  0
   -0.3523    1.8601    4.3717 H   0  0  0  0  0  0  0  0  0  0  0  0
   -2.1101    1.7633    4.2461 H   0  0  0  0  0  0  0  0  0  0  0  0
   -1.0981    0.6994    3.2625 H   0  0  0  0  0  0  0  0  0  0  0  0
   -0.9628   -2.1332    6.8543 H   0  0  0  0  0  0  0  0  0  0  0  0
    0.9990   -3.6053    7.0572 H   0  0  0  0  0  0  0  0  0  0  0  0
  1  2  1  0
  1 36  1  0
  1 37  1  0
  1 38  1  0
  3  2  1  1
  3  8  1  0
  3 25  1  0
  3  4  1  0
  4  5  2  0
  4 39  1  0
  6  5  1  1
  5 40  1  0
  6 16  1  0
  6  7  1  0
  6 25  1  0
  7  8  1  0
  8 24  1  0
  8  9  1  1
  9 10  1  0
  9 41  1  0
  9 42  1  0
 10 11  1  0
 10 43  1  0
 10 44  1  0
 11 12  1  0
 11 16  1  0
 12 13  1  0
 12 45  1  0
 12 46  1  0
 13 15  1  0
 13 14  1  0
 13 47  1  0
 14 15  1  0
 14 48  1  0
 14 49  1  0
 15 50  1  0
 15 51  1  0
 16 17  1  0
 16 52  1  1
 17 18  1  0
 17 53  1  0
 17 54  1  0
 18 24  2  0
 18 19  1  0
 19 20  2  0
 19 55  1  0
 20 21  1  0
 20 56  1  0
 21 22  1  0
 21 23  2  0
 22 57  1  0
 23 24  1  0
 23 58  1  0
 25 26  1  0
 25 59  1  6
 26 27  1  0
 26 60  1  0
 26 61  1  0
 27 35  1  0
 27 28  2  0
 28 29  1  0
 28 62  1  0
 29 30  2  0
 29 63  1  0
 30 31  1  0
 30 34  1  0
 31 32  1  0
 31 33  2  0
 32 64  1  0
 32 65  1  0
 32 66  1  0
 34 35  2  0
 34 67  1  0
 35 68  1  0
M  END
>  <i_m_ct_stereo_status>  (244) 
1

>  <s_m_source_file>  (244) 
/var/tmp/pbs.5076255.sched01/tmpnx1894nc/68p53si2vm.sdf

>  <i_m_source_file_index>  (244) 
29

>  <i_lp_mmshare_version>  (244) 
48012

>  <i_f3d_flags>  (244) 
0

>  <s_epik_input>  (244) 
W0NIM11DKD1PKWMoW2NIXVtjSF0xKVtjSF1bY0hdYzFbQ0gyXVtDQEhdMltDQEBdKE9bQ0gzXSkoW0NIXT1bQ0hdMylbQ0BAXShPNCkoYzVjKFtDSDJdNilbY0hdW2NIXWMoW09IXSlbY0hdNSlbQ0gyXVtDSDJdTihbQ0BIXTZbQ0BAXTIzNClbQ0gyXVtDSF03W0NIMl1bQ0gyXTc=

>  <s_epik_cmdline>  (244) 
J2VwaWtfcHl0aG9uJywgJy1waHQnLCAnMi4wJywgJy1waCcsICc3LjAnLCAnLXRuJywgJzgnLCAnLW1hJywgJzIwMCcsICctaW1hZScsICc8aW5maWxlLm1hZT4nLCAnLW9tYWUnLCAnPG91dGZpbGUubWFlPic=

>  <r_lp_tautomer_probability>  (244) 
0.99995

>  <r_epik_Ionization_Penalty>  (244) 
1.06049

>  <r_epik_Ionization_Penalty_Charging>  (244) 
0

>  <r_epik_Ionization_Penalty_Neutral>  (244) 
1.06049

>  <r_epik_State_Penalty>  (244) 
0.824687

>  <r_epik_Charging_Adjusted_Penalty>  (244) 
0.824687

>  <i_epik_Tot_Q>  (244) 
0

>  <i_epik_Tot_abs_Q>  (244) 
0

>  <s_lp_Force_Field>  (244) 
OPLS3e

>  <r_lp_Energy>  (244) 
201.679

>  <b_lp_Chiralities_Consistent>  (244) 
1

>  <s_lp_Variant>  (244) 
73:0-2

>  <s_i_glide_gridfile>  (244) 
pfpi4k_grid

>  <i_i_glide_lignum>  (244) 
29

>  <i_i_glide_rotatable_bonds>  (244) 
7

>  <r_i_docking_score>  (244) 
-2.32013

>  <r_i_glide_ligand_efficiency>  (244) 
-0.0662895

>  <r_i_glide_ligand_efficiency_sa>  (244) 
-0.216837

>  <r_i_glide_ligand_efficiency_ln>  (244) 
-0.509321

>  <r_i_glide_gscore>  (244) 
-2.32013

>  <r_i_glide_lipo>  (244) 
-0.36113

>  <r_i_glide_hbond>  (244) 
-0.16

>  <r_i_glide_metal>  (244) 
-0

>  <r_i_glide_rewards>  (244) 
-0.193723

>  <r_i_glide_evdw>  (244) 
-26.2836

>  <r_i_glide_ecoul>  (244) 
-4.1233

>  <r_i_glide_erotb>  (244) 
0.363564

>  <r_i_glide_esite>  (244) 
-0.0361714

>  <r_i_glide_emodel>  (244) 
-32.2037

>  <r_i_glide_energy>  (244) 
-30.4069

>  <r_i_glide_einternal>  (244) 
5.25499

>  <r_i_glide_intrahb_reward>  (244) 
-0

>  <i_i_glide_confnum>  (244) 
1

>  <i_i_glide_posenum>  (244) 
30

>  <r_i_glide_eff_state_penalty>  (244) 
0

>  <ligand_id>  (244) 
73

>  <original_smiles>  (244) 
COC12C=CC3(OC14CCN(CC1CC1)C3Cc1ccc(O)cc14)C2Cc1ccc(C(C)=O)cc1

>  <smiles>  (244) 
[H]Oc1c([H])c([H])c2c(c1[H])C13OC4(C([H])=C([H])C1(OC([H])([H])[H])C4([H])C([H])([H])c1c([H])c([H])c(C(=O)C([H])([H])[H])c([H])c1[H])C([H])(N(C([H])([H])C1([H])C([H])([H])C1([H])[H])C([H])([H])C3([H])[H])C2([H])[H]

$$$$
74:0:0
     RDKit          3D

 46 49  0  0  1  0  0  0  0  0999 V2000
    2.0383   -5.5466    0.1445 C   0  0  0  0  0  0  0  0  0  0  0  0
    3.3156   -4.6933    0.2580 C   0  0  2  0  0  0  0  0  0  0  0  0
    4.4904   -5.7112    0.2964 C   0  0  0  0  0  0  0  0  0  0  0  0
    5.8120   -5.3742    1.0167 C   0  0  0  0  0  0  0  0  0  0  0  0
    6.4451   -3.9861    0.8026 C   0  0  2  0  0  0  0  0  0  0  0  0
    6.1346   -3.1832    1.9451 O   0  0  0  0  0  0  0  0  0  0  0  0
    5.8002   -1.8419    1.7658 C   0  0  1  0  0  0  0  0  0  0  0  0
    6.8597   -1.0602    1.3257 O   0  0  0  0  0  0  0  0  0  0  0  0
    4.6395   -1.7489    0.7857 C   0  0  2  0  0  0  0  0  0  0  0  0
    3.3524   -2.2741    1.4496 C   0  0  0  0  0  0  0  0  0  0  0  0
    3.1755   -3.8038    1.5339 C   0  0  0  0  0  0  0  0  0  0  0  0
    5.0147   -2.3345   -0.5954 C   0  0  2  0  0  0  0  0  0  0  0  0
    5.3126   -1.2274   -1.4243 O   0  0  0  0  0  0  0  0  0  0  0  0
    5.0132   -1.6278   -2.8490 O   0  0  0  0  0  0  0  0  0  0  0  0
    3.9829   -2.5828   -2.8323 C   0  0  0  0  0  0  0  0  0  0  0  0
    2.7767   -1.9852   -3.5508 C   0  0  0  0  0  0  0  0  0  0  0  0
    4.5358   -3.7693   -3.6476 C   0  0  0  0  0  0  0  0  0  0  0  0
    3.7430   -2.7728   -1.3262 C   0  0  1  0  0  0  0  0  0  0  0  0
    3.3241   -4.0955   -1.0411 O   0  0  0  0  0  0  0  0  0  0  0  0
    6.2005   -3.3668   -0.5984 C   0  0  1  0  0  0  0  0  0  0  0  0
    7.5129   -2.8909   -1.2678 C   0  0  0  0  0  0  0  0  0  0  0  0
    8.4093   -2.3128   -0.6568 O   0  0  0  0  0  0  0  0  0  0  0  0
    1.8302   -6.1079    1.0592 H   0  0  0  0  0  0  0  0  0  0  0  0
    2.1016   -6.2574   -0.6687 H   0  0  0  0  0  0  0  0  0  0  0  0
    1.1957   -4.9395   -0.1394 H   0  0  0  0  0  0  0  0  0  0  0  0
    4.1350   -6.6351    0.7605 H   0  0  0  0  0  0  0  0  0  0  0  0
    4.7143   -5.9909   -0.7338 H   0  0  0  0  0  0  0  0  0  0  0  0
    5.6886   -5.5289    2.0874 H   0  0  0  0  0  0  0  0  0  0  0  0
    6.5279   -6.1383    0.7049 H   0  0  0  0  0  0  0  0  0  0  0  0
    7.5151   -4.1817    0.8900 H   0  0  0  0  0  0  0  0  0  0  0  0
    5.5124   -1.4486    2.7455 H   0  0  0  0  0  0  0  0  0  0  0  0
    7.1780   -0.5385    2.0671 H   0  0  0  0  0  0  0  0  0  0  0  0
    4.4774   -0.6745    0.6486 H   0  0  0  0  0  0  0  0  0  0  0  0
    3.2944   -1.8793    2.4639 H   0  0  0  0  0  0  0  0  0  0  0  0
    2.4816   -1.8408    0.9545 H   0  0  0  0  0  0  0  0  0  0  0  0
    2.1701   -3.9357    1.9340 H   0  0  0  0  0  0  0  0  0  0  0  0
    3.8118   -4.1929    2.3290 H   0  0  0  0  0  0  0  0  0  0  0  0
    1.9221   -2.6714   -3.5458 H   0  0  0  0  0  0  0  0  0  0  0  0
    3.0184   -1.7597   -4.5876 H   0  0  0  0  0  0  0  0  0  0  0  0
    2.4829   -1.0543   -3.0719 H   0  0  0  0  0  0  0  0  0  0  0  0
    3.8279   -4.5902   -3.6980 H   0  0  0  0  0  0  0  0  0  0  0  0
    5.4802   -4.1388   -3.2613 H   0  0  0  0  0  0  0  0  0  0  0  0
    4.6887   -3.4876   -4.6863 H   0  0  0  0  0  0  0  0  0  0  0  0
    2.9421   -2.0743   -1.0800 H   0  0  0  0  0  0  0  0  0  0  0  0
    5.9236   -4.1740   -1.2686 H   0  0  0  0  0  0  0  0  0  0  0  0
    7.5755   -3.1210   -2.3316 H   0  0  0  0  0  0  0  0  0  0  0  0
  2  1  1  6
  1 23  1  0
  1 24  1  0
  1 25  1  0
  2 11  1  0
  2 19  1  0
  2  3  1  0
  3  4  1  0
  3 26  1  0
  3 27  1  0
  4  5  1  0
  4 28  1  0
  4 29  1  0
  5 20  1  0
  5  6  1  0
  5 30  1  6
  6  7  1  0
  7  8  1  0
  7  9  1  0
  7 31  1  1
  8 32  1  0
  9 10  1  0
  9 12  1  0
  9 33  1  6
 10 11  1  0
 10 34  1  0
 10 35  1  0
 11 36  1  0
 11 37  1  0
 12 18  1  0
 12 13  1  6
 12 20  1  0
 13 14  1  0
 14 15  1  0
 15 16  1  0
 15 17  1  0
 15 18  1  0
 16 38  1  0
 16 39  1  0
 16 40  1  0
 17 41  1  0
 17 42  1  0
 17 43  1  0
 18 19  1  0
 18 44  1  1
 20 21  1  0
 20 45  1  6
 21 22  2  0
 21 46  1  0
M  END
>  <i_m_ct_stereo_status>  (245) 
1

>  <s_m_source_file>  (245) 
/var/tmp/pbs.5076255.sched01/tmpnx1894nc/68p53si2vm.sdf

>  <i_m_source_file_index>  (245) 
30

>  <i_lp_mmshare_version>  (245) 
48012

>  <i_f3d_flags>  (245) 
0

>  <s_epik_input>  (245) 
TzFPQyhbQ0gzXSkoW0NIM10pW0NASF0yT1tDQF0oW0NIM10pKFtDSDJdW0NIMl0zKVtDSDJdW0NIMl1bQ0BASF0oW0NAQEhdNFtDSF09TylPW0NAQEhdKFtPSF0pW0NASF0zW0NAXTEyNA==

>  <s_epik_cmdline>  (245) 
J2VwaWtfcHl0aG9uJywgJy1waHQnLCAnMi4wJywgJy1waCcsICc3LjAnLCAnLXRuJywgJzgnLCAnLW1hJywgJzIwMCcsICctaW1hZScsICc8aW5maWxlLm1hZT4nLCAnLW9tYWUnLCAnPG91dGZpbGUubWFlPic=

>  <r_lp_tautomer_probability>  (245) 
1

>  <r_epik_Ionization_Penalty>  (245) 
0.000108156

>  <r_epik_Ionization_Penalty_Charging>  (245) 
0

>  <r_epik_Ionization_Penalty_Neutral>  (245) 
0.000108156

>  <r_epik_State_Penalty>  (245) 
-0

>  <r_epik_Charging_Adjusted_Penalty>  (245) 
0

>  <i_epik_Tot_Q>  (245) 
0

>  <i_epik_Tot_abs_Q>  (245) 
0

>  <s_epik_Chemistry_Notes>  (245) 
This compound contains an acetal/aminal-like group ( X-CH(R)-Y where X, Y are N, S, or O) that may be acid/base labile, releasing an aldehyde.

>  <s_lp_Force_Field>  (245) 
OPLS3e

>  <r_lp_Energy>  (245) 
49.272

>  <b_lp_Chiralities_Consistent>  (245) 
1

>  <s_lp_Variant>  (245) 
74:0-1

>  <s_i_glide_gridfile>  (245) 
pfpi4k_grid

>  <i_i_glide_lignum>  (245) 
30

>  <i_i_glide_rotatable_bonds>  (245) 
2

>  <r_i_docking_score>  (245) 
-3.58808

>  <r_i_glide_ligand_efficiency>  (245) 
-0.163095

>  <r_i_glide_ligand_efficiency_sa>  (245) 
-0.456997

>  <r_i_glide_ligand_efficiency_ln>  (245) 
-0.877058

>  <r_i_glide_gscore>  (245) 
-3.58808

>  <r_i_glide_lipo>  (245) 
-0.700031

>  <r_i_glide_hbond>  (245) 
-0.126095

>  <r_i_glide_metal>  (245) 
-0

>  <r_i_glide_rewards>  (245) 
-1.43866

>  <r_i_glide_evdw>  (245) 
-20.7358

>  <r_i_glide_ecoul>  (245) 
-1.68557

>  <r_i_glide_erotb>  (245) 
0

>  <r_i_glide_esite>  (245) 
-0.0336678

>  <r_i_glide_emodel>  (245) 
-26.4483

>  <r_i_glide_energy>  (245) 
-22.4214

>  <r_i_glide_einternal>  (245) 
1.77499

>  <r_i_glide_intrahb_reward>  (245) 
-0

>  <i_i_glide_confnum>  (245) 
1

>  <i_i_glide_posenum>  (245) 
6

>  <r_i_glide_eff_state_penalty>  (245) 
0

>  <ligand_id>  (245) 
74

>  <original_smiles>  (245) 
CC12CCC3OC(O)C(CC1)C1(OOC(C)(C)C1O2)C3C=O

>  <smiles>  (245) 
[H]OC1([H])OC2([H])C([H])([H])C([H])([H])C3(C([H])([H])[H])OC4([H])C(C([H])([H])[H])(C([H])([H])[H])OOC4(C2([H])C([H])=O)C1([H])C([H])([H])C3([H])[H]

$$$$
74:0:1
     RDKit          3D

 46 49  0  0  1  0  0  0  0  0999 V2000
    1.9083   -5.6023    0.1964 C   0  0  0  0  0  0  0  0  0  0  0  0
    3.0677   -4.6601    0.5746 C   0  0  2  0  0  0  0  0  0  0  0  0
    4.3106   -5.5667    0.8064 C   0  0  0  0  0  0  0  0  0  0  0  0
    5.4240   -5.1372    1.7878 C   0  0  0  0  0  0  0  0  0  0  0  0
    5.9498   -3.6923    1.7384 C   0  0  2  0  0  0  0  0  0  0  0  0
    5.3890   -2.9704    2.8407 O   0  0  0  0  0  0  0  0  0  0  0  0
    4.9514   -1.6607    2.6553 C   0  0  1  0  0  0  0  0  0  0  0  0
    5.9985   -0.7224    2.5257 O   0  0  0  0  0  0  0  0  0  0  0  0
    3.9741   -1.6180    1.4684 C   0  0  2  0  0  0  0  0  0  0  0  0
    2.6483   -2.3124    1.8497 C   0  0  0  0  0  0  0  0  0  0  0  0
    2.6208   -3.8518    1.8391 C   0  0  0  0  0  0  0  0  0  0  0  0
    4.6429   -2.1012    0.1566 C   0  0  2  0  0  0  0  0  0  0  0  0
    4.9823   -0.9284   -0.5692 O   0  0  0  0  0  0  0  0  0  0  0  0
    5.0821   -1.3080   -2.0241 O   0  0  0  0  0  0  0  0  0  0  0  0
    4.1221   -2.3206   -2.2519 C   0  0  0  0  0  0  0  0  0  0  0  0
    3.0144   -1.8051   -3.1823 C   0  0  0  0  0  0  0  0  0  0  0  0
    4.8889   -3.4558   -2.9494 C   0  0  0  0  0  0  0  0  0  0  0  0
    3.6021   -2.6359   -0.8317 C   0  0  1  0  0  0  0  0  0  0  0  0
    3.2900   -4.0105   -0.6859 O   0  0  0  0  0  0  0  0  0  0  0  0
    5.9017   -3.0220    0.3413 C   0  0  1  0  0  0  0  0  0  0  0  0
    7.2489   -2.3439    0.0313 C   0  0  0  0  0  0  0  0  0  0  0  0
    7.6613   -2.2628   -1.1249 O   0  0  0  0  0  0  0  0  0  0  0  0
    1.6035   -6.2425    1.0234 H   0  0  0  0  0  0  0  0  0  0  0  0
    2.1948   -6.2533   -0.6161 H   0  0  0  0  0  0  0  0  0  0  0  0
    1.0466   -5.0653   -0.1762 H   0  0  0  0  0  0  0  0  0  0  0  0
    3.9738   -6.5442    1.1652 H   0  0  0  0  0  0  0  0  0  0  0  0
    4.7658   -5.7754   -0.1642 H   0  0  0  0  0  0  0  0  0  0  0  0
    5.1156   -5.3574    2.8107 H   0  0  0  0  0  0  0  0  0  0  0  0
    6.2670   -5.8078    1.6073 H   0  0  0  0  0  0  0  0  0  0  0  0
    6.9959   -3.7918    2.0199 H   0  0  0  0  0  0  0  0  0  0  0  0
    4.4341   -1.3779    3.5736 H   0  0  0  0  0  0  0  0  0  0  0  0
    6.4048   -0.8440    1.6806 H   0  0  0  0  0  0  0  0  0  0  0  0
    3.7133   -0.5656    1.3410 H   0  0  0  0  0  0  0  0  0  0  0  0
    2.3491   -1.9789    2.8446 H   0  0  0  0  0  0  0  0  0  0  0  0
    1.8443   -1.9419    1.2163 H   0  0  0  0  0  0  0  0  0  0  0  0
    1.5925   -4.1079    2.0724 H   0  0  0  0  0  0  0  0  0  0  0  0
    3.1411   -4.2221    2.7219 H   0  0  0  0  0  0  0  0  0  0  0  0
    2.2568   -2.5708   -3.3475 H   0  0  0  0  0  0  0  0  0  0  0  0
    3.3983   -1.5108   -4.1567 H   0  0  0  0  0  0  0  0  0  0  0  0
    2.5142   -0.9390   -2.7479 H   0  0  0  0  0  0  0  0  0  0  0  0
    4.2602   -4.3293   -3.0893 H   0  0  0  0  0  0  0  0  0  0  0  0
    5.7888   -3.7504   -2.4153 H   0  0  0  0  0  0  0  0  0  0  0  0
    5.2142   -3.1281   -3.9295 H   0  0  0  0  0  0  0  0  0  0  0  0
    2.6825   -2.0664   -0.7296 H   0  0  0  0  0  0  0  0  0  0  0  0
    5.8616   -3.8243   -0.3915 H   0  0  0  0  0  0  0  0  0  0  0  0
    7.8106   -1.9668    0.8868 H   0  0  0  0  0  0  0  0  0  0  0  0
  2  1  1  6
  1 23  1  0
  1 24  1  0
  1 25  1  0
  2 11  1  0
  2 19  1  0
  2  3  1  0
  3  4  1  0
  3 26  1  0
  3 27  1  0
  4  5  1  0
  4 28  1  0
  4 29  1  0
  5 20  1  0
  5  6  1  0
  5 30  1  1
  6  7  1  0
  7  8  1  0
  7  9  1  0
  7 31  1  1
  8 32  1  0
  9 10  1  0
  9 12  1  0
  9 33  1  6
 10 11  1  0
 10 34  1  0
 10 35  1  0
 11 36  1  0
 11 37  1  0
 12 18  1  0
 12 13  1  6
 12 20  1  0
 13 14  1  0
 14 15  1  0
 15 16  1  0
 15 17  1  0
 15 18  1  0
 16 38  1  0
 16 39  1  0
 16 40  1  0
 17 41  1  0
 17 42  1  0
 17 43  1  0
 18 19  1  0
 18 44  1  1
 20 21  1  0
 20 45  1  6
 21 22  2  0
 21 46  1  0
M  END
>  <i_m_ct_stereo_status>  (246) 
1

>  <s_m_source_file>  (246) 
/var/tmp/pbs.5076255.sched01/tmpnx1894nc/68p53si2vm.sdf

>  <i_m_source_file_index>  (246) 
30

>  <i_lp_mmshare_version>  (246) 
48012

>  <i_f3d_flags>  (246) 
0

>  <s_epik_input>  (246) 
TzFPQyhbQ0gzXSkoW0NIM10pW0NASF0yT1tDQF0oW0NIM10pKFtDSDJdW0NIMl0zKVtDSDJdW0NIMl1bQ0BASF0oW0NAQEhdNFtDSF09TylPW0NAQEhdKFtPSF0pW0NASF0zW0NAXTEyNA==

>  <s_epik_cmdline>  (246) 
J2VwaWtfcHl0aG9uJywgJy1waHQnLCAnMi4wJywgJy1waCcsICc3LjAnLCAnLXRuJywgJzgnLCAnLW1hJywgJzIwMCcsICctaW1hZScsICc8aW5maWxlLm1hZT4nLCAnLW9tYWUnLCAnPG91dGZpbGUubWFlPic=

>  <r_lp_tautomer_probability>  (246) 
1

>  <r_epik_Ionization_Penalty>  (246) 
0.000108156

>  <r_epik_Ionization_Penalty_Charging>  (246) 
0

>  <r_epik_Ionization_Penalty_Neutral>  (246) 
0.000108156

>  <r_epik_State_Penalty>  (246) 
-0

>  <r_epik_Charging_Adjusted_Penalty>  (246) 
0

>  <i_epik_Tot_Q>  (246) 
0

>  <i_epik_Tot_abs_Q>  (246) 
0

>  <s_epik_Chemistry_Notes>  (246) 
This compound contains an acetal/aminal-like group ( X-CH(R)-Y where X, Y are N, S, or O) that may be acid/base labile, releasing an aldehyde.

>  <s_lp_Force_Field>  (246) 
OPLS3e

>  <r_lp_Energy>  (246) 
49.272

>  <b_lp_Chiralities_Consistent>  (246) 
1

>  <s_lp_Variant>  (246) 
74:0-1

>  <s_i_glide_gridfile>  (246) 
pfpi4k_grid

>  <i_i_glide_lignum>  (246) 
30

>  <i_i_glide_rotatable_bonds>  (246) 
2

>  <r_i_docking_score>  (246) 
-3.5632

>  <r_i_glide_ligand_efficiency>  (246) 
-0.161964

>  <r_i_glide_ligand_efficiency_sa>  (246) 
-0.453829

>  <r_i_glide_ligand_efficiency_ln>  (246) 
-0.870977

>  <r_i_glide_gscore>  (246) 
-3.5632

>  <r_i_glide_lipo>  (246) 
-0.444735

>  <r_i_glide_hbond>  (246) 
-0.16

>  <r_i_glide_metal>  (246) 
-0

>  <r_i_glide_rewards>  (246) 
-1.42482

>  <r_i_glide_evdw>  (246) 
-23.7578

>  <r_i_glide_ecoul>  (246) 
-2.30507

>  <r_i_glide_erotb>  (246) 
0

>  <r_i_glide_esite>  (246) 
0

>  <r_i_glide_emodel>  (246) 
-30.999

>  <r_i_glide_energy>  (246) 
-26.0629

>  <r_i_glide_einternal>  (246) 
0.950064

>  <r_i_glide_intrahb_reward>  (246) 
-0

>  <i_i_glide_confnum>  (246) 
2

>  <i_i_glide_posenum>  (246) 
5

>  <r_i_glide_eff_state_penalty>  (246) 
0

>  <ligand_id>  (246) 
74

>  <original_smiles>  (246) 
CC12CCC3OC(O)C(CC1)C1(OOC(C)(C)C1O2)C3C=O

>  <smiles>  (246) 
[H]OC1([H])OC2([H])C([H])([H])C([H])([H])C3(C([H])([H])[H])OC4([H])C(C([H])([H])[H])(C([H])([H])[H])OOC4(C2([H])C([H])=O)C1([H])C([H])([H])C3([H])[H]

$$$$
74:0:2
     RDKit          3D

 46 49  0  0  1  0  0  0  0  0999 V2000
    1.8815   -3.1489   -2.8194 C   0  0  0  0  0  0  0  0  0  0  0  0
    3.1260   -2.7228   -2.0901 C   0  0  2  0  0  0  0  0  0  0  0  0
    3.1941   -1.2096   -2.2428 C   0  0  0  0  0  0  0  0  0  0  0  0
    4.5293   -0.5232   -2.2192 C   0  0  0  0  0  0  0  0  0  0  0  0
    5.5110   -0.9611   -1.1136 C   0  0  2  0  0  0  0  0  0  0  0  0
    6.4976   -1.7416   -1.7835 O   0  0  0  0  0  0  0  0  0  0  0  0
    7.1011   -2.7741   -1.1386 C   0  0  1  0  0  0  0  0  0  0  0  0
    8.0077   -2.3780   -0.1386 O   0  0  0  0  0  0  0  0  0  0  0  0
    5.9552   -3.6848   -0.6907 C   0  0  2  0  0  0  0  0  0  0  0  0
    5.2718   -4.2433   -1.9635 C   0  0  0  0  0  0  0  0  0  0  0  0
    4.3079   -3.4232   -2.7939 C   0  0  0  0  0  0  0  0  0  0  0  0
    4.9875   -3.0041    0.2943 C   0  0  2  0  0  0  0  0  0  0  0  0
    5.3354   -3.4997    1.5758 O   0  0  0  0  0  0  0  0  0  0  0  0
    4.1666   -3.2521    2.4618 O   0  0  0  0  0  0  0  0  0  0  0  0
    3.0210   -3.4927    1.6599 C   0  0  0  0  0  0  0  0  0  0  0  0
    2.3338   -4.7957    2.0867 C   0  0  0  0  0  0  0  0  0  0  0  0
    2.1532   -2.2629    1.9329 C   0  0  0  0  0  0  0  0  0  0  0  0
    3.6123   -3.6220    0.2375 C   0  0  1  0  0  0  0  0  0  0  0  0
    2.7488   -3.0469   -0.7444 O   0  0  0  0  0  0  0  0  0  0  0  0
    4.9088   -1.4512    0.2142 C   0  0  1  0  0  0  0  0  0  0  0  0
    5.5411   -0.7357    1.4117 C   0  0  0  0  0  0  0  0  0  0  0  0
    6.6143   -1.1152    1.8817 O   0  0  0  0  0  0  0  0  0  0  0  0
    1.9134   -2.9289   -3.8905 H   0  0  0  0  0  0  0  0  0  0  0  0
    1.0173   -2.6814   -2.3543 H   0  0  0  0  0  0  0  0  0  0  0  0
    1.7914   -4.2213   -2.6890 H   0  0  0  0  0  0  0  0  0  0  0  0
    2.6783   -0.8747   -3.1412 H   0  0  0  0  0  0  0  0  0  0  0  0
    2.6287   -0.8130   -1.4235 H   0  0  0  0  0  0  0  0  0  0  0  0
    5.0021   -0.5758   -3.2099 H   0  0  0  0  0  0  0  0  0  0  0  0
    4.2483    0.5085   -2.1079 H   0  0  0  0  0  0  0  0  0  0  0  0
    6.0691   -0.0898   -0.8164 H   0  0  0  0  0  0  0  0  0  0  0  0
    7.7064   -3.2775   -1.8997 H   0  0  0  0  0  0  0  0  0  0  0  0
    7.5581   -2.1016    0.6322 H   0  0  0  0  0  0  0  0  0  0  0  0
    6.4361   -4.5280   -0.1848 H   0  0  0  0  0  0  0  0  0  0  0  0
    6.0177   -4.3550   -2.7440 H   0  0  0  0  0  0  0  0  0  0  0  0
    4.8134   -5.2004   -1.6941 H   0  0  0  0  0  0  0  0  0  0  0  0
    3.9297   -4.1321   -3.5265 H   0  0  0  0  0  0  0  0  0  0  0  0
    4.8537   -2.7340   -3.4358 H   0  0  0  0  0  0  0  0  0  0  0  0
    1.4628   -5.0061    1.4568 H   0  0  0  0  0  0  0  0  0  0  0  0
    1.9817   -4.7317    3.1155 H   0  0  0  0  0  0  0  0  0  0  0  0
    2.9907   -5.6573    2.0018 H   0  0  0  0  0  0  0  0  0  0  0  0
    1.3104   -2.2298    1.2482 H   0  0  0  0  0  0  0  0  0  0  0  0
    2.6729   -1.3174    1.8258 H   0  0  0  0  0  0  0  0  0  0  0  0
    1.7612   -2.2891    2.9515 H   0  0  0  0  0  0  0  0  0  0  0  0
    3.7091   -4.6894    0.0424 H   0  0  0  0  0  0  0  0  0  0  0  0
    3.8828   -1.0603    0.2986 H   0  0  0  0  0  0  0  0  0  0  0  0
    5.0690    0.1350    1.8105 H   0  0  0  0  0  0  0  0  0  0  0  0
  2  1  1  6
  1 23  1  0
  1 24  1  0
  1 25  1  0
  2 11  1  0
  2 19  1  0
  2  3  1  0
  3  4  1  0
  3 26  1  0
  3 27  1  0
  4  5  1  0
  4 28  1  0
  4 29  1  0
  5 20  1  0
  5  6  1  0
  5 30  1  1
  6  7  1  0
  7  8  1  0
  7  9  1  0
  7 31  1  6
  8 32  1  0
  9 10  1  0
  9 12  1  0
  9 33  1  1
 10 11  1  0
 10 34  1  0
 10 35  1  0
 11 36  1  0
 11 37  1  0
 12 18  1  0
 12 13  1  1
 12 20  1  0
 13 14  1  0
 14 15  1  0
 15 16  1  0
 15 17  1  0
 15 18  1  0
 16 38  1  0
 16 39  1  0
 16 40  1  0
 17 41  1  0
 17 42  1  0
 17 43  1  0
 18 19  1  0
 18 44  1  6
 20 21  1  0
 20 45  1  6
 21 22  2  0
 21 46  1  0
M  END
>  <i_m_ct_stereo_status>  (247) 
1

>  <s_m_source_file>  (247) 
/var/tmp/pbs.5076255.sched01/tmpnx1894nc/68p53si2vm.sdf

>  <i_m_source_file_index>  (247) 
30

>  <i_lp_mmshare_version>  (247) 
48012

>  <i_f3d_flags>  (247) 
0

>  <s_epik_input>  (247) 
TzFPQyhbQ0gzXSkoW0NIM10pW0NASF0yT1tDQF0oW0NIM10pKFtDSDJdW0NIMl0zKVtDSDJdW0NIMl1bQ0BASF0oW0NAQEhdNFtDSF09TylPW0NAQEhdKFtPSF0pW0NASF0zW0NAXTEyNA==

>  <s_epik_cmdline>  (247) 
J2VwaWtfcHl0aG9uJywgJy1waHQnLCAnMi4wJywgJy1waCcsICc3LjAnLCAnLXRuJywgJzgnLCAnLW1hJywgJzIwMCcsICctaW1hZScsICc8aW5maWxlLm1hZT4nLCAnLW9tYWUnLCAnPG91dGZpbGUubWFlPic=

>  <r_lp_tautomer_probability>  (247) 
1

>  <r_epik_Ionization_Penalty>  (247) 
0.000108156

>  <r_epik_Ionization_Penalty_Charging>  (247) 
0

>  <r_epik_Ionization_Penalty_Neutral>  (247) 
0.000108156

>  <r_epik_State_Penalty>  (247) 
-0

>  <r_epik_Charging_Adjusted_Penalty>  (247) 
0

>  <i_epik_Tot_Q>  (247) 
0

>  <i_epik_Tot_abs_Q>  (247) 
0

>  <s_epik_Chemistry_Notes>  (247) 
This compound contains an acetal/aminal-like group ( X-CH(R)-Y where X, Y are N, S, or O) that may be acid/base labile, releasing an aldehyde.

>  <s_lp_Force_Field>  (247) 
OPLS3e

>  <r_lp_Energy>  (247) 
49.272

>  <b_lp_Chiralities_Consistent>  (247) 
1

>  <s_lp_Variant>  (247) 
74:0-1

>  <s_i_glide_gridfile>  (247) 
pfpi4k_grid

>  <i_i_glide_lignum>  (247) 
30

>  <i_i_glide_rotatable_bonds>  (247) 
2

>  <r_i_docking_score>  (247) 
-3.20844

>  <r_i_glide_ligand_efficiency>  (247) 
-0.145838

>  <r_i_glide_ligand_efficiency_sa>  (247) 
-0.408644

>  <r_i_glide_ligand_efficiency_ln>  (247) 
-0.784259

>  <r_i_glide_gscore>  (247) 
-3.20844

>  <r_i_glide_lipo>  (247) 
-0.246253

>  <r_i_glide_hbond>  (247) 
-0.144193

>  <r_i_glide_metal>  (247) 
-0

>  <r_i_glide_rewards>  (247) 
-1.93127

>  <r_i_glide_evdw>  (247) 
-7.00824

>  <r_i_glide_ecoul>  (247) 
-3.42442

>  <r_i_glide_erotb>  (247) 
0

>  <r_i_glide_esite>  (247) 
-0.0226408

>  <r_i_glide_emodel>  (247) 
-18.6852

>  <r_i_glide_energy>  (247) 
-10.4327

>  <r_i_glide_einternal>  (247) 
0.157439

>  <r_i_glide_intrahb_reward>  (247) 
-0.5

>  <i_i_glide_confnum>  (247) 
2

>  <i_i_glide_posenum>  (247) 
21

>  <r_i_glide_eff_state_penalty>  (247) 
0

>  <ligand_id>  (247) 
74

>  <original_smiles>  (247) 
CC12CCC3OC(O)C(CC1)C1(OOC(C)(C)C1O2)C3C=O

>  <smiles>  (247) 
[H]OC1([H])OC2([H])C([H])([H])C([H])([H])C3(C([H])([H])[H])OC4([H])C(C([H])([H])[H])(C([H])([H])[H])OOC4(C2([H])C([H])=O)C1([H])C([H])([H])C3([H])[H]

$$$$
75:0:0
     RDKit          3D

 68 72  0  0  1  0  0  0  0  0999 V2000
    6.8139   -4.5024    1.2883 C   0  0  0  0  0  0  0  0  0  0  0  0
    5.5461   -4.0596    1.3578 C   0  0  0  0  0  0  0  0  0  0  0  0
    4.9585   -3.4507    0.0986 C   0  0  1  0  0  0  0  0  0  0  0  0
    4.4333   -4.4684   -0.7133 O   0  0  0  0  0  0  0  0  0  0  0  0
    3.9787   -2.2865    0.3248 C   0  0  1  0  0  0  0  0  0  0  0  0
    2.6313   -2.6891    0.1179 O   0  0  0  0  0  0  0  0  0  0  0  0
    4.1814   -1.5454    1.6852 C   0  0  0  0  0  0  0  0  0  0  0  0
    5.5357   -0.7896    1.5681 C   0  0  0  0  0  0  0  0  0  0  0  0
    3.1218   -0.4053    1.6885 C   0  0  0  0  0  0  0  0  0  0  0  0
    4.2467   -2.5063    2.9886 C   0  0  1  0  0  0  0  0  0  0  0  0
    3.2557   -2.0738    4.2313 C   0  0  1  0  0  0  0  0  0  0  0  0
    3.3192   -0.6821    4.4647 O   0  0  0  0  0  0  0  0  0  0  0  0
    1.7728   -2.6199    4.5330 C   0  0  0  0  0  0  0  0  0  0  0  0
    1.1120   -1.6239    5.2911 O   0  0  0  0  0  0  0  0  0  0  0  0
    1.1382   -2.7175    3.2926 O   0  0  0  0  0  0  0  0  0  0  0  0
    1.6494   -4.0366    5.3475 C   0  0  1  0  0  0  0  0  0  0  0  0
    0.9726   -3.8390    6.5664 O   0  0  0  0  0  0  0  0  0  0  0  0
    0.6299   -5.2197    4.5226 C   0  0  0  0  0  0  0  0  0  0  0  0
    1.0470   -6.5495    3.4731 C   0  0  1  0  0  0  0  0  0  0  0  0
   -0.0481   -6.6417    2.5675 O   0  0  0  0  0  0  0  0  0  0  0  0
    2.4914   -7.0112    2.6033 C   0  0  1  0  0  0  0  0  0  0  0  0
    2.1915   -8.3493    1.8974 C   0  0  0  0  0  0  0  0  0  0  0  0
    2.9779   -6.0027    1.5855 C   0  0  0  0  0  0  0  0  0  0  0  0
    3.3321   -4.7778    2.4041 C   0  0  1  0  0  0  0  0  0  0  0  0
    2.9497   -4.8729    3.7193 O   0  0  0  0  0  0  0  0  0  0  0  0
    3.1090   -5.5964    5.0339 C   0  0  0  0  0  0  0  0  0  0  0  0
    3.1309   -6.7571    5.4681 O   0  0  0  0  0  0  0  0  0  0  0  0
    3.1907   -4.5141    5.8575 C   0  0  1  0  0  0  0  0  0  0  0  0
    4.7746   -4.4395    5.3085 C   0  0  1  0  0  0  0  0  0  0  0  0
    5.5991   -5.1346    6.2322 O   0  0  0  0  0  0  0  0  0  0  0  0
    5.2956   -4.9354    3.7983 C   0  0  1  0  0  0  0  0  0  0  0  0
    5.1388   -6.5413    3.3568 C   0  0  0  0  0  0  0  0  0  0  0  0
    3.8500   -7.3596    3.1991 O   0  0  0  0  0  0  0  0  0  0  0  0
    4.6540   -4.0512    2.6304 C   0  0  1  0  0  0  0  0  0  0  0  0
    7.3669   -4.9350    2.1069 H   0  0  0  0  0  0  0  0  0  0  0  0
    7.3487   -4.4475    0.3496 H   0  0  0  0  0  0  0  0  0  0  0  0
    5.7986   -3.0379   -0.4593 H   0  0  0  0  0  0  0  0  0  0  0  0
    3.9574   -4.0845   -1.4374 H   0  0  0  0  0  0  0  0  0  0  0  0
    4.1625   -1.5744   -0.4828 H   0  0  0  0  0  0  0  0  0  0  0  0
    2.0866   -1.9600   -0.1773 H   0  0  0  0  0  0  0  0  0  0  0  0
    5.7216   -0.1511    2.4338 H   0  0  0  0  0  0  0  0  0  0  0  0
    5.5655   -0.1465    0.6842 H   0  0  0  0  0  0  0  0  0  0  0  0
    6.3864   -1.4691    1.4939 H   0  0  0  0  0  0  0  0  0  0  0  0
    3.4002    0.4358    2.3259 H   0  0  0  0  0  0  0  0  0  0  0  0
    2.1358   -0.7499    1.9912 H   0  0  0  0  0  0  0  0  0  0  0  0
    2.9951    0.0290    0.6963 H   0  0  0  0  0  0  0  0  0  0  0  0
    5.1950   -2.2049    3.4311 H   0  0  0  0  0  0  0  0  0  0  0  0
    3.7550   -2.2200    5.1672 H   0  0  0  0  0  0  0  0  0  0  0  0
    4.2314   -0.4376    4.5250 H   0  0  0  0  0  0  0  0  0  0  0  0
    1.4460   -0.7894    4.9755 H   0  0  0  0  0  0  0  0  0  0  0  0
    1.4126   -1.9822    2.7640 H   0  0  0  0  0  0  0  0  0  0  0  0
    0.9998   -4.6480    7.0589 H   0  0  0  0  0  0  0  0  0  0  0  0
    0.0717   -5.7098    5.3173 H   0  0  0  0  0  0  0  0  0  0  0  0
   -0.1497   -4.6452    4.0348 H   0  0  0  0  0  0  0  0  0  0  0  0
    0.9121   -7.4138    4.1314 H   0  0  0  0  0  0  0  0  0  0  0  0
   -0.0517   -7.5350    2.2397 H   0  0  0  0  0  0  0  0  0  0  0  0
    1.3534   -8.2787    1.2061 H   0  0  0  0  0  0  0  0  0  0  0  0
    1.9678   -9.1291    2.6268 H   0  0  0  0  0  0  0  0  0  0  0  0
    3.0517   -8.6903    1.3173 H   0  0  0  0  0  0  0  0  0  0  0  0
    3.8104   -6.3816    0.9873 H   0  0  0  0  0  0  0  0  0  0  0  0
    2.1619   -5.7683    0.9010 H   0  0  0  0  0  0  0  0  0  0  0  0
    2.6646   -4.0414    1.9737 H   0  0  0  0  0  0  0  0  0  0  0  0
    3.1618   -4.8455    6.9015 H   0  0  0  0  0  0  0  0  0  0  0  0
    5.2167   -3.4585    5.4678 H   0  0  0  0  0  0  0  0  0  0  0  0
    5.3783   -6.0573    6.2033 H   0  0  0  0  0  0  0  0  0  0  0  0
    6.3537   -4.7317    3.8633 H   0  0  0  0  0  0  0  0  0  0  0  0
    5.7115   -6.7042    2.4399 H   0  0  0  0  0  0  0  0  0  0  0  0
    5.6913   -7.0939    4.1177 H   0  0  0  0  0  0  0  0  0  0  0  0
  1  2  2  0
  1 35  1  0
  1 36  1  0
 34  2  1  6
  2  3  1  0
  3  4  1  0
  3  5  1  0
  3 37  1  6
  4 38  1  0
  5  6  1  0
  5  7  1  0
  5 39  1  6
  6 40  1  0
  7  8  1  0
  7  9  1  0
  7 10  1  0
  8 41  1  0
  8 42  1  0
  8 43  1  0
  9 44  1  0
  9 45  1  0
  9 46  1  0
 10 34  1  0
 10 11  1  0
 10 47  1  1
 11 12  1  0
 11 13  1  0
 11 48  1  1
 12 49  1  0
 13 14  1  0
 13 15  1  0
 13 16  1  0
 14 50  1  0
 15 51  1  0
 16 28  1  0
 16 17  1  1
 16 18  1  0
 17 52  1  0
 18 19  1  0
 18 53  1  0
 18 54  1  0
 19 20  1  0
 19 21  1  0
 19 55  1  1
 20 56  1  0
 21 33  1  0
 21 22  1  6
 21 23  1  0
 22 57  1  0
 22 58  1  0
 22 59  1  0
 23 24  1  0
 23 60  1  0
 23 61  1  0
 24 34  1  0
 24 25  1  0
 24 62  1  6
 25 26  1  0
 26 27  2  0
 26 28  1  0
 28 29  1  0
 28 63  1  1
 29 30  1  0
 29 31  1  0
 29 64  1  6
 30 65  1  0
 31 32  1  0
 31 34  1  0
 31 66  1  1
 32 33  1  0
 32 67  1  0
 32 68  1  0
M  END
>  <i_m_ct_stereo_status>  (248) 
1

>  <s_m_source_file>  (248) 
/var/tmp/pbs.5076255.sched01/tmpnx1894nc/68p53si2vm.sdf

>  <i_m_source_file_index>  (248) 
31

>  <i_lp_mmshare_version>  (248) 
48012

>  <i_f3d_flags>  (248) 
0

>  <s_epik_input>  (248) 
W0NIMl09QzFbQ0BASF0oW09IXSlbQ0BASF0oW09IXSlDKFtDSDNdKShbQ0gzXSlbQ0BIXShbQ0BdMTIzKVtDQEBIXShbT0hdKUMoW09IXSkoW09IXSlbQ0BdNChbT0hdKVtDQEhdNUMoPU8pT1tDQEBIXTJbQ0gyXVtDQF0oW0NIM10pKFtDQEBIXShbQ0gyXTQpW09IXSlPW0NIMl1bQ0BASF0zW0NAQEhdNVtPSF0=

>  <s_epik_cmdline>  (248) 
J2VwaWtfcHl0aG9uJywgJy1waHQnLCAnMi4wJywgJy1waCcsICc3LjAnLCAnLXRuJywgJzgnLCAnLW1hJywgJzIwMCcsICctaW1hZScsICc8aW5maWxlLm1hZT4nLCAnLW9tYWUnLCAnPG91dGZpbGUubWFlPic=

>  <r_lp_tautomer_probability>  (248) 
1

>  <r_epik_Ionization_Penalty>  (248) 
2.63217e-06

>  <r_epik_Ionization_Penalty_Charging>  (248) 
0

>  <r_epik_Ionization_Penalty_Neutral>  (248) 
2.63217e-06

>  <r_epik_State_Penalty>  (248) 
-0

>  <r_epik_Charging_Adjusted_Penalty>  (248) 
0

>  <i_epik_Tot_Q>  (248) 
0

>  <i_epik_Tot_abs_Q>  (248) 
0

>  <s_epik_Chemistry_Notes>  (248) 
This compound has an ester and may undergo hydrolysis at high or low pH.

>  <s_lp_Force_Field>  (248) 
OPLS3e

>  <r_lp_Energy>  (248) 
463.126

>  <b_lp_Chiralities_Consistent>  (248) 
1

>  <s_lp_Variant>  (248) 
75:0-1

>  <s_i_glide_gridfile>  (248) 
pfpi4k_grid

>  <i_i_glide_lignum>  (248) 
31

>  <i_i_glide_rotatable_bonds>  (248) 
8

>  <r_i_docking_score>  (248) 
-2.65161

>  <r_i_glide_ligand_efficiency>  (248) 
-0.0779884

>  <r_i_glide_ligand_efficiency_sa>  (248) 
-0.252652

>  <r_i_glide_ligand_efficiency_ln>  (248) 
-0.585814

>  <r_i_glide_gscore>  (248) 
-2.65161

>  <r_i_glide_lipo>  (248) 
-0.353624

>  <r_i_glide_hbond>  (248) 
-0.158125

>  <r_i_glide_metal>  (248) 
-0

>  <r_i_glide_rewards>  (248) 
-0.0946269

>  <r_i_glide_evdw>  (248) 
-24.7216

>  <r_i_glide_ecoul>  (248) 
-5.39436

>  <r_i_glide_erotb>  (248) 
0

>  <r_i_glide_esite>  (248) 
0

>  <r_i_glide_emodel>  (248) 
-34.3498

>  <r_i_glide_energy>  (248) 
-30.1159

>  <r_i_glide_einternal>  (248) 
2.06931

>  <r_i_glide_intrahb_reward>  (248) 
-0

>  <i_i_glide_confnum>  (248) 
1

>  <i_i_glide_posenum>  (248) 
7

>  <r_i_glide_eff_state_penalty>  (248) 
0

>  <ligand_id>  (248) 
75

>  <original_smiles>  (248) 
C=C1C(O)C(O)C(C)(C)C2C(O)C(O)(O)C3(O)CC(O)C4(C)CC5OC(=O)C3C(O)C(CO4)C152

>  <smiles>  (248) 
[H]OC1([H])C(=C([H])[H])C23C4([H])OC(=O)C5([H])C([H])(O[H])C2([H])C([H])([H])OC(C([H])([H])[H])(C4([H])[H])C([H])(O[H])C([H])([H])C5(O[H])C(O[H])(O[H])C([H])(O[H])C3([H])C(C([H])([H])[H])(C([H])([H])[H])C1([H])O[H]

$$$$
75:0:1
     RDKit          3D

 68 72  0  0  1  0  0  0  0  0999 V2000
    6.8086   -4.5379    1.3018 C   0  0  0  0  0  0  0  0  0  0  0  0
    5.5369   -4.0886    1.3696 C   0  0  0  0  0  0  0  0  0  0  0  0
    4.9567   -3.4646    0.1180 C   0  0  1  0  0  0  0  0  0  0  0  0
    4.4167   -4.4487   -0.7219 O   0  0  0  0  0  0  0  0  0  0  0  0
    3.9750   -2.2953    0.3513 C   0  0  1  0  0  0  0  0  0  0  0  0
    2.6113   -2.6548    0.1899 O   0  0  0  0  0  0  0  0  0  0  0  0
    4.1919   -1.5584    1.7091 C   0  0  0  0  0  0  0  0  0  0  0  0
    5.5491   -0.8154    1.5937 C   0  0  0  0  0  0  0  0  0  0  0  0
    3.1397   -0.4116    1.7137 C   0  0  0  0  0  0  0  0  0  0  0  0
    4.2424   -2.5225    3.0087 C   0  0  1  0  0  0  0  0  0  0  0  0
    3.2405   -2.0863    4.2454 C   0  0  1  0  0  0  0  0  0  0  0  0
    3.2983   -0.6971    4.5038 O   0  0  0  0  0  0  0  0  0  0  0  0
    1.7579   -2.6351    4.5374 C   0  0  0  0  0  0  0  0  0  0  0  0
    1.0815   -1.6569    5.3045 O   0  0  0  0  0  0  0  0  0  0  0  0
    1.1223   -2.7336    3.2968 O   0  0  0  0  0  0  0  0  0  0  0  0
    1.6319   -4.0557    5.3459 C   0  0  1  0  0  0  0  0  0  0  0  0
    0.9507   -3.8603    6.5615 O   0  0  0  0  0  0  0  0  0  0  0  0
    0.6122   -5.2309    4.5130 C   0  0  0  0  0  0  0  0  0  0  0  0
    1.0263   -6.5598    3.4587 C   0  0  1  0  0  0  0  0  0  0  0  0
   -0.0666   -6.6413    2.5533 O   0  0  0  0  0  0  0  0  0  0  0  0
    2.4691   -7.0216    2.5954 C   0  0  1  0  0  0  0  0  0  0  0  0
    2.1662   -8.3546    1.8841 C   0  0  0  0  0  0  0  0  0  0  0  0
    2.9659   -6.0136    1.5838 C   0  0  0  0  0  0  0  0  0  0  0  0
    3.3235   -4.7963    2.4081 C   0  0  1  0  0  0  0  0  0  0  0  0
    2.9344   -4.8915    3.7229 O   0  0  0  0  0  0  0  0  0  0  0  0
    3.0828   -5.6218    5.0349 C   0  0  0  0  0  0  0  0  0  0  0  0
    3.0989   -6.7800    5.4623 O   0  0  0  0  0  0  0  0  0  0  0  0
    3.1672   -4.5408    5.8591 C   0  0  1  0  0  0  0  0  0  0  0  0
    4.7541   -4.4715    5.3181 C   0  0  1  0  0  0  0  0  0  0  0  0
    5.5706   -5.1749    6.2409 O   0  0  0  0  0  0  0  0  0  0  0  0
    5.2775   -4.9658    3.8088 C   0  0  1  0  0  0  0  0  0  0  0  0
    5.1156   -6.5696    3.3620 C   0  0  0  0  0  0  0  0  0  0  0  0
    3.8231   -7.3811    3.1929 O   0  0  0  0  0  0  0  0  0  0  0  0
    4.6460   -4.0733    2.6422 C   0  0  1  0  0  0  0  0  0  0  0  0
    7.3572   -4.9703    2.1227 H   0  0  0  0  0  0  0  0  0  0  0  0
    7.3532   -4.4751    0.3712 H   0  0  0  0  0  0  0  0  0  0  0  0
    5.8010   -3.0517   -0.4279 H   0  0  0  0  0  0  0  0  0  0  0  0
    5.1016   -5.0491   -0.9849 H   0  0  0  0  0  0  0  0  0  0  0  0
    4.1622   -1.5939   -0.4672 H   0  0  0  0  0  0  0  0  0  0  0  0
    2.0920   -1.9554   -0.1877 H   0  0  0  0  0  0  0  0  0  0  0  0
    5.7352   -0.1823    2.4645 H   0  0  0  0  0  0  0  0  0  0  0  0
    5.5852   -0.1694    0.7111 H   0  0  0  0  0  0  0  0  0  0  0  0
    6.3958   -1.5003    1.5212 H   0  0  0  0  0  0  0  0  0  0  0  0
    3.4279    0.4368    2.3382 H   0  0  0  0  0  0  0  0  0  0  0  0
    2.1468   -0.7507    2.0039 H   0  0  0  0  0  0  0  0  0  0  0  0
    3.0176    0.0166    0.7179 H   0  0  0  0  0  0  0  0  0  0  0  0
    5.1891   -2.2240    3.4578 H   0  0  0  0  0  0  0  0  0  0  0  0
    3.7437   -2.2407    5.1789 H   0  0  0  0  0  0  0  0  0  0  0  0
    3.0781   -0.2217    3.7123 H   0  0  0  0  0  0  0  0  0  0  0  0
    1.3981   -0.8076    5.0152 H   0  0  0  0  0  0  0  0  0  0  0  0
    1.3874   -2.0001    2.7582 H   0  0  0  0  0  0  0  0  0  0  0  0
    0.9810   -4.6685    7.0556 H   0  0  0  0  0  0  0  0  0  0  0  0
    0.0448   -5.7199    5.3032 H   0  0  0  0  0  0  0  0  0  0  0  0
   -0.1615   -4.6548    4.0257 H   0  0  0  0  0  0  0  0  0  0  0  0
    0.8821   -7.4231    4.1135 H   0  0  0  0  0  0  0  0  0  0  0  0
   -0.0729   -7.5344    2.2152 H   0  0  0  0  0  0  0  0  0  0  0  0
    1.3311   -8.2785    1.1887 H   0  0  0  0  0  0  0  0  0  0  0  0
    1.9336   -9.1388    2.6068 H   0  0  0  0  0  0  0  0  0  0  0  0
    3.0242   -8.7014    1.3060 H   0  0  0  0  0  0  0  0  0  0  0  0
    3.7964   -6.3961    0.9875 H   0  0  0  0  0  0  0  0  0  0  0  0
    2.1522   -5.7715    0.8979 H   0  0  0  0  0  0  0  0  0  0  0  0
    2.6614   -4.0572    1.9835 H   0  0  0  0  0  0  0  0  0  0  0  0
    3.1339   -4.8777    6.8999 H   0  0  0  0  0  0  0  0  0  0  0  0
    5.1966   -3.4931    5.4838 H   0  0  0  0  0  0  0  0  0  0  0  0
    5.3483   -6.0982    6.2049 H   0  0  0  0  0  0  0  0  0  0  0  0
    6.3332   -4.7677    3.8810 H   0  0  0  0  0  0  0  0  0  0  0  0
    5.6935   -6.7314    2.4488 H   0  0  0  0  0  0  0  0  0  0  0  0
    5.6610   -7.1267    4.1257 H   0  0  0  0  0  0  0  0  0  0  0  0
  1  2  2  0
  1 35  1  0
  1 36  1  0
 34  2  1  6
  2  3  1  0
  3  4  1  0
  3  5  1  0
  3 37  1  6
  4 38  1  0
  5  6  1  0
  5  7  1  0
  5 39  1  6
  6 40  1  0
  7  8  1  0
  7  9  1  0
  7 10  1  0
  8 41  1  0
  8 42  1  0
  8 43  1  0
  9 44  1  0
  9 45  1  0
  9 46  1  0
 10 34  1  0
 10 11  1  0
 10 47  1  1
 11 12  1  0
 11 13  1  0
 11 48  1  1
 12 49  1  0
 13 14  1  0
 13 15  1  0
 13 16  1  0
 14 50  1  0
 15 51  1  0
 16 28  1  0
 16 17  1  1
 16 18  1  0
 17 52  1  0
 18 19  1  0
 18 53  1  0
 18 54  1  0
 19 20  1  0
 19 21  1  0
 19 55  1  1
 20 56  1  0
 21 33  1  0
 21 22  1  6
 21 23  1  0
 22 57  1  0
 22 58  1  0
 22 59  1  0
 23 24  1  0
 23 60  1  0
 23 61  1  0
 24 34  1  0
 24 25  1  0
 24 62  1  6
 25 26  1  0
 26 27  2  0
 26 28  1  0
 28 29  1  0
 28 63  1  1
 29 30  1  0
 29 31  1  0
 29 64  1  6
 30 65  1  0
 31 32  1  0
 31 34  1  0
 31 66  1  1
 32 33  1  0
 32 67  1  0
 32 68  1  0
M  END
>  <i_m_ct_stereo_status>  (249) 
1

>  <s_m_source_file>  (249) 
/var/tmp/pbs.5076255.sched01/tmpnx1894nc/68p53si2vm.sdf

>  <i_m_source_file_index>  (249) 
31

>  <i_lp_mmshare_version>  (249) 
48012

>  <i_f3d_flags>  (249) 
0

>  <s_epik_input>  (249) 
W0NIMl09QzFbQ0BASF0oW09IXSlbQ0BASF0oW09IXSlDKFtDSDNdKShbQ0gzXSlbQ0BIXShbQ0BdMTIzKVtDQEBIXShbT0hdKUMoW09IXSkoW09IXSlbQ0BdNChbT0hdKVtDQEhdNUMoPU8pT1tDQEBIXTJbQ0gyXVtDQF0oW0NIM10pKFtDQEBIXShbQ0gyXTQpW09IXSlPW0NIMl1bQ0BASF0zW0NAQEhdNVtPSF0=

>  <s_epik_cmdline>  (249) 
J2VwaWtfcHl0aG9uJywgJy1waHQnLCAnMi4wJywgJy1waCcsICc3LjAnLCAnLXRuJywgJzgnLCAnLW1hJywgJzIwMCcsICctaW1hZScsICc8aW5maWxlLm1hZT4nLCAnLW9tYWUnLCAnPG91dGZpbGUubWFlPic=

>  <r_lp_tautomer_probability>  (249) 
1

>  <r_epik_Ionization_Penalty>  (249) 
2.63217e-06

>  <r_epik_Ionization_Penalty_Charging>  (249) 
0

>  <r_epik_Ionization_Penalty_Neutral>  (249) 
2.63217e-06

>  <r_epik_State_Penalty>  (249) 
-0

>  <r_epik_Charging_Adjusted_Penalty>  (249) 
0

>  <i_epik_Tot_Q>  (249) 
0

>  <i_epik_Tot_abs_Q>  (249) 
0

>  <s_epik_Chemistry_Notes>  (249) 
This compound has an ester and may undergo hydrolysis at high or low pH.

>  <s_lp_Force_Field>  (249) 
OPLS3e

>  <r_lp_Energy>  (249) 
463.126

>  <b_lp_Chiralities_Consistent>  (249) 
1

>  <s_lp_Variant>  (249) 
75:0-1

>  <s_i_glide_gridfile>  (249) 
pfpi4k_grid

>  <i_i_glide_lignum>  (249) 
31

>  <i_i_glide_rotatable_bonds>  (249) 
8

>  <r_i_docking_score>  (249) 
-2.5499

>  <r_i_glide_ligand_efficiency>  (249) 
-0.074997

>  <r_i_glide_ligand_efficiency_sa>  (249) 
-0.242961

>  <r_i_glide_ligand_efficiency_ln>  (249) 
-0.563344

>  <r_i_glide_gscore>  (249) 
-2.5499

>  <r_i_glide_lipo>  (249) 
-0.349531

>  <r_i_glide_hbond>  (249) 
-0.16

>  <r_i_glide_metal>  (249) 
-0

>  <r_i_glide_rewards>  (249) 
-0.0948866

>  <r_i_glide_evdw>  (249) 
-24.6496

>  <r_i_glide_ecoul>  (249) 
-4.75334

>  <r_i_glide_erotb>  (249) 
0

>  <r_i_glide_esite>  (249) 
0

>  <r_i_glide_emodel>  (249) 
-33.8147

>  <r_i_glide_energy>  (249) 
-29.4029

>  <r_i_glide_einternal>  (249) 
1.49498

>  <r_i_glide_intrahb_reward>  (249) 
-0

>  <i_i_glide_confnum>  (249) 
1

>  <i_i_glide_posenum>  (249) 
35

>  <r_i_glide_eff_state_penalty>  (249) 
0

>  <ligand_id>  (249) 
75

>  <original_smiles>  (249) 
C=C1C(O)C(O)C(C)(C)C2C(O)C(O)(O)C3(O)CC(O)C4(C)CC5OC(=O)C3C(O)C(CO4)C152

>  <smiles>  (249) 
[H]OC1([H])C(=C([H])[H])C23C4([H])OC(=O)C5([H])C([H])(O[H])C2([H])C([H])([H])OC(C([H])([H])[H])(C4([H])[H])C([H])(O[H])C([H])([H])C5(O[H])C(O[H])(O[H])C([H])(O[H])C3([H])C(C([H])([H])[H])(C([H])([H])[H])C1([H])O[H]

$$$$
75:0:2
     RDKit          3D

 68 72  0  0  1  0  0  0  0  0999 V2000
    6.7901   -4.6167    1.3135 C   0  0  0  0  0  0  0  0  0  0  0  0
    5.5274   -4.1553    1.3934 C   0  0  0  0  0  0  0  0  0  0  0  0
    4.9454   -3.4999    0.1544 C   0  0  1  0  0  0  0  0  0  0  0  0
    4.3932   -4.4574   -0.7083 O   0  0  0  0  0  0  0  0  0  0  0  0
    3.9835   -2.3185    0.4144 C   0  0  1  0  0  0  0  0  0  0  0  0
    2.6186   -2.6772    0.2502 O   0  0  0  0  0  0  0  0  0  0  0  0
    4.2201   -1.6084    1.7824 C   0  0  0  0  0  0  0  0  0  0  0  0
    5.5901   -0.8792    1.6712 C   0  0  0  0  0  0  0  0  0  0  0  0
    3.1826   -0.4459    1.8199 C   0  0  0  0  0  0  0  0  0  0  0  0
    4.2712   -2.5953    3.0658 C   0  0  1  0  0  0  0  0  0  0  0  0
    3.2881   -2.1678    4.3172 C   0  0  1  0  0  0  0  0  0  0  0  0
    3.4194   -0.7943    4.6159 O   0  0  0  0  0  0  0  0  0  0  0  0
    1.7951   -2.6957    4.6170 C   0  0  0  0  0  0  0  0  0  0  0  0
    1.1471   -1.7118    5.4085 O   0  0  0  0  0  0  0  0  0  0  0  0
    1.1561   -2.7552    3.3712 O   0  0  0  0  0  0  0  0  0  0  0  0
    1.6499   -4.1269    5.3981 C   0  0  1  0  0  0  0  0  0  0  0  0
    0.9717   -3.9463    6.6239 O   0  0  0  0  0  0  0  0  0  0  0  0
    0.6075   -5.2705    4.5531 C   0  0  0  0  0  0  0  0  0  0  0  0
    0.9948   -6.5912    3.4818 C   0  0  1  0  0  0  0  0  0  0  0  0
   -0.1058   -6.6467    2.5821 O   0  0  0  0  0  0  0  0  0  0  0  0
    2.4244   -7.0585    2.5997 C   0  0  1  0  0  0  0  0  0  0  0  0
    2.0968   -8.3766    1.8701 C   0  0  0  0  0  0  0  0  0  0  0  0
    2.9262   -6.0424    1.5988 C   0  0  0  0  0  0  0  0  0  0  0  0
    3.3086   -4.8437    2.4378 C   0  0  1  0  0  0  0  0  0  0  0  0
    2.9297   -4.9511    3.7572 O   0  0  0  0  0  0  0  0  0  0  0  0
    3.0751   -5.7076    5.0525 C   0  0  0  0  0  0  0  0  0  0  0  0
    3.0843   -6.8738    5.4610 O   0  0  0  0  0  0  0  0  0  0  0  0
    3.1791   -4.6423    5.8971 C   0  0  1  0  0  0  0  0  0  0  0  0
    4.7653   -4.5854    5.3463 C   0  0  1  0  0  0  0  0  0  0  0  0
    5.5780   -5.3129    6.2547 O   0  0  0  0  0  0  0  0  0  0  0  0
    5.2730   -5.0619    3.8244 C   0  0  1  0  0  0  0  0  0  0  0  0
    5.0849   -6.6554    3.3538 C   0  0  0  0  0  0  0  0  0  0  0  0
    3.7800   -7.4451    3.1775 O   0  0  0  0  0  0  0  0  0  0  0  0
    4.6454   -4.1443    2.6736 C   0  0  1  0  0  0  0  0  0  0  0  0
    7.3398   -5.0629    2.1260 H   0  0  0  0  0  0  0  0  0  0  0  0
    7.3317   -4.5455    0.3808 H   0  0  0  0  0  0  0  0  0  0  0  0
    5.7966   -3.0852   -0.3906 H   0  0  0  0  0  0  0  0  0  0  0  0
    5.0645   -5.0644   -0.9843 H   0  0  0  0  0  0  0  0  0  0  0  0
    4.1754   -1.6078   -0.3889 H   0  0  0  0  0  0  0  0  0  0  0  0
    2.1150   -1.9438   -0.1123 H   0  0  0  0  0  0  0  0  0  0  0  0
    5.7891   -0.2603    2.5498 H   0  0  0  0  0  0  0  0  0  0  0  0
    5.6276   -0.2218    0.7993 H   0  0  0  0  0  0  0  0  0  0  0  0
    6.4244   -1.5761    1.5832 H   0  0  0  0  0  0  0  0  0  0  0  0
    3.4831    0.3855    2.4591 H   0  0  0  0  0  0  0  0  0  0  0  0
    2.1879   -0.7766    2.1137 H   0  0  0  0  0  0  0  0  0  0  0  0
    3.0580    0.0033    0.8330 H   0  0  0  0  0  0  0  0  0  0  0  0
    5.2243   -2.3165    3.5146 H   0  0  0  0  0  0  0  0  0  0  0  0
    3.7928   -2.3518    5.2429 H   0  0  0  0  0  0  0  0  0  0  0  0
    3.0659   -0.2941    3.8931 H   0  0  0  0  0  0  0  0  0  0  0  0
    1.7438   -1.4633    6.1021 H   0  0  0  0  0  0  0  0  0  0  0  0
    1.3959   -1.9840    2.8763 H   0  0  0  0  0  0  0  0  0  0  0  0
    1.5094   -3.4092    7.1951 H   0  0  0  0  0  0  0  0  0  0  0  0
    0.0395   -5.7529    5.3457 H   0  0  0  0  0  0  0  0  0  0  0  0
   -0.1628   -4.6736    4.0772 H   0  0  0  0  0  0  0  0  0  0  0  0
    0.8395   -7.4589    4.1271 H   0  0  0  0  0  0  0  0  0  0  0  0
   -0.1255   -7.5329    2.2332 H   0  0  0  0  0  0  0  0  0  0  0  0
    1.2583   -8.2748    1.1824 H   0  0  0  0  0  0  0  0  0  0  0  0
    1.8580   -9.1704    2.5805 H   0  0  0  0  0  0  0  0  0  0  0  0
    2.9456   -8.7274    1.2804 H   0  0  0  0  0  0  0  0  0  0  0  0
    3.7466   -6.4241    0.9894 H   0  0  0  0  0  0  0  0  0  0  0  0
    2.1114   -5.7786    0.9228 H   0  0  0  0  0  0  0  0  0  0  0  0
    2.6548   -4.0861    2.0298 H   0  0  0  0  0  0  0  0  0  0  0  0
    3.1453   -5.0017    6.9322 H   0  0  0  0  0  0  0  0  0  0  0  0
    5.2271   -3.6158    5.5252 H   0  0  0  0  0  0  0  0  0  0  0  0
    5.3465   -6.2319    6.2018 H   0  0  0  0  0  0  0  0  0  0  0  0
    6.3357   -4.8776    3.8906 H   0  0  0  0  0  0  0  0  0  0  0  0
    5.6596   -6.8136    2.4379 H   0  0  0  0  0  0  0  0  0  0  0  0
    5.6241   -7.2319    4.1069 H   0  0  0  0  0  0  0  0  0  0  0  0
  1  2  2  0
  1 35  1  0
  1 36  1  0
 34  2  1  6
  2  3  1  0
  3  4  1  0
  3  5  1  0
  3 37  1  6
  4 38  1  0
  5  6  1  0
  5  7  1  0
  5 39  1  6
  6 40  1  0
  7  8  1  0
  7  9  1  0
  7 10  1  0
  8 41  1  0
  8 42  1  0
  8 43  1  0
  9 44  1  0
  9 45  1  0
  9 46  1  0
 10 34  1  0
 10 11  1  0
 10 47  1  1
 11 12  1  0
 11 13  1  0
 11 48  1  1
 12 49  1  0
 13 14  1  0
 13 15  1  0
 13 16  1  0
 14 50  1  0
 15 51  1  0
 16 28  1  0
 16 17  1  1
 16 18  1  0
 17 52  1  0
 18 19  1  0
 18 53  1  0
 18 54  1  0
 19 20  1  0
 19 21  1  0
 19 55  1  1
 20 56  1  0
 21 33  1  0
 21 22  1  6
 21 23  1  0
 22 57  1  0
 22 58  1  0
 22 59  1  0
 23 24  1  0
 23 60  1  0
 23 61  1  0
 24 34  1  0
 24 25  1  0
 24 62  1  6
 25 26  1  0
 26 27  2  0
 26 28  1  0
 28 29  1  0
 28 63  1  1
 29 30  1  0
 29 31  1  0
 29 64  1  6
 30 65  1  0
 31 32  1  0
 31 34  1  0
 31 66  1  1
 32 33  1  0
 32 67  1  0
 32 68  1  0
M  END
>  <i_m_ct_stereo_status>  (250) 
1

>  <s_m_source_file>  (250) 
/var/tmp/pbs.5076255.sched01/tmpnx1894nc/68p53si2vm.sdf

>  <i_m_source_file_index>  (250) 
31

>  <i_lp_mmshare_version>  (250) 
48012

>  <i_f3d_flags>  (250) 
0

>  <s_epik_input>  (250) 
W0NIMl09QzFbQ0BASF0oW09IXSlbQ0BASF0oW09IXSlDKFtDSDNdKShbQ0gzXSlbQ0BIXShbQ0BdMTIzKVtDQEBIXShbT0hdKUMoW09IXSkoW09IXSlbQ0BdNChbT0hdKVtDQEhdNUMoPU8pT1tDQEBIXTJbQ0gyXVtDQF0oW0NIM10pKFtDQEBIXShbQ0gyXTQpW09IXSlPW0NIMl1bQ0BASF0zW0NAQEhdNVtPSF0=

>  <s_epik_cmdline>  (250) 
J2VwaWtfcHl0aG9uJywgJy1waHQnLCAnMi4wJywgJy1waCcsICc3LjAnLCAnLXRuJywgJzgnLCAnLW1hJywgJzIwMCcsICctaW1hZScsICc8aW5maWxlLm1hZT4nLCAnLW9tYWUnLCAnPG91dGZpbGUubWFlPic=

>  <r_lp_tautomer_probability>  (250) 
1

>  <r_epik_Ionization_Penalty>  (250) 
2.63217e-06

>  <r_epik_Ionization_Penalty_Charging>  (250) 
0

>  <r_epik_Ionization_Penalty_Neutral>  (250) 
2.63217e-06

>  <r_epik_State_Penalty>  (250) 
-0

>  <r_epik_Charging_Adjusted_Penalty>  (250) 
0

>  <i_epik_Tot_Q>  (250) 
0

>  <i_epik_Tot_abs_Q>  (250) 
0

>  <s_epik_Chemistry_Notes>  (250) 
This compound has an ester and may undergo hydrolysis at high or low pH.

>  <s_lp_Force_Field>  (250) 
OPLS3e

>  <r_lp_Energy>  (250) 
463.126

>  <b_lp_Chiralities_Consistent>  (250) 
1

>  <s_lp_Variant>  (250) 
75:0-1

>  <s_i_glide_gridfile>  (250) 
pfpi4k_grid

>  <i_i_glide_lignum>  (250) 
31

>  <i_i_glide_rotatable_bonds>  (250) 
8

>  <r_i_docking_score>  (250) 
-2.4578

>  <r_i_glide_ligand_efficiency>  (250) 
-0.0722884

>  <r_i_glide_ligand_efficiency_sa>  (250) 
-0.234186

>  <r_i_glide_ligand_efficiency_ln>  (250) 
-0.542998

>  <r_i_glide_gscore>  (250) 
-2.4578

>  <r_i_glide_lipo>  (250) 
-0.342226

>  <r_i_glide_hbond>  (250) 
-0.16

>  <r_i_glide_metal>  (250) 
-0

>  <r_i_glide_rewards>  (250) 
-0.0948484

>  <r_i_glide_evdw>  (250) 
-24.906

>  <r_i_glide_ecoul>  (250) 
-4.10287

>  <r_i_glide_erotb>  (250) 
0

>  <r_i_glide_esite>  (250) 
0

>  <r_i_glide_emodel>  (250) 
-33.1104

>  <r_i_glide_energy>  (250) 
-29.0089

>  <r_i_glide_einternal>  (250) 
1.99199

>  <r_i_glide_intrahb_reward>  (250) 
-0

>  <i_i_glide_confnum>  (250) 
1

>  <i_i_glide_posenum>  (250) 
1

>  <r_i_glide_eff_state_penalty>  (250) 
0

>  <ligand_id>  (250) 
75

>  <original_smiles>  (250) 
C=C1C(O)C(O)C(C)(C)C2C(O)C(O)(O)C3(O)CC(O)C4(C)CC5OC(=O)C3C(O)C(CO4)C152

>  <smiles>  (250) 
[H]OC1([H])C(=C([H])[H])C23C4([H])OC(=O)C5([H])C([H])(O[H])C2([H])C([H])([H])OC(C([H])([H])[H])(C4([H])[H])C([H])(O[H])C([H])([H])C5(O[H])C(O[H])(O[H])C([H])(O[H])C3([H])C(C([H])([H])[H])(C([H])([H])[H])C1([H])O[H]

$$$$
77:0:0
     RDKit          3D

 38 44  0  0  1  0  0  0  0  0999 V2000
    4.3022   -1.8750   -3.7687 C   0  0  0  0  0  0  0  0  0  0  0  0
    4.9176   -3.3374   -3.2616 C   0  0  0  0  0  0  0  0  0  0  0  0
    5.5470   -3.4194   -1.8922 N   0  0  0  0  0  0  0  0  0  0  0  0
    5.3928   -4.1922   -0.5909 C   0  0  1  0  0  0  0  0  0  0  0  0
    6.2161   -3.4506    0.5994 C   0  0  1  0  0  0  0  0  0  0  0  0
    7.0245   -2.2939    0.1105 C   0  0  0  0  0  0  0  0  0  0  0  0
    5.7902   -1.4781   -0.3148 C   0  0  1  0  0  0  0  0  0  0  0  0
    5.3550   -2.1039   -1.5456 C   0  0  2  0  0  0  0  0  0  0  0  0
    3.9573   -1.5845   -1.3239 C   0  0  1  0  0  0  0  0  0  0  0  0
    4.0726   -0.7465   -2.6118 C   0  0  0  0  0  0  0  0  0  0  0  0
    2.6326   -2.1726   -1.7488 N   0  0  0  0  0  0  0  0  0  0  0  0
    2.2639   -3.5547   -1.5948 C   0  0  0  0  0  0  0  0  0  0  0  0
    2.6476   -3.9588   -0.2616 C   0  0  1  0  0  0  0  0  0  0  0  0
    4.0255   -4.3797    0.0874 C   0  0  2  0  0  0  0  0  0  0  0  0
    3.4445   -3.0352    0.6195 C   0  0  1  0  0  0  0  0  0  0  0  0
    4.3295   -1.7559    0.3076 C   0  0  2  0  0  0  0  0  0  0  0  0
    5.2883   -2.4549    1.3846 C   0  0  0  0  0  0  0  0  0  0  0  0
    3.3688   -2.0514   -4.3094 H   0  0  0  0  0  0  0  0  0  0  0  0
    4.9685   -1.4357   -4.5094 H   0  0  0  0  0  0  0  0  0  0  0  0
    4.2813   -4.1884   -3.4955 H   0  0  0  0  0  0  0  0  0  0  0  0
    5.7668   -3.5118   -3.9200 H   0  0  0  0  0  0  0  0  0  0  0  0
    5.8059   -5.1881   -0.7647 H   0  0  0  0  0  0  0  0  0  0  0  0
    6.7580   -4.1345    1.2538 H   0  0  0  0  0  0  0  0  0  0  0  0
    7.6376   -1.8235    0.8826 H   0  0  0  0  0  0  0  0  0  0  0  0
    7.7030   -2.5766   -0.6966 H   0  0  0  0  0  0  0  0  0  0  0  0
    5.9807   -0.4030   -0.4141 H   0  0  0  0  0  0  0  0  0  0  0  0
    6.0587   -1.5799   -2.2095 H   0  0  0  0  0  0  0  0  0  0  0  0
    4.8584    0.0108   -2.5916 H   0  0  0  0  0  0  0  0  0  0  0  0
    3.1752   -0.1600   -2.8240 H   0  0  0  0  0  0  0  0  0  0  0  0
    1.9163   -1.6306   -1.2271 H   0  0  0  0  0  0  0  0  0  0  0  0
    1.1795   -3.6373   -1.7013 H   0  0  0  0  0  0  0  0  0  0  0  0
    2.7124   -4.2119   -2.3145 H   0  0  0  0  0  0  0  0  0  0  0  0
    1.8953   -4.5656    0.2306 H   0  0  0  0  0  0  0  0  0  0  0  0
    4.0743   -5.1705    0.8319 H   0  0  0  0  0  0  0  0  0  0  0  0
    2.9253   -2.9769    1.5790 H   0  0  0  0  0  0  0  0  0  0  0  0
    4.8669   -2.9605    2.2629 H   0  0  0  0  0  0  0  0  0  0  0  0
    5.8171   -1.6989    1.9846 H   0  0  0  0  0  0  0  0  0  0  0  0
    2.5057   -1.9518   -2.7172 H   0  0  0  0  0  0  0  0  0  0  0  0
  1 10  1  0
  1  2  1  0
  1 18  1  0
  1 19  1  0
  2  3  1  0
  2 20  1  0
  2 21  1  0
  3  8  1  0
  3  4  1  0
  4 14  1  0
  4  5  1  0
  4 22  1  6
  5 17  1  0
  5  6  1  0
  5 23  1  1
  6  7  1  0
  6 24  1  0
  6 25  1  0
  7 16  1  0
  7  8  1  0
  7 26  1  6
  8  9  1  0
  8 27  1  6
  9 16  1  0
  9 10  1  1
  9 11  1  0
 10 28  1  0
 10 29  1  0
 11 12  1  0
 11 30  1  0
 11 38  1  0
 12 13  1  0
 12 31  1  0
 12 32  1  0
 13 15  1  0
 13 14  1  0
 13 33  1  1
 14 15  1  0
 14 34  1  1
 15 16  1  0
 15 35  1  1
 16 17  1  1
 17 36  1  0
 17 37  1  0
M  CHG  1  11   1
M  END
>  <i_m_ct_stereo_status>  (251) 
1

>  <s_m_source_file>  (251) 
/var/tmp/pbs.5076255.sched01/tmpnx1894nc/68p53si2vm.sdf

>  <i_m_source_file_index>  (251) 
33

>  <i_lp_mmshare_version>  (251) 
48012

>  <i_f3d_flags>  (251) 
0

>  <s_epik_input>  (251) 
QzEyM1tDQF00NVtDQEBIXTZbQ0BIXTFOKFtDSDJdW0NIMl1bQ0gyXTIpW0NAQEhdKFtDQEBIXShbQ0gyXTYpW0NIMl01KVtDQEBIXTdbQ0BASF0oW0NASF00NylbQ0gyXVtOSF0z

>  <s_epik_cmdline>  (251) 
J2VwaWtfcHl0aG9uJywgJy1waHQnLCAnMi4wJywgJy1waCcsICc3LjAnLCAnLXRuJywgJzgnLCAnLW1hJywgJzIwMCcsICctaW1hZScsICc8aW5maWxlLm1hZT4nLCAnLW9tYWUnLCAnPG91dGZpbGUubWFlPic=

>  <r_epik_Ionization_Penalty>  (251) 
0.029204

>  <r_epik_Ionization_Penalty_Charging>  (251) 
0.00131977

>  <r_epik_Ionization_Penalty_Neutral>  (251) 
0.0278843

>  <r_epik_State_Penalty>  (251) 
0.0284556

>  <r_epik_Charging_Adjusted_Penalty>  (251) 
0.0297754

>  <i_epik_Tot_Q>  (251) 
1

>  <i_epik_Tot_abs_Q>  (251) 
1

>  <s_lp_Force_Field>  (251) 
OPLS3e

>  <r_lp_Energy>  (251) 
368.239

>  <b_lp_Chiralities_Consistent>  (251) 
1

>  <s_lp_Variant>  (251) 
77:0-1

>  <s_i_glide_gridfile>  (251) 
pfpi4k_grid

>  <i_i_glide_lignum>  (251) 
33

>  <i_i_glide_rotatable_bonds>  (251) 
0

>  <r_i_docking_score>  (251) 
-4.95344

>  <r_i_glide_ligand_efficiency>  (251) 
-0.291379

>  <r_i_glide_ligand_efficiency_sa>  (251) 
-0.749216

>  <r_i_glide_ligand_efficiency_ln>  (251) 
-1.29224

>  <r_i_glide_gscore>  (251) 
-4.95344

>  <r_i_glide_lipo>  (251) 
-0.728284

>  <r_i_glide_hbond>  (251) 
-0.134883

>  <r_i_glide_metal>  (251) 
-0

>  <r_i_glide_rewards>  (251) 
-1.8454

>  <r_i_glide_evdw>  (251) 
-18.2462

>  <r_i_glide_ecoul>  (251) 
-8.33509

>  <r_i_glide_erotb>  (251) 
0

>  <r_i_glide_esite>  (251) 
-0.0822884

>  <r_i_glide_emodel>  (251) 
-35.2555

>  <r_i_glide_energy>  (251) 
-26.5813

>  <r_i_glide_einternal>  (251) 
0

>  <r_i_glide_intrahb_reward>  (251) 
-0

>  <i_i_glide_confnum>  (251) 
2

>  <i_i_glide_posenum>  (251) 
1

>  <r_i_glide_eff_state_penalty>  (251) 
0

>  <ligand_id>  (251) 
77

>  <original_smiles>  (251) 
C1CN2C3C4CC5C2C2(C1)NCC1C3C1C52C4

>  <smiles>  (251) 
[H]C1([H])N2C3([H])C4([H])C([H])([H])C5([H])C2([H])C2(C([H])([H])C1([H])[H])C5(C4([H])[H])C1([H])C3([H])C1([H])C([H])([H])[N+]2([H])[H]

$$$$
77:0:1
     RDKit          3D

 38 44  0  0  1  0  0  0  0  0999 V2000
    5.2757   -0.3359    1.4636 C   0  0  0  0  0  0  0  0  0  0  0  0
    6.2669   -1.3688    0.6301 C   0  0  0  0  0  0  0  0  0  0  0  0
    5.9432   -2.8433    0.6457 N   0  0  0  0  0  0  0  0  0  0  0  0
    5.6517   -3.9753   -0.3195 C   0  0  1  0  0  0  0  0  0  0  0  0
    5.0177   -5.2471    0.4756 C   0  0  1  0  0  0  0  0  0  0  0  0
    5.0168   -5.0573    1.9564 C   0  0  0  0  0  0  0  0  0  0  0  0
    4.0268   -3.8800    1.9072 C   0  0  1  0  0  0  0  0  0  0  0  0
    4.8247   -2.7610    1.4445 C   0  0  2  0  0  0  0  0  0  0  0  0
    3.5862   -2.0815    0.9189 C   0  0  1  0  0  0  0  0  0  0  0  0
    3.8142   -0.9197    1.9064 C   0  0  0  0  0  0  0  0  0  0  0  0
    3.4152   -1.1485   -0.2592 N   0  0  0  0  0  0  0  0  0  0  0  0
    4.0344   -1.3475   -1.5627 C   0  0  0  0  0  0  0  0  0  0  0  0
    3.7776   -2.7243   -1.9325 C   0  0  1  0  0  0  0  0  0  0  0  0
    4.6340   -3.8417   -1.4675 C   0  0  2  0  0  0  0  0  0  0  0  0
    3.1753   -3.6835   -0.9302 C   0  0  1  0  0  0  0  0  0  0  0  0
    3.0363   -3.6456    0.6508 C   0  0  2  0  0  0  0  0  0  0  0  0
    3.4478   -5.1808    0.4907 C   0  0  0  0  0  0  0  0  0  0  0  0
    5.1383    0.5554    0.8541 H   0  0  0  0  0  0  0  0  0  0  0  0
    5.7946    0.0089    2.3586 H   0  0  0  0  0  0  0  0  0  0  0  0
    6.5599   -1.0027   -0.3486 H   0  0  0  0  0  0  0  0  0  0  0  0
    7.2103   -1.3162    1.1740 H   0  0  0  0  0  0  0  0  0  0  0  0
    6.6153   -4.2492   -0.7589 H   0  0  0  0  0  0  0  0  0  0  0  0
    5.4032   -6.2098    0.1417 H   0  0  0  0  0  0  0  0  0  0  0  0
    4.6576   -5.9343    2.5043 H   0  0  0  0  0  0  0  0  0  0  0  0
    6.0075   -4.8232    2.3525 H   0  0  0  0  0  0  0  0  0  0  0  0
    3.5273   -3.6889    2.8633 H   0  0  0  0  0  0  0  0  0  0  0  0
    5.2509   -2.4920    2.4250 H   0  0  0  0  0  0  0  0  0  0  0  0
    3.7781   -1.2017    2.9615 H   0  0  0  0  0  0  0  0  0  0  0  0
    3.0510   -0.1377    1.8384 H   0  0  0  0  0  0  0  0  0  0  0  0
    2.4163   -1.1024   -0.4285 H   0  0  0  0  0  0  0  0  0  0  0  0
    3.5213   -0.6884   -2.2752 H   0  0  0  0  0  0  0  0  0  0  0  0
    5.0922   -1.1328   -1.6413 H   0  0  0  0  0  0  0  0  0  0  0  0
    3.4487   -2.8313   -2.9612 H   0  0  0  0  0  0  0  0  0  0  0  0
    4.7654   -4.6346   -2.1997 H   0  0  0  0  0  0  0  0  0  0  0  0
    2.3336   -4.1744   -1.4254 H   0  0  0  0  0  0  0  0  0  0  0  0
    3.0400   -5.7780   -0.3245 H   0  0  0  0  0  0  0  0  0  0  0  0
    2.9567   -5.8014    1.2563 H   0  0  0  0  0  0  0  0  0  0  0  0
    3.6932   -0.2298    0.0555 H   0  0  0  0  0  0  0  0  0  0  0  0
  1 10  1  0
  1  2  1  0
  1 18  1  0
  1 19  1  0
  2  3  1  0
  2 20  1  0
  2 21  1  0
  3  8  1  0
  3  4  1  0
  4 14  1  0
  4  5  1  0
  4 22  1  6
  5 17  1  0
  5  6  1  0
  5 23  1  1
  6  7  1  0
  6 24  1  0
  6 25  1  0
  7 16  1  0
  7  8  1  0
  7 26  1  1
  8  9  1  0
  8 27  1  1
  9 16  1  0
  9 10  1  1
  9 11  1  0
 10 28  1  0
 10 29  1  0
 11 12  1  0
 11 30  1  0
 11 38  1  0
 12 13  1  0
 12 31  1  0
 12 32  1  0
 13 15  1  0
 13 14  1  0
 13 33  1  6
 14 15  1  0
 14 34  1  6
 15 16  1  0
 15 35  1  6
 16 17  1  1
 17 36  1  0
 17 37  1  0
M  CHG  1  11   1
M  END
>  <i_m_ct_stereo_status>  (252) 
1

>  <s_m_source_file>  (252) 
/var/tmp/pbs.5076255.sched01/tmpnx1894nc/68p53si2vm.sdf

>  <i_m_source_file_index>  (252) 
33

>  <i_lp_mmshare_version>  (252) 
48012

>  <i_f3d_flags>  (252) 
0

>  <s_epik_input>  (252) 
QzEyM1tDQF00NVtDQEBIXTZbQ0BIXTFOKFtDSDJdW0NIMl1bQ0gyXTIpW0NAQEhdKFtDQEBIXShbQ0gyXTYpW0NIMl01KVtDQEBIXTdbQ0BASF0oW0NASF00NylbQ0gyXVtOSF0z

>  <s_epik_cmdline>  (252) 
J2VwaWtfcHl0aG9uJywgJy1waHQnLCAnMi4wJywgJy1waCcsICc3LjAnLCAnLXRuJywgJzgnLCAnLW1hJywgJzIwMCcsICctaW1hZScsICc8aW5maWxlLm1hZT4nLCAnLW9tYWUnLCAnPG91dGZpbGUubWFlPic=

>  <r_epik_Ionization_Penalty>  (252) 
0.029204

>  <r_epik_Ionization_Penalty_Charging>  (252) 
0.00131977

>  <r_epik_Ionization_Penalty_Neutral>  (252) 
0.0278843

>  <r_epik_State_Penalty>  (252) 
0.0284556

>  <r_epik_Charging_Adjusted_Penalty>  (252) 
0.0297754

>  <i_epik_Tot_Q>  (252) 
1

>  <i_epik_Tot_abs_Q>  (252) 
1

>  <s_lp_Force_Field>  (252) 
OPLS3e

>  <r_lp_Energy>  (252) 
368.239

>  <b_lp_Chiralities_Consistent>  (252) 
1

>  <s_lp_Variant>  (252) 
77:0-1

>  <s_i_glide_gridfile>  (252) 
pfpi4k_grid

>  <i_i_glide_lignum>  (252) 
33

>  <i_i_glide_rotatable_bonds>  (252) 
0

>  <r_i_docking_score>  (252) 
-4.34901

>  <r_i_glide_ligand_efficiency>  (252) 
-0.255824

>  <r_i_glide_ligand_efficiency_sa>  (252) 
-0.657795

>  <r_i_glide_ligand_efficiency_ln>  (252) 
-1.13456

>  <r_i_glide_gscore>  (252) 
-4.34901

>  <r_i_glide_lipo>  (252) 
-0.453804

>  <r_i_glide_hbond>  (252) 
-0.2

>  <r_i_glide_metal>  (252) 
-0

>  <r_i_glide_rewards>  (252) 
-1.8454

>  <r_i_glide_evdw>  (252) 
-18.6059

>  <r_i_glide_ecoul>  (252) 
-5.52678

>  <r_i_glide_erotb>  (252) 
0

>  <r_i_glide_esite>  (252) 
-0.0904869

>  <r_i_glide_emodel>  (252) 
-31.7355

>  <r_i_glide_energy>  (252) 
-24.1327

>  <r_i_glide_einternal>  (252) 
0

>  <r_i_glide_intrahb_reward>  (252) 
-0

>  <i_i_glide_confnum>  (252) 
1

>  <i_i_glide_posenum>  (252) 
3

>  <r_i_glide_eff_state_penalty>  (252) 
0

>  <ligand_id>  (252) 
77

>  <original_smiles>  (252) 
C1CN2C3C4CC5C2C2(C1)NCC1C3C1C52C4

>  <smiles>  (252) 
[H]C1([H])N2C3([H])C4([H])C([H])([H])C5([H])C2([H])C2(C([H])([H])C1([H])[H])C5(C4([H])[H])C1([H])C3([H])C1([H])C([H])([H])[N+]2([H])[H]

$$$$
77:0:2
     RDKit          3D

 38 44  0  0  1  0  0  0  0  0999 V2000
    3.9912   -5.4114    1.6016 C   0  0  0  0  0  0  0  0  0  0  0  0
    5.5556   -5.0472    1.2264 C   0  0  0  0  0  0  0  0  0  0  0  0
    5.8069   -4.1308    0.0333 N   0  0  0  0  0  0  0  0  0  0  0  0
    6.4852   -2.8288   -0.2903 C   0  0  1  0  0  0  0  0  0  0  0  0
    6.0135   -2.3045   -1.7570 C   0  0  1  0  0  0  0  0  0  0  0  0
    5.1433   -3.2858   -2.4761 C   0  0  0  0  0  0  0  0  0  0  0  0
    4.0051   -3.1958   -1.4481 C   0  0  1  0  0  0  0  0  0  0  0  0
    4.4889   -3.9390   -0.3072 C   0  0  2  0  0  0  0  0  0  0  0  0
    3.5612   -3.1696    0.5931 C   0  0  1  0  0  0  0  0  0  0  0  0
    2.8257   -4.4827    0.9387 C   0  0  0  0  0  0  0  0  0  0  0  0
    3.7149   -2.7819    2.0438 N   0  0  0  0  0  0  0  0  0  0  0  0
    4.9677   -2.3004    2.6138 C   0  0  0  0  0  0  0  0  0  0  0  0
    5.4497   -1.2626    1.7409 C   0  0  1  0  0  0  0  0  0  0  0  0
    6.2547   -1.5475    0.5367 C   0  0  2  0  0  0  0  0  0  0  0  0
    4.7928   -1.0231    0.4028 C   0  0  1  0  0  0  0  0  0  0  0  0
    3.8315   -1.9114   -0.4913 C   0  0  2  0  0  0  0  0  0  0  0  0
    4.7697   -1.3334   -1.6410 C   0  0  0  0  0  0  0  0  0  0  0  0
    3.8897   -5.4057    2.6971 H   0  0  0  0  0  0  0  0  0  0  0  0
    3.7946   -6.4563    1.3286 H   0  0  0  0  0  0  0  0  0  0  0  0
    6.1756   -4.8014    2.0788 H   0  0  0  0  0  0  0  0  0  0  0  0
    5.9837   -5.9898    0.8992 H   0  0  0  0  0  0  0  0  0  0  0  0
    7.5607   -3.0255   -0.3019 H   0  0  0  0  0  0  0  0  0  0  0  0
    6.8307   -1.8995   -2.3242 H   0  0  0  0  0  0  0  0  0  0  0  0
    4.8736   -2.9768   -3.4927 H   0  0  0  0  0  0  0  0  0  0  0  0
    5.6153   -4.2672   -2.5674 H   0  0  0  0  0  0  0  0  0  0  0  0
    3.0397   -3.5612   -1.8205 H   0  0  0  0  0  0  0  0  0  0  0  0
    4.2055   -4.9349   -0.6965 H   0  0  0  0  0  0  0  0  0  0  0  0
    2.3376   -4.9623    0.0842 H   0  0  0  0  0  0  0  0  0  0  0  0
    2.0032   -4.3364    1.6407 H   0  0  0  0  0  0  0  0  0  0  0  0
    3.0228   -2.0592    2.2021 H   0  0  0  0  0  0  0  0  0  0  0  0
    4.7428   -1.8556    3.5878 H   0  0  0  0  0  0  0  0  0  0  0  0
    5.7620   -3.0250    2.7814 H   0  0  0  0  0  0  0  0  0  0  0  0
    5.7893   -0.3766    2.2714 H   0  0  0  0  0  0  0  0  0  0  0  0
    7.0155   -0.8012    0.3234 H   0  0  0  0  0  0  0  0  0  0  0  0
    4.5792    0.0465    0.3389 H   0  0  0  0  0  0  0  0  0  0  0  0
    5.1150   -0.2945   -1.6148 H   0  0  0  0  0  0  0  0  0  0  0  0
    4.1998   -1.1933   -2.5708 H   0  0  0  0  0  0  0  0  0  0  0  0
    3.4734   -3.5922    2.5746 H   0  0  0  0  0  0  0  0  0  0  0  0
  1 10  1  0
  1  2  1  0
  1 18  1  0
  1 19  1  0
  2  3  1  0
  2 20  1  0
  2 21  1  0
  3  8  1  0
  3  4  1  0
  4 14  1  0
  4  5  1  0
  4 22  1  6
  5 17  1  0
  5  6  1  0
  5 23  1  6
  6  7  1  0
  6 24  1  0
  6 25  1  0
  7 16  1  0
  7  8  1  0
  7 26  1  6
  8  9  1  0
  8 27  1  6
  9 16  1  0
  9 10  1  1
  9 11  1  0
 10 28  1  0
 10 29  1  0
 11 12  1  0
 11 30  1  0
 11 38  1  0
 12 13  1  0
 12 31  1  0
 12 32  1  0
 13 15  1  0
 13 14  1  0
 13 33  1  1
 14 15  1  0
 14 34  1  1
 15 16  1  0
 15 35  1  1
 16 17  1  6
 17 36  1  0
 17 37  1  0
M  CHG  1  11   1
M  END
>  <i_m_ct_stereo_status>  (253) 
1

>  <s_m_source_file>  (253) 
/var/tmp/pbs.5076255.sched01/tmpnx1894nc/68p53si2vm.sdf

>  <i_m_source_file_index>  (253) 
33

>  <i_lp_mmshare_version>  (253) 
48012

>  <i_f3d_flags>  (253) 
0

>  <s_epik_input>  (253) 
QzEyM1tDQF00NVtDQEBIXTZbQ0BIXTFOKFtDSDJdW0NIMl1bQ0gyXTIpW0NAQEhdKFtDQEBIXShbQ0gyXTYpW0NIMl01KVtDQEBIXTdbQ0BASF0oW0NASF00NylbQ0gyXVtOSF0z

>  <s_epik_cmdline>  (253) 
J2VwaWtfcHl0aG9uJywgJy1waHQnLCAnMi4wJywgJy1waCcsICc3LjAnLCAnLXRuJywgJzgnLCAnLW1hJywgJzIwMCcsICctaW1hZScsICc8aW5maWxlLm1hZT4nLCAnLW9tYWUnLCAnPG91dGZpbGUubWFlPic=

>  <r_epik_Ionization_Penalty>  (253) 
0.029204

>  <r_epik_Ionization_Penalty_Charging>  (253) 
0.00131977

>  <r_epik_Ionization_Penalty_Neutral>  (253) 
0.0278843

>  <r_epik_State_Penalty>  (253) 
0.0284556

>  <r_epik_Charging_Adjusted_Penalty>  (253) 
0.0297754

>  <i_epik_Tot_Q>  (253) 
1

>  <i_epik_Tot_abs_Q>  (253) 
1

>  <s_lp_Force_Field>  (253) 
OPLS3e

>  <r_lp_Energy>  (253) 
368.239

>  <b_lp_Chiralities_Consistent>  (253) 
1

>  <s_lp_Variant>  (253) 
77:0-1

>  <s_i_glide_gridfile>  (253) 
pfpi4k_grid

>  <i_i_glide_lignum>  (253) 
33

>  <i_i_glide_rotatable_bonds>  (253) 
0

>  <r_i_docking_score>  (253) 
-3.82369

>  <r_i_glide_ligand_efficiency>  (253) 
-0.224923

>  <r_i_glide_ligand_efficiency_sa>  (253) 
-0.57834

>  <r_i_glide_ligand_efficiency_ln>  (253) 
-0.997515

>  <r_i_glide_gscore>  (253) 
-3.82369

>  <r_i_glide_lipo>  (253) 
-0.651926

>  <r_i_glide_hbond>  (253) 
0

>  <r_i_glide_metal>  (253) 
-0

>  <r_i_glide_rewards>  (253) 
-1.8454

>  <r_i_glide_evdw>  (253) 
-21.7188

>  <r_i_glide_ecoul>  (253) 
-1.59771

>  <r_i_glide_erotb>  (253) 
0

>  <r_i_glide_esite>  (253) 
-0.000761866

>  <r_i_glide_emodel>  (253) 
-29.9638

>  <r_i_glide_energy>  (253) 
-23.3165

>  <r_i_glide_einternal>  (253) 
0

>  <r_i_glide_intrahb_reward>  (253) 
-0

>  <i_i_glide_confnum>  (253) 
2

>  <i_i_glide_posenum>  (253) 
37

>  <r_i_glide_eff_state_penalty>  (253) 
0

>  <ligand_id>  (253) 
77

>  <original_smiles>  (253) 
C1CN2C3C4CC5C2C2(C1)NCC1C3C1C52C4

>  <smiles>  (253) 
[H]C1([H])N2C3([H])C4([H])C([H])([H])C5([H])C2([H])C2(C([H])([H])C1([H])[H])C5(C4([H])[H])C1([H])C3([H])C1([H])C([H])([H])[N+]2([H])[H]

$$$$
77:1:0
     RDKit          3D

 39 45  0  0  1  0  0  0  0  0999 V2000
    4.0879   -2.0014   -3.8670 C   0  0  0  0  0  0  0  0  0  0  0  0
    4.5096   -3.5645   -3.4959 C   0  0  0  0  0  0  0  0  0  0  0  0
    5.2855   -3.7633   -2.1737 N   0  0  2  0  0  0  0  0  0  0  0  0
    5.1399   -4.6140   -0.9060 C   0  0  1  0  0  0  0  0  0  0  0  0
    6.1763   -4.0928    0.2293 C   0  0  1  0  0  0  0  0  0  0  0  0
    7.1186   -3.0647   -0.2971 C   0  0  0  0  0  0  0  0  0  0  0  0
    6.0027   -2.0471   -0.5580 C   0  0  1  0  0  0  0  0  0  0  0  0
    5.3984   -2.4199   -1.8057 C   0  0  2  0  0  0  0  0  0  0  0  0
    4.0682   -1.8186   -1.4024 C   0  0  1  0  0  0  0  0  0  0  0  0
    4.1363   -0.9191   -2.6431 C   0  0  0  0  0  0  0  0  0  0  0  0
    2.6456   -2.2156   -1.7227 N   0  0  0  0  0  0  0  0  0  0  0  0
    2.0841   -3.5301   -1.5590 C   0  0  0  0  0  0  0  0  0  0  0  0
    2.5388   -4.0315   -0.2833 C   0  0  1  0  0  0  0  0  0  0  0  0
    3.8520   -4.6435   -0.0977 C   0  0  2  0  0  0  0  0  0  0  0  0
    3.5283   -3.2556    0.5269 C   0  0  1  0  0  0  0  0  0  0  0  0
    4.5628   -2.1222    0.1738 C   0  0  2  0  0  0  0  0  0  0  0  0
    5.4937   -3.0042    1.1314 C   0  0  0  0  0  0  0  0  0  0  0  0
    3.0835   -2.0169   -4.2970 H   0  0  0  0  0  0  0  0  0  0  0  0
    4.6774   -1.5951   -4.6838 H   0  0  0  0  0  0  0  0  0  0  0  0
    3.7209   -4.2670   -3.7117 H   0  0  0  0  0  0  0  0  0  0  0  0
    5.2395   -3.8425   -4.2517 H   0  0  0  0  0  0  0  0  0  0  0  0
    5.3708   -5.6514   -1.1370 H   0  0  0  0  0  0  0  0  0  0  0  0
    6.6555   -4.8840    0.8071 H   0  0  0  0  0  0  0  0  0  0  0  0
    7.8597   -2.7332    0.4401 H   0  0  0  0  0  0  0  0  0  0  0  0
    7.6718   -3.3993   -1.1803 H   0  0  0  0  0  0  0  0  0  0  0  0
    6.3476   -1.0146   -0.5741 H   0  0  0  0  0  0  0  0  0  0  0  0
    6.1109   -1.9732   -2.5036 H   0  0  0  0  0  0  0  0  0  0  0  0
    5.0125   -0.2559   -2.6845 H   0  0  0  0  0  0  0  0  0  0  0  0
    3.3041   -0.2110   -2.7190 H   0  0  0  0  0  0  0  0  0  0  0  0
    2.0200   -1.6315   -1.1665 H   0  0  0  0  0  0  0  0  0  0  0  0
    0.9997   -3.4349   -1.5414 H   0  0  0  0  0  0  0  0  0  0  0  0
    2.2669   -4.2518   -2.3555 H   0  0  0  0  0  0  0  0  0  0  0  0
    1.7847   -4.5681    0.2550 H   0  0  0  0  0  0  0  0  0  0  0  0
    3.8473   -5.4585    0.6143 H   0  0  0  0  0  0  0  0  0  0  0  0
    3.1166   -3.1764    1.5316 H   0  0  0  0  0  0  0  0  0  0  0  0
    5.0733   -3.4743    2.0331 H   0  0  0  0  0  0  0  0  0  0  0  0
    6.1909   -2.3585    1.6884 H   0  0  0  0  0  0  0  0  0  0  0  0
    6.1945   -4.0468   -2.5031 H   0  0  0  0  0  0  0  0  0  0  0  0
    2.4563   -1.9472   -2.6776 H   0  0  0  0  0  0  0  0  0  0  0  0
  1 10  1  0
  1  2  1  0
  1 18  1  0
  1 19  1  0
  2  3  1  0
  2 20  1  0
  2 21  1  0
  3  8  1  0
  3  4  1  0
  3 38  1  6
  4 14  1  0
  4  5  1  0
  4 22  1  6
  5 17  1  0
  5  6  1  0
  5 23  1  1
  6  7  1  0
  6 24  1  0
  6 25  1  0
  7 16  1  0
  7  8  1  0
  7 26  1  6
  8  9  1  0
  8 27  1  6
  9 16  1  0
  9 10  1  1
  9 11  1  0
 10 28  1  0
 10 29  1  0
 11 12  1  0
 11 30  1  0
 11 39  1  0
 12 13  1  0
 12 31  1  0
 12 32  1  0
 13 15  1  0
 13 14  1  0
 13 33  1  1
 14 15  1  0
 14 34  1  1
 15 16  1  0
 15 35  1  1
 16 17  1  1
 17 36  1  0
 17 37  1  0
M  CHG  2   3   1  11   1
M  END
>  <i_m_ct_stereo_status>  (254) 
1

>  <s_m_source_file>  (254) 
/var/tmp/pbs.5076255.sched01/tmpnx1894nc/68p53si2vm.sdf

>  <i_m_source_file_index>  (254) 
34

>  <i_lp_mmshare_version>  (254) 
48012

>  <i_f3d_flags>  (254) 
0

>  <s_epik_input>  (254) 
QzEyM1tDQF00NVtDQEBIXTZbQ0BIXTFOKFtDSDJdW0NIMl1bQ0gyXTIpW0NAQEhdKFtDQEBIXShbQ0gyXTYpW0NIMl01KVtDQEBIXTdbQ0BASF0oW0NASF00NylbQ0gyXVtOSF0z

>  <s_epik_cmdline>  (254) 
J2VwaWtfcHl0aG9uJywgJy1waHQnLCAnMi4wJywgJy1waCcsICc3LjAnLCAnLXRuJywgJzgnLCAnLW1hJywgJzIwMCcsICctaW1hZScsICc8aW5maWxlLm1hZT4nLCAnLW9tYWUnLCAnPG91dGZpbGUubWFlPic=

>  <r_epik_Ionization_Penalty>  (254) 
1.96821

>  <r_epik_Ionization_Penalty_Charging>  (254) 
1.96821

>  <r_epik_Ionization_Penalty_Neutral>  (254) 
0

>  <r_epik_State_Penalty>  (254) 
1.94578

>  <r_epik_Charging_Adjusted_Penalty>  (254) 
3.91399

>  <i_epik_Tot_Q>  (254) 
2

>  <i_epik_Tot_abs_Q>  (254) 
2

>  <s_lp_Force_Field>  (254) 
OPLS3e

>  <r_lp_Energy>  (254) 
384.197

>  <b_lp_Chiralities_Consistent>  (254) 
1

>  <s_lp_Variant>  (254) 
77:0-2

>  <s_i_glide_gridfile>  (254) 
pfpi4k_grid

>  <i_i_glide_lignum>  (254) 
34

>  <i_i_glide_rotatable_bonds>  (254) 
0

>  <r_i_docking_score>  (254) 
-4.88986

>  <r_i_glide_ligand_efficiency>  (254) 
-0.287639

>  <r_i_glide_ligand_efficiency_sa>  (254) 
-0.739601

>  <r_i_glide_ligand_efficiency_ln>  (254) 
-1.27566

>  <r_i_glide_gscore>  (254) 
-4.88986

>  <r_i_glide_lipo>  (254) 
-0.548937

>  <r_i_glide_hbond>  (254) 
-0.172528

>  <r_i_glide_metal>  (254) 
-0

>  <r_i_glide_rewards>  (254) 
-1.83853

>  <r_i_glide_evdw>  (254) 
-17.2806

>  <r_i_glide_ecoul>  (254) 
-9.21639

>  <r_i_glide_erotb>  (254) 
0

>  <r_i_glide_esite>  (254) 
-0.0833752

>  <r_i_glide_emodel>  (254) 
-34.3264

>  <r_i_glide_energy>  (254) 
-26.497

>  <r_i_glide_einternal>  (254) 
0

>  <r_i_glide_intrahb_reward>  (254) 
-0

>  <i_i_glide_confnum>  (254) 
1

>  <i_i_glide_posenum>  (254) 
1

>  <r_i_glide_eff_state_penalty>  (254) 
0

>  <ligand_id>  (254) 
77

>  <original_smiles>  (254) 
C1CN2C3C4CC5C2C2(C1)NCC1C3C1C52C4

>  <smiles>  (254) 
[H]C1([H])C2([H])C([H])([H])C34C5([H])C6([H])C5([H])C2([H])[N+]2([H])C([H])([H])C([H])([H])C([H])([H])C3(C2([H])C14[H])[N+]([H])([H])C6([H])[H]

$$$$
77:1:1
     RDKit          3D

 39 45  0  0  1  0  0  0  0  0999 V2000
    4.7725   -2.4398   -2.5094 C   0  0  0  0  0  0  0  0  0  0  0  0
    3.3522   -2.9783   -1.8344 C   0  0  0  0  0  0  0  0  0  0  0  0
    3.4971   -4.0055   -0.7101 N   0  0  2  0  0  0  0  0  0  0  0  0
    2.9868   -4.1508    0.7325 C   0  0  1  0  0  0  0  0  0  0  0  0
    3.7694   -5.3563    1.4828 C   0  0  1  0  0  0  0  0  0  0  0  0
    4.6252   -6.1376    0.5483 C   0  0  0  0  0  0  0  0  0  0  0  0
    5.5603   -4.9548    0.2651 C   0  0  1  0  0  0  0  0  0  0  0  0
    4.8938   -4.1407   -0.7118 C   0  0  2  0  0  0  0  0  0  0  0  0
    5.6096   -2.8953   -0.2124 C   0  0  1  0  0  0  0  0  0  0  0  0
    6.1443   -2.6955   -1.6406 C   0  0  0  0  0  0  0  0  0  0  0  0
    5.1915   -1.4373   -0.1054 N   0  0  0  0  0  0  0  0  0  0  0  0
    3.9311   -0.9738    0.4536 C   0  0  0  0  0  0  0  0  0  0  0  0
    3.7590   -1.6656    1.7038 C   0  0  1  0  0  0  0  0  0  0  0  0
    3.1774   -3.0257    1.7702 C   0  0  2  0  0  0  0  0  0  0  0  0
    4.6807   -2.7892    2.0905 C   0  0  1  0  0  0  0  0  0  0  0  0
    5.6873   -3.6933    1.2639 C   0  0  2  0  0  0  0  0  0  0  0  0
    5.0596   -4.8228    2.2064 C   0  0  0  0  0  0  0  0  0  0  0  0
    4.6734   -1.3732   -2.7222 H   0  0  0  0  0  0  0  0  0  0  0  0
    4.9159   -2.8936   -3.4934 H   0  0  0  0  0  0  0  0  0  0  0  0
    2.5978   -2.2099   -1.6938 H   0  0  0  0  0  0  0  0  0  0  0  0
    2.8965   -3.5570   -2.6369 H   0  0  0  0  0  0  0  0  0  0  0  0
    1.9212   -4.3821    0.6895 H   0  0  0  0  0  0  0  0  0  0  0  0
    3.1486   -5.9688    2.1370 H   0  0  0  0  0  0  0  0  0  0  0  0
    5.1209   -6.9938    1.0147 H   0  0  0  0  0  0  0  0  0  0  0  0
    4.0785   -6.5213   -0.3152 H   0  0  0  0  0  0  0  0  0  0  0  0
    6.5520   -5.2624   -0.0787 H   0  0  0  0  0  0  0  0  0  0  0  0
    5.1388   -4.6915   -1.6281 H   0  0  0  0  0  0  0  0  0  0  0  0
    6.7581   -3.5201   -2.0226 H   0  0  0  0  0  0  0  0  0  0  0  0
    6.8348   -1.8569   -1.7270 H   0  0  0  0  0  0  0  0  0  0  0  0
    5.9107   -0.9912    0.4471 H   0  0  0  0  0  0  0  0  0  0  0  0
    4.0270    0.0950    0.6604 H   0  0  0  0  0  0  0  0  0  0  0  0
    3.0261   -1.0772   -0.1314 H   0  0  0  0  0  0  0  0  0  0  0  0
    3.4272   -1.0182    2.5114 H   0  0  0  0  0  0  0  0  0  0  0  0
    2.5685   -3.1995    2.6523 H   0  0  0  0  0  0  0  0  0  0  0  0
    5.0238   -2.5754    3.1061 H   0  0  0  0  0  0  0  0  0  0  0  0
    4.8390   -4.6064    3.2614 H   0  0  0  0  0  0  0  0  0  0  0  0
    5.8167   -5.5860    2.4448 H   0  0  0  0  0  0  0  0  0  0  0  0
    3.1542   -4.8513   -1.1583 H   0  0  0  0  0  0  0  0  0  0  0  0
    5.2063   -1.0528   -1.0335 H   0  0  0  0  0  0  0  0  0  0  0  0
  1 10  1  0
  1  2  1  0
  1 18  1  0
  1 19  1  0
  2  3  1  0
  2 20  1  0
  2 21  1  0
  3  8  1  0
  3  4  1  0
  3 38  1  6
  4 14  1  0
  4  5  1  0
  4 22  1  6
  5 17  1  0
  5  6  1  0
  5 23  1  1
  6  7  1  0
  6 24  1  0
  6 25  1  0
  7 16  1  0
  7  8  1  0
  7 26  1  6
  8  9  1  0
  8 27  1  6
  9 16  1  0
  9 10  1  6
  9 11  1  0
 10 28  1  0
 10 29  1  0
 11 12  1  0
 11 30  1  0
 11 39  1  0
 12 13  1  0
 12 31  1  0
 12 32  1  0
 13 15  1  0
 13 14  1  0
 13 33  1  1
 14 15  1  0
 14 34  1  1
 15 16  1  0
 15 35  1  1
 16 17  1  1
 17 36  1  0
 17 37  1  0
M  CHG  2   3   1  11   1
M  END
>  <i_m_ct_stereo_status>  (255) 
1

>  <s_m_source_file>  (255) 
/var/tmp/pbs.5076255.sched01/tmpnx1894nc/68p53si2vm.sdf

>  <i_m_source_file_index>  (255) 
34

>  <i_lp_mmshare_version>  (255) 
48012

>  <i_f3d_flags>  (255) 
0

>  <s_epik_input>  (255) 
QzEyM1tDQF00NVtDQEBIXTZbQ0BIXTFOKFtDSDJdW0NIMl1bQ0gyXTIpW0NAQEhdKFtDQEBIXShbQ0gyXTYpW0NIMl01KVtDQEBIXTdbQ0BASF0oW0NASF00NylbQ0gyXVtOSF0z

>  <s_epik_cmdline>  (255) 
J2VwaWtfcHl0aG9uJywgJy1waHQnLCAnMi4wJywgJy1waCcsICc3LjAnLCAnLXRuJywgJzgnLCAnLW1hJywgJzIwMCcsICctaW1hZScsICc8aW5maWxlLm1hZT4nLCAnLW9tYWUnLCAnPG91dGZpbGUubWFlPic=

>  <r_epik_Ionization_Penalty>  (255) 
1.96821

>  <r_epik_Ionization_Penalty_Charging>  (255) 
1.96821

>  <r_epik_Ionization_Penalty_Neutral>  (255) 
0

>  <r_epik_State_Penalty>  (255) 
1.94578

>  <r_epik_Charging_Adjusted_Penalty>  (255) 
3.91399

>  <i_epik_Tot_Q>  (255) 
2

>  <i_epik_Tot_abs_Q>  (255) 
2

>  <s_lp_Force_Field>  (255) 
OPLS3e

>  <r_lp_Energy>  (255) 
384.197

>  <b_lp_Chiralities_Consistent>  (255) 
1

>  <s_lp_Variant>  (255) 
77:0-2

>  <s_i_glide_gridfile>  (255) 
pfpi4k_grid

>  <i_i_glide_lignum>  (255) 
34

>  <i_i_glide_rotatable_bonds>  (255) 
0

>  <r_i_docking_score>  (255) 
-4.3549

>  <r_i_glide_ligand_efficiency>  (255) 
-0.256171

>  <r_i_glide_ligand_efficiency_sa>  (255) 
-0.658687

>  <r_i_glide_ligand_efficiency_ln>  (255) 
-1.1361

>  <r_i_glide_gscore>  (255) 
-4.3549

>  <r_i_glide_lipo>  (255) 
-0.525224

>  <r_i_glide_hbond>  (255) 
0

>  <r_i_glide_metal>  (255) 
-0

>  <r_i_glide_rewards>  (255) 
-1.83853

>  <r_i_glide_evdw>  (255) 
-19.1713

>  <r_i_glide_ecoul>  (255) 
-6.7074

>  <r_i_glide_erotb>  (255) 
0

>  <r_i_glide_esite>  (255) 
-0.0264717

>  <r_i_glide_emodel>  (255) 
-33.0776

>  <r_i_glide_energy>  (255) 
-25.8787

>  <r_i_glide_einternal>  (255) 
0

>  <r_i_glide_intrahb_reward>  (255) 
-0

>  <i_i_glide_confnum>  (255) 
1

>  <i_i_glide_posenum>  (255) 
6

>  <r_i_glide_eff_state_penalty>  (255) 
0

>  <ligand_id>  (255) 
77

>  <original_smiles>  (255) 
C1CN2C3C4CC5C2C2(C1)NCC1C3C1C52C4

>  <smiles>  (255) 
[H]C1([H])C2([H])C([H])([H])C34C5([H])C6([H])C5([H])C2([H])[N+]2([H])C([H])([H])C([H])([H])C([H])([H])C3(C2([H])C14[H])[N+]([H])([H])C6([H])[H]

$$$$
77:1:2
     RDKit          3D

 39 45  0  0  1  0  0  0  0  0999 V2000
    4.7254   -5.5374    1.8591 C   0  0  0  0  0  0  0  0  0  0  0  0
    5.1339   -5.7936    0.2671 C   0  0  0  0  0  0  0  0  0  0  0  0
    4.5609   -4.7869   -0.7377 N   0  0  2  0  0  0  0  0  0  0  0  0
    5.1094   -3.8921   -1.8605 C   0  0  1  0  0  0  0  0  0  0  0  0
    3.9667   -2.8534   -2.3493 C   0  0  1  0  0  0  0  0  0  0  0  0
    2.6380   -3.1482   -1.7457 C   0  0  0  0  0  0  0  0  0  0  0  0
    3.1041   -2.8399   -0.3162 C   0  0  1  0  0  0  0  0  0  0  0  0
    3.7965   -4.0088    0.1430 C   0  0  2  0  0  0  0  0  0  0  0  0
    4.6542   -3.1768    1.0799 C   0  0  1  0  0  0  0  0  0  0  0  0
    4.1478   -4.0469    2.2429 C   0  0  0  0  0  0  0  0  0  0  0  0
    6.0934   -3.3103    1.5457 N   0  0  0  0  0  0  0  0  0  0  0  0
    7.2298   -3.5604    0.6709 C   0  0  0  0  0  0  0  0  0  0  0  0
    7.1177   -2.6365   -0.4260 C   0  0  1  0  0  0  0  0  0  0  0  0
    6.2723   -2.9238   -1.6085 C   0  0  2  0  0  0  0  0  0  0  0  0
    5.8706   -1.8072   -0.5999 C   0  0  1  0  0  0  0  0  0  0  0  0
    4.4024   -1.9283   -0.0158 C   0  0  2  0  0  0  0  0  0  0  0  0
    4.0377   -1.5224   -1.5200 C   0  0  0  0  0  0  0  0  0  0  0  0
    5.5970   -5.7565    2.4799 H   0  0  0  0  0  0  0  0  0  0  0  0
    3.9875   -6.2749    2.1830 H   0  0  0  0  0  0  0  0  0  0  0  0
    6.1634   -6.0990    0.1081 H   0  0  0  0  0  0  0  0  0  0  0  0
    4.6119   -6.7170    0.0180 H   0  0  0  0  0  0  0  0  0  0  0  0
    5.3880   -4.5400   -2.6948 H   0  0  0  0  0  0  0  0  0  0  0  0
    3.9383   -2.6799   -3.4253 H   0  0  0  0  0  0  0  0  0  0  0  0
    1.8408   -2.5018   -2.1186 H   0  0  0  0  0  0  0  0  0  0  0  0
    2.2940   -4.1690   -1.9086 H   0  0  0  0  0  0  0  0  0  0  0  0
    2.2856   -2.5770    0.3604 H   0  0  0  0  0  0  0  0  0  0  0  0
    2.9491   -4.6353    0.4452 H   0  0  0  0  0  0  0  0  0  0  0  0
    3.0613   -4.0203    2.3891 H   0  0  0  0  0  0  0  0  0  0  0  0
    4.5182   -3.7174    3.2204 H   0  0  0  0  0  0  0  0  0  0  0  0
    6.2955   -2.4423    2.0241 H   0  0  0  0  0  0  0  0  0  0  0  0
    8.1434   -3.3294    1.2208 H   0  0  0  0  0  0  0  0  0  0  0  0
    7.3828   -4.5546    0.2720 H   0  0  0  0  0  0  0  0  0  0  0  0
    8.0596   -2.1618   -0.6843 H   0  0  0  0  0  0  0  0  0  0  0  0
    6.6829   -2.5587   -2.5438 H   0  0  0  0  0  0  0  0  0  0  0  0
    6.1965   -0.7735   -0.7185 H   0  0  0  0  0  0  0  0  0  0  0  0
    4.6389   -0.7711   -2.0536 H   0  0  0  0  0  0  0  0  0  0  0  0
    3.1212   -0.9139   -1.5393 H   0  0  0  0  0  0  0  0  0  0  0  0
    3.8986   -5.3416   -1.2683 H   0  0  0  0  0  0  0  0  0  0  0  0
    6.1119   -4.0523    2.2239 H   0  0  0  0  0  0  0  0  0  0  0  0
  1 10  1  0
  1  2  1  0
  1 18  1  0
  1 19  1  0
  2  3  1  0
  2 20  1  0
  2 21  1  0
  3  8  1  0
  3  4  1  0
  3 38  1  6
  4 14  1  0
  4  5  1  0
  4 22  1  6
  5 17  1  0
  5  6  1  0
  5 23  1  6
  6  7  1  0
  6 24  1  0
  6 25  1  0
  7 16  1  0
  7  8  1  0
  7 26  1  1
  8  9  1  0
  8 27  1  1
  9 16  1  0
  9 10  1  1
  9 11  1  0
 10 28  1  0
 10 29  1  0
 11 12  1  0
 11 30  1  0
 11 39  1  0
 12 13  1  0
 12 31  1  0
 12 32  1  0
 13 15  1  0
 13 14  1  0
 13 33  1  6
 14 15  1  0
 14 34  1  6
 15 16  1  0
 15 35  1  6
 16 17  1  1
 17 36  1  0
 17 37  1  0
M  CHG  2   3   1  11   1
M  END
>  <i_m_ct_stereo_status>  (256) 
1

>  <s_m_source_file>  (256) 
/var/tmp/pbs.5076255.sched01/tmpnx1894nc/68p53si2vm.sdf

>  <i_m_source_file_index>  (256) 
34

>  <i_lp_mmshare_version>  (256) 
48012

>  <i_f3d_flags>  (256) 
0

>  <s_epik_input>  (256) 
QzEyM1tDQF00NVtDQEBIXTZbQ0BIXTFOKFtDSDJdW0NIMl1bQ0gyXTIpW0NAQEhdKFtDQEBIXShbQ0gyXTYpW0NIMl01KVtDQEBIXTdbQ0BASF0oW0NASF00NylbQ0gyXVtOSF0z

>  <s_epik_cmdline>  (256) 
J2VwaWtfcHl0aG9uJywgJy1waHQnLCAnMi4wJywgJy1waCcsICc3LjAnLCAnLXRuJywgJzgnLCAnLW1hJywgJzIwMCcsICctaW1hZScsICc8aW5maWxlLm1hZT4nLCAnLW9tYWUnLCAnPG91dGZpbGUubWFlPic=

>  <r_epik_Ionization_Penalty>  (256) 
1.96821

>  <r_epik_Ionization_Penalty_Charging>  (256) 
1.96821

>  <r_epik_Ionization_Penalty_Neutral>  (256) 
0

>  <r_epik_State_Penalty>  (256) 
1.94578

>  <r_epik_Charging_Adjusted_Penalty>  (256) 
3.91399

>  <i_epik_Tot_Q>  (256) 
2

>  <i_epik_Tot_abs_Q>  (256) 
2

>  <s_lp_Force_Field>  (256) 
OPLS3e

>  <r_lp_Energy>  (256) 
384.197

>  <b_lp_Chiralities_Consistent>  (256) 
1

>  <s_lp_Variant>  (256) 
77:0-2

>  <s_i_glide_gridfile>  (256) 
pfpi4k_grid

>  <i_i_glide_lignum>  (256) 
34

>  <i_i_glide_rotatable_bonds>  (256) 
0

>  <r_i_docking_score>  (256) 
-4.04553

>  <r_i_glide_ligand_efficiency>  (256) 
-0.237972

>  <r_i_glide_ligand_efficiency_sa>  (256) 
-0.611894

>  <r_i_glide_ligand_efficiency_ln>  (256) 
-1.05539

>  <r_i_glide_gscore>  (256) 
-4.04553

>  <r_i_glide_lipo>  (256) 
-0.352041

>  <r_i_glide_hbond>  (256) 
0

>  <r_i_glide_metal>  (256) 
-0

>  <r_i_glide_rewards>  (256) 
-1.83853

>  <r_i_glide_evdw>  (256) 
-18.7579

>  <r_i_glide_ecoul>  (256) 
-5.93472

>  <r_i_glide_erotb>  (256) 
0

>  <r_i_glide_esite>  (256) 
-0.0268553

>  <r_i_glide_emodel>  (256) 
-31.3397

>  <r_i_glide_energy>  (256) 
-24.6926

>  <r_i_glide_einternal>  (256) 
0

>  <r_i_glide_intrahb_reward>  (256) 
-0

>  <i_i_glide_confnum>  (256) 
2

>  <i_i_glide_posenum>  (256) 
31

>  <r_i_glide_eff_state_penalty>  (256) 
0

>  <ligand_id>  (256) 
77

>  <original_smiles>  (256) 
C1CN2C3C4CC5C2C2(C1)NCC1C3C1C52C4

>  <smiles>  (256) 
[H]C1([H])C2([H])C([H])([H])C34C5([H])C6([H])C5([H])C2([H])[N+]2([H])C([H])([H])C([H])([H])C([H])([H])C3(C2([H])C14[H])[N+]([H])([H])C6([H])[H]

$$$$
79:0:0
     RDKit          3D

 87 92  0  0  1  0  0  0  0  0999 V2000
    0.7922    4.9587    3.6758 C   0  0  0  0  0  0  0  0  0  0  0  0
   -0.1571    4.0647    3.9639 C   0  0  0  0  0  0  0  0  0  0  0  0
   -1.5183    4.1695    3.2823 C   0  0  0  0  0  0  0  0  0  0  0  0
    0.0006    2.9251    4.9976 C   0  0  2  0  0  0  0  0  0  0  0  0
    1.2336    3.0273    5.9261 C   0  0  0  0  0  0  0  0  0  0  0  0
    1.4926    1.6144    6.4737 C   0  0  0  0  0  0  0  0  0  0  0  0
    0.4682    0.6705    5.7884 C   0  0  2  0  0  0  0  0  0  0  0  0
   -0.7080    0.5371    6.8087 C   0  0  0  0  0  0  0  0  0  0  0  0
    0.9903   -0.7718    5.5012 C   0  0  0  0  0  0  0  0  0  0  0  0
    0.2495   -1.7402    5.6785 O   0  0  0  0  0  0  0  0  0  0  0  0
    2.3996   -0.9875    4.8889 C   0  0  1  0  0  0  0  0  0  0  0  0
    2.9937   -2.3800    5.2588 C   0  0  0  0  0  0  0  0  0  0  0  0
    3.1441   -3.1703    3.9471 C   0  0  1  0  0  0  0  0  0  0  0  0
    2.8010   -4.6568    3.9417 C   0  0  0  0  0  0  0  0  0  0  0  0
    3.0476   -5.4494    5.0093 C   0  0  0  0  0  0  0  0  0  0  0  0
    2.7608   -6.9329    5.0648 C   0  0  0  0  0  0  0  0  0  0  0  0
    1.8608   -7.4412    3.9119 C   0  0  1  0  0  0  0  0  0  0  0  0
    0.3236   -7.4739    4.2791 C   0  0  0  0  0  0  0  0  0  0  0  0
    0.0683   -8.6392    5.2722 C   0  0  0  0  0  0  0  0  0  0  0  0
   -0.1856   -6.1764    4.9430 C   0  0  0  0  0  0  0  0  0  0  0  0
   -0.5677   -7.7321    3.0330 C   0  0  0  0  0  0  0  0  0  0  0  0
   -1.6555   -8.2763    3.1100 O   0  0  0  0  0  0  0  0  0  0  0  0
   -0.1167   -7.1496    1.7021 C   0  0  0  0  0  0  0  0  0  0  0  0
    1.3648   -7.4056    1.4751 C   0  0  0  0  0  0  0  0  0  0  0  0
    2.2873   -6.7835    2.5490 C   0  0  2  0  0  0  0  0  0  0  0  0
    3.7286   -7.2344    2.1915 C   0  0  0  0  0  0  0  0  0  0  0  0
    2.2256   -5.2047    2.6195 C   0  0  2  0  0  0  0  0  0  0  0  0
    2.8435   -4.3980    1.4169 C   0  0  1  0  0  0  0  0  0  0  0  0
    2.3063   -4.7875    0.1696 O   0  0  0  0  0  0  0  0  0  0  0  0
    2.6409   -2.8569    1.5194 C   0  0  0  0  0  0  0  0  0  0  0  0
    2.2974   -2.4028    2.9483 C   0  0  2  0  0  0  0  0  0  0  0  0
    2.4357   -0.9095    3.3350 C   0  0  2  0  0  0  0  0  0  0  0  0
    3.8065   -0.3186    2.9122 C   0  0  0  0  0  0  0  0  0  0  0  0
    1.3000   -0.0631    2.6962 C   0  0  0  0  0  0  0  0  0  0  0  0
    1.0637    1.3375    3.3142 C   0  0  0  0  0  0  0  0  0  0  0  0
    0.0302    1.4468    4.4867 C   0  0  2  0  0  0  0  0  0  0  0  0
   -1.3548    0.9586    3.9868 C   0  0  0  0  0  0  0  0  0  0  0  0
    0.6050    5.7328    2.9382 H   0  0  0  0  0  0  0  0  0  0  0  0
    1.7748    4.9765    4.1294 H   0  0  0  0  0  0  0  0  0  0  0  0
   -2.3208    4.2061    4.0175 H   0  0  0  0  0  0  0  0  0  0  0  0
   -1.6943    3.3434    2.6009 H   0  0  0  0  0  0  0  0  0  0  0  0
   -1.5671    5.0680    2.6651 H   0  0  0  0  0  0  0  0  0  0  0  0
   -0.8657    3.0490    5.6432 H   0  0  0  0  0  0  0  0  0  0  0  0
    2.1371    3.3312    5.3966 H   0  0  0  0  0  0  0  0  0  0  0  0
    1.0701    3.7487    6.7297 H   0  0  0  0  0  0  0  0  0  0  0  0
    2.5361    1.3710    6.2831 H   0  0  0  0  0  0  0  0  0  0  0  0
    1.3888    1.6110    7.5626 H   0  0  0  0  0  0  0  0  0  0  0  0
   -1.1075    1.4984    7.1323 H   0  0  0  0  0  0  0  0  0  0  0  0
   -0.3720    0.0291    7.7148 H   0  0  0  0  0  0  0  0  0  0  0  0
   -1.5383   -0.0456    6.4132 H   0  0  0  0  0  0  0  0  0  0  0  0
    3.0731   -0.2382    5.2866 H   0  0  0  0  0  0  0  0  0  0  0  0
    3.9774   -2.2508    5.7086 H   0  0  0  0  0  0  0  0  0  0  0  0
    2.4007   -2.9225    5.9979 H   0  0  0  0  0  0  0  0  0  0  0  0
    4.1858   -3.1064    3.6264 H   0  0  0  0  0  0  0  0  0  0  0  0
    3.5094   -5.0377    5.8949 H   0  0  0  0  0  0  0  0  0  0  0  0
    3.7225   -7.4472    5.0301 H   0  0  0  0  0  0  0  0  0  0  0  0
    2.3375   -7.1675    6.0399 H   0  0  0  0  0  0  0  0  0  0  0  0
    2.1237   -8.4961    3.8093 H   0  0  0  0  0  0  0  0  0  0  0  0
    0.6157   -8.5214    6.2083 H   0  0  0  0  0  0  0  0  0  0  0  0
    0.3603   -9.5993    4.8444 H   0  0  0  0  0  0  0  0  0  0  0  0
   -0.9847   -8.7310    5.5396 H   0  0  0  0  0  0  0  0  0  0  0  0
    0.3220   -5.9704    5.8850 H   0  0  0  0  0  0  0  0  0  0  0  0
   -1.2491   -6.2438    5.1657 H   0  0  0  0  0  0  0  0  0  0  0  0
   -0.0557   -5.3023    4.3146 H   0  0  0  0  0  0  0  0  0  0  0  0
   -0.7030   -7.6058    0.9003 H   0  0  0  0  0  0  0  0  0  0  0  0
   -0.3296   -6.0879    1.6865 H   0  0  0  0  0  0  0  0  0  0  0  0
    1.5086   -8.4872    1.4580 H   0  0  0  0  0  0  0  0  0  0  0  0
    1.6315   -7.0657    0.4807 H   0  0  0  0  0  0  0  0  0  0  0  0
    3.9851   -6.9603    1.1678 H   0  0  0  0  0  0  0  0  0  0  0  0
    3.8497   -8.3156    2.2649 H   0  0  0  0  0  0  0  0  0  0  0  0
    4.4732   -6.7791    2.8428 H   0  0  0  0  0  0  0  0  0  0  0  0
    1.1781   -4.9237    2.6372 H   0  0  0  0  0  0  0  0  0  0  0  0
    3.9158   -4.5986    1.4027 H   0  0  0  0  0  0  0  0  0  0  0  0
    2.8832   -4.4902   -0.5290 H   0  0  0  0  0  0  0  0  0  0  0  0
    3.5362   -2.3606    1.1414 H   0  0  0  0  0  0  0  0  0  0  0  0
    1.8208   -2.5354    0.8758 H   0  0  0  0  0  0  0  0  0  0  0  0
    1.2561   -2.6756    3.1351 H   0  0  0  0  0  0  0  0  0  0  0  0
    3.8971   -0.2337    1.8302 H   0  0  0  0  0  0  0  0  0  0  0  0
    4.6439   -0.9159    3.2690 H   0  0  0  0  0  0  0  0  0  0  0  0
    3.9520    0.6823    3.3159 H   0  0  0  0  0  0  0  0  0  0  0  0
    1.5479    0.0741    1.6431 H   0  0  0  0  0  0  0  0  0  0  0  0
    0.3661   -0.6239    2.6698 H   0  0  0  0  0  0  0  0  0  0  0  0
    2.0159    1.7923    3.5857 H   0  0  0  0  0  0  0  0  0  0  0  0
    0.6953    1.9642    2.5035 H   0  0  0  0  0  0  0  0  0  0  0  0
   -1.4384   -0.1284    4.0006 H   0  0  0  0  0  0  0  0  0  0  0  0
   -1.5488    1.2476    2.9571 H   0  0  0  0  0  0  0  0  0  0  0  0
   -2.1655    1.3544    4.5983 H   0  0  0  0  0  0  0  0  0  0  0  0
  1  2  2  0
  1 38  1  0
  1 39  1  0
  2  3  1  0
  2  4  1  0
  3 40  1  0
  3 41  1  0
  3 42  1  0
  4 36  1  0
  4  5  1  0
  4 43  1  1
  5  6  1  0
  5 44  1  0
  5 45  1  0
  6  7  1  0
  6 46  1  0
  6 47  1  0
  7 36  1  0
  7  8  1  1
  7  9  1  0
  8 48  1  0
  8 49  1  0
  8 50  1  0
  9 10  2  0
  9 11  1  0
 11 32  1  0
 11 12  1  0
 11 51  1  1
 12 13  1  0
 12 52  1  0
 12 53  1  0
 13 31  1  0
 13 14  1  0
 13 54  1  6
 14 27  1  0
 14 15  2  0
 15 16  1  0
 15 55  1  0
 16 17  1  0
 16 56  1  0
 16 57  1  0
 17 25  1  0
 17 18  1  0
 17 58  1  6
 18 19  1  0
 18 20  1  0
 18 21  1  0
 19 59  1  0
 19 60  1  0
 19 61  1  0
 20 62  1  0
 20 63  1  0
 20 64  1  0
 21 22  2  0
 21 23  1  0
 23 24  1  0
 23 65  1  0
 23 66  1  0
 24 25  1  0
 24 67  1  0
 24 68  1  0
 25 26  1  6
 25 27  1  0
 26 69  1  0
 26 70  1  0
 26 71  1  0
 27 28  1  0
 27 72  1  1
 28 29  1  0
 28 30  1  0
 28 73  1  6
 29 74  1  0
 30 31  1  0
 30 75  1  0
 30 76  1  0
 31 32  1  0
 31 77  1  1
 32 33  1  1
 32 34  1  0
 33 78  1  0
 33 79  1  0
 33 80  1  0
 34 35  1  0
 34 81  1  0
 34 82  1  0
 35 36  1  0
 35 83  1  0
 35 84  1  0
 36 37  1  6
 37 85  1  0
 37 86  1  0
 37 87  1  0
M  END
>  <i_m_ct_stereo_status>  (257) 
1

>  <s_m_source_file>  (257) 
/var/tmp/pbs.5076255.sched01/tmp2gjrvvgn/102_qij5c5l.sdf

>  <i_m_source_file_index>  (257) 
2

>  <i_lp_mmshare_version>  (257) 
48012

>  <i_f3d_flags>  (257) 
0

>  <s_epik_input>  (257) 
W0NIMl09QyhbQ0gzXSlbQ0BIXShbQ0gyXVtDSDJdMSlbQ0BdKFtDSDNdKShbQ0BdMTJbQ0gzXSlbQ0gyXVtDSDJdW0NAQF0zKFtDSDNdKVtDQEBIXShDMj1PKVtDSDJdW0NASF00Qz01W0NAQEhdKFtDQEBIXShbT0hdKVtDSDJdW0NASF0zNClbQ0BAXTYoW0NIM10pW0NAQEhdKFtDSDJdW0NIXTUpQyhbQ0gzXSkoW0NIM10pQyg9TylbQ0gyXVtDSDJdNg==

>  <s_epik_cmdline>  (257) 
J2VwaWtfcHl0aG9uJywgJy1waHQnLCAnMi4wJywgJy1waCcsICc3LjAnLCAnLXRuJywgJzgnLCAnLW1hJywgJzIwMCcsICctaW1hZScsICc8aW5maWxlLm1hZT4nLCAnLW9tYWUnLCAnPG91dGZpbGUubWFlPic=

>  <r_lp_tautomer_probability>  (257) 
1

>  <r_epik_Ionization_Penalty>  (257) 
1.04368e-06

>  <r_epik_Ionization_Penalty_Charging>  (257) 
0

>  <r_epik_Ionization_Penalty_Neutral>  (257) 
1.04368e-06

>  <r_epik_State_Penalty>  (257) 
-0

>  <r_epik_Charging_Adjusted_Penalty>  (257) 
0

>  <i_epik_Tot_Q>  (257) 
0

>  <i_epik_Tot_abs_Q>  (257) 
0

>  <s_lp_Force_Field>  (257) 
OPLS3e

>  <r_lp_Energy>  (257) 
68.7195

>  <b_lp_Chiralities_Consistent>  (257) 
1

>  <s_lp_Variant>  (257) 
79:0-1

>  <s_i_glide_gridfile>  (257) 
pfpi4k_grid

>  <i_i_glide_lignum>  (257) 
2

>  <i_i_glide_rotatable_bonds>  (257) 
2

>  <r_i_docking_score>  (257) 
-2.02204

>  <r_i_glide_ligand_efficiency>  (257) 
-0.0546497

>  <r_i_glide_ligand_efficiency_sa>  (257) 
-0.182105

>  <r_i_glide_ligand_efficiency_ln>  (257) 
-0.438533

>  <r_i_glide_gscore>  (257) 
-2.02204

>  <r_i_glide_lipo>  (257) 
-0.0400505

>  <r_i_glide_hbond>  (257) 
-0.00135696

>  <r_i_glide_metal>  (257) 
-0

>  <r_i_glide_rewards>  (257) 
0

>  <r_i_glide_evdw>  (257) 
-35.3821

>  <r_i_glide_ecoul>  (257) 
-1.52191

>  <r_i_glide_erotb>  (257) 
0.0796798

>  <r_i_glide_esite>  (257) 
-0.0629183

>  <r_i_glide_emodel>  (257) 
-41.1109

>  <r_i_glide_energy>  (257) 
-36.904

>  <r_i_glide_einternal>  (257) 
0.513333

>  <r_i_glide_intrahb_reward>  (257) 
-0

>  <i_i_glide_confnum>  (257) 
4

>  <i_i_glide_posenum>  (257) 
26

>  <r_i_glide_eff_state_penalty>  (257) 
0

>  <ligand_id>  (257) 
79

>  <original_smiles>  (257) 
C=C(C)C1CCC2(C)C(=O)C3CC4C5=CCC6C(C)(C)C(=O)CCC6(C)C5C(O)CC4C3(C)CCC12C

>  <smiles>  (257) 
[H]OC1([H])C([H])([H])C2([H])C([H])(C3=C([H])C([H])([H])C4([H])C(C([H])([H])[H])(C([H])([H])[H])C(=O)C([H])([H])C([H])([H])C4(C([H])([H])[H])C31[H])C([H])([H])C1([H])C(=O)C3(C([H])([H])[H])C([H])([H])C([H])([H])C([H])(C(=C([H])[H])C([H])([H])[H])C3(C([H])([H])[H])C([H])([H])C([H])([H])C12C([H])([H])[H]

$$$$
79:0:1
     RDKit          3D

 87 92  0  0  1  0  0  0  0  0999 V2000
    2.7719  -11.7690    4.8216 C   0  0  0  0  0  0  0  0  0  0  0  0
    2.1467  -10.9077    3.9992 C   0  0  0  0  0  0  0  0  0  0  0  0
    0.6679  -11.1062    3.7092 C   0  0  0  0  0  0  0  0  0  0  0  0
    2.8425   -9.7343    3.2777 C   0  0  2  0  0  0  0  0  0  0  0  0
    4.3745   -9.6428    3.4777 C   0  0  0  0  0  0  0  0  0  0  0  0
    4.7829   -8.1958    3.1614 C   0  0  0  0  0  0  0  0  0  0  0  0
    3.4713   -7.4167    2.8589 C   0  0  2  0  0  0  0  0  0  0  0  0
    3.3443   -7.4150    1.3052 C   0  0  0  0  0  0  0  0  0  0  0  0
    3.4643   -5.9230    3.3191 C   0  0  0  0  0  0  0  0  0  0  0  0
    2.9399   -5.0589    2.6101 O   0  0  0  0  0  0  0  0  0  0  0  0
    4.0097   -5.5279    4.7136 C   0  0  1  0  0  0  0  0  0  0  0  0
    4.5256   -4.0567    4.7565 C   0  0  0  0  0  0  0  0  0  0  0  0
    3.6161   -3.2909    5.7341 C   0  0  1  0  0  0  0  0  0  0  0  0
    3.1983   -1.8588    5.3804 C   0  0  0  0  0  0  0  0  0  0  0  0
    4.0229   -1.0192    4.7309 C   0  0  0  0  0  0  0  0  0  0  0  0
    3.6884    0.4155    4.3707 C   0  0  0  0  0  0  0  0  0  0  0  0
    2.1880    0.7575    4.5322 C   0  0  1  0  0  0  0  0  0  0  0  0
    1.3532    0.5814    3.1967 C   0  0  0  0  0  0  0  0  0  0  0  0
    1.7332    1.7248    2.2162 C   0  0  0  0  0  0  0  0  0  0  0  0
    1.6145   -0.7631    2.4784 C   0  0  0  0  0  0  0  0  0  0  0  0
   -0.1699    0.6747    3.4510 C   0  0  0  0  0  0  0  0  0  0  0  0
   -0.9507    1.1278    2.6109 O   0  0  0  0  0  0  0  0  0  0  0  0
   -0.7244    0.1234    4.7550 C   0  0  0  0  0  0  0  0  0  0  0  0
    0.1241    0.5975    5.9359 C   0  0  0  0  0  0  0  0  0  0  0  0
    1.6040    0.1357    5.8549 C   0  0  2  0  0  0  0  0  0  0  0  0
    2.3251    0.7680    7.0746 C   0  0  0  0  0  0  0  0  0  0  0  0
    1.7971   -1.4372    5.8824 C   0  0  2  0  0  0  0  0  0  0  0  0
    1.4818   -2.1816    7.2246 C   0  0  1  0  0  0  0  0  0  0  0  0
    0.2089   -1.8673    7.7507 O   0  0  0  0  0  0  0  0  0  0  0  0
    1.5785   -3.7333    7.1285 C   0  0  0  0  0  0  0  0  0  0  0  0
    2.4070   -4.1928    5.9126 C   0  0  2  0  0  0  0  0  0  0  0  0
    2.9552   -5.6416    5.8539 C   0  0  2  0  0  0  0  0  0  0  0  0
    3.6925   -6.0462    7.1567 C   0  0  0  0  0  0  0  0  0  0  0  0
    1.8038   -6.6546    5.5897 C   0  0  0  0  0  0  0  0  0  0  0  0
    2.2319   -8.0572    5.0926 C   0  0  0  0  0  0  0  0  0  0  0  0
    2.3356   -8.2766    3.5447 C   0  0  2  0  0  0  0  0  0  0  0  0
    0.9504   -7.9957    2.8943 C   0  0  0  0  0  0  0  0  0  0  0  0
    2.2176  -12.5745    5.2813 H   0  0  0  0  0  0  0  0  0  0  0  0
    3.8214  -11.7185    5.0664 H   0  0  0  0  0  0  0  0  0  0  0  0
    0.4886  -11.1451    2.6337 H   0  0  0  0  0  0  0  0  0  0  0  0
    0.0673  -10.3155    4.1484 H   0  0  0  0  0  0  0  0  0  0  0  0
    0.3071  -12.0461    4.1347 H   0  0  0  0  0  0  0  0  0  0  0  0
    2.6981   -9.9661    2.2231 H   0  0  0  0  0  0  0  0  0  0  0  0
    4.6698   -9.8438    4.5104 H   0  0  0  0  0  0  0  0  0  0  0  0
    4.9061  -10.3621    2.8471 H   0  0  0  0  0  0  0  0  0  0  0  0
    5.3578   -7.8168    4.0015 H   0  0  0  0  0  0  0  0  0  0  0  0
    5.4688   -8.1787    2.3122 H   0  0  0  0  0  0  0  0  0  0  0  0
    3.4005   -8.4181    0.8837 H   0  0  0  0  0  0  0  0  0  0  0  0
    4.1518   -6.8435    0.8425 H   0  0  0  0  0  0  0  0  0  0  0  0
    2.4144   -6.9675    0.9539 H   0  0  0  0  0  0  0  0  0  0  0  0
    4.8494   -6.1707    4.9534 H   0  0  0  0  0  0  0  0  0  0  0  0
    5.5481   -4.0423    5.1290 H   0  0  0  0  0  0  0  0  0  0  0  0
    4.5592   -3.5880    3.7732 H   0  0  0  0  0  0  0  0  0  0  0  0
    4.1331   -3.2172    6.6918 H   0  0  0  0  0  0  0  0  0  0  0  0
    5.0148   -1.3434    4.4490 H   0  0  0  0  0  0  0  0  0  0  0  0
    4.2835    1.0577    5.0184 H   0  0  0  0  0  0  0  0  0  0  0  0
    4.0435    0.6110    3.3617 H   0  0  0  0  0  0  0  0  0  0  0  0
    2.1746    1.8371    4.6976 H   0  0  0  0  0  0  0  0  0  0  0  0
    2.7852    1.7117    1.9382 H   0  0  0  0  0  0  0  0  0  0  0  0
    1.5249    2.7061    2.6454 H   0  0  0  0  0  0  0  0  0  0  0  0
    1.1651    1.6710    1.2857 H   0  0  0  0  0  0  0  0  0  0  0  0
    2.6518   -0.8709    2.1650 H   0  0  0  0  0  0  0  0  0  0  0  0
    1.0088   -0.8453    1.5779 H   0  0  0  0  0  0  0  0  0  0  0  0
    1.3649   -1.6286    3.0852 H   0  0  0  0  0  0  0  0  0  0  0  0
   -1.7523    0.4663    4.8680 H   0  0  0  0  0  0  0  0  0  0  0  0
   -0.7594   -0.9627    4.6952 H   0  0  0  0  0  0  0  0  0  0  0  0
    0.1007    1.6896    5.9357 H   0  0  0  0  0  0  0  0  0  0  0  0
   -0.3570    0.3275    6.8707 H   0  0  0  0  0  0  0  0  0  0  0  0
    1.8298    0.5101    8.0095 H   0  0  0  0  0  0  0  0  0  0  0  0
    2.3389    1.8580    7.0192 H   0  0  0  0  0  0  0  0  0  0  0  0
    3.3596    0.4358    7.1592 H   0  0  0  0  0  0  0  0  0  0  0  0
    1.1043   -1.8568    5.1618 H   0  0  0  0  0  0  0  0  0  0  0  0
    2.2105   -1.8567    7.9684 H   0  0  0  0  0  0  0  0  0  0  0  0
    0.2365   -0.9643    8.0257 H   0  0  0  0  0  0  0  0  0  0  0  0
    2.0107   -4.1012    8.0604 H   0  0  0  0  0  0  0  0  0  0  0  0
    0.5866   -4.1817    7.0573 H   0  0  0  0  0  0  0  0  0  0  0  0
    1.7813   -4.0605    5.0289 H   0  0  0  0  0  0  0  0  0  0  0  0
    3.0111   -6.1440    8.0007 H   0  0  0  0  0  0  0  0  0  0  0  0
    4.4637   -5.3299    7.4375 H   0  0  0  0  0  0  0  0  0  0  0  0
    4.1960   -7.0064    7.0480 H   0  0  0  0  0  0  0  0  0  0  0  0
    1.2632   -6.7837    6.5274 H   0  0  0  0  0  0  0  0  0  0  0  0
    1.0614   -6.2305    4.9150 H   0  0  0  0  0  0  0  0  0  0  0  0
    3.1476   -8.3668    5.5943 H   0  0  0  0  0  0  0  0  0  0  0  0
    1.4818   -8.7503    5.4686 H   0  0  0  0  0  0  0  0  0  0  0  0
    0.7891   -6.9284    2.7308 H   0  0  0  0  0  0  0  0  0  0  0  0
    0.1194   -8.3418    3.5030 H   0  0  0  0  0  0  0  0  0  0  0  0
    0.8643   -8.4832    1.9230 H   0  0  0  0  0  0  0  0  0  0  0  0
  1  2  2  0
  1 38  1  0
  1 39  1  0
  2  3  1  0
  2  4  1  0
  3 40  1  0
  3 41  1  0
  3 42  1  0
  4 36  1  0
  4  5  1  0
  4 43  1  6
  5  6  1  0
  5 44  1  0
  5 45  1  0
  6  7  1  0
  6 46  1  0
  6 47  1  0
  7 36  1  0
  7  8  1  6
  7  9  1  0
  8 48  1  0
  8 49  1  0
  8 50  1  0
  9 10  2  0
  9 11  1  0
 11 32  1  0
 11 12  1  0
 11 51  1  1
 12 13  1  0
 12 52  1  0
 12 53  1  0
 13 31  1  0
 13 14  1  0
 13 54  1  1
 14 27  1  0
 14 15  2  0
 15 16  1  0
 15 55  1  0
 16 17  1  0
 16 56  1  0
 16 57  1  0
 17 25  1  0
 17 18  1  0
 17 58  1  1
 18 19  1  0
 18 20  1  0
 18 21  1  0
 19 59  1  0
 19 60  1  0
 19 61  1  0
 20 62  1  0
 20 63  1  0
 20 64  1  0
 21 22  2  0
 21 23  1  0
 23 24  1  0
 23 65  1  0
 23 66  1  0
 24 25  1  0
 24 67  1  0
 24 68  1  0
 25 26  1  1
 25 27  1  0
 26 69  1  0
 26 70  1  0
 26 71  1  0
 27 28  1  0
 27 72  1  6
 28 29  1  0
 28 30  1  0
 28 73  1  1
 29 74  1  0
 30 31  1  0
 30 75  1  0
 30 76  1  0
 31 32  1  0
 31 77  1  6
 32 33  1  1
 32 34  1  0
 33 78  1  0
 33 79  1  0
 33 80  1  0
 34 35  1  0
 34 81  1  0
 34 82  1  0
 35 36  1  0
 35 83  1  0
 35 84  1  0
 36 37  1  6
 37 85  1  0
 37 86  1  0
 37 87  1  0
M  END
>  <i_m_ct_stereo_status>  (258) 
1

>  <s_m_source_file>  (258) 
/var/tmp/pbs.5076255.sched01/tmp2gjrvvgn/102_qij5c5l.sdf

>  <i_m_source_file_index>  (258) 
2

>  <i_lp_mmshare_version>  (258) 
48012

>  <i_f3d_flags>  (258) 
0

>  <s_epik_input>  (258) 
W0NIMl09QyhbQ0gzXSlbQ0BIXShbQ0gyXVtDSDJdMSlbQ0BdKFtDSDNdKShbQ0BdMTJbQ0gzXSlbQ0gyXVtDSDJdW0NAQF0zKFtDSDNdKVtDQEBIXShDMj1PKVtDSDJdW0NASF00Qz01W0NAQEhdKFtDQEBIXShbT0hdKVtDSDJdW0NASF0zNClbQ0BAXTYoW0NIM10pW0NAQEhdKFtDSDJdW0NIXTUpQyhbQ0gzXSkoW0NIM10pQyg9TylbQ0gyXVtDSDJdNg==

>  <s_epik_cmdline>  (258) 
J2VwaWtfcHl0aG9uJywgJy1waHQnLCAnMi4wJywgJy1waCcsICc3LjAnLCAnLXRuJywgJzgnLCAnLW1hJywgJzIwMCcsICctaW1hZScsICc8aW5maWxlLm1hZT4nLCAnLW9tYWUnLCAnPG91dGZpbGUubWFlPic=

>  <r_lp_tautomer_probability>  (258) 
1

>  <r_epik_Ionization_Penalty>  (258) 
1.04368e-06

>  <r_epik_Ionization_Penalty_Charging>  (258) 
0

>  <r_epik_Ionization_Penalty_Neutral>  (258) 
1.04368e-06

>  <r_epik_State_Penalty>  (258) 
-0

>  <r_epik_Charging_Adjusted_Penalty>  (258) 
0

>  <i_epik_Tot_Q>  (258) 
0

>  <i_epik_Tot_abs_Q>  (258) 
0

>  <s_lp_Force_Field>  (258) 
OPLS3e

>  <r_lp_Energy>  (258) 
68.7195

>  <b_lp_Chiralities_Consistent>  (258) 
1

>  <s_lp_Variant>  (258) 
79:0-1

>  <s_i_glide_gridfile>  (258) 
pfpi4k_grid

>  <i_i_glide_lignum>  (258) 
2

>  <i_i_glide_rotatable_bonds>  (258) 
2

>  <r_i_docking_score>  (258) 
-1.55156

>  <r_i_glide_ligand_efficiency>  (258) 
-0.0419342

>  <r_i_glide_ligand_efficiency_sa>  (258) 
-0.139734

>  <r_i_glide_ligand_efficiency_ln>  (258) 
-0.336498

>  <r_i_glide_gscore>  (258) 
-1.55156

>  <r_i_glide_lipo>  (258) 
-0.12071

>  <r_i_glide_hbond>  (258) 
-0.0162563

>  <r_i_glide_metal>  (258) 
-0

>  <r_i_glide_rewards>  (258) 
0

>  <r_i_glide_evdw>  (258) 
-28.6276

>  <r_i_glide_ecoul>  (258) 
-0.25224

>  <r_i_glide_erotb>  (258) 
0.0796798

>  <r_i_glide_esite>  (258) 
-0.0250611

>  <r_i_glide_emodel>  (258) 
-32.1346

>  <r_i_glide_energy>  (258) 
-28.8799

>  <r_i_glide_einternal>  (258) 
0.381059

>  <r_i_glide_intrahb_reward>  (258) 
-0

>  <i_i_glide_confnum>  (258) 
6

>  <i_i_glide_posenum>  (258) 
16

>  <r_i_glide_eff_state_penalty>  (258) 
0

>  <ligand_id>  (258) 
79

>  <original_smiles>  (258) 
C=C(C)C1CCC2(C)C(=O)C3CC4C5=CCC6C(C)(C)C(=O)CCC6(C)C5C(O)CC4C3(C)CCC12C

>  <smiles>  (258) 
[H]OC1([H])C([H])([H])C2([H])C([H])(C3=C([H])C([H])([H])C4([H])C(C([H])([H])[H])(C([H])([H])[H])C(=O)C([H])([H])C([H])([H])C4(C([H])([H])[H])C31[H])C([H])([H])C1([H])C(=O)C3(C([H])([H])[H])C([H])([H])C([H])([H])C([H])(C(=C([H])[H])C([H])([H])[H])C3(C([H])([H])[H])C([H])([H])C([H])([H])C12C([H])([H])[H]

$$$$
79:0:2
     RDKit          3D

 87 92  0  0  1  0  0  0  0  0999 V2000
   -0.3059   -8.1193    1.8750 C   0  0  0  0  0  0  0  0  0  0  0  0
   -0.4343   -7.9706    3.2010 C   0  0  0  0  0  0  0  0  0  0  0  0
   -1.8167   -7.8264    3.8144 C   0  0  0  0  0  0  0  0  0  0  0  0
    0.7841   -7.9814    4.1340 C   0  0  2  0  0  0  0  0  0  0  0  0
    0.5852   -8.7003    5.4803 C   0  0  0  0  0  0  0  0  0  0  0  0
    1.6453   -8.1294    6.4340 C   0  0  0  0  0  0  0  0  0  0  0  0
    2.4242   -7.0306    5.6533 C   0  0  2  0  0  0  0  0  0  0  0  0
    3.7040   -7.7366    5.1065 C   0  0  0  0  0  0  0  0  0  0  0  0
    2.9002   -5.8153    6.5142 C   0  0  0  0  0  0  0  0  0  0  0  0
    4.0096   -5.3142    6.3186 O   0  0  0  0  0  0  0  0  0  0  0  0
    1.9475   -5.1620    7.5505 C   0  0  1  0  0  0  0  0  0  0  0  0
    2.7221   -4.4666    8.7114 C   0  0  0  0  0  0  0  0  0  0  0  0
    2.4240   -2.9599    8.6132 C   0  0  1  0  0  0  0  0  0  0  0  0
    3.5565   -1.9623    8.8703 C   0  0  0  0  0  0  0  0  0  0  0  0
    4.5164   -2.2029    9.7824 C   0  0  0  0  0  0  0  0  0  0  0  0
    5.6538   -1.2555   10.1119 C   0  0  0  0  0  0  0  0  0  0  0  0
    5.8134   -0.1065    9.0858 C   0  0  1  0  0  0  0  0  0  0  0  0
    6.8586   -0.4260    7.9363 C   0  0  0  0  0  0  0  0  0  0  0  0
    8.2916   -0.3809    8.5392 C   0  0  0  0  0  0  0  0  0  0  0  0
    6.6664   -1.8173    7.2877 C   0  0  0  0  0  0  0  0  0  0  0  0
    6.8021    0.6206    6.7938 C   0  0  0  0  0  0  0  0  0  0  0  0
    7.8006    0.9379    6.1487 O   0  0  0  0  0  0  0  0  0  0  0  0
    5.4504    1.2279    6.4380 C   0  0  0  0  0  0  0  0  0  0  0  0
    4.7024    1.6552    7.7027 C   0  0  0  0  0  0  0  0  0  0  0  0
    4.4132    0.4786    8.6710 C   0  0  2  0  0  0  0  0  0  0  0  0
    3.7320    1.1014    9.9194 C   0  0  0  0  0  0  0  0  0  0  0  0
    3.4785   -0.6450    8.0628 C   0  0  2  0  0  0  0  0  0  0  0  0
    1.9717   -0.2766    7.8133 C   0  0  1  0  0  0  0  0  0  0  0  0
    1.7855    0.8949    7.0465 O   0  0  0  0  0  0  0  0  0  0  0  0
    1.1569   -1.4010    7.1080 C   0  0  0  0  0  0  0  0  0  0  0  0
    1.8332   -2.7786    7.2270 C   0  0  2  0  0  0  0  0  0  0  0  0
    1.0203   -4.0638    6.9466 C   0  0  2  0  0  0  0  0  0  0  0  0
   -0.3271   -4.0904    7.7173 C   0  0  0  0  0  0  0  0  0  0  0  0
    0.7430   -4.2059    5.4270 C   0  0  0  0  0  0  0  0  0  0  0  0
    0.3250   -5.6136    4.9587 C   0  0  0  0  0  0  0  0  0  0  0  0
    1.4353   -6.6118    4.4985 C   0  0  2  0  0  0  0  0  0  0  0  0
    2.1615   -6.0093    3.2702 C   0  0  0  0  0  0  0  0  0  0  0  0
   -1.1758   -8.1377    1.2370 H   0  0  0  0  0  0  0  0  0  0  0  0
    0.6588   -8.2437    1.3981 H   0  0  0  0  0  0  0  0  0  0  0  0
   -1.9317   -6.9288    4.4192 H   0  0  0  0  0  0  0  0  0  0  0  0
   -2.0403   -8.6887    4.4396 H   0  0  0  0  0  0  0  0  0  0  0  0
   -2.5810   -7.7968    3.0388 H   0  0  0  0  0  0  0  0  0  0  0  0
    1.5294   -8.5626    3.5899 H   0  0  0  0  0  0  0  0  0  0  0  0
   -0.3941   -8.4914    5.9096 H   0  0  0  0  0  0  0  0  0  0  0  0
    0.6587   -9.7852    5.3766 H   0  0  0  0  0  0  0  0  0  0  0  0
    1.1348   -7.7793    7.3260 H   0  0  0  0  0  0  0  0  0  0  0  0
    2.3039   -8.9319    6.7724 H   0  0  0  0  0  0  0  0  0  0  0  0
    3.4819   -8.6411    4.5414 H   0  0  0  0  0  0  0  0  0  0  0  0
    4.3518   -8.0468    5.9288 H   0  0  0  0  0  0  0  0  0  0  0  0
    4.3026   -7.0918    4.4635 H   0  0  0  0  0  0  0  0  0  0  0  0
    1.3277   -5.9347    7.9935 H   0  0  0  0  0  0  0  0  0  0  0  0
    2.3596   -4.8410    9.6680 H   0  0  0  0  0  0  0  0  0  0  0  0
    3.7939   -4.6675    8.6869 H   0  0  0  0  0  0  0  0  0  0  0  0
    1.6485   -2.7180    9.3419 H   0  0  0  0  0  0  0  0  0  0  0  0
    4.4957   -3.1161   10.3613 H   0  0  0  0  0  0  0  0  0  0  0  0
    5.4475   -0.8415   11.0994 H   0  0  0  0  0  0  0  0  0  0  0  0
    6.5678   -1.8379   10.2179 H   0  0  0  0  0  0  0  0  0  0  0  0
    6.2929    0.6932    9.6540 H   0  0  0  0  0  0  0  0  0  0  0  0
    8.4423   -1.1238    9.3215 H   0  0  0  0  0  0  0  0  0  0  0  0
    8.5104    0.5969    8.9733 H   0  0  0  0  0  0  0  0  0  0  0  0
    9.0583   -0.5711    7.7867 H   0  0  0  0  0  0  0  0  0  0  0  0
    6.7877   -2.6247    8.0078 H   0  0  0  0  0  0  0  0  0  0  0  0
    7.3997   -1.9885    6.4981 H   0  0  0  0  0  0  0  0  0  0  0  0
    5.6896   -1.9366    6.8284 H   0  0  0  0  0  0  0  0  0  0  0  0
    5.6150    2.0927    5.7962 H   0  0  0  0  0  0  0  0  0  0  0  0
    4.8802    0.5080    5.8562 H   0  0  0  0  0  0  0  0  0  0  0  0
    5.3217    2.3903    8.2202 H   0  0  0  0  0  0  0  0  0  0  0  0
    3.8047    2.2102    7.4390 H   0  0  0  0  0  0  0  0  0  0  0  0
    2.8502    1.6803    9.6414 H   0  0  0  0  0  0  0  0  0  0  0  0
    4.3986    1.7846   10.4487 H   0  0  0  0  0  0  0  0  0  0  0  0
    3.4063    0.3453   10.6351 H   0  0  0  0  0  0  0  0  0  0  0  0
    3.8729   -0.8962    7.0837 H   0  0  0  0  0  0  0  0  0  0  0  0
    1.5108   -0.0930    8.7867 H   0  0  0  0  0  0  0  0  0  0  0  0
    2.2198    0.7952    6.2099 H   0  0  0  0  0  0  0  0  0  0  0  0
    0.1606   -1.4145    7.5461 H   0  0  0  0  0  0  0  0  0  0  0  0
    1.0196   -1.1793    6.0487 H   0  0  0  0  0  0  0  0  0  0  0  0
    2.6703   -2.7833    6.5245 H   0  0  0  0  0  0  0  0  0  0  0  0
   -1.0270   -3.3485    7.3400 H   0  0  0  0  0  0  0  0  0  0  0  0
   -0.1961   -3.9128    8.7827 H   0  0  0  0  0  0  0  0  0  0  0  0
   -0.8192   -5.0577    7.6310 H   0  0  0  0  0  0  0  0  0  0  0  0
   -0.0674   -3.5219    5.1758 H   0  0  0  0  0  0  0  0  0  0  0  0
    1.5860   -3.8498    4.8338 H   0  0  0  0  0  0  0  0  0  0  0  0
   -0.3089   -6.0749    5.7139 H   0  0  0  0  0  0  0  0  0  0  0  0
   -0.3122   -5.4415    4.0961 H   0  0  0  0  0  0  0  0  0  0  0  0
    2.8625   -5.2276    3.5610 H   0  0  0  0  0  0  0  0  0  0  0  0
    1.4575   -5.5745    2.5631 H   0  0  0  0  0  0  0  0  0  0  0  0
    2.7290   -6.7605    2.7218 H   0  0  0  0  0  0  0  0  0  0  0  0
  1  2  2  0
  1 38  1  0
  1 39  1  0
  2  3  1  0
  2  4  1  0
  3 40  1  0
  3 41  1  0
  3 42  1  0
  4 36  1  0
  4  5  1  0
  4 43  1  6
  5  6  1  0
  5 44  1  0
  5 45  1  0
  6  7  1  0
  6 46  1  0
  6 47  1  0
  7 36  1  0
  7  8  1  6
  7  9  1  0
  8 48  1  0
  8 49  1  0
  8 50  1  0
  9 10  2  0
  9 11  1  0
 11 32  1  0
 11 12  1  0
 11 51  1  1
 12 13  1  0
 12 52  1  0
 12 53  1  0
 13 31  1  0
 13 14  1  0
 13 54  1  1
 14 27  1  0
 14 15  2  0
 15 16  1  0
 15 55  1  0
 16 17  1  0
 16 56  1  0
 16 57  1  0
 17 25  1  0
 17 18  1  0
 17 58  1  1
 18 19  1  0
 18 20  1  0
 18 21  1  0
 19 59  1  0
 19 60  1  0
 19 61  1  0
 20 62  1  0
 20 63  1  0
 20 64  1  0
 21 22  2  0
 21 23  1  0
 23 24  1  0
 23 65  1  0
 23 66  1  0
 24 25  1  0
 24 67  1  0
 24 68  1  0
 25 26  1  1
 25 27  1  0
 26 69  1  0
 26 70  1  0
 26 71  1  0
 27 28  1  0
 27 72  1  6
 28 29  1  0
 28 30  1  0
 28 73  1  1
 29 74  1  0
 30 31  1  0
 30 75  1  0
 30 76  1  0
 31 32  1  0
 31 77  1  6
 32 33  1  1
 32 34  1  0
 33 78  1  0
 33 79  1  0
 33 80  1  0
 34 35  1  0
 34 81  1  0
 34 82  1  0
 35 36  1  0
 35 83  1  0
 35 84  1  0
 36 37  1  6
 37 85  1  0
 37 86  1  0
 37 87  1  0
M  END
>  <i_m_ct_stereo_status>  (259) 
1

>  <s_m_source_file>  (259) 
/var/tmp/pbs.5076255.sched01/tmp2gjrvvgn/102_qij5c5l.sdf

>  <i_m_source_file_index>  (259) 
2

>  <i_lp_mmshare_version>  (259) 
48012

>  <i_f3d_flags>  (259) 
0

>  <s_epik_input>  (259) 
W0NIMl09QyhbQ0gzXSlbQ0BIXShbQ0gyXVtDSDJdMSlbQ0BdKFtDSDNdKShbQ0BdMTJbQ0gzXSlbQ0gyXVtDSDJdW0NAQF0zKFtDSDNdKVtDQEBIXShDMj1PKVtDSDJdW0NASF00Qz01W0NAQEhdKFtDQEBIXShbT0hdKVtDSDJdW0NASF0zNClbQ0BAXTYoW0NIM10pW0NAQEhdKFtDSDJdW0NIXTUpQyhbQ0gzXSkoW0NIM10pQyg9TylbQ0gyXVtDSDJdNg==

>  <s_epik_cmdline>  (259) 
J2VwaWtfcHl0aG9uJywgJy1waHQnLCAnMi4wJywgJy1waCcsICc3LjAnLCAnLXRuJywgJzgnLCAnLW1hJywgJzIwMCcsICctaW1hZScsICc8aW5maWxlLm1hZT4nLCAnLW9tYWUnLCAnPG91dGZpbGUubWFlPic=

>  <r_lp_tautomer_probability>  (259) 
1

>  <r_epik_Ionization_Penalty>  (259) 
1.04368e-06

>  <r_epik_Ionization_Penalty_Charging>  (259) 
0

>  <r_epik_Ionization_Penalty_Neutral>  (259) 
1.04368e-06

>  <r_epik_State_Penalty>  (259) 
-0

>  <r_epik_Charging_Adjusted_Penalty>  (259) 
0

>  <i_epik_Tot_Q>  (259) 
0

>  <i_epik_Tot_abs_Q>  (259) 
0

>  <s_lp_Force_Field>  (259) 
OPLS3e

>  <r_lp_Energy>  (259) 
68.7195

>  <b_lp_Chiralities_Consistent>  (259) 
1

>  <s_lp_Variant>  (259) 
79:0-1

>  <s_i_glide_gridfile>  (259) 
pfpi4k_grid

>  <i_i_glide_lignum>  (259) 
2

>  <i_i_glide_rotatable_bonds>  (259) 
2

>  <r_i_docking_score>  (259) 
-1.3891

>  <r_i_glide_ligand_efficiency>  (259) 
-0.0375432

>  <r_i_glide_ligand_efficiency_sa>  (259) 
-0.125102

>  <r_i_glide_ligand_efficiency_ln>  (259) 
-0.301263

>  <r_i_glide_gscore>  (259) 
-1.3891

>  <r_i_glide_lipo>  (259) 
-0.185854

>  <r_i_glide_hbond>  (259) 
0

>  <r_i_glide_metal>  (259) 
-0

>  <r_i_glide_rewards>  (259) 
-0.123747

>  <r_i_glide_evdw>  (259) 
-23.7848

>  <r_i_glide_ecoul>  (259) 
0.200405

>  <r_i_glide_erotb>  (259) 
0.0796798

>  <r_i_glide_esite>  (259) 
0

>  <r_i_glide_emodel>  (259) 
-25.7333

>  <r_i_glide_energy>  (259) 
-23.5843

>  <r_i_glide_einternal>  (259) 
1.91706

>  <r_i_glide_intrahb_reward>  (259) 
-0

>  <i_i_glide_confnum>  (259) 
3

>  <i_i_glide_posenum>  (259) 
8

>  <r_i_glide_eff_state_penalty>  (259) 
0

>  <ligand_id>  (259) 
79

>  <original_smiles>  (259) 
C=C(C)C1CCC2(C)C(=O)C3CC4C5=CCC6C(C)(C)C(=O)CCC6(C)C5C(O)CC4C3(C)CCC12C

>  <smiles>  (259) 
[H]OC1([H])C([H])([H])C2([H])C([H])(C3=C([H])C([H])([H])C4([H])C(C([H])([H])[H])(C([H])([H])[H])C(=O)C([H])([H])C([H])([H])C4(C([H])([H])[H])C31[H])C([H])([H])C1([H])C(=O)C3(C([H])([H])[H])C([H])([H])C([H])([H])C([H])(C(=C([H])[H])C([H])([H])[H])C3(C([H])([H])[H])C([H])([H])C([H])([H])C12C([H])([H])[H]

$$$$
80:0:0
     RDKit          3D

 77 81  0  0  1  0  0  0  0  0999 V2000
   -2.4969    2.6506    7.6002 C   0  0  0  0  0  0  0  0  0  0  0  0
   -1.8145    1.7212    6.5856 C   0  0  0  0  0  0  0  0  0  0  0  0
   -2.2216    0.5667    6.4159 O   0  0  0  0  0  0  0  0  0  0  0  0
   -0.7117    2.2577    6.0724 O   0  0  0  0  0  0  0  0  0  0  0  0
    0.1425    1.6311    5.0948 C   0  0  1  0  0  0  0  0  0  0  0  0
    1.2595    0.6003    5.3653 C   0  0  2  0  0  0  0  0  0  0  0  0
    0.7130   -0.2375    4.2154 C   0  0  2  0  0  0  0  0  0  0  0  0
    1.5845   -0.8565    3.0767 C   0  0  1  0  0  0  0  0  0  0  0  0
    1.7768    0.0732    2.0027 O   0  0  0  0  0  0  0  0  0  0  0  0
    2.9303   -1.5974    3.5053 C   0  0  1  0  0  0  0  0  0  0  0  0
    3.6742   -0.7194    4.3690 O   0  0  0  0  0  0  0  0  0  0  0  0
    3.9346   -0.8742    5.7716 C   0  0  0  0  0  0  0  0  0  0  0  0
    5.0634   -1.9290    5.9728 C   0  0  0  0  0  0  0  0  0  0  0  0
    4.6625    0.4498    6.1254 C   0  0  0  0  0  0  0  0  0  0  0  0
    2.6817   -1.1397    6.6716 C   0  0  2  0  0  0  0  0  0  0  0  0
    2.2487   -2.6330    6.6263 C   0  0  0  0  0  0  0  0  0  0  0  0
    1.8838   -3.4027    5.3206 C   0  0  1  0  0  0  0  0  0  0  0  0
    2.0221   -4.9015    5.7174 C   0  0  0  0  0  0  0  0  0  0  0  0
    0.4946   -3.2943    5.0757 O   0  0  0  0  0  0  0  0  0  0  0  0
    2.7029   -3.0905    4.0074 C   0  0  1  0  0  0  0  0  0  0  0  0
    2.2360   -3.9985    2.8257 C   0  0  0  0  0  0  0  0  0  0  0  0
    3.2269   -4.0259    1.6589 C   0  0  1  0  0  0  0  0  0  0  0  0
    2.7726   -4.9564    0.5247 C   0  0  0  0  0  0  0  0  0  0  0  0
    3.4793   -2.5963    1.1779 C   0  0  0  0  0  0  0  0  0  0  0  0
    3.9791   -1.7295    2.3385 C   0  0  1  0  0  0  0  0  0  0  0  0
    4.4318   -0.5092    1.7778 O   0  0  0  0  0  0  0  0  0  0  0  0
    1.5554   -0.0256    6.7703 C   0  0  0  0  0  0  0  0  0  0  0  0
    1.9843    1.1155    7.7389 C   0  0  0  0  0  0  0  0  0  0  0  0
    0.2907   -0.6136    7.4773 C   0  0  0  0  0  0  0  0  0  0  0  0
   -0.2731    0.8689    3.8498 C   0  0  2  0  0  0  0  0  0  0  0  0
    0.0456    2.3389    3.7688 C   0  0  0  0  0  0  0  0  0  0  0  0
   -1.1320    3.2566    3.4320 C   0  0  0  0  0  0  0  0  0  0  0  0
    1.3026    2.9082    3.1268 C   0  0  0  0  0  0  0  0  0  0  0  0
   -2.8381    3.6210    7.2003 H   0  0  0  0  0  0  0  0  0  0  0  0
   -1.8008    2.8677    8.4207 H   0  0  0  0  0  0  0  0  0  0  0  0
   -3.3773    2.1784    8.0666 H   0  0  0  0  0  0  0  0  0  0  0  0
    2.1846    1.0317    5.0463 H   0  0  0  0  0  0  0  0  0  0  0  0
    0.1069   -1.0081    4.6504 H   0  0  0  0  0  0  0  0  0  0  0  0
    0.9408   -1.5935    2.5794 H   0  0  0  0  0  0  0  0  0  0  0  0
    1.4915   -0.3082    1.1742 H   0  0  0  0  0  0  0  0  0  0  0  0
    5.5231   -1.8391    6.9639 H   0  0  0  0  0  0  0  0  0  0  0  0
    5.8510   -1.7749    5.2266 H   0  0  0  0  0  0  0  0  0  0  0  0
    4.7682   -2.9723    5.8783 H   0  0  0  0  0  0  0  0  0  0  0  0
    4.8267    0.5449    7.1978 H   0  0  0  0  0  0  0  0  0  0  0  0
    4.1268    1.3277    5.7823 H   0  0  0  0  0  0  0  0  0  0  0  0
    5.6497    0.5158    5.6515 H   0  0  0  0  0  0  0  0  0  0  0  0
    3.1178   -1.1114    7.6581 H   0  0  0  0  0  0  0  0  0  0  0  0
    3.0598   -3.1838    7.1063 H   0  0  0  0  0  0  0  0  0  0  0  0
    1.4583   -2.8321    7.3369 H   0  0  0  0  0  0  0  0  0  0  0  0
    3.0685   -5.1995    5.7844 H   0  0  0  0  0  0  0  0  0  0  0  0
    1.5186   -5.5839    5.0368 H   0  0  0  0  0  0  0  0  0  0  0  0
    1.5680   -5.0939    6.6905 H   0  0  0  0  0  0  0  0  0  0  0  0
    0.3211   -2.4127    4.7826 H   0  0  0  0  0  0  0  0  0  0  0  0
    3.6917   -3.4658    4.2180 H   0  0  0  0  0  0  0  0  0  0  0  0
    2.1172   -5.0343    3.1428 H   0  0  0  0  0  0  0  0  0  0  0  0
    1.2643   -3.6879    2.4575 H   0  0  0  0  0  0  0  0  0  0  0  0
    4.1723   -4.4211    2.0262 H   0  0  0  0  0  0  0  0  0  0  0  0
    1.8323   -4.6386    0.0700 H   0  0  0  0  0  0  0  0  0  0  0  0
    2.6460   -5.9729    0.8979 H   0  0  0  0  0  0  0  0  0  0  0  0
    3.5255   -4.9941   -0.2630 H   0  0  0  0  0  0  0  0  0  0  0  0
    4.2309   -2.6107    0.3881 H   0  0  0  0  0  0  0  0  0  0  0  0
    2.5767   -2.1675    0.7381 H   0  0  0  0  0  0  0  0  0  0  0  0
    4.8717   -2.2014    2.7529 H   0  0  0  0  0  0  0  0  0  0  0  0
    3.6605   -0.0020    1.5415 H   0  0  0  0  0  0  0  0  0  0  0  0
    2.4666    0.7462    8.6398 H   0  0  0  0  0  0  0  0  0  0  0  0
    1.1335    1.7119    8.0693 H   0  0  0  0  0  0  0  0  0  0  0  0
    2.6528    1.8272    7.2815 H   0  0  0  0  0  0  0  0  0  0  0  0
    0.5928   -1.1785    8.3832 H   0  0  0  0  0  0  0  0  0  0  0  0
   -0.2117   -1.3372    6.8313 H   0  0  0  0  0  0  0  0  0  0  0  0
   -0.4604    0.1388    7.7516 H   0  0  0  0  0  0  0  0  0  0  0  0
   -1.3048    0.5369    3.8158 H   0  0  0  0  0  0  0  0  0  0  0  0
   -1.3077    3.2843    2.3544 H   0  0  0  0  0  0  0  0  0  0  0  0
   -0.9526    4.2780    3.7791 H   0  0  0  0  0  0  0  0  0  0  0  0
   -2.0565    2.8884    3.8890 H   0  0  0  0  0  0  0  0  0  0  0  0
    1.1720    2.9541    2.0494 H   0  0  0  0  0  0  0  0  0  0  0  0
    2.1370    2.2526    3.3214 H   0  0  0  0  0  0  0  0  0  0  0  0
    1.5238    3.9045    3.5147 H   0  0  0  0  0  0  0  0  0  0  0  0
  1  2  1  0
  1 34  1  0
  1 35  1  0
  1 36  1  0
  2  3  2  0
  2  4  1  0
  5  4  1  1
  5 30  1  0
  5 31  1  0
  5  6  1  0
  6 27  1  0
  6  7  1  0
  6 37  1  6
  7  8  1  0
  7 30  1  0
  7 38  1  1
  8  9  1  0
  8 10  1  0
  8 39  1  6
  9 40  1  0
 10 20  1  0
 10 25  1  0
 10 11  1  1
 11 12  1  0
 12 13  1  0
 12 14  1  0
 12 15  1  0
 13 41  1  0
 13 42  1  0
 13 43  1  0
 14 44  1  0
 14 45  1  0
 14 46  1  0
 15 16  1  0
 15 27  1  0
 15 47  1  1
 16 17  1  0
 16 48  1  0
 16 49  1  0
 17 18  1  0
 17 19  1  6
 17 20  1  0
 18 50  1  0
 18 51  1  0
 18 52  1  0
 19 53  1  0
 20 21  1  0
 20 54  1  1
 21 22  1  0
 21 55  1  0
 21 56  1  0
 22 23  1  0
 22 24  1  0
 22 57  1  1
 23 58  1  0
 23 59  1  0
 23 60  1  0
 24 25  1  0
 24 61  1  0
 24 62  1  0
 25 26  1  0
 25 63  1  1
 26 64  1  0
 27 28  1  0
 27 29  1  0
 28 65  1  0
 28 66  1  0
 28 67  1  0
 29 68  1  0
 29 69  1  0
 29 70  1  0
 30 31  1  0
 30 71  1  1
 31 32  1  0
 31 33  1  0
 32 72  1  0
 32 73  1  0
 32 74  1  0
 33 75  1  0
 33 76  1  0
 33 77  1  0
M  END
>  <i_m_ct_stereo_status>  (260) 
1

>  <s_m_source_file>  (260) 
/var/tmp/pbs.5076255.sched01/tmp2gjrvvgn/102_qij5c5l.sdf

>  <i_m_source_file_index>  (260) 
3

>  <i_lp_mmshare_version>  (260) 
48012

>  <i_f3d_flags>  (260) 
0

>  <s_epik_input>  (260) 
W09IXVtDQEBIXTFbQ0BASF0yW0NASF0oQzMoW0NIM10pW0NIM10pQzMoT0MoPU8pW0NIM10pW0NASF0yQyhbQ0gzXSkoW0NIM10pW0NASF0oQyhPNCkoW0NIM10pW0NIM10pW0NIMl1bQ0BAXShbQ0gzXSkoW09IXSlbQ0BIXShbQ0BAXTE0NSlbQ0gyXVtDQEBIXShbQ0gzXSlbQ0gyXVtDQEhdNVtPSF0=

>  <s_epik_cmdline>  (260) 
J2VwaWtfcHl0aG9uJywgJy1waHQnLCAnMi4wJywgJy1waCcsICc3LjAnLCAnLXRuJywgJzgnLCAnLW1hJywgJzIwMCcsICctaW1hZScsICc8aW5maWxlLm1hZT4nLCAnLW9tYWUnLCAnPG91dGZpbGUubWFlPic=

>  <r_lp_tautomer_probability>  (260) 
1

>  <r_epik_Ionization_Penalty>  (260) 
6.41783e-07

>  <r_epik_Ionization_Penalty_Charging>  (260) 
0

>  <r_epik_Ionization_Penalty_Neutral>  (260) 
6.41783e-07

>  <r_epik_State_Penalty>  (260) 
-0

>  <r_epik_Charging_Adjusted_Penalty>  (260) 
0

>  <i_epik_Tot_Q>  (260) 
0

>  <i_epik_Tot_abs_Q>  (260) 
0

>  <s_epik_Chemistry_Notes>  (260) 
This compound has an ester and may undergo hydrolysis at high or low pH.

>  <s_lp_Force_Field>  (260) 
OPLS3e

>  <r_lp_Energy>  (260) 
87.8848

>  <b_lp_Chiralities_Consistent>  (260) 
1

>  <s_lp_Variant>  (260) 
80:0-1

>  <s_i_glide_gridfile>  (260) 
pfpi4k_grid

>  <i_i_glide_lignum>  (260) 
3

>  <i_i_glide_rotatable_bonds>  (260) 
5

>  <r_i_docking_score>  (260) 
-3.04042

>  <r_i_glide_ligand_efficiency>  (260) 
-0.0921339

>  <r_i_glide_ligand_efficiency_sa>  (260) 
-0.295523

>  <r_i_glide_ligand_efficiency_ln>  (260) 
-0.676173

>  <r_i_glide_gscore>  (260) 
-3.04042

>  <r_i_glide_lipo>  (260) 
-0.139759

>  <r_i_glide_hbond>  (260) 
-0.16

>  <r_i_glide_metal>  (260) 
-0

>  <r_i_glide_rewards>  (260) 
-0.741127

>  <r_i_glide_evdw>  (260) 
-25.5264

>  <r_i_glide_ecoul>  (260) 
-5.26524

>  <r_i_glide_erotb>  (260) 
0.0933871

>  <r_i_glide_esite>  (260) 
-0.0268126

>  <r_i_glide_emodel>  (260) 
-40.0283

>  <r_i_glide_energy>  (260) 
-30.7916

>  <r_i_glide_einternal>  (260) 
1.34742

>  <r_i_glide_intrahb_reward>  (260) 
-0.5

>  <i_i_glide_confnum>  (260) 
2

>  <i_i_glide_posenum>  (260) 
14

>  <r_i_glide_eff_state_penalty>  (260) 
0

>  <ligand_id>  (260) 
80

>  <original_smiles>  (260) 
CC(=O)OC12C3C(C(O)C45OC(C)(C)C(CC(C)(O)C4CC(C)CC5O)C3(C)C)C1C2(C)C

>  <smiles>  (260) 
[H]OC1([H])C([H])([H])C([H])(C([H])([H])[H])C([H])([H])C2([H])C(O[H])(C([H])([H])[H])C([H])([H])C3([H])C(C([H])([H])[H])(C([H])([H])[H])OC12C([H])(O[H])C1([H])C([H])(C2(OC(=O)C([H])([H])[H])C1([H])C2(C([H])([H])[H])C([H])([H])[H])C3(C([H])([H])[H])C([H])([H])[H]

$$$$
80:0:1
     RDKit          3D

 77 81  0  0  1  0  0  0  0  0999 V2000
    7.2486   -3.7741    7.9785 C   0  0  0  0  0  0  0  0  0  0  0  0
    5.9165   -4.1816    7.3535 C   0  0  0  0  0  0  0  0  0  0  0  0
    5.0153   -4.6924    8.0257 O   0  0  0  0  0  0  0  0  0  0  0  0
    5.8920   -3.9618    6.0210 O   0  0  0  0  0  0  0  0  0  0  0  0
    4.8175   -4.2702    5.1012 C   0  0  1  0  0  0  0  0  0  0  0  0
    4.7136   -5.5764    4.2924 C   0  0  2  0  0  0  0  0  0  0  0  0
    3.2562   -5.6999    4.7539 C   0  0  2  0  0  0  0  0  0  0  0  0
    2.0516   -5.9938    3.8247 C   0  0  1  0  0  0  0  0  0  0  0  0
    1.5635   -4.7875    3.2936 O   0  0  0  0  0  0  0  0  0  0  0  0
    2.2375   -7.1373    2.7360 C   0  0  1  0  0  0  0  0  0  0  0  0
    3.4517   -6.9097    1.9978 O   0  0  0  0  0  0  0  0  0  0  0  0
    4.6509   -7.6831    2.0353 C   0  0  0  0  0  0  0  0  0  0  0  0
    4.4821   -8.9667    1.1788 C   0  0  0  0  0  0  0  0  0  0  0  0
    5.6297   -6.8327    1.1980 C   0  0  0  0  0  0  0  0  0  0  0  0
    5.2148   -7.9683    3.4776 C   0  0  2  0  0  0  0  0  0  0  0  0
    4.4815   -9.1641    4.1591 C   0  0  0  0  0  0  0  0  0  0  0  0
    2.9463   -9.2133    4.4035 C   0  0  1  0  0  0  0  0  0  0  0  0
    2.6489  -10.7272    4.6076 C   0  0  0  0  0  0  0  0  0  0  0  0
    2.6437   -8.6758    5.6689 O   0  0  0  0  0  0  0  0  0  0  0  0
    1.9973   -8.6045    3.3097 C   0  0  1  0  0  0  0  0  0  0  0  0
    0.4958   -8.8010    3.6967 C   0  0  0  0  0  0  0  0  0  0  0  0
   -0.4551   -8.5725    2.5211 C   0  0  1  0  0  0  0  0  0  0  0  0
   -1.9151   -8.7999    2.8903 C   0  0  0  0  0  0  0  0  0  0  0  0
   -0.2221   -7.1862    1.9352 C   0  0  0  0  0  0  0  0  0  0  0  0
    1.2411   -7.0471    1.5239 C   0  0  1  0  0  0  0  0  0  0  0  0
    1.3558   -5.8658    0.7344 O   0  0  0  0  0  0  0  0  0  0  0  0
    5.7082   -6.7617    4.4084 C   0  0  0  0  0  0  0  0  0  0  0  0
    7.1073   -6.2633    3.9705 C   0  0  0  0  0  0  0  0  0  0  0  0
    5.9276   -7.2812    5.8500 C   0  0  0  0  0  0  0  0  0  0  0  0
    3.3441   -4.3345    5.4367 C   0  0  2  0  0  0  0  0  0  0  0  0
    3.9291   -3.0520    4.8471 C   0  0  0  0  0  0  0  0  0  0  0  0
    3.9231   -1.8314    5.7409 C   0  0  0  0  0  0  0  0  0  0  0  0
    3.7153   -2.5919    3.4197 C   0  0  0  0  0  0  0  0  0  0  0  0
    7.4371   -2.6945    7.9183 H   0  0  0  0  0  0  0  0  0  0  0  0
    8.0763   -4.2792    7.4801 H   0  0  0  0  0  0  0  0  0  0  0  0
    7.2935   -4.0533    9.0270 H   0  0  0  0  0  0  0  0  0  0  0  0
    4.6850   -5.2821    3.2462 H   0  0  0  0  0  0  0  0  0  0  0  0
    3.2442   -6.4118    5.5586 H   0  0  0  0  0  0  0  0  0  0  0  0
    1.2231   -6.2766    4.4655 H   0  0  0  0  0  0  0  0  0  0  0  0
    2.2333   -4.4240    2.7412 H   0  0  0  0  0  0  0  0  0  0  0  0
    5.4506   -9.4075    0.9311 H   0  0  0  0  0  0  0  0  0  0  0  0
    3.9839   -8.7411    0.2317 H   0  0  0  0  0  0  0  0  0  0  0  0
    3.9069   -9.7695    1.6326 H   0  0  0  0  0  0  0  0  0  0  0  0
    6.6411   -7.2391    1.2267 H   0  0  0  0  0  0  0  0  0  0  0  0
    5.6715   -5.7894    1.4962 H   0  0  0  0  0  0  0  0  0  0  0  0
    5.3247   -6.8124    0.1478 H   0  0  0  0  0  0  0  0  0  0  0  0
    6.1609   -8.4597    3.2535 H   0  0  0  0  0  0  0  0  0  0  0  0
    4.7439  -10.0371    3.5677 H   0  0  0  0  0  0  0  0  0  0  0  0
    4.9572   -9.4321    5.0980 H   0  0  0  0  0  0  0  0  0  0  0  0
    2.6783  -11.2736    3.6620 H   0  0  0  0  0  0  0  0  0  0  0  0
    1.6911  -10.9375    5.0807 H   0  0  0  0  0  0  0  0  0  0  0  0
    3.3858  -11.1894    5.2663 H   0  0  0  0  0  0  0  0  0  0  0  0
    1.8130   -9.0330    5.9389 H   0  0  0  0  0  0  0  0  0  0  0  0
    2.1119   -9.2626    2.4584 H   0  0  0  0  0  0  0  0  0  0  0  0
    0.3001   -9.8094    4.0429 H   0  0  0  0  0  0  0  0  0  0  0  0
    0.2091   -8.1420    4.5174 H   0  0  0  0  0  0  0  0  0  0  0  0
   -0.2221   -9.3112    1.7536 H   0  0  0  0  0  0  0  0  0  0  0  0
   -2.2678   -8.1161    3.6658 H   0  0  0  0  0  0  0  0  0  0  0  0
   -2.0320   -9.8200    3.2601 H   0  0  0  0  0  0  0  0  0  0  0  0
   -2.5550   -8.7017    2.0123 H   0  0  0  0  0  0  0  0  0  0  0  0
   -0.8417   -7.0727    1.0525 H   0  0  0  0  0  0  0  0  0  0  0  0
   -0.4887   -6.4097    2.6508 H   0  0  0  0  0  0  0  0  0  0  0  0
    1.4548   -7.8778    0.8616 H   0  0  0  0  0  0  0  0  0  0  0  0
    2.2336   -5.8633    0.3814 H   0  0  0  0  0  0  0  0  0  0  0  0
    7.8007   -7.0772    3.7430 H   0  0  0  0  0  0  0  0  0  0  0  0
    7.5926   -5.6684    4.7446 H   0  0  0  0  0  0  0  0  0  0  0  0
    7.0917   -5.6177    3.1049 H   0  0  0  0  0  0  0  0  0  0  0  0
    6.5504   -8.1969    5.8638 H   0  0  0  0  0  0  0  0  0  0  0  0
    4.9827   -7.5344    6.3396 H   0  0  0  0  0  0  0  0  0  0  0  0
    6.4478   -6.5707    6.4654 H   0  0  0  0  0  0  0  0  0  0  0  0
    3.0783   -4.3703    6.4921 H   0  0  0  0  0  0  0  0  0  0  0  0
    2.9636   -1.3222    5.6816 H   0  0  0  0  0  0  0  0  0  0  0  0
    4.7109   -1.1385    5.4628 H   0  0  0  0  0  0  0  0  0  0  0  0
    4.0691   -2.1236    6.7782 H   0  0  0  0  0  0  0  0  0  0  0  0
    2.7629   -2.0660    3.3250 H   0  0  0  0  0  0  0  0  0  0  0  0
    3.7047   -3.4585    2.7522 H   0  0  0  0  0  0  0  0  0  0  0  0
    4.5297   -1.9386    3.1022 H   0  0  0  0  0  0  0  0  0  0  0  0
  1  2  1  0
  1 34  1  0
  1 35  1  0
  1 36  1  0
  2  3  2  0
  2  4  1  0
  5  4  1  1
  5 30  1  0
  5 31  1  0
  5  6  1  0
  6 27  1  0
  6  7  1  0
  6 37  1  6
  7  8  1  0
  7 30  1  0
  7 38  1  1
  8  9  1  0
  8 10  1  0
  8 39  1  1
  9 40  1  0
 10 20  1  0
 10 25  1  0
 10 11  1  6
 11 12  1  0
 12 13  1  0
 12 14  1  0
 12 15  1  0
 13 41  1  0
 13 42  1  0
 13 43  1  0
 14 44  1  0
 14 45  1  0
 14 46  1  0
 15 16  1  0
 15 27  1  0
 15 47  1  6
 16 17  1  0
 16 48  1  0
 16 49  1  0
 17 18  1  0
 17 19  1  1
 17 20  1  0
 18 50  1  0
 18 51  1  0
 18 52  1  0
 19 53  1  0
 20 21  1  0
 20 54  1  6
 21 22  1  0
 21 55  1  0
 21 56  1  0
 22 23  1  0
 22 24  1  0
 22 57  1  6
 23 58  1  0
 23 59  1  0
 23 60  1  0
 24 25  1  0
 24 61  1  0
 24 62  1  0
 25 26  1  0
 25 63  1  6
 26 64  1  0
 27 28  1  0
 27 29  1  0
 28 65  1  0
 28 66  1  0
 28 67  1  0
 29 68  1  0
 29 69  1  0
 29 70  1  0
 30 31  1  0
 30 71  1  1
 31 32  1  0
 31 33  1  0
 32 72  1  0
 32 73  1  0
 32 74  1  0
 33 75  1  0
 33 76  1  0
 33 77  1  0
M  END
>  <i_m_ct_stereo_status>  (261) 
1

>  <s_m_source_file>  (261) 
/var/tmp/pbs.5076255.sched01/tmp2gjrvvgn/102_qij5c5l.sdf

>  <i_m_source_file_index>  (261) 
3

>  <i_lp_mmshare_version>  (261) 
48012

>  <i_f3d_flags>  (261) 
0

>  <s_epik_input>  (261) 
W09IXVtDQEBIXTFbQ0BASF0yW0NASF0oQzMoW0NIM10pW0NIM10pQzMoT0MoPU8pW0NIM10pW0NASF0yQyhbQ0gzXSkoW0NIM10pW0NASF0oQyhPNCkoW0NIM10pW0NIM10pW0NIMl1bQ0BAXShbQ0gzXSkoW09IXSlbQ0BIXShbQ0BAXTE0NSlbQ0gyXVtDQEBIXShbQ0gzXSlbQ0gyXVtDQEhdNVtPSF0=

>  <s_epik_cmdline>  (261) 
J2VwaWtfcHl0aG9uJywgJy1waHQnLCAnMi4wJywgJy1waCcsICc3LjAnLCAnLXRuJywgJzgnLCAnLW1hJywgJzIwMCcsICctaW1hZScsICc8aW5maWxlLm1hZT4nLCAnLW9tYWUnLCAnPG91dGZpbGUubWFlPic=

>  <r_lp_tautomer_probability>  (261) 
1

>  <r_epik_Ionization_Penalty>  (261) 
6.41783e-07

>  <r_epik_Ionization_Penalty_Charging>  (261) 
0

>  <r_epik_Ionization_Penalty_Neutral>  (261) 
6.41783e-07

>  <r_epik_State_Penalty>  (261) 
-0

>  <r_epik_Charging_Adjusted_Penalty>  (261) 
0

>  <i_epik_Tot_Q>  (261) 
0

>  <i_epik_Tot_abs_Q>  (261) 
0

>  <s_epik_Chemistry_Notes>  (261) 
This compound has an ester and may undergo hydrolysis at high or low pH.

>  <s_lp_Force_Field>  (261) 
OPLS3e

>  <r_lp_Energy>  (261) 
87.8848

>  <b_lp_Chiralities_Consistent>  (261) 
1

>  <s_lp_Variant>  (261) 
80:0-1

>  <s_i_glide_gridfile>  (261) 
pfpi4k_grid

>  <i_i_glide_lignum>  (261) 
3

>  <i_i_glide_rotatable_bonds>  (261) 
5

>  <r_i_docking_score>  (261) 
-2.15515

>  <r_i_glide_ligand_efficiency>  (261) 
-0.0653074

>  <r_i_glide_ligand_efficiency_sa>  (261) 
-0.209476

>  <r_i_glide_ligand_efficiency_ln>  (261) 
-0.479293

>  <r_i_glide_gscore>  (261) 
-2.15515

>  <r_i_glide_lipo>  (261) 
-0.118883

>  <r_i_glide_hbond>  (261) 
0

>  <r_i_glide_metal>  (261) 
-0

>  <r_i_glide_rewards>  (261) 
-0.24131

>  <r_i_glide_evdw>  (261) 
-25.977

>  <r_i_glide_ecoul>  (261) 
-3.92994

>  <r_i_glide_erotb>  (261) 
0.0933871

>  <r_i_glide_esite>  (261) 
0

>  <r_i_glide_emodel>  (261) 
-33.8208

>  <r_i_glide_energy>  (261) 
-29.9069

>  <r_i_glide_einternal>  (261) 
0.628

>  <r_i_glide_intrahb_reward>  (261) 
-0

>  <i_i_glide_confnum>  (261) 
2

>  <i_i_glide_posenum>  (261) 
30

>  <r_i_glide_eff_state_penalty>  (261) 
0

>  <ligand_id>  (261) 
80

>  <original_smiles>  (261) 
CC(=O)OC12C3C(C(O)C45OC(C)(C)C(CC(C)(O)C4CC(C)CC5O)C3(C)C)C1C2(C)C

>  <smiles>  (261) 
[H]OC1([H])C([H])([H])C([H])(C([H])([H])[H])C([H])([H])C2([H])C(O[H])(C([H])([H])[H])C([H])([H])C3([H])C(C([H])([H])[H])(C([H])([H])[H])OC12C([H])(O[H])C1([H])C([H])(C2(OC(=O)C([H])([H])[H])C1([H])C2(C([H])([H])[H])C([H])([H])[H])C3(C([H])([H])[H])C([H])([H])[H]

$$$$
80:0:2
     RDKit          3D

 77 81  0  0  1  0  0  0  0  0999 V2000
    7.2589   -3.9284    8.0964 C   0  0  0  0  0  0  0  0  0  0  0  0
    5.9278   -4.3083    7.4544 C   0  0  0  0  0  0  0  0  0  0  0  0
    5.0045   -4.7949    8.1129 O   0  0  0  0  0  0  0  0  0  0  0  0
    5.9263   -4.0856    6.1205 O   0  0  0  0  0  0  0  0  0  0  0  0
    4.8545   -4.3661    5.1890 C   0  0  1  0  0  0  0  0  0  0  0  0
    4.7245   -5.6692    4.3799 C   0  0  2  0  0  0  0  0  0  0  0  0
    3.2577   -5.7498    4.8229 C   0  0  2  0  0  0  0  0  0  0  0  0
    2.0571   -6.0122    3.8799 C   0  0  1  0  0  0  0  0  0  0  0  0
    1.6109   -4.7937    3.3400 O   0  0  0  0  0  0  0  0  0  0  0  0
    2.2285   -7.1629    2.7942 C   0  0  1  0  0  0  0  0  0  0  0  0
    3.4585   -6.9667    2.0728 O   0  0  0  0  0  0  0  0  0  0  0  0
    4.6341   -7.7752    2.1221 C   0  0  0  0  0  0  0  0  0  0  0  0
    4.4358   -9.0529    1.2652 C   0  0  0  0  0  0  0  0  0  0  0  0
    5.6464   -6.9580    1.2902 C   0  0  0  0  0  0  0  0  0  0  0  0
    5.1697   -8.0760    3.5714 C   0  0  2  0  0  0  0  0  0  0  0  0
    4.3939   -9.2503    4.2476 C   0  0  0  0  0  0  0  0  0  0  0  0
    2.8536   -9.2533    4.4736 C   0  0  1  0  0  0  0  0  0  0  0  0
    2.5097  -10.7577    4.6740 C   0  0  0  0  0  0  0  0  0  0  0  0
    2.5501   -8.7019    5.7346 O   0  0  0  0  0  0  0  0  0  0  0  0
    1.9393   -8.6204    3.3645 C   0  0  1  0  0  0  0  0  0  0  0  0
    0.4289   -8.7760    3.7317 C   0  0  0  0  0  0  0  0  0  0  0  0
   -0.4993   -8.5222    2.5461 C   0  0  1  0  0  0  0  0  0  0  0  0
   -1.9671   -8.7077    2.9032 C   0  0  0  0  0  0  0  0  0  0  0  0
   -0.2202   -7.1446    1.9601 C   0  0  0  0  0  0  0  0  0  0  0  0
    1.2524   -7.0489    1.5657 C   0  0  1  0  0  0  0  0  0  0  0  0
    1.4068   -5.8702    0.7833 O   0  0  0  0  0  0  0  0  0  0  0  0
    5.6843   -6.8809    4.5094 C   0  0  0  0  0  0  0  0  0  0  0  0
    7.1012   -6.4229    4.0876 C   0  0  0  0  0  0  0  0  0  0  0  0
    5.8731   -7.4045    5.9540 C   0  0  0  0  0  0  0  0  0  0  0  0
    3.3746   -4.3884    5.5059 C   0  0  2  0  0  0  0  0  0  0  0  0
    4.0035   -3.1213    4.9221 C   0  0  0  0  0  0  0  0  0  0  0  0
    4.0202   -1.9031    5.8157 C   0  0  0  0  0  0  0  0  0  0  0  0
    3.8210   -2.6576    3.4938 C   0  0  0  0  0  0  0  0  0  0  0  0
    7.4717   -2.8526    8.0422 H   0  0  0  0  0  0  0  0  0  0  0  0
    8.0823   -4.4499    7.6096 H   0  0  0  0  0  0  0  0  0  0  0  0
    7.2838   -4.2096    9.1451 H   0  0  0  0  0  0  0  0  0  0  0  0
    4.7174   -5.3756    3.3311 H   0  0  0  0  0  0  0  0  0  0  0  0
    3.2157   -6.4603    5.6285 H   0  0  0  0  0  0  0  0  0  0  0  0
    1.2134   -6.2717    4.5105 H   0  0  0  0  0  0  0  0  0  0  0  0
    2.2873   -4.4642    2.7742 H   0  0  0  0  0  0  0  0  0  0  0  0
    5.3936   -9.5226    1.0283 H   0  0  0  0  0  0  0  0  0  0  0  0
    3.9535   -8.8124    0.3126 H   0  0  0  0  0  0  0  0  0  0  0  0
    3.8335   -9.8385    1.7119 H   0  0  0  0  0  0  0  0  0  0  0  0
    6.6461   -7.3919    1.3320 H   0  0  0  0  0  0  0  0  0  0  0  0
    5.7147   -5.9174    1.5922 H   0  0  0  0  0  0  0  0  0  0  0  0
    5.3509   -6.9295    0.2361 H   0  0  0  0  0  0  0  0  0  0  0  0
    6.1060   -8.5934    3.3599 H   0  0  0  0  0  0  0  0  0  0  0  0
    4.6379  -10.1287    3.6586 H   0  0  0  0  0  0  0  0  0  0  0  0
    4.8564   -9.5348    5.1884 H   0  0  0  0  0  0  0  0  0  0  0  0
    2.5336  -11.3043    3.7288 H   0  0  0  0  0  0  0  0  0  0  0  0
    1.5403  -10.9357    5.1363 H   0  0  0  0  0  0  0  0  0  0  0  0
    3.2232  -11.2474    5.3383 H   0  0  0  0  0  0  0  0  0  0  0  0
    2.8191   -9.3203    6.3947 H   0  0  0  0  0  0  0  0  0  0  0  0
    2.0479   -9.2837    2.5157 H   0  0  0  0  0  0  0  0  0  0  0  0
    0.2007   -9.7768    4.0778 H   0  0  0  0  0  0  0  0  0  0  0  0
    0.1529   -8.1103    4.5518 H   0  0  0  0  0  0  0  0  0  0  0  0
   -0.2804   -9.2680    1.7795 H   0  0  0  0  0  0  0  0  0  0  0  0
   -2.3165   -8.0102    3.6679 H   0  0  0  0  0  0  0  0  0  0  0  0
   -2.1242   -9.7212    3.2723 H   0  0  0  0  0  0  0  0  0  0  0  0
   -2.5770   -8.5945    2.0066 H   0  0  0  0  0  0  0  0  0  0  0  0
   -0.8254   -7.0093    1.0708 H   0  0  0  0  0  0  0  0  0  0  0  0
   -0.4727   -6.3602    2.6725 H   0  0  0  0  0  0  0  0  0  0  0  0
    1.4603   -7.8774    0.8956 H   0  0  0  0  0  0  0  0  0  0  0  0
    2.2880   -5.8850    0.4409 H   0  0  0  0  0  0  0  0  0  0  0  0
    7.7761   -7.2539    3.8699 H   0  0  0  0  0  0  0  0  0  0  0  0
    7.5938   -5.8383    4.8675 H   0  0  0  0  0  0  0  0  0  0  0  0
    7.1151   -5.7769    3.2216 H   0  0  0  0  0  0  0  0  0  0  0  0
    6.4681   -8.3407    5.9743 H   0  0  0  0  0  0  0  0  0  0  0  0
    4.9145   -7.6297    6.4317 H   0  0  0  0  0  0  0  0  0  0  0  0
    6.4066   -6.7090    6.5733 H   0  0  0  0  0  0  0  0  0  0  0  0
    3.0989   -4.4176    6.5580 H   0  0  0  0  0  0  0  0  0  0  0  0
    3.0758   -1.3665    5.7447 H   0  0  0  0  0  0  0  0  0  0  0  0
    4.8302   -1.2314    5.5478 H   0  0  0  0  0  0  0  0  0  0  0  0
    4.1449   -2.1975    6.8552 H   0  0  0  0  0  0  0  0  0  0  0  0
    2.8842   -2.1055    3.3867 H   0  0  0  0  0  0  0  0  0  0  0  0
    3.7938   -3.5253    2.8264 H   0  0  0  0  0  0  0  0  0  0  0  0
    4.6576   -2.0278    3.1855 H   0  0  0  0  0  0  0  0  0  0  0  0
  1  2  1  0
  1 34  1  0
  1 35  1  0
  1 36  1  0
  2  3  2  0
  2  4  1  0
  5  4  1  1
  5 30  1  0
  5 31  1  0
  5  6  1  0
  6 27  1  0
  6  7  1  0
  6 37  1  6
  7  8  1  0
  7 30  1  0
  7 38  1  1
  8  9  1  0
  8 10  1  0
  8 39  1  1
  9 40  1  0
 10 20  1  0
 10 25  1  0
 10 11  1  6
 11 12  1  0
 12 13  1  0
 12 14  1  0
 12 15  1  0
 13 41  1  0
 13 42  1  0
 13 43  1  0
 14 44  1  0
 14 45  1  0
 14 46  1  0
 15 16  1  0
 15 27  1  0
 15 47  1  6
 16 17  1  0
 16 48  1  0
 16 49  1  0
 17 18  1  0
 17 19  1  1
 17 20  1  0
 18 50  1  0
 18 51  1  0
 18 52  1  0
 19 53  1  0
 20 21  1  0
 20 54  1  6
 21 22  1  0
 21 55  1  0
 21 56  1  0
 22 23  1  0
 22 24  1  0
 22 57  1  6
 23 58  1  0
 23 59  1  0
 23 60  1  0
 24 25  1  0
 24 61  1  0
 24 62  1  0
 25 26  1  0
 25 63  1  6
 26 64  1  0
 27 28  1  0
 27 29  1  0
 28 65  1  0
 28 66  1  0
 28 67  1  0
 29 68  1  0
 29 69  1  0
 29 70  1  0
 30 31  1  0
 30 71  1  1
 31 32  1  0
 31 33  1  0
 32 72  1  0
 32 73  1  0
 32 74  1  0
 33 75  1  0
 33 76  1  0
 33 77  1  0
M  END
>  <i_m_ct_stereo_status>  (262) 
1

>  <s_m_source_file>  (262) 
/var/tmp/pbs.5076255.sched01/tmp2gjrvvgn/102_qij5c5l.sdf

>  <i_m_source_file_index>  (262) 
3

>  <i_lp_mmshare_version>  (262) 
48012

>  <i_f3d_flags>  (262) 
0

>  <s_epik_input>  (262) 
W09IXVtDQEBIXTFbQ0BASF0yW0NASF0oQzMoW0NIM10pW0NIM10pQzMoT0MoPU8pW0NIM10pW0NASF0yQyhbQ0gzXSkoW0NIM10pW0NASF0oQyhPNCkoW0NIM10pW0NIM10pW0NIMl1bQ0BAXShbQ0gzXSkoW09IXSlbQ0BIXShbQ0BAXTE0NSlbQ0gyXVtDQEBIXShbQ0gzXSlbQ0gyXVtDQEhdNVtPSF0=

>  <s_epik_cmdline>  (262) 
J2VwaWtfcHl0aG9uJywgJy1waHQnLCAnMi4wJywgJy1waCcsICc3LjAnLCAnLXRuJywgJzgnLCAnLW1hJywgJzIwMCcsICctaW1hZScsICc8aW5maWxlLm1hZT4nLCAnLW9tYWUnLCAnPG91dGZpbGUubWFlPic=

>  <r_lp_tautomer_probability>  (262) 
1

>  <r_epik_Ionization_Penalty>  (262) 
6.41783e-07

>  <r_epik_Ionization_Penalty_Charging>  (262) 
0

>  <r_epik_Ionization_Penalty_Neutral>  (262) 
6.41783e-07

>  <r_epik_State_Penalty>  (262) 
-0

>  <r_epik_Charging_Adjusted_Penalty>  (262) 
0

>  <i_epik_Tot_Q>  (262) 
0

>  <i_epik_Tot_abs_Q>  (262) 
0

>  <s_epik_Chemistry_Notes>  (262) 
This compound has an ester and may undergo hydrolysis at high or low pH.

>  <s_lp_Force_Field>  (262) 
OPLS3e

>  <r_lp_Energy>  (262) 
87.8848

>  <b_lp_Chiralities_Consistent>  (262) 
1

>  <s_lp_Variant>  (262) 
80:0-1

>  <s_i_glide_gridfile>  (262) 
pfpi4k_grid

>  <i_i_glide_lignum>  (262) 
3

>  <i_i_glide_rotatable_bonds>  (262) 
5

>  <r_i_docking_score>  (262) 
-2.11884

>  <r_i_glide_ligand_efficiency>  (262) 
-0.0642072

>  <r_i_glide_ligand_efficiency_sa>  (262) 
-0.205947

>  <r_i_glide_ligand_efficiency_ln>  (262) 
-0.471218

>  <r_i_glide_gscore>  (262) 
-2.11884

>  <r_i_glide_lipo>  (262) 
-0.110535

>  <r_i_glide_hbond>  (262) 
0

>  <r_i_glide_metal>  (262) 
-0

>  <r_i_glide_rewards>  (262) 
-0.241127

>  <r_i_glide_evdw>  (262) 
-26.4316

>  <r_i_glide_ecoul>  (262) 
-3.5932

>  <r_i_glide_erotb>  (262) 
0.0933871

>  <r_i_glide_esite>  (262) 
0

>  <r_i_glide_emodel>  (262) 
-33.8083

>  <r_i_glide_energy>  (262) 
-30.0248

>  <r_i_glide_einternal>  (262) 
0.652516

>  <r_i_glide_intrahb_reward>  (262) 
-0

>  <i_i_glide_confnum>  (262) 
2

>  <i_i_glide_posenum>  (262) 
1

>  <r_i_glide_eff_state_penalty>  (262) 
0

>  <ligand_id>  (262) 
80

>  <original_smiles>  (262) 
CC(=O)OC12C3C(C(O)C45OC(C)(C)C(CC(C)(O)C4CC(C)CC5O)C3(C)C)C1C2(C)C

>  <smiles>  (262) 
[H]OC1([H])C([H])([H])C([H])(C([H])([H])[H])C([H])([H])C2([H])C(O[H])(C([H])([H])[H])C([H])([H])C3([H])C(C([H])([H])[H])(C([H])([H])[H])OC12C([H])(O[H])C1([H])C([H])(C2(OC(=O)C([H])([H])[H])C1([H])C2(C([H])([H])[H])C([H])([H])[H])C3(C([H])([H])[H])C([H])([H])[H]

$$$$
81:0:0
     RDKit          3D

 26 29  0  0  1  0  0  0  0  0999 V2000
    2.7895   -0.6345   -4.0092 O   0  0  0  0  0  0  0  0  0  0  0  0
    3.3650   -1.3774   -3.2243 C   0  0  0  0  0  0  0  0  0  0  0  0
    4.3260   -2.4337   -3.6862 C   0  0  0  0  0  0  0  0  0  0  0  0
    5.2369   -2.9889   -2.2400 S   0  0  0  0  0  0  0  0  0  0  0  0
    4.0022   -2.2970   -1.0872 C   0  0  2  0  0  0  0  0  0  0  0  0
    3.2539   -1.3403   -1.8959 N   0  0  0  0  0  0  0  0  0  0  0  0
    4.6315   -1.6065    0.1648 C   0  0  1  0  0  0  0  0  0  0  0  0
    3.4131   -1.4295    1.0452 C   0  0  0  0  0  0  0  0  0  0  0  0
    3.1006   -2.9169    1.0143 C   0  0  1  0  0  0  0  0  0  0  0  0
    3.0297   -3.3479   -0.4524 C   0  0  2  0  0  0  0  0  0  0  0  0
    3.6053   -4.6809   -0.3218 N   0  0  0  0  0  0  0  0  0  0  0  0
    4.3845   -4.8132    0.7652 C   0  0  0  0  0  0  0  0  0  0  0  0
    5.2817   -6.1333    1.2253 S   0  0  0  0  0  0  0  0  0  0  0  0
    4.3385   -3.5999    1.3612 N   0  0  0  0  0  0  0  0  0  0  0  0
    5.4002   -2.6296    1.0320 C   0  0  0  0  0  0  0  0  0  0  0  0
    3.7895   -3.2306   -4.2055 H   0  0  0  0  0  0  0  0  0  0  0  0
    5.0151   -1.9129   -4.3291 H   0  0  0  0  0  0  0  0  0  0  0  0
    2.5267   -0.7809   -1.4616 H   0  0  0  0  0  0  0  0  0  0  0  0
    5.1784   -0.6895   -0.0537 H   0  0  0  0  0  0  0  0  0  0  0  0
    3.6483   -1.0682    2.0471 H   0  0  0  0  0  0  0  0  0  0  0  0
    2.6233   -0.8106    0.6192 H   0  0  0  0  0  0  0  0  0  0  0  0
    2.2573   -3.2264    1.6329 H   0  0  0  0  0  0  0  0  0  0  0  0
    2.0272   -3.3588   -0.8680 H   0  0  0  0  0  0  0  0  0  0  0  0
    3.4768   -5.4124   -1.0071 H   0  0  0  0  0  0  0  0  0  0  0  0
    6.2228   -3.0834    0.4813 H   0  0  0  0  0  0  0  0  0  0  0  0
    5.8058   -2.1722    1.9377 H   0  0  0  0  0  0  0  0  0  0  0  0
  1  2  2  0
  2  6  1  0
  2  3  1  0
  3  4  1  0
  3 16  1  0
  3 17  1  0
  5  4  1  6
  5 10  1  0
  5  6  1  0
  5  7  1  0
  6 18  1  0
  7 15  1  0
  7  8  1  0
  7 19  1  6
  8  9  1  0
  8 20  1  0
  8 21  1  0
  9 14  1  0
  9 10  1  0
  9 22  1  1
 10 11  1  0
 10 23  1  6
 11 12  1  0
 11 24  1  0
 12 13  2  0
 12 14  1  0
 14 15  1  0
 15 25  1  0
 15 26  1  0
M  END
>  <i_m_ct_stereo_status>  (263) 
1

>  <s_m_source_file>  (263) 
/var/tmp/pbs.5076255.sched01/tmp2gjrvvgn/102_qij5c5l.sdf

>  <i_m_source_file_index>  (263) 
4

>  <i_lp_mmshare_version>  (263) 
48012

>  <i_f3d_flags>  (263) 
0

>  <s_epik_input>  (263) 
Tz1DKFtOSF0xKVtDSDJdU1tDQEBdMTJbQ0BIXTNbQ0gyXVtDQEhdNFtDQEBIXTJbTkhdQyg9UylONFtDSDJdMw==

>  <s_epik_cmdline>  (263) 
J2VwaWtfcHl0aG9uJywgJy1waHQnLCAnMi4wJywgJy1waCcsICc3LjAnLCAnLXRuJywgJzgnLCAnLW1hJywgJzIwMCcsICctaW1hZScsICc8aW5maWxlLm1hZT4nLCAnLW9tYWUnLCAnPG91dGZpbGUubWFlPic=

>  <r_lp_tautomer_probability>  (263) 
1

>  <r_epik_Ionization_Penalty>  (263) 
5.67896e-07

>  <r_epik_Ionization_Penalty_Charging>  (263) 
0

>  <r_epik_Ionization_Penalty_Neutral>  (263) 
5.67896e-07

>  <r_epik_State_Penalty>  (263) 
-0

>  <r_epik_Charging_Adjusted_Penalty>  (263) 
0

>  <i_epik_Tot_Q>  (263) 
0

>  <i_epik_Tot_abs_Q>  (263) 
0

>  <s_lp_Force_Field>  (263) 
OPLS3e

>  <r_lp_Energy>  (263) 
28.0533

>  <b_lp_Chiralities_Consistent>  (263) 
1

>  <s_lp_Variant>  (263) 
81:0-1

>  <s_i_glide_gridfile>  (263) 
pfpi4k_grid

>  <i_i_glide_lignum>  (263) 
4

>  <i_i_glide_rotatable_bonds>  (263) 
0

>  <r_i_docking_score>  (263) 
-4.81809

>  <r_i_glide_ligand_efficiency>  (263) 
-0.321206

>  <r_i_glide_ligand_efficiency_sa>  (263) 
-0.792162

>  <r_i_glide_ligand_efficiency_ln>  (263) 
-1.29936

>  <r_i_glide_gscore>  (263) 
-4.81809

>  <r_i_glide_lipo>  (263) 
-0.348392

>  <r_i_glide_hbond>  (263) 
-0.428033

>  <r_i_glide_metal>  (263) 
-0

>  <r_i_glide_rewards>  (263) 
-2.03979

>  <r_i_glide_evdw>  (263) 
-22.5223

>  <r_i_glide_ecoul>  (263) 
-4.93072

>  <r_i_glide_erotb>  (263) 
0

>  <r_i_glide_esite>  (263) 
-0.136152

>  <r_i_glide_emodel>  (263) 
-35.6314

>  <r_i_glide_energy>  (263) 
-27.453

>  <r_i_glide_einternal>  (263) 
0

>  <r_i_glide_intrahb_reward>  (263) 
-0

>  <i_i_glide_confnum>  (263) 
2

>  <i_i_glide_posenum>  (263) 
21

>  <r_i_glide_eff_state_penalty>  (263) 
0

>  <ligand_id>  (263) 
81

>  <original_smiles>  (263) 
O=C1CSC2(N1)C1CC3C2NC(=S)N3C1

>  <smiles>  (263) 
[H]N1C(=S)N2C([H])([H])C3([H])C([H])([H])C2([H])C1([H])C31SC([H])([H])C(=O)N1[H]

$$$$
81:0:1
     RDKit          3D

 26 29  0  0  1  0  0  0  0  0999 V2000
    3.8573   -2.7649   -4.3163 O   0  0  0  0  0  0  0  0  0  0  0  0
    3.8174   -2.8364   -3.0919 C   0  0  0  0  0  0  0  0  0  0  0  0
    2.5330   -3.0784   -2.3254 C   0  0  0  0  0  0  0  0  0  0  0  0
    3.0274   -3.4433   -0.6274 S   0  0  0  0  0  0  0  0  0  0  0  0
    4.7098   -2.7587   -0.8550 C   0  0  2  0  0  0  0  0  0  0  0  0
    4.8860   -2.7186   -2.3017 N   0  0  0  0  0  0  0  0  0  0  0  0
    5.8300   -3.6086   -0.1720 C   0  0  1  0  0  0  0  0  0  0  0  0
    7.0206   -2.6770   -0.2807 C   0  0  0  0  0  0  0  0  0  0  0  0
    6.2860   -1.5667    0.4588 C   0  0  1  0  0  0  0  0  0  0  0  0
    4.9491   -1.3278   -0.2512 C   0  0  2  0  0  0  0  0  0  0  0  0
    4.1229   -1.0234    0.9114 N   0  0  0  0  0  0  0  0  0  0  0  0
    4.6210   -1.5343    2.0531 C   0  0  0  0  0  0  0  0  0  0  0  0
    3.9443   -1.4839    3.5628 S   0  0  0  0  0  0  0  0  0  0  0  0
    5.7584   -2.1688    1.6771 N   0  0  0  0  0  0  0  0  0  0  0  0
    5.6713   -3.6035    1.3659 C   0  0  0  0  0  0  0  0  0  0  0  0
    1.8986   -2.1984   -2.3820 H   0  0  0  0  0  0  0  0  0  0  0  0
    1.9789   -3.9153   -2.7437 H   0  0  0  0  0  0  0  0  0  0  0  0
    5.8043   -2.5917   -2.6987 H   0  0  0  0  0  0  0  0  0  0  0  0
    5.9745   -4.6005   -0.6050 H   0  0  0  0  0  0  0  0  0  0  0  0
    7.9025   -3.0314    0.2585 H   0  0  0  0  0  0  0  0  0  0  0  0
    7.3098   -2.4186   -1.2995 H   0  0  0  0  0  0  0  0  0  0  0  0
    6.8745   -0.6661    0.6516 H   0  0  0  0  0  0  0  0  0  0  0  0
    4.9638   -0.5232   -0.9822 H   0  0  0  0  0  0  0  0  0  0  0  0
    3.2442   -0.5288    0.8699 H   0  0  0  0  0  0  0  0  0  0  0  0
    4.7203   -4.0456    1.6691 H   0  0  0  0  0  0  0  0  0  0  0  0
    6.4694   -4.1621    1.8640 H   0  0  0  0  0  0  0  0  0  0  0  0
  1  2  2  0
  2  6  1  0
  2  3  1  0
  3  4  1  0
  3 16  1  0
  3 17  1  0
  5  4  1  6
  5 10  1  0
  5  6  1  0
  5  7  1  0
  6 18  1  0
  7 15  1  0
  7  8  1  0
  7 19  1  6
  8  9  1  0
  8 20  1  0
  8 21  1  0
  9 14  1  0
  9 10  1  0
  9 22  1  1
 10 11  1  0
 10 23  1  6
 11 12  1  0
 11 24  1  0
 12 13  2  0
 12 14  1  0
 14 15  1  0
 15 25  1  0
 15 26  1  0
M  END
>  <i_m_ct_stereo_status>  (264) 
1

>  <s_m_source_file>  (264) 
/var/tmp/pbs.5076255.sched01/tmp2gjrvvgn/102_qij5c5l.sdf

>  <i_m_source_file_index>  (264) 
4

>  <i_lp_mmshare_version>  (264) 
48012

>  <i_f3d_flags>  (264) 
0

>  <s_epik_input>  (264) 
Tz1DKFtOSF0xKVtDSDJdU1tDQEBdMTJbQ0BIXTNbQ0gyXVtDQEhdNFtDQEBIXTJbTkhdQyg9UylONFtDSDJdMw==

>  <s_epik_cmdline>  (264) 
J2VwaWtfcHl0aG9uJywgJy1waHQnLCAnMi4wJywgJy1waCcsICc3LjAnLCAnLXRuJywgJzgnLCAnLW1hJywgJzIwMCcsICctaW1hZScsICc8aW5maWxlLm1hZT4nLCAnLW9tYWUnLCAnPG91dGZpbGUubWFlPic=

>  <r_lp_tautomer_probability>  (264) 
1

>  <r_epik_Ionization_Penalty>  (264) 
5.67896e-07

>  <r_epik_Ionization_Penalty_Charging>  (264) 
0

>  <r_epik_Ionization_Penalty_Neutral>  (264) 
5.67896e-07

>  <r_epik_State_Penalty>  (264) 
-0

>  <r_epik_Charging_Adjusted_Penalty>  (264) 
0

>  <i_epik_Tot_Q>  (264) 
0

>  <i_epik_Tot_abs_Q>  (264) 
0

>  <s_lp_Force_Field>  (264) 
OPLS3e

>  <r_lp_Energy>  (264) 
28.0533

>  <b_lp_Chiralities_Consistent>  (264) 
1

>  <s_lp_Variant>  (264) 
81:0-1

>  <s_i_glide_gridfile>  (264) 
pfpi4k_grid

>  <i_i_glide_lignum>  (264) 
4

>  <i_i_glide_rotatable_bonds>  (264) 
0

>  <r_i_docking_score>  (264) 
-4.48536

>  <r_i_glide_ligand_efficiency>  (264) 
-0.299024

>  <r_i_glide_ligand_efficiency_sa>  (264) 
-0.737457

>  <r_i_glide_ligand_efficiency_ln>  (264) 
-1.20963

>  <r_i_glide_gscore>  (264) 
-4.48536

>  <r_i_glide_lipo>  (264) 
-0.276177

>  <r_i_glide_hbond>  (264) 
-0.294035

>  <r_i_glide_metal>  (264) 
-0

>  <r_i_glide_rewards>  (264) 
-2.05843

>  <r_i_glide_evdw>  (264) 
-25.2049

>  <r_i_glide_ecoul>  (264) 
-3.97652

>  <r_i_glide_erotb>  (264) 
0

>  <r_i_glide_esite>  (264) 
0

>  <r_i_glide_emodel>  (264) 
-37.1802

>  <r_i_glide_energy>  (264) 
-29.1814

>  <r_i_glide_einternal>  (264) 
0

>  <r_i_glide_intrahb_reward>  (264) 
-0

>  <i_i_glide_confnum>  (264) 
2

>  <i_i_glide_posenum>  (264) 
24

>  <r_i_glide_eff_state_penalty>  (264) 
0

>  <ligand_id>  (264) 
81

>  <original_smiles>  (264) 
O=C1CSC2(N1)C1CC3C2NC(=S)N3C1

>  <smiles>  (264) 
[H]N1C(=S)N2C([H])([H])C3([H])C([H])([H])C2([H])C1([H])C31SC([H])([H])C(=O)N1[H]

$$$$
81:0:2
     RDKit          3D

 26 29  0  0  1  0  0  0  0  0999 V2000
    3.8151    0.5202   -4.1825 O   0  0  0  0  0  0  0  0  0  0  0  0
    3.8872   -0.5066   -3.5173 C   0  0  0  0  0  0  0  0  0  0  0  0
    3.2816   -1.8060   -3.9830 C   0  0  0  0  0  0  0  0  0  0  0  0
    4.0056   -3.0844   -2.9442 S   0  0  0  0  0  0  0  0  0  0  0  0
    4.5600   -1.9020   -1.6681 C   0  0  2  0  0  0  0  0  0  0  0  0
    4.5526   -0.6226   -2.3635 N   0  0  0  0  0  0  0  0  0  0  0  0
    5.9725   -2.2497   -1.0943 C   0  0  1  0  0  0  0  0  0  0  0  0
    6.0474   -1.3070    0.0876 C   0  0  0  0  0  0  0  0  0  0  0  0
    4.7762   -1.8774    0.6958 C   0  0  1  0  0  0  0  0  0  0  0  0
    3.6806   -1.8175   -0.3709 C   0  0  2  0  0  0  0  0  0  0  0  0
    2.9813   -3.0522   -0.0530 N   0  0  0  0  0  0  0  0  0  0  0  0
    3.7497   -3.9386    0.6051 C   0  0  0  0  0  0  0  0  0  0  0  0
    3.3232   -5.4709    1.0774 S   0  0  0  0  0  0  0  0  0  0  0  0
    4.9492   -3.3265    0.7243 N   0  0  0  0  0  0  0  0  0  0  0  0
    5.9534   -3.5881   -0.3191 C   0  0  0  0  0  0  0  0  0  0  0  0
    2.2011   -1.7648   -3.8856 H   0  0  0  0  0  0  0  0  0  0  0  0
    3.5274   -1.9754   -5.0267 H   0  0  0  0  0  0  0  0  0  0  0  0
    4.9807    0.1888   -1.9345 H   0  0  0  0  0  0  0  0  0  0  0  0
    6.7812   -2.1714   -1.8218 H   0  0  0  0  0  0  0  0  0  0  0  0
    6.9255   -1.4593    0.7194 H   0  0  0  0  0  0  0  0  0  0  0  0
    5.9637   -0.2493   -0.1571 H   0  0  0  0  0  0  0  0  0  0  0  0
    4.4998   -1.4580    1.6648 H   0  0  0  0  0  0  0  0  0  0  0  0
    3.0376   -0.9430   -0.3076 H   0  0  0  0  0  0  0  0  0  0  0  0
    2.0291   -3.2308   -0.3210 H   0  0  0  0  0  0  0  0  0  0  0  0
    5.6731   -4.4183   -0.9669 H   0  0  0  0  0  0  0  0  0  0  0  0
    6.9255   -3.8166    0.1239 H   0  0  0  0  0  0  0  0  0  0  0  0
  1  2  2  0
  2  6  1  0
  2  3  1  0
  3  4  1  0
  3 16  1  0
  3 17  1  0
  5  4  1  6
  5 10  1  0
  5  6  1  0
  5  7  1  0
  6 18  1  0
  7 15  1  0
  7  8  1  0
  7 19  1  6
  8  9  1  0
  8 20  1  0
  8 21  1  0
  9 14  1  0
  9 10  1  0
  9 22  1  1
 10 11  1  0
 10 23  1  6
 11 12  1  0
 11 24  1  0
 12 13  2  0
 12 14  1  0
 14 15  1  0
 15 25  1  0
 15 26  1  0
M  END
>  <i_m_ct_stereo_status>  (265) 
1

>  <s_m_source_file>  (265) 
/var/tmp/pbs.5076255.sched01/tmp2gjrvvgn/102_qij5c5l.sdf

>  <i_m_source_file_index>  (265) 
4

>  <i_lp_mmshare_version>  (265) 
48012

>  <i_f3d_flags>  (265) 
0

>  <s_epik_input>  (265) 
Tz1DKFtOSF0xKVtDSDJdU1tDQEBdMTJbQ0BIXTNbQ0gyXVtDQEhdNFtDQEBIXTJbTkhdQyg9UylONFtDSDJdMw==

>  <s_epik_cmdline>  (265) 
J2VwaWtfcHl0aG9uJywgJy1waHQnLCAnMi4wJywgJy1waCcsICc3LjAnLCAnLXRuJywgJzgnLCAnLW1hJywgJzIwMCcsICctaW1hZScsICc8aW5maWxlLm1hZT4nLCAnLW9tYWUnLCAnPG91dGZpbGUubWFlPic=

>  <r_lp_tautomer_probability>  (265) 
1

>  <r_epik_Ionization_Penalty>  (265) 
5.67896e-07

>  <r_epik_Ionization_Penalty_Charging>  (265) 
0

>  <r_epik_Ionization_Penalty_Neutral>  (265) 
5.67896e-07

>  <r_epik_State_Penalty>  (265) 
-0

>  <r_epik_Charging_Adjusted_Penalty>  (265) 
0

>  <i_epik_Tot_Q>  (265) 
0

>  <i_epik_Tot_abs_Q>  (265) 
0

>  <s_lp_Force_Field>  (265) 
OPLS3e

>  <r_lp_Energy>  (265) 
28.0533

>  <b_lp_Chiralities_Consistent>  (265) 
1

>  <s_lp_Variant>  (265) 
81:0-1

>  <s_i_glide_gridfile>  (265) 
pfpi4k_grid

>  <i_i_glide_lignum>  (265) 
4

>  <i_i_glide_rotatable_bonds>  (265) 
0

>  <r_i_docking_score>  (265) 
-4.22424

>  <r_i_glide_ligand_efficiency>  (265) 
-0.281616

>  <r_i_glide_ligand_efficiency_sa>  (265) 
-0.694525

>  <r_i_glide_ligand_efficiency_ln>  (265) 
-1.13921

>  <r_i_glide_gscore>  (265) 
-4.22424

>  <r_i_glide_lipo>  (265) 
-0.183269

>  <r_i_glide_hbond>  (265) 
-0.316628

>  <r_i_glide_metal>  (265) 
-0

>  <r_i_glide_rewards>  (265) 
-2.13876

>  <r_i_glide_evdw>  (265) 
-28.4857

>  <r_i_glide_ecoul>  (265) 
-0.828485

>  <r_i_glide_erotb>  (265) 
0

>  <r_i_glide_esite>  (265) 
-0.0370272

>  <r_i_glide_emodel>  (265) 
-36.8231

>  <r_i_glide_energy>  (265) 
-29.3142

>  <r_i_glide_einternal>  (265) 
0

>  <r_i_glide_intrahb_reward>  (265) 
-0

>  <i_i_glide_confnum>  (265) 
2

>  <i_i_glide_posenum>  (265) 
17

>  <r_i_glide_eff_state_penalty>  (265) 
0

>  <ligand_id>  (265) 
81

>  <original_smiles>  (265) 
O=C1CSC2(N1)C1CC3C2NC(=S)N3C1

>  <smiles>  (265) 
[H]N1C(=S)N2C([H])([H])C3([H])C([H])([H])C2([H])C1([H])C31SC([H])([H])C(=O)N1[H]

$$$$
82:0:0
     RDKit          3D

 61 65  0  0  1  0  0  0  0  0999 V2000
    7.8245   -4.8780    1.6201 C   0  0  0  0  0  0  0  0  0  0  0  0
    6.7085   -5.5674    2.4225 C   0  0  2  0  0  0  0  0  0  0  0  0
    6.4732   -7.0823    1.8980 C   0  0  0  0  0  0  0  0  0  0  0  0
    4.9721   -7.6638    1.6467 C   0  0  0  0  0  0  0  0  0  0  0  0
    3.7269   -6.7744    1.0871 C   0  0  2  0  0  0  0  0  0  0  0  0
    4.2418   -5.5439    0.3422 C   0  0  2  0  0  0  0  0  0  0  0  0
    5.2940   -5.1697    1.1218 O   0  0  0  0  0  0  0  0  0  0  0  0
    5.2940   -4.9235    2.5369 C   0  0  1  0  0  0  0  0  0  0  0  0
    4.6492   -5.6878    3.7627 C   0  0  0  0  0  0  0  0  0  0  0  0
    5.1725   -6.5830    4.4392 O   0  0  0  0  0  0  0  0  0  0  0  0
    3.5756   -5.0818    4.1728 O   0  0  0  0  0  0  0  0  0  0  0  0
    3.1169   -4.2214    3.1940 C   0  0  2  0  0  0  0  0  0  0  0  0
    2.0463   -5.1368    2.5017 C   0  0  0  0  0  0  0  0  0  0  0  0
    2.3548   -6.5717    1.8806 C   0  0  0  0  0  0  0  0  0  0  0  0
    1.1880   -6.8115    0.9011 C   0  0  0  0  0  0  0  0  0  0  0  0
    2.1543   -7.6911    2.9351 C   0  0  0  0  0  0  0  0  0  0  0  0
    4.4278   -3.6171    2.5007 C   0  0  1  0  0  0  0  0  0  0  0  0
    4.8812   -2.4623    3.4522 C   0  0  1  0  0  0  0  0  0  0  0  0
    5.5537   -2.9225    4.6239 O   0  0  0  0  0  0  0  0  0  0  0  0
    5.6878   -1.3630    2.7448 C   0  0  0  0  0  0  0  0  0  0  0  0
    4.9292   -0.7825    1.5695 C   0  0  0  0  0  0  0  0  0  0  0  0
    4.6872   -1.8351    0.4748 C   0  0  0  0  0  0  0  0  0  0  0  0
    3.8618   -1.0547   -0.5792 C   0  0  0  0  0  0  0  0  0  0  0  0
    6.0250   -2.2377   -0.1898 C   0  0  0  0  0  0  0  0  0  0  0  0
    3.8999   -3.0639    1.0941 C   0  0  1  0  0  0  0  0  0  0  0  0
    3.4962   -4.2195    0.1014 C   0  0  1  0  0  0  0  0  0  0  0  0
    3.6799   -3.8430   -1.2452 O   0  0  0  0  0  0  0  0  0  0  0  0
    7.6372   -4.8828    0.5576 H   0  0  0  0  0  0  0  0  0  0  0  0
    8.7648   -5.4138    1.7759 H   0  0  0  0  0  0  0  0  0  0  0  0
    7.9500   -3.8495    1.9359 H   0  0  0  0  0  0  0  0  0  0  0  0
    7.1388   -5.6346    3.4141 H   0  0  0  0  0  0  0  0  0  0  0  0
    6.9953   -7.1891    0.9433 H   0  0  0  0  0  0  0  0  0  0  0  0
    6.9851   -7.7835    2.5706 H   0  0  0  0  0  0  0  0  0  0  0  0
    5.1047   -8.4666    0.9140 H   0  0  0  0  0  0  0  0  0  0  0  0
    4.6605   -8.2096    2.5433 H   0  0  0  0  0  0  0  0  0  0  0  0
    3.4132   -7.4245    0.2960 H   0  0  0  0  0  0  0  0  0  0  0  0
    4.6708   -5.8790   -0.6032 H   0  0  0  0  0  0  0  0  0  0  0  0
    2.5626   -3.3938    3.6389 H   0  0  0  0  0  0  0  0  0  0  0  0
    1.3053   -5.3259    3.2842 H   0  0  0  0  0  0  0  0  0  0  0  0
    1.4659   -4.5199    1.8222 H   0  0  0  0  0  0  0  0  0  0  0  0
    0.2359   -6.6398    1.3921 H   0  0  0  0  0  0  0  0  0  0  0  0
    1.1636   -7.8516    0.5693 H   0  0  0  0  0  0  0  0  0  0  0  0
    1.2381   -6.1761    0.0123 H   0  0  0  0  0  0  0  0  0  0  0  0
    1.1366   -7.6707    3.3266 H   0  0  0  0  0  0  0  0  0  0  0  0
    2.8165   -7.6300    3.7975 H   0  0  0  0  0  0  0  0  0  0  0  0
    2.2972   -8.6754    2.4869 H   0  0  0  0  0  0  0  0  0  0  0  0
    3.9884   -1.9628    3.8344 H   0  0  0  0  0  0  0  0  0  0  0  0
    5.0911   -3.6403    5.0087 H   0  0  0  0  0  0  0  0  0  0  0  0
    5.9191   -0.5656    3.4505 H   0  0  0  0  0  0  0  0  0  0  0  0
    6.6267   -1.7367    2.3584 H   0  0  0  0  0  0  0  0  0  0  0  0
    3.9766   -0.3823    1.9216 H   0  0  0  0  0  0  0  0  0  0  0  0
    5.4804    0.0593    1.1561 H   0  0  0  0  0  0  0  0  0  0  0  0
    3.7714   -1.5445   -1.5462 H   0  0  0  0  0  0  0  0  0  0  0  0
    4.3394   -0.1038   -0.7946 H   0  0  0  0  0  0  0  0  0  0  0  0
    2.8581   -0.8893   -0.1772 H   0  0  0  0  0  0  0  0  0  0  0  0
    5.8927   -2.8433   -1.0922 H   0  0  0  0  0  0  0  0  0  0  0  0
    6.6292   -2.8311    0.4935 H   0  0  0  0  0  0  0  0  0  0  0  0
    6.5903   -1.3524   -0.4750 H   0  0  0  0  0  0  0  0  0  0  0  0
    2.9392   -2.6014    1.3202 H   0  0  0  0  0  0  0  0  0  0  0  0
    2.4306   -4.3667    0.0767 H   0  0  0  0  0  0  0  0  0  0  0  0
    3.4323   -4.5666   -1.8190 H   0  0  0  0  0  0  0  0  0  0  0  0
  1  2  1  0
  1 28  1  0
  1 29  1  0
  1 30  1  0
  2  8  1  0
  2  3  1  0
  2 31  1  1
  3  4  1  0
  3 32  1  0
  3 33  1  0
  4  5  1  0
  4 34  1  0
  4 35  1  0
  5 14  1  0
  5  6  1  0
  5 36  1  6
  6 26  1  0
  6  7  1  0
  6 37  1  6
  7  8  1  0
 17  8  1  6
  8  9  1  1
  9 10  2  0
  9 11  1  0
 11 12  1  0
 12 13  1  0
 12 17  1  0
 12 38  1  1
 13 14  1  0
 13 39  1  0
 13 40  1  0
 14 15  1  0
 14 16  1  0
 15 41  1  0
 15 42  1  0
 15 43  1  0
 16 44  1  0
 16 45  1  0
 16 46  1  0
 17 25  1  0
 17 18  1  0
 18 19  1  0
 18 20  1  0
 18 47  1  1
 19 48  1  0
 20 21  1  0
 20 49  1  0
 20 50  1  0
 21 22  1  0
 21 51  1  0
 21 52  1  0
 22 23  1  0
 22 24  1  0
 22 25  1  0
 23 53  1  0
 23 54  1  0
 23 55  1  0
 24 56  1  0
 24 57  1  0
 24 58  1  0
 25 26  1  0
 25 59  1  1
 26 27  1  0
 26 60  1  6
 27 61  1  0
M  END
>  <i_m_ct_stereo_status>  (266) 
1

>  <s_m_source_file>  (266) 
/var/tmp/pbs.5076255.sched01/tmp2gjrvvgn/102_qij5c5l.sdf

>  <i_m_source_file_index>  (266) 
5

>  <i_lp_mmshare_version>  (266) 
48012

>  <i_f3d_flags>  (266) 
0

>  <s_epik_input>  (266) 
Tz1DMU9bQ0BASF0oW0NAXTIzW0NAXTE0NSlbQ0gyXUMoW0NIM10pKFtDSDNdKVtDQEhdKFtDSDJdW0NIMl1bQ0BIXTRbQ0gzXSlbQ0BIXShPNSlbQ0BIXShbT0hdKVtDQEBIXTNDKFtDSDNdKShbQ0gzXSlbQ0gyXVtDSDJdW0NAQEhdMltPSF0=

>  <s_epik_cmdline>  (266) 
J2VwaWtfcHl0aG9uJywgJy1waHQnLCAnMi4wJywgJy1waCcsICc3LjAnLCAnLXRuJywgJzgnLCAnLW1hJywgJzIwMCcsICctaW1hZScsICc8aW5maWxlLm1hZT4nLCAnLW9tYWUnLCAnPG91dGZpbGUubWFlPic=

>  <r_lp_tautomer_probability>  (266) 
1

>  <r_epik_Ionization_Penalty>  (266) 
1.79851e-07

>  <r_epik_Ionization_Penalty_Charging>  (266) 
0

>  <r_epik_Ionization_Penalty_Neutral>  (266) 
1.79851e-07

>  <r_epik_State_Penalty>  (266) 
-0

>  <r_epik_Charging_Adjusted_Penalty>  (266) 
0

>  <i_epik_Tot_Q>  (266) 
0

>  <i_epik_Tot_abs_Q>  (266) 
0

>  <s_epik_Chemistry_Notes>  (266) 
This compound has an ester and may undergo hydrolysis at high or low pH.

>  <s_lp_Force_Field>  (266) 
OPLS3e

>  <r_lp_Energy>  (266) 
194.35

>  <b_lp_Chiralities_Consistent>  (266) 
1

>  <s_lp_Variant>  (266) 
82:0-1

>  <s_i_glide_gridfile>  (266) 
pfpi4k_grid

>  <i_i_glide_lignum>  (266) 
5

>  <i_i_glide_rotatable_bonds>  (266) 
2

>  <r_i_docking_score>  (266) 
-3.06906

>  <r_i_glide_ligand_efficiency>  (266) 
-0.113669

>  <r_i_glide_ligand_efficiency_sa>  (266) 
-0.341007

>  <r_i_glide_ligand_efficiency_ln>  (266) 
-0.714427

>  <r_i_glide_gscore>  (266) 
-3.06906

>  <r_i_glide_lipo>  (266) 
-0.680873

>  <r_i_glide_hbond>  (266) 
0

>  <r_i_glide_metal>  (266) 
-0

>  <r_i_glide_rewards>  (266) 
-0.828393

>  <r_i_glide_evdw>  (266) 
-17.1946

>  <r_i_glide_ecoul>  (266) 
-4.66711

>  <r_i_glide_erotb>  (266) 
0

>  <r_i_glide_esite>  (266) 
0

>  <r_i_glide_emodel>  (266) 
-22.9817

>  <r_i_glide_energy>  (266) 
-21.8617

>  <r_i_glide_einternal>  (266) 
0.740557

>  <r_i_glide_intrahb_reward>  (266) 
-0

>  <i_i_glide_confnum>  (266) 
2

>  <i_i_glide_posenum>  (266) 
20

>  <r_i_glide_eff_state_penalty>  (266) 
0

>  <ligand_id>  (266) 
82

>  <original_smiles>  (266) 
CC1CCC2C3OC14C(=O)OC(CC2(C)C)C41C(O)CCC(C)(C)C1C3O

>  <smiles>  (266) 
[H]OC1([H])C2([H])OC34C(=O)OC([H])(C([H])([H])C(C([H])([H])[H])(C([H])([H])[H])C2([H])C([H])([H])C([H])([H])C3([H])C([H])([H])[H])C42C([H])(O[H])C([H])([H])C([H])([H])C(C([H])([H])[H])(C([H])([H])[H])C12[H]

$$$$
82:0:1
     RDKit          3D

 61 65  0  0  1  0  0  0  0  0999 V2000
    7.0081   -4.1121    0.6528 C   0  0  0  0  0  0  0  0  0  0  0  0
    6.2172   -3.8649    1.9518 C   0  0  2  0  0  0  0  0  0  0  0  0
    6.2093   -5.1597    2.9448 C   0  0  0  0  0  0  0  0  0  0  0  0
    4.8638   -5.5758    3.7527 C   0  0  0  0  0  0  0  0  0  0  0  0
    3.3743   -5.3972    3.1456 C   0  0  2  0  0  0  0  0  0  0  0  0
    3.4415   -5.2841    1.6222 C   0  0  2  0  0  0  0  0  0  0  0  0
    4.5304   -4.5090    1.4219 O   0  0  0  0  0  0  0  0  0  0  0  0
    4.8074   -3.2273    1.9898 C   0  0  1  0  0  0  0  0  0  0  0  0
    4.6610   -2.6388    3.4411 C   0  0  0  0  0  0  0  0  0  0  0  0
    5.4145   -2.7938    4.4158 O   0  0  0  0  0  0  0  0  0  0  0  0
    3.6967   -1.8016    3.4941 O   0  0  0  0  0  0  0  0  0  0  0  0
    2.8341   -2.0555    2.4482 C   0  0  2  0  0  0  0  0  0  0  0  0
    1.8530   -3.0755    3.1535 C   0  0  0  0  0  0  0  0  0  0  0  0
    2.2681   -4.4686    3.8408 C   0  0  0  0  0  0  0  0  0  0  0  0
    0.9624   -5.3022    3.8679 C   0  0  0  0  0  0  0  0  0  0  0  0
    2.5583   -4.2600    5.3522 C   0  0  0  0  0  0  0  0  0  0  0  0
    3.7687   -2.3906    1.1988 C   0  0  1  0  0  0  0  0  0  0  0  0
    4.3217   -1.0266    0.6554 C   0  0  1  0  0  0  0  0  0  0  0  0
    5.4785   -0.5615    1.3265 O   0  0  0  0  0  0  0  0  0  0  0  0
    4.6846   -1.0183   -0.8295 C   0  0  0  0  0  0  0  0  0  0  0  0
    3.5291   -1.5233   -1.6677 C   0  0  0  0  0  0  0  0  0  0  0  0
    3.1912   -2.9830   -1.3607 C   0  0  0  0  0  0  0  0  0  0  0  0
    1.9797   -3.2591   -2.2950 C   0  0  0  0  0  0  0  0  0  0  0  0
    4.4085   -3.8224   -1.7566 C   0  0  0  0  0  0  0  0  0  0  0  0
    2.8298   -3.1636    0.1714 C   0  0  1  0  0  0  0  0  0  0  0  0
    2.4201   -4.6067    0.7019 C   0  0  1  0  0  0  0  0  0  0  0  0
    1.9753   -5.4558   -0.3193 O   0  0  0  0  0  0  0  0  0  0  0  0
    6.6050   -4.9341    0.0596 H   0  0  0  0  0  0  0  0  0  0  0  0
    8.0436   -4.3714    0.8919 H   0  0  0  0  0  0  0  0  0  0  0  0
    7.0595   -3.2037    0.0527 H   0  0  0  0  0  0  0  0  0  0  0  0
    6.8027   -3.0495    2.3383 H   0  0  0  0  0  0  0  0  0  0  0  0
    6.5088   -6.0357    2.3571 H   0  0  0  0  0  0  0  0  0  0  0  0
    6.9902   -5.0649    3.6984 H   0  0  0  0  0  0  0  0  0  0  0  0
    4.9842   -6.6421    3.9611 H   0  0  0  0  0  0  0  0  0  0  0  0
    4.9156   -5.1469    4.7564 H   0  0  0  0  0  0  0  0  0  0  0  0
    2.9810   -6.4026    3.2965 H   0  0  0  0  0  0  0  0  0  0  0  0
    3.7004   -6.2639    1.2283 H   0  0  0  0  0  0  0  0  0  0  0  0
    2.2776   -1.1441    2.2254 H   0  0  0  0  0  0  0  0  0  0  0  0
    1.3916   -2.4939    3.9509 H   0  0  0  0  0  0  0  0  0  0  0  0
    1.0098   -3.1913    2.4892 H   0  0  0  0  0  0  0  0  0  0  0  0
    0.1415   -4.7296    4.2980 H   0  0  0  0  0  0  0  0  0  0  0  0
    1.0660   -6.2057    4.4708 H   0  0  0  0  0  0  0  0  0  0  0  0
    0.6429   -5.6295    2.8805 H   0  0  0  0  0  0  0  0  0  0  0  0
    1.6981   -3.8245    5.8599 H   0  0  0  0  0  0  0  0  0  0  0  0
    3.3880   -3.5932    5.5573 H   0  0  0  0  0  0  0  0  0  0  0  0
    2.7787   -5.2065    5.8472 H   0  0  0  0  0  0  0  0  0  0  0  0
    3.5486   -0.2658    0.7901 H   0  0  0  0  0  0  0  0  0  0  0  0
    5.2741   -0.4643    2.2542 H   0  0  0  0  0  0  0  0  0  0  0  0
    4.8654    0.0010   -1.1464 H   0  0  0  0  0  0  0  0  0  0  0  0
    5.6078   -1.5568   -1.0271 H   0  0  0  0  0  0  0  0  0  0  0  0
    2.6694   -0.8783   -1.4844 H   0  0  0  0  0  0  0  0  0  0  0  0
    3.7534   -1.3761   -2.7245 H   0  0  0  0  0  0  0  0  0  0  0  0
    1.7290   -4.2955   -2.3799 H   0  0  0  0  0  0  0  0  0  0  0  0
    2.1404   -2.8951   -3.3107 H   0  0  0  0  0  0  0  0  0  0  0  0
    1.0624   -2.7953   -1.9353 H   0  0  0  0  0  0  0  0  0  0  0  0
    4.2179   -4.8678   -1.5646 H   0  0  0  0  0  0  0  0  0  0  0  0
    5.2729   -3.5737   -1.1556 H   0  0  0  0  0  0  0  0  0  0  0  0
    4.6824   -3.6449   -2.7987 H   0  0  0  0  0  0  0  0  0  0  0  0
    1.8935   -2.6348    0.2606 H   0  0  0  0  0  0  0  0  0  0  0  0
    1.5121   -4.6220    1.2404 H   0  0  0  0  0  0  0  0  0  0  0  0
    2.6653   -5.5408   -0.9566 H   0  0  0  0  0  0  0  0  0  0  0  0
  1  2  1  0
  1 28  1  0
  1 29  1  0
  1 30  1  0
  2  8  1  0
  2  3  1  0
  2 31  1  1
  3  4  1  0
  3 32  1  0
  3 33  1  0
  4  5  1  0
  4 34  1  0
  4 35  1  0
  5 14  1  0
  5  6  1  0
  5 36  1  6
  6 26  1  0
  6  7  1  0
  6 37  1  6
  7  8  1  0
 17  8  1  1
  8  9  1  1
  9 10  2  0
  9 11  1  0
 11 12  1  0
 12 13  1  0
 12 17  1  0
 12 38  1  6
 13 14  1  0
 13 39  1  0
 13 40  1  0
 14 15  1  0
 14 16  1  0
 15 41  1  0
 15 42  1  0
 15 43  1  0
 16 44  1  0
 16 45  1  0
 16 46  1  0
 17 25  1  0
 17 18  1  0
 18 19  1  0
 18 20  1  0
 18 47  1  6
 19 48  1  0
 20 21  1  0
 20 49  1  0
 20 50  1  0
 21 22  1  0
 21 51  1  0
 21 52  1  0
 22 23  1  0
 22 24  1  0
 22 25  1  0
 23 53  1  0
 23 54  1  0
 23 55  1  0
 24 56  1  0
 24 57  1  0
 24 58  1  0
 25 26  1  0
 25 59  1  6
 26 27  1  0
 26 60  1  1
 27 61  1  0
M  END
>  <i_m_ct_stereo_status>  (267) 
1

>  <s_m_source_file>  (267) 
/var/tmp/pbs.5076255.sched01/tmp2gjrvvgn/102_qij5c5l.sdf

>  <i_m_source_file_index>  (267) 
5

>  <i_lp_mmshare_version>  (267) 
48012

>  <i_f3d_flags>  (267) 
0

>  <s_epik_input>  (267) 
Tz1DMU9bQ0BASF0oW0NAXTIzW0NAXTE0NSlbQ0gyXUMoW0NIM10pKFtDSDNdKVtDQEhdKFtDSDJdW0NIMl1bQ0BIXTRbQ0gzXSlbQ0BIXShPNSlbQ0BIXShbT0hdKVtDQEBIXTNDKFtDSDNdKShbQ0gzXSlbQ0gyXVtDSDJdW0NAQEhdMltPSF0=

>  <s_epik_cmdline>  (267) 
J2VwaWtfcHl0aG9uJywgJy1waHQnLCAnMi4wJywgJy1waCcsICc3LjAnLCAnLXRuJywgJzgnLCAnLW1hJywgJzIwMCcsICctaW1hZScsICc8aW5maWxlLm1hZT4nLCAnLW9tYWUnLCAnPG91dGZpbGUubWFlPic=

>  <r_lp_tautomer_probability>  (267) 
1

>  <r_epik_Ionization_Penalty>  (267) 
1.79851e-07

>  <r_epik_Ionization_Penalty_Charging>  (267) 
0

>  <r_epik_Ionization_Penalty_Neutral>  (267) 
1.79851e-07

>  <r_epik_State_Penalty>  (267) 
-0

>  <r_epik_Charging_Adjusted_Penalty>  (267) 
0

>  <i_epik_Tot_Q>  (267) 
0

>  <i_epik_Tot_abs_Q>  (267) 
0

>  <s_epik_Chemistry_Notes>  (267) 
This compound has an ester and may undergo hydrolysis at high or low pH.

>  <s_lp_Force_Field>  (267) 
OPLS3e

>  <r_lp_Energy>  (267) 
194.35

>  <b_lp_Chiralities_Consistent>  (267) 
1

>  <s_lp_Variant>  (267) 
82:0-1

>  <s_i_glide_gridfile>  (267) 
pfpi4k_grid

>  <i_i_glide_lignum>  (267) 
5

>  <i_i_glide_rotatable_bonds>  (267) 
2

>  <r_i_docking_score>  (267) 
-2.81133

>  <r_i_glide_ligand_efficiency>  (267) 
-0.104123

>  <r_i_glide_ligand_efficiency_sa>  (267) 
-0.31237

>  <r_i_glide_ligand_efficiency_ln>  (267) 
-0.654432

>  <r_i_glide_gscore>  (267) 
-2.81133

>  <r_i_glide_lipo>  (267) 
-0.423529

>  <r_i_glide_hbond>  (267) 
0

>  <r_i_glide_metal>  (267) 
-0

>  <r_i_glide_rewards>  (267) 
-0.872188

>  <r_i_glide_evdw>  (267) 
-9.50649

>  <r_i_glide_ecoul>  (267) 
-6.93527

>  <r_i_glide_erotb>  (267) 
0

>  <r_i_glide_esite>  (267) 
0

>  <r_i_glide_emodel>  (267) 
-17.2016

>  <r_i_glide_energy>  (267) 
-16.4418

>  <r_i_glide_einternal>  (267) 
0.518056

>  <r_i_glide_intrahb_reward>  (267) 
-0

>  <i_i_glide_confnum>  (267) 
1

>  <i_i_glide_posenum>  (267) 
10

>  <r_i_glide_eff_state_penalty>  (267) 
0

>  <ligand_id>  (267) 
82

>  <original_smiles>  (267) 
CC1CCC2C3OC14C(=O)OC(CC2(C)C)C41C(O)CCC(C)(C)C1C3O

>  <smiles>  (267) 
[H]OC1([H])C2([H])OC34C(=O)OC([H])(C([H])([H])C(C([H])([H])[H])(C([H])([H])[H])C2([H])C([H])([H])C([H])([H])C3([H])C([H])([H])[H])C42C([H])(O[H])C([H])([H])C([H])([H])C(C([H])([H])[H])(C([H])([H])[H])C12[H]

$$$$
82:0:2
     RDKit          3D

 61 65  0  0  1  0  0  0  0  0999 V2000
    7.1830   -4.3484    0.1396 C   0  0  0  0  0  0  0  0  0  0  0  0
    6.5256   -3.7041    1.3733 C   0  0  2  0  0  0  0  0  0  0  0  0
    6.1919   -4.8009    2.5280 C   0  0  0  0  0  0  0  0  0  0  0  0
    4.8135   -4.7459    3.3743 C   0  0  0  0  0  0  0  0  0  0  0  0
    3.3727   -4.3738    2.7235 C   0  0  2  0  0  0  0  0  0  0  0  0
    3.4473   -4.5873    1.2058 C   0  0  2  0  0  0  0  0  0  0  0  0
    4.6756   -4.1164    0.8860 O   0  0  0  0  0  0  0  0  0  0  0  0
    5.2343   -2.8390    1.2208 C   0  0  1  0  0  0  0  0  0  0  0  0
    5.1726   -1.9501    2.4979 C   0  0  0  0  0  0  0  0  0  0  0  0
    5.8072   -2.0843    3.5224 O   0  0  0  0  0  0  0  0  0  0  0  0
    4.4267   -0.9179    2.3144 O   0  0  0  0  0  0  0  0  0  0  0  0
    3.4905   -1.1939    1.3432 C   0  0  2  0  0  0  0  0  0  0  0  0
    2.3369   -1.8263    2.2436 C   0  0  0  0  0  0  0  0  0  0  0  0
    2.4932   -3.1156    3.2132 C   0  0  0  0  0  0  0  0  0  0  0  0
    1.0591   -3.6476    3.4162 C   0  0  0  0  0  0  0  0  0  0  0  0
    2.8578   -2.6752    4.6626 C   0  0  0  0  0  0  0  0  0  0  0  0
    4.3565   -1.9871    0.2521 C   0  0  1  0  0  0  0  0  0  0  0  0
    5.1269   -0.8884   -0.5106 C   0  0  1  0  0  0  0  0  0  0  0  0
    6.3691   -0.5779    0.0830 O   0  0  0  0  0  0  0  0  0  0  0  0
    5.4167   -1.1887   -1.9572 C   0  0  0  0  0  0  0  0  0  0  0  0
    4.1781   -1.5840   -2.7264 C   0  0  0  0  0  0  0  0  0  0  0  0
    3.6065   -2.8790   -2.1784 C   0  0  0  0  0  0  0  0  0  0  0  0
    2.3208   -3.0846   -3.0248 C   0  0  0  0  0  0  0  0  0  0  0  0
    4.6532   -3.9634   -2.3579 C   0  0  0  0  0  0  0  0  0  0  0  0
    3.3001   -2.7281   -0.6545 C   0  0  1  0  0  0  0  0  0  0  0  0
    2.6115   -3.9143    0.1188 C   0  0  1  0  0  0  0  0  0  0  0  0
    1.7967   -4.8113   -0.5841 O   0  0  0  0  0  0  0  0  0  0  0  0
    6.5703   -5.1572   -0.2665 H   0  0  0  0  0  0  0  0  0  0  0  0
    8.1387   -4.8003    0.4143 H   0  0  0  0  0  0  0  0  0  0  0  0
    7.3974   -3.6245   -0.6497 H   0  0  0  0  0  0  0  0  0  0  0  0
    7.3062   -3.0307    1.7054 H   0  0  0  0  0  0  0  0  0  0  0  0
    6.2718   -5.7967    2.0905 H   0  0  0  0  0  0  0  0  0  0  0  0
    7.0064   -4.8335    3.2414 H   0  0  0  0  0  0  0  0  0  0  0  0
    4.7071   -5.7388    3.8012 H   0  0  0  0  0  0  0  0  0  0  0  0
    4.9639   -4.1699    4.2812 H   0  0  0  0  0  0  0  0  0  0  0  0
    2.7825   -5.2226    3.0680 H   0  0  0  0  0  0  0  0  0  0  0  0
    3.4662   -5.6586    1.0154 H   0  0  0  0  0  0  0  0  0  0  0  0
    3.1155   -0.2373    0.9232 H   0  0  0  0  0  0  0  0  0  0  0  0
    2.0523   -1.0142    2.9078 H   0  0  0  0  0  0  0  0  0  0  0  0
    1.4330   -1.8805    1.6358 H   0  0  0  0  0  0  0  0  0  0  0  0
    0.3744   -2.8395    3.6804 H   0  0  0  0  0  0  0  0  0  0  0  0
    0.9993   -4.3876    4.2159 H   0  0  0  0  0  0  0  0  0  0  0  0
    0.7153   -4.1291    2.5069 H   0  0  0  0  0  0  0  0  0  0  0  0
    2.1220   -1.9765    5.0629 H   0  0  0  0  0  0  0  0  0  0  0  0
    3.8026   -2.1565    4.7709 H   0  0  0  0  0  0  0  0  0  0  0  0
    2.8993   -3.5302    5.3408 H   0  0  0  0  0  0  0  0  0  0  0  0
    4.5384    0.0354   -0.5275 H   0  0  0  0  0  0  0  0  0  0  0  0
    6.3913    0.3556    0.2455 H   0  0  0  0  0  0  0  0  0  0  0  0
    5.7557   -0.2611   -2.3806 H   0  0  0  0  0  0  0  0  0  0  0  0
    6.2205   -1.9065   -2.0635 H   0  0  0  0  0  0  0  0  0  0  0  0
    3.4551   -0.7719   -2.6637 H   0  0  0  0  0  0  0  0  0  0  0  0
    4.4393   -1.7071   -3.7764 H   0  0  0  0  0  0  0  0  0  0  0  0
    1.8685   -4.0635   -2.9333 H   0  0  0  0  0  0  0  0  0  0  0  0
    2.5116   -2.9469   -4.0876 H   0  0  0  0  0  0  0  0  0  0  0  0
    1.5550   -2.3595   -2.7528 H   0  0  0  0  0  0  0  0  0  0  0  0
    4.3309   -4.8438   -1.8305 H   0  0  0  0  0  0  0  0  0  0  0  0
    5.5737   -3.7808   -1.8218 H   0  0  0  0  0  0  0  0  0  0  0  0
    4.9155   -4.1379   -3.4045 H   0  0  0  0  0  0  0  0  0  0  0  0
    2.5942   -1.9325   -0.7000 H   0  0  0  0  0  0  0  0  0  0  0  0
    1.8377   -3.4700    0.6474 H   0  0  0  0  0  0  0  0  0  0  0  0
    1.7904   -4.5223   -1.4842 H   0  0  0  0  0  0  0  0  0  0  0  0
  1  2  1  0
  1 28  1  0
  1 29  1  0
  1 30  1  0
  2  8  1  0
  2  3  1  0
  2 31  1  1
  3  4  1  0
  3 32  1  0
  3 33  1  0
  4  5  1  0
  4 34  1  0
  4 35  1  0
  5 14  1  0
  5  6  1  0
  5 36  1  1
  6 26  1  0
  6  7  1  0
  6 37  1  1
  7  8  1  0
 17  8  1  1
  8  9  1  1
  9 10  2  0
  9 11  1  0
 11 12  1  0
 12 13  1  0
 12 17  1  0
 12 38  1  6
 13 14  1  0
 13 39  1  0
 13 40  1  0
 14 15  1  0
 14 16  1  0
 15 41  1  0
 15 42  1  0
 15 43  1  0
 16 44  1  0
 16 45  1  0
 16 46  1  0
 17 25  1  0
 17 18  1  0
 18 19  1  0
 18 20  1  0
 18 47  1  6
 19 48  1  0
 20 21  1  0
 20 49  1  0
 20 50  1  0
 21 22  1  0
 21 51  1  0
 21 52  1  0
 22 23  1  0
 22 24  1  0
 22 25  1  0
 23 53  1  0
 23 54  1  0
 23 55  1  0
 24 56  1  0
 24 57  1  0
 24 58  1  0
 25 26  1  0
 25 59  1  6
 26 27  1  0
 26 60  1  1
 27 61  1  0
M  END
>  <i_m_ct_stereo_status>  (268) 
1

>  <s_m_source_file>  (268) 
/var/tmp/pbs.5076255.sched01/tmp2gjrvvgn/102_qij5c5l.sdf

>  <i_m_source_file_index>  (268) 
5

>  <i_lp_mmshare_version>  (268) 
48012

>  <i_f3d_flags>  (268) 
0

>  <s_epik_input>  (268) 
Tz1DMU9bQ0BASF0oW0NAXTIzW0NAXTE0NSlbQ0gyXUMoW0NIM10pKFtDSDNdKVtDQEhdKFtDSDJdW0NIMl1bQ0BIXTRbQ0gzXSlbQ0BIXShPNSlbQ0BIXShbT0hdKVtDQEBIXTNDKFtDSDNdKShbQ0gzXSlbQ0gyXVtDSDJdW0NAQEhdMltPSF0=

>  <s_epik_cmdline>  (268) 
J2VwaWtfcHl0aG9uJywgJy1waHQnLCAnMi4wJywgJy1waCcsICc3LjAnLCAnLXRuJywgJzgnLCAnLW1hJywgJzIwMCcsICctaW1hZScsICc8aW5maWxlLm1hZT4nLCAnLW9tYWUnLCAnPG91dGZpbGUubWFlPic=

>  <r_lp_tautomer_probability>  (268) 
1

>  <r_epik_Ionization_Penalty>  (268) 
1.79851e-07

>  <r_epik_Ionization_Penalty_Charging>  (268) 
0

>  <r_epik_Ionization_Penalty_Neutral>  (268) 
1.79851e-07

>  <r_epik_State_Penalty>  (268) 
-0

>  <r_epik_Charging_Adjusted_Penalty>  (268) 
0

>  <i_epik_Tot_Q>  (268) 
0

>  <i_epik_Tot_abs_Q>  (268) 
0

>  <s_epik_Chemistry_Notes>  (268) 
This compound has an ester and may undergo hydrolysis at high or low pH.

>  <s_lp_Force_Field>  (268) 
OPLS3e

>  <r_lp_Energy>  (268) 
194.35

>  <b_lp_Chiralities_Consistent>  (268) 
1

>  <s_lp_Variant>  (268) 
82:0-1

>  <s_i_glide_gridfile>  (268) 
pfpi4k_grid

>  <i_i_glide_lignum>  (268) 
5

>  <i_i_glide_rotatable_bonds>  (268) 
2

>  <r_i_docking_score>  (268) 
-2.49798

>  <r_i_glide_ligand_efficiency>  (268) 
-0.0925178

>  <r_i_glide_ligand_efficiency_sa>  (268) 
-0.277553

>  <r_i_glide_ligand_efficiency_ln>  (268) 
-0.581489

>  <r_i_glide_gscore>  (268) 
-2.49798

>  <r_i_glide_lipo>  (268) 
-0.446572

>  <r_i_glide_hbond>  (268) 
0

>  <r_i_glide_metal>  (268) 
-0

>  <r_i_glide_rewards>  (268) 
-0.934994

>  <r_i_glide_evdw>  (268) 
-4.52416

>  <r_i_glide_ecoul>  (268) 
-7.11996

>  <r_i_glide_erotb>  (268) 
0

>  <r_i_glide_esite>  (268) 
0

>  <r_i_glide_emodel>  (268) 
-7.60376

>  <r_i_glide_energy>  (268) 
-11.6441

>  <r_i_glide_einternal>  (268) 
2.0711

>  <r_i_glide_intrahb_reward>  (268) 
-0

>  <i_i_glide_confnum>  (268) 
1

>  <i_i_glide_posenum>  (268) 
23

>  <r_i_glide_eff_state_penalty>  (268) 
0

>  <ligand_id>  (268) 
82

>  <original_smiles>  (268) 
CC1CCC2C3OC14C(=O)OC(CC2(C)C)C41C(O)CCC(C)(C)C1C3O

>  <smiles>  (268) 
[H]OC1([H])C2([H])OC34C(=O)OC([H])(C([H])([H])C(C([H])([H])[H])(C([H])([H])[H])C2([H])C([H])([H])C([H])([H])C3([H])C([H])([H])[H])C42C([H])(O[H])C([H])([H])C([H])([H])C(C([H])([H])[H])(C([H])([H])[H])C12[H]

$$$$
84:0:0
     RDKit          3D

 47 50  0  0  1  0  0  0  0  0999 V2000
    2.4377   -1.3312    3.0608 C   0  0  0  0  0  0  0  0  0  0  0  0
    3.4875   -1.6660    2.3051 C   0  0  0  0  0  0  0  0  0  0  0  0
    4.4860   -0.6266    1.8280 C   0  0  0  0  0  0  0  0  0  0  0  0
    4.7556   -0.7061    0.3209 C   0  0  0  0  0  0  0  0  0  0  0  0
    3.7986   -1.6697   -0.4144 C   0  0  2  0  0  0  0  0  0  0  0  0
    3.7598   -3.1015    0.2109 C   0  0  1  0  0  0  0  0  0  0  0  0
    2.5521   -3.7353   -0.4033 C   0  0  0  0  0  0  0  0  0  0  0  0
    2.5250   -3.7580   -1.7240 C   0  0  0  0  0  0  0  0  0  0  0  0
    3.8245   -3.2572   -2.3851 C   0  0  2  0  0  0  0  0  0  0  0  0
    3.8769   -3.5753   -3.9109 C   0  0  0  0  0  0  0  0  0  0  0  0
    4.9620   -3.8904   -1.7930 O   0  0  0  0  0  0  0  0  0  0  0  0
    4.9059   -3.9780   -0.3659 C   0  0  1  0  0  0  0  0  0  0  0  0
    6.2428   -3.6508    0.2735 C   0  0  0  0  0  0  0  0  0  0  0  0
    7.2707   -3.4397   -0.3839 O   0  0  0  0  0  0  0  0  0  0  0  0
    6.2390   -3.5673    1.7850 C   0  0  0  0  0  0  0  0  0  0  0  0
    4.8664   -3.8495    2.4299 C   0  0  1  0  0  0  0  0  0  0  0  0
    4.9286   -3.6695    3.9610 C   0  0  0  0  0  0  0  0  0  0  0  0
    3.6860   -3.0837    1.7638 C   0  0  1  0  0  0  0  0  0  0  0  0
    3.9582   -1.7769   -1.9809 C   0  0  0  0  0  0  0  0  0  0  0  0
    2.9053   -1.0120   -2.8014 C   0  0  0  0  0  0  0  0  0  0  0  0
    5.2501   -1.2200   -2.4011 C   0  0  0  0  0  0  0  0  0  0  0  0
    1.7015   -2.0675    3.3642 H   0  0  0  0  0  0  0  0  0  0  0  0
    2.2902   -0.3090    3.3877 H   0  0  0  0  0  0  0  0  0  0  0  0
    4.1113    0.3719    2.0669 H   0  0  0  0  0  0  0  0  0  0  0  0
    5.4176   -0.7481    2.3804 H   0  0  0  0  0  0  0  0  0  0  0  0
    4.5981    0.2810   -0.0861 H   0  0  0  0  0  0  0  0  0  0  0  0
    5.8060   -0.9518    0.1612 H   0  0  0  0  0  0  0  0  0  0  0  0
    2.8263   -1.2315   -0.2527 H   0  0  0  0  0  0  0  0  0  0  0  0
    1.7784   -4.1428    0.2222 H   0  0  0  0  0  0  0  0  0  0  0  0
    1.7502   -4.1298   -2.3493 H   0  0  0  0  0  0  0  0  0  0  0  0
    3.0411   -3.1388   -4.4666 H   0  0  0  0  0  0  0  0  0  0  0  0
    3.8354   -4.6450   -4.0782 H   0  0  0  0  0  0  0  0  0  0  0  0
    4.8180   -3.2527   -4.3521 H   0  0  0  0  0  0  0  0  0  0  0  0
    4.6999   -5.0243   -0.1320 H   0  0  0  0  0  0  0  0  0  0  0  0
    6.9639   -4.2984    2.1483 H   0  0  0  0  0  0  0  0  0  0  0  0
    6.6006   -2.5803    2.0717 H   0  0  0  0  0  0  0  0  0  0  0  0
    4.6695   -4.9067    2.2666 H   0  0  0  0  0  0  0  0  0  0  0  0
    5.1916   -2.6477    4.2475 H   0  0  0  0  0  0  0  0  0  0  0  0
    5.6811   -4.3321    4.3971 H   0  0  0  0  0  0  0  0  0  0  0  0
    3.9693   -3.9126    4.4227 H   0  0  0  0  0  0  0  0  0  0  0  0
    2.7952   -3.6299    2.0718 H   0  0  0  0  0  0  0  0  0  0  0  0
    2.9969   -1.0740   -3.8744 H   0  0  0  0  0  0  0  0  0  0  0  0
    2.8919    0.0403   -2.5940 H   0  0  0  0  0  0  0  0  0  0  0  0
    1.9572   -1.4571   -2.5393 H   0  0  0  0  0  0  0  0  0  0  0  0
    5.2151   -1.3574   -3.4818 H   0  0  0  0  0  0  0  0  0  0  0  0
    6.1307   -1.7433   -2.0243 H   0  0  0  0  0  0  0  0  0  0  0  0
    5.3280   -0.1447   -2.2398 H   0  0  0  0  0  0  0  0  0  0  0  0
  1  2  2  0
  1 22  1  0
  1 23  1  0
  2 18  1  0
  2  3  1  0
  3  4  1  0
  3 24  1  0
  3 25  1  0
  4  5  1  0
  4 26  1  0
  4 27  1  0
  5 19  1  0
  5  6  1  0
  5 28  1  6
  6 12  1  0
  6 18  1  0
  6  7  1  6
  7  8  2  0
  7 29  1  0
  8  9  1  0
  8 30  1  0
  9 10  1  6
  9 11  1  0
  9 19  1  0
 10 31  1  0
 10 32  1  0
 10 33  1  0
 11 12  1  0
 12 13  1  0
 12 34  1  6
 13 14  2  0
 13 15  1  0
 15 16  1  0
 15 35  1  0
 15 36  1  0
 16 17  1  0
 16 18  1  0
 16 37  1  1
 17 38  1  0
 17 39  1  0
 17 40  1  0
 18 41  1  6
 19 20  1  0
 19 21  1  0
 20 42  1  0
 20 43  1  0
 20 44  1  0
 21 45  1  0
 21 46  1  0
 21 47  1  0
M  END
>  <i_m_ct_stereo_status>  (269) 
1

>  <s_m_source_file>  (269) 
/var/tmp/pbs.5076255.sched01/tmp2gjrvvgn/102_qij5c5l.sdf

>  <i_m_source_file_index>  (269) 
7

>  <i_lp_mmshare_version>  (269) 
48012

>  <i_f3d_flags>  (269) 
0

>  <s_epik_input>  (269) 
W0NAXTEyM1tDQEhdNFtDSDJdW0NIMl1DKD1bQ0gyXSlbQ0BASF0zW0NASF0oW0NIM10pW0NIMl1DKD1PKVtDQEBIXTJPW0NAQF0oW0NIM10pKFtDSF09W0NIXTEpQzQoW0NIM10pW0NIM10=

>  <s_epik_cmdline>  (269) 
J2VwaWtfcHl0aG9uJywgJy1waHQnLCAnMi4wJywgJy1waCcsICc3LjAnLCAnLXRuJywgJzgnLCAnLW1hJywgJzIwMCcsICctaW1hZScsICc8aW5maWxlLm1hZT4nLCAnLW9tYWUnLCAnPG91dGZpbGUubWFlPic=

>  <r_lp_tautomer_probability>  (269) 
1

>  <r_epik_Ionization_Penalty>  (269) 
7.95375e-12

>  <r_epik_Ionization_Penalty_Charging>  (269) 
0

>  <r_epik_Ionization_Penalty_Neutral>  (269) 
7.95375e-12

>  <r_epik_State_Penalty>  (269) 
-0

>  <r_epik_Charging_Adjusted_Penalty>  (269) 
0

>  <i_epik_Tot_Q>  (269) 
0

>  <i_epik_Tot_abs_Q>  (269) 
0

>  <s_lp_Force_Field>  (269) 
OPLS3e

>  <r_lp_Energy>  (269) 
54.9788

>  <b_lp_Chiralities_Consistent>  (269) 
1

>  <s_lp_Variant>  (269) 
84:0-1

>  <s_i_glide_gridfile>  (269) 
pfpi4k_grid

>  <i_i_glide_lignum>  (269) 
7

>  <i_i_glide_rotatable_bonds>  (269) 
0

>  <r_i_docking_score>  (269) 
-2.42042

>  <r_i_glide_ligand_efficiency>  (269) 
-0.115258

>  <r_i_glide_ligand_efficiency_sa>  (269) 
-0.317988

>  <r_i_glide_ligand_efficiency_ln>  (269) 
-0.598443

>  <r_i_glide_gscore>  (269) 
-2.42042

>  <r_i_glide_lipo>  (269) 
-0.402175

>  <r_i_glide_hbond>  (269) 
0

>  <r_i_glide_metal>  (269) 
-0

>  <r_i_glide_rewards>  (269) 
-1.57291

>  <r_i_glide_evdw>  (269) 
-6.90828

>  <r_i_glide_ecoul>  (269) 
-0.666084

>  <r_i_glide_erotb>  (269) 
0

>  <r_i_glide_esite>  (269) 
0

>  <r_i_glide_emodel>  (269) 
-8.88405

>  <r_i_glide_energy>  (269) 
-7.57437

>  <r_i_glide_einternal>  (269) 
0

>  <r_i_glide_intrahb_reward>  (269) 
-0

>  <i_i_glide_confnum>  (269) 
1

>  <i_i_glide_posenum>  (269) 
39

>  <r_i_glide_eff_state_penalty>  (269) 
0

>  <ligand_id>  (269) 
84

>  <original_smiles>  (269) 
C=C1CCC2C34C=CC(C)(OC3C(=O)CC(C)C14)C2(C)C

>  <smiles>  (269) 
[H]C([H])=C1C([H])([H])C([H])([H])C2([H])C34C([H])=C([H])C(C([H])([H])[H])(OC3([H])C(=O)C([H])([H])C([H])(C([H])([H])[H])C14[H])C2(C([H])([H])[H])C([H])([H])[H]

$$$$
85:0:0
     RDKit          3D

 33 35  0  0  1  0  0  0  0  0999 V2000
    3.8575   -1.3436   -2.9596 C   0  0  0  0  0  0  0  0  0  0  0  0
    4.3191   -2.0691   -1.6843 C   0  0  1  0  0  0  0  0  0  0  0  0
    3.2871   -3.1371   -1.2661 C   0  0  0  0  0  0  0  0  0  0  0  0
    3.7601   -3.8528    0.0191 C   0  0  1  0  0  0  0  0  0  0  0  0
    5.1250   -4.5289   -0.2177 C   0  0  0  0  0  0  0  0  0  0  0  0
    6.1588   -3.4555   -0.6235 C   0  0  1  0  0  0  0  0  0  0  0  0
    5.6817   -2.7643   -1.9212 C   0  0  0  0  0  0  0  0  0  0  0  0
    6.3019   -2.4278    0.5243 C   0  0  1  0  0  0  0  0  0  0  0  0
    7.3166   -1.4859    0.2073 O   0  0  0  0  0  0  0  0  0  0  0  0
    4.9351   -1.7375    0.7778 C   0  0  2  0  0  0  0  0  0  0  0  0
    5.0449   -0.7089    1.9154 C   0  0  0  0  0  0  0  0  0  0  0  0
    3.8948   -2.8235    1.1571 C   0  0  0  0  0  0  0  0  0  0  0  0
    4.4598   -1.0555   -0.5252 C   0  0  0  0  0  0  0  0  0  0  0  0
    2.9064   -0.8330   -2.8030 H   0  0  0  0  0  0  0  0  0  0  0  0
    3.7251   -2.0317   -3.7953 H   0  0  0  0  0  0  0  0  0  0  0  0
    4.5814   -0.5880   -3.2679 H   0  0  0  0  0  0  0  0  0  0  0  0
    2.3135   -2.6768   -1.0906 H   0  0  0  0  0  0  0  0  0  0  0  0
    3.1425   -3.8548   -2.0727 H   0  0  0  0  0  0  0  0  0  0  0  0
    3.0258   -4.6125    0.2973 H   0  0  0  0  0  0  0  0  0  0  0  0
    5.4500   -5.0411    0.6889 H   0  0  0  0  0  0  0  0  0  0  0  0
    5.0341   -5.2944   -0.9896 H   0  0  0  0  0  0  0  0  0  0  0  0
    7.1276   -3.9249   -0.7945 H   0  0  0  0  0  0  0  0  0  0  0  0
    5.6039   -3.5004   -2.7257 H   0  0  0  0  0  0  0  0  0  0  0  0
    6.4265   -2.0389   -2.2503 H   0  0  0  0  0  0  0  0  0  0  0  0
    6.6189   -2.9531    1.4268 H   0  0  0  0  0  0  0  0  0  0  0  0
    7.3585   -0.8410    0.8989 H   0  0  0  0  0  0  0  0  0  0  0  0
    4.0774   -0.2633    2.1468 H   0  0  0  0  0  0  0  0  0  0  0  0
    5.7154    0.1097    1.6570 H   0  0  0  0  0  0  0  0  0  0  0  0
    5.4200   -1.1639    2.8316 H   0  0  0  0  0  0  0  0  0  0  0  0
    2.9215   -2.3677    1.3462 H   0  0  0  0  0  0  0  0  0  0  0  0
    4.1805   -3.3283    2.0798 H   0  0  0  0  0  0  0  0  0  0  0  0
    5.1470   -0.2572   -0.8113 H   0  0  0  0  0  0  0  0  0  0  0  0
    3.4956   -0.5816   -0.3384 H   0  0  0  0  0  0  0  0  0  0  0  0
  2  1  1  6
  1 14  1  0
  1 15  1  0
  1 16  1  0
  2  7  1  0
  2 13  1  0
  2  3  1  0
  3  4  1  0
  3 17  1  0
  3 18  1  0
  4 12  1  0
  4  5  1  0
  4 19  1  1
  5  6  1  0
  5 20  1  0
  5 21  1  0
  6  7  1  0
  6  8  1  0
  6 22  1  6
  7 23  1  0
  7 24  1  0
  8  9  1  0
  8 10  1  0
  8 25  1  1
  9 26  1  0
 10 11  1  1
 10 12  1  0
 10 13  1  0
 11 27  1  0
 11 28  1  0
 11 29  1  0
 12 30  1  0
 12 31  1  0
 13 32  1  0
 13 33  1  0
M  END
>  <i_m_ct_stereo_status>  (270) 
1

>  <s_m_source_file>  (270) 
/var/tmp/pbs.5076255.sched01/tmp2gjrvvgn/102_qij5c5l.sdf

>  <i_m_source_file_index>  (270) 
8

>  <i_lp_mmshare_version>  (270) 
48012

>  <i_f3d_flags>  (270) 
0

>  <s_epik_input>  (270) 
W0NIM11bQ0BAXTEyW0NIMl1bQ0BIXTNbQ0gyXVtDQEBIXShbQ0gyXTEpW0NAQEhdKFtPSF0pW0NAXShbQ0gzXSkoW0NIMl0zKVtDSDJdMg==

>  <s_epik_cmdline>  (270) 
J2VwaWtfcHl0aG9uJywgJy1waHQnLCAnMi4wJywgJy1waCcsICc3LjAnLCAnLXRuJywgJzgnLCAnLW1hJywgJzIwMCcsICctaW1hZScsICc8aW5maWxlLm1hZT4nLCAnLW9tYWUnLCAnPG91dGZpbGUubWFlPic=

>  <r_lp_tautomer_probability>  (270) 
1

>  <r_epik_Ionization_Penalty>  (270) 
2.42241e-06

>  <r_epik_Ionization_Penalty_Charging>  (270) 
0

>  <r_epik_Ionization_Penalty_Neutral>  (270) 
2.42241e-06

>  <r_epik_State_Penalty>  (270) 
-0

>  <r_epik_Charging_Adjusted_Penalty>  (270) 
0

>  <i_epik_Tot_Q>  (270) 
0

>  <i_epik_Tot_abs_Q>  (270) 
0

>  <s_lp_Force_Field>  (270) 
OPLS3e

>  <r_lp_Energy>  (270) 
6.20262

>  <b_lp_Chiralities_Consistent>  (270) 
1

>  <s_lp_Variant>  (270) 
85:0-1

>  <s_i_glide_gridfile>  (270) 
pfpi4k_grid

>  <i_i_glide_lignum>  (270) 
8

>  <i_i_glide_rotatable_bonds>  (270) 
1

>  <r_i_docking_score>  (270) 
-4.2088

>  <r_i_glide_ligand_efficiency>  (270) 
-0.323753

>  <r_i_glide_ligand_efficiency_sa>  (270) 
-0.761253

>  <r_i_glide_ligand_efficiency_ln>  (270) 
-1.1806

>  <r_i_glide_gscore>  (270) 
-4.2088

>  <r_i_glide_lipo>  (270) 
-0.444764

>  <r_i_glide_hbond>  (270) 
-0.133609

>  <r_i_glide_metal>  (270) 
-0

>  <r_i_glide_rewards>  (270) 
-2.17986

>  <r_i_glide_evdw>  (270) 
-19.8256

>  <r_i_glide_ecoul>  (270) 
-3.06185

>  <r_i_glide_erotb>  (270) 
0

>  <r_i_glide_esite>  (270) 
0

>  <r_i_glide_emodel>  (270) 
-28.8928

>  <r_i_glide_energy>  (270) 
-22.8875

>  <r_i_glide_einternal>  (270) 
0.323852

>  <r_i_glide_intrahb_reward>  (270) 
-0

>  <i_i_glide_confnum>  (270) 
2

>  <i_i_glide_posenum>  (270) 
29

>  <r_i_glide_eff_state_penalty>  (270) 
0

>  <ligand_id>  (270) 
85

>  <original_smiles>  (270) 
CC12CC3CC(C1)C(O)C(C)(C3)C2

>  <smiles>  (270) 
[H]OC1([H])C2([H])C([H])([H])C3([H])C([H])([H])C(C([H])([H])[H])(C2([H])[H])C([H])([H])C1(C([H])([H])[H])C3([H])[H]

$$$$
85:0:1
     RDKit          3D

 33 35  0  0  1  0  0  0  0  0999 V2000
    2.9254   -5.0438    0.8114 C   0  0  0  0  0  0  0  0  0  0  0  0
    3.7835   -3.9396    0.1639 C   0  0  1  0  0  0  0  0  0  0  0  0
    4.0699   -2.8001    1.1688 C   0  0  0  0  0  0  0  0  0  0  0  0
    4.9284   -1.7050    0.5021 C   0  0  1  0  0  0  0  0  0  0  0  0
    6.2661   -2.3001    0.0332 C   0  0  0  0  0  0  0  0  0  0  0  0
    5.9866   -3.4279   -0.9853 C   0  0  1  0  0  0  0  0  0  0  0  0
    5.1405   -4.5249   -0.3024 C   0  0  0  0  0  0  0  0  0  0  0  0
    5.2337   -2.8464   -2.2056 C   0  0  1  0  0  0  0  0  0  0  0  0
    5.0267   -3.8432   -3.1939 O   0  0  0  0  0  0  0  0  0  0  0  0
    3.8842   -2.2363   -1.7505 C   0  0  2  0  0  0  0  0  0  0  0  0
    3.1311   -1.6371   -2.9562 C   0  0  0  0  0  0  0  0  0  0  0  0
    4.1777   -1.1242   -0.7069 C   0  0  0  0  0  0  0  0  0  0  0  0
    3.0388   -3.3331   -1.0509 C   0  0  0  0  0  0  0  0  0  0  0  0
    1.9615   -4.6583    1.1358 H   0  0  0  0  0  0  0  0  0  0  0  0
    3.4101   -5.4830    1.6835 H   0  0  0  0  0  0  0  0  0  0  0  0
    2.7283   -5.8539    0.1074 H   0  0  0  0  0  0  0  0  0  0  0  0
    3.1334   -2.3601    1.5157 H   0  0  0  0  0  0  0  0  0  0  0  0
    4.5815   -3.1906    2.0524 H   0  0  0  0  0  0  0  0  0  0  0  0
    5.1197   -0.9083    1.2227 H   0  0  0  0  0  0  0  0  0  0  0  0
    6.8786   -1.5197   -0.4180 H   0  0  0  0  0  0  0  0  0  0  0  0
    6.8285   -2.6820    0.8871 H   0  0  0  0  0  0  0  0  0  0  0  0
    6.9382   -3.8493   -1.3089 H   0  0  0  0  0  0  0  0  0  0  0  0
    5.6908   -4.9396    0.5460 H   0  0  0  0  0  0  0  0  0  0  0  0
    4.9799   -5.3608   -0.9876 H   0  0  0  0  0  0  0  0  0  0  0  0
    5.8405   -2.0654   -2.6631 H   0  0  0  0  0  0  0  0  0  0  0  0
    4.4601   -4.5090   -2.8312 H   0  0  0  0  0  0  0  0  0  0  0  0
    2.2231   -1.1438   -2.6330 H   0  0  0  0  0  0  0  0  0  0  0  0
    2.8413   -2.3971   -3.6829 H   0  0  0  0  0  0  0  0  0  0  0  0
    3.7297   -0.8926   -3.4821 H   0  0  0  0  0  0  0  0  0  0  0  0
    3.2412   -0.6833   -0.3594 H   0  0  0  0  0  0  0  0  0  0  0  0
    4.7520   -0.3111   -1.1528 H   0  0  0  0  0  0  0  0  0  0  0  0
    2.7745   -4.1178   -1.7575 H   0  0  0  0  0  0  0  0  0  0  0  0
    2.0873   -2.9139   -0.7242 H   0  0  0  0  0  0  0  0  0  0  0  0
  2  1  1  1
  1 14  1  0
  1 15  1  0
  1 16  1  0
  2  7  1  0
  2 13  1  0
  2  3  1  0
  3  4  1  0
  3 17  1  0
  3 18  1  0
  4 12  1  0
  4  5  1  0
  4 19  1  1
  5  6  1  0
  5 20  1  0
  5 21  1  0
  6  7  1  0
  6  8  1  0
  6 22  1  6
  7 23  1  0
  7 24  1  0
  8  9  1  0
  8 10  1  0
  8 25  1  6
  9 26  1  0
 10 11  1  6
 10 12  1  0
 10 13  1  0
 11 27  1  0
 11 28  1  0
 11 29  1  0
 12 30  1  0
 12 31  1  0
 13 32  1  0
 13 33  1  0
M  END
>  <i_m_ct_stereo_status>  (271) 
1

>  <s_m_source_file>  (271) 
/var/tmp/pbs.5076255.sched01/tmp2gjrvvgn/102_qij5c5l.sdf

>  <i_m_source_file_index>  (271) 
8

>  <i_lp_mmshare_version>  (271) 
48012

>  <i_f3d_flags>  (271) 
0

>  <s_epik_input>  (271) 
W0NIM11bQ0BAXTEyW0NIMl1bQ0BIXTNbQ0gyXVtDQEBIXShbQ0gyXTEpW0NAQEhdKFtPSF0pW0NAXShbQ0gzXSkoW0NIMl0zKVtDSDJdMg==

>  <s_epik_cmdline>  (271) 
J2VwaWtfcHl0aG9uJywgJy1waHQnLCAnMi4wJywgJy1waCcsICc3LjAnLCAnLXRuJywgJzgnLCAnLW1hJywgJzIwMCcsICctaW1hZScsICc8aW5maWxlLm1hZT4nLCAnLW9tYWUnLCAnPG91dGZpbGUubWFlPic=

>  <r_lp_tautomer_probability>  (271) 
1

>  <r_epik_Ionization_Penalty>  (271) 
2.42241e-06

>  <r_epik_Ionization_Penalty_Charging>  (271) 
0

>  <r_epik_Ionization_Penalty_Neutral>  (271) 
2.42241e-06

>  <r_epik_State_Penalty>  (271) 
-0

>  <r_epik_Charging_Adjusted_Penalty>  (271) 
0

>  <i_epik_Tot_Q>  (271) 
0

>  <i_epik_Tot_abs_Q>  (271) 
0

>  <s_lp_Force_Field>  (271) 
OPLS3e

>  <r_lp_Energy>  (271) 
6.20262

>  <b_lp_Chiralities_Consistent>  (271) 
1

>  <s_lp_Variant>  (271) 
85:0-1

>  <s_i_glide_gridfile>  (271) 
pfpi4k_grid

>  <i_i_glide_lignum>  (271) 
8

>  <i_i_glide_rotatable_bonds>  (271) 
1

>  <r_i_docking_score>  (271) 
-4.13732

>  <r_i_glide_ligand_efficiency>  (271) 
-0.318256

>  <r_i_glide_ligand_efficiency_sa>  (271) 
-0.748325

>  <r_i_glide_ligand_efficiency_ln>  (271) 
-1.16056

>  <r_i_glide_gscore>  (271) 
-4.13732

>  <r_i_glide_lipo>  (271) 
-0.395419

>  <r_i_glide_hbond>  (271) 
-0.19781

>  <r_i_glide_metal>  (271) 
-0

>  <r_i_glide_rewards>  (271) 
-2.17986

>  <r_i_glide_evdw>  (271) 
-19.1892

>  <r_i_glide_ecoul>  (271) 
-2.69846

>  <r_i_glide_erotb>  (271) 
0

>  <r_i_glide_esite>  (271) 
0

>  <r_i_glide_emodel>  (271) 
-27.912

>  <r_i_glide_energy>  (271) 
-21.8877

>  <r_i_glide_einternal>  (271) 
0.00360555

>  <r_i_glide_intrahb_reward>  (271) 
-0

>  <i_i_glide_confnum>  (271) 
2

>  <i_i_glide_posenum>  (271) 
24

>  <r_i_glide_eff_state_penalty>  (271) 
0

>  <ligand_id>  (271) 
85

>  <original_smiles>  (271) 
CC12CC3CC(C1)C(O)C(C)(C3)C2

>  <smiles>  (271) 
[H]OC1([H])C2([H])C([H])([H])C3([H])C([H])([H])C(C([H])([H])[H])(C2([H])[H])C([H])([H])C1(C([H])([H])[H])C3([H])[H]

$$$$
85:0:2
     RDKit          3D

 33 35  0  0  1  0  0  0  0  0999 V2000
    4.0355   -0.2844    1.2126 C   0  0  0  0  0  0  0  0  0  0  0  0
    4.3609   -1.4698    0.2927 C   0  0  1  0  0  0  0  0  0  0  0  0
    5.8325   -1.9126    0.4596 C   0  0  0  0  0  0  0  0  0  0  0  0
    6.1342   -3.1002   -0.4819 C   0  0  1  0  0  0  0  0  0  0  0  0
    5.2062   -4.2846   -0.1490 C   0  0  0  0  0  0  0  0  0  0  0  0
    3.7375   -3.8414   -0.3182 C   0  0  1  0  0  0  0  0  0  0  0  0
    3.4442   -2.6655    0.6375 C   0  0  0  0  0  0  0  0  0  0  0  0
    3.5098   -3.4003   -1.7832 C   0  0  1  0  0  0  0  0  0  0  0  0
    2.1460   -3.0739   -1.9962 O   0  0  0  0  0  0  0  0  0  0  0  0
    4.4356   -2.2188   -2.1477 C   0  0  2  0  0  0  0  0  0  0  0  0
    4.2117   -1.7940   -3.6108 C   0  0  0  0  0  0  0  0  0  0  0  0
    5.9041   -2.6690   -1.9426 C   0  0  0  0  0  0  0  0  0  0  0  0
    4.1416   -1.0555   -1.1806 C   0  0  0  0  0  0  0  0  0  0  0  0
    4.6542    0.5737    0.9649 H   0  0  0  0  0  0  0  0  0  0  0  0
    4.1992   -0.5221    2.2635 H   0  0  0  0  0  0  0  0  0  0  0  0
    2.9944    0.0259    1.1067 H   0  0  0  0  0  0  0  0  0  0  0  0
    6.5023   -1.0818    0.2327 H   0  0  0  0  0  0  0  0  0  0  0  0
    6.0311   -2.1954    1.4957 H   0  0  0  0  0  0  0  0  0  0  0  0
    7.1737   -3.4084   -0.3523 H   0  0  0  0  0  0  0  0  0  0  0  0
    5.4136   -5.1291   -0.8092 H   0  0  0  0  0  0  0  0  0  0  0  0
    5.3883   -4.6369    0.8679 H   0  0  0  0  0  0  0  0  0  0  0  0
    3.0857   -4.6901   -0.0860 H   0  0  0  0  0  0  0  0  0  0  0  0
    3.5948   -2.9883    1.6710 H   0  0  0  0  0  0  0  0  0  0  0  0
    2.3926   -2.3785    0.5616 H   0  0  0  0  0  0  0  0  0  0  0  0
    3.7708   -4.2343   -2.4352 H   0  0  0  0  0  0  0  0  0  0  0  0
    1.9239   -2.2692   -1.5310 H   0  0  0  0  0  0  0  0  0  0  0  0
    4.8871   -0.9951   -3.8998 H   0  0  0  0  0  0  0  0  0  0  0  0
    3.1993   -1.4282   -3.7786 H   0  0  0  0  0  0  0  0  0  0  0  0
    4.3705   -2.6243   -4.2959 H   0  0  0  0  0  0  0  0  0  0  0  0
    6.5874   -1.8590   -2.1905 H   0  0  0  0  0  0  0  0  0  0  0  0
    6.1522   -3.4952   -2.6134 H   0  0  0  0  0  0  0  0  0  0  0  0
    3.1166   -0.7061   -1.3193 H   0  0  0  0  0  0  0  0  0  0  0  0
    4.7845   -0.2176   -1.4376 H   0  0  0  0  0  0  0  0  0  0  0  0
  2  1  1  1
  1 14  1  0
  1 15  1  0
  1 16  1  0
  2  7  1  0
  2 13  1  0
  2  3  1  0
  3  4  1  0
  3 17  1  0
  3 18  1  0
  4 12  1  0
  4  5  1  0
  4 19  1  6
  5  6  1  0
  5 20  1  0
  5 21  1  0
  6  7  1  0
  6  8  1  0
  6 22  1  1
  7 23  1  0
  7 24  1  0
  8  9  1  0
  8 10  1  0
  8 25  1  6
  9 26  1  0
 10 11  1  6
 10 12  1  0
 10 13  1  0
 11 27  1  0
 11 28  1  0
 11 29  1  0
 12 30  1  0
 12 31  1  0
 13 32  1  0
 13 33  1  0
M  END
>  <i_m_ct_stereo_status>  (272) 
1

>  <s_m_source_file>  (272) 
/var/tmp/pbs.5076255.sched01/tmp2gjrvvgn/102_qij5c5l.sdf

>  <i_m_source_file_index>  (272) 
8

>  <i_lp_mmshare_version>  (272) 
48012

>  <i_f3d_flags>  (272) 
0

>  <s_epik_input>  (272) 
W0NIM11bQ0BAXTEyW0NIMl1bQ0BIXTNbQ0gyXVtDQEBIXShbQ0gyXTEpW0NAQEhdKFtPSF0pW0NAXShbQ0gzXSkoW0NIMl0zKVtDSDJdMg==

>  <s_epik_cmdline>  (272) 
J2VwaWtfcHl0aG9uJywgJy1waHQnLCAnMi4wJywgJy1waCcsICc3LjAnLCAnLXRuJywgJzgnLCAnLW1hJywgJzIwMCcsICctaW1hZScsICc8aW5maWxlLm1hZT4nLCAnLW9tYWUnLCAnPG91dGZpbGUubWFlPic=

>  <r_lp_tautomer_probability>  (272) 
1

>  <r_epik_Ionization_Penalty>  (272) 
2.42241e-06

>  <r_epik_Ionization_Penalty_Charging>  (272) 
0

>  <r_epik_Ionization_Penalty_Neutral>  (272) 
2.42241e-06

>  <r_epik_State_Penalty>  (272) 
-0

>  <r_epik_Charging_Adjusted_Penalty>  (272) 
0

>  <i_epik_Tot_Q>  (272) 
0

>  <i_epik_Tot_abs_Q>  (272) 
0

>  <s_lp_Force_Field>  (272) 
OPLS3e

>  <r_lp_Energy>  (272) 
6.20262

>  <b_lp_Chiralities_Consistent>  (272) 
1

>  <s_lp_Variant>  (272) 
85:0-1

>  <s_i_glide_gridfile>  (272) 
pfpi4k_grid

>  <i_i_glide_lignum>  (272) 
8

>  <i_i_glide_rotatable_bonds>  (272) 
1

>  <r_i_docking_score>  (272) 
-4.01192

>  <r_i_glide_ligand_efficiency>  (272) 
-0.308609

>  <r_i_glide_ligand_efficiency_sa>  (272) 
-0.725643

>  <r_i_glide_ligand_efficiency_ln>  (272) 
-1.12538

>  <r_i_glide_gscore>  (272) 
-4.01192

>  <r_i_glide_lipo>  (272) 
-0.49414

>  <r_i_glide_hbond>  (272) 
-0.16

>  <r_i_glide_metal>  (272) 
-0

>  <r_i_glide_rewards>  (272) 
-2.17986

>  <r_i_glide_evdw>  (272) 
-19.0035

>  <r_i_glide_ecoul>  (272) 
-1.51827

>  <r_i_glide_erotb>  (272) 
0

>  <r_i_glide_esite>  (272) 
0

>  <r_i_glide_emodel>  (272) 
-26.3011

>  <r_i_glide_energy>  (272) 
-20.5217

>  <r_i_glide_einternal>  (272) 
0.0829388

>  <r_i_glide_intrahb_reward>  (272) 
-0

>  <i_i_glide_confnum>  (272) 
1

>  <i_i_glide_posenum>  (272) 
9

>  <r_i_glide_eff_state_penalty>  (272) 
0

>  <ligand_id>  (272) 
85

>  <original_smiles>  (272) 
CC12CC3CC(C1)C(O)C(C)(C3)C2

>  <smiles>  (272) 
[H]OC1([H])C2([H])C([H])([H])C3([H])C([H])([H])C(C([H])([H])[H])(C2([H])[H])C([H])([H])C1(C([H])([H])[H])C3([H])[H]

$$$$
86:0:0
     RDKit          3D

 24 25  0  0  1  0  0  0  0  0999 V2000
   -2.0009    3.7374    7.5129 C   0  0  0  0  0  0  0  0  0  0  0  0
   -2.7617    3.0355    6.3798 C   0  0  0  0  0  0  0  0  0  0  0  0
   -1.8570    2.4298    5.3942 N   0  0  0  0  0  0  0  0  0  0  0  0
   -1.4484    3.0771    4.2963 C   0  0  0  0  0  0  0  0  0  0  0  0
   -1.7711    4.2336    4.0076 O   0  0  0  0  0  0  0  0  0  0  0  0
   -0.4071    2.1434    3.2772 S   0  0  0  0  0  0  0  0  0  0  0  0
   -0.5283    0.7875    4.4062 C   0  0  0  0  0  0  0  0  0  0  0  0
    0.0698   -0.4181    4.3093 C   0  0  0  0  0  0  0  0  0  0  0  0
    0.9284   -0.9411    3.2960 C   0  0  0  0  0  0  0  0  0  0  0  0
    1.3513   -0.4797    2.0793 C   0  0  0  0  0  0  0  0  0  0  0  0
    2.2247   -1.4665    1.5522 C   0  0  0  0  0  0  0  0  0  0  0  0
    2.2788   -2.4619    2.4833 C   0  0  0  0  0  0  0  0  0  0  0  0
    1.4888   -2.1580    3.5518 O   0  0  0  0  0  0  0  0  0  0  0  0
   -1.3942    1.1668    5.5235 C   0  0  0  0  0  0  0  0  0  0  0  0
   -1.6952    0.4337    6.4727 O   0  0  0  0  0  0  0  0  0  0  0  0
   -2.6975    4.1690    8.2327 H   0  0  0  0  0  0  0  0  0  0  0  0
   -1.3681    4.5391    7.1357 H   0  0  0  0  0  0  0  0  0  0  0  0
   -1.3648    3.0343    8.0511 H   0  0  0  0  0  0  0  0  0  0  0  0
   -3.4226    2.2812    6.8083 H   0  0  0  0  0  0  0  0  0  0  0  0
   -3.4232    3.7451    5.8850 H   0  0  0  0  0  0  0  0  0  0  0  0
   -0.1308   -1.1182    5.1060 H   0  0  0  0  0  0  0  0  0  0  0  0
    1.0612    0.4488    1.6126 H   0  0  0  0  0  0  0  0  0  0  0  0
    2.7344   -1.4447    0.6003 H   0  0  0  0  0  0  0  0  0  0  0  0
    2.7982   -3.4099    2.5338 H   0  0  0  0  0  0  0  0  0  0  0  0
  1  2  1  0
  1 16  1  0
  1 17  1  0
  1 18  1  0
  2  3  1  0
  2 19  1  0
  2 20  1  0
  3 14  1  0
  3  4  1  0
  4  5  2  0
  4  6  1  0
  6  7  1  0
  7  8  2  3
  7 14  1  0
  8  9  1  0
  8 21  1  0
  9 13  1  0
  9 10  2  0
 10 11  1  0
 10 22  1  0
 11 12  2  0
 11 23  1  0
 12 13  1  0
 12 24  1  0
 14 15  2  0
M  END
>  <i_m_ct_stereo_status>  (273) 
1

>  <s_m_source_file>  (273) 
/var/tmp/pbs.5076255.sched01/tmp2gjrvvgn/102_qij5c5l.sdf

>  <i_m_source_file_index>  (273) 
9

>  <i_lp_mmshare_version>  (273) 
48012

>  <i_f3d_flags>  (273) 
0

>  <s_epik_input>  (273) 
W0NIM11bQ0gyXU4xQyg9TylTL0MoQzE9Tyk9W0NIXVxjMltjSF1bY0hdW2NIXW8y

>  <s_epik_cmdline>  (273) 
J2VwaWtfcHl0aG9uJywgJy1waHQnLCAnMi4wJywgJy1waCcsICc3LjAnLCAnLXRuJywgJzgnLCAnLW1hJywgJzIwMCcsICctaW1hZScsICc8aW5maWxlLm1hZT4nLCAnLW9tYWUnLCAnPG91dGZpbGUubWFlPic=

>  <r_lp_tautomer_probability>  (273) 
1

>  <r_epik_Ionization_Penalty>  (273) 
1.31558e-16

>  <r_epik_Ionization_Penalty_Charging>  (273) 
0

>  <r_epik_Ionization_Penalty_Neutral>  (273) 
1.31558e-16

>  <r_epik_State_Penalty>  (273) 
-0

>  <r_epik_Charging_Adjusted_Penalty>  (273) 
0

>  <i_epik_Tot_Q>  (273) 
0

>  <i_epik_Tot_abs_Q>  (273) 
0

>  <s_lp_Force_Field>  (273) 
OPLS3e

>  <r_lp_Energy>  (273) 
5.50549

>  <b_lp_Chiralities_Consistent>  (273) 
1

>  <s_lp_Variant>  (273) 
86:0-1

>  <s_i_glide_gridfile>  (273) 
pfpi4k_grid

>  <i_i_glide_lignum>  (273) 
9

>  <i_i_glide_rotatable_bonds>  (273) 
2

>  <r_i_docking_score>  (273) 
-4.06795

>  <r_i_glide_ligand_efficiency>  (273) 
-0.271197

>  <r_i_glide_ligand_efficiency_sa>  (273) 
-0.668829

>  <r_i_glide_ligand_efficiency_ln>  (273) 
-1.09706

>  <r_i_glide_gscore>  (273) 
-4.06795

>  <r_i_glide_lipo>  (273) 
-0.211711

>  <r_i_glide_hbond>  (273) 
-0.24236

>  <r_i_glide_metal>  (273) 
-0

>  <r_i_glide_rewards>  (273) 
-1.9267

>  <r_i_glide_evdw>  (273) 
-17.2281

>  <r_i_glide_ecoul>  (273) 
-5.09733

>  <r_i_glide_erotb>  (273) 
0

>  <r_i_glide_esite>  (273) 
-0.0611804

>  <r_i_glide_emodel>  (273) 
-28.8698

>  <r_i_glide_energy>  (273) 
-22.3254

>  <r_i_glide_einternal>  (273) 
0.0794069

>  <r_i_glide_intrahb_reward>  (273) 
-0

>  <i_i_glide_confnum>  (273) 
2

>  <i_i_glide_posenum>  (273) 
21

>  <r_i_glide_eff_state_penalty>  (273) 
0

>  <ligand_id>  (273) 
86

>  <original_smiles>  (273) 
CCN1C(=O)SC(=Cc2ccco2)C1=O

>  <smiles>  (273) 
[H]C(=C1SC(=O)N(C([H])([H])C([H])([H])[H])C1=O)c1oc([H])c([H])c1[H]

$$$$
86:0:1
     RDKit          3D

 24 25  0  0  1  0  0  0  0  0999 V2000
    3.6376    0.0556   -3.4964 C   0  0  0  0  0  0  0  0  0  0  0  0
    4.0054   -1.4058   -3.7932 C   0  0  0  0  0  0  0  0  0  0  0  0
    3.8920   -2.2628   -2.5985 N   0  0  0  0  0  0  0  0  0  0  0  0
    4.8508   -2.3640   -1.6703 C   0  0  0  0  0  0  0  0  0  0  0  0
    5.9194   -1.7559   -1.7035 O   0  0  0  0  0  0  0  0  0  0  0  0
    4.4841   -3.4485   -0.3748 S   0  0  0  0  0  0  0  0  0  0  0  0
    2.9237   -3.7901   -1.1195 C   0  0  0  0  0  0  0  0  0  0  0  0
    1.9772   -4.6380   -0.6789 C   0  0  0  0  0  0  0  0  0  0  0  0
    1.9515   -5.4638    0.4850 C   0  0  0  0  0  0  0  0  0  0  0  0
    2.8025   -5.6394    1.5396 C   0  0  0  0  0  0  0  0  0  0  0  0
    2.1957   -6.5937    2.4001 C   0  0  0  0  0  0  0  0  0  0  0  0
    1.0144   -6.9372    1.8088 C   0  0  0  0  0  0  0  0  0  0  0  0
    0.8487   -6.2574    0.6430 O   0  0  0  0  0  0  0  0  0  0  0  0
    2.8031   -3.0230   -2.3623 C   0  0  0  0  0  0  0  0  0  0  0  0
    1.8335   -3.0498   -3.1232 O   0  0  0  0  0  0  0  0  0  0  0  0
    3.7167    0.6717   -4.3943 H   0  0  0  0  0  0  0  0  0  0  0  0
    4.2843    0.4911   -2.7327 H   0  0  0  0  0  0  0  0  0  0  0  0
    2.6122    0.1313   -3.1330 H   0  0  0  0  0  0  0  0  0  0  0  0
    3.3716   -1.7704   -4.6067 H   0  0  0  0  0  0  0  0  0  0  0  0
    5.0137   -1.4508   -4.1936 H   0  0  0  0  0  0  0  0  0  0  0  0
    1.1020   -4.7230   -1.2997 H   0  0  0  0  0  0  0  0  0  0  0  0
    3.7460   -5.1365    1.6814 H   0  0  0  0  0  0  0  0  0  0  0  0
    2.5815   -6.9814    3.3326 H   0  0  0  0  0  0  0  0  0  0  0  0
    0.2201   -7.6231    2.0761 H   0  0  0  0  0  0  0  0  0  0  0  0
  1  2  1  0
  1 16  1  0
  1 17  1  0
  1 18  1  0
  2  3  1  0
  2 19  1  0
  2 20  1  0
  3 14  1  0
  3  4  1  0
  4  5  2  0
  4  6  1  0
  6  7  1  0
  7  8  2  3
  7 14  1  0
  8  9  1  0
  8 21  1  0
  9 13  1  0
  9 10  2  0
 10 11  1  0
 10 22  1  0
 11 12  2  0
 11 23  1  0
 12 13  1  0
 12 24  1  0
 14 15  2  0
M  END
>  <i_m_ct_stereo_status>  (274) 
1

>  <s_m_source_file>  (274) 
/var/tmp/pbs.5076255.sched01/tmp2gjrvvgn/102_qij5c5l.sdf

>  <i_m_source_file_index>  (274) 
9

>  <i_lp_mmshare_version>  (274) 
48012

>  <i_f3d_flags>  (274) 
0

>  <s_epik_input>  (274) 
W0NIM11bQ0gyXU4xQyg9TylTL0MoQzE9Tyk9W0NIXVxjMltjSF1bY0hdW2NIXW8y

>  <s_epik_cmdline>  (274) 
J2VwaWtfcHl0aG9uJywgJy1waHQnLCAnMi4wJywgJy1waCcsICc3LjAnLCAnLXRuJywgJzgnLCAnLW1hJywgJzIwMCcsICctaW1hZScsICc8aW5maWxlLm1hZT4nLCAnLW9tYWUnLCAnPG91dGZpbGUubWFlPic=

>  <r_lp_tautomer_probability>  (274) 
1

>  <r_epik_Ionization_Penalty>  (274) 
1.31558e-16

>  <r_epik_Ionization_Penalty_Charging>  (274) 
0

>  <r_epik_Ionization_Penalty_Neutral>  (274) 
1.31558e-16

>  <r_epik_State_Penalty>  (274) 
-0

>  <r_epik_Charging_Adjusted_Penalty>  (274) 
0

>  <i_epik_Tot_Q>  (274) 
0

>  <i_epik_Tot_abs_Q>  (274) 
0

>  <s_lp_Force_Field>  (274) 
OPLS3e

>  <r_lp_Energy>  (274) 
5.50549

>  <b_lp_Chiralities_Consistent>  (274) 
1

>  <s_lp_Variant>  (274) 
86:0-1

>  <s_i_glide_gridfile>  (274) 
pfpi4k_grid

>  <i_i_glide_lignum>  (274) 
9

>  <i_i_glide_rotatable_bonds>  (274) 
2

>  <r_i_docking_score>  (274) 
-3.94643

>  <r_i_glide_ligand_efficiency>  (274) 
-0.263095

>  <r_i_glide_ligand_efficiency_sa>  (274) 
-0.648849

>  <r_i_glide_ligand_efficiency_ln>  (274) 
-1.06429

>  <r_i_glide_gscore>  (274) 
-3.94643

>  <r_i_glide_lipo>  (274) 
-0.230446

>  <r_i_glide_hbond>  (274) 
-0.241176

>  <r_i_glide_metal>  (274) 
-0

>  <r_i_glide_rewards>  (274) 
-1.93658

>  <r_i_glide_evdw>  (274) 
-22.0944

>  <r_i_glide_ecoul>  (274) 
-2.68194

>  <r_i_glide_erotb>  (274) 
0

>  <r_i_glide_esite>  (274) 
-0.031215

>  <r_i_glide_emodel>  (274) 
-31.1009

>  <r_i_glide_energy>  (274) 
-24.7764

>  <r_i_glide_einternal>  (274) 
0.108813

>  <r_i_glide_intrahb_reward>  (274) 
-0

>  <i_i_glide_confnum>  (274) 
1

>  <i_i_glide_posenum>  (274) 
3

>  <r_i_glide_eff_state_penalty>  (274) 
0

>  <ligand_id>  (274) 
86

>  <original_smiles>  (274) 
CCN1C(=O)SC(=Cc2ccco2)C1=O

>  <smiles>  (274) 
[H]C(=C1SC(=O)N(C([H])([H])C([H])([H])[H])C1=O)c1oc([H])c([H])c1[H]

$$$$
86:0:2
     RDKit          3D

 24 25  0  0  1  0  0  0  0  0999 V2000
    6.9810   -5.1289    0.8622 C   0  0  0  0  0  0  0  0  0  0  0  0
    6.0274   -4.0319    1.3594 C   0  0  0  0  0  0  0  0  0  0  0  0
    5.1898   -3.4993    0.2697 N   0  0  0  0  0  0  0  0  0  0  0  0
    3.9850   -3.9965   -0.0269 C   0  0  0  0  0  0  0  0  0  0  0  0
    3.4549   -4.9402    0.5539 O   0  0  0  0  0  0  0  0  0  0  0  0
    3.1750   -3.1879   -1.3215 S   0  0  0  0  0  0  0  0  0  0  0  0
    4.5524   -2.1073   -1.4990 C   0  0  0  0  0  0  0  0  0  0  0  0
    4.6846   -1.0970   -2.3766 C   0  0  0  0  0  0  0  0  0  0  0  0
    3.8046   -0.6537   -3.4072 C   0  0  0  0  0  0  0  0  0  0  0  0
    2.6241   -1.1161   -3.9147 C   0  0  0  0  0  0  0  0  0  0  0  0
    2.2386   -0.2087   -4.9339 C   0  0  0  0  0  0  0  0  0  0  0  0
    3.2236    0.7298   -5.0069 C   0  0  0  0  0  0  0  0  0  0  0  0
    4.1485    0.4958   -4.0500 O   0  0  0  0  0  0  0  0  0  0  0  0
    5.5743   -2.4549   -0.5038 C   0  0  0  0  0  0  0  0  0  0  0  0
    6.6535   -1.8708   -0.3797 O   0  0  0  0  0  0  0  0  0  0  0  0
    7.5998   -5.4996    1.6806 H   0  0  0  0  0  0  0  0  0  0  0  0
    7.6490   -4.7547    0.0851 H   0  0  0  0  0  0  0  0  0  0  0  0
    6.4325   -5.9772    0.4507 H   0  0  0  0  0  0  0  0  0  0  0  0
    5.4084   -4.4254    2.1676 H   0  0  0  0  0  0  0  0  0  0  0  0
    6.6075   -3.2258    1.8125 H   0  0  0  0  0  0  0  0  0  0  0  0
    5.6017   -0.5406   -2.3189 H   0  0  0  0  0  0  0  0  0  0  0  0
    2.0956   -1.9900   -3.5729 H   0  0  0  0  0  0  0  0  0  0  0  0
    1.3384   -0.2429   -5.5208 H   0  0  0  0  0  0  0  0  0  0  0  0
    3.3806    1.6183   -5.6021 H   0  0  0  0  0  0  0  0  0  0  0  0
  1  2  1  0
  1 16  1  0
  1 17  1  0
  1 18  1  0
  2  3  1  0
  2 19  1  0
  2 20  1  0
  3 14  1  0
  3  4  1  0
  4  5  2  0
  4  6  1  0
  6  7  1  0
  7  8  2  3
  7 14  1  0
  8  9  1  0
  8 21  1  0
  9 13  1  0
  9 10  2  0
 10 11  1  0
 10 22  1  0
 11 12  2  0
 11 23  1  0
 12 13  1  0
 12 24  1  0
 14 15  2  0
M  END
>  <i_m_ct_stereo_status>  (275) 
1

>  <s_m_source_file>  (275) 
/var/tmp/pbs.5076255.sched01/tmp2gjrvvgn/102_qij5c5l.sdf

>  <i_m_source_file_index>  (275) 
9

>  <i_lp_mmshare_version>  (275) 
48012

>  <i_f3d_flags>  (275) 
0

>  <s_epik_input>  (275) 
W0NIM11bQ0gyXU4xQyg9TylTL0MoQzE9Tyk9W0NIXVxjMltjSF1bY0hdW2NIXW8y

>  <s_epik_cmdline>  (275) 
J2VwaWtfcHl0aG9uJywgJy1waHQnLCAnMi4wJywgJy1waCcsICc3LjAnLCAnLXRuJywgJzgnLCAnLW1hJywgJzIwMCcsICctaW1hZScsICc8aW5maWxlLm1hZT4nLCAnLW9tYWUnLCAnPG91dGZpbGUubWFlPic=

>  <r_lp_tautomer_probability>  (275) 
1

>  <r_epik_Ionization_Penalty>  (275) 
1.31558e-16

>  <r_epik_Ionization_Penalty_Charging>  (275) 
0

>  <r_epik_Ionization_Penalty_Neutral>  (275) 
1.31558e-16

>  <r_epik_State_Penalty>  (275) 
-0

>  <r_epik_Charging_Adjusted_Penalty>  (275) 
0

>  <i_epik_Tot_Q>  (275) 
0

>  <i_epik_Tot_abs_Q>  (275) 
0

>  <s_lp_Force_Field>  (275) 
OPLS3e

>  <r_lp_Energy>  (275) 
5.50549

>  <b_lp_Chiralities_Consistent>  (275) 
1

>  <s_lp_Variant>  (275) 
86:0-1

>  <s_i_glide_gridfile>  (275) 
pfpi4k_grid

>  <i_i_glide_lignum>  (275) 
9

>  <i_i_glide_rotatable_bonds>  (275) 
2

>  <r_i_docking_score>  (275) 
-3.8836

>  <r_i_glide_ligand_efficiency>  (275) 
-0.258906

>  <r_i_glide_ligand_efficiency_sa>  (275) 
-0.638518

>  <r_i_glide_ligand_efficiency_ln>  (275) 
-1.04734

>  <r_i_glide_gscore>  (275) 
-3.8836

>  <r_i_glide_lipo>  (275) 
-0.546896

>  <r_i_glide_hbond>  (275) 
-0.11501

>  <r_i_glide_metal>  (275) 
-0

>  <r_i_glide_rewards>  (275) 
-1.94355

>  <r_i_glide_evdw>  (275) 
-20.5576

>  <r_i_glide_ecoul>  (275) 
-1.5736

>  <r_i_glide_erotb>  (275) 
0

>  <r_i_glide_esite>  (275) 
-0.014218

>  <r_i_glide_emodel>  (275) 
-28.3852

>  <r_i_glide_energy>  (275) 
-22.1312

>  <r_i_glide_einternal>  (275) 
0.0351699

>  <r_i_glide_intrahb_reward>  (275) 
-0

>  <i_i_glide_confnum>  (275) 
1

>  <i_i_glide_posenum>  (275) 
4

>  <r_i_glide_eff_state_penalty>  (275) 
0

>  <ligand_id>  (275) 
86

>  <original_smiles>  (275) 
CCN1C(=O)SC(=Cc2ccco2)C1=O

>  <smiles>  (275) 
[H]C(=C1SC(=O)N(C([H])([H])C([H])([H])[H])C1=O)c1oc([H])c([H])c1[H]

$$$$
86:1:0
     RDKit          3D

 24 25  0  0  1  0  0  0  0  0999 V2000
    8.4278   -3.0460    0.7275 C   0  0  0  0  0  0  0  0  0  0  0  0
    7.8997   -3.8553   -0.4541 C   0  0  0  0  0  0  0  0  0  0  0  0
    6.4230   -3.8380   -0.5037 N   0  0  0  0  0  0  0  0  0  0  0  0
    5.6526   -4.7029    0.1627 C   0  0  0  0  0  0  0  0  0  0  0  0
    6.0852   -5.6116    0.8724 O   0  0  0  0  0  0  0  0  0  0  0  0
    3.9457   -4.4533   -0.0485 S   0  0  0  0  0  0  0  0  0  0  0  0
    4.2892   -3.1247   -1.1557 C   0  0  0  0  0  0  0  0  0  0  0  0
    3.3495   -2.4484   -1.8531 C   0  0  0  0  0  0  0  0  0  0  0  0
    3.4492   -1.3395   -2.7564 C   0  0  0  0  0  0  0  0  0  0  0  0
    4.2282   -0.2146   -2.8105 C   0  0  0  0  0  0  0  0  0  0  0  0
    3.8509    0.4881   -3.9879 C   0  0  0  0  0  0  0  0  0  0  0  0
    2.8974   -0.2732   -4.5849 C   0  0  0  0  0  0  0  0  0  0  0  0
    2.6449   -1.3916   -3.8487 O   0  0  0  0  0  0  0  0  0  0  0  0
    5.7413   -2.9364   -1.2470 C   0  0  0  0  0  0  0  0  0  0  0  0
    6.3160   -2.0755   -1.9148 O   0  0  0  0  0  0  0  0  0  0  0  0
    9.5184   -3.0470    0.7464 H   0  0  0  0  0  0  0  0  0  0  0  0
    8.0643   -3.4774    1.6613 H   0  0  0  0  0  0  0  0  0  0  0  0
    8.0987   -2.0083    0.6734 H   0  0  0  0  0  0  0  0  0  0  0  0
    8.3366   -3.4784   -1.3853 H   0  0  0  0  0  0  0  0  0  0  0  0
    8.2811   -4.8743   -0.3371 H   0  0  0  0  0  0  0  0  0  0  0  0
    2.3253   -2.7447   -1.6679 H   0  0  0  0  0  0  0  0  0  0  0  0
    4.9617    0.0814   -2.0783 H   0  0  0  0  0  0  0  0  0  0  0  0
    4.2171    1.4344   -4.3602 H   0  0  0  0  0  0  0  0  0  0  0  0
    2.3061   -0.1662   -5.4870 H   0  0  0  0  0  0  0  0  0  0  0  0
  1  2  1  0
  1 16  1  0
  1 17  1  0
  1 18  1  0
  2  3  1  0
  2 19  1  0
  2 20  1  0
  3 14  1  0
  3  4  1  0
  4  5  2  0
  4  6  1  0
  6  7  1  0
  7  8  2  3
  7 14  1  0
  8  9  1  0
  8 21  1  0
  9 13  1  0
  9 10  2  0
 10 11  1  0
 10 22  1  0
 11 12  2  0
 11 23  1  0
 12 13  1  0
 12 24  1  0
 14 15  2  0
M  END
>  <i_m_ct_stereo_status>  (276) 
1

>  <s_m_source_file>  (276) 
/var/tmp/pbs.5076255.sched01/tmp2gjrvvgn/102_qij5c5l.sdf

>  <i_m_source_file_index>  (276) 
10

>  <i_lp_mmshare_version>  (276) 
48012

>  <i_f3d_flags>  (276) 
0

>  <s_epik_input>  (276) 
W0NIM11bQ0gyXU4xQyg9TylTL0MoQzE9Tyk9W0NIXVxjMltjSF1bY0hdW2NIXW8y

>  <s_epik_cmdline>  (276) 
J2VwaWtfcHl0aG9uJywgJy1waHQnLCAnMi4wJywgJy1waCcsICc3LjAnLCAnLXRuJywgJzgnLCAnLW1hJywgJzIwMCcsICctaW1hZScsICc8aW5maWxlLm1hZT4nLCAnLW9tYWUnLCAnPG91dGZpbGUubWFlPic=

>  <r_lp_tautomer_probability>  (276) 
1

>  <r_epik_Ionization_Penalty>  (276) 
1.31558e-16

>  <r_epik_Ionization_Penalty_Charging>  (276) 
0

>  <r_epik_Ionization_Penalty_Neutral>  (276) 
1.31558e-16

>  <r_epik_State_Penalty>  (276) 
-0

>  <r_epik_Charging_Adjusted_Penalty>  (276) 
0

>  <i_epik_Tot_Q>  (276) 
0

>  <i_epik_Tot_abs_Q>  (276) 
0

>  <s_lp_Force_Field>  (276) 
OPLS3e

>  <r_lp_Energy>  (276) 
9.046

>  <b_lp_Chiralities_Consistent>  (276) 
1

>  <s_lp_Variant>  (276) 
86:0-2

>  <s_i_glide_gridfile>  (276) 
pfpi4k_grid

>  <i_i_glide_lignum>  (276) 
10

>  <i_i_glide_rotatable_bonds>  (276) 
2

>  <r_i_docking_score>  (276) 
-4.40375

>  <r_i_glide_ligand_efficiency>  (276) 
-0.293583

>  <r_i_glide_ligand_efficiency_sa>  (276) 
-0.724038

>  <r_i_glide_ligand_efficiency_ln>  (276) 
-1.18762

>  <r_i_glide_gscore>  (276) 
-4.40375

>  <r_i_glide_lipo>  (276) 
-0.666738

>  <r_i_glide_hbond>  (276) 
-0.138338

>  <r_i_glide_metal>  (276) 
-0

>  <r_i_glide_rewards>  (276) 
-2.11434

>  <r_i_glide_evdw>  (276) 
-20.3416

>  <r_i_glide_ecoul>  (276) 
-3.11504

>  <r_i_glide_erotb>  (276) 
0

>  <r_i_glide_esite>  (276) 
0

>  <r_i_glide_emodel>  (276) 
-29.2503

>  <r_i_glide_energy>  (276) 
-23.4566

>  <r_i_glide_einternal>  (276) 
3.00788

>  <r_i_glide_intrahb_reward>  (276) 
-0

>  <i_i_glide_confnum>  (276) 
1

>  <i_i_glide_posenum>  (276) 
3

>  <r_i_glide_eff_state_penalty>  (276) 
0

>  <ligand_id>  (276) 
86

>  <original_smiles>  (276) 
CCN1C(=O)SC(=Cc2ccco2)C1=O

>  <smiles>  (276) 
[H]C(=C1SC(=O)N(C([H])([H])C([H])([H])[H])C1=O)c1oc([H])c([H])c1[H]

$$$$
86:1:1
     RDKit          3D

 24 25  0  0  1  0  0  0  0  0999 V2000
   -2.0570    3.5304    7.4936 C   0  0  0  0  0  0  0  0  0  0  0  0
   -2.9087    2.7801    6.4612 C   0  0  0  0  0  0  0  0  0  0  0  0
   -2.0825    2.2430    5.3641 N   0  0  0  0  0  0  0  0  0  0  0  0
   -1.7759    2.9222    4.2489 C   0  0  0  0  0  0  0  0  0  0  0  0
   -2.1255    4.0827    4.0205 O   0  0  0  0  0  0  0  0  0  0  0  0
   -0.8150    2.0168    3.1235 S   0  0  0  0  0  0  0  0  0  0  0  0
   -0.8109    0.6234    4.2166 C   0  0  0  0  0  0  0  0  0  0  0  0
   -0.2125   -0.5566    3.9219 C   0  0  0  0  0  0  0  0  0  0  0  0
   -0.1159   -1.8221    4.6041 C   0  0  0  0  0  0  0  0  0  0  0  0
    0.5397   -2.9877    4.3230 C   0  0  0  0  0  0  0  0  0  0  0  0
    0.2575   -3.8872    5.3969 C   0  0  0  0  0  0  0  0  0  0  0  0
   -0.5544   -3.2031    6.2460 C   0  0  0  0  0  0  0  0  0  0  0  0
   -0.8053   -1.9708    5.7580 O   0  0  0  0  0  0  0  0  0  0  0  0
   -1.5793    0.9871    5.4207 C   0  0  0  0  0  0  0  0  0  0  0  0
   -1.7915    0.2809    6.4099 O   0  0  0  0  0  0  0  0  0  0  0  0
   -2.6725    3.8838    8.3221 H   0  0  0  0  0  0  0  0  0  0  0  0
   -1.5571    4.3814    7.0391 H   0  0  0  0  0  0  0  0  0  0  0  0
   -1.2819    2.8855    7.9118 H   0  0  0  0  0  0  0  0  0  0  0  0
   -3.4280    1.9823    6.9995 H   0  0  0  0  0  0  0  0  0  0  0  0
   -3.7211    3.3905    6.0710 H   0  0  0  0  0  0  0  0  0  0  0  0
    0.2833   -0.5694    2.9655 H   0  0  0  0  0  0  0  0  0  0  0  0
    1.1469   -3.1647    3.4522 H   0  0  0  0  0  0  0  0  0  0  0  0
    0.5886   -4.9019    5.5630 H   0  0  0  0  0  0  0  0  0  0  0  0
   -1.0276   -3.4220    7.1931 H   0  0  0  0  0  0  0  0  0  0  0  0
  1  2  1  0
  1 16  1  0
  1 17  1  0
  1 18  1  0
  2  3  1  0
  2 19  1  0
  2 20  1  0
  3 14  1  0
  3  4  1  0
  4  5  2  0
  4  6  1  0
  6  7  1  0
  7  8  2  3
  7 14  1  0
  8  9  1  0
  8 21  1  0
  9 13  1  0
  9 10  2  0
 10 11  1  0
 10 22  1  0
 11 12  2  0
 11 23  1  0
 12 13  1  0
 12 24  1  0
 14 15  2  0
M  END
>  <i_m_ct_stereo_status>  (277) 
1

>  <s_m_source_file>  (277) 
/var/tmp/pbs.5076255.sched01/tmp2gjrvvgn/102_qij5c5l.sdf

>  <i_m_source_file_index>  (277) 
10

>  <i_lp_mmshare_version>  (277) 
48012

>  <i_f3d_flags>  (277) 
0

>  <s_epik_input>  (277) 
W0NIM11bQ0gyXU4xQyg9TylTL0MoQzE9Tyk9W0NIXVxjMltjSF1bY0hdW2NIXW8y

>  <s_epik_cmdline>  (277) 
J2VwaWtfcHl0aG9uJywgJy1waHQnLCAnMi4wJywgJy1waCcsICc3LjAnLCAnLXRuJywgJzgnLCAnLW1hJywgJzIwMCcsICctaW1hZScsICc8aW5maWxlLm1hZT4nLCAnLW9tYWUnLCAnPG91dGZpbGUubWFlPic=

>  <r_lp_tautomer_probability>  (277) 
1

>  <r_epik_Ionization_Penalty>  (277) 
1.31558e-16

>  <r_epik_Ionization_Penalty_Charging>  (277) 
0

>  <r_epik_Ionization_Penalty_Neutral>  (277) 
1.31558e-16

>  <r_epik_State_Penalty>  (277) 
-0

>  <r_epik_Charging_Adjusted_Penalty>  (277) 
0

>  <i_epik_Tot_Q>  (277) 
0

>  <i_epik_Tot_abs_Q>  (277) 
0

>  <s_lp_Force_Field>  (277) 
OPLS3e

>  <r_lp_Energy>  (277) 
9.046

>  <b_lp_Chiralities_Consistent>  (277) 
1

>  <s_lp_Variant>  (277) 
86:0-2

>  <s_i_glide_gridfile>  (277) 
pfpi4k_grid

>  <i_i_glide_lignum>  (277) 
10

>  <i_i_glide_rotatable_bonds>  (277) 
2

>  <r_i_docking_score>  (277) 
-4.29276

>  <r_i_glide_ligand_efficiency>  (277) 
-0.286184

>  <r_i_glide_ligand_efficiency_sa>  (277) 
-0.705791

>  <r_i_glide_ligand_efficiency_ln>  (277) 
-1.15769

>  <r_i_glide_gscore>  (277) 
-4.29276

>  <r_i_glide_lipo>  (277) 
-0.292462

>  <r_i_glide_hbond>  (277) 
-0.216648

>  <r_i_glide_metal>  (277) 
-0

>  <r_i_glide_rewards>  (277) 
-1.88932

>  <r_i_glide_evdw>  (277) 
-17.2193

>  <r_i_glide_ecoul>  (277) 
-6.46248

>  <r_i_glide_erotb>  (277) 
0

>  <r_i_glide_esite>  (277) 
-0.0640029

>  <r_i_glide_emodel>  (277) 
-30.398

>  <r_i_glide_energy>  (277) 
-23.6818

>  <r_i_glide_einternal>  (277) 
0.175928

>  <r_i_glide_intrahb_reward>  (277) 
-0

>  <i_i_glide_confnum>  (277) 
2

>  <i_i_glide_posenum>  (277) 
31

>  <r_i_glide_eff_state_penalty>  (277) 
0

>  <ligand_id>  (277) 
86

>  <original_smiles>  (277) 
CCN1C(=O)SC(=Cc2ccco2)C1=O

>  <smiles>  (277) 
[H]C(=C1SC(=O)N(C([H])([H])C([H])([H])[H])C1=O)c1oc([H])c([H])c1[H]

$$$$
86:1:2
     RDKit          3D

 24 25  0  0  1  0  0  0  0  0999 V2000
   -3.3311    2.7119    7.0954 C   0  0  0  0  0  0  0  0  0  0  0  0
   -1.9227    3.1592    6.6747 C   0  0  0  0  0  0  0  0  0  0  0  0
   -1.4958    2.4949    5.4252 N   0  0  0  0  0  0  0  0  0  0  0  0
   -1.4476    3.0841    4.2220 C   0  0  0  0  0  0  0  0  0  0  0  0
   -1.7802    4.2486    4.0091 O   0  0  0  0  0  0  0  0  0  0  0  0
   -0.8579    2.0481    2.9573 S   0  0  0  0  0  0  0  0  0  0  0  0
   -0.6779    0.7240    4.1105 C   0  0  0  0  0  0  0  0  0  0  0  0
   -0.2345   -0.5125    3.7665 C   0  0  0  0  0  0  0  0  0  0  0  0
   -0.0745   -1.7466    4.4879 C   0  0  0  0  0  0  0  0  0  0  0  0
    0.5032   -2.9532    4.1771 C   0  0  0  0  0  0  0  0  0  0  0  0
    0.3896   -3.7756    5.3267 C   0  0  0  0  0  0  0  0  0  0  0  0
   -0.2516   -3.0177    6.2649 C   0  0  0  0  0  0  0  0  0  0  0  0
   -0.5740   -1.8113    5.7475 O   0  0  0  0  0  0  0  0  0  0  0  0
   -1.0987    1.2095    5.4412 C   0  0  0  0  0  0  0  0  0  0  0  0
   -1.1101    0.5689    6.4946 O   0  0  0  0  0  0  0  0  0  0  0  0
   -3.6397    3.1963    8.0234 H   0  0  0  0  0  0  0  0  0  0  0  0
   -3.3828    1.6401    7.2666 H   0  0  0  0  0  0  0  0  0  0  0  0
   -4.0552    2.9500    6.3199 H   0  0  0  0  0  0  0  0  0  0  0  0
   -1.8788    4.2442    6.6026 H   0  0  0  0  0  0  0  0  0  0  0  0
   -1.2211    2.9050    7.4724 H   0  0  0  0  0  0  0  0  0  0  0  0
    0.0234   -0.6111    2.7219 H   0  0  0  0  0  0  0  0  0  0  0  0
    0.9555   -3.1927    3.2245 H   0  0  0  0  0  0  0  0  0  0  0  0
    0.7296   -4.7902    5.4979 H   0  0  0  0  0  0  0  0  0  0  0  0
   -0.5453   -3.1634    7.2970 H   0  0  0  0  0  0  0  0  0  0  0  0
  1  2  1  0
  1 16  1  0
  1 17  1  0
  1 18  1  0
  2  3  1  0
  2 19  1  0
  2 20  1  0
  3 14  1  0
  3  4  1  0
  4  5  2  0
  4  6  1  0
  6  7  1  0
  7  8  2  3
  7 14  1  0
  8  9  1  0
  8 21  1  0
  9 13  1  0
  9 10  2  0
 10 11  1  0
 10 22  1  0
 11 12  2  0
 11 23  1  0
 12 13  1  0
 12 24  1  0
 14 15  2  0
M  END
>  <i_m_ct_stereo_status>  (278) 
1

>  <s_m_source_file>  (278) 
/var/tmp/pbs.5076255.sched01/tmp2gjrvvgn/102_qij5c5l.sdf

>  <i_m_source_file_index>  (278) 
10

>  <i_lp_mmshare_version>  (278) 
48012

>  <i_f3d_flags>  (278) 
0

>  <s_epik_input>  (278) 
W0NIM11bQ0gyXU4xQyg9TylTL0MoQzE9Tyk9W0NIXVxjMltjSF1bY0hdW2NIXW8y

>  <s_epik_cmdline>  (278) 
J2VwaWtfcHl0aG9uJywgJy1waHQnLCAnMi4wJywgJy1waCcsICc3LjAnLCAnLXRuJywgJzgnLCAnLW1hJywgJzIwMCcsICctaW1hZScsICc8aW5maWxlLm1hZT4nLCAnLW9tYWUnLCAnPG91dGZpbGUubWFlPic=

>  <r_lp_tautomer_probability>  (278) 
1

>  <r_epik_Ionization_Penalty>  (278) 
1.31558e-16

>  <r_epik_Ionization_Penalty_Charging>  (278) 
0

>  <r_epik_Ionization_Penalty_Neutral>  (278) 
1.31558e-16

>  <r_epik_State_Penalty>  (278) 
-0

>  <r_epik_Charging_Adjusted_Penalty>  (278) 
0

>  <i_epik_Tot_Q>  (278) 
0

>  <i_epik_Tot_abs_Q>  (278) 
0

>  <s_lp_Force_Field>  (278) 
OPLS3e

>  <r_lp_Energy>  (278) 
9.046

>  <b_lp_Chiralities_Consistent>  (278) 
1

>  <s_lp_Variant>  (278) 
86:0-2

>  <s_i_glide_gridfile>  (278) 
pfpi4k_grid

>  <i_i_glide_lignum>  (278) 
10

>  <i_i_glide_rotatable_bonds>  (278) 
2

>  <r_i_docking_score>  (278) 
-3.97539

>  <r_i_glide_ligand_efficiency>  (278) 
-0.265026

>  <r_i_glide_ligand_efficiency_sa>  (278) 
-0.65361

>  <r_i_glide_ligand_efficiency_ln>  (278) 
-1.0721

>  <r_i_glide_gscore>  (278) 
-3.97539

>  <r_i_glide_lipo>  (278) 
-0.245627

>  <r_i_glide_hbond>  (278) 
-0.136772

>  <r_i_glide_metal>  (278) 
-0

>  <r_i_glide_rewards>  (278) 
-1.91015

>  <r_i_glide_evdw>  (278) 
-17.4708

>  <r_i_glide_ecoul>  (278) 
-5.01795

>  <r_i_glide_erotb>  (278) 
0

>  <r_i_glide_esite>  (278) 
-0.0566035

>  <r_i_glide_emodel>  (278) 
-28.5043

>  <r_i_glide_energy>  (278) 
-22.4888

>  <r_i_glide_einternal>  (278) 
0.428361

>  <r_i_glide_intrahb_reward>  (278) 
-0

>  <i_i_glide_confnum>  (278) 
1

>  <i_i_glide_posenum>  (278) 
15

>  <r_i_glide_eff_state_penalty>  (278) 
0

>  <ligand_id>  (278) 
86

>  <original_smiles>  (278) 
CCN1C(=O)SC(=Cc2ccco2)C1=O

>  <smiles>  (278) 
[H]C(=C1SC(=O)N(C([H])([H])C([H])([H])[H])C1=O)c1oc([H])c([H])c1[H]

$$$$
87:0:0
     RDKit          3D

 54 61  0  0  1  0  0  0  0  0999 V2000
   -1.0373    1.7897    9.2743 C   0  0  0  0  0  0  0  0  0  0  0  0
   -1.0442    1.1679    8.0005 O   0  0  0  0  0  0  0  0  0  0  0  0
   -0.5756    2.0263    6.9703 C   0  0  2  0  0  0  0  0  0  0  0  0
   -1.6998    2.5099    6.0726 C   0  0  1  0  0  0  0  0  0  0  0  0
   -2.1044    3.6538    5.4597 C   0  0  2  0  0  0  0  0  0  0  0  0
   -2.3575    2.6806    4.1075 C   0  0  0  0  0  0  0  0  0  0  0  0
   -1.1012    1.5643    3.9117 C   0  0  2  0  0  0  0  0  0  0  0  0
    0.5416    1.2534    4.5553 C   0  0  1  0  0  0  0  0  0  0  0  0
    0.9372   -0.0665    4.1427 O   0  0  0  0  0  0  0  0  0  0  0  0
    1.7370   -0.8319    5.0504 C   0  0  0  0  0  0  0  0  0  0  0  0
    1.8428    2.0815    5.2378 C   0  0  1  0  0  0  0  0  0  0  0  0
    3.1862    2.1940    4.4385 C   0  0  1  0  0  0  0  0  0  0  0  0
    3.0172    1.8315    3.0881 O   0  0  0  0  0  0  0  0  0  0  0  0
    3.6666    3.6809    4.4683 C   0  0  0  0  0  0  0  0  0  0  0  0
    2.5804    4.5237    5.1262 C   0  0  2  0  0  0  0  0  0  0  0  0
    1.7016    3.5248    5.9157 C   0  0  1  0  0  0  0  0  0  0  0  0
    0.5525    4.5965    5.7579 C   0  0  2  0  0  0  0  0  0  0  0  0
   -0.9728    4.5916    5.8880 O   0  0  0  0  0  0  0  0  0  0  0  0
    1.2544    4.8442    4.3831 C   0  0  2  0  0  0  0  0  0  0  0  0
    1.1303    3.8360    3.3347 N   0  0  0  0  0  0  0  0  0  0  0  0
   -0.2208    3.5502    3.4813 C   0  0  2  0  0  0  0  0  0  0  0  0
   -0.6809    5.0951    3.2824 C   0  0  0  0  0  0  0  0  0  0  0  0
    0.5834    5.9561    3.6734 C   0  0  1  0  0  0  0  0  0  0  0  0
    0.2885    7.0794    4.4782 O   0  0  0  0  0  0  0  0  0  0  0  0
   -0.7175    2.4154    4.8573 C   0  0  1  0  0  0  0  0  0  0  0  0
   -0.2559    1.1446    5.7299 C   0  0  1  0  0  0  0  0  0  0  0  0
   -1.3718    1.0995   10.0500 H   0  0  0  0  0  0  0  0  0  0  0  0
   -1.6971    2.6580    9.2752 H   0  0  0  0  0  0  0  0  0  0  0  0
   -0.0282    2.1094    9.5419 H   0  0  0  0  0  0  0  0  0  0  0  0
    0.0972    2.7592    7.3823 H   0  0  0  0  0  0  0  0  0  0  0  0
   -2.5083    1.7606    6.1599 H   0  0  0  0  0  0  0  0  0  0  0  0
   -3.0458    4.0193    5.8628 H   0  0  0  0  0  0  0  0  0  0  0  0
   -3.3087    2.1547    4.1745 H   0  0  0  0  0  0  0  0  0  0  0  0
   -2.5871    3.2661    3.2084 H   0  0  0  0  0  0  0  0  0  0  0  0
   -1.6489    0.6269    4.0092 H   0  0  0  0  0  0  0  0  0  0  0  0
    1.8472   -1.8559    4.6922 H   0  0  0  0  0  0  0  0  0  0  0  0
    1.2943   -0.8816    6.0463 H   0  0  0  0  0  0  0  0  0  0  0  0
    2.7412   -0.4206    5.1499 H   0  0  0  0  0  0  0  0  0  0  0  0
    2.1350    1.4773    6.1098 H   0  0  0  0  0  0  0  0  0  0  0  0
    3.9461    1.5635    4.9035 H   0  0  0  0  0  0  0  0  0  0  0  0
    3.8684    1.9384    2.6701 H   0  0  0  0  0  0  0  0  0  0  0  0
    4.6033    3.7484    5.0291 H   0  0  0  0  0  0  0  0  0  0  0  0
    3.8548    4.0630    3.4637 H   0  0  0  0  0  0  0  0  0  0  0  0
    2.9448    5.3455    5.7375 H   0  0  0  0  0  0  0  0  0  0  0  0
    2.0635    3.5019    6.9471 H   0  0  0  0  0  0  0  0  0  0  0  0
    0.8105    5.4052    6.4495 H   0  0  0  0  0  0  0  0  0  0  0  0
    1.2446    4.2364    2.3931 H   0  0  0  0  0  0  0  0  0  0  0  0
   -0.4357    3.1036    2.5014 H   0  0  0  0  0  0  0  0  0  0  0  0
   -0.9929    5.3454    2.2695 H   0  0  0  0  0  0  0  0  0  0  0  0
   -1.5652    5.3544    3.8337 H   0  0  0  0  0  0  0  0  0  0  0  0
    1.1807    6.2745    2.8194 H   0  0  0  0  0  0  0  0  0  0  0  0
    0.2129    7.8154    3.8548 H   0  0  0  0  0  0  0  0  0  0  0  0
   -0.8583    0.2232    5.7901 H   0  0  0  0  0  0  0  0  0  0  0  0
    1.7010    3.0061    3.4890 H   0  0  0  0  0  0  0  0  0  0  0  0
  1  2  1  0
  1 27  1  0
  1 28  1  0
  1 29  1  0
  2  3  1  0
  3 26  1  0
  3  4  1  0
  3 30  1  1
  4 25  1  0
  4  5  1  0
  4 31  1  6
  5 18  1  0
  5  6  1  0
  5 32  1  1
  6  7  1  0
  6 33  1  0
  6 34  1  0
  7 25  1  0
  7  8  1  0
  7 35  1  1
  8 26  1  0
  8  9  1  6
  8 11  1  0
  9 10  1  0
 10 36  1  0
 10 37  1  0
 10 38  1  0
 11 16  1  0
 11 12  1  0
 11 39  1  1
 12 13  1  0
 12 14  1  0
 12 40  1  1
 13 41  1  0
 14 15  1  0
 14 42  1  0
 14 43  1  0
 15 19  1  0
 15 16  1  0
 15 44  1  1
 16 17  1  0
 16 45  1  1
 17 18  1  0
 17 19  1  0
 17 46  1  1
 19 23  1  0
 19 20  1  6
 20 21  1  0
 20 47  1  0
 20 54  1  0
 21 22  1  0
 25 21  1  6
 21 48  1  6
 22 23  1  0
 22 49  1  0
 22 50  1  0
 23 24  1  0
 23 51  1  6
 24 52  1  0
 25 26  1  0
 26 53  1  1
M  CHG  1  20   1
M  END
>  <i_m_ct_stereo_status>  (279) 
1

>  <s_m_source_file>  (279) 
/var/tmp/pbs.5076255.sched01/tmp2gjrvvgn/102_qij5c5l.sdf

>  <i_m_source_file_index>  (279) 
11

>  <i_lp_mmshare_version>  (279) 
48012

>  <i_f3d_flags>  (279) 
0

>  <s_epik_input>  (279) 
W0NIM11PW0NAQEhdKFtDQEhdMTIpW0NAQEhdKFtDQEhdKFtDSDJdMylPW0NAQEhdNDUpW0NAXTIoW0NASF0oW05IXTYpW0NIMl1bQ0BIXTdbT0hdKVtDQEhdM1tDQEBdMShPW0NIM10pW0NAQEhdKFtDQEBIXShbT0hdKVtDSDJdOClbQ0BIXTRbQ0BASF04W0NAXTU2Nw==

>  <s_epik_cmdline>  (279) 
J2VwaWtfcHl0aG9uJywgJy1waHQnLCAnMi4wJywgJy1waCcsICc3LjAnLCAnLXRuJywgJzgnLCAnLW1hJywgJzIwMCcsICctaW1hZScsICc8aW5maWxlLm1hZT4nLCAnLW9tYWUnLCAnPG91dGZpbGUubWFlPic=

>  <r_epik_Ionization_Penalty>  (279) 
0.00204132

>  <r_epik_Ionization_Penalty_Charging>  (279) 
0.00204124

>  <r_epik_Ionization_Penalty_Neutral>  (279) 
8.3926e-08

>  <r_epik_State_Penalty>  (279) 
0.00139629

>  <r_epik_Charging_Adjusted_Penalty>  (279) 
0.00343753

>  <i_epik_Tot_Q>  (279) 
1

>  <i_epik_Tot_abs_Q>  (279) 
1

>  <s_lp_Force_Field>  (279) 
OPLS3e

>  <r_lp_Energy>  (279) 
529.143

>  <b_lp_Chiralities_Consistent>  (279) 
1

>  <s_lp_Variant>  (279) 
87:0-1

>  <s_i_glide_gridfile>  (279) 
pfpi4k_grid

>  <i_i_glide_lignum>  (279) 
11

>  <i_i_glide_rotatable_bonds>  (279) 
4

>  <r_i_docking_score>  (279) 
-3.73213

>  <r_i_glide_ligand_efficiency>  (279) 
-0.143544

>  <r_i_glide_ligand_efficiency_sa>  (279) 
-0.425247

>  <r_i_glide_ligand_efficiency_ln>  (279) 
-0.876479

>  <r_i_glide_gscore>  (279) 
-3.73213

>  <r_i_glide_lipo>  (279) 
-0.0365692

>  <r_i_glide_hbond>  (279) 
-0.16146

>  <r_i_glide_metal>  (279) 
-0

>  <r_i_glide_rewards>  (279) 
-0.937909

>  <r_i_glide_evdw>  (279) 
-10.335

>  <r_i_glide_ecoul>  (279) 
-13.2383

>  <r_i_glide_erotb>  (279) 
0

>  <r_i_glide_esite>  (279) 
-0.0936964

>  <r_i_glide_emodel>  (279) 
-26.9531

>  <r_i_glide_energy>  (279) 
-23.5733

>  <r_i_glide_einternal>  (279) 
8.20391

>  <r_i_glide_intrahb_reward>  (279) 
-0

>  <i_i_glide_confnum>  (279) 
1

>  <i_i_glide_posenum>  (279) 
19

>  <r_i_glide_eff_state_penalty>  (279) 
0

>  <ligand_id>  (279) 
87

>  <original_smiles>  (279) 
COC1C2C3CC4C5(OC)C6C(O)CC7C6C(O3)C73NC(CC3O)C24C15

>  <smiles>  (279) 
[H]OC1([H])C([H])([H])C2([H])C3([H])C4([H])OC5([H])C([H])([H])C6([H])C(OC([H])([H])[H])(C13[H])C1([H])C([H])(OC([H])([H])[H])C5([H])C61C1([H])C([H])([H])C([H])(O[H])C42[N+]1([H])[H]

$$$$
87:0:1
     RDKit          3D

 54 61  0  0  1  0  0  0  0  0999 V2000
    0.8162    1.5074    9.5032 C   0  0  0  0  0  0  0  0  0  0  0  0
    0.2111    0.8910    8.3794 O   0  0  0  0  0  0  0  0  0  0  0  0
    0.4885    1.5634    7.1592 C   0  0  2  0  0  0  0  0  0  0  0  0
   -0.3844    2.7829    6.9735 C   0  0  1  0  0  0  0  0  0  0  0  0
   -0.2802    4.0721    6.5273 C   0  0  2  0  0  0  0  0  0  0  0  0
   -1.7133    3.7336    5.7153 C   0  0  0  0  0  0  0  0  0  0  0  0
   -1.6938    2.2039    5.0057 C   0  0  0  0  0  0  0  0  0  0  0  0
   -0.5207    0.9022    4.6526 C   0  0  1  0  0  0  0  0  0  0  0  0
   -1.2637   -0.2719    4.2826 O   0  0  0  0  0  0  0  0  0  0  0  0
   -0.7127   -1.5298    4.6722 C   0  0  0  0  0  0  0  0  0  0  0  0
    1.1261    0.6727    4.3709 C   0  0  1  0  0  0  0  0  0  0  0  0
    1.6300    0.1909    2.9610 C   0  0  1  0  0  0  0  0  0  0  0  0
    0.6270    0.2439    1.9708 O   0  0  0  0  0  0  0  0  0  0  0  0
    2.8176    1.0997    2.5132 C   0  0  0  0  0  0  0  0  0  0  0  0
    2.9634    2.2260    3.5426 C   0  0  2  0  0  0  0  0  0  0  0  0
    2.2369    1.7351    4.8195 C   0  0  1  0  0  0  0  0  0  0  0  0
    2.0746    3.2664    5.1708 C   0  0  2  0  0  0  0  0  0  0  0  0
    1.1931    4.0839    6.1180 O   0  0  0  0  0  0  0  0  0  0  0  0
    1.9523    3.3954    3.6178 C   0  0  2  0  0  0  0  0  0  0  0  0
    0.7420    2.9142    2.9612 N   0  0  0  0  0  0  0  0  0  0  0  0
   -0.1895    3.4163    3.8855 C   0  0  2  0  0  0  0  0  0  0  0  0
    0.3401    4.9433    3.7298 C   0  0  0  0  0  0  0  0  0  0  0  0
    1.8275    4.8241    3.2271 C   0  0  1  0  0  0  0  0  0  0  0  0
    2.7494    5.6757    3.8806 O   0  0  0  0  0  0  0  0  0  0  0  0
   -0.4631    2.4549    5.4407 C   0  0  1  0  0  0  0  0  0  0  0  0
   -0.4592    0.9726    6.0770 C   0  0  1  0  0  0  0  0  0  0  0  0
    0.6132    0.9281   10.4075 H   0  0  0  0  0  0  0  0  0  0  0  0
    0.4225    2.5144    9.6497 H   0  0  0  0  0  0  0  0  0  0  0  0
    1.8986    1.5694    9.3791 H   0  0  0  0  0  0  0  0  0  0  0  0
    1.5567    1.6695    7.0476 H   0  0  0  0  0  0  0  0  0  0  0  0
   -1.2749    2.6102    7.6051 H   0  0  0  0  0  0  0  0  0  0  0  0
   -0.4377    4.7969    7.3296 H   0  0  0  0  0  0  0  0  0  0  0  0
   -2.5519    3.8033    6.4207 H   0  0  0  0  0  0  0  0  0  0  0  0
   -1.9992    4.5336    5.0249 H   0  0  0  0  0  0  0  0  0  0  0  0
   -2.5293    1.7382    5.5318 H   0  0  0  0  0  0  0  0  0  0  0  0
   -1.4181   -2.3218    4.4790 H   0  0  0  0  0  0  0  0  0  0  0  0
   -0.4731   -1.5727    5.7331 H   0  0  0  0  0  0  0  0  0  0  0  0
    0.1778   -1.7832    4.1039 H   0  0  0  0  0  0  0  0  0  0  0  0
    1.3965   -0.1738    5.0145 H   0  0  0  0  0  0  0  0  0  0  0  0
    1.9876   -0.8378    3.0406 H   0  0  0  0  0  0  0  0  0  0  0  0
    0.9429   -0.1627    1.1664 H   0  0  0  0  0  0  0  0  0  0  0  0
    3.7310    0.5050    2.4781 H   0  0  0  0  0  0  0  0  0  0  0  0
    2.6777    1.4928    1.5043 H   0  0  0  0  0  0  0  0  0  0  0  0
    3.9843    2.5317    3.7457 H   0  0  0  0  0  0  0  0  0  0  0  0
    2.9729    1.2659    5.4762 H   0  0  0  0  0  0  0  0  0  0  0  0
    3.0652    3.6034    5.4926 H   0  0  0  0  0  0  0  0  0  0  0  0
    0.6085    3.3830    2.0535 H   0  0  0  0  0  0  0  0  0  0  0  0
   -1.0859    3.4155    3.2539 H   0  0  0  0  0  0  0  0  0  0  0  0
   -0.2198    5.4643    2.9542 H   0  0  0  0  0  0  0  0  0  0  0  0
    0.2487    5.5894    4.6002 H   0  0  0  0  0  0  0  0  0  0  0  0
    1.9156    4.9577    2.1466 H   0  0  0  0  0  0  0  0  0  0  0  0
    3.6001    5.5479    3.4942 H   0  0  0  0  0  0  0  0  0  0  0  0
   -1.3363    0.5415    6.5835 H   0  0  0  0  0  0  0  0  0  0  0  0
    0.6807    1.9059    2.8824 H   0  0  0  0  0  0  0  0  0  0  0  0
  1  2  1  0
  1 27  1  0
  1 28  1  0
  1 29  1  0
  2  3  1  0
  3 26  1  0
  3  4  1  0
  3 30  1  6
  4 25  1  0
  4  5  1  0
  4 31  1  1
  5 18  1  0
  5  6  1  0
  5 32  1  1
  6  7  1  0
  6 33  1  0
  6 34  1  0
 25  7  1  6
  7  8  1  0
  7 35  1  0
  8 26  1  0
  8  9  1  1
  8 11  1  0
  9 10  1  0
 10 36  1  0
 10 37  1  0
 10 38  1  0
 11 16  1  0
 11 12  1  0
 11 39  1  1
 12 13  1  0
 12 14  1  0
 12 40  1  1
 13 41  1  0
 14 15  1  0
 14 42  1  0
 14 43  1  0
 15 19  1  0
 15 16  1  0
 15 44  1  1
 16 17  1  0
 16 45  1  1
 17 18  1  0
 17 19  1  0
 17 46  1  1
 19 23  1  0
 19 20  1  1
 20 21  1  0
 20 47  1  0
 20 54  1  0
 21 22  1  0
 21 25  1  0
 21 48  1  6
 22 23  1  0
 22 49  1  0
 22 50  1  0
 23 24  1  0
 23 51  1  6
 24 52  1  0
 25 26  1  0
 26 53  1  1
M  CHG  1  20   1
M  END
>  <i_m_ct_stereo_status>  (280) 
1

>  <s_m_source_file>  (280) 
/var/tmp/pbs.5076255.sched01/tmp2gjrvvgn/102_qij5c5l.sdf

>  <i_m_source_file_index>  (280) 
11

>  <i_lp_mmshare_version>  (280) 
48012

>  <i_f3d_flags>  (280) 
0

>  <s_epik_input>  (280) 
W0NIM11PW0NAQEhdKFtDQEhdMTIpW0NAQEhdKFtDQEhdKFtDSDJdMylPW0NAQEhdNDUpW0NAXTIoW0NASF0oW05IXTYpW0NIMl1bQ0BIXTdbT0hdKVtDQEhdM1tDQEBdMShPW0NIM10pW0NAQEhdKFtDQEBIXShbT0hdKVtDSDJdOClbQ0BIXTRbQ0BASF04W0NAXTU2Nw==

>  <s_epik_cmdline>  (280) 
J2VwaWtfcHl0aG9uJywgJy1waHQnLCAnMi4wJywgJy1waCcsICc3LjAnLCAnLXRuJywgJzgnLCAnLW1hJywgJzIwMCcsICctaW1hZScsICc8aW5maWxlLm1hZT4nLCAnLW9tYWUnLCAnPG91dGZpbGUubWFlPic=

>  <r_epik_Ionization_Penalty>  (280) 
0.00204132

>  <r_epik_Ionization_Penalty_Charging>  (280) 
0.00204124

>  <r_epik_Ionization_Penalty_Neutral>  (280) 
8.3926e-08

>  <r_epik_State_Penalty>  (280) 
0.00139629

>  <r_epik_Charging_Adjusted_Penalty>  (280) 
0.00343753

>  <i_epik_Tot_Q>  (280) 
1

>  <i_epik_Tot_abs_Q>  (280) 
1

>  <s_lp_Force_Field>  (280) 
OPLS3e

>  <r_lp_Energy>  (280) 
529.143

>  <b_lp_Chiralities_Consistent>  (280) 
1

>  <s_lp_Variant>  (280) 
87:0-1

>  <s_i_glide_gridfile>  (280) 
pfpi4k_grid

>  <i_i_glide_lignum>  (280) 
11

>  <i_i_glide_rotatable_bonds>  (280) 
4

>  <r_i_docking_score>  (280) 
-3.0664

>  <r_i_glide_ligand_efficiency>  (280) 
-0.117939

>  <r_i_glide_ligand_efficiency_sa>  (280) 
-0.349392

>  <r_i_glide_ligand_efficiency_ln>  (280) 
-0.720134

>  <r_i_glide_gscore>  (280) 
-3.0664

>  <r_i_glide_lipo>  (280) 
-0.0112879

>  <r_i_glide_hbond>  (280) 
-0.2

>  <r_i_glide_metal>  (280) 
-0

>  <r_i_glide_rewards>  (280) 
-0.937909

>  <r_i_glide_evdw>  (280) 
-15.51

>  <r_i_glide_ecoul>  (280) 
-6.9925

>  <r_i_glide_erotb>  (280) 
0

>  <r_i_glide_esite>  (280) 
-0.0928288

>  <r_i_glide_emodel>  (280) 
-25.7454

>  <r_i_glide_energy>  (280) 
-22.5025

>  <r_i_glide_einternal>  (280) 
6.08327

>  <r_i_glide_intrahb_reward>  (280) 
-0

>  <i_i_glide_confnum>  (280) 
2

>  <i_i_glide_posenum>  (280) 
5

>  <r_i_glide_eff_state_penalty>  (280) 
0

>  <ligand_id>  (280) 
87

>  <original_smiles>  (280) 
COC1C2C3CC4C5(OC)C6C(O)CC7C6C(O3)C73NC(CC3O)C24C15

>  <smiles>  (280) 
[H]OC1([H])C([H])([H])C2([H])C3([H])C4([H])OC5([H])C([H])([H])C6([H])C(OC([H])([H])[H])(C13[H])C1([H])C([H])(OC([H])([H])[H])C5([H])C61C1([H])C([H])([H])C([H])(O[H])C42[N+]1([H])[H]

$$$$
87:0:2
     RDKit          3D

 54 61  0  0  1  0  0  0  0  0999 V2000
    0.8127    1.6428    9.5280 C   0  0  0  0  0  0  0  0  0  0  0  0
    0.2503    0.9798    8.4063 O   0  0  0  0  0  0  0  0  0  0  0  0
    0.5050    1.6442    7.1822 C   0  0  2  0  0  0  0  0  0  0  0  0
   -0.4328    2.8191    6.9729 C   0  0  1  0  0  0  0  0  0  0  0  0
   -0.4010    4.0958    6.5132 C   0  0  2  0  0  0  0  0  0  0  0  0
   -1.8113    3.6802    5.6985 C   0  0  0  0  0  0  0  0  0  0  0  0
   -1.7077    2.1385    5.0080 C   0  0  0  0  0  0  0  0  0  0  0  0
   -0.4742    0.8785    4.6906 C   0  0  1  0  0  0  0  0  0  0  0  0
   -1.1643   -0.3306    4.3420 O   0  0  0  0  0  0  0  0  0  0  0  0
   -0.5644   -1.5722    4.7276 C   0  0  0  0  0  0  0  0  0  0  0  0
    1.1817    0.7325    4.4138 C   0  0  1  0  0  0  0  0  0  0  0  0
    1.7069    0.2606    2.9995 C   0  0  1  0  0  0  0  0  0  0  0  0
    0.6920    0.2792    2.0222 O   0  0  0  0  0  0  0  0  0  0  0  0
    2.8417    1.2276    2.5354 C   0  0  0  0  0  0  0  0  0  0  0  0
    2.9331    2.3672    3.5513 C   0  0  2  0  0  0  0  0  0  0  0  0
    2.2338    1.8691    4.8358 C   0  0  1  0  0  0  0  0  0  0  0  0
    1.9946    3.4024    5.1601 C   0  0  2  0  0  0  0  0  0  0  0  0
    1.0638    4.1876    6.0955 O   0  0  0  0  0  0  0  0  0  0  0  0
    1.8750    3.5043    3.6036 C   0  0  2  0  0  0  0  0  0  0  0  0
    0.6948    2.9384    2.9626 N   0  0  0  0  0  0  0  0  0  0  0  0
   -0.2769    3.3946    3.8699 C   0  0  2  0  0  0  0  0  0  0  0  0
    0.1606    4.9507    3.6899 C   0  0  0  0  0  0  0  0  0  0  0  0
    1.6610    4.9119    3.1994 C   0  0  1  0  0  0  0  0  0  0  0  0
    2.5158    5.8174    3.8691 O   0  0  0  0  0  0  0  0  0  0  0  0
   -0.4965    2.4536    5.4488 C   0  0  1  0  0  0  0  0  0  0  0  0
   -0.4203    0.9885    6.1125 C   0  0  1  0  0  0  0  0  0  0  0  0
    0.6437    1.0660   10.4439 H   0  0  0  0  0  0  0  0  0  0  0  0
    0.3607    2.6299    9.6571 H   0  0  0  0  0  0  0  0  0  0  0  0
    1.8920    1.7635    9.3994 H   0  0  0  0  0  0  0  0  0  0  0  0
    1.5619    1.7996    7.0698 H   0  0  0  0  0  0  0  0  0  0  0  0
   -1.3158    2.5979    7.5946 H   0  0  0  0  0  0  0  0  0  0  0  0
   -0.6001    4.8291    7.2961 H   0  0  0  0  0  0  0  0  0  0  0  0
   -2.6478    3.7147    6.4036 H   0  0  0  0  0  0  0  0  0  0  0  0
   -2.1373    4.4569    5.0052 H   0  0  0  0  0  0  0  0  0  0  0  0
   -2.5267    1.6374    5.5221 H   0  0  0  0  0  0  0  0  0  0  0  0
   -1.2511   -2.4005    4.5471 H   0  0  0  0  0  0  0  0  0  0  0  0
   -0.3037   -1.5930    5.7898 H   0  0  0  0  0  0  0  0  0  0  0  0
    0.3357   -1.7818    4.1457 H   0  0  0  0  0  0  0  0  0  0  0  0
    1.5123   -0.0808    5.0726 H   0  0  0  0  0  0  0  0  0  0  0  0
    2.1075   -0.7465    3.0807 H   0  0  0  0  0  0  0  0  0  0  0  0
    0.9906   -0.1418    1.2174 H   0  0  0  0  0  0  0  0  0  0  0  0
    3.7831    0.6818    2.5065 H   0  0  0  0  0  0  0  0  0  0  0  0
    2.6805    1.5926    1.5198 H   0  0  0  0  0  0  0  0  0  0  0  0
    3.9259    2.7445    3.7489 H   0  0  0  0  0  0  0  0  0  0  0  0
    3.0046    1.4636    5.4981 H   0  0  0  0  0  0  0  0  0  0  0  0
    2.9702    3.7865    5.4762 H   0  0  0  0  0  0  0  0  0  0  0  0
    0.5603    3.3615    2.0452 H   0  0  0  0  0  0  0  0  0  0  0  0
   -1.1758    3.3426    3.2405 H   0  0  0  0  0  0  0  0  0  0  0  0
   -0.4265    5.4300    2.9081 H   0  0  0  0  0  0  0  0  0  0  0  0
    0.0427    5.6044    4.5474 H   0  0  0  0  0  0  0  0  0  0  0  0
    1.7896    5.0225    2.1218 H   0  0  0  0  0  0  0  0  0  0  0  0
    2.3198    6.6842    3.5444 H   0  0  0  0  0  0  0  0  0  0  0  0
   -1.2762    0.5389    6.6337 H   0  0  0  0  0  0  0  0  0  0  0  0
    0.6857    1.9224    2.9321 H   0  0  0  0  0  0  0  0  0  0  0  0
  1  2  1  0
  1 27  1  0
  1 28  1  0
  1 29  1  0
  2  3  1  0
  3 26  1  0
  3  4  1  0
  3 30  1  6
  4 25  1  0
  4  5  1  0
  4 31  1  1
  5 18  1  0
  5  6  1  0
  5 32  1  1
  6  7  1  0
  6 33  1  0
  6 34  1  0
 25  7  1  6
  7  8  1  0
  7 35  1  0
  8 26  1  0
  8  9  1  1
  8 11  1  0
  9 10  1  0
 10 36  1  0
 10 37  1  0
 10 38  1  0
 11 16  1  0
 11 12  1  0
 11 39  1  1
 12 13  1  0
 12 14  1  0
 12 40  1  1
 13 41  1  0
 14 15  1  0
 14 42  1  0
 14 43  1  0
 15 19  1  0
 15 16  1  0
 15 44  1  1
 16 17  1  0
 16 45  1  1
 17 18  1  0
 17 19  1  0
 17 46  1  1
 19 23  1  0
 19 20  1  1
 20 21  1  0
 20 47  1  0
 20 54  1  0
 21 22  1  0
 21 25  1  0
 21 48  1  6
 22 23  1  0
 22 49  1  0
 22 50  1  0
 23 24  1  0
 23 51  1  6
 24 52  1  0
 25 26  1  0
 26 53  1  1
M  CHG  1  20   1
M  END
>  <i_m_ct_stereo_status>  (281) 
1

>  <s_m_source_file>  (281) 
/var/tmp/pbs.5076255.sched01/tmp2gjrvvgn/102_qij5c5l.sdf

>  <i_m_source_file_index>  (281) 
11

>  <i_lp_mmshare_version>  (281) 
48012

>  <i_f3d_flags>  (281) 
0

>  <s_epik_input>  (281) 
W0NIM11PW0NAQEhdKFtDQEhdMTIpW0NAQEhdKFtDQEhdKFtDSDJdMylPW0NAQEhdNDUpW0NAXTIoW0NASF0oW05IXTYpW0NIMl1bQ0BIXTdbT0hdKVtDQEhdM1tDQEBdMShPW0NIM10pW0NAQEhdKFtDQEBIXShbT0hdKVtDSDJdOClbQ0BIXTRbQ0BASF04W0NAXTU2Nw==

>  <s_epik_cmdline>  (281) 
J2VwaWtfcHl0aG9uJywgJy1waHQnLCAnMi4wJywgJy1waCcsICc3LjAnLCAnLXRuJywgJzgnLCAnLW1hJywgJzIwMCcsICctaW1hZScsICc8aW5maWxlLm1hZT4nLCAnLW9tYWUnLCAnPG91dGZpbGUubWFlPic=

>  <r_epik_Ionization_Penalty>  (281) 
0.00204132

>  <r_epik_Ionization_Penalty_Charging>  (281) 
0.00204124

>  <r_epik_Ionization_Penalty_Neutral>  (281) 
8.3926e-08

>  <r_epik_State_Penalty>  (281) 
0.00139629

>  <r_epik_Charging_Adjusted_Penalty>  (281) 
0.00343753

>  <i_epik_Tot_Q>  (281) 
1

>  <i_epik_Tot_abs_Q>  (281) 
1

>  <s_lp_Force_Field>  (281) 
OPLS3e

>  <r_lp_Energy>  (281) 
529.143

>  <b_lp_Chiralities_Consistent>  (281) 
1

>  <s_lp_Variant>  (281) 
87:0-1

>  <s_i_glide_gridfile>  (281) 
pfpi4k_grid

>  <i_i_glide_lignum>  (281) 
11

>  <i_i_glide_rotatable_bonds>  (281) 
4

>  <r_i_docking_score>  (281) 
-3.03866

>  <r_i_glide_ligand_efficiency>  (281) 
-0.116872

>  <r_i_glide_ligand_efficiency_sa>  (281) 
-0.346232

>  <r_i_glide_ligand_efficiency_ln>  (281) 
-0.71362

>  <r_i_glide_gscore>  (281) 
-3.03866

>  <r_i_glide_lipo>  (281) 
-3.71939e-05

>  <r_i_glide_hbond>  (281) 
-0.2

>  <r_i_glide_metal>  (281) 
-0

>  <r_i_glide_rewards>  (281) 
-0.937909

>  <r_i_glide_evdw>  (281) 
-15.9263

>  <r_i_glide_ecoul>  (281) 
-6.74039

>  <r_i_glide_erotb>  (281) 
0

>  <r_i_glide_esite>  (281) 
-0.0933429

>  <r_i_glide_emodel>  (281) 
-25.8686

>  <r_i_glide_energy>  (281) 
-22.6667

>  <r_i_glide_einternal>  (281) 
6.05428

>  <r_i_glide_intrahb_reward>  (281) 
-0

>  <i_i_glide_confnum>  (281) 
2

>  <i_i_glide_posenum>  (281) 
34

>  <r_i_glide_eff_state_penalty>  (281) 
0

>  <ligand_id>  (281) 
87

>  <original_smiles>  (281) 
COC1C2C3CC4C5(OC)C6C(O)CC7C6C(O3)C73NC(CC3O)C24C15

>  <smiles>  (281) 
[H]OC1([H])C([H])([H])C2([H])C3([H])C4([H])OC5([H])C([H])([H])C6([H])C(OC([H])([H])[H])(C13[H])C1([H])C([H])(OC([H])([H])[H])C5([H])C61C1([H])C([H])([H])C([H])(O[H])C42[N+]1([H])[H]

$$$$
88:0:0
     RDKit          3D

 16 17  0  0  1  0  0  0  0  0999 V2000
    6.6983   -2.0191    0.6631 C   0  0  0  0  0  0  0  0  0  0  0  0
    5.8740   -2.2020   -0.5932 C   0  0  0  0  0  0  0  0  0  0  0  0
    5.7179   -3.4814   -1.0865 N   0  0  0  0  0  0  0  0  0  0  0  0
    5.0109   -3.6547   -2.1666 C   0  0  0  0  0  0  0  0  0  0  0  0
    4.4490   -2.5922   -2.7975 N   0  0  0  0  0  0  0  0  0  0  0  0
    3.7003   -2.5945   -3.9433 N   0  0  0  0  0  0  0  0  0  0  0  0
    3.3968   -1.3268   -4.1092 C   0  0  0  0  0  0  0  0  0  0  0  0
    3.9514   -0.4712   -3.1314 C   0  0  0  0  0  0  0  0  0  0  0  0
    4.6208   -1.3014   -2.2757 C   0  0  0  0  0  0  0  0  0  0  0  0
    5.3642   -1.1152   -1.1734 N   0  0  0  0  0  0  0  0  0  0  0  0
    7.0750   -2.9725    1.0365 H   0  0  0  0  0  0  0  0  0  0  0  0
    6.0933   -1.5641    1.4471 H   0  0  0  0  0  0  0  0  0  0  0  0
    7.5527   -1.3709    0.4690 H   0  0  0  0  0  0  0  0  0  0  0  0
    4.8469   -4.6327   -2.6091 H   0  0  0  0  0  0  0  0  0  0  0  0
    2.7862   -1.0291   -4.9495 H   0  0  0  0  0  0  0  0  0  0  0  0
    3.8440    0.6008   -3.0727 H   0  0  0  0  0  0  0  0  0  0  0  0
  1  2  1  0
  1 11  1  0
  1 12  1  0
  1 13  1  0
  2 10  2  0
  2  3  1  0
  3  4  2  0
  4  5  1  0
  4 14  1  0
  5  9  1  0
  5  6  1  0
  6  7  2  0
  7  8  1  0
  7 15  1  0
  8  9  2  0
  8 16  1  0
  9 10  1  0
M  END
>  <i_m_ct_stereo_status>  (282) 
1

>  <s_m_source_file>  (282) 
/var/tmp/pbs.5076255.sched01/tmp2gjrvvgn/102_qij5c5l.sdf

>  <i_m_source_file_index>  (282) 
12

>  <i_lp_mmshare_version>  (282) 
48012

>  <i_f3d_flags>  (282) 
0

>  <s_epik_input>  (282) 
W2NIXTFuYyhbQ0gzXSluYyhuMTIpW2NIXVtjSF1uMg==

>  <s_epik_cmdline>  (282) 
J2VwaWtfcHl0aG9uJywgJy1waHQnLCAnMi4wJywgJy1waCcsICc3LjAnLCAnLXRuJywgJzgnLCAnLW1hJywgJzIwMCcsICctaW1hZScsICc8aW5maWxlLm1hZT4nLCAnLW9tYWUnLCAnPG91dGZpbGUubWFlPic=

>  <r_lp_tautomer_probability>  (282) 
1

>  <r_epik_Ionization_Penalty>  (282) 
1.0405e-07

>  <r_epik_Ionization_Penalty_Charging>  (282) 
0

>  <r_epik_Ionization_Penalty_Neutral>  (282) 
1.0405e-07

>  <r_epik_State_Penalty>  (282) 
-0

>  <r_epik_Charging_Adjusted_Penalty>  (282) 
0

>  <i_epik_Tot_Q>  (282) 
0

>  <i_epik_Tot_abs_Q>  (282) 
0

>  <s_lp_Force_Field>  (282) 
OPLS3e

>  <r_lp_Energy>  (282) 
8.73082

>  <b_lp_Chiralities_Consistent>  (282) 
1

>  <s_lp_Variant>  (282) 
88:0-1

>  <s_i_glide_gridfile>  (282) 
pfpi4k_grid

>  <i_i_glide_lignum>  (282) 
12

>  <i_i_glide_rotatable_bonds>  (282) 
0

>  <r_i_docking_score>  (282) 
-4.36522

>  <r_i_glide_ligand_efficiency>  (282) 
-0.436522

>  <r_i_glide_ligand_efficiency_sa>  (282) 
-0.940458

>  <r_i_glide_ligand_efficiency_ln>  (282) 
-1.32176

>  <r_i_glide_gscore>  (282) 
-4.36522

>  <r_i_glide_lipo>  (282) 
-0.270244

>  <r_i_glide_hbond>  (282) 
-0.142229

>  <r_i_glide_metal>  (282) 
-0

>  <r_i_glide_rewards>  (282) 
-2.45852

>  <r_i_glide_evdw>  (282) 
-19.127

>  <r_i_glide_ecoul>  (282) 
-3.12603

>  <r_i_glide_erotb>  (282) 
0

>  <r_i_glide_esite>  (282) 
-0.0689726

>  <r_i_glide_emodel>  (282) 
-28.3681

>  <r_i_glide_energy>  (282) 
-22.253

>  <r_i_glide_einternal>  (282) 
0

>  <r_i_glide_intrahb_reward>  (282) 
-0

>  <i_i_glide_confnum>  (282) 
1

>  <i_i_glide_posenum>  (282) 
8

>  <r_i_glide_eff_state_penalty>  (282) 
0

>  <ligand_id>  (282) 
88

>  <original_smiles>  (282) 
Cc1ncn2nccc2n1

>  <smiles>  (282) 
[H]c1nn2c([H])nc(C([H])([H])[H])nc2c1[H]

$$$$
88:0:1
     RDKit          3D

 16 17  0  0  1  0  0  0  0  0999 V2000
   -3.0994    3.0236    7.9882 C   0  0  0  0  0  0  0  0  0  0  0  0
   -2.4329    2.3709    6.7969 C   0  0  0  0  0  0  0  0  0  0  0  0
   -2.1608    3.1613    5.6934 N   0  0  0  0  0  0  0  0  0  0  0  0
   -1.5861    2.6150    4.6587 C   0  0  0  0  0  0  0  0  0  0  0  0
   -1.2687    1.2958    4.6689 N   0  0  0  0  0  0  0  0  0  0  0  0
   -0.6611    0.5702    3.6804 N   0  0  0  0  0  0  0  0  0  0  0  0
   -0.5793   -0.6356    4.1933 C   0  0  0  0  0  0  0  0  0  0  0  0
   -1.1288   -0.7465    5.4944 C   0  0  0  0  0  0  0  0  0  0  0  0
   -1.5636    0.5165    5.7957 C   0  0  0  0  0  0  0  0  0  0  0  0
   -2.1619    1.0635    6.8667 N   0  0  0  0  0  0  0  0  0  0  0  0
   -3.2750    4.0858    7.8183 H   0  0  0  0  0  0  0  0  0  0  0  0
   -2.4732    2.9275    8.8752 H   0  0  0  0  0  0  0  0  0  0  0  0
   -4.0610    2.5520    8.1865 H   0  0  0  0  0  0  0  0  0  0  0  0
   -1.3312    3.1728    3.7623 H   0  0  0  0  0  0  0  0  0  0  0  0
   -0.1337   -1.4300    3.6106 H   0  0  0  0  0  0  0  0  0  0  0  0
   -1.1676   -1.6344    6.1001 H   0  0  0  0  0  0  0  0  0  0  0  0
  1  2  1  0
  1 11  1  0
  1 12  1  0
  1 13  1  0
  2 10  2  0
  2  3  1  0
  3  4  2  0
  4  5  1  0
  4 14  1  0
  5  9  1  0
  5  6  1  0
  6  7  2  0
  7  8  1  0
  7 15  1  0
  8  9  2  0
  8 16  1  0
  9 10  1  0
M  END
>  <i_m_ct_stereo_status>  (283) 
1

>  <s_m_source_file>  (283) 
/var/tmp/pbs.5076255.sched01/tmp2gjrvvgn/102_qij5c5l.sdf

>  <i_m_source_file_index>  (283) 
12

>  <i_lp_mmshare_version>  (283) 
48012

>  <i_f3d_flags>  (283) 
0

>  <s_epik_input>  (283) 
W2NIXTFuYyhbQ0gzXSluYyhuMTIpW2NIXVtjSF1uMg==

>  <s_epik_cmdline>  (283) 
J2VwaWtfcHl0aG9uJywgJy1waHQnLCAnMi4wJywgJy1waCcsICc3LjAnLCAnLXRuJywgJzgnLCAnLW1hJywgJzIwMCcsICctaW1hZScsICc8aW5maWxlLm1hZT4nLCAnLW9tYWUnLCAnPG91dGZpbGUubWFlPic=

>  <r_lp_tautomer_probability>  (283) 
1

>  <r_epik_Ionization_Penalty>  (283) 
1.0405e-07

>  <r_epik_Ionization_Penalty_Charging>  (283) 
0

>  <r_epik_Ionization_Penalty_Neutral>  (283) 
1.0405e-07

>  <r_epik_State_Penalty>  (283) 
-0

>  <r_epik_Charging_Adjusted_Penalty>  (283) 
0

>  <i_epik_Tot_Q>  (283) 
0

>  <i_epik_Tot_abs_Q>  (283) 
0

>  <s_lp_Force_Field>  (283) 
OPLS3e

>  <r_lp_Energy>  (283) 
8.73082

>  <b_lp_Chiralities_Consistent>  (283) 
1

>  <s_lp_Variant>  (283) 
88:0-1

>  <s_i_glide_gridfile>  (283) 
pfpi4k_grid

>  <i_i_glide_lignum>  (283) 
12

>  <i_i_glide_rotatable_bonds>  (283) 
0

>  <r_i_docking_score>  (283) 
-3.93073

>  <r_i_glide_ligand_efficiency>  (283) 
-0.393073

>  <r_i_glide_ligand_efficiency_sa>  (283) 
-0.846851

>  <r_i_glide_ligand_efficiency_ln>  (283) 
-1.1902

>  <r_i_glide_gscore>  (283) 
-3.93073

>  <r_i_glide_lipo>  (283) 
-0.106852

>  <r_i_glide_hbond>  (283) 
-0.16

>  <r_i_glide_metal>  (283) 
-0

>  <r_i_glide_rewards>  (283) 
-2.35482

>  <r_i_glide_evdw>  (283) 
-12.5742

>  <r_i_glide_ecoul>  (283) 
-3.91582

>  <r_i_glide_erotb>  (283) 
0

>  <r_i_glide_esite>  (283) 
-0.0929787

>  <r_i_glide_emodel>  (283) 
-21.9946

>  <r_i_glide_energy>  (283) 
-16.49

>  <r_i_glide_einternal>  (283) 
0

>  <r_i_glide_intrahb_reward>  (283) 
-0

>  <i_i_glide_confnum>  (283) 
1

>  <i_i_glide_posenum>  (283) 
20

>  <r_i_glide_eff_state_penalty>  (283) 
0

>  <ligand_id>  (283) 
88

>  <original_smiles>  (283) 
Cc1ncn2nccc2n1

>  <smiles>  (283) 
[H]c1nn2c([H])nc(C([H])([H])[H])nc2c1[H]

$$$$
88:0:2
     RDKit          3D

 16 17  0  0  1  0  0  0  0  0999 V2000
    3.2897   -3.5528    1.9835 C   0  0  0  0  0  0  0  0  0  0  0  0
    3.4629   -2.8853    0.6360 C   0  0  0  0  0  0  0  0  0  0  0  0
    4.2506   -1.7521    0.5738 N   0  0  0  0  0  0  0  0  0  0  0  0
    4.4004   -1.1596   -0.5756 C   0  0  0  0  0  0  0  0  0  0  0  0
    3.8161   -1.6598   -1.6928 N   0  0  0  0  0  0  0  0  0  0  0  0
    3.8965   -1.1769   -2.9736 N   0  0  0  0  0  0  0  0  0  0  0  0
    3.1360   -2.0056   -3.6534 C   0  0  0  0  0  0  0  0  0  0  0  0
    2.5844   -3.0525   -2.8741 C   0  0  0  0  0  0  0  0  0  0  0  0
    3.0206   -2.8148   -1.6012 C   0  0  0  0  0  0  0  0  0  0  0  0
    2.8534   -3.4298   -0.4169 N   0  0  0  0  0  0  0  0  0  0  0  0
    3.8342   -3.0233    2.7675 H   0  0  0  0  0  0  0  0  0  0  0  0
    3.6619   -4.5767    1.9460 H   0  0  0  0  0  0  0  0  0  0  0  0
    2.2354   -3.5750    2.2602 H   0  0  0  0  0  0  0  0  0  0  0  0
    5.0006   -0.2630   -0.6958 H   0  0  0  0  0  0  0  0  0  0  0  0
    3.0037   -1.8501   -4.7143 H   0  0  0  0  0  0  0  0  0  0  0  0
    1.9413   -3.8568   -3.2000 H   0  0  0  0  0  0  0  0  0  0  0  0
  1  2  1  0
  1 11  1  0
  1 12  1  0
  1 13  1  0
  2 10  2  0
  2  3  1  0
  3  4  2  0
  4  5  1  0
  4 14  1  0
  5  9  1  0
  5  6  1  0
  6  7  2  0
  7  8  1  0
  7 15  1  0
  8  9  2  0
  8 16  1  0
  9 10  1  0
M  END
>  <i_m_ct_stereo_status>  (284) 
1

>  <s_m_source_file>  (284) 
/var/tmp/pbs.5076255.sched01/tmp2gjrvvgn/102_qij5c5l.sdf

>  <i_m_source_file_index>  (284) 
12

>  <i_lp_mmshare_version>  (284) 
48012

>  <i_f3d_flags>  (284) 
0

>  <s_epik_input>  (284) 
W2NIXTFuYyhbQ0gzXSluYyhuMTIpW2NIXVtjSF1uMg==

>  <s_epik_cmdline>  (284) 
J2VwaWtfcHl0aG9uJywgJy1waHQnLCAnMi4wJywgJy1waCcsICc3LjAnLCAnLXRuJywgJzgnLCAnLW1hJywgJzIwMCcsICctaW1hZScsICc8aW5maWxlLm1hZT4nLCAnLW9tYWUnLCAnPG91dGZpbGUubWFlPic=

>  <r_lp_tautomer_probability>  (284) 
1

>  <r_epik_Ionization_Penalty>  (284) 
1.0405e-07

>  <r_epik_Ionization_Penalty_Charging>  (284) 
0

>  <r_epik_Ionization_Penalty_Neutral>  (284) 
1.0405e-07

>  <r_epik_State_Penalty>  (284) 
-0

>  <r_epik_Charging_Adjusted_Penalty>  (284) 
0

>  <i_epik_Tot_Q>  (284) 
0

>  <i_epik_Tot_abs_Q>  (284) 
0

>  <s_lp_Force_Field>  (284) 
OPLS3e

>  <r_lp_Energy>  (284) 
8.73082

>  <b_lp_Chiralities_Consistent>  (284) 
1

>  <s_lp_Variant>  (284) 
88:0-1

>  <s_i_glide_gridfile>  (284) 
pfpi4k_grid

>  <i_i_glide_lignum>  (284) 
12

>  <i_i_glide_rotatable_bonds>  (284) 
0

>  <r_i_docking_score>  (284) 
-3.77775

>  <r_i_glide_ligand_efficiency>  (284) 
-0.377775

>  <r_i_glide_ligand_efficiency_sa>  (284) 
-0.813891

>  <r_i_glide_ligand_efficiency_ln>  (284) 
-1.14388

>  <r_i_glide_gscore>  (284) 
-3.77775

>  <r_i_glide_lipo>  (284) 
-0.304819

>  <r_i_glide_hbond>  (284) 
0

>  <r_i_glide_metal>  (284) 
-0

>  <r_i_glide_rewards>  (284) 
-2.25

>  <r_i_glide_evdw>  (284) 
-16.5294

>  <r_i_glide_ecoul>  (284) 
-1.7484

>  <r_i_glide_erotb>  (284) 
0

>  <r_i_glide_esite>  (284) 
-0.134198

>  <r_i_glide_emodel>  (284) 
-23.5691

>  <r_i_glide_energy>  (284) 
-18.2778

>  <r_i_glide_einternal>  (284) 
0

>  <r_i_glide_intrahb_reward>  (284) 
-0

>  <i_i_glide_confnum>  (284) 
1

>  <i_i_glide_posenum>  (284) 
2

>  <r_i_glide_eff_state_penalty>  (284) 
0

>  <ligand_id>  (284) 
88

>  <original_smiles>  (284) 
Cc1ncn2nccc2n1

>  <smiles>  (284) 
[H]c1nn2c([H])nc(C([H])([H])[H])nc2c1[H]

$$$$
89:0:0
     RDKit          3D

 40 43  0  0  1  0  0  0  0  0999 V2000
    2.5105   -5.4473    0.8959 C   0  0  0  0  0  0  0  0  0  0  0  0
    3.8986   -4.9963    0.4013 C   0  0  2  0  0  0  0  0  0  0  0  0
    4.9134   -4.9973    1.5574 C   0  0  0  0  0  0  0  0  0  0  0  0
    6.3395   -4.8388    1.0302 C   0  0  0  0  0  0  0  0  0  0  0  0
    6.5348   -3.7321   -0.0275 C   0  0  2  0  0  0  0  0  0  0  0  0
    7.2183   -2.4485    0.4396 C   0  0  1  0  0  0  0  0  0  0  0  0
    8.7556   -2.5180    0.4229 C   0  0  0  0  0  0  0  0  0  0  0  0
    6.8269   -1.5186   -0.5450 O   0  0  0  0  0  0  0  0  0  0  0  0
    5.5076   -1.7512   -0.8872 C   0  0  1  0  0  0  0  0  0  0  0  0
    5.2120   -1.2251   -2.1307 O   0  0  0  0  0  0  0  0  0  0  0  0
    4.2485   -1.9389   -2.8885 C   0  0  2  0  0  0  0  0  0  0  0  0
    4.0370   -1.1093   -4.1624 C   0  0  0  0  0  0  0  0  0  0  0  0
    2.9206   -2.1207   -2.1497 C   0  0  0  0  0  0  0  0  0  0  0  0
    2.7906   -3.3845   -1.2724 C   0  0  0  0  0  0  0  0  0  0  0  0
    3.9144   -3.5948   -0.2491 C   0  0  2  0  0  0  0  0  0  0  0  0
    5.3114   -3.2814   -0.8637 C   0  0  2  0  0  0  0  0  0  0  0  0
    5.5405   -3.8460   -2.1659 O   0  0  0  0  0  0  0  0  0  0  0  0
    4.6701   -3.2338   -3.2548 O   0  0  0  0  0  0  0  0  0  0  0  0
    2.0747   -4.7193    1.5814 H   0  0  0  0  0  0  0  0  0  0  0  0
    2.5768   -6.4013    1.4171 H   0  0  0  0  0  0  0  0  0  0  0  0
    1.8275   -5.5909    0.0598 H   0  0  0  0  0  0  0  0  0  0  0  0
    4.2218   -5.7291   -0.3421 H   0  0  0  0  0  0  0  0  0  0  0  0
    4.6826   -4.1935    2.2603 H   0  0  0  0  0  0  0  0  0  0  0  0
    4.8375   -5.9259    2.1275 H   0  0  0  0  0  0  0  0  0  0  0  0
    7.0067   -4.6726    1.8738 H   0  0  0  0  0  0  0  0  0  0  0  0
    6.6372   -5.7920    0.5937 H   0  0  0  0  0  0  0  0  0  0  0  0
    7.2448   -4.1699   -0.7286 H   0  0  0  0  0  0  0  0  0  0  0  0
    6.8360   -2.1191    1.4067 H   0  0  0  0  0  0  0  0  0  0  0  0
    9.1384   -3.2401    1.1435 H   0  0  0  0  0  0  0  0  0  0  0  0
    9.1881   -1.5455    0.6576 H   0  0  0  0  0  0  0  0  0  0  0  0
    9.1405   -2.7997   -0.5618 H   0  0  0  0  0  0  0  0  0  0  0  0
    4.9082   -1.2429   -0.1314 H   0  0  0  0  0  0  0  0  0  0  0  0
    4.9811   -0.9789   -4.6889 H   0  0  0  0  0  0  0  0  0  0  0  0
    3.6392   -0.1170   -3.9449 H   0  0  0  0  0  0  0  0  0  0  0  0
    3.3423   -1.6007   -4.8469 H   0  0  0  0  0  0  0  0  0  0  0  0
    2.7183   -1.2266   -1.5616 H   0  0  0  0  0  0  0  0  0  0  0  0
    2.1089   -2.1861   -2.8813 H   0  0  0  0  0  0  0  0  0  0  0  0
    1.8391   -3.3218   -0.7473 H   0  0  0  0  0  0  0  0  0  0  0  0
    2.7200   -4.2556   -1.9134 H   0  0  0  0  0  0  0  0  0  0  0  0
    3.7259   -2.8911    0.5622 H   0  0  0  0  0  0  0  0  0  0  0  0
  1  2  1  0
  1 19  1  0
  1 20  1  0
  1 21  1  0
  2 15  1  0
  2  3  1  0
  2 22  1  6
  3  4  1  0
  3 23  1  0
  3 24  1  0
  4  5  1  0
  4 25  1  0
  4 26  1  0
  5 16  1  0
  5  6  1  0
  5 27  1  6
  6  7  1  0
  6  8  1  0
  6 28  1  1
  7 29  1  0
  7 30  1  0
  7 31  1  0
  8  9  1  0
  9 16  1  0
  9 10  1  0
  9 32  1  1
 10 11  1  0
 11 18  1  0
 11 12  1  6
 11 13  1  0
 12 33  1  0
 12 34  1  0
 12 35  1  0
 13 14  1  0
 13 36  1  0
 13 37  1  0
 14 15  1  0
 14 38  1  0
 14 39  1  0
 15 16  1  0
 15 40  1  1
 16 17  1  6
 17 18  1  0
M  END
>  <i_m_ct_stereo_status>  (285) 
1

>  <s_m_source_file>  (285) 
/var/tmp/pbs.5076255.sched01/tmp2gjrvvgn/102_qij5c5l.sdf

>  <i_m_source_file_index>  (285) 
13

>  <i_lp_mmshare_version>  (285) 
48012

>  <i_f3d_flags>  (285) 
0

>  <s_epik_input>  (285) 
W0NAQF0xMjNbQ0BASF00W0NIMl1bQ0gyXVtDQEBIXShbQ0gzXSlbQ0BASF0yW0NIMl1bQ0gyXVtDQF0oW0NIM10pKE9PMylPW0NAQEhdMU9bQ0BASF00W0NIM10=

>  <s_epik_cmdline>  (285) 
J2VwaWtfcHl0aG9uJywgJy1waHQnLCAnMi4wJywgJy1waCcsICc3LjAnLCAnLXRuJywgJzgnLCAnLW1hJywgJzIwMCcsICctaW1hZScsICc8aW5maWxlLm1hZT4nLCAnLW9tYWUnLCAnPG91dGZpbGUubWFlPic=

>  <r_lp_tautomer_probability>  (285) 
1

>  <r_epik_Ionization_Penalty>  (285) 
3.85466e-14

>  <r_epik_Ionization_Penalty_Charging>  (285) 
0

>  <r_epik_Ionization_Penalty_Neutral>  (285) 
3.85466e-14

>  <r_epik_State_Penalty>  (285) 
-0

>  <r_epik_Charging_Adjusted_Penalty>  (285) 
0

>  <i_epik_Tot_Q>  (285) 
0

>  <i_epik_Tot_abs_Q>  (285) 
0

>  <s_epik_Chemistry_Notes>  (285) 
This compound contains an acetal/aminal-like group ( X-CH(R)-Y where X, Y are N, S, or O) that may be acid/base labile, releasing an aldehyde.

>  <s_lp_Force_Field>  (285) 
OPLS3e

>  <r_lp_Energy>  (285) 
28.2047

>  <b_lp_Chiralities_Consistent>  (285) 
1

>  <s_lp_Variant>  (285) 
89:0-1

>  <s_i_glide_gridfile>  (285) 
pfpi4k_grid

>  <i_i_glide_lignum>  (285) 
13

>  <i_i_glide_rotatable_bonds>  (285) 
0

>  <r_i_docking_score>  (285) 
-4.00333

>  <r_i_glide_ligand_efficiency>  (285) 
-0.222407

>  <r_i_glide_ligand_efficiency_sa>  (285) 
-0.582872

>  <r_i_glide_ligand_efficiency_ln>  (285) 
-1.02904

>  <r_i_glide_gscore>  (285) 
-4.00333

>  <r_i_glide_lipo>  (285) 
-0.576216

>  <r_i_glide_hbond>  (285) 
-0.133751

>  <r_i_glide_metal>  (285) 
-0

>  <r_i_glide_rewards>  (285) 
-1.75765

>  <r_i_glide_evdw>  (285) 
-20.3778

>  <r_i_glide_ecoul>  (285) 
-3.17123

>  <r_i_glide_erotb>  (285) 
0

>  <r_i_glide_esite>  (285) 
-0.0411471

>  <r_i_glide_emodel>  (285) 
-29.05

>  <r_i_glide_energy>  (285) 
-23.549

>  <r_i_glide_einternal>  (285) 
0

>  <r_i_glide_intrahb_reward>  (285) 
-0

>  <i_i_glide_confnum>  (285) 
1

>  <i_i_glide_posenum>  (285) 
1

>  <r_i_glide_eff_state_penalty>  (285) 
0

>  <ligand_id>  (285) 
89

>  <original_smiles>  (285) 
CC1CCC2C(C)OC3OC4(C)CCC1C32OO4

>  <smiles>  (285) 
[H]C([H])([H])C1([H])OC2([H])OC3(C([H])([H])[H])OOC24C1([H])C([H])([H])C([H])([H])C([H])(C([H])([H])[H])C4([H])C([H])([H])C3([H])[H]

$$$$
89:0:1
     RDKit          3D

 40 43  0  0  1  0  0  0  0  0999 V2000
    2.3696   -3.0192   -2.8992 C   0  0  0  0  0  0  0  0  0  0  0  0
    3.5137   -2.6922   -1.9095 C   0  0  2  0  0  0  0  0  0  0  0  0
    4.8250   -2.4726   -2.6668 C   0  0  0  0  0  0  0  0  0  0  0  0
    5.8714   -1.8546   -1.7462 C   0  0  0  0  0  0  0  0  0  0  0  0
    6.0193   -2.5017   -0.3542 C   0  0  2  0  0  0  0  0  0  0  0  0
    7.2425   -3.3889   -0.1786 C   0  0  1  0  0  0  0  0  0  0  0  0
    8.5377   -2.6367    0.1120 C   0  0  0  0  0  0  0  0  0  0  0  0
    6.8866   -4.1455    0.9583 O   0  0  0  0  0  0  0  0  0  0  0  0
    5.5384   -4.4847    0.8357 C   0  0  1  0  0  0  0  0  0  0  0  0
    4.9747   -4.8012    2.0439 O   0  0  0  0  0  0  0  0  0  0  0  0
    3.5974   -4.5026    2.1831 C   0  0  2  0  0  0  0  0  0  0  0  0
    3.2179   -5.0155    3.5706 C   0  0  0  0  0  0  0  0  0  0  0  0
    2.6990   -5.1326    1.1061 C   0  0  0  0  0  0  0  0  0  0  0  0
    2.4990   -4.2250   -0.1346 C   0  0  0  0  0  0  0  0  0  0  0  0
    3.7755   -3.7662   -0.8295 C   0  0  2  0  0  0  0  0  0  0  0  0
    4.8196   -3.2595    0.2113 C   0  0  2  0  0  0  0  0  0  0  0  0
    4.2876   -2.3799    1.2325 O   0  0  0  0  0  0  0  0  0  0  0  0
    3.3137   -3.1194    2.1592 O   0  0  0  0  0  0  0  0  0  0  0  0
    2.5107   -3.9664   -3.4123 H   0  0  0  0  0  0  0  0  0  0  0  0
    2.2866   -2.2531   -3.6635 H   0  0  0  0  0  0  0  0  0  0  0  0
    1.4164   -3.0469   -2.3857 H   0  0  0  0  0  0  0  0  0  0  0  0
    3.2274   -1.7549   -1.4216 H   0  0  0  0  0  0  0  0  0  0  0  0
    5.1926   -3.4206   -3.0679 H   0  0  0  0  0  0  0  0  0  0  0  0
    4.6604   -1.8149   -3.5317 H   0  0  0  0  0  0  0  0  0  0  0  0
    6.8085   -1.9625   -2.2751 H   0  0  0  0  0  0  0  0  0  0  0  0
    5.6474   -0.8021   -1.6271 H   0  0  0  0  0  0  0  0  0  0  0  0
    6.1855   -1.6495    0.3262 H   0  0  0  0  0  0  0  0  0  0  0  0
    7.3661   -4.0357   -1.0324 H   0  0  0  0  0  0  0  0  0  0  0  0
    8.9180   -2.0723   -0.7331 H   0  0  0  0  0  0  0  0  0  0  0  0
    9.3200   -3.3114    0.4483 H   0  0  0  0  0  0  0  0  0  0  0  0
    8.3685   -1.9076    0.8963 H   0  0  0  0  0  0  0  0  0  0  0  0
    5.4989   -5.3599    0.1800 H   0  0  0  0  0  0  0  0  0  0  0  0
    3.8839   -4.5848    4.3272 H   0  0  0  0  0  0  0  0  0  0  0  0
    3.3094   -6.1024    3.6348 H   0  0  0  0  0  0  0  0  0  0  0  0
    2.1843   -4.7450    3.8462 H   0  0  0  0  0  0  0  0  0  0  0  0
    3.0615   -6.1208    0.8179 H   0  0  0  0  0  0  0  0  0  0  0  0
    1.6968   -5.2900    1.5326 H   0  0  0  0  0  0  0  0  0  0  0  0
    1.8718   -4.7646   -0.8476 H   0  0  0  0  0  0  0  0  0  0  0  0
    1.9307   -3.3330    0.1481 H   0  0  0  0  0  0  0  0  0  0  0  0
    4.1963   -4.6266   -1.3531 H   0  0  0  0  0  0  0  0  0  0  0  0
  1  2  1  0
  1 19  1  0
  1 20  1  0
  1 21  1  0
  2 15  1  0
  2  3  1  0
  2 22  1  1
  3  4  1  0
  3 23  1  0
  3 24  1  0
  4  5  1  0
  4 25  1  0
  4 26  1  0
  5 16  1  0
  5  6  1  0
  5 27  1  1
  6  7  1  0
  6  8  1  0
  6 28  1  6
  7 29  1  0
  7 30  1  0
  7 31  1  0
  8  9  1  0
  9 16  1  0
  9 10  1  0
  9 32  1  6
 10 11  1  0
 11 18  1  0
 11 12  1  1
 11 13  1  0
 12 33  1  0
 12 34  1  0
 12 35  1  0
 13 14  1  0
 13 36  1  0
 13 37  1  0
 14 15  1  0
 14 38  1  0
 14 39  1  0
 15 16  1  0
 15 40  1  6
 16 17  1  1
 17 18  1  0
M  END
>  <i_m_ct_stereo_status>  (286) 
1

>  <s_m_source_file>  (286) 
/var/tmp/pbs.5076255.sched01/tmp2gjrvvgn/102_qij5c5l.sdf

>  <i_m_source_file_index>  (286) 
13

>  <i_lp_mmshare_version>  (286) 
48012

>  <i_f3d_flags>  (286) 
0

>  <s_epik_input>  (286) 
W0NAQF0xMjNbQ0BASF00W0NIMl1bQ0gyXVtDQEBIXShbQ0gzXSlbQ0BASF0yW0NIMl1bQ0gyXVtDQF0oW0NIM10pKE9PMylPW0NAQEhdMU9bQ0BASF00W0NIM10=

>  <s_epik_cmdline>  (286) 
J2VwaWtfcHl0aG9uJywgJy1waHQnLCAnMi4wJywgJy1waCcsICc3LjAnLCAnLXRuJywgJzgnLCAnLW1hJywgJzIwMCcsICctaW1hZScsICc8aW5maWxlLm1hZT4nLCAnLW9tYWUnLCAnPG91dGZpbGUubWFlPic=

>  <r_lp_tautomer_probability>  (286) 
1

>  <r_epik_Ionization_Penalty>  (286) 
3.85466e-14

>  <r_epik_Ionization_Penalty_Charging>  (286) 
0

>  <r_epik_Ionization_Penalty_Neutral>  (286) 
3.85466e-14

>  <r_epik_State_Penalty>  (286) 
-0

>  <r_epik_Charging_Adjusted_Penalty>  (286) 
0

>  <i_epik_Tot_Q>  (286) 
0

>  <i_epik_Tot_abs_Q>  (286) 
0

>  <s_epik_Chemistry_Notes>  (286) 
This compound contains an acetal/aminal-like group ( X-CH(R)-Y where X, Y are N, S, or O) that may be acid/base labile, releasing an aldehyde.

>  <s_lp_Force_Field>  (286) 
OPLS3e

>  <r_lp_Energy>  (286) 
28.2047

>  <b_lp_Chiralities_Consistent>  (286) 
1

>  <s_lp_Variant>  (286) 
89:0-1

>  <s_i_glide_gridfile>  (286) 
pfpi4k_grid

>  <i_i_glide_lignum>  (286) 
13

>  <i_i_glide_rotatable_bonds>  (286) 
0

>  <r_i_docking_score>  (286) 
-3.23696

>  <r_i_glide_ligand_efficiency>  (286) 
-0.179831

>  <r_i_glide_ligand_efficiency_sa>  (286) 
-0.47129

>  <r_i_glide_ligand_efficiency_ln>  (286) 
-0.832043

>  <r_i_glide_gscore>  (286) 
-3.23696

>  <r_i_glide_lipo>  (286) 
-0.468113

>  <r_i_glide_hbond>  (286) 
0

>  <r_i_glide_metal>  (286) 
-0

>  <r_i_glide_rewards>  (286) 
-1.76919

>  <r_i_glide_evdw>  (286) 
-20.4008

>  <r_i_glide_ecoul>  (286) 
0.135941

>  <r_i_glide_erotb>  (286) 
0

>  <r_i_glide_esite>  (286) 
0

>  <r_i_glide_emodel>  (286) 
-24.4854

>  <r_i_glide_energy>  (286) 
-20.2649

>  <r_i_glide_einternal>  (286) 
0

>  <r_i_glide_intrahb_reward>  (286) 
-0

>  <i_i_glide_confnum>  (286) 
1

>  <i_i_glide_posenum>  (286) 
5

>  <r_i_glide_eff_state_penalty>  (286) 
0

>  <ligand_id>  (286) 
89

>  <original_smiles>  (286) 
CC1CCC2C(C)OC3OC4(C)CCC1C32OO4

>  <smiles>  (286) 
[H]C([H])([H])C1([H])OC2([H])OC3(C([H])([H])[H])OOC24C1([H])C([H])([H])C([H])([H])C([H])(C([H])([H])[H])C4([H])C([H])([H])C3([H])[H]

$$$$
89:0:2
     RDKit          3D

 40 43  0  0  1  0  0  0  0  0999 V2000
    4.8061   -2.9323   -2.4843 C   0  0  0  0  0  0  0  0  0  0  0  0
    4.3310   -2.5146   -1.0773 C   0  0  2  0  0  0  0  0  0  0  0  0
    4.8134   -1.0958   -0.7406 C   0  0  0  0  0  0  0  0  0  0  0  0
    4.1174   -0.5626    0.5143 C   0  0  0  0  0  0  0  0  0  0  0  0
    4.0344   -1.5410    1.7074 C   0  0  2  0  0  0  0  0  0  0  0  0
    4.9921   -1.2744    2.8734 C   0  0  1  0  0  0  0  0  0  0  0  0
    4.4843   -0.2342    3.8840 C   0  0  0  0  0  0  0  0  0  0  0  0
    5.0154   -2.5235    3.5350 O   0  0  0  0  0  0  0  0  0  0  0  0
    5.0503   -3.5199    2.5730 C   0  0  1  0  0  0  0  0  0  0  0  0
    4.6331   -4.7376    3.0835 O   0  0  0  0  0  0  0  0  0  0  0  0
    3.9693   -5.5967    2.1717 C   0  0  2  0  0  0  0  0  0  0  0  0
    3.6636   -6.8595    2.9874 C   0  0  0  0  0  0  0  0  0  0  0  0
    4.8003   -5.9255    0.9096 C   0  0  0  0  0  0  0  0  0  0  0  0
    4.5790   -4.9433   -0.2645 C   0  0  0  0  0  0  0  0  0  0  0  0
    4.7955   -3.4554    0.0586 C   0  0  2  0  0  0  0  0  0  0  0  0
    4.1364   -3.0537    1.4171 C   0  0  2  0  0  0  0  0  0  0  0  0
    2.8000   -3.5520    1.6087 O   0  0  0  0  0  0  0  0  0  0  0  0
    2.7387   -5.0686    1.7047 O   0  0  0  0  0  0  0  0  0  0  0  0
    5.8898   -3.0560   -2.5283 H   0  0  0  0  0  0  0  0  0  0  0  0
    4.5219   -2.1876   -3.2246 H   0  0  0  0  0  0  0  0  0  0  0  0
    4.3426   -3.8683   -2.7883 H   0  0  0  0  0  0  0  0  0  0  0  0
    3.2375   -2.5050   -1.1025 H   0  0  0  0  0  0  0  0  0  0  0  0
    5.8960   -1.0918   -0.5953 H   0  0  0  0  0  0  0  0  0  0  0  0
    4.6172   -0.4182   -1.5764 H   0  0  0  0  0  0  0  0  0  0  0  0
    4.6035    0.3635    0.8157 H   0  0  0  0  0  0  0  0  0  0  0  0
    3.0999   -0.2902    0.2327 H   0  0  0  0  0  0  0  0  0  0  0  0
    3.0373   -1.3771    2.1227 H   0  0  0  0  0  0  0  0  0  0  0  0
    5.9952   -1.0299    2.5203 H   0  0  0  0  0  0  0  0  0  0  0  0
    4.4036    0.7581    3.4407 H   0  0  0  0  0  0  0  0  0  0  0  0
    5.1545   -0.1667    4.7398 H   0  0  0  0  0  0  0  0  0  0  0  0
    3.4986   -0.5014    4.2736 H   0  0  0  0  0  0  0  0  0  0  0  0
    6.0930   -3.6024    2.2603 H   0  0  0  0  0  0  0  0  0  0  0  0
    3.1031   -6.6049    3.8890 H   0  0  0  0  0  0  0  0  0  0  0  0
    4.5792   -7.3626    3.3053 H   0  0  0  0  0  0  0  0  0  0  0  0
    3.0686   -7.5759    2.4154 H   0  0  0  0  0  0  0  0  0  0  0  0
    5.8578   -6.0119    1.1597 H   0  0  0  0  0  0  0  0  0  0  0  0
    4.4979   -6.9104    0.5442 H   0  0  0  0  0  0  0  0  0  0  0  0
    5.2464   -5.2376   -1.0718 H   0  0  0  0  0  0  0  0  0  0  0  0
    3.5654   -5.0666   -0.6498 H   0  0  0  0  0  0  0  0  0  0  0  0
    5.8739   -3.3135    0.1397 H   0  0  0  0  0  0  0  0  0  0  0  0
  1  2  1  0
  1 19  1  0
  1 20  1  0
  1 21  1  0
  2 15  1  0
  2  3  1  0
  2 22  1  6
  3  4  1  0
  3 23  1  0
  3 24  1  0
  4  5  1  0
  4 25  1  0
  4 26  1  0
  5 16  1  0
  5  6  1  0
  5 27  1  1
  6  7  1  0
  6  8  1  0
  6 28  1  6
  7 29  1  0
  7 30  1  0
  7 31  1  0
  8  9  1  0
  9 16  1  0
  9 10  1  0
  9 32  1  6
 10 11  1  0
 11 18  1  0
 11 12  1  1
 11 13  1  0
 12 33  1  0
 12 34  1  0
 12 35  1  0
 13 14  1  0
 13 36  1  0
 13 37  1  0
 14 15  1  0
 14 38  1  0
 14 39  1  0
 15 16  1  0
 15 40  1  1
 16 17  1  1
 17 18  1  0
M  END
>  <i_m_ct_stereo_status>  (287) 
1

>  <s_m_source_file>  (287) 
/var/tmp/pbs.5076255.sched01/tmp2gjrvvgn/102_qij5c5l.sdf

>  <i_m_source_file_index>  (287) 
13

>  <i_lp_mmshare_version>  (287) 
48012

>  <i_f3d_flags>  (287) 
0

>  <s_epik_input>  (287) 
W0NAQF0xMjNbQ0BASF00W0NIMl1bQ0gyXVtDQEBIXShbQ0gzXSlbQ0BASF0yW0NIMl1bQ0gyXVtDQF0oW0NIM10pKE9PMylPW0NAQEhdMU9bQ0BASF00W0NIM10=

>  <s_epik_cmdline>  (287) 
J2VwaWtfcHl0aG9uJywgJy1waHQnLCAnMi4wJywgJy1waCcsICc3LjAnLCAnLXRuJywgJzgnLCAnLW1hJywgJzIwMCcsICctaW1hZScsICc8aW5maWxlLm1hZT4nLCAnLW9tYWUnLCAnPG91dGZpbGUubWFlPic=

>  <r_lp_tautomer_probability>  (287) 
1

>  <r_epik_Ionization_Penalty>  (287) 
3.85466e-14

>  <r_epik_Ionization_Penalty_Charging>  (287) 
0

>  <r_epik_Ionization_Penalty_Neutral>  (287) 
3.85466e-14

>  <r_epik_State_Penalty>  (287) 
-0

>  <r_epik_Charging_Adjusted_Penalty>  (287) 
0

>  <i_epik_Tot_Q>  (287) 
0

>  <i_epik_Tot_abs_Q>  (287) 
0

>  <s_epik_Chemistry_Notes>  (287) 
This compound contains an acetal/aminal-like group ( X-CH(R)-Y where X, Y are N, S, or O) that may be acid/base labile, releasing an aldehyde.

>  <s_lp_Force_Field>  (287) 
OPLS3e

>  <r_lp_Energy>  (287) 
28.2047

>  <b_lp_Chiralities_Consistent>  (287) 
1

>  <s_lp_Variant>  (287) 
89:0-1

>  <s_i_glide_gridfile>  (287) 
pfpi4k_grid

>  <i_i_glide_lignum>  (287) 
13

>  <i_i_glide_rotatable_bonds>  (287) 
0

>  <r_i_docking_score>  (287) 
-3.1977

>  <r_i_glide_ligand_efficiency>  (287) 
-0.17765

>  <r_i_glide_ligand_efficiency_sa>  (287) 
-0.465575

>  <r_i_glide_ligand_efficiency_ln>  (287) 
-0.821952

>  <r_i_glide_gscore>  (287) 
-3.1977

>  <r_i_glide_lipo>  (287) 
-0.478935

>  <r_i_glide_hbond>  (287) 
0

>  <r_i_glide_metal>  (287) 
-0

>  <r_i_glide_rewards>  (287) 
-1.74143

>  <r_i_glide_evdw>  (287) 
-19.1722

>  <r_i_glide_ecoul>  (287) 
-0.124804

>  <r_i_glide_erotb>  (287) 
0

>  <r_i_glide_esite>  (287) 
0

>  <r_i_glide_emodel>  (287) 
-23.6234

>  <r_i_glide_energy>  (287) 
-19.297

>  <r_i_glide_einternal>  (287) 
0

>  <r_i_glide_intrahb_reward>  (287) 
-0

>  <i_i_glide_confnum>  (287) 
2

>  <i_i_glide_posenum>  (287) 
36

>  <r_i_glide_eff_state_penalty>  (287) 
0

>  <ligand_id>  (287) 
89

>  <original_smiles>  (287) 
CC1CCC2C(C)OC3OC4(C)CCC1C32OO4

>  <smiles>  (287) 
[H]C([H])([H])C1([H])OC2([H])OC3(C([H])([H])[H])OOC24C1([H])C([H])([H])C([H])([H])C([H])(C([H])([H])[H])C4([H])C([H])([H])C3([H])[H]

$$$$
92:0:0
     RDKit          3D

 92 99  0  0  1  0  0  0  0  0999 V2000
    0.3398   -3.7665    9.7557 C   0  0  0  0  0  0  0  0  0  0  0  0
   -0.3501   -3.4794    8.5495 O   0  0  0  0  0  0  0  0  0  0  0  0
    0.3807   -3.4510    7.3826 C   0  0  0  0  0  0  0  0  0  0  0  0
   -0.3427   -3.2126    6.2024 C   0  0  0  0  0  0  0  0  0  0  0  0
    0.3133   -3.1641    4.9643 C   0  0  0  0  0  0  0  0  0  0  0  0
    1.7119   -3.3184    4.8883 C   0  0  0  0  0  0  0  0  0  0  0  0
    2.3635   -3.2474    3.6455 N   0  0  0  0  0  0  0  0  0  0  0  0
    2.5283   -1.9997    3.0238 C   0  0  0  0  0  0  0  0  0  0  0  0
    1.6773   -0.9542    3.1825 C   0  0  0  0  0  0  0  0  0  0  0  0
    1.8050    0.3980    2.5097 C   0  0  0  0  0  0  0  0  0  0  0  0
    0.4087    0.8614    2.0431 C   0  0  0  0  0  0  0  0  0  0  0  0
    2.3687    1.3889    3.5507 C   0  0  0  0  0  0  0  0  0  0  0  0
    2.7282    0.2993    1.2798 C   0  0  0  0  0  0  0  0  0  0  0  0
    3.9888   -0.5086    1.5566 C   0  0  0  0  0  0  0  0  0  0  0  0
    5.1071   -0.0682    1.3017 O   0  0  0  0  0  0  0  0  0  0  0  0
    3.7947   -1.9062    2.1704 C   0  0  2  0  0  0  0  0  0  0  0  0
    3.8302   -3.0538    1.1399 C   0  0  1  0  0  0  0  0  0  0  0  0
    5.1280   -3.0722    0.3401 C   0  0  0  0  0  0  0  0  0  0  0  0
    5.1056   -3.0310   -1.0666 C   0  0  0  0  0  0  0  0  0  0  0  0
    6.3331   -3.0379   -1.7621 C   0  0  0  0  0  0  0  0  0  0  0  0
    7.5341   -3.0491   -1.1436 N   0  0  0  0  0  0  0  0  0  0  0  0
    7.5494   -3.1074    0.2043 C   0  0  0  0  0  0  0  0  0  0  0  0
    6.3778   -3.1191    0.9887 C   0  0  0  0  0  0  0  0  0  0  0  0
    3.4963   -4.3866    1.8184 C   0  0  0  0  0  0  0  0  0  0  0  0
    2.8271   -4.4177    2.9954 C   0  0  0  0  0  0  0  0  0  0  0  0
    2.4839   -5.7590    3.6616 C   0  0  0  0  0  0  0  0  0  0  0  0
    2.3119   -6.9417    2.6772 C   0  0  1  0  0  0  0  0  0  0  0  0
    0.9715   -6.7932    1.9285 C   0  0  0  0  0  0  0  0  0  0  0  0
    3.5038   -6.9947    1.7103 C   0  0  1  0  0  0  0  0  0  0  0  0
    3.8742   -5.6530    1.0408 C   0  0  0  0  0  0  0  0  0  0  0  0
    4.6282   -7.6624    2.5167 C   0  0  0  0  0  0  0  0  0  0  0  0
    3.9279   -8.6925    3.4276 C   0  0  1  0  0  0  0  0  0  0  0  0
    4.4960   -8.7685    4.8696 C   0  0  2  0  0  0  0  0  0  0  0  0
    5.9367   -9.3189    4.9129 C   0  0  0  0  0  0  0  0  0  0  0  0
    5.8631  -10.7657    5.4171 C   0  0  0  0  0  0  0  0  0  0  0  0
    4.3775  -11.0710    5.6087 C   0  0  1  0  0  0  0  0  0  0  0  0
    4.1804  -11.9826    6.6723 O   0  0  0  0  0  0  0  0  0  0  0  0
    3.6821   -9.7053    5.8093 C   0  0  1  0  0  0  0  0  0  0  0  0
    3.8175   -9.1970    7.2674 C   0  0  0  0  0  0  0  0  0  0  0  0
    2.1809   -9.7929    5.4177 C   0  0  0  0  0  0  0  0  0  0  0  0
    1.6802   -8.5276    4.7099 C   0  0  0  0  0  0  0  0  0  0  0  0
    2.4258   -8.3268    3.3716 C   0  0  1  0  0  0  0  0  0  0  0  0
    2.4422   -3.5650    6.0665 C   0  0  0  0  0  0  0  0  0  0  0  0
    1.7834   -3.6329    7.3088 C   0  0  0  0  0  0  0  0  0  0  0  0
   -0.3751   -3.7882   10.5781 H   0  0  0  0  0  0  0  0  0  0  0  0
    1.0813   -2.9964    9.9745 H   0  0  0  0  0  0  0  0  0  0  0  0
    0.8310   -4.7407    9.7139 H   0  0  0  0  0  0  0  0  0  0  0  0
   -1.4106   -3.0659    6.2375 H   0  0  0  0  0  0  0  0  0  0  0  0
   -0.2522   -2.9963    4.0639 H   0  0  0  0  0  0  0  0  0  0  0  0
    0.7976   -1.0281    3.8011 H   0  0  0  0  0  0  0  0  0  0  0  0
    0.4536    1.8298    1.5434 H   0  0  0  0  0  0  0  0  0  0  0  0
   -0.2925    0.9495    2.8747 H   0  0  0  0  0  0  0  0  0  0  0  0
   -0.0151    0.1499    1.3318 H   0  0  0  0  0  0  0  0  0  0  0  0
    2.5128    2.3822    3.1218 H   0  0  0  0  0  0  0  0  0  0  0  0
    3.3342    1.0488    3.9346 H   0  0  0  0  0  0  0  0  0  0  0  0
    1.6990    1.4858    4.4090 H   0  0  0  0  0  0  0  0  0  0  0  0
    2.2168   -0.2178    0.4765 H   0  0  0  0  0  0  0  0  0  0  0  0
    2.9808    1.2943    0.9157 H   0  0  0  0  0  0  0  0  0  0  0  0
    4.6247   -2.0375    2.8662 H   0  0  0  0  0  0  0  0  0  0  0  0
    3.0210   -2.8768    0.4286 H   0  0  0  0  0  0  0  0  0  0  0  0
    4.1734   -2.9952   -1.6115 H   0  0  0  0  0  0  0  0  0  0  0  0
    6.3516   -3.0232   -2.8435 H   0  0  0  0  0  0  0  0  0  0  0  0
    8.5239   -3.1465    0.6720 H   0  0  0  0  0  0  0  0  0  0  0  0
    6.4497   -3.1512    2.0651 H   0  0  0  0  0  0  0  0  0  0  0  0
    3.3010   -5.9747    4.3491 H   0  0  0  0  0  0  0  0  0  0  0  0
    1.5835   -5.6911    4.2687 H   0  0  0  0  0  0  0  0  0  0  0  0
    0.8271   -7.5875    1.1953 H   0  0  0  0  0  0  0  0  0  0  0  0
    0.9401   -5.8422    1.3984 H   0  0  0  0  0  0  0  0  0  0  0  0
    0.1357   -6.8180    2.6287 H   0  0  0  0  0  0  0  0  0  0  0  0
    3.2589   -7.6932    0.9103 H   0  0  0  0  0  0  0  0  0  0  0  0
    3.3309   -5.5871    0.0966 H   0  0  0  0  0  0  0  0  0  0  0  0
    4.9335   -5.6547    0.7801 H   0  0  0  0  0  0  0  0  0  0  0  0
    5.3604   -8.1405    1.8645 H   0  0  0  0  0  0  0  0  0  0  0  0
    5.1618   -6.9206    3.1124 H   0  0  0  0  0  0  0  0  0  0  0  0
    4.0393   -9.6829    2.9812 H   0  0  0  0  0  0  0  0  0  0  0  0
    4.4940   -7.7566    5.2804 H   0  0  0  0  0  0  0  0  0  0  0  0
    6.4314   -9.2634    3.9444 H   0  0  0  0  0  0  0  0  0  0  0  0
    6.5398   -8.7326    5.6091 H   0  0  0  0  0  0  0  0  0  0  0  0
    6.3109  -11.4646    4.7101 H   0  0  0  0  0  0  0  0  0  0  0  0
    6.4123  -10.8650    6.3532 H   0  0  0  0  0  0  0  0  0  0  0  0
    4.0212  -11.5271    4.6826 H   0  0  0  0  0  0  0  0  0  0  0  0
    3.2516  -12.1941    6.7433 H   0  0  0  0  0  0  0  0  0  0  0  0
    3.3180   -9.8498    7.9862 H   0  0  0  0  0  0  0  0  0  0  0  0
    3.3829   -8.2047    7.3927 H   0  0  0  0  0  0  0  0  0  0  0  0
    4.8579   -9.1264    7.5824 H   0  0  0  0  0  0  0  0  0  0  0  0
    1.9968  -10.6488    4.7660 H   0  0  0  0  0  0  0  0  0  0  0  0
    1.5719   -9.9924    6.2980 H   0  0  0  0  0  0  0  0  0  0  0  0
    0.6148   -8.6257    4.5183 H   0  0  0  0  0  0  0  0  0  0  0  0
    1.7903   -7.6781    5.3805 H   0  0  0  0  0  0  0  0  0  0  0  0
    1.9893   -9.0521    2.6874 H   0  0  0  0  0  0  0  0  0  0  0  0
    3.5127   -3.6979    6.0119 H   0  0  0  0  0  0  0  0  0  0  0  0
    2.3818   -3.8207    8.1858 H   0  0  0  0  0  0  0  0  0  0  0  0
  1  2  1  0
  1 45  1  0
  1 46  1  0
  1 47  1  0
  2  3  1  0
  3 44  2  0
  3  4  1  0
  4  5  2  0
  4 48  1  0
  5  6  1  0
  5 49  1  0
  6  7  1  0
  6 43  2  0
  7 25  1  0
  7  8  1  0
  8 16  1  0
  8  9  2  0
  9 10  1  0
  9 50  1  0
 10 11  1  0
 10 12  1  0
 10 13  1  0
 11 51  1  0
 11 52  1  0
 11 53  1  0
 12 54  1  0
 12 55  1  0
 12 56  1  0
 13 14  1  0
 13 57  1  0
 13 58  1  0
 14 15  2  0
 14 16  1  0
 16 17  1  0
 16 59  1  1
 17 18  1  0
 17 24  1  0
 17 60  1  6
 18 23  1  0
 18 19  2  0
 19 20  1  0
 19 61  1  0
 20 21  2  0
 20 62  1  0
 21 22  1  0
 22 23  2  0
 22 63  1  0
 23 64  1  0
 24 30  1  0
 24 25  2  0
 25 26  1  0
 26 27  1  0
 26 65  1  0
 26 66  1  0
 27 42  1  0
 27 28  1  6
 27 29  1  0
 28 67  1  0
 28 68  1  0
 28 69  1  0
 29 30  1  0
 29 31  1  0
 29 70  1  6
 30 71  1  0
 30 72  1  0
 31 32  1  0
 31 73  1  0
 31 74  1  0
 32 42  1  0
 32 33  1  0
 32 75  1  6
 33 38  1  0
 33 34  1  0
 33 76  1  1
 34 35  1  0
 34 77  1  0
 34 78  1  0
 35 36  1  0
 35 79  1  0
 35 80  1  0
 36 37  1  0
 36 38  1  0
 36 81  1  6
 37 82  1  0
 38 39  1  1
 38 40  1  0
 39 83  1  0
 39 84  1  0
 39 85  1  0
 40 41  1  0
 40 86  1  0
 40 87  1  0
 41 42  1  0
 41 88  1  0
 41 89  1  0
 42 90  1  6
 43 44  1  0
 43 91  1  0
 44 92  1  0
M  END
>  <i_m_ct_stereo_status>  (288) 
1

>  <s_m_source_file>  (288) 
/var/tmp/pbs.5076255.sched01/tmp2gjrvvgn/102_qij5c5l.sdf

>  <i_m_source_file_index>  (288) 
17

>  <i_lp_mmshare_version>  (288) 
48012

>  <i_f3d_flags>  (288) 
0

>  <s_epik_input>  (288) 
W2NIXTFbY0hdbltjSF1bY0hdYzFbQ0BASF0yW0NAQEhdKEMoPU8pW0NIMl1DKFtDSF0zKShbQ0gzXSlbQ0gzXSlDPTNOKGMoW2NIXVtjSF00KVtjSF1bY0hdYzRPW0NIM10pQyhbQ0gyXTUpPUMyW0NIMl1bQ0BIXShbQ0BdNTZbQ0gzXSlbQ0gyXVtDQEhdN1tDQEhdOFtDQF0oW0NIM10pKFtDQEhdKFtPSF0pW0NIMl1bQ0gyXTgpW0NIMl1bQ0gyXVtDQEBIXTY3

>  <s_epik_cmdline>  (288) 
J2VwaWtfcHl0aG9uJywgJy1waHQnLCAnMi4wJywgJy1waCcsICc3LjAnLCAnLXRuJywgJzgnLCAnLW1hJywgJzIwMCcsICctaW1hZScsICc8aW5maWxlLm1hZT4nLCAnLW9tYWUnLCAnPG91dGZpbGUubWFlPic=

>  <r_lp_tautomer_probability>  (288) 
0.99995

>  <r_epik_Ionization_Penalty>  (288) 
0.0405977

>  <r_epik_Ionization_Penalty_Charging>  (288) 
1.22349e-14

>  <r_epik_Ionization_Penalty_Neutral>  (288) 
0.0405977

>  <r_epik_State_Penalty>  (288) 
0.0341785

>  <r_epik_Charging_Adjusted_Penalty>  (288) 
0.0341785

>  <i_epik_Tot_Q>  (288) 
0

>  <i_epik_Tot_abs_Q>  (288) 
0

>  <s_epik_Chemistry_Notes>  (288) 
This compound has an imine and may undergo hydrolysis.

>  <s_lp_Force_Field>  (288) 
OPLS3e

>  <r_lp_Energy>  (288) 
80.5646

>  <b_lp_Chiralities_Consistent>  (288) 
1

>  <s_lp_Variant>  (288) 
92:0-1

>  <s_i_glide_gridfile>  (288) 
pfpi4k_grid

>  <i_i_glide_lignum>  (288) 
17

>  <i_i_glide_rotatable_bonds>  (288) 
4

>  <r_i_docking_score>  (288) 
-3.26484

>  <r_i_glide_ligand_efficiency>  (288) 
-0.0742008

>  <r_i_glide_ligand_efficiency_sa>  (288) 
-0.261955

>  <r_i_glide_ligand_efficiency_ln>  (288) 
-0.682422

>  <r_i_glide_gscore>  (288) 
-3.26484

>  <r_i_glide_lipo>  (288) 
-0.470844

>  <r_i_glide_hbond>  (288) 
-0.35179

>  <r_i_glide_metal>  (288) 
-0

>  <r_i_glide_rewards>  (288) 
-0.0823244

>  <r_i_glide_evdw>  (288) 
-32.7687

>  <r_i_glide_ecoul>  (288) 
-4.8668

>  <r_i_glide_erotb>  (288) 
0.00857816

>  <r_i_glide_esite>  (288) 
0

>  <r_i_glide_emodel>  (288) 
-45.2198

>  <r_i_glide_energy>  (288) 
-37.6355

>  <r_i_glide_einternal>  (288) 
0.775805

>  <r_i_glide_intrahb_reward>  (288) 
-0

>  <i_i_glide_confnum>  (288) 
4

>  <i_i_glide_posenum>  (288) 
8

>  <r_i_glide_eff_state_penalty>  (288) 
0

>  <ligand_id>  (288) 
92

>  <original_smiles>  (288) 
COc1ccc(N2C3=CC(C)(C)CC(=O)C3C(c3ccncc3)C3=C2CC2(C)C(C3)CC3C4CCC(O)C4(C)CCC32)cc1

>  <smiles>  (288) 
[H]OC1([H])C([H])([H])C([H])([H])C2([H])C3([H])C([H])([H])C4([H])C([H])([H])C5=C(N(c6c([H])c([H])c(OC([H])([H])[H])c([H])c6[H])C6=C([H])C(C([H])([H])[H])(C([H])([H])[H])C([H])([H])C(=O)C6([H])C5([H])c5c([H])c([H])nc([H])c5[H])C([H])([H])C4(C([H])([H])[H])C3([H])C([H])([H])C([H])([H])C12C([H])([H])[H]

$$$$
92:0:1
     RDKit          3D

 92 99  0  0  1  0  0  0  0  0999 V2000
   -1.2847   -4.6887    8.6165 C   0  0  0  0  0  0  0  0  0  0  0  0
   -0.0144   -4.0670    8.5047 O   0  0  0  0  0  0  0  0  0  0  0  0
    0.5555   -3.9726    7.2552 C   0  0  0  0  0  0  0  0  0  0  0  0
    1.8325   -3.3866    7.1733 C   0  0  0  0  0  0  0  0  0  0  0  0
    2.4877   -3.2604    5.9345 C   0  0  0  0  0  0  0  0  0  0  0  0
    1.8728   -3.7326    4.7574 C   0  0  0  0  0  0  0  0  0  0  0  0
    2.5276   -3.6091    3.5201 N   0  0  0  0  0  0  0  0  0  0  0  0
    2.7272   -2.3253    2.9902 C   0  0  0  0  0  0  0  0  0  0  0  0
    1.8675   -1.2988    3.2074 C   0  0  0  0  0  0  0  0  0  0  0  0
    2.0054    0.1005    2.6252 C   0  0  0  0  0  0  0  0  0  0  0  0
    0.6211    0.6113    2.1783 C   0  0  0  0  0  0  0  0  0  0  0  0
    2.5755    1.0229    3.7252 C   0  0  0  0  0  0  0  0  0  0  0  0
    2.9286    0.0782    1.3871 C   0  0  0  0  0  0  0  0  0  0  0  0
    4.1890   -0.7417    1.6296 C   0  0  0  0  0  0  0  0  0  0  0  0
    5.3056   -0.2673    1.4302 O   0  0  0  0  0  0  0  0  0  0  0  0
    3.9932   -2.1806    2.1465 C   0  0  2  0  0  0  0  0  0  0  0  0
    4.0139   -3.2597    1.0410 C   0  0  1  0  0  0  0  0  0  0  0  0
    5.3175   -3.2371    0.2503 C   0  0  0  0  0  0  0  0  0  0  0  0
    6.5613   -3.3609    0.9009 C   0  0  0  0  0  0  0  0  0  0  0  0
    7.7394   -3.3004    0.1291 C   0  0  0  0  0  0  0  0  0  0  0  0
    7.7351   -3.1282   -1.2085 N   0  0  0  0  0  0  0  0  0  0  0  0
    6.5391   -3.0532   -1.8323 C   0  0  0  0  0  0  0  0  0  0  0  0
    5.3066   -3.0820   -1.1485 C   0  0  0  0  0  0  0  0  0  0  0  0
    3.6537   -4.6334    1.6246 C   0  0  0  0  0  0  0  0  0  0  0  0
    2.9710   -4.7406    2.7895 C   0  0  0  0  0  0  0  0  0  0  0  0
    2.6613   -6.1305    3.3731 C   0  0  0  0  0  0  0  0  0  0  0  0
    2.4670   -7.2347    2.3135 C   0  0  1  0  0  0  0  0  0  0  0  0
    1.1267   -7.0149    1.5769 C   0  0  0  0  0  0  0  0  0  0  0  0
    3.6619   -7.2348    1.3539 C   0  0  1  0  0  0  0  0  0  0  0  0
    4.0404   -5.8516    0.7742 C   0  0  0  0  0  0  0  0  0  0  0  0
    4.7721   -7.9604    2.1284 C   0  0  0  0  0  0  0  0  0  0  0  0
    4.0536   -9.0408    2.9667 C   0  0  1  0  0  0  0  0  0  0  0  0
    4.6090   -9.2117    4.4058 C   0  0  2  0  0  0  0  0  0  0  0  0
    6.0438   -9.7775    4.4218 C   0  0  0  0  0  0  0  0  0  0  0  0
    5.9517  -11.2528    4.8338 C   0  0  0  0  0  0  0  0  0  0  0  0
    4.4591  -11.5561    4.9941 C   0  0  1  0  0  0  0  0  0  0  0  0
    4.2332  -12.5373    5.9908 O   0  0  0  0  0  0  0  0  0  0  0  0
    3.7794  -10.1982    5.2791 C   0  0  1  0  0  0  0  0  0  0  0  0
    3.9124   -9.7847    6.7681 C   0  0  0  0  0  0  0  0  0  0  0  0
    2.2809  -10.2469    4.8735 C   0  0  0  0  0  0  0  0  0  0  0  0
    1.7987   -8.9345    4.2445 C   0  0  0  0  0  0  0  0  0  0  0  0
    2.5549   -8.6611    2.9220 C   0  0  1  0  0  0  0  0  0  0  0  0
    0.5787   -4.2809    4.8362 C   0  0  0  0  0  0  0  0  0  0  0  0
   -0.0672   -4.4340    6.0733 C   0  0  0  0  0  0  0  0  0  0  0  0
   -1.5961   -4.6648    9.6597 H   0  0  0  0  0  0  0  0  0  0  0  0
   -1.2392   -5.7312    8.2996 H   0  0  0  0  0  0  0  0  0  0  0  0
   -2.0427   -4.1684    8.0301 H   0  0  0  0  0  0  0  0  0  0  0  0
    2.3239   -3.0418    8.0703 H   0  0  0  0  0  0  0  0  0  0  0  0
    3.4729   -2.8204    5.8827 H   0  0  0  0  0  0  0  0  0  0  0  0
    0.9832   -1.4589    3.8078 H   0  0  0  0  0  0  0  0  0  0  0  0
    0.6838    1.6078    1.7392 H   0  0  0  0  0  0  0  0  0  0  0  0
   -0.0867    0.6567    3.0071 H   0  0  0  0  0  0  0  0  0  0  0  0
    0.1987   -0.0445    1.4170 H   0  0  0  0  0  0  0  0  0  0  0  0
    2.7330    2.0377    3.3562 H   0  0  0  0  0  0  0  0  0  0  0  0
    3.5368    0.6539    4.0897 H   0  0  0  0  0  0  0  0  0  0  0  0
    1.9059    1.0781    4.5866 H   0  0  0  0  0  0  0  0  0  0  0  0
    2.4088   -0.3689    0.5393 H   0  0  0  0  0  0  0  0  0  0  0  0
    3.1962    1.0923    1.0952 H   0  0  0  0  0  0  0  0  0  0  0  0
    4.8214   -2.3640    2.8326 H   0  0  0  0  0  0  0  0  0  0  0  0
    3.2106   -3.0271    0.3382 H   0  0  0  0  0  0  0  0  0  0  0  0
    6.6196   -3.4848    1.9715 H   0  0  0  0  0  0  0  0  0  0  0  0
    8.7099   -3.3962    0.5969 H   0  0  0  0  0  0  0  0  0  0  0  0
    6.5666   -2.9440   -2.9076 H   0  0  0  0  0  0  0  0  0  0  0  0
    4.3795   -2.9831   -1.6936 H   0  0  0  0  0  0  0  0  0  0  0  0
    3.4872   -6.3808    4.0375 H   0  0  0  0  0  0  0  0  0  0  0  0
    1.7770   -6.1671    3.9911 H   0  0  0  0  0  0  0  0  0  0  0  0
    0.9707   -7.7594    0.7963 H   0  0  0  0  0  0  0  0  0  0  0  0
    1.0960   -6.0302    1.1095 H   0  0  0  0  0  0  0  0  0  0  0  0
    0.2875   -7.0786    2.2702 H   0  0  0  0  0  0  0  0  0  0  0  0
    3.4230   -7.8872    0.5155 H   0  0  0  0  0  0  0  0  0  0  0  0
    3.5009   -5.7239   -0.1666 H   0  0  0  0  0  0  0  0  0  0  0  0
    5.1031   -5.8416    0.5225 H   0  0  0  0  0  0  0  0  0  0  0  0
    5.5028   -8.4033    1.4507 H   0  0  0  0  0  0  0  0  0  0  0  0
    5.3057   -7.2609    2.7738 H   0  0  0  0  0  0  0  0  0  0  0  0
    4.1572  -10.0016    2.4582 H   0  0  0  0  0  0  0  0  0  0  0  0
    4.6140   -8.2272    4.8795 H   0  0  0  0  0  0  0  0  0  0  0  0
    6.5450   -9.6636    3.4614 H   0  0  0  0  0  0  0  0  0  0  0  0
    6.6479   -9.2411    5.1558 H   0  0  0  0  0  0  0  0  0  0  0  0
    6.3989  -11.9070    4.0851 H   0  0  0  0  0  0  0  0  0  0  0  0
    6.4969  -11.4155    5.7638 H   0  0  0  0  0  0  0  0  0  0  0  0
    4.1085  -11.9430    4.0341 H   0  0  0  0  0  0  0  0  0  0  0  0
    3.3018  -12.7201    6.0747 H   0  0  0  0  0  0  0  0  0  0  0  0
    3.4023  -10.4773    7.4412 H   0  0  0  0  0  0  0  0  0  0  0  0
    3.4860   -8.7980    6.9537 H   0  0  0  0  0  0  0  0  0  0  0  0
    4.9520   -9.7431    7.0924 H   0  0  0  0  0  0  0  0  0  0  0  0
    2.0934  -11.0596    4.1683 H   0  0  0  0  0  0  0  0  0  0  0  0
    1.6658  -10.4924    5.7376 H   0  0  0  0  0  0  0  0  0  0  0  0
    0.7336   -9.0099    4.0427 H   0  0  0  0  0  0  0  0  0  0  0  0
    1.9110   -8.1339    4.9741 H   0  0  0  0  0  0  0  0  0  0  0  0
    2.1122   -9.3378    2.1909 H   0  0  0  0  0  0  0  0  0  0  0  0
    0.1060   -4.6258    3.9321 H   0  0  0  0  0  0  0  0  0  0  0  0
   -1.0298   -4.9195    6.0850 H   0  0  0  0  0  0  0  0  0  0  0  0
  1  2  1  0
  1 45  1  0
  1 46  1  0
  1 47  1  0
  2  3  1  0
  3 44  2  0
  3  4  1  0
  4  5  2  0
  4 48  1  0
  5  6  1  0
  5 49  1  0
  6  7  1  0
  6 43  2  0
  7 25  1  0
  7  8  1  0
  8 16  1  0
  8  9  2  0
  9 10  1  0
  9 50  1  0
 10 11  1  0
 10 12  1  0
 10 13  1  0
 11 51  1  0
 11 52  1  0
 11 53  1  0
 12 54  1  0
 12 55  1  0
 12 56  1  0
 13 14  1  0
 13 57  1  0
 13 58  1  0
 14 15  2  0
 14 16  1  0
 16 17  1  0
 16 59  1  1
 17 18  1  0
 17 24  1  0
 17 60  1  6
 18 23  1  0
 18 19  2  0
 19 20  1  0
 19 61  1  0
 20 21  2  0
 20 62  1  0
 21 22  1  0
 22 23  2  0
 22 63  1  0
 23 64  1  0
 24 30  1  0
 24 25  2  0
 25 26  1  0
 26 27  1  0
 26 65  1  0
 26 66  1  0
 27 42  1  0
 27 28  1  6
 27 29  1  0
 28 67  1  0
 28 68  1  0
 28 69  1  0
 29 30  1  0
 29 31  1  0
 29 70  1  6
 30 71  1  0
 30 72  1  0
 31 32  1  0
 31 73  1  0
 31 74  1  0
 32 42  1  0
 32 33  1  0
 32 75  1  6
 33 38  1  0
 33 34  1  0
 33 76  1  1
 34 35  1  0
 34 77  1  0
 34 78  1  0
 35 36  1  0
 35 79  1  0
 35 80  1  0
 36 37  1  0
 36 38  1  0
 36 81  1  6
 37 82  1  0
 38 39  1  1
 38 40  1  0
 39 83  1  0
 39 84  1  0
 39 85  1  0
 40 41  1  0
 40 86  1  0
 40 87  1  0
 41 42  1  0
 41 88  1  0
 41 89  1  0
 42 90  1  6
 43 44  1  0
 43 91  1  0
 44 92  1  0
M  END
>  <i_m_ct_stereo_status>  (289) 
1

>  <s_m_source_file>  (289) 
/var/tmp/pbs.5076255.sched01/tmp2gjrvvgn/102_qij5c5l.sdf

>  <i_m_source_file_index>  (289) 
17

>  <i_lp_mmshare_version>  (289) 
48012

>  <i_f3d_flags>  (289) 
0

>  <s_epik_input>  (289) 
W2NIXTFbY0hdbltjSF1bY0hdYzFbQ0BASF0yW0NAQEhdKEMoPU8pW0NIMl1DKFtDSF0zKShbQ0gzXSlbQ0gzXSlDPTNOKGMoW2NIXVtjSF00KVtjSF1bY0hdYzRPW0NIM10pQyhbQ0gyXTUpPUMyW0NIMl1bQ0BIXShbQ0BdNTZbQ0gzXSlbQ0gyXVtDQEhdN1tDQEhdOFtDQF0oW0NIM10pKFtDQEhdKFtPSF0pW0NIMl1bQ0gyXTgpW0NIMl1bQ0gyXVtDQEBIXTY3

>  <s_epik_cmdline>  (289) 
J2VwaWtfcHl0aG9uJywgJy1waHQnLCAnMi4wJywgJy1waCcsICc3LjAnLCAnLXRuJywgJzgnLCAnLW1hJywgJzIwMCcsICctaW1hZScsICc8aW5maWxlLm1hZT4nLCAnLW9tYWUnLCAnPG91dGZpbGUubWFlPic=

>  <r_lp_tautomer_probability>  (289) 
0.99995

>  <r_epik_Ionization_Penalty>  (289) 
0.0405977

>  <r_epik_Ionization_Penalty_Charging>  (289) 
1.22349e-14

>  <r_epik_Ionization_Penalty_Neutral>  (289) 
0.0405977

>  <r_epik_State_Penalty>  (289) 
0.0341785

>  <r_epik_Charging_Adjusted_Penalty>  (289) 
0.0341785

>  <i_epik_Tot_Q>  (289) 
0

>  <i_epik_Tot_abs_Q>  (289) 
0

>  <s_epik_Chemistry_Notes>  (289) 
This compound has an imine and may undergo hydrolysis.

>  <s_lp_Force_Field>  (289) 
OPLS3e

>  <r_lp_Energy>  (289) 
80.5646

>  <b_lp_Chiralities_Consistent>  (289) 
1

>  <s_lp_Variant>  (289) 
92:0-1

>  <s_i_glide_gridfile>  (289) 
pfpi4k_grid

>  <i_i_glide_lignum>  (289) 
17

>  <i_i_glide_rotatable_bonds>  (289) 
4

>  <r_i_docking_score>  (289) 
-3.09956

>  <r_i_glide_ligand_efficiency>  (289) 
-0.0704444

>  <r_i_glide_ligand_efficiency_sa>  (289) 
-0.248693

>  <r_i_glide_ligand_efficiency_ln>  (289) 
-0.647875

>  <r_i_glide_gscore>  (289) 
-3.09956

>  <r_i_glide_lipo>  (289) 
-0.587364

>  <r_i_glide_hbond>  (289) 
-0.214409

>  <r_i_glide_metal>  (289) 
-0

>  <r_i_glide_rewards>  (289) 
-0.0837287

>  <r_i_glide_evdw>  (289) 
-35.1905

>  <r_i_glide_ecoul>  (289) 
-3.08738

>  <r_i_glide_erotb>  (289) 
0.00857816

>  <r_i_glide_esite>  (289) 
0

>  <r_i_glide_emodel>  (289) 
-45.4009

>  <r_i_glide_energy>  (289) 
-38.2779

>  <r_i_glide_einternal>  (289) 
0.93071

>  <r_i_glide_intrahb_reward>  (289) 
-0

>  <i_i_glide_confnum>  (289) 
2

>  <i_i_glide_posenum>  (289) 
22

>  <r_i_glide_eff_state_penalty>  (289) 
0

>  <ligand_id>  (289) 
92

>  <original_smiles>  (289) 
COc1ccc(N2C3=CC(C)(C)CC(=O)C3C(c3ccncc3)C3=C2CC2(C)C(C3)CC3C4CCC(O)C4(C)CCC32)cc1

>  <smiles>  (289) 
[H]OC1([H])C([H])([H])C([H])([H])C2([H])C3([H])C([H])([H])C4([H])C([H])([H])C5=C(N(c6c([H])c([H])c(OC([H])([H])[H])c([H])c6[H])C6=C([H])C(C([H])([H])[H])(C([H])([H])[H])C([H])([H])C(=O)C6([H])C5([H])c5c([H])c([H])nc([H])c5[H])C([H])([H])C4(C([H])([H])[H])C3([H])C([H])([H])C([H])([H])C12C([H])([H])[H]

$$$$
92:0:2
     RDKit          3D

 92 99  0  0  1  0  0  0  0  0999 V2000
   -0.3202    2.3115    3.5278 C   0  0  0  0  0  0  0  0  0  0  0  0
    0.6700    1.7317    4.3625 O   0  0  0  0  0  0  0  0  0  0  0  0
    1.2237    0.5321    3.9641 C   0  0  0  0  0  0  0  0  0  0  0  0
    2.2961    0.0284    4.7265 C   0  0  0  0  0  0  0  0  0  0  0  0
    2.9266   -1.1743    4.3806 C   0  0  0  0  0  0  0  0  0  0  0  0
    2.4848   -1.9129    3.2592 C   0  0  0  0  0  0  0  0  0  0  0  0
    3.1109   -3.1189    2.9009 N   0  0  0  0  0  0  0  0  0  0  0  0
    3.9074   -3.1807    1.7480 C   0  0  0  0  0  0  0  0  0  0  0  0
    3.6984   -2.4128    0.6466 C   0  0  0  0  0  0  0  0  0  0  0  0
    4.5018   -2.4629   -0.6377 C   0  0  0  0  0  0  0  0  0  0  0  0
    3.5368   -2.3734   -1.8367 C   0  0  0  0  0  0  0  0  0  0  0  0
    5.4415   -1.2430   -0.6333 C   0  0  0  0  0  0  0  0  0  0  0  0
    5.2760   -3.7894   -0.7347 C   0  0  0  0  0  0  0  0  0  0  0  0
    5.9622   -4.1347    0.5842 C   0  0  0  0  0  0  0  0  0  0  0  0
    7.1605   -4.3660    0.6266 O   0  0  0  0  0  0  0  0  0  0  0  0
    5.0754   -4.1574    1.8474 C   0  0  2  0  0  0  0  0  0  0  0  0
    4.5618   -5.5554    2.2412 C   0  0  1  0  0  0  0  0  0  0  0  0
    5.7024   -6.5394    2.4666 C   0  0  0  0  0  0  0  0  0  0  0  0
    5.7799   -7.7246    1.7159 C   0  0  0  0  0  0  0  0  0  0  0  0
    6.8492   -8.6100    1.9642 C   0  0  0  0  0  0  0  0  0  0  0  0
    7.8160   -8.3755    2.8849 N   0  0  0  0  0  0  0  0  0  0  0  0
    7.7393   -7.2215    3.5873 C   0  0  0  0  0  0  0  0  0  0  0  0
    6.7035   -6.2813    3.4203 C   0  0  0  0  0  0  0  0  0  0  0  0
    3.5883   -5.4459    3.4172 C   0  0  0  0  0  0  0  0  0  0  0  0
    2.9522   -4.2918    3.6852 C   0  0  0  0  0  0  0  0  0  0  0  0
    1.9596   -4.1984    4.8601 C   0  0  0  0  0  0  0  0  0  0  0  0
    1.2553   -5.5341    5.2179 C   0  0  1  0  0  0  0  0  0  0  0  0
    0.2061   -5.8473    4.1420 C   0  0  0  0  0  0  0  0  0  0  0  0
    2.2931   -6.6552    5.3392 C   0  0  1  0  0  0  0  0  0  0  0  0
    3.3059   -6.7515    4.1761 C   0  0  0  0  0  0  0  0  0  0  0  0
    2.8985   -6.4668    6.7371 C   0  0  0  0  0  0  0  0  0  0  0  0
    1.7462   -5.9513    7.6272 C   0  0  1  0  0  0  0  0  0  0  0  0
    2.1516   -4.8340    8.6276 C   0  0  2  0  0  0  0  0  0  0  0  0
    3.1229   -5.3410    9.7155 C   0  0  0  0  0  0  0  0  0  0  0  0
    2.3258   -5.4959   11.0156 C   0  0  0  0  0  0  0  0  0  0  0  0
    0.8834   -5.1502   10.6547 C   0  0  1  0  0  0  0  0  0  0  0  0
    0.1975   -4.5815   11.7427 O   0  0  0  0  0  0  0  0  0  0  0  0
    0.9485   -4.2391    9.4084 C   0  0  1  0  0  0  0  0  0  0  0  0
    1.2753   -2.7636    9.7783 C   0  0  0  0  0  0  0  0  0  0  0  0
   -0.3785   -4.3056    8.6068 C   0  0  0  0  0  0  0  0  0  0  0  0
   -0.1503   -4.2746    7.0887 C   0  0  0  0  0  0  0  0  0  0  0  0
    0.6324   -5.5273    6.6434 C   0  0  1  0  0  0  0  0  0  0  0  0
    1.3809   -1.4240    2.5228 C   0  0  0  0  0  0  0  0  0  0  0  0
    0.7757   -0.2077    2.8453 C   0  0  0  0  0  0  0  0  0  0  0  0
   -0.6397    3.2471    3.9779 H   0  0  0  0  0  0  0  0  0  0  0  0
   -1.1990    1.6711    3.4343 H   0  0  0  0  0  0  0  0  0  0  0  0
    0.0755    2.5328    2.5350 H   0  0  0  0  0  0  0  0  0  0  0  0
    2.6494    0.5865    5.5861 H   0  0  0  0  0  0  0  0  0  0  0  0
    3.7608   -1.5525    4.9657 H   0  0  0  0  0  0  0  0  0  0  0  0
    2.8940   -1.7016    0.5553 H   0  0  0  0  0  0  0  0  0  0  0  0
    4.0725   -2.4129   -2.7887 H   0  0  0  0  0  0  0  0  0  0  0  0
    2.9523   -1.4497   -1.8273 H   0  0  0  0  0  0  0  0  0  0  0  0
    2.8262   -3.1983   -1.8271 H   0  0  0  0  0  0  0  0  0  0  0  0
    6.0736   -1.2283   -1.5244 H   0  0  0  0  0  0  0  0  0  0  0  0
    6.0917   -1.2461    0.2431 H   0  0  0  0  0  0  0  0  0  0  0  0
    4.8822   -0.3010   -0.6005 H   0  0  0  0  0  0  0  0  0  0  0  0
    4.5884   -4.6007   -0.9699 H   0  0  0  0  0  0  0  0  0  0  0  0
    6.0097   -3.7422   -1.5441 H   0  0  0  0  0  0  0  0  0  0  0  0
    5.7044   -3.7768    2.6545 H   0  0  0  0  0  0  0  0  0  0  0  0
    3.9710   -5.9307    1.4098 H   0  0  0  0  0  0  0  0  0  0  0  0
    5.0388   -7.9750    0.9633 H   0  0  0  0  0  0  0  0  0  0  0  0
    6.9410   -9.5330    1.4071 H   0  0  0  0  0  0  0  0  0  0  0  0
    8.5288   -7.0571    4.3071 H   0  0  0  0  0  0  0  0  0  0  0  0
    6.6932   -5.3801    4.0201 H   0  0  0  0  0  0  0  0  0  0  0  0
    2.5288   -3.8641    5.7190 H   0  0  0  0  0  0  0  0  0  0  0  0
    1.2002   -3.4367    4.6897 H   0  0  0  0  0  0  0  0  0  0  0  0
   -0.2982   -6.7961    4.3220 H   0  0  0  0  0  0  0  0  0  0  0  0
    0.6564   -5.8874    3.1479 H   0  0  0  0  0  0  0  0  0  0  0  0
   -0.5472   -5.0630    4.1348 H   0  0  0  0  0  0  0  0  0  0  0  0
    1.7491   -7.5997    5.3738 H   0  0  0  0  0  0  0  0  0  0  0  0
    2.8906   -7.4348    3.4342 H   0  0  0  0  0  0  0  0  0  0  0  0
    4.2264   -7.2083    4.5404 H   0  0  0  0  0  0  0  0  0  0  0  0
    3.3150   -7.4006    7.1203 H   0  0  0  0  0  0  0  0  0  0  0  0
    3.7104   -5.7411    6.6997 H   0  0  0  0  0  0  0  0  0  0  0  0
    1.3629   -6.7888    8.2107 H   0  0  0  0  0  0  0  0  0  0  0  0
    2.6464   -4.0445    8.0551 H   0  0  0  0  0  0  0  0  0  0  0  0
    3.6123   -6.2763    9.4353 H   0  0  0  0  0  0  0  0  0  0  0  0
    3.9144   -4.6093    9.8746 H   0  0  0  0  0  0  0  0  0  0  0  0
    2.3896   -6.5101   11.4072 H   0  0  0  0  0  0  0  0  0  0  0  0
    2.7262   -4.8264   11.7846 H   0  0  0  0  0  0  0  0  0  0  0  0
    0.3815   -6.0885   10.3910 H   0  0  0  0  0  0  0  0  0  0  0  0
    0.1950   -5.2071   12.4606 H   0  0  0  0  0  0  0  0  0  0  0  0
    0.4976   -2.3036   10.3863 H   0  0  0  0  0  0  0  0  0  0  0  0
    1.3946   -2.1442    8.8895 H   0  0  0  0  0  0  0  0  0  0  0  0
    2.2032   -2.6809   10.3432 H   0  0  0  0  0  0  0  0  0  0  0  0
   -0.9517   -5.2097    8.8656 H   0  0  0  0  0  0  0  0  0  0  0  0
   -1.0203   -3.4837    8.8937 H   0  0  0  0  0  0  0  0  0  0  0  0
   -1.1113   -4.2624    6.5911 H   0  0  0  0  0  0  0  0  0  0  0  0
    0.3518   -3.3388    6.8068 H   0  0  0  0  0  0  0  0  0  0  0  0
   -0.0901   -6.3503    6.6615 H   0  0  0  0  0  0  0  0  0  0  0  0
    1.0108   -1.9878    1.6820 H   0  0  0  0  0  0  0  0  0  0  0  0
   -0.0359    0.1332    2.2091 H   0  0  0  0  0  0  0  0  0  0  0  0
  1  2  1  0
  1 45  1  0
  1 46  1  0
  1 47  1  0
  2  3  1  0
  3 44  2  0
  3  4  1  0
  4  5  2  0
  4 48  1  0
  5  6  1  0
  5 49  1  0
  6  7  1  0
  6 43  2  0
  7 25  1  0
  7  8  1  0
  8 16  1  0
  8  9  2  0
  9 10  1  0
  9 50  1  0
 10 11  1  0
 10 12  1  0
 10 13  1  0
 11 51  1  0
 11 52  1  0
 11 53  1  0
 12 54  1  0
 12 55  1  0
 12 56  1  0
 13 14  1  0
 13 57  1  0
 13 58  1  0
 14 15  2  0
 14 16  1  0
 16 17  1  0
 16 59  1  1
 17 18  1  0
 17 24  1  0
 17 60  1  6
 18 23  1  0
 18 19  2  0
 19 20  1  0
 19 61  1  0
 20 21  2  0
 20 62  1  0
 21 22  1  0
 22 23  2  0
 22 63  1  0
 23 64  1  0
 24 30  1  0
 24 25  2  0
 25 26  1  0
 26 27  1  0
 26 65  1  0
 26 66  1  0
 27 42  1  0
 27 28  1  6
 27 29  1  0
 28 67  1  0
 28 68  1  0
 28 69  1  0
 29 30  1  0
 29 31  1  0
 29 70  1  1
 30 71  1  0
 30 72  1  0
 31 32  1  0
 31 73  1  0
 31 74  1  0
 32 42  1  0
 32 33  1  0
 32 75  1  1
 33 38  1  0
 33 34  1  0
 33 76  1  6
 34 35  1  0
 34 77  1  0
 34 78  1  0
 35 36  1  0
 35 79  1  0
 35 80  1  0
 36 37  1  0
 36 38  1  0
 36 81  1  6
 37 82  1  0
 38 39  1  1
 38 40  1  0
 39 83  1  0
 39 84  1  0
 39 85  1  0
 40 41  1  0
 40 86  1  0
 40 87  1  0
 41 42  1  0
 41 88  1  0
 41 89  1  0
 42 90  1  6
 43 44  1  0
 43 91  1  0
 44 92  1  0
M  END
>  <i_m_ct_stereo_status>  (290) 
1

>  <s_m_source_file>  (290) 
/var/tmp/pbs.5076255.sched01/tmp2gjrvvgn/102_qij5c5l.sdf

>  <i_m_source_file_index>  (290) 
17

>  <i_lp_mmshare_version>  (290) 
48012

>  <i_f3d_flags>  (290) 
0

>  <s_epik_input>  (290) 
W2NIXTFbY0hdbltjSF1bY0hdYzFbQ0BASF0yW0NAQEhdKEMoPU8pW0NIMl1DKFtDSF0zKShbQ0gzXSlbQ0gzXSlDPTNOKGMoW2NIXVtjSF00KVtjSF1bY0hdYzRPW0NIM10pQyhbQ0gyXTUpPUMyW0NIMl1bQ0BIXShbQ0BdNTZbQ0gzXSlbQ0gyXVtDQEhdN1tDQEhdOFtDQF0oW0NIM10pKFtDQEhdKFtPSF0pW0NIMl1bQ0gyXTgpW0NIMl1bQ0gyXVtDQEBIXTY3

>  <s_epik_cmdline>  (290) 
J2VwaWtfcHl0aG9uJywgJy1waHQnLCAnMi4wJywgJy1waCcsICc3LjAnLCAnLXRuJywgJzgnLCAnLW1hJywgJzIwMCcsICctaW1hZScsICc8aW5maWxlLm1hZT4nLCAnLW9tYWUnLCAnPG91dGZpbGUubWFlPic=

>  <r_lp_tautomer_probability>  (290) 
0.99995

>  <r_epik_Ionization_Penalty>  (290) 
0.0405977

>  <r_epik_Ionization_Penalty_Charging>  (290) 
1.22349e-14

>  <r_epik_Ionization_Penalty_Neutral>  (290) 
0.0405977

>  <r_epik_State_Penalty>  (290) 
0.0341785

>  <r_epik_Charging_Adjusted_Penalty>  (290) 
0.0341785

>  <i_epik_Tot_Q>  (290) 
0

>  <i_epik_Tot_abs_Q>  (290) 
0

>  <s_epik_Chemistry_Notes>  (290) 
This compound has an imine and may undergo hydrolysis.

>  <s_lp_Force_Field>  (290) 
OPLS3e

>  <r_lp_Energy>  (290) 
80.5646

>  <b_lp_Chiralities_Consistent>  (290) 
1

>  <s_lp_Variant>  (290) 
92:0-1

>  <s_i_glide_gridfile>  (290) 
pfpi4k_grid

>  <i_i_glide_lignum>  (290) 
17

>  <i_i_glide_rotatable_bonds>  (290) 
4

>  <r_i_docking_score>  (290) 
-1.96846

>  <r_i_glide_ligand_efficiency>  (290) 
-0.0447377

>  <r_i_glide_ligand_efficiency_sa>  (290) 
-0.15794

>  <r_i_glide_ligand_efficiency_ln>  (290) 
-0.411451

>  <r_i_glide_gscore>  (290) 
-1.96846

>  <r_i_glide_lipo>  (290) 
-0.284708

>  <r_i_glide_hbond>  (290) 
0

>  <r_i_glide_metal>  (290) 
-0

>  <r_i_glide_rewards>  (290) 
-0.115466

>  <r_i_glide_evdw>  (290) 
-27.9504

>  <r_i_glide_ecoul>  (290) 
-1.19558

>  <r_i_glide_erotb>  (290) 
0.00857816

>  <r_i_glide_esite>  (290) 
-8.86255e-06

>  <r_i_glide_emodel>  (290) 
-33.2464

>  <r_i_glide_energy>  (290) 
-29.1459

>  <r_i_glide_einternal>  (290) 
0.954697

>  <r_i_glide_intrahb_reward>  (290) 
-0

>  <i_i_glide_confnum>  (290) 
3

>  <i_i_glide_posenum>  (290) 
34

>  <r_i_glide_eff_state_penalty>  (290) 
0

>  <ligand_id>  (290) 
92

>  <original_smiles>  (290) 
COc1ccc(N2C3=CC(C)(C)CC(=O)C3C(c3ccncc3)C3=C2CC2(C)C(C3)CC3C4CCC(O)C4(C)CCC32)cc1

>  <smiles>  (290) 
[H]OC1([H])C([H])([H])C([H])([H])C2([H])C3([H])C([H])([H])C4([H])C([H])([H])C5=C(N(c6c([H])c([H])c(OC([H])([H])[H])c([H])c6[H])C6=C([H])C(C([H])([H])[H])(C([H])([H])[H])C([H])([H])C(=O)C6([H])C5([H])c5c([H])c([H])nc([H])c5[H])C([H])([H])C4(C([H])([H])[H])C3([H])C([H])([H])C([H])([H])C12C([H])([H])[H]

$$$$
93:0:0
     RDKit          3D

 52 56  0  0  1  0  0  0  0  0999 V2000
    6.1656   -4.0737    1.0187 C   0  0  0  0  0  0  0  0  0  0  0  0
    5.1488   -2.9135    0.9215 C   0  0  2  0  0  0  0  0  0  0  0  0
    5.7508   -1.6393    1.5813 C   0  0  1  0  0  0  0  0  0  0  0  0
    6.7491   -1.0566    0.7621 O   0  0  0  0  0  0  0  0  0  0  0  0
    4.6794   -0.5875    1.9294 C   0  0  0  0  0  0  0  0  0  0  0  0
    3.6710   -1.1028    2.9830 C   0  0  1  0  0  0  0  0  0  0  0  0
    2.3199   -0.3821    3.0548 C   0  0  0  0  0  0  0  0  0  0  0  0
    2.0362    0.7995    2.3301 C   0  0  0  0  0  0  0  0  0  0  0  0
    0.7667    1.4024    2.4285 C   0  0  0  0  0  0  0  0  0  0  0  0
   -0.2260    0.8472    3.2581 C   0  0  0  0  0  0  0  0  0  0  0  0
    0.0543   -0.3114    4.0067 C   0  0  0  0  0  0  0  0  0  0  0  0
    1.3257   -0.9171    3.9082 C   0  0  0  0  0  0  0  0  0  0  0  0
    1.6416   -2.1807    4.6706 C   0  0  0  0  0  0  0  0  0  0  0  0
    2.2891   -3.1969    3.7235 C   0  0  0  0  0  0  0  0  0  0  0  0
    3.5632   -2.6571    3.0213 C   0  0  1  0  0  0  0  0  0  0  0  0
    3.8228   -3.3334    1.6414 C   0  0  1  0  0  0  0  0  0  0  0  0
    2.6893   -3.1807    0.6001 C   0  0  0  0  0  0  0  0  0  0  0  0
    3.3828   -3.3907   -0.7423 C   0  0  1  0  0  0  0  0  0  0  0  0
    2.6456   -2.9166   -2.0100 C   0  0  0  0  0  0  0  0  0  0  0  0
    3.5669   -3.0233   -3.2243 C   0  0  0  0  0  0  0  0  0  0  0  0
    3.1605   -3.4013   -4.3148 O   0  0  0  0  0  0  0  0  0  0  0  0
    5.0117   -2.5586   -3.0536 C   0  0  0  0  0  0  0  0  0  0  0  0
    5.6431   -3.0019   -1.7201 C   0  0  0  0  0  0  0  0  0  0  0  0
    4.7018   -2.6515   -0.5518 C   0  0  2  0  0  0  0  0  0  0  0  0
    7.1106   -3.8208    0.5400 H   0  0  0  0  0  0  0  0  0  0  0  0
    5.7868   -4.9829    0.5481 H   0  0  0  0  0  0  0  0  0  0  0  0
    6.3836   -4.3138    2.0595 H   0  0  0  0  0  0  0  0  0  0  0  0
    6.2328   -1.9321    2.5114 H   0  0  0  0  0  0  0  0  0  0  0  0
    7.1776   -0.3683    1.2562 H   0  0  0  0  0  0  0  0  0  0  0  0
    5.1524    0.3088    2.3254 H   0  0  0  0  0  0  0  0  0  0  0  0
    4.1726   -0.2858    1.0163 H   0  0  0  0  0  0  0  0  0  0  0  0
    4.1198   -0.8464    3.9431 H   0  0  0  0  0  0  0  0  0  0  0  0
    2.7735    1.2612    1.6918 H   0  0  0  0  0  0  0  0  0  0  0  0
    0.5513    2.2984    1.8610 H   0  0  0  0  0  0  0  0  0  0  0  0
   -1.2024    1.3074    3.3148 H   0  0  0  0  0  0  0  0  0  0  0  0
   -0.7090   -0.7433    4.6369 H   0  0  0  0  0  0  0  0  0  0  0  0
    2.3087   -1.9391    5.4983 H   0  0  0  0  0  0  0  0  0  0  0  0
    0.7392   -2.5983    5.1146 H   0  0  0  0  0  0  0  0  0  0  0  0
    2.5356   -4.1037    4.2749 H   0  0  0  0  0  0  0  0  0  0  0  0
    1.5408   -3.4929    2.9899 H   0  0  0  0  0  0  0  0  0  0  0  0
    4.3995   -2.9824    3.6424 H   0  0  0  0  0  0  0  0  0  0  0  0
    3.8786   -4.4067    1.8342 H   0  0  0  0  0  0  0  0  0  0  0  0
    1.9021   -3.9230    0.7472 H   0  0  0  0  0  0  0  0  0  0  0  0
    2.2366   -2.1868    0.6491 H   0  0  0  0  0  0  0  0  0  0  0  0
    3.5857   -4.4600   -0.8401 H   0  0  0  0  0  0  0  0  0  0  0  0
    1.7270   -3.4762   -2.1755 H   0  0  0  0  0  0  0  0  0  0  0  0
    2.3683   -1.8696   -1.9189 H   0  0  0  0  0  0  0  0  0  0  0  0
    5.5932   -2.9400   -3.8885 H   0  0  0  0  0  0  0  0  0  0  0  0
    5.0161   -1.4719   -3.1170 H   0  0  0  0  0  0  0  0  0  0  0  0
    5.8131   -4.0793   -1.7621 H   0  0  0  0  0  0  0  0  0  0  0  0
    6.6172   -2.5278   -1.5969 H   0  0  0  0  0  0  0  0  0  0  0  0
    4.4848   -1.5892   -0.6467 H   0  0  0  0  0  0  0  0  0  0  0  0
  2  1  1  6
  1 25  1  0
  1 26  1  0
  1 27  1  0
  2 16  1  0
  2 24  1  0
  2  3  1  0
  3  4  1  0
  3  5  1  0
  3 28  1  1
  4 29  1  0
  5  6  1  0
  5 30  1  0
  5 31  1  0
  6 15  1  0
  6  7  1  0
  6 32  1  1
  7 12  2  0
  7  8  1  0
  8  9  2  0
  8 33  1  0
  9 10  1  0
  9 34  1  0
 10 11  2  0
 10 35  1  0
 11 12  1  0
 11 36  1  0
 12 13  1  0
 13 14  1  0
 13 37  1  0
 13 38  1  0
 14 15  1  0
 14 39  1  0
 14 40  1  0
 15 16  1  0
 15 41  1  1
 16 17  1  0
 16 42  1  1
 17 18  1  0
 17 43  1  0
 17 44  1  0
 18 24  1  0
 18 19  1  0
 18 45  1  6
 19 20  1  0
 19 46  1  0
 19 47  1  0
 20 21  2  0
 20 22  1  0
 22 23  1  0
 22 48  1  0
 22 49  1  0
 23 24  1  0
 23 50  1  0
 23 51  1  0
 24 52  1  1
M  END
>  <i_m_ct_stereo_status>  (291) 
1

>  <s_m_source_file>  (291) 
/var/tmp/pbs.5076255.sched01/tmp2gjrvvgn/102_qij5c5l.sdf

>  <i_m_source_file_index>  (291) 
19

>  <i_lp_mmshare_version>  (291) 
48012

>  <i_f3d_flags>  (291) 
0

>  <s_epik_input>  (291) 
W0NIMl0xQyg9TylbQ0gyXVtDSDJdW0NASF0yW0NASF0xW0NIMl1bQ0BASF0oW0NAQF0yM1tDSDNdKVtDQEhdNFtDQEBIXShbQ0gyXVtDQEBIXTNbT0hdKWM1YyhbQ0gyXVtDSDJdNClbY0hdW2NIXVtjSF1bY0hdNQ==

>  <s_epik_cmdline>  (291) 
J2VwaWtfcHl0aG9uJywgJy1waHQnLCAnMi4wJywgJy1waCcsICc3LjAnLCAnLXRuJywgJzgnLCAnLW1hJywgJzIwMCcsICctaW1hZScsICc8aW5maWxlLm1hZT4nLCAnLW9tYWUnLCAnPG91dGZpbGUubWFlPic=

>  <r_lp_tautomer_probability>  (291) 
1

>  <r_epik_Ionization_Penalty>  (291) 
9.10178e-07

>  <r_epik_Ionization_Penalty_Charging>  (291) 
0

>  <r_epik_Ionization_Penalty_Neutral>  (291) 
9.10178e-07

>  <r_epik_State_Penalty>  (291) 
-0

>  <r_epik_Charging_Adjusted_Penalty>  (291) 
0

>  <i_epik_Tot_Q>  (291) 
0

>  <i_epik_Tot_abs_Q>  (291) 
0

>  <s_lp_Force_Field>  (291) 
OPLS3e

>  <r_lp_Energy>  (291) 
37.7093

>  <b_lp_Chiralities_Consistent>  (291) 
1

>  <s_lp_Variant>  (291) 
93:0-1

>  <s_i_glide_gridfile>  (291) 
pfpi4k_grid

>  <i_i_glide_lignum>  (291) 
19

>  <i_i_glide_rotatable_bonds>  (291) 
1

>  <r_i_docking_score>  (291) 
-4.3354

>  <r_i_glide_ligand_efficiency>  (291) 
-0.180642

>  <r_i_glide_ligand_efficiency_sa>  (291) 
-0.521061

>  <r_i_glide_ligand_efficiency_ln>  (291) 
-1.03766

>  <r_i_glide_gscore>  (291) 
-4.3354

>  <r_i_glide_lipo>  (291) 
-0.61839

>  <r_i_glide_hbond>  (291) 
-0.385626

>  <r_i_glide_metal>  (291) 
-0

>  <r_i_glide_rewards>  (291) 
-1.33212

>  <r_i_glide_evdw>  (291) 
-28.4741

>  <r_i_glide_ecoul>  (291) 
-3.83708

>  <r_i_glide_erotb>  (291) 
0

>  <r_i_glide_esite>  (291) 
0

>  <r_i_glide_emodel>  (291) 
-40.7619

>  <r_i_glide_energy>  (291) 
-32.3111

>  <r_i_glide_einternal>  (291) 
0.33482

>  <r_i_glide_intrahb_reward>  (291) 
-0

>  <i_i_glide_confnum>  (291) 
1

>  <i_i_glide_posenum>  (291) 
38

>  <r_i_glide_eff_state_penalty>  (291) 
0

>  <ligand_id>  (291) 
93

>  <original_smiles>  (291) 
CC12C(O)CC3c4ccccc4CCC3C1CC1CC(=O)CCC12

>  <smiles>  (291) 
[H]OC1([H])C([H])([H])C2([H])c3c([H])c([H])c([H])c([H])c3C([H])([H])C([H])([H])C2([H])C2([H])C([H])([H])C3([H])C([H])([H])C(=O)C([H])([H])C([H])([H])C3([H])C12C([H])([H])[H]

$$$$
93:0:1
     RDKit          3D

 52 56  0  0  1  0  0  0  0  0999 V2000
    6.4344   -1.3590    0.8178 C   0  0  0  0  0  0  0  0  0  0  0  0
    5.2084   -2.2889    0.7179 C   0  0  2  0  0  0  0  0  0  0  0  0
    4.2984   -2.0734    1.9629 C   0  0  1  0  0  0  0  0  0  0  0  0
    3.5955   -0.8476    1.8830 O   0  0  0  0  0  0  0  0  0  0  0  0
    3.3080   -3.2377    2.1772 C   0  0  0  0  0  0  0  0  0  0  0  0
    4.0328   -4.5720    2.4805 C   0  0  1  0  0  0  0  0  0  0  0  0
    3.2376   -5.8614    2.2287 C   0  0  0  0  0  0  0  0  0  0  0  0
    1.8648   -5.8629    1.9102 C   0  0  0  0  0  0  0  0  0  0  0  0
    1.1862   -7.0738    1.6722 C   0  0  0  0  0  0  0  0  0  0  0  0
    1.8721   -8.2985    1.7743 C   0  0  0  0  0  0  0  0  0  0  0  0
    3.2341   -8.3082    2.1162 C   0  0  0  0  0  0  0  0  0  0  0  0
    3.9067   -7.0970    2.3474 C   0  0  0  0  0  0  0  0  0  0  0  0
    5.3788   -7.0787    2.6899 C   0  0  0  0  0  0  0  0  0  0  0  0
    6.0909   -6.0458    1.8130 C   0  0  0  0  0  0  0  0  0  0  0  0
    5.4901   -4.6204    1.9290 C   0  0  1  0  0  0  0  0  0  0  0  0
    5.6981   -3.7742    0.6391 C   0  0  1  0  0  0  0  0  0  0  0  0
    5.0751   -4.3666   -0.6451 C   0  0  0  0  0  0  0  0  0  0  0  0
    4.9309   -3.1676   -1.5706 C   0  0  1  0  0  0  0  0  0  0  0  0
    3.9873   -3.3114   -2.7777 C   0  0  0  0  0  0  0  0  0  0  0  0
    3.8068   -1.9544   -3.4723 C   0  0  0  0  0  0  0  0  0  0  0  0
    3.8155   -1.8439   -4.6950 O   0  0  0  0  0  0  0  0  0  0  0  0
    3.5902   -0.7306   -2.5830 C   0  0  0  0  0  0  0  0  0  0  0  0
    4.5128   -0.7312   -1.3442 C   0  0  0  0  0  0  0  0  0  0  0  0
    4.4391   -2.0861   -0.6225 C   0  0  2  0  0  0  0  0  0  0  0  0
    6.1411   -0.3092    0.8755 H   0  0  0  0  0  0  0  0  0  0  0  0
    7.1058   -1.4751   -0.0338 H   0  0  0  0  0  0  0  0  0  0  0  0
    6.9970   -1.5900    1.7163 H   0  0  0  0  0  0  0  0  0  0  0  0
    4.9339   -2.0117    2.8448 H   0  0  0  0  0  0  0  0  0  0  0  0
    3.0123   -0.8794    1.1378 H   0  0  0  0  0  0  0  0  0  0  0  0
    2.6306   -3.0096    3.0008 H   0  0  0  0  0  0  0  0  0  0  0  0
    2.6857   -3.3257    1.2900 H   0  0  0  0  0  0  0  0  0  0  0  0
    4.1587   -4.5832    3.5637 H   0  0  0  0  0  0  0  0  0  0  0  0
    1.3297   -4.9320    1.8569 H   0  0  0  0  0  0  0  0  0  0  0  0
    0.1372   -7.0823    1.4138 H   0  0  0  0  0  0  0  0  0  0  0  0
    1.3595   -9.2314    1.5895 H   0  0  0  0  0  0  0  0  0  0  0  0
    3.7589   -9.2539    2.1896 H   0  0  0  0  0  0  0  0  0  0  0  0
    5.4909   -6.8328    3.7439 H   0  0  0  0  0  0  0  0  0  0  0  0
    5.8124   -8.0660    2.5543 H   0  0  0  0  0  0  0  0  0  0  0  0
    7.1479   -6.0225    2.0787 H   0  0  0  0  0  0  0  0  0  0  0  0
    6.0524   -6.3904    0.7822 H   0  0  0  0  0  0  0  0  0  0  0  0
    6.0928   -4.1190    2.6883 H   0  0  0  0  0  0  0  0  0  0  0  0
    6.7743   -3.7545    0.4567 H   0  0  0  0  0  0  0  0  0  0  0  0
    5.7215   -5.1165   -1.0954 H   0  0  0  0  0  0  0  0  0  0  0  0
    4.1032   -4.8273   -0.4505 H   0  0  0  0  0  0  0  0  0  0  0  0
    5.9262   -2.9012   -1.9349 H   0  0  0  0  0  0  0  0  0  0  0  0
    4.3575   -4.0509   -3.4861 H   0  0  0  0  0  0  0  0  0  0  0  0
    3.0078   -3.6563   -2.4489 H   0  0  0  0  0  0  0  0  0  0  0  0
    3.7198    0.1819   -3.1646 H   0  0  0  0  0  0  0  0  0  0  0  0
    2.5499   -0.7513   -2.2622 H   0  0  0  0  0  0  0  0  0  0  0  0
    5.5289   -0.5131   -1.6710 H   0  0  0  0  0  0  0  0  0  0  0  0
    4.2250    0.0608   -0.6504 H   0  0  0  0  0  0  0  0  0  0  0  0
    3.3823   -2.2839   -0.4377 H   0  0  0  0  0  0  0  0  0  0  0  0
  2  1  1  1
  1 25  1  0
  1 26  1  0
  1 27  1  0
  2 16  1  0
  2 24  1  0
  2  3  1  0
  3  4  1  0
  3  5  1  0
  3 28  1  1
  4 29  1  0
  5  6  1  0
  5 30  1  0
  5 31  1  0
  6 15  1  0
  6  7  1  0
  6 32  1  1
  7 12  2  0
  7  8  1  0
  8  9  2  0
  8 33  1  0
  9 10  1  0
  9 34  1  0
 10 11  2  0
 10 35  1  0
 11 12  1  0
 11 36  1  0
 12 13  1  0
 13 14  1  0
 13 37  1  0
 13 38  1  0
 14 15  1  0
 14 39  1  0
 14 40  1  0
 15 16  1  0
 15 41  1  1
 16 17  1  0
 16 42  1  6
 17 18  1  0
 17 43  1  0
 17 44  1  0
 18 24  1  0
 18 19  1  0
 18 45  1  6
 19 20  1  0
 19 46  1  0
 19 47  1  0
 20 21  2  0
 20 22  1  0
 22 23  1  0
 22 48  1  0
 22 49  1  0
 23 24  1  0
 23 50  1  0
 23 51  1  0
 24 52  1  1
M  END
>  <i_m_ct_stereo_status>  (292) 
1

>  <s_m_source_file>  (292) 
/var/tmp/pbs.5076255.sched01/tmp2gjrvvgn/102_qij5c5l.sdf

>  <i_m_source_file_index>  (292) 
19

>  <i_lp_mmshare_version>  (292) 
48012

>  <i_f3d_flags>  (292) 
0

>  <s_epik_input>  (292) 
W0NIMl0xQyg9TylbQ0gyXVtDSDJdW0NASF0yW0NASF0xW0NIMl1bQ0BASF0oW0NAQF0yM1tDSDNdKVtDQEhdNFtDQEBIXShbQ0gyXVtDQEBIXTNbT0hdKWM1YyhbQ0gyXVtDSDJdNClbY0hdW2NIXVtjSF1bY0hdNQ==

>  <s_epik_cmdline>  (292) 
J2VwaWtfcHl0aG9uJywgJy1waHQnLCAnMi4wJywgJy1waCcsICc3LjAnLCAnLXRuJywgJzgnLCAnLW1hJywgJzIwMCcsICctaW1hZScsICc8aW5maWxlLm1hZT4nLCAnLW9tYWUnLCAnPG91dGZpbGUubWFlPic=

>  <r_lp_tautomer_probability>  (292) 
1

>  <r_epik_Ionization_Penalty>  (292) 
9.10178e-07

>  <r_epik_Ionization_Penalty_Charging>  (292) 
0

>  <r_epik_Ionization_Penalty_Neutral>  (292) 
9.10178e-07

>  <r_epik_State_Penalty>  (292) 
-0

>  <r_epik_Charging_Adjusted_Penalty>  (292) 
0

>  <i_epik_Tot_Q>  (292) 
0

>  <i_epik_Tot_abs_Q>  (292) 
0

>  <s_lp_Force_Field>  (292) 
OPLS3e

>  <r_lp_Energy>  (292) 
37.7093

>  <b_lp_Chiralities_Consistent>  (292) 
1

>  <s_lp_Variant>  (292) 
93:0-1

>  <s_i_glide_gridfile>  (292) 
pfpi4k_grid

>  <i_i_glide_lignum>  (292) 
19

>  <i_i_glide_rotatable_bonds>  (292) 
1

>  <r_i_docking_score>  (292) 
-4.24622

>  <r_i_glide_ligand_efficiency>  (292) 
-0.176926

>  <r_i_glide_ligand_efficiency_sa>  (292) 
-0.510343

>  <r_i_glide_ligand_efficiency_ln>  (292) 
-1.01632

>  <r_i_glide_gscore>  (292) 
-4.24622

>  <r_i_glide_lipo>  (292) 
-0.393771

>  <r_i_glide_hbond>  (292) 
-0.32

>  <r_i_glide_metal>  (292) 
-0

>  <r_i_glide_rewards>  (292) 
-1.45566

>  <r_i_glide_evdw>  (292) 
-25.2099

>  <r_i_glide_ecoul>  (292) 
-5.44199

>  <r_i_glide_erotb>  (292) 
0

>  <r_i_glide_esite>  (292) 
0

>  <r_i_glide_emodel>  (292) 
-39.0963

>  <r_i_glide_energy>  (292) 
-30.6519

>  <r_i_glide_einternal>  (292) 
0.00275743

>  <r_i_glide_intrahb_reward>  (292) 
-0

>  <i_i_glide_confnum>  (292) 
1

>  <i_i_glide_posenum>  (292) 
30

>  <r_i_glide_eff_state_penalty>  (292) 
0

>  <ligand_id>  (292) 
93

>  <original_smiles>  (292) 
CC12C(O)CC3c4ccccc4CCC3C1CC1CC(=O)CCC12

>  <smiles>  (292) 
[H]OC1([H])C([H])([H])C2([H])c3c([H])c([H])c([H])c([H])c3C([H])([H])C([H])([H])C2([H])C2([H])C([H])([H])C3([H])C([H])([H])C(=O)C([H])([H])C([H])([H])C3([H])C12C([H])([H])[H]

$$$$
93:0:2
     RDKit          3D

 52 56  0  0  1  0  0  0  0  0999 V2000
    4.9524   -5.3420    4.3151 C   0  0  0  0  0  0  0  0  0  0  0  0
    4.6959   -5.3050    2.7905 C   0  0  2  0  0  0  0  0  0  0  0  0
    6.0413   -5.5202    2.0345 C   0  0  1  0  0  0  0  0  0  0  0  0
    6.4667   -6.8674    2.1010 O   0  0  0  0  0  0  0  0  0  0  0  0
    5.9768   -5.0599    0.5637 C   0  0  0  0  0  0  0  0  0  0  0  0
    5.7263   -3.5379    0.4339 C   0  0  1  0  0  0  0  0  0  0  0  0
    5.1695   -3.0313   -0.9046 C   0  0  0  0  0  0  0  0  0  0  0  0
    5.0231   -3.8578   -2.0392 C   0  0  0  0  0  0  0  0  0  0  0  0
    4.4919   -3.3553   -3.2392 C   0  0  0  0  0  0  0  0  0  0  0  0
    4.0951   -2.0083   -3.3259 C   0  0  0  0  0  0  0  0  0  0  0  0
    4.2544   -1.1674   -2.2097 C   0  0  0  0  0  0  0  0  0  0  0  0
    4.7967   -1.6759   -1.0114 C   0  0  0  0  0  0  0  0  0  0  0  0
    4.9349   -0.8055    0.2188 C   0  0  0  0  0  0  0  0  0  0  0  0
    4.3662   -1.5403    1.4372 C   0  0  0  0  0  0  0  0  0  0  0  0
    5.0160   -2.9276    1.6813 C   0  0  1  0  0  0  0  0  0  0  0  0
    4.0634   -3.9197    2.4138 C   0  0  1  0  0  0  0  0  0  0  0  0
    2.7346   -4.2228    1.6838 C   0  0  0  0  0  0  0  0  0  0  0  0
    2.3012   -5.5667    2.2608 C   0  0  1  0  0  0  0  0  0  0  0  0
    1.2506   -6.3676    1.4704 C   0  0  0  0  0  0  0  0  0  0  0  0
    1.0626   -7.7503    2.0996 C   0  0  0  0  0  0  0  0  0  0  0  0
   -0.0645   -8.2078    2.2805 O   0  0  0  0  0  0  0  0  0  0  0  0
    2.3304   -8.5288    2.4870 C   0  0  0  0  0  0  0  0  0  0  0  0
    3.3822   -7.6281    3.1760 C   0  0  0  0  0  0  0  0  0  0  0  0
    3.6098   -6.3387    2.3554 C   0  0  2  0  0  0  0  0  0  0  0  0
    5.4039   -6.2849    4.6208 H   0  0  0  0  0  0  0  0  0  0  0  0
    4.0298   -5.2159    4.8845 H   0  0  0  0  0  0  0  0  0  0  0  0
    5.6323   -4.5446    4.6160 H   0  0  0  0  0  0  0  0  0  0  0  0
    6.8171   -4.9343    2.5250 H   0  0  0  0  0  0  0  0  0  0  0  0
    5.8027   -7.4141    1.7107 H   0  0  0  0  0  0  0  0  0  0  0  0
    6.9169   -5.3068    0.0733 H   0  0  0  0  0  0  0  0  0  0  0  0
    5.2040   -5.6268    0.0501 H   0  0  0  0  0  0  0  0  0  0  0  0
    6.7241   -3.0944    0.4519 H   0  0  0  0  0  0  0  0  0  0  0  0
    5.2979   -4.8992   -2.0055 H   0  0  0  0  0  0  0  0  0  0  0  0
    4.3726   -4.0137   -4.0875 H   0  0  0  0  0  0  0  0  0  0  0  0
    3.6512   -1.6273   -4.2323 H   0  0  0  0  0  0  0  0  0  0  0  0
    3.9347   -0.1381   -2.2806 H   0  0  0  0  0  0  0  0  0  0  0  0
    5.9874   -0.5688    0.3676 H   0  0  0  0  0  0  0  0  0  0  0  0
    4.4162    0.1404    0.0776 H   0  0  0  0  0  0  0  0  0  0  0  0
    4.4835   -0.9182    2.3251 H   0  0  0  0  0  0  0  0  0  0  0  0
    3.2917   -1.6439    1.2901 H   0  0  0  0  0  0  0  0  0  0  0  0
    5.8184   -2.7451    2.3985 H   0  0  0  0  0  0  0  0  0  0  0  0
    3.7692   -3.4273    3.3443 H   0  0  0  0  0  0  0  0  0  0  0  0
    1.9811   -3.4528    1.8673 H   0  0  0  0  0  0  0  0  0  0  0  0
    2.8808   -4.2981    0.6038 H   0  0  0  0  0  0  0  0  0  0  0  0
    1.9180   -5.3897    3.2700 H   0  0  0  0  0  0  0  0  0  0  0  0
    0.2905   -5.8570    1.4686 H   0  0  0  0  0  0  0  0  0  0  0  0
    1.5585   -6.4980    0.4340 H   0  0  0  0  0  0  0  0  0  0  0  0
    2.0652   -9.3694    3.1273 H   0  0  0  0  0  0  0  0  0  0  0  0
    2.7549   -8.9494    1.5767 H   0  0  0  0  0  0  0  0  0  0  0  0
    3.0327   -7.3840    4.1814 H   0  0  0  0  0  0  0  0  0  0  0  0
    4.3141   -8.1788    3.3001 H   0  0  0  0  0  0  0  0  0  0  0  0
    3.8466   -6.6631    1.3442 H   0  0  0  0  0  0  0  0  0  0  0  0
  2  1  1  1
  1 25  1  0
  1 26  1  0
  1 27  1  0
  2 16  1  0
  2 24  1  0
  2  3  1  0
  3  4  1  0
  3  5  1  0
  3 28  1  1
  4 29  1  0
  5  6  1  0
  5 30  1  0
  5 31  1  0
  6 15  1  0
  6  7  1  0
  6 32  1  1
  7 12  2  0
  7  8  1  0
  8  9  2  0
  8 33  1  0
  9 10  1  0
  9 34  1  0
 10 11  2  0
 10 35  1  0
 11 12  1  0
 11 36  1  0
 12 13  1  0
 13 14  1  0
 13 37  1  0
 13 38  1  0
 14 15  1  0
 14 39  1  0
 14 40  1  0
 15 16  1  0
 15 41  1  1
 16 17  1  0
 16 42  1  1
 17 18  1  0
 17 43  1  0
 17 44  1  0
 18 24  1  0
 18 19  1  0
 18 45  1  1
 19 20  1  0
 19 46  1  0
 19 47  1  0
 20 21  2  0
 20 22  1  0
 22 23  1  0
 22 48  1  0
 22 49  1  0
 23 24  1  0
 23 50  1  0
 23 51  1  0
 24 52  1  6
M  END
>  <i_m_ct_stereo_status>  (293) 
1

>  <s_m_source_file>  (293) 
/var/tmp/pbs.5076255.sched01/tmp2gjrvvgn/102_qij5c5l.sdf

>  <i_m_source_file_index>  (293) 
19

>  <i_lp_mmshare_version>  (293) 
48012

>  <i_f3d_flags>  (293) 
0

>  <s_epik_input>  (293) 
W0NIMl0xQyg9TylbQ0gyXVtDSDJdW0NASF0yW0NASF0xW0NIMl1bQ0BASF0oW0NAQF0yM1tDSDNdKVtDQEhdNFtDQEBIXShbQ0gyXVtDQEBIXTNbT0hdKWM1YyhbQ0gyXVtDSDJdNClbY0hdW2NIXVtjSF1bY0hdNQ==

>  <s_epik_cmdline>  (293) 
J2VwaWtfcHl0aG9uJywgJy1waHQnLCAnMi4wJywgJy1waCcsICc3LjAnLCAnLXRuJywgJzgnLCAnLW1hJywgJzIwMCcsICctaW1hZScsICc8aW5maWxlLm1hZT4nLCAnLW9tYWUnLCAnPG91dGZpbGUubWFlPic=

>  <r_lp_tautomer_probability>  (293) 
1

>  <r_epik_Ionization_Penalty>  (293) 
9.10178e-07

>  <r_epik_Ionization_Penalty_Charging>  (293) 
0

>  <r_epik_Ionization_Penalty_Neutral>  (293) 
9.10178e-07

>  <r_epik_State_Penalty>  (293) 
-0

>  <r_epik_Charging_Adjusted_Penalty>  (293) 
0

>  <i_epik_Tot_Q>  (293) 
0

>  <i_epik_Tot_abs_Q>  (293) 
0

>  <s_lp_Force_Field>  (293) 
OPLS3e

>  <r_lp_Energy>  (293) 
37.7093

>  <b_lp_Chiralities_Consistent>  (293) 
1

>  <s_lp_Variant>  (293) 
93:0-1

>  <s_i_glide_gridfile>  (293) 
pfpi4k_grid

>  <i_i_glide_lignum>  (293) 
19

>  <i_i_glide_rotatable_bonds>  (293) 
1

>  <r_i_docking_score>  (293) 
-3.20566

>  <r_i_glide_ligand_efficiency>  (293) 
-0.133569

>  <r_i_glide_ligand_efficiency_sa>  (293) 
-0.38528

>  <r_i_glide_ligand_efficiency_ln>  (293) 
-0.767262

>  <r_i_glide_gscore>  (293) 
-3.20566

>  <r_i_glide_lipo>  (293) 
-0.694703

>  <r_i_glide_hbond>  (293) 
0

>  <r_i_glide_metal>  (293) 
-0

>  <r_i_glide_rewards>  (293) 
-1.19689

>  <r_i_glide_evdw>  (293) 
-28.912

>  <r_i_glide_ecoul>  (293) 
1.13035

>  <r_i_glide_erotb>  (293) 
0

>  <r_i_glide_esite>  (293) 
-0.0380241

>  <r_i_glide_emodel>  (293) 
-34.1186

>  <r_i_glide_energy>  (293) 
-27.7816

>  <r_i_glide_einternal>  (293) 
0.00395761

>  <r_i_glide_intrahb_reward>  (293) 
-0

>  <i_i_glide_confnum>  (293) 
2

>  <i_i_glide_posenum>  (293) 
27

>  <r_i_glide_eff_state_penalty>  (293) 
0

>  <ligand_id>  (293) 
93

>  <original_smiles>  (293) 
CC12C(O)CC3c4ccccc4CCC3C1CC1CC(=O)CCC12

>  <smiles>  (293) 
[H]OC1([H])C([H])([H])C2([H])c3c([H])c([H])c([H])c([H])c3C([H])([H])C([H])([H])C2([H])C2([H])C([H])([H])C3([H])C([H])([H])C(=O)C([H])([H])C([H])([H])C3([H])C12C([H])([H])[H]

$$$$
94:0:0
     RDKit          3D

 49 53  0  0  1  0  0  0  0  0999 V2000
   -0.2782   -5.7967    5.9625 C   0  0  0  0  0  0  0  0  0  0  0  0
    0.7146   -5.3158    4.9138 C   0  0  0  0  0  0  0  0  0  0  0  0
    1.3268   -6.0084    3.9309 C   0  0  0  0  0  0  0  0  0  0  0  0
    2.3098   -5.1296    3.1871 C   0  0  2  0  0  0  0  0  0  0  0  0
    1.9179   -3.7054    3.5978 C   0  0  0  0  0  0  0  0  0  0  0  0
    1.1745   -3.8600    4.9441 C   0  0  1  0  0  0  0  0  0  0  0  0
    0.1310   -2.7797    5.1912 C   0  0  0  0  0  0  0  0  0  0  0  0
   -0.0293   -1.5519    4.4778 C   0  0  0  0  0  0  0  0  0  0  0  0
   -1.0918   -0.8976    5.0231 C   0  0  0  0  0  0  0  0  0  0  0  0
   -1.6011   -1.6095    6.0582 O   0  0  0  0  0  0  0  0  0  0  0  0
   -0.8437   -2.7274    6.1563 C   0  0  0  0  0  0  0  0  0  0  0  0
    2.2584   -5.2680    1.7695 O   0  0  0  0  0  0  0  0  0  0  0  0
    2.2508   -6.6074    1.2739 C   0  0  1  0  0  0  0  0  0  0  0  0
    3.5793   -7.3298    1.6405 C   0  0  2  0  0  0  0  0  0  0  0  0
    4.3205   -7.8900    0.5630 O   0  0  0  0  0  0  0  0  0  0  0  0
    5.1701   -8.9299    1.0819 C   0  0  0  0  0  0  0  0  0  0  0  0
    4.7473   -9.1882    2.5412 C   0  0  1  0  0  0  0  0  0  0  0  0
    5.6645   -8.5355    3.4038 O   0  0  0  0  0  0  0  0  0  0  0  0
    3.3578   -8.5619    2.5011 C   0  0  1  0  0  0  0  0  0  0  0  0
    2.4683   -8.3260    3.7499 C   0  0  1  0  0  0  0  0  0  0  0  0
    3.2147   -7.8060    4.8372 O   0  0  0  0  0  0  0  0  0  0  0  0
    1.1774   -7.4589    3.4207 C   0  0  1  0  0  0  0  0  0  0  0  0
   -0.0633   -8.2017    3.9686 C   0  0  0  0  0  0  0  0  0  0  0  0
    1.0189   -7.3273    1.8732 C   0  0  1  0  0  0  0  0  0  0  0  0
   -0.1732   -6.6605    1.4663 O   0  0  0  0  0  0  0  0  0  0  0  0
   -0.0490   -5.3248    6.9165 H   0  0  0  0  0  0  0  0  0  0  0  0
   -0.2513   -6.8630    6.1608 H   0  0  0  0  0  0  0  0  0  0  0  0
   -1.2937   -5.5196    5.6833 H   0  0  0  0  0  0  0  0  0  0  0  0
    3.3069   -5.3501    3.5722 H   0  0  0  0  0  0  0  0  0  0  0  0
    2.7519   -3.0049    3.6267 H   0  0  0  0  0  0  0  0  0  0  0  0
    1.2159   -3.3440    2.8397 H   0  0  0  0  0  0  0  0  0  0  0  0
    1.9074   -3.7960    5.7525 H   0  0  0  0  0  0  0  0  0  0  0  0
    0.5527   -1.1872    3.6482 H   0  0  0  0  0  0  0  0  0  0  0  0
   -1.5908    0.0375    4.8109 H   0  0  0  0  0  0  0  0  0  0  0  0
   -1.1450   -3.3770    6.9648 H   0  0  0  0  0  0  0  0  0  0  0  0
    2.1467   -6.5347    0.1927 H   0  0  0  0  0  0  0  0  0  0  0  0
    4.2618   -6.6417    2.1382 H   0  0  0  0  0  0  0  0  0  0  0  0
    4.9951   -9.8262    0.4866 H   0  0  0  0  0  0  0  0  0  0  0  0
    6.2284   -8.6837    0.9838 H   0  0  0  0  0  0  0  0  0  0  0  0
    4.7177  -10.2502    2.7912 H   0  0  0  0  0  0  0  0  0  0  0  0
    5.3227   -8.5871    4.2867 H   0  0  0  0  0  0  0  0  0  0  0  0
    2.7906   -9.2733    1.8954 H   0  0  0  0  0  0  0  0  0  0  0  0
    2.1539   -9.3189    4.0736 H   0  0  0  0  0  0  0  0  0  0  0  0
    2.7129   -7.9343    5.6301 H   0  0  0  0  0  0  0  0  0  0  0  0
   -0.2573   -9.1067    3.3975 H   0  0  0  0  0  0  0  0  0  0  0  0
   -0.9677   -7.5941    3.9164 H   0  0  0  0  0  0  0  0  0  0  0  0
    0.0752   -8.5334    4.9964 H   0  0  0  0  0  0  0  0  0  0  0  0
    0.9391   -8.3168    1.4296 H   0  0  0  0  0  0  0  0  0  0  0  0
   -0.8368   -7.3286    1.3824 H   0  0  0  0  0  0  0  0  0  0  0  0
  1  2  1  0
  1 26  1  0
  1 27  1  0
  1 28  1  0
  2  6  1  0
  2  3  2  0
  3 22  1  0
  3  4  1  0
  4  5  1  0
  4 12  1  0
  4 29  1  1
  5  6  1  0
  5 30  1  0
  5 31  1  0
  6  7  1  0
  6 32  1  1
  7 11  2  0
  7  8  1  0
  8  9  2  0
  8 33  1  0
  9 10  1  0
  9 34  1  0
 10 11  1  0
 11 35  1  0
 12 13  1  0
 13 24  1  0
 13 14  1  0
 13 36  1  6
 14 19  1  0
 14 15  1  0
 14 37  1  1
 15 16  1  0
 16 17  1  0
 16 38  1  0
 16 39  1  0
 17 18  1  0
 17 19  1  0
 17 40  1  1
 18 41  1  0
 19 20  1  0
 19 42  1  6
 20 21  1  0
 20 22  1  0
 20 43  1  1
 21 44  1  0
 22 23  1  1
 22 24  1  0
 23 45  1  0
 23 46  1  0
 23 47  1  0
 24 25  1  0
 24 48  1  6
 25 49  1  0
M  END
>  <i_m_ct_stereo_status>  (294) 
1

>  <s_m_source_file>  (294) 
/var/tmp/pbs.5076255.sched01/tmp2gjrvvgn/102_qij5c5l.sdf

>  <i_m_source_file_index>  (294) 
20

>  <i_lp_mmshare_version>  (294) 
48012

>  <i_f3d_flags>  (294) 
0

>  <s_epik_input>  (294) 
W2NIXTFvW2NIXVtjSF1jMVtDQEBIXShDPTJbQ0gzXSlbQ0gyXVtDQEBIXShDMltDQF0zNFtDSDNdKU9bQ0BIXShbQ0BASF00W09IXSlbQ0BIXTVbQ0BASF0oW0NAQEhdKFtDSDJdTzUpW09IXSlbQ0BIXTNbT0hd

>  <s_epik_cmdline>  (294) 
J2VwaWtfcHl0aG9uJywgJy1waHQnLCAnMi4wJywgJy1waCcsICc3LjAnLCAnLXRuJywgJzgnLCAnLW1hJywgJzIwMCcsICctaW1hZScsICc8aW5maWxlLm1hZT4nLCAnLW9tYWUnLCAnPG91dGZpbGUubWFlPic=

>  <r_lp_tautomer_probability>  (294) 
1

>  <r_epik_Ionization_Penalty>  (294) 
1.94789e-07

>  <r_epik_Ionization_Penalty_Charging>  (294) 
0

>  <r_epik_Ionization_Penalty_Neutral>  (294) 
1.94789e-07

>  <r_epik_State_Penalty>  (294) 
-0

>  <r_epik_Charging_Adjusted_Penalty>  (294) 
0

>  <i_epik_Tot_Q>  (294) 
0

>  <i_epik_Tot_abs_Q>  (294) 
0

>  <s_lp_Force_Field>  (294) 
OPLS3e

>  <r_lp_Energy>  (294) 
29.5404

>  <b_lp_Chiralities_Consistent>  (294) 
1

>  <s_lp_Variant>  (294) 
94:0-1

>  <s_i_glide_gridfile>  (294) 
pfpi4k_grid

>  <i_i_glide_lignum>  (294) 
20

>  <i_i_glide_rotatable_bonds>  (294) 
4

>  <r_i_docking_score>  (294) 
-3.45845

>  <r_i_glide_ligand_efficiency>  (294) 
-0.138338

>  <r_i_glide_ligand_efficiency_sa>  (294) 
-0.404503

>  <r_i_glide_ligand_efficiency_ln>  (294) 
-0.819757

>  <r_i_glide_gscore>  (294) 
-3.45845

>  <r_i_glide_lipo>  (294) 
-0.0703566

>  <r_i_glide_hbond>  (294) 
-0.0144016

>  <r_i_glide_metal>  (294) 
-0

>  <r_i_glide_rewards>  (294) 
-1.5337

>  <r_i_glide_evdw>  (294) 
-23.4483

>  <r_i_glide_ecoul>  (294) 
-5.49608

>  <r_i_glide_erotb>  (294) 
0.156835

>  <r_i_glide_esite>  (294) 
0

>  <r_i_glide_emodel>  (294) 
-40.6523

>  <r_i_glide_energy>  (294) 
-28.9444

>  <r_i_glide_einternal>  (294) 
2.87693

>  <r_i_glide_intrahb_reward>  (294) 
-0.5

>  <i_i_glide_confnum>  (294) 
4

>  <i_i_glide_posenum>  (294) 
34

>  <r_i_glide_eff_state_penalty>  (294) 
0

>  <ligand_id>  (294) 
94

>  <original_smiles>  (294) 
CC1=C2C(CC1c1ccoc1)OC1C3OCC(O)C3C(O)C2(C)C1O

>  <smiles>  (294) 
[H]OC1([H])C([H])([H])OC2([H])C3([H])OC4([H])C(=C(C([H])([H])[H])C([H])(c5c([H])oc([H])c5[H])C4([H])[H])C(C([H])([H])[H])(C3([H])O[H])C([H])(O[H])C12[H]

$$$$
94:0:1
     RDKit          3D

 49 53  0  0  1  0  0  0  0  0999 V2000
   -0.8961   -6.9050    4.7257 C   0  0  0  0  0  0  0  0  0  0  0  0
    0.6214   -6.9981    4.6866 C   0  0  0  0  0  0  0  0  0  0  0  0
    1.4302   -7.9851    4.2378 C   0  0  0  0  0  0  0  0  0  0  0  0
    2.8861   -7.6290    4.4703 C   0  0  2  0  0  0  0  0  0  0  0  0
    2.8601   -6.1243    4.7650 C   0  0  0  0  0  0  0  0  0  0  0  0
    1.4246   -5.8417    5.2570 C   0  0  1  0  0  0  0  0  0  0  0  0
    0.9223   -4.4418    4.9483 C   0  0  0  0  0  0  0  0  0  0  0  0
    1.2841   -3.6002    3.8516 C   0  0  0  0  0  0  0  0  0  0  0  0
    0.6136   -2.4217    4.0131 C   0  0  0  0  0  0  0  0  0  0  0  0
   -0.1631   -2.4656    5.1272 O   0  0  0  0  0  0  0  0  0  0  0  0
    0.0460   -3.6894    5.6847 C   0  0  0  0  0  0  0  0  0  0  0  0
    3.7402   -7.8988    3.3546 O   0  0  0  0  0  0  0  0  0  0  0  0
    3.5916   -9.1823    2.7372 C   0  0  1  0  0  0  0  0  0  0  0  0
    3.9802  -10.2937    3.7469 C   0  0  2  0  0  0  0  0  0  0  0  0
    5.0033  -11.1920    3.3367 O   0  0  0  0  0  0  0  0  0  0  0  0
    4.8666  -12.4072    4.0945 C   0  0  0  0  0  0  0  0  0  0  0  0
    3.5407  -12.3156    4.8751 C   0  0  1  0  0  0  0  0  0  0  0  0
    3.8156  -11.9292    6.2112 O   0  0  0  0  0  0  0  0  0  0  0  0
    2.8368  -11.2523    4.0460 C   0  0  1  0  0  0  0  0  0  0  0  0
    1.4953  -10.5692    4.4399 C   0  0  1  0  0  0  0  0  0  0  0  0
    1.4326  -10.2338    5.8166 O   0  0  0  0  0  0  0  0  0  0  0  0
    1.1600   -9.3237    3.5148 C   0  0  1  0  0  0  0  0  0  0  0  0
   -0.2834   -9.4763    2.9843 C   0  0  0  0  0  0  0  0  0  0  0  0
    2.1170   -9.3183    2.2824 C   0  0  1  0  0  0  0  0  0  0  0  0
    1.8052   -8.3020    1.3457 O   0  0  0  0  0  0  0  0  0  0  0  0
   -1.1986   -6.3905    5.6397 H   0  0  0  0  0  0  0  0  0  0  0  0
   -1.3960   -7.8721    4.7435 H   0  0  0  0  0  0  0  0  0  0  0  0
   -1.2670   -6.3205    3.8864 H   0  0  0  0  0  0  0  0  0  0  0  0
    3.2130   -8.1595    5.3648 H   0  0  0  0  0  0  0  0  0  0  0  0
    3.6325   -5.7823    5.4538 H   0  0  0  0  0  0  0  0  0  0  0  0
    3.0381   -5.6278    3.8093 H   0  0  0  0  0  0  0  0  0  0  0  0
    1.3915   -5.9655    6.3423 H   0  0  0  0  0  0  0  0  0  0  0  0
    1.9603   -3.8082    3.0406 H   0  0  0  0  0  0  0  0  0  0  0  0
    0.5732   -1.5092    3.4389 H   0  0  0  0  0  0  0  0  0  0  0  0
   -0.4981   -3.8571    6.6011 H   0  0  0  0  0  0  0  0  0  0  0  0
    4.2550   -9.2209    1.8708 H   0  0  0  0  0  0  0  0  0  0  0  0
    4.3426   -9.8501    4.6733 H   0  0  0  0  0  0  0  0  0  0  0  0
    4.8203  -13.2365    3.3854 H   0  0  0  0  0  0  0  0  0  0  0  0
    5.7224  -12.5909    4.7433 H   0  0  0  0  0  0  0  0  0  0  0  0
    3.0094  -13.2644    4.8831 H   0  0  0  0  0  0  0  0  0  0  0  0
    3.0645  -12.1658    6.7544 H   0  0  0  0  0  0  0  0  0  0  0  0
    2.6130  -11.7694    3.1076 H   0  0  0  0  0  0  0  0  0  0  0  0
    0.7236  -11.3286    4.3058 H   0  0  0  0  0  0  0  0  0  0  0  0
    1.4002  -11.0310    6.3389 H   0  0  0  0  0  0  0  0  0  0  0  0
   -0.3479  -10.3049    2.2816 H   0  0  0  0  0  0  0  0  0  0  0  0
   -0.6356   -8.5871    2.4622 H   0  0  0  0  0  0  0  0  0  0  0  0
   -0.9851   -9.7070    3.7817 H   0  0  0  0  0  0  0  0  0  0  0  0
    2.0072  -10.2458    1.7239 H   0  0  0  0  0  0  0  0  0  0  0  0
    1.0830   -8.6245    0.8199 H   0  0  0  0  0  0  0  0  0  0  0  0
  1  2  1  0
  1 26  1  0
  1 27  1  0
  1 28  1  0
  2  6  1  0
  2  3  2  0
  3 22  1  0
  3  4  1  0
  4  5  1  0
  4 12  1  0
  4 29  1  1
  5  6  1  0
  5 30  1  0
  5 31  1  0
  6  7  1  0
  6 32  1  1
  7 11  2  0
  7  8  1  0
  8  9  2  0
  8 33  1  0
  9 10  1  0
  9 34  1  0
 10 11  1  0
 11 35  1  0
 12 13  1  0
 13 24  1  0
 13 14  1  0
 13 36  1  6
 14 19  1  0
 14 15  1  0
 14 37  1  1
 15 16  1  0
 16 17  1  0
 16 38  1  0
 16 39  1  0
 17 18  1  0
 17 19  1  0
 17 40  1  1
 18 41  1  0
 19 20  1  0
 19 42  1  6
 20 21  1  0
 20 22  1  0
 20 43  1  1
 21 44  1  0
 22 23  1  6
 22 24  1  0
 23 45  1  0
 23 46  1  0
 23 47  1  0
 24 25  1  0
 24 48  1  6
 25 49  1  0
M  END
>  <i_m_ct_stereo_status>  (295) 
1

>  <s_m_source_file>  (295) 
/var/tmp/pbs.5076255.sched01/tmp2gjrvvgn/102_qij5c5l.sdf

>  <i_m_source_file_index>  (295) 
20

>  <i_lp_mmshare_version>  (295) 
48012

>  <i_f3d_flags>  (295) 
0

>  <s_epik_input>  (295) 
W2NIXTFvW2NIXVtjSF1jMVtDQEBIXShDPTJbQ0gzXSlbQ0gyXVtDQEBIXShDMltDQF0zNFtDSDNdKU9bQ0BIXShbQ0BASF00W09IXSlbQ0BIXTVbQ0BASF0oW0NAQEhdKFtDSDJdTzUpW09IXSlbQ0BIXTNbT0hd

>  <s_epik_cmdline>  (295) 
J2VwaWtfcHl0aG9uJywgJy1waHQnLCAnMi4wJywgJy1waCcsICc3LjAnLCAnLXRuJywgJzgnLCAnLW1hJywgJzIwMCcsICctaW1hZScsICc8aW5maWxlLm1hZT4nLCAnLW9tYWUnLCAnPG91dGZpbGUubWFlPic=

>  <r_lp_tautomer_probability>  (295) 
1

>  <r_epik_Ionization_Penalty>  (295) 
1.94789e-07

>  <r_epik_Ionization_Penalty_Charging>  (295) 
0

>  <r_epik_Ionization_Penalty_Neutral>  (295) 
1.94789e-07

>  <r_epik_State_Penalty>  (295) 
-0

>  <r_epik_Charging_Adjusted_Penalty>  (295) 
0

>  <i_epik_Tot_Q>  (295) 
0

>  <i_epik_Tot_abs_Q>  (295) 
0

>  <s_lp_Force_Field>  (295) 
OPLS3e

>  <r_lp_Energy>  (295) 
29.5404

>  <b_lp_Chiralities_Consistent>  (295) 
1

>  <s_lp_Variant>  (295) 
94:0-1

>  <s_i_glide_gridfile>  (295) 
pfpi4k_grid

>  <i_i_glide_lignum>  (295) 
20

>  <i_i_glide_rotatable_bonds>  (295) 
4

>  <r_i_docking_score>  (295) 
-3.45138

>  <r_i_glide_ligand_efficiency>  (295) 
-0.138055

>  <r_i_glide_ligand_efficiency_sa>  (295) 
-0.403676

>  <r_i_glide_ligand_efficiency_ln>  (295) 
-0.818081

>  <r_i_glide_gscore>  (295) 
-3.45138

>  <r_i_glide_lipo>  (295) 
-0.133458

>  <r_i_glide_hbond>  (295) 
0

>  <r_i_glide_metal>  (295) 
-0

>  <r_i_glide_rewards>  (295) 
-1.0337

>  <r_i_glide_evdw>  (295) 
-21.8131

>  <r_i_glide_ecoul>  (295) 
-9.00268

>  <r_i_glide_erotb>  (295) 
0.156835

>  <r_i_glide_esite>  (295) 
0

>  <r_i_glide_emodel>  (295) 
-37.4009

>  <r_i_glide_energy>  (295) 
-30.8158

>  <r_i_glide_einternal>  (295) 
2.59973

>  <r_i_glide_intrahb_reward>  (295) 
-0

>  <i_i_glide_confnum>  (295) 
4

>  <i_i_glide_posenum>  (295) 
16

>  <r_i_glide_eff_state_penalty>  (295) 
0

>  <ligand_id>  (295) 
94

>  <original_smiles>  (295) 
CC1=C2C(CC1c1ccoc1)OC1C3OCC(O)C3C(O)C2(C)C1O

>  <smiles>  (295) 
[H]OC1([H])C([H])([H])OC2([H])C3([H])OC4([H])C(=C(C([H])([H])[H])C([H])(c5c([H])oc([H])c5[H])C4([H])[H])C(C([H])([H])[H])(C3([H])O[H])C([H])(O[H])C12[H]

$$$$
94:0:2
     RDKit          3D

 49 53  0  0  1  0  0  0  0  0999 V2000
    0.2908   -4.0835    5.5062 C   0  0  0  0  0  0  0  0  0  0  0  0
    1.3598   -4.7773    4.6727 C   0  0  0  0  0  0  0  0  0  0  0  0
    1.4006   -6.0249    4.1571 C   0  0  0  0  0  0  0  0  0  0  0  0
    2.7165   -6.2646    3.4402 C   0  0  2  0  0  0  0  0  0  0  0  0
    3.2990   -4.8560    3.2583 C   0  0  0  0  0  0  0  0  0  0  0  0
    2.6335   -4.0089    4.3580 C   0  0  1  0  0  0  0  0  0  0  0  0
    2.4745   -2.5535    3.9722 C   0  0  0  0  0  0  0  0  0  0  0  0
    1.4106   -1.9370    3.2462 C   0  0  0  0  0  0  0  0  0  0  0  0
    1.7240   -0.6130    3.1225 C   0  0  0  0  0  0  0  0  0  0  0  0
    2.9182   -0.3553    3.7091 O   0  0  0  0  0  0  0  0  0  0  0  0
    3.3603   -1.5371    4.2116 C   0  0  0  0  0  0  0  0  0  0  0  0
    2.5801   -6.9301    2.1785 O   0  0  0  0  0  0  0  0  0  0  0  0
    1.7390   -8.0891    2.1627 C   0  0  1  0  0  0  0  0  0  0  0  0
    2.3305   -9.1891    3.0822 C   0  0  2  0  0  0  0  0  0  0  0  0
    2.5688  -10.4489    2.4793 O   0  0  0  0  0  0  0  0  0  0  0  0
    2.5926  -11.4541    3.5059 C   0  0  0  0  0  0  0  0  0  0  0  0
    2.0851  -10.7906    4.8101 C   0  0  1  0  0  0  0  0  0  0  0  0
    3.1556  -10.4534    5.6704 O   0  0  0  0  0  0  0  0  0  0  0  0
    1.3891   -9.5851    4.2079 C   0  0  1  0  0  0  0  0  0  0  0  0
    0.8377   -8.3960    5.0363 C   0  0  1  0  0  0  0  0  0  0  0  0
    1.7201   -7.9856    6.0611 O   0  0  0  0  0  0  0  0  0  0  0  0
    0.3849   -7.1888    4.1250 C   0  0  1  0  0  0  0  0  0  0  0  0
   -1.0326   -6.7923    4.5556 C   0  0  0  0  0  0  0  0  0  0  0  0
    0.3285   -7.6449    2.6359 C   0  0  1  0  0  0  0  0  0  0  0  0
   -0.1860   -6.6710    1.7446 O   0  0  0  0  0  0  0  0  0  0  0  0
    0.7682   -3.4363    6.2442 H   0  0  0  0  0  0  0  0  0  0  0  0
   -0.3465   -4.7614    6.0694 H   0  0  0  0  0  0  0  0  0  0  0  0
   -0.3360   -3.4552    4.8740 H   0  0  0  0  0  0  0  0  0  0  0  0
    3.3503   -6.8265    4.1253 H   0  0  0  0  0  0  0  0  0  0  0  0
    4.3894   -4.8180    3.2765 H   0  0  0  0  0  0  0  0  0  0  0  0
    2.9798   -4.4815    2.2829 H   0  0  0  0  0  0  0  0  0  0  0  0
    3.2387   -4.0488    5.2666 H   0  0  0  0  0  0  0  0  0  0  0  0
    0.5219   -2.4026    2.8622 H   0  0  0  0  0  0  0  0  0  0  0  0
    1.2397    0.2312    2.6596 H   0  0  0  0  0  0  0  0  0  0  0  0
    4.3206   -1.4825    4.6999 H   0  0  0  0  0  0  0  0  0  0  0  0
    1.6916   -8.4555    1.1357 H   0  0  0  0  0  0  0  0  0  0  0  0
    3.2920   -8.8752    3.4884 H   0  0  0  0  0  0  0  0  0  0  0  0
    1.8994  -12.2388    3.1971 H   0  0  0  0  0  0  0  0  0  0  0  0
    3.5728  -11.9252    3.6005 H   0  0  0  0  0  0  0  0  0  0  0  0
    1.3996  -11.4362    5.3599 H   0  0  0  0  0  0  0  0  0  0  0  0
    3.3345  -11.2206    6.2037 H   0  0  0  0  0  0  0  0  0  0  0  0
    0.5058  -10.0270    3.7407 H   0  0  0  0  0  0  0  0  0  0  0  0
   -0.0238   -8.8025    5.5655 H   0  0  0  0  0  0  0  0  0  0  0  0
    2.0600   -8.7738    6.4711 H   0  0  0  0  0  0  0  0  0  0  0  0
   -1.7521   -7.5621    4.2850 H   0  0  0  0  0  0  0  0  0  0  0  0
   -1.3434   -5.8744    4.0760 H   0  0  0  0  0  0  0  0  0  0  0  0
   -1.1030   -6.6597    5.6314 H   0  0  0  0  0  0  0  0  0  0  0  0
   -0.3630   -8.4792    2.5417 H   0  0  0  0  0  0  0  0  0  0  0  0
   -0.2569   -7.1008    0.9019 H   0  0  0  0  0  0  0  0  0  0  0  0
  1  2  1  0
  1 26  1  0
  1 27  1  0
  1 28  1  0
  2  6  1  0
  2  3  2  0
  3 22  1  0
  3  4  1  0
  4  5  1  0
  4 12  1  0
  4 29  1  1
  5  6  1  0
  5 30  1  0
  5 31  1  0
  6  7  1  0
  6 32  1  1
  7 11  2  0
  7  8  1  0
  8  9  2  0
  8 33  1  0
  9 10  1  0
  9 34  1  0
 10 11  1  0
 11 35  1  0
 12 13  1  0
 13 24  1  0
 13 14  1  0
 13 36  1  6
 14 19  1  0
 14 15  1  0
 14 37  1  1
 15 16  1  0
 16 17  1  0
 16 38  1  0
 16 39  1  0
 17 18  1  0
 17 19  1  0
 17 40  1  1
 18 41  1  0
 19 20  1  0
 19 42  1  6
 20 21  1  0
 20 22  1  0
 20 43  1  1
 21 44  1  0
 22 23  1  1
 22 24  1  0
 23 45  1  0
 23 46  1  0
 23 47  1  0
 24 25  1  0
 24 48  1  1
 25 49  1  0
M  END
>  <i_m_ct_stereo_status>  (296) 
1

>  <s_m_source_file>  (296) 
/var/tmp/pbs.5076255.sched01/tmp2gjrvvgn/102_qij5c5l.sdf

>  <i_m_source_file_index>  (296) 
20

>  <i_lp_mmshare_version>  (296) 
48012

>  <i_f3d_flags>  (296) 
0

>  <s_epik_input>  (296) 
W2NIXTFvW2NIXVtjSF1jMVtDQEBIXShDPTJbQ0gzXSlbQ0gyXVtDQEBIXShDMltDQF0zNFtDSDNdKU9bQ0BIXShbQ0BASF00W09IXSlbQ0BIXTVbQ0BASF0oW0NAQEhdKFtDSDJdTzUpW09IXSlbQ0BIXTNbT0hd

>  <s_epik_cmdline>  (296) 
J2VwaWtfcHl0aG9uJywgJy1waHQnLCAnMi4wJywgJy1waCcsICc3LjAnLCAnLXRuJywgJzgnLCAnLW1hJywgJzIwMCcsICctaW1hZScsICc8aW5maWxlLm1hZT4nLCAnLW9tYWUnLCAnPG91dGZpbGUubWFlPic=

>  <r_lp_tautomer_probability>  (296) 
1

>  <r_epik_Ionization_Penalty>  (296) 
1.94789e-07

>  <r_epik_Ionization_Penalty_Charging>  (296) 
0

>  <r_epik_Ionization_Penalty_Neutral>  (296) 
1.94789e-07

>  <r_epik_State_Penalty>  (296) 
-0

>  <r_epik_Charging_Adjusted_Penalty>  (296) 
0

>  <i_epik_Tot_Q>  (296) 
0

>  <i_epik_Tot_abs_Q>  (296) 
0

>  <s_lp_Force_Field>  (296) 
OPLS3e

>  <r_lp_Energy>  (296) 
29.5404

>  <b_lp_Chiralities_Consistent>  (296) 
1

>  <s_lp_Variant>  (296) 
94:0-1

>  <s_i_glide_gridfile>  (296) 
pfpi4k_grid

>  <i_i_glide_lignum>  (296) 
20

>  <i_i_glide_rotatable_bonds>  (296) 
4

>  <r_i_docking_score>  (296) 
-3.38919

>  <r_i_glide_ligand_efficiency>  (296) 
-0.135568

>  <r_i_glide_ligand_efficiency_sa>  (296) 
-0.396402

>  <r_i_glide_ligand_efficiency_ln>  (296) 
-0.80334

>  <r_i_glide_gscore>  (296) 
-3.38919

>  <r_i_glide_lipo>  (296) 
-0.009935

>  <r_i_glide_hbond>  (296) 
0

>  <r_i_glide_metal>  (296) 
-0

>  <r_i_glide_rewards>  (296) 
-1.5337

>  <r_i_glide_evdw>  (296) 
-21.8113

>  <r_i_glide_ecoul>  (296) 
-6.07881

>  <r_i_glide_erotb>  (296) 
0.156835

>  <r_i_glide_esite>  (296) 
0

>  <r_i_glide_emodel>  (296) 
-40.0284

>  <r_i_glide_energy>  (296) 
-27.8901

>  <r_i_glide_einternal>  (296) 
1.70036

>  <r_i_glide_intrahb_reward>  (296) 
-0.5

>  <i_i_glide_confnum>  (296) 
4

>  <i_i_glide_posenum>  (296) 
23

>  <r_i_glide_eff_state_penalty>  (296) 
0

>  <ligand_id>  (296) 
94

>  <original_smiles>  (296) 
CC1=C2C(CC1c1ccoc1)OC1C3OCC(O)C3C(O)C2(C)C1O

>  <smiles>  (296) 
[H]OC1([H])C([H])([H])OC2([H])C3([H])OC4([H])C(=C(C([H])([H])[H])C([H])(c5c([H])oc([H])c5[H])C4([H])[H])C(C([H])([H])[H])(C3([H])O[H])C([H])(O[H])C12[H]

$$$$
95:0:0
     RDKit          3D

 43 47  0  0  1  0  0  0  0  0999 V2000
    4.8841   -7.9508    1.8182 C   0  0  0  0  0  0  0  0  0  0  0  0
    3.4317   -8.1907    2.0912 C   0  0  0  0  0  0  0  0  0  0  0  0
    3.1414   -9.3227    2.8543 N   0  0  0  0  0  0  0  0  0  0  0  0
    1.8436   -9.3091    2.9187 C   0  0  0  0  0  0  0  0  0  0  0  0
    0.5517  -10.2650    3.6050 S   0  0  0  0  0  0  0  0  0  0  0  0
   -0.7254   -9.2288    3.0200 C   0  0  0  0  0  0  0  0  0  0  0  0
   -0.1337   -8.2107    2.3238 C   0  0  0  0  0  0  0  0  0  0  0  0
    1.2361   -8.2505    2.2668 N   0  0  0  0  0  0  0  0  0  0  0  0
    2.2959   -7.4982    1.7257 C   0  0  0  0  0  0  0  0  0  0  0  0
    2.0665   -6.2679    0.8991 C   0  0  0  0  0  0  0  0  0  0  0  0
    0.9517   -5.9413    0.4991 O   0  0  0  0  0  0  0  0  0  0  0  0
    3.1877   -5.5866    0.6306 N   0  0  0  0  0  0  0  0  0  0  0  0
    3.4078   -4.4281   -0.2230 C   0  0  2  0  0  0  0  0  0  0  0  0
    4.8518   -4.4530   -0.8084 C   0  0  2  0  0  0  0  0  0  0  0  0
    5.9371   -4.3400    0.2999 C   0  0  0  0  0  0  0  0  0  0  0  0
    5.7124   -3.0513    1.1085 C   0  0  1  0  0  0  0  0  0  0  0  0
    5.8706   -1.8453    0.1690 C   0  0  0  0  0  0  0  0  0  0  0  0
    4.8272   -1.9407   -0.9673 C   0  0  1  0  0  0  0  0  0  0  0  0
    5.0202   -3.2500   -1.7656 C   0  0  0  0  0  0  0  0  0  0  0  0
    3.4113   -1.9237   -0.3616 C   0  0  0  0  0  0  0  0  0  0  0  0
    3.2371   -3.1260    0.5900 C   0  0  2  0  0  0  0  0  0  0  0  0
    4.2951   -3.0484    1.7218 C   0  0  0  0  0  0  0  0  0  0  0  0
    5.0709   -7.1086    1.1632 H   0  0  0  0  0  0  0  0  0  0  0  0
    5.3146   -8.8088    1.3056 H   0  0  0  0  0  0  0  0  0  0  0  0
    5.4147   -7.7792    2.7570 H   0  0  0  0  0  0  0  0  0  0  0  0
   -1.7625   -9.4528    3.2216 H   0  0  0  0  0  0  0  0  0  0  0  0
   -0.6705   -7.4285    1.8061 H   0  0  0  0  0  0  0  0  0  0  0  0
    4.0041   -5.9591    1.0711 H   0  0  0  0  0  0  0  0  0  0  0  0
    2.6930   -4.4436   -1.0485 H   0  0  0  0  0  0  0  0  0  0  0  0
    5.0094   -5.3740   -1.3728 H   0  0  0  0  0  0  0  0  0  0  0  0
    5.9172   -5.1743    0.9926 H   0  0  0  0  0  0  0  0  0  0  0  0
    6.9398   -4.3582   -0.1384 H   0  0  0  0  0  0  0  0  0  0  0  0
    6.4567   -3.0010    1.9013 H   0  0  0  0  0  0  0  0  0  0  0  0
    5.7299   -0.9214    0.7317 H   0  0  0  0  0  0  0  0  0  0  0  0
    6.8852   -1.8250   -0.2351 H   0  0  0  0  0  0  0  0  0  0  0  0
    4.9426   -1.0865   -1.6333 H   0  0  0  0  0  0  0  0  0  0  0  0
    6.0042   -3.2684   -2.2435 H   0  0  0  0  0  0  0  0  0  0  0  0
    4.2835   -3.3113   -2.5673 H   0  0  0  0  0  0  0  0  0  0  0  0
    3.2362   -0.9966    0.1804 H   0  0  0  0  0  0  0  0  0  0  0  0
    2.6705   -1.9719   -1.1545 H   0  0  0  0  0  0  0  0  0  0  0  0
    2.2331   -3.0972    1.0194 H   0  0  0  0  0  0  0  0  0  0  0  0
    4.1847   -3.8785    2.4227 H   0  0  0  0  0  0  0  0  0  0  0  0
    4.1394   -2.1457    2.3134 H   0  0  0  0  0  0  0  0  0  0  0  0
  1  2  1  0
  1 23  1  0
  1 24  1  0
  1 25  1  0
  2  9  2  0
  2  3  1  0
  3  4  2  0
  4  8  1  0
  4  5  1  0
  5  6  1  0
  6  7  2  0
  6 26  1  0
  7  8  1  0
  7 27  1  0
  8  9  1  0
  9 10  1  0
 10 11  2  0
 10 12  1  0
 12 13  1  0
 12 28  1  0
 13 21  1  0
 13 14  1  0
 13 29  1  6
 14 19  1  0
 14 15  1  0
 14 30  1  6
 15 16  1  0
 15 31  1  0
 15 32  1  0
 16 22  1  0
 16 17  1  0
 16 33  1  1
 17 18  1  0
 17 34  1  0
 17 35  1  0
 18 19  1  0
 18 20  1  0
 18 36  1  6
 19 37  1  0
 19 38  1  0
 20 21  1  0
 20 39  1  0
 20 40  1  0
 21 22  1  0
 21 41  1  1
 22 42  1  0
 22 43  1  0
M  END
>  <i_m_ct_stereo_status>  (297) 
1

>  <s_m_source_file>  (297) 
/var/tmp/pbs.5076255.sched01/tmp2gjrvvgn/102_qij5c5l.sdf

>  <i_m_source_file_index>  (297) 
21

>  <i_lp_mmshare_version>  (297) 
48012

>  <i_f3d_flags>  (297) 
0

>  <s_epik_input>  (297) 
czFbY0hdW2NIXW4oYzEyKWMoYyhuMilbQ0gzXSlDKD1PKVtOSF1bQ0BIXShbQ0BASF0zNClbQ0BIXTVbQ0gyXVtDQEBIXShbQ0gyXTQpW0NIMl1bQ0BASF0oW0NIMl0zKVtDSDJdNQ==

>  <s_epik_cmdline>  (297) 
J2VwaWtfcHl0aG9uJywgJy1waHQnLCAnMi4wJywgJy1waCcsICc3LjAnLCAnLXRuJywgJzgnLCAnLW1hJywgJzIwMCcsICctaW1hZScsICc8aW5maWxlLm1hZT4nLCAnLW9tYWUnLCAnPG91dGZpbGUubWFlPic=

>  <r_lp_tautomer_probability>  (297) 
1

>  <r_epik_Ionization_Penalty>  (297) 
2.12733e-05

>  <r_epik_Ionization_Penalty_Charging>  (297) 
0

>  <r_epik_Ionization_Penalty_Neutral>  (297) 
2.12733e-05

>  <r_epik_State_Penalty>  (297) 
-0

>  <r_epik_Charging_Adjusted_Penalty>  (297) 
0

>  <i_epik_Tot_Q>  (297) 
0

>  <i_epik_Tot_abs_Q>  (297) 
0

>  <s_lp_Force_Field>  (297) 
OPLS3e

>  <r_lp_Energy>  (297) 
3.08806

>  <b_lp_Chiralities_Consistent>  (297) 
1

>  <s_lp_Variant>  (297) 
95:0-1

>  <s_i_glide_gridfile>  (297) 
pfpi4k_grid

>  <i_i_glide_lignum>  (297) 
21

>  <i_i_glide_rotatable_bonds>  (297) 
3

>  <r_i_docking_score>  (297) 
-3.13983

>  <r_i_glide_ligand_efficiency>  (297) 
-0.14272

>  <r_i_glide_ligand_efficiency_sa>  (297) 
-0.399906

>  <r_i_glide_ligand_efficiency_ln>  (297) 
-0.767489

>  <r_i_glide_gscore>  (297) 
-3.13983

>  <r_i_glide_lipo>  (297) 
-0.309285

>  <r_i_glide_hbond>  (297) 
-0.16

>  <r_i_glide_metal>  (297) 
-0

>  <r_i_glide_rewards>  (297) 
-1.27621

>  <r_i_glide_evdw>  (297) 
-24.2646

>  <r_i_glide_ecoul>  (297) 
-4.43434

>  <r_i_glide_erotb>  (297) 
0.560888

>  <r_i_glide_esite>  (297) 
-0.0768413

>  <r_i_glide_emodel>  (297) 
-33.7996

>  <r_i_glide_energy>  (297) 
-28.6989

>  <r_i_glide_einternal>  (297) 
0.323459

>  <r_i_glide_intrahb_reward>  (297) 
-0

>  <i_i_glide_confnum>  (297) 
5

>  <i_i_glide_posenum>  (297) 
1

>  <r_i_glide_eff_state_penalty>  (297) 
0

>  <ligand_id>  (297) 
95

>  <original_smiles>  (297) 
Cc1nc2sccn2c1C(=O)NC1C2CC3CC(C2)CC1C3

>  <smiles>  (297) 
[H]c1sc2nc(C([H])([H])[H])c(C(=O)N([H])C3([H])C4([H])C([H])([H])C5([H])C([H])([H])C([H])(C4([H])[H])C([H])([H])C3([H])C5([H])[H])n2c1[H]

$$$$
95:0:1
     RDKit          3D

 43 47  0  0  1  0  0  0  0  0999 V2000
    5.7272   -7.3253    1.6310 C   0  0  0  0  0  0  0  0  0  0  0  0
    4.3882   -7.9132    1.9404 C   0  0  0  0  0  0  0  0  0  0  0  0
    4.4206   -9.1901    2.5004 N   0  0  0  0  0  0  0  0  0  0  0  0
    3.1648   -9.4654    2.6718 C   0  0  0  0  0  0  0  0  0  0  0  0
    2.1718  -10.7752    3.2927 S   0  0  0  0  0  0  0  0  0  0  0  0
    0.6625   -9.9564    3.0342 C   0  0  0  0  0  0  0  0  0  0  0  0
    0.9525   -8.7349    2.4795 C   0  0  0  0  0  0  0  0  0  0  0  0
    2.2796   -8.4712    2.2845 N   0  0  0  0  0  0  0  0  0  0  0  0
    3.1034   -7.4320    1.7883 C   0  0  0  0  0  0  0  0  0  0  0  0
    2.5272   -6.1432    1.2565 C   0  0  0  0  0  0  0  0  0  0  0  0
    1.3206   -5.9394    1.1524 O   0  0  0  0  0  0  0  0  0  0  0  0
    3.4646   -5.2305    0.9391 N   0  0  0  0  0  0  0  0  0  0  0  0
    3.3473   -3.8492    0.4918 C   0  0  2  0  0  0  0  0  0  0  0  0
    4.3556   -3.5581   -0.6596 C   0  0  2  0  0  0  0  0  0  0  0  0
    5.8355   -3.6742   -0.2092 C   0  0  0  0  0  0  0  0  0  0  0  0
    6.0918   -2.7271    0.9795 C   0  0  1  0  0  0  0  0  0  0  0  0
    5.8654   -1.2825    0.5011 C   0  0  0  0  0  0  0  0  0  0  0  0
    4.4075   -1.1310    0.0072 C   0  0  1  0  0  0  0  0  0  0  0  0
    4.1242   -2.1149   -1.1531 C   0  0  0  0  0  0  0  0  0  0  0  0
    3.4437   -1.4256    1.1752 C   0  0  0  0  0  0  0  0  0  0  0  0
    3.6583   -2.8769    1.6624 C   0  0  2  0  0  0  0  0  0  0  0  0
    5.1248   -3.0344    2.1480 C   0  0  0  0  0  0  0  0  0  0  0  0
    5.6652   -6.3329    1.2189 H   0  0  0  0  0  0  0  0  0  0  0  0
    6.2545   -7.9399    0.9029 H   0  0  0  0  0  0  0  0  0  0  0  0
    6.3329   -7.2370    2.5316 H   0  0  0  0  0  0  0  0  0  0  0  0
   -0.2652  -10.4304    3.3021 H   0  0  0  0  0  0  0  0  0  0  0  0
    0.2111   -8.0043    2.1863 H   0  0  0  0  0  0  0  0  0  0  0  0
    4.4016   -5.5380    1.0995 H   0  0  0  0  0  0  0  0  0  0  0  0
    2.3352   -3.6622    0.1204 H   0  0  0  0  0  0  0  0  0  0  0  0
    4.1768   -4.2511   -1.4838 H   0  0  0  0  0  0  0  0  0  0  0  0
    6.0902   -4.6861    0.0622 H   0  0  0  0  0  0  0  0  0  0  0  0
    6.5136   -3.4527   -1.0353 H   0  0  0  0  0  0  0  0  0  0  0  0
    7.1225   -2.8445    1.3134 H   0  0  0  0  0  0  0  0  0  0  0  0
    6.0628   -0.5816    1.3151 H   0  0  0  0  0  0  0  0  0  0  0  0
    6.5696   -1.0472   -0.2965 H   0  0  0  0  0  0  0  0  0  0  0  0
    4.2530   -0.1121   -0.3428 H   0  0  0  0  0  0  0  0  0  0  0  0
    4.7688   -1.9000   -2.0080 H   0  0  0  0  0  0  0  0  0  0  0  0
    3.0928   -2.0028   -1.4958 H   0  0  0  0  0  0  0  0  0  0  0  0
    3.6135   -0.7187    1.9875 H   0  0  0  0  0  0  0  0  0  0  0  0
    2.4095   -1.2885    0.8619 H   0  0  0  0  0  0  0  0  0  0  0  0
    2.9774   -3.0737    2.4921 H   0  0  0  0  0  0  0  0  0  0  0  0
    5.3050   -4.0360    2.5390 H   0  0  0  0  0  0  0  0  0  0  0  0
    5.3174   -2.3601    2.9868 H   0  0  0  0  0  0  0  0  0  0  0  0
  1  2  1  0
  1 23  1  0
  1 24  1  0
  1 25  1  0
  2  9  2  0
  2  3  1  0
  3  4  2  0
  4  8  1  0
  4  5  1  0
  5  6  1  0
  6  7  2  0
  6 26  1  0
  7  8  1  0
  7 27  1  0
  8  9  1  0
  9 10  1  0
 10 11  2  0
 10 12  1  0
 12 13  1  0
 12 28  1  0
 13 21  1  0
 13 14  1  0
 13 29  1  6
 14 19  1  0
 14 15  1  0
 14 30  1  6
 15 16  1  0
 15 31  1  0
 15 32  1  0
 16 22  1  0
 16 17  1  0
 16 33  1  1
 17 18  1  0
 17 34  1  0
 17 35  1  0
 18 19  1  0
 18 20  1  0
 18 36  1  6
 19 37  1  0
 19 38  1  0
 20 21  1  0
 20 39  1  0
 20 40  1  0
 21 22  1  0
 21 41  1  1
 22 42  1  0
 22 43  1  0
M  END
>  <i_m_ct_stereo_status>  (298) 
1

>  <s_m_source_file>  (298) 
/var/tmp/pbs.5076255.sched01/tmp2gjrvvgn/102_qij5c5l.sdf

>  <i_m_source_file_index>  (298) 
21

>  <i_lp_mmshare_version>  (298) 
48012

>  <i_f3d_flags>  (298) 
0

>  <s_epik_input>  (298) 
czFbY0hdW2NIXW4oYzEyKWMoYyhuMilbQ0gzXSlDKD1PKVtOSF1bQ0BIXShbQ0BASF0zNClbQ0BIXTVbQ0gyXVtDQEBIXShbQ0gyXTQpW0NIMl1bQ0BASF0oW0NIMl0zKVtDSDJdNQ==

>  <s_epik_cmdline>  (298) 
J2VwaWtfcHl0aG9uJywgJy1waHQnLCAnMi4wJywgJy1waCcsICc3LjAnLCAnLXRuJywgJzgnLCAnLW1hJywgJzIwMCcsICctaW1hZScsICc8aW5maWxlLm1hZT4nLCAnLW9tYWUnLCAnPG91dGZpbGUubWFlPic=

>  <r_lp_tautomer_probability>  (298) 
1

>  <r_epik_Ionization_Penalty>  (298) 
2.12733e-05

>  <r_epik_Ionization_Penalty_Charging>  (298) 
0

>  <r_epik_Ionization_Penalty_Neutral>  (298) 
2.12733e-05

>  <r_epik_State_Penalty>  (298) 
-0

>  <r_epik_Charging_Adjusted_Penalty>  (298) 
0

>  <i_epik_Tot_Q>  (298) 
0

>  <i_epik_Tot_abs_Q>  (298) 
0

>  <s_lp_Force_Field>  (298) 
OPLS3e

>  <r_lp_Energy>  (298) 
3.08806

>  <b_lp_Chiralities_Consistent>  (298) 
1

>  <s_lp_Variant>  (298) 
95:0-1

>  <s_i_glide_gridfile>  (298) 
pfpi4k_grid

>  <i_i_glide_lignum>  (298) 
21

>  <i_i_glide_rotatable_bonds>  (298) 
3

>  <r_i_docking_score>  (298) 
-3.08395

>  <r_i_glide_ligand_efficiency>  (298) 
-0.14018

>  <r_i_glide_ligand_efficiency_sa>  (298) 
-0.392789

>  <r_i_glide_ligand_efficiency_ln>  (298) 
-0.753831

>  <r_i_glide_gscore>  (298) 
-3.08395

>  <r_i_glide_lipo>  (298) 
-0.563623

>  <r_i_glide_hbond>  (298) 
-0.157359

>  <r_i_glide_metal>  (298) 
-0

>  <r_i_glide_rewards>  (298) 
-1.2584

>  <r_i_glide_evdw>  (298) 
-24.6051

>  <r_i_glide_ecoul>  (298) 
-2.55301

>  <r_i_glide_erotb>  (298) 
0.560888

>  <r_i_glide_esite>  (298) 
-0.0522511

>  <r_i_glide_emodel>  (298) 
-32.0858

>  <r_i_glide_energy>  (298) 
-27.1581

>  <r_i_glide_einternal>  (298) 
0.404154

>  <r_i_glide_intrahb_reward>  (298) 
-0

>  <i_i_glide_confnum>  (298) 
1

>  <i_i_glide_posenum>  (298) 
15

>  <r_i_glide_eff_state_penalty>  (298) 
0

>  <ligand_id>  (298) 
95

>  <original_smiles>  (298) 
Cc1nc2sccn2c1C(=O)NC1C2CC3CC(C2)CC1C3

>  <smiles>  (298) 
[H]c1sc2nc(C([H])([H])[H])c(C(=O)N([H])C3([H])C4([H])C([H])([H])C5([H])C([H])([H])C([H])(C4([H])[H])C([H])([H])C3([H])C5([H])[H])n2c1[H]

$$$$
95:0:2
     RDKit          3D

 43 47  0  0  1  0  0  0  0  0999 V2000
    4.7159   -7.7449    0.6878 C   0  0  0  0  0  0  0  0  0  0  0  0
    3.4176   -7.9191    1.4307 C   0  0  0  0  0  0  0  0  0  0  0  0
    2.9735   -9.2315    1.5854 N   0  0  0  0  0  0  0  0  0  0  0  0
    1.8575   -9.1048    2.2444 C   0  0  0  0  0  0  0  0  0  0  0  0
    0.5924  -10.1271    2.9084 S   0  0  0  0  0  0  0  0  0  0  0  0
   -0.3270   -8.7944    3.5599 C   0  0  0  0  0  0  0  0  0  0  0  0
    0.3469   -7.6376    3.2611 C   0  0  0  0  0  0  0  0  0  0  0  0
    1.5113   -7.8028    2.5542 N   0  0  0  0  0  0  0  0  0  0  0  0
    2.5481   -7.0155    2.0067 C   0  0  0  0  0  0  0  0  0  0  0  0
    2.5840   -5.5297    2.1457 C   0  0  0  0  0  0  0  0  0  0  0  0
    1.7416   -4.9148    2.7932 O   0  0  0  0  0  0  0  0  0  0  0  0
    3.6030   -4.9539    1.4899 N   0  0  0  0  0  0  0  0  0  0  0  0
    4.0304   -3.5643    1.4376 C   0  0  2  0  0  0  0  0  0  0  0  0
    3.0595   -2.7170    0.5865 C   0  0  2  0  0  0  0  0  0  0  0  0
    3.0455   -3.2133   -0.8824 C   0  0  0  0  0  0  0  0  0  0  0  0
    4.4630   -3.0874   -1.4846 C   0  0  1  0  0  0  0  0  0  0  0  0
    4.9071   -1.6116   -1.4423 C   0  0  0  0  0  0  0  0  0  0  0  0
    4.9242   -1.1201    0.0241 C   0  0  1  0  0  0  0  0  0  0  0  0
    3.5151   -1.2466    0.6390 C   0  0  0  0  0  0  0  0  0  0  0  0
    5.9140   -1.9743    0.8423 C   0  0  0  0  0  0  0  0  0  0  0  0
    5.4550   -3.4541    0.8075 C   0  0  2  0  0  0  0  0  0  0  0  0
    5.4580   -3.9349   -0.6697 C   0  0  0  0  0  0  0  0  0  0  0  0
    5.0665   -6.7190    0.6016 H   0  0  0  0  0  0  0  0  0  0  0  0
    4.6230   -8.1363   -0.3270 H   0  0  0  0  0  0  0  0  0  0  0  0
    5.5133   -8.2883    1.1949 H   0  0  0  0  0  0  0  0  0  0  0  0
   -1.2416   -8.9769    4.1041 H   0  0  0  0  0  0  0  0  0  0  0  0
    0.0468   -6.6379    3.5559 H   0  0  0  0  0  0  0  0  0  0  0  0
    4.1505   -5.5860    0.9344 H   0  0  0  0  0  0  0  0  0  0  0  0
    4.0700   -3.1860    2.4623 H   0  0  0  0  0  0  0  0  0  0  0  0
    2.0551   -2.7794    1.0018 H   0  0  0  0  0  0  0  0  0  0  0  0
    2.7078   -4.2489   -0.9428 H   0  0  0  0  0  0  0  0  0  0  0  0
    2.3285   -2.6423   -1.4733 H   0  0  0  0  0  0  0  0  0  0  0  0
    4.4458   -3.4414   -2.5166 H   0  0  0  0  0  0  0  0  0  0  0  0
    5.9001   -1.5178   -1.8822 H   0  0  0  0  0  0  0  0  0  0  0  0
    4.2331   -1.0018   -2.0455 H   0  0  0  0  0  0  0  0  0  0  0  0
    5.2292   -0.0751    0.0606 H   0  0  0  0  0  0  0  0  0  0  0  0
    2.8048   -0.6172    0.1059 H   0  0  0  0  0  0  0  0  0  0  0  0
    3.5254   -0.9046    1.6745 H   0  0  0  0  0  0  0  0  0  0  0  0
    6.9225   -1.8734    0.4368 H   0  0  0  0  0  0  0  0  0  0  0  0
    5.9621   -1.6140    1.8707 H   0  0  0  0  0  0  0  0  0  0  0  0
    6.1673   -4.0495    1.3833 H   0  0  0  0  0  0  0  0  0  0  0  0
    5.1863   -4.9845   -0.7578 H   0  0  0  0  0  0  0  0  0  0  0  0
    6.4612   -3.8517   -1.0923 H   0  0  0  0  0  0  0  0  0  0  0  0
  1  2  1  0
  1 23  1  0
  1 24  1  0
  1 25  1  0
  2  9  2  0
  2  3  1  0
  3  4  2  0
  4  8  1  0
  4  5  1  0
  5  6  1  0
  6  7  2  0
  6 26  1  0
  7  8  1  0
  7 27  1  0
  8  9  1  0
  9 10  1  0
 10 11  2  0
 10 12  1  0
 12 13  1  0
 12 28  1  0
 13 21  1  0
 13 14  1  0
 13 29  1  1
 14 19  1  0
 14 15  1  0
 14 30  1  1
 15 16  1  0
 15 31  1  0
 15 32  1  0
 16 22  1  0
 16 17  1  0
 16 33  1  6
 17 18  1  0
 17 34  1  0
 17 35  1  0
 18 19  1  0
 18 20  1  0
 18 36  1  6
 19 37  1  0
 19 38  1  0
 20 21  1  0
 20 39  1  0
 20 40  1  0
 21 22  1  0
 21 41  1  1
 22 42  1  0
 22 43  1  0
M  END
>  <i_m_ct_stereo_status>  (299) 
1

>  <s_m_source_file>  (299) 
/var/tmp/pbs.5076255.sched01/tmp2gjrvvgn/102_qij5c5l.sdf

>  <i_m_source_file_index>  (299) 
21

>  <i_lp_mmshare_version>  (299) 
48012

>  <i_f3d_flags>  (299) 
0

>  <s_epik_input>  (299) 
czFbY0hdW2NIXW4oYzEyKWMoYyhuMilbQ0gzXSlDKD1PKVtOSF1bQ0BIXShbQ0BASF0zNClbQ0BIXTVbQ0gyXVtDQEBIXShbQ0gyXTQpW0NIMl1bQ0BASF0oW0NIMl0zKVtDSDJdNQ==

>  <s_epik_cmdline>  (299) 
J2VwaWtfcHl0aG9uJywgJy1waHQnLCAnMi4wJywgJy1waCcsICc3LjAnLCAnLXRuJywgJzgnLCAnLW1hJywgJzIwMCcsICctaW1hZScsICc8aW5maWxlLm1hZT4nLCAnLW9tYWUnLCAnPG91dGZpbGUubWFlPic=

>  <r_lp_tautomer_probability>  (299) 
1

>  <r_epik_Ionization_Penalty>  (299) 
2.12733e-05

>  <r_epik_Ionization_Penalty_Charging>  (299) 
0

>  <r_epik_Ionization_Penalty_Neutral>  (299) 
2.12733e-05

>  <r_epik_State_Penalty>  (299) 
-0

>  <r_epik_Charging_Adjusted_Penalty>  (299) 
0

>  <i_epik_Tot_Q>  (299) 
0

>  <i_epik_Tot_abs_Q>  (299) 
0

>  <s_lp_Force_Field>  (299) 
OPLS3e

>  <r_lp_Energy>  (299) 
3.08806

>  <b_lp_Chiralities_Consistent>  (299) 
1

>  <s_lp_Variant>  (299) 
95:0-1

>  <s_i_glide_gridfile>  (299) 
pfpi4k_grid

>  <i_i_glide_lignum>  (299) 
21

>  <i_i_glide_rotatable_bonds>  (299) 
3

>  <r_i_docking_score>  (299) 
-2.42871

>  <r_i_glide_ligand_efficiency>  (299) 
-0.110396

>  <r_i_glide_ligand_efficiency_sa>  (299) 
-0.309334

>  <r_i_glide_ligand_efficiency_ln>  (299) 
-0.593666

>  <r_i_glide_gscore>  (299) 
-2.42871

>  <r_i_glide_lipo>  (299) 
-0.365098

>  <r_i_glide_hbond>  (299) 
0

>  <r_i_glide_metal>  (299) 
-0

>  <r_i_glide_rewards>  (299) 
-1.31583

>  <r_i_glide_evdw>  (299) 
-26.4405

>  <r_i_glide_ecoul>  (299) 
0.296135

>  <r_i_glide_erotb>  (299) 
0.560888

>  <r_i_glide_esite>  (299) 
-0.0310676

>  <r_i_glide_emodel>  (299) 
-30.1033

>  <r_i_glide_energy>  (299) 
-26.1443

>  <r_i_glide_einternal>  (299) 
0.319227

>  <r_i_glide_intrahb_reward>  (299) 
-0

>  <i_i_glide_confnum>  (299) 
3

>  <i_i_glide_posenum>  (299) 
31

>  <r_i_glide_eff_state_penalty>  (299) 
0

>  <ligand_id>  (299) 
95

>  <original_smiles>  (299) 
Cc1nc2sccn2c1C(=O)NC1C2CC3CC(C2)CC1C3

>  <smiles>  (299) 
[H]c1sc2nc(C([H])([H])[H])c(C(=O)N([H])C3([H])C4([H])C([H])([H])C5([H])C([H])([H])C([H])(C4([H])[H])C([H])([H])C3([H])C5([H])[H])n2c1[H]

$$$$
98:0:0
     RDKit          3D

 64 69  0  0  1  0  0  0  0  0999 V2000
    6.8980   -2.7714   -0.5978 C   0  0  0  0  0  0  0  0  0  0  0  0
    5.3609   -2.9358   -0.6551 C   0  0  2  0  0  0  0  0  0  0  0  0
    5.0895   -3.8326   -1.8641 C   0  0  0  0  0  0  0  0  0  0  0  0
    4.5048   -3.4777   -3.0183 C   0  0  0  0  0  0  0  0  0  0  0  0
    4.0711   -2.1093   -3.2560 C   0  0  0  0  0  0  0  0  0  0  0  0
    3.4463   -1.7803   -4.2641 O   0  0  0  0  0  0  0  0  0  0  0  0
    4.5096   -1.0340   -2.2753 C   0  0  0  0  0  0  0  0  0  0  0  0
    4.7736   -1.5405   -0.8564 C   0  0  0  0  0  0  0  0  0  0  0  0
    4.5877   -0.7324    0.1975 C   0  0  0  0  0  0  0  0  0  0  0  0
    4.9298   -1.0768    1.6317 C   0  0  0  0  0  0  0  0  0  0  0  0
    5.0635   -2.5952    1.9671 C   0  0  2  0  0  0  0  0  0  0  0  0
    4.8045   -3.5777    0.6752 C   0  0  1  0  0  0  0  0  0  0  0  0
    3.4064   -4.3643    0.4520 C   0  0  0  0  0  0  0  0  0  0  0  0
    2.8774   -5.1718    1.6731 C   0  0  1  0  0  0  0  0  0  0  0  0
    2.0226   -4.4174    2.6269 C   0  0  0  0  0  0  0  0  0  0  0  0
    2.7673   -4.5186    3.9975 C   0  0  1  0  0  0  0  0  0  0  0  0
    2.2935   -5.9303    4.4272 C   0  0  0  0  0  0  0  0  0  0  0  0
    2.3713   -6.9456    3.3708 O   0  0  0  0  0  0  0  0  0  0  0  0
    2.6008   -6.6718    1.9459 C   0  0  2  0  0  0  0  0  0  0  0  0
    3.7331   -7.6483    1.5440 C   0  0  0  0  0  0  0  0  0  0  0  0
    5.1558   -7.4244    2.1305 C   0  0  0  0  0  0  0  0  0  0  0  0
    5.2455   -6.7862    3.5292 C   0  0  0  0  0  0  0  0  0  0  0  0
    5.1544   -7.4580    4.5541 O   0  0  0  0  0  0  0  0  0  0  0  0
    5.5068   -5.2728    3.5737 C   0  0  0  0  0  0  0  0  0  0  0  0
    4.3783   -4.2735    4.0950 C   0  0  2  0  0  0  0  0  0  0  0  0
    4.8678   -4.1198    5.5837 C   0  0  0  0  0  0  0  0  0  0  0  0
    4.3732   -2.8833    3.3782 C   0  0  1  0  0  0  0  0  0  0  0  0
    3.2542   -2.1088    4.1680 C   0  0  0  0  0  0  0  0  0  0  0  0
    2.2947   -3.2281    4.7444 C   0  0  1  0  0  0  0  0  0  0  0  0
    0.9208   -2.8947    4.6178 O   0  0  0  0  0  0  0  0  0  0  0  0
    7.2765   -2.3465   -1.5305 H   0  0  0  0  0  0  0  0  0  0  0  0
    7.4033   -3.7265   -0.4499 H   0  0  0  0  0  0  0  0  0  0  0  0
    7.2099   -2.1027    0.2054 H   0  0  0  0  0  0  0  0  0  0  0  0
    5.4050   -4.8611   -1.7510 H   0  0  0  0  0  0  0  0  0  0  0  0
    4.3560   -4.1995   -3.8081 H   0  0  0  0  0  0  0  0  0  0  0  0
    5.4193   -0.5945   -2.6698 H   0  0  0  0  0  0  0  0  0  0  0  0
    3.7591   -0.2493   -2.2599 H   0  0  0  0  0  0  0  0  0  0  0  0
    4.2307    0.2755    0.0471 H   0  0  0  0  0  0  0  0  0  0  0  0
    5.8635   -0.5691    1.8801 H   0  0  0  0  0  0  0  0  0  0  0  0
    4.1669   -0.5902    2.2329 H   0  0  0  0  0  0  0  0  0  0  0  0
    6.1257   -2.7231    2.1805 H   0  0  0  0  0  0  0  0  0  0  0  0
    5.4989   -4.4033    0.7922 H   0  0  0  0  0  0  0  0  0  0  0  0
    2.6442   -3.6685    0.1014 H   0  0  0  0  0  0  0  0  0  0  0  0
    3.5198   -5.0989   -0.3436 H   0  0  0  0  0  0  0  0  0  0  0  0
    3.8542   -5.2244    2.0186 H   0  0  0  0  0  0  0  0  0  0  0  0
    1.7942   -3.4155    2.2619 H   0  0  0  0  0  0  0  0  0  0  0  0
    1.0254   -4.8597    2.6766 H   0  0  0  0  0  0  0  0  0  0  0  0
    2.8434   -6.2779    5.3010 H   0  0  0  0  0  0  0  0  0  0  0  0
    1.2524   -5.8779    4.7462 H   0  0  0  0  0  0  0  0  0  0  0  0
    1.6919   -6.9625    1.4182 H   0  0  0  0  0  0  0  0  0  0  0  0
    3.4135   -8.6624    1.7940 H   0  0  0  0  0  0  0  0  0  0  0  0
    3.8192   -7.6364    0.4592 H   0  0  0  0  0  0  0  0  0  0  0  0
    5.6889   -8.3753    2.1481 H   0  0  0  0  0  0  0  0  0  0  0  0
    5.7125   -6.7883    1.4420 H   0  0  0  0  0  0  0  0  0  0  0  0
    6.4156   -5.1699    4.1630 H   0  0  0  0  0  0  0  0  0  0  0  0
    5.8635   -4.9861    2.5994 H   0  0  0  0  0  0  0  0  0  0  0  0
    5.9289   -3.8710    5.6329 H   0  0  0  0  0  0  0  0  0  0  0  0
    4.7285   -5.0477    6.1430 H   0  0  0  0  0  0  0  0  0  0  0  0
    4.4204   -3.3254    6.1752 H   0  0  0  0  0  0  0  0  0  0  0  0
    3.6605   -2.8938    2.6009 H   0  0  0  0  0  0  0  0  0  0  0  0
    3.6811   -1.5142    4.9762 H   0  0  0  0  0  0  0  0  0  0  0  0
    2.6879   -1.4123    3.5464 H   0  0  0  0  0  0  0  0  0  0  0  0
    2.4122   -3.3458    5.8191 H   0  0  0  0  0  0  0  0  0  0  0  0
    0.7536   -2.6599    3.7167 H   0  0  0  0  0  0  0  0  0  0  0  0
  2  1  1  1
  1 31  1  0
  1 32  1  0
  1 33  1  0
  2  8  1  0
  2 12  1  0
  2  3  1  0
  3  4  2  0
  3 34  1  0
  4  5  1  0
  4 35  1  0
  5  6  2  0
  5  7  1  0
  7  8  1  0
  7 36  1  0
  7 37  1  0
  8  9  2  0
  9 10  1  0
  9 38  1  0
 10 11  1  0
 10 39  1  0
 10 40  1  0
 11 27  1  0
 11 12  1  0
 11 41  1  1
 12 13  1  0
 12 42  1  1
 13 14  1  0
 13 43  1  0
 13 44  1  0
 14 19  1  0
 14 15  1  0
 14 45  1  1
 15 16  1  0
 15 46  1  0
 15 47  1  0
 16 25  1  0
 16 29  1  0
 16 17  1  1
 17 18  1  0
 17 48  1  0
 17 49  1  0
 18 19  1  0
 19 20  1  0
 19 50  1  6
 20 21  1  0
 20 51  1  0
 20 52  1  0
 21 22  1  0
 21 53  1  0
 21 54  1  0
 22 23  2  0
 22 24  1  0
 24 25  1  0
 24 55  1  0
 24 56  1  0
 25 26  1  1
 25 27  1  0
 26 57  1  0
 26 58  1  0
 26 59  1  0
 27 28  1  0
 27 60  1  1
 28 29  1  0
 28 61  1  0
 28 62  1  0
 29 30  1  0
 29 63  1  1
 30 64  1  0
M  END
>  <i_m_ct_stereo_status>  (300) 
1

>  <s_m_source_file>  (300) 
/var/tmp/pbs.5076255.sched01/tmp2gjrvvgn/102_qij5c5l.sdf

>  <i_m_source_file_index>  (300) 
24

>  <i_lp_mmshare_version>  (300) 
48012

>  <i_f3d_flags>  (300) 
0

>  <s_epik_input>  (300) 
W0NIXTE9W0NIXUMoPU8pW0NIMl1DKD1bQ0hdW0NIMl0yKVtDQEBdMShbQ0gzXSlbQ0BASF0oW0NAQEhdMltDQEBIXShbQ0BdMyhbQ0BAXTQ1NilbQ0gzXSlbQ0gyXVtDQEhdNltPSF0pW0NIMl1bQ0BASF0oW0NIMl00KVtDQEhdKE9bQ0gyXTUpW0NIMl1bQ0gyXUMoPU8pW0NIMl0z

>  <s_epik_cmdline>  (300) 
J2VwaWtfcHl0aG9uJywgJy1waHQnLCAnMi4wJywgJy1waCcsICc3LjAnLCAnLXRuJywgJzgnLCAnLW1hJywgJzIwMCcsICctaW1hZScsICc8aW5maWxlLm1hZT4nLCAnLW9tYWUnLCAnPG91dGZpbGUubWFlPic=

>  <r_lp_tautomer_probability>  (300) 
1

>  <r_epik_Ionization_Penalty>  (300) 
4.95482e-07

>  <r_epik_Ionization_Penalty_Charging>  (300) 
0

>  <r_epik_Ionization_Penalty_Neutral>  (300) 
4.95482e-07

>  <r_epik_State_Penalty>  (300) 
-0

>  <r_epik_Charging_Adjusted_Penalty>  (300) 
0

>  <i_epik_Tot_Q>  (300) 
0

>  <i_epik_Tot_abs_Q>  (300) 
0

>  <s_lp_Force_Field>  (300) 
OPLS3e

>  <r_lp_Energy>  (300) 
207.735

>  <b_lp_Chiralities_Consistent>  (300) 
1

>  <s_lp_Variant>  (300) 
98:0-1

>  <s_i_glide_gridfile>  (300) 
pfpi4k_grid

>  <i_i_glide_lignum>  (300) 
24

>  <i_i_glide_rotatable_bonds>  (300) 
1

>  <r_i_docking_score>  (300) 
-3.43202

>  <r_i_glide_ligand_efficiency>  (300) 
-0.114401

>  <r_i_glide_ligand_efficiency_sa>  (300) 
-0.355469

>  <r_i_glide_ligand_efficiency_ln>  (300) 
-0.779791

>  <r_i_glide_gscore>  (300) 
-3.43202

>  <r_i_glide_lipo>  (300) 
-0.391765

>  <r_i_glide_hbond>  (300) 
-0.251471

>  <r_i_glide_metal>  (300) 
-0

>  <r_i_glide_rewards>  (300) 
-0.822489

>  <r_i_glide_evdw>  (300) 
-32.1777

>  <r_i_glide_ecoul>  (300) 
-2.3827

>  <r_i_glide_erotb>  (300) 
0

>  <r_i_glide_esite>  (300) 
0

>  <r_i_glide_emodel>  (300) 
-41.2376

>  <r_i_glide_energy>  (300) 
-34.5604

>  <r_i_glide_einternal>  (300) 
0.0221037

>  <r_i_glide_intrahb_reward>  (300) 
-0

>  <i_i_glide_confnum>  (300) 
1

>  <i_i_glide_posenum>  (300) 
2

>  <r_i_glide_eff_state_penalty>  (300) 
0

>  <ligand_id>  (300) 
98

>  <original_smiles>  (300) 
CC12C=CC(=O)CC1=CCC1C2CC2CC34COC2CCC(=O)CC3(C)C1CC4O

>  <smiles>  (300) 
[H]OC1([H])C([H])([H])C2([H])C3([H])C([H])([H])C([H])=C4C([H])([H])C(=O)C([H])=C([H])C4(C([H])([H])[H])C3([H])C([H])([H])C3([H])C([H])([H])C14C([H])([H])OC3([H])C([H])([H])C([H])([H])C(=O)C([H])([H])C24C([H])([H])[H]

$$$$
98:0:1
     RDKit          3D

 64 69  0  0  1  0  0  0  0  0999 V2000
    4.4552   -7.2955    4.3155 C   0  0  0  0  0  0  0  0  0  0  0  0
    3.2923   -6.9101    3.3807 C   0  0  2  0  0  0  0  0  0  0  0  0
    2.0577   -6.8341    4.2802 C   0  0  0  0  0  0  0  0  0  0  0  0
    0.9950   -7.6588    4.2585 C   0  0  0  0  0  0  0  0  0  0  0  0
    0.9515   -8.8032    3.3454 C   0  0  0  0  0  0  0  0  0  0  0  0
   -0.0527   -9.4768    3.1661 O   0  0  0  0  0  0  0  0  0  0  0  0
    2.2358   -9.2121    2.6239 C   0  0  0  0  0  0  0  0  0  0  0  0
    3.1788   -8.0548    2.3600 C   0  0  0  0  0  0  0  0  0  0  0  0
    3.9550   -8.0383    1.2765 C   0  0  0  0  0  0  0  0  0  0  0  0
    5.0108   -7.0044    0.9600 C   0  0  0  0  0  0  0  0  0  0  0  0
    4.8829   -5.6219    1.6829 C   0  0  2  0  0  0  0  0  0  0  0  0
    3.5732   -5.5345    2.6652 C   0  0  1  0  0  0  0  0  0  0  0  0
    2.2175   -4.7691    2.2287 C   0  0  0  0  0  0  0  0  0  0  0  0
    2.4121   -3.3329    1.6755 C   0  0  1  0  0  0  0  0  0  0  0  0
    2.6464   -3.2390    0.2119 C   0  0  0  0  0  0  0  0  0  0  0  0
    4.0125   -2.5014    0.0851 C   0  0  1  0  0  0  0  0  0  0  0  0
    3.5500   -1.0424    0.2832 C   0  0  0  0  0  0  0  0  0  0  0  0
    2.6674   -0.8482    1.4303 O   0  0  0  0  0  0  0  0  0  0  0  0
    1.9502   -1.9207    2.1248 C   0  0  2  0  0  0  0  0  0  0  0  0
    2.1657   -1.5911    3.6178 C   0  0  0  0  0  0  0  0  0  0  0  0
    3.6101   -1.6897    4.1860 C   0  0  0  0  0  0  0  0  0  0  0  0
    4.7686   -1.4134    3.2078 C   0  0  0  0  0  0  0  0  0  0  0  0
    5.1864   -0.2753    2.9958 O   0  0  0  0  0  0  0  0  0  0  0  0
    5.4184   -2.6437    2.5668 C   0  0  0  0  0  0  0  0  0  0  0  0
    5.2721   -2.9328    1.0117 C   0  0  2  0  0  0  0  0  0  0  0  0
    6.6296   -2.2961    0.5182 C   0  0  0  0  0  0  0  0  0  0  0  0
    5.2264   -4.4514    0.6532 C   0  0  1  0  0  0  0  0  0  0  0  0
    5.1790   -4.3858   -0.9082 C   0  0  0  0  0  0  0  0  0  0  0  0
    4.5506   -2.9980   -1.2888 C   0  0  1  0  0  0  0  0  0  0  0  0
    3.6343   -3.0955   -2.3557 O   0  0  0  0  0  0  0  0  0  0  0  0
    4.2535   -8.2450    4.8168 H   0  0  0  0  0  0  0  0  0  0  0  0
    4.6221   -6.5483    5.0934 H   0  0  0  0  0  0  0  0  0  0  0  0
    5.3949   -7.4285    3.7780 H   0  0  0  0  0  0  0  0  0  0  0  0
    2.0671   -6.0245    4.9924 H   0  0  0  0  0  0  0  0  0  0  0  0
    0.1628   -7.5378    4.9398 H   0  0  0  0  0  0  0  0  0  0  0  0
    2.7550   -9.9579    3.2234 H   0  0  0  0  0  0  0  0  0  0  0  0
    1.9655   -9.6892    1.6747 H   0  0  0  0  0  0  0  0  0  0  0  0
    3.9302   -8.8847    0.5879 H   0  0  0  0  0  0  0  0  0  0  0  0
    5.9862   -7.4356    1.1985 H   0  0  0  0  0  0  0  0  0  0  0  0
    4.9885   -6.8949   -0.1177 H   0  0  0  0  0  0  0  0  0  0  0  0
    5.7317   -5.6035    2.3692 H   0  0  0  0  0  0  0  0  0  0  0  0
    3.8935   -4.9406    3.5180 H   0  0  0  0  0  0  0  0  0  0  0  0
    1.6783   -5.3832    1.5080 H   0  0  0  0  0  0  0  0  0  0  0  0
    1.5583   -4.6636    3.0884 H   0  0  0  0  0  0  0  0  0  0  0  0
    3.2935   -3.2789    2.2096 H   0  0  0  0  0  0  0  0  0  0  0  0
    2.5497   -4.1953   -0.3042 H   0  0  0  0  0  0  0  0  0  0  0  0
    1.8563   -2.6686   -0.2584 H   0  0  0  0  0  0  0  0  0  0  0  0
    4.3996   -0.3658    0.3787 H   0  0  0  0  0  0  0  0  0  0  0  0
    3.0204   -0.7060   -0.6095 H   0  0  0  0  0  0  0  0  0  0  0  0
    0.8922   -1.8014    1.9047 H   0  0  0  0  0  0  0  0  0  0  0  0
    1.8001   -0.5762    3.7956 H   0  0  0  0  0  0  0  0  0  0  0  0
    1.5182   -2.2373    4.2122 H   0  0  0  0  0  0  0  0  0  0  0  0
    3.7099   -1.0244    5.0432 H   0  0  0  0  0  0  0  0  0  0  0  0
    3.7486   -2.6984    4.5769 H   0  0  0  0  0  0  0  0  0  0  0  0
    6.4658   -2.5384    2.8242 H   0  0  0  0  0  0  0  0  0  0  0  0
    5.1417   -3.5024    3.1553 H   0  0  0  0  0  0  0  0  0  0  0  0
    7.4762   -2.6751    1.0913 H   0  0  0  0  0  0  0  0  0  0  0  0
    6.6253   -1.2097    0.6346 H   0  0  0  0  0  0  0  0  0  0  0  0
    6.9459   -2.5045   -0.5007 H   0  0  0  0  0  0  0  0  0  0  0  0
    4.2271   -4.7670    0.5516 H   0  0  0  0  0  0  0  0  0  0  0  0
    6.1839   -4.4026   -1.3035 H   0  0  0  0  0  0  0  0  0  0  0  0
    4.6205   -5.2049   -1.3682 H   0  0  0  0  0  0  0  0  0  0  0  0
    5.2978   -2.3097   -1.6886 H   0  0  0  0  0  0  0  0  0  0  0  0
    3.1408   -3.9185   -2.2705 H   0  0  0  0  0  0  0  0  0  0  0  0
  2  1  1  1
  1 31  1  0
  1 32  1  0
  1 33  1  0
  2  8  1  0
  2 12  1  0
  2  3  1  0
  3  4  2  0
  3 34  1  0
  4  5  1  0
  4 35  1  0
  5  6  2  0
  5  7  1  0
  7  8  1  0
  7 36  1  0
  7 37  1  0
  8  9  2  0
  9 10  1  0
  9 38  1  0
 10 11  1  0
 10 39  1  0
 10 40  1  0
 11 27  1  0
 11 12  1  0
 11 41  1  1
 12 13  1  0
 12 42  1  1
 13 14  1  0
 13 43  1  0
 13 44  1  0
 14 19  1  0
 14 15  1  0
 14 45  1  1
 15 16  1  0
 15 46  1  0
 15 47  1  0
 16 25  1  0
 16 29  1  0
 16 17  1  6
 17 18  1  0
 17 48  1  0
 17 49  1  0
 18 19  1  0
 19 20  1  0
 19 50  1  6
 20 21  1  0
 20 51  1  0
 20 52  1  0
 21 22  1  0
 21 53  1  0
 21 54  1  0
 22 23  2  0
 22 24  1  0
 24 25  1  0
 24 55  1  0
 24 56  1  0
 25 26  1  6
 25 27  1  0
 26 57  1  0
 26 58  1  0
 26 59  1  0
 27 28  1  0
 27 60  1  6
 28 29  1  0
 28 61  1  0
 28 62  1  0
 29 30  1  0
 29 63  1  6
 30 64  1  0
M  END
>  <i_m_ct_stereo_status>  (301) 
1

>  <s_m_source_file>  (301) 
/var/tmp/pbs.5076255.sched01/tmp2gjrvvgn/102_qij5c5l.sdf

>  <i_m_source_file_index>  (301) 
24

>  <i_lp_mmshare_version>  (301) 
48012

>  <i_f3d_flags>  (301) 
0

>  <s_epik_input>  (301) 
W0NIXTE9W0NIXUMoPU8pW0NIMl1DKD1bQ0hdW0NIMl0yKVtDQEBdMShbQ0gzXSlbQ0BASF0oW0NAQEhdMltDQEBIXShbQ0BdMyhbQ0BAXTQ1NilbQ0gzXSlbQ0gyXVtDQEhdNltPSF0pW0NIMl1bQ0BASF0oW0NIMl00KVtDQEhdKE9bQ0gyXTUpW0NIMl1bQ0gyXUMoPU8pW0NIMl0z

>  <s_epik_cmdline>  (301) 
J2VwaWtfcHl0aG9uJywgJy1waHQnLCAnMi4wJywgJy1waCcsICc3LjAnLCAnLXRuJywgJzgnLCAnLW1hJywgJzIwMCcsICctaW1hZScsICc8aW5maWxlLm1hZT4nLCAnLW9tYWUnLCAnPG91dGZpbGUubWFlPic=

>  <r_lp_tautomer_probability>  (301) 
1

>  <r_epik_Ionization_Penalty>  (301) 
4.95482e-07

>  <r_epik_Ionization_Penalty_Charging>  (301) 
0

>  <r_epik_Ionization_Penalty_Neutral>  (301) 
4.95482e-07

>  <r_epik_State_Penalty>  (301) 
-0

>  <r_epik_Charging_Adjusted_Penalty>  (301) 
0

>  <i_epik_Tot_Q>  (301) 
0

>  <i_epik_Tot_abs_Q>  (301) 
0

>  <s_lp_Force_Field>  (301) 
OPLS3e

>  <r_lp_Energy>  (301) 
207.735

>  <b_lp_Chiralities_Consistent>  (301) 
1

>  <s_lp_Variant>  (301) 
98:0-1

>  <s_i_glide_gridfile>  (301) 
pfpi4k_grid

>  <i_i_glide_lignum>  (301) 
24

>  <i_i_glide_rotatable_bonds>  (301) 
1

>  <r_i_docking_score>  (301) 
-2.7496

>  <r_i_glide_ligand_efficiency>  (301) 
-0.0916534

>  <r_i_glide_ligand_efficiency_sa>  (301) 
-0.284788

>  <r_i_glide_ligand_efficiency_ln>  (301) 
-0.624739

>  <r_i_glide_gscore>  (301) 
-2.7496

>  <r_i_glide_lipo>  (301) 
-0.376701

>  <r_i_glide_hbond>  (301) 
-0.171526

>  <r_i_glide_metal>  (301) 
-0

>  <r_i_glide_rewards>  (301) 
-0.693027

>  <r_i_glide_evdw>  (301) 
-25.5786

>  <r_i_glide_ecoul>  (301) 
-1.4168

>  <r_i_glide_erotb>  (301) 
0

>  <r_i_glide_esite>  (301) 
-0.0168979

>  <r_i_glide_emodel>  (301) 
-31.9431

>  <r_i_glide_energy>  (301) 
-26.9954

>  <r_i_glide_einternal>  (301) 
0.372942

>  <r_i_glide_intrahb_reward>  (301) 
-0

>  <i_i_glide_confnum>  (301) 
1

>  <i_i_glide_posenum>  (301) 
1

>  <r_i_glide_eff_state_penalty>  (301) 
0

>  <ligand_id>  (301) 
98

>  <original_smiles>  (301) 
CC12C=CC(=O)CC1=CCC1C2CC2CC34COC2CCC(=O)CC3(C)C1CC4O

>  <smiles>  (301) 
[H]OC1([H])C([H])([H])C2([H])C3([H])C([H])([H])C([H])=C4C([H])([H])C(=O)C([H])=C([H])C4(C([H])([H])[H])C3([H])C([H])([H])C3([H])C([H])([H])C14C([H])([H])OC3([H])C([H])([H])C([H])([H])C(=O)C([H])([H])C24C([H])([H])[H]

$$$$
98:0:2
     RDKit          3D

 64 69  0  0  1  0  0  0  0  0999 V2000
    1.8539   -8.6261    1.7337 C   0  0  0  0  0  0  0  0  0  0  0  0
    1.4703   -7.2802    2.3873 C   0  0  2  0  0  0  0  0  0  0  0  0
    1.3634   -7.6008    3.8853 C   0  0  0  0  0  0  0  0  0  0  0  0
    0.2260   -7.6165    4.6046 C   0  0  0  0  0  0  0  0  0  0  0  0
   -1.0530   -7.3149    3.9449 C   0  0  0  0  0  0  0  0  0  0  0  0
   -2.0670   -6.9736    4.5414 O   0  0  0  0  0  0  0  0  0  0  0  0
   -1.1425   -7.3848    2.4381 C   0  0  0  0  0  0  0  0  0  0  0  0
    0.1277   -6.9067    1.7951 C   0  0  0  0  0  0  0  0  0  0  0  0
    0.0713   -6.3078    0.5886 C   0  0  0  0  0  0  0  0  0  0  0  0
    1.2701   -5.8537   -0.2112 C   0  0  0  0  0  0  0  0  0  0  0  0
    2.6178   -5.7712    0.5321 C   0  0  2  0  0  0  0  0  0  0  0  0
    2.5217   -6.1409    2.1179 C   0  0  1  0  0  0  0  0  0  0  0  0
    2.5151   -4.9953    3.2480 C   0  0  0  0  0  0  0  0  0  0  0  0
    3.6527   -3.9363    3.1289 C   0  0  1  0  0  0  0  0  0  0  0  0
    3.3524   -2.7482    2.2866 C   0  0  0  0  0  0  0  0  0  0  0  0
    4.4650   -2.7581    1.1791 C   0  0  1  0  0  0  0  0  0  0  0  0
    5.6289   -2.1192    1.9729 C   0  0  0  0  0  0  0  0  0  0  0  0
    5.7833   -2.6804    3.3116 O   0  0  0  0  0  0  0  0  0  0  0  0
    4.8614   -3.5363    4.0163 C   0  0  2  0  0  0  0  0  0  0  0  0
    5.7153   -4.7150    4.5386 C   0  0  0  0  0  0  0  0  0  0  0  0
    6.3465   -5.6995    3.4987 C   0  0  0  0  0  0  0  0  0  0  0  0
    6.7050   -5.2071    2.0721 C   0  0  0  0  0  0  0  0  0  0  0  0
    7.8276   -4.7980    1.7555 O   0  0  0  0  0  0  0  0  0  0  0  0
    5.6335   -5.3878    1.0031 C   0  0  0  0  0  0  0  0  0  0  0  0
    4.8524   -4.1338    0.4075 C   0  0  2  0  0  0  0  0  0  0  0  0
    5.7264   -3.8554   -0.8610 C   0  0  0  0  0  0  0  0  0  0  0  0
    3.4095   -4.4994   -0.0159 C   0  0  1  0  0  0  0  0  0  0  0  0
    2.9269   -3.1706   -0.6972 C   0  0  0  0  0  0  0  0  0  0  0  0
    3.7831   -2.0289   -0.0183 C   0  0  1  0  0  0  0  0  0  0  0  0
    3.0202   -0.9017    0.3523 O   0  0  0  0  0  0  0  0  0  0  0  0
    1.1015   -9.3893    1.9542 H   0  0  0  0  0  0  0  0  0  0  0  0
    2.8266   -8.9820    2.0715 H   0  0  0  0  0  0  0  0  0  0  0  0
    1.8561   -8.5557    0.6510 H   0  0  0  0  0  0  0  0  0  0  0  0
    2.3122   -7.8280    4.3723 H   0  0  0  0  0  0  0  0  0  0  0  0
    0.2361   -7.8535    5.6510 H   0  0  0  0  0  0  0  0  0  0  0  0
   -1.4408   -8.3953    2.1270 H   0  0  0  0  0  0  0  0  0  0  0  0
   -1.9622   -6.7132    2.2003 H   0  0  0  0  0  0  0  0  0  0  0  0
   -0.8999   -6.0886    0.1566 H   0  0  0  0  0  0  0  0  0  0  0  0
    1.4178   -6.4695   -1.0538 H   0  0  0  0  0  0  0  0  0  0  0  0
    1.0018   -4.9175   -0.6773 H   0  0  0  0  0  0  0  0  0  0  0  0
    3.1739   -6.6044    0.1086 H   0  0  0  0  0  0  0  0  0  0  0  0
    3.4274   -6.6855    2.3372 H   0  0  0  0  0  0  0  0  0  0  0  0
    1.5510   -4.4954    3.2705 H   0  0  0  0  0  0  0  0  0  0  0  0
    2.6510   -5.4510    4.2250 H   0  0  0  0  0  0  0  0  0  0  0  0
    4.2115   -4.6362    2.6037 H   0  0  0  0  0  0  0  0  0  0  0  0
    2.3157   -2.7260    1.9440 H   0  0  0  0  0  0  0  0  0  0  0  0
    3.3995   -1.8327    2.8856 H   0  0  0  0  0  0  0  0  0  0  0  0
    6.5674   -2.2087    1.4300 H   0  0  0  0  0  0  0  0  0  0  0  0
    5.4422   -1.0457    2.0664 H   0  0  0  0  0  0  0  0  0  0  0  0
    4.4703   -2.9774    4.8730 H   0  0  0  0  0  0  0  0  0  0  0  0
    6.5090   -4.2971    5.1586 H   0  0  0  0  0  0  0  0  0  0  0  0
    5.1126   -5.2911    5.2410 H   0  0  0  0  0  0  0  0  0  0  0  0
    7.2373   -6.1344    3.9441 H   0  0  0  0  0  0  0  0  0  0  0  0
    5.6523   -6.5322    3.3924 H   0  0  0  0  0  0  0  0  0  0  0  0
    6.1842   -5.8945    0.2131 H   0  0  0  0  0  0  0  0  0  0  0  0
    4.9790   -6.1744    1.3507 H   0  0  0  0  0  0  0  0  0  0  0  0
    5.7296   -4.7815   -1.4320 H   0  0  0  0  0  0  0  0  0  0  0  0
    6.7387   -3.5240   -0.5996 H   0  0  0  0  0  0  0  0  0  0  0  0
    5.3542   -3.1641   -1.6162 H   0  0  0  0  0  0  0  0  0  0  0  0
    2.7324   -4.2270    0.7447 H   0  0  0  0  0  0  0  0  0  0  0  0
    3.0791   -3.1971   -1.7796 H   0  0  0  0  0  0  0  0  0  0  0  0
    1.8640   -2.9951   -0.5474 H   0  0  0  0  0  0  0  0  0  0  0  0
    4.5147   -1.6065   -0.7035 H   0  0  0  0  0  0  0  0  0  0  0  0
    2.1873   -0.9321   -0.1136 H   0  0  0  0  0  0  0  0  0  0  0  0
  2  1  1  6
  1 31  1  0
  1 32  1  0
  1 33  1  0
  2  8  1  0
  2 12  1  0
  2  3  1  0
  3  4  2  0
  3 34  1  0
  4  5  1  0
  4 35  1  0
  5  6  2  0
  5  7  1  0
  7  8  1  0
  7 36  1  0
  7 37  1  0
  8  9  2  0
  9 10  1  0
  9 38  1  0
 10 11  1  0
 10 39  1  0
 10 40  1  0
 11 27  1  0
 11 12  1  0
 11 41  1  6
 12 13  1  0
 12 42  1  1
 13 14  1  0
 13 43  1  0
 13 44  1  0
 14 19  1  0
 14 15  1  0
 14 45  1  6
 15 16  1  0
 15 46  1  0
 15 47  1  0
 16 25  1  0
 16 29  1  0
 16 17  1  1
 17 18  1  0
 17 48  1  0
 17 49  1  0
 18 19  1  0
 19 20  1  0
 19 50  1  1
 20 21  1  0
 20 51  1  0
 20 52  1  0
 21 22  1  0
 21 53  1  0
 21 54  1  0
 22 23  2  0
 22 24  1  0
 24 25  1  0
 24 55  1  0
 24 56  1  0
 25 26  1  6
 25 27  1  0
 26 57  1  0
 26 58  1  0
 26 59  1  0
 27 28  1  0
 27 60  1  6
 28 29  1  0
 28 61  1  0
 28 62  1  0
 29 30  1  0
 29 63  1  6
 30 64  1  0
M  END
>  <i_m_ct_stereo_status>  (302) 
1

>  <s_m_source_file>  (302) 
/var/tmp/pbs.5076255.sched01/tmp2gjrvvgn/102_qij5c5l.sdf

>  <i_m_source_file_index>  (302) 
24

>  <i_lp_mmshare_version>  (302) 
48012

>  <i_f3d_flags>  (302) 
0

>  <s_epik_input>  (302) 
W0NIXTE9W0NIXUMoPU8pW0NIMl1DKD1bQ0hdW0NIMl0yKVtDQEBdMShbQ0gzXSlbQ0BASF0oW0NAQEhdMltDQEBIXShbQ0BdMyhbQ0BAXTQ1NilbQ0gzXSlbQ0gyXVtDQEhdNltPSF0pW0NIMl1bQ0BASF0oW0NIMl00KVtDQEhdKE9bQ0gyXTUpW0NIMl1bQ0gyXUMoPU8pW0NIMl0z

>  <s_epik_cmdline>  (302) 
J2VwaWtfcHl0aG9uJywgJy1waHQnLCAnMi4wJywgJy1waCcsICc3LjAnLCAnLXRuJywgJzgnLCAnLW1hJywgJzIwMCcsICctaW1hZScsICc8aW5maWxlLm1hZT4nLCAnLW9tYWUnLCAnPG91dGZpbGUubWFlPic=

>  <r_lp_tautomer_probability>  (302) 
1

>  <r_epik_Ionization_Penalty>  (302) 
4.95482e-07

>  <r_epik_Ionization_Penalty_Charging>  (302) 
0

>  <r_epik_Ionization_Penalty_Neutral>  (302) 
4.95482e-07

>  <r_epik_State_Penalty>  (302) 
-0

>  <r_epik_Charging_Adjusted_Penalty>  (302) 
0

>  <i_epik_Tot_Q>  (302) 
0

>  <i_epik_Tot_abs_Q>  (302) 
0

>  <s_lp_Force_Field>  (302) 
OPLS3e

>  <r_lp_Energy>  (302) 
207.735

>  <b_lp_Chiralities_Consistent>  (302) 
1

>  <s_lp_Variant>  (302) 
98:0-1

>  <s_i_glide_gridfile>  (302) 
pfpi4k_grid

>  <i_i_glide_lignum>  (302) 
24

>  <i_i_glide_rotatable_bonds>  (302) 
1

>  <r_i_docking_score>  (302) 
-2.31647

>  <r_i_glide_ligand_efficiency>  (302) 
-0.0772158

>  <r_i_glide_ligand_efficiency_sa>  (302) 
-0.239928

>  <r_i_glide_ligand_efficiency_ln>  (302) 
-0.526328

>  <r_i_glide_gscore>  (302) 
-2.31647

>  <r_i_glide_lipo>  (302) 
-0.295954

>  <r_i_glide_hbond>  (302) 
-0.16

>  <r_i_glide_metal>  (302) 
-0

>  <r_i_glide_rewards>  (302) 
-0.677838

>  <r_i_glide_evdw>  (302) 
-6.07274

>  <r_i_glide_ecoul>  (302) 
-5.45711

>  <r_i_glide_erotb>  (302) 
0

>  <r_i_glide_esite>  (302) 
-0.0604791

>  <r_i_glide_emodel>  (302) 
-13.974

>  <r_i_glide_energy>  (302) 
-11.5299

>  <r_i_glide_einternal>  (302) 
1.39219

>  <r_i_glide_intrahb_reward>  (302) 
-0

>  <i_i_glide_confnum>  (302) 
1

>  <i_i_glide_posenum>  (302) 
12

>  <r_i_glide_eff_state_penalty>  (302) 
0

>  <ligand_id>  (302) 
98

>  <original_smiles>  (302) 
CC12C=CC(=O)CC1=CCC1C2CC2CC34COC2CCC(=O)CC3(C)C1CC4O

>  <smiles>  (302) 
[H]OC1([H])C([H])([H])C2([H])C3([H])C([H])([H])C([H])=C4C([H])([H])C(=O)C([H])=C([H])C4(C([H])([H])[H])C3([H])C([H])([H])C3([H])C([H])([H])C14C([H])([H])OC3([H])C([H])([H])C([H])([H])C(=O)C([H])([H])C24C([H])([H])[H]

$$$$
99:0:0
     RDKit          3D

 40 43  0  0  1  0  0  0  0  0999 V2000
    4.1993   -1.8491   -4.7040 C   0  0  0  0  0  0  0  0  0  0  0  0
    3.9581   -1.1517   -3.4225 C   0  0  0  0  0  0  0  0  0  0  0  0
    3.6814    0.2960   -3.7116 C   0  0  0  0  0  0  0  0  0  0  0  0
    3.2532   -1.8699   -2.3333 C   0  0  1  0  0  0  0  0  0  0  0  0
    2.9870   -3.3255   -2.1071 C   0  0  0  0  0  0  0  0  0  0  0  0
    2.7757   -3.5869   -0.6034 C   0  0  1  0  0  0  0  0  0  0  0  0
    1.8415   -4.6628   -0.5967 O   0  0  0  0  0  0  0  0  0  0  0  0
    4.0188   -3.9918    0.2881 C   0  0  2  0  0  0  0  0  0  0  0  0
    3.6683   -3.9966    1.7869 C   0  0  0  0  0  0  0  0  0  0  0  0
    2.6090   -4.4106    2.2302 O   0  0  0  0  0  0  0  0  0  0  0  0
    4.6901   -3.5172    2.5090 O   0  0  0  0  0  0  0  0  0  0  0  0
    5.7599   -2.9923    1.7557 C   0  0  2  0  0  0  0  0  0  0  0  0
    5.5940   -1.4849    1.5775 C   0  0  0  0  0  0  0  0  0  0  0  0
    5.6708   -1.7297    0.0853 C   0  0  2  0  0  0  0  0  0  0  0  0
    4.9122   -0.8384   -0.8678 C   0  0  0  0  0  0  0  0  0  0  0  0
    4.7159   -1.5460   -2.1802 C   0  0  2  0  0  0  0  0  0  0  0  0
    5.3968   -3.2551    0.2793 C   0  0  2  0  0  0  0  0  0  0  0  0
    6.3978   -4.1531   -0.4384 C   0  0  0  0  0  0  0  0  0  0  0  0
    3.3417   -1.6815   -5.3103 H   0  0  0  0  0  0  0  0  0  0  0  0
    4.4174   -2.9210   -4.5072 H   0  0  0  0  0  0  0  0  0  0  0  0
    5.0125   -1.2675   -5.0897 H   0  0  0  0  0  0  0  0  0  0  0  0
    3.6116    0.7593   -2.7459 H   0  0  0  0  0  0  0  0  0  0  0  0
    2.7574    0.4302   -4.2830 H   0  0  0  0  0  0  0  0  0  0  0  0
    4.4937    0.7998   -4.2370 H   0  0  0  0  0  0  0  0  0  0  0  0
    2.5037   -1.2141   -1.9186 H   0  0  0  0  0  0  0  0  0  0  0  0
    2.0766   -3.5635   -2.6687 H   0  0  0  0  0  0  0  0  0  0  0  0
    3.7925   -3.9418   -2.5117 H   0  0  0  0  0  0  0  0  0  0  0  0
    2.2819   -2.7309   -0.1424 H   0  0  0  0  0  0  0  0  0  0  0  0
    2.1030   -5.2647   -1.2922 H   0  0  0  0  0  0  0  0  0  0  0  0
    4.1984   -5.0339    0.0446 H   0  0  0  0  0  0  0  0  0  0  0  0
    6.7713   -3.2998    2.0116 H   0  0  0  0  0  0  0  0  0  0  0  0
    4.6172   -1.1041    1.8682 H   0  0  0  0  0  0  0  0  0  0  0  0
    6.4196   -0.8889    1.9740 H   0  0  0  0  0  0  0  0  0  0  0  0
    6.7327   -1.6544   -0.1652 H   0  0  0  0  0  0  0  0  0  0  0  0
    3.9593   -0.5197   -0.4266 H   0  0  0  0  0  0  0  0  0  0  0  0
    5.5045    0.0412   -1.0557 H   0  0  0  0  0  0  0  0  0  0  0  0
    5.4844   -2.2863   -2.3957 H   0  0  0  0  0  0  0  0  0  0  0  0
    7.4168   -3.7675   -0.3741 H   0  0  0  0  0  0  0  0  0  0  0  0
    6.1549   -4.2183   -1.4966 H   0  0  0  0  0  0  0  0  0  0  0  0
    6.4277   -5.1532   -0.0041 H   0  0  0  0  0  0  0  0  0  0  0  0
  1  2  1  0
  1 19  1  0
  1 20  1  0
  1 21  1  0
  2 16  1  0
  2  3  1  0
  2  4  1  0
  3 22  1  0
  3 23  1  0
  3 24  1  0
  4 16  1  0
  4  5  1  0
  4 25  1  1
  5  6  1  0
  5 26  1  0
  5 27  1  0
  6  7  1  0
  6  8  1  0
  6 28  1  1
  7 29  1  0
  8 17  1  0
  8  9  1  0
  8 30  1  6
  9 10  2  0
  9 11  1  0
 11 12  1  0
 12 17  1  0
 12 13  1  0
 12 31  1  1
 13 14  1  0
 13 32  1  0
 13 33  1  0
 14 15  1  0
 14 17  1  0
 14 34  1  6
 15 16  1  0
 15 35  1  0
 15 36  1  0
 16 37  1  6
 17 18  1  6
 18 38  1  0
 18 39  1  0
 18 40  1  0
M  END
>  <i_m_ct_stereo_status>  (303) 
1

>  <s_m_source_file>  (303) 
/var/tmp/pbs.5076255.sched01/tmp2gjrvvgn/102_qij5c5l.sdf

>  <i_m_source_file_index>  (303) 
25

>  <i_lp_mmshare_version>  (303) 
48012

>  <i_f3d_flags>  (303) 
0

>  <s_epik_input>  (303) 
W0NIM11bQ0BAXTEyW0NAQEhdM1tDQEhdKFtPSF0pW0NIMl1bQ0BIXTRbQ0BASF0oQzQoW0NIM10pW0NIM10pW0NIMl1bQ0BIXTJbQ0gyXVtDQEhdMU9DMz1P

>  <s_epik_cmdline>  (303) 
J2VwaWtfcHl0aG9uJywgJy1waHQnLCAnMi4wJywgJy1waCcsICc3LjAnLCAnLXRuJywgJzgnLCAnLW1hJywgJzIwMCcsICctaW1hZScsICc8aW5maWxlLm1hZT4nLCAnLW9tYWUnLCAnPG91dGZpbGUubWFlPic=

>  <r_lp_tautomer_probability>  (303) 
1

>  <r_epik_Ionization_Penalty>  (303) 
1.74567e-07

>  <r_epik_Ionization_Penalty_Charging>  (303) 
0

>  <r_epik_Ionization_Penalty_Neutral>  (303) 
1.74567e-07

>  <r_epik_State_Penalty>  (303) 
-0

>  <r_epik_Charging_Adjusted_Penalty>  (303) 
0

>  <i_epik_Tot_Q>  (303) 
0

>  <i_epik_Tot_abs_Q>  (303) 
0

>  <s_epik_Chemistry_Notes>  (303) 
This compound has an ester and may undergo hydrolysis at high or low pH.

>  <s_lp_Force_Field>  (303) 
OPLS3e

>  <r_lp_Energy>  (303) 
54.3549

>  <b_lp_Chiralities_Consistent>  (303) 
1

>  <s_lp_Variant>  (303) 
99:0-1

>  <s_i_glide_gridfile>  (303) 
pfpi4k_grid

>  <i_i_glide_lignum>  (303) 
25

>  <i_i_glide_rotatable_bonds>  (303) 
1

>  <r_i_docking_score>  (303) 
-3.26938

>  <r_i_glide_ligand_efficiency>  (303) 
-0.181632

>  <r_i_glide_ligand_efficiency_sa>  (303) 
-0.476011

>  <r_i_glide_ligand_efficiency_ln>  (303) 
-0.840377

>  <r_i_glide_gscore>  (303) 
-3.26938

>  <r_i_glide_lipo>  (303) 
-0.499949

>  <r_i_glide_hbond>  (303) 
0

>  <r_i_glide_metal>  (303) 
-0

>  <r_i_glide_rewards>  (303) 
-1.70915

>  <r_i_glide_evdw>  (303) 
-3.96588

>  <r_i_glide_ecoul>  (303) 
-5.74659

>  <r_i_glide_erotb>  (303) 
0

>  <r_i_glide_esite>  (303) 
0

>  <r_i_glide_emodel>  (303) 
-9.22306

>  <r_i_glide_energy>  (303) 
-9.71247

>  <r_i_glide_einternal>  (303) 
0.648191

>  <r_i_glide_intrahb_reward>  (303) 
-0

>  <i_i_glide_confnum>  (303) 
2

>  <i_i_glide_posenum>  (303) 
38

>  <r_i_glide_eff_state_penalty>  (303) 
0

>  <ligand_id>  (303) 
99

>  <original_smiles>  (303) 
CC1(C)C2CC(O)C3C(=O)OC4CC(CC21)C43C

>  <smiles>  (303) 
[H]OC1([H])C([H])([H])C2([H])C([H])(C([H])([H])C3([H])C([H])([H])C4([H])OC(=O)C1([H])C43C([H])([H])[H])C2(C([H])([H])[H])C([H])([H])[H]

$$$$
99:0:1
     RDKit          3D

 40 43  0  0  1  0  0  0  0  0999 V2000
    4.1440   -1.8698   -4.6754 C   0  0  0  0  0  0  0  0  0  0  0  0
    3.8199   -1.3293   -3.3347 C   0  0  0  0  0  0  0  0  0  0  0  0
    3.7095    0.1478   -3.5123 C   0  0  0  0  0  0  0  0  0  0  0  0
    2.9759   -2.1214   -2.3961 C   0  0  1  0  0  0  0  0  0  0  0  0
    2.5489   -3.5425   -2.4003 C   0  0  0  0  0  0  0  0  0  0  0  0
    2.1884   -3.9854   -0.9499 C   0  0  1  0  0  0  0  0  0  0  0  0
    1.1163   -4.9032   -1.1163 O   0  0  0  0  0  0  0  0  0  0  0  0
    3.2975   -4.6326   -0.0335 C   0  0  2  0  0  0  0  0  0  0  0  0
    2.8694   -4.8042    1.4179 C   0  0  0  0  0  0  0  0  0  0  0  0
    1.7563   -5.2259    1.7446 O   0  0  0  0  0  0  0  0  0  0  0  0
    3.8494   -4.5012    2.2714 O   0  0  0  0  0  0  0  0  0  0  0  0
    5.0179   -4.0041    1.6594 C   0  0  2  0  0  0  0  0  0  0  0  0
    5.0135   -2.4804    1.6647 C   0  0  0  0  0  0  0  0  0  0  0  0
    5.1850   -2.5403    0.1621 C   0  0  2  0  0  0  0  0  0  0  0  0
    4.6150   -1.4405   -0.7230 C   0  0  0  0  0  0  0  0  0  0  0  0
    4.4358   -1.9697   -2.1106 C   0  0  2  0  0  0  0  0  0  0  0  0
    4.7324   -4.0412    0.1504 C   0  0  2  0  0  0  0  0  0  0  0  0
    5.6726   -4.9543   -0.5888 C   0  0  0  0  0  0  0  0  0  0  0  0
    3.3590   -1.5572   -5.3446 H   0  0  0  0  0  0  0  0  0  0  0  0
    4.2978   -2.9674   -4.6673 H   0  0  0  0  0  0  0  0  0  0  0  0
    5.0305   -1.3685   -4.9792 H   0  0  0  0  0  0  0  0  0  0  0  0
    3.7893    0.6053   -2.5553 H   0  0  0  0  0  0  0  0  0  0  0  0
    2.8381    0.4091   -4.1105 H   0  0  0  0  0  0  0  0  0  0  0  0
    4.6101    0.5758   -3.9589 H   0  0  0  0  0  0  0  0  0  0  0  0
    2.2543   -1.4871   -1.9392 H   0  0  0  0  0  0  0  0  0  0  0  0
    1.6786   -3.5902   -3.0578 H   0  0  0  0  0  0  0  0  0  0  0  0
    3.3420   -4.1365   -2.8590 H   0  0  0  0  0  0  0  0  0  0  0  0
    1.7893   -3.1237   -0.4166 H   0  0  0  0  0  0  0  0  0  0  0  0
    1.3004   -5.3129   -1.9525 H   0  0  0  0  0  0  0  0  0  0  0  0
    3.4012   -5.6593   -0.3882 H   0  0  0  0  0  0  0  0  0  0  0  0
    5.9744   -4.4539    1.9424 H   0  0  0  0  0  0  0  0  0  0  0  0
    4.0511   -2.0473    1.9354 H   0  0  0  0  0  0  0  0  0  0  0  0
    5.8594   -2.0395    2.1970 H   0  0  0  0  0  0  0  0  0  0  0  0
    6.2648   -2.5663    0.0015 H   0  0  0  0  0  0  0  0  0  0  0  0
    3.6611   -1.0933   -0.3172 H   0  0  0  0  0  0  0  0  0  0  0  0
    5.2736   -0.5742   -0.7711 H   0  0  0  0  0  0  0  0  0  0  0  0
    5.1368   -2.7788   -2.3681 H   0  0  0  0  0  0  0  0  0  0  0  0
    6.7031   -4.6529   -0.3876 H   0  0  0  0  0  0  0  0  0  0  0  0
    5.4488   -4.9008   -1.6523 H   0  0  0  0  0  0  0  0  0  0  0  0
    5.5923   -5.9945   -0.2730 H   0  0  0  0  0  0  0  0  0  0  0  0
  1  2  1  0
  1 19  1  0
  1 20  1  0
  1 21  1  0
  2 16  1  0
  2  3  1  0
  2  4  1  0
  3 22  1  0
  3 23  1  0
  3 24  1  0
  4 16  1  0
  4  5  1  0
  4 25  1  1
  5  6  1  0
  5 26  1  0
  5 27  1  0
  6  7  1  0
  6  8  1  0
  6 28  1  1
  7 29  1  0
  8 17  1  0
  8  9  1  0
  8 30  1  6
  9 10  2  0
  9 11  1  0
 11 12  1  0
 12 17  1  0
 12 13  1  0
 12 31  1  6
 13 14  1  0
 13 32  1  0
 13 33  1  0
 14 15  1  0
 14 17  1  0
 14 34  1  1
 15 16  1  0
 15 35  1  0
 15 36  1  0
 16 37  1  6
 17 18  1  6
 18 38  1  0
 18 39  1  0
 18 40  1  0
M  END
>  <i_m_ct_stereo_status>  (304) 
1

>  <s_m_source_file>  (304) 
/var/tmp/pbs.5076255.sched01/tmp2gjrvvgn/102_qij5c5l.sdf

>  <i_m_source_file_index>  (304) 
25

>  <i_lp_mmshare_version>  (304) 
48012

>  <i_f3d_flags>  (304) 
0

>  <s_epik_input>  (304) 
W0NIM11bQ0BAXTEyW0NAQEhdM1tDQEhdKFtPSF0pW0NIMl1bQ0BIXTRbQ0BASF0oQzQoW0NIM10pW0NIM10pW0NIMl1bQ0BIXTJbQ0gyXVtDQEhdMU9DMz1P

>  <s_epik_cmdline>  (304) 
J2VwaWtfcHl0aG9uJywgJy1waHQnLCAnMi4wJywgJy1waCcsICc3LjAnLCAnLXRuJywgJzgnLCAnLW1hJywgJzIwMCcsICctaW1hZScsICc8aW5maWxlLm1hZT4nLCAnLW9tYWUnLCAnPG91dGZpbGUubWFlPic=

>  <r_lp_tautomer_probability>  (304) 
1

>  <r_epik_Ionization_Penalty>  (304) 
1.74567e-07

>  <r_epik_Ionization_Penalty_Charging>  (304) 
0

>  <r_epik_Ionization_Penalty_Neutral>  (304) 
1.74567e-07

>  <r_epik_State_Penalty>  (304) 
-0

>  <r_epik_Charging_Adjusted_Penalty>  (304) 
0

>  <i_epik_Tot_Q>  (304) 
0

>  <i_epik_Tot_abs_Q>  (304) 
0

>  <s_epik_Chemistry_Notes>  (304) 
This compound has an ester and may undergo hydrolysis at high or low pH.

>  <s_lp_Force_Field>  (304) 
OPLS3e

>  <r_lp_Energy>  (304) 
54.3549

>  <b_lp_Chiralities_Consistent>  (304) 
1

>  <s_lp_Variant>  (304) 
99:0-1

>  <s_i_glide_gridfile>  (304) 
pfpi4k_grid

>  <i_i_glide_lignum>  (304) 
25

>  <i_i_glide_rotatable_bonds>  (304) 
1

>  <r_i_docking_score>  (304) 
-3.03051

>  <r_i_glide_ligand_efficiency>  (304) 
-0.168362

>  <r_i_glide_ligand_efficiency_sa>  (304) 
-0.441233

>  <r_i_glide_ligand_efficiency_ln>  (304) 
-0.778978

>  <r_i_glide_gscore>  (304) 
-3.03051

>  <r_i_glide_lipo>  (304) 
-0.349943

>  <r_i_glide_hbond>  (304) 
-0.0483527

>  <r_i_glide_metal>  (304) 
-0

>  <r_i_glide_rewards>  (304) 
-1.70227

>  <r_i_glide_evdw>  (304) 
1.773

>  <r_i_glide_ecoul>  (304) 
-6.73269

>  <r_i_glide_erotb>  (304) 
0

>  <r_i_glide_esite>  (304) 
-0.00869167

>  <r_i_glide_emodel>  (304) 
-3.66012

>  <r_i_glide_energy>  (304) 
-4.95968

>  <r_i_glide_einternal>  (304) 
1.01092

>  <r_i_glide_intrahb_reward>  (304) 
-0

>  <i_i_glide_confnum>  (304) 
1

>  <i_i_glide_posenum>  (304) 
1

>  <r_i_glide_eff_state_penalty>  (304) 
0

>  <ligand_id>  (304) 
99

>  <original_smiles>  (304) 
CC1(C)C2CC(O)C3C(=O)OC4CC(CC21)C43C

>  <smiles>  (304) 
[H]OC1([H])C([H])([H])C2([H])C([H])(C([H])([H])C3([H])C([H])([H])C4([H])OC(=O)C1([H])C43C([H])([H])[H])C2(C([H])([H])[H])C([H])([H])[H]

$$$$
100:0:0
     RDKit          3D

 41 44  0  0  1  0  0  0  0  0999 V2000
    3.4372   -6.1305    0.7467 C   0  0  0  0  0  0  0  0  0  0  0  0
    4.6763   -5.3317    0.3209 C   0  0  2  0  0  0  0  0  0  0  0  0
    5.7349   -5.3874    1.4268 C   0  0  0  0  0  0  0  0  0  0  0  0
    7.0336   -4.7660    0.9225 C   0  0  0  0  0  0  0  0  0  0  0  0
    6.8276   -3.2800    0.5651 C   0  0  1  0  0  0  0  0  0  0  0  0
    8.0045   -2.6991   -0.2920 C   0  0  1  0  0  0  0  0  0  0  0  0
    8.5956   -1.4643    0.4120 C   0  0  0  0  0  0  0  0  0  0  0  0
    9.0152   -3.6007   -0.5931 O   0  0  0  0  0  0  0  0  0  0  0  0
    7.4136   -2.2476   -1.4759 O   0  0  0  0  0  0  0  0  0  0  0  0
    6.1979   -2.8839   -1.6612 C   0  0  2  0  0  0  0  0  0  0  0  0
    5.4076   -2.2259   -2.5928 O   0  0  0  0  0  0  0  0  0  0  0  0
    4.2798   -1.5214   -2.0753 C   0  0  1  0  0  0  0  0  0  0  0  0
    3.9166   -0.4642   -3.1054 C   0  0  0  0  0  0  0  0  0  0  0  0
    3.1020   -2.4665   -1.8924 C   0  0  0  0  0  0  0  0  0  0  0  0
    3.4347   -3.7949   -1.2849 C   0  0  0  0  0  0  0  0  0  0  0  0
    4.3411   -3.8564   -0.0556 C   0  0  2  0  0  0  0  0  0  0  0  0
    5.5859   -2.9467   -0.2420 C   0  0  1  0  0  0  0  0  0  0  0  0
    5.1799   -1.6454    0.2018 O   0  0  0  0  0  0  0  0  0  0  0  0
    4.6125   -0.7858   -0.9016 O   0  0  0  0  0  0  0  0  0  0  0  0
    2.9099   -5.6552    1.5706 H   0  0  0  0  0  0  0  0  0  0  0  0
    3.7072   -7.1420    1.0547 H   0  0  0  0  0  0  0  0  0  0  0  0
    2.7407   -6.2228   -0.0814 H   0  0  0  0  0  0  0  0  0  0  0  0
    5.0899   -5.8341   -0.5556 H   0  0  0  0  0  0  0  0  0  0  0  0
    5.3758   -4.8516    2.3092 H   0  0  0  0  0  0  0  0  0  0  0  0
    5.9185   -6.4267    1.7217 H   0  0  0  0  0  0  0  0  0  0  0  0
    7.8062   -4.8535    1.6853 H   0  0  0  0  0  0  0  0  0  0  0  0
    7.3675   -5.3463    0.0732 H   0  0  0  0  0  0  0  0  0  0  0  0
    6.7614   -2.7373    1.5085 H   0  0  0  0  0  0  0  0  0  0  0  0
    9.2945   -1.0440   -0.2805 H   0  0  0  0  0  0  0  0  0  0  0  0
    9.2102   -1.7357    1.2717 H   0  0  0  0  0  0  0  0  0  0  0  0
    7.8501   -0.7075    0.6455 H   0  0  0  0  0  0  0  0  0  0  0  0
    9.6457   -3.1282   -1.1971 H   0  0  0  0  0  0  0  0  0  0  0  0
    6.4055   -3.8696   -2.0690 H   0  0  0  0  0  0  0  0  0  0  0  0
    4.7062    0.2719   -3.1113 H   0  0  0  0  0  0  0  0  0  0  0  0
    3.0167    0.0728   -2.8151 H   0  0  0  0  0  0  0  0  0  0  0  0
    3.7598   -0.8634   -4.1146 H   0  0  0  0  0  0  0  0  0  0  0  0
    2.3778   -2.0107   -1.2576 H   0  0  0  0  0  0  0  0  0  0  0  0
    2.6027   -2.6410   -2.8560 H   0  0  0  0  0  0  0  0  0  0  0  0
    2.4990   -4.3127   -1.1094 H   0  0  0  0  0  0  0  0  0  0  0  0
    3.9599   -4.2543   -2.0955 H   0  0  0  0  0  0  0  0  0  0  0  0
    3.7798   -3.4503    0.7878 H   0  0  0  0  0  0  0  0  0  0  0  0
  1  2  1  0
  1 20  1  0
  1 21  1  0
  1 22  1  0
  2 16  1  0
  2  3  1  0
  2 23  1  6
  3  4  1  0
  3 24  1  0
  3 25  1  0
  4  5  1  0
  4 26  1  0
  4 27  1  0
  5 17  1  0
  5  6  1  0
  5 28  1  1
  6  7  1  0
  6  8  1  6
  6  9  1  0
  7 29  1  0
  7 30  1  0
  7 31  1  0
  8 32  1  0
  9 10  1  0
 10 17  1  0
 10 11  1  0
 10 33  1  6
 11 12  1  0
 12 19  1  0
 12 13  1  6
 12 14  1  0
 13 34  1  0
 13 35  1  0
 13 36  1  0
 14 15  1  0
 14 37  1  0
 14 38  1  0
 15 16  1  0
 15 39  1  0
 15 40  1  0
 16 17  1  0
 16 41  1  1
 17 18  1  1
 18 19  1  0
M  END
>  <i_m_ct_stereo_status>  (305) 
1

>  <s_m_source_file>  (305) 
/var/tmp/pbs.5076255.sched01/tmp2gjrvvgn/102_qij5c5l.sdf

>  <i_m_source_file_index>  (305) 
26

>  <i_lp_mmshare_version>  (305) 
48012

>  <i_f3d_flags>  (305) 
0

>  <s_epik_input>  (305) 
W0NAXTEyM1tDQEhdNFtDSDJdW0NIMl1bQ0BASF0oW0NIM10pW0NAQEhdMltDSDJdW0NIMl1bQ0BAXShbQ0gzXSkoT08zKU9bQ0BIXTFPW0NAXTQoW0NIM10pW09IXQ==

>  <s_epik_cmdline>  (305) 
J2VwaWtfcHl0aG9uJywgJy1waHQnLCAnMi4wJywgJy1waCcsICc3LjAnLCAnLXRuJywgJzgnLCAnLW1hJywgJzIwMCcsICctaW1hZScsICc8aW5maWxlLm1hZT4nLCAnLW9tYWUnLCAnPG91dGZpbGUubWFlPic=

>  <r_lp_tautomer_probability>  (305) 
1

>  <r_epik_Ionization_Penalty>  (305) 
4.44723e-08

>  <r_epik_Ionization_Penalty_Charging>  (305) 
0

>  <r_epik_Ionization_Penalty_Neutral>  (305) 
4.44723e-08

>  <r_epik_State_Penalty>  (305) 
-0

>  <r_epik_Charging_Adjusted_Penalty>  (305) 
0

>  <i_epik_Tot_Q>  (305) 
0

>  <i_epik_Tot_abs_Q>  (305) 
0

>  <s_epik_Chemistry_Notes>  (305) 
This compound contains an acetal/aminal-like group ( X-CH(R)-Y where X, Y are N, S, or O) that may be acid/base labile, releasing an aldehyde.

>  <s_lp_Force_Field>  (305) 
OPLS3e

>  <r_lp_Energy>  (305) 
31.4931

>  <b_lp_Chiralities_Consistent>  (305) 
1

>  <s_lp_Variant>  (305) 
100:0-1

>  <s_i_glide_gridfile>  (305) 
pfpi4k_grid

>  <i_i_glide_lignum>  (305) 
26

>  <i_i_glide_rotatable_bonds>  (305) 
1

>  <r_i_docking_score>  (305) 
-4.20859

>  <r_i_glide_ligand_efficiency>  (305) 
-0.221505

>  <r_i_glide_ligand_efficiency_sa>  (305) 
-0.591064

>  <r_i_glide_ligand_efficiency_ln>  (305) 
-1.06697

>  <r_i_glide_gscore>  (305) 
-4.20859

>  <r_i_glide_lipo>  (305) 
-0.586907

>  <r_i_glide_hbond>  (305) 
-0.16

>  <r_i_glide_metal>  (305) 
-0

>  <r_i_glide_rewards>  (305) 
-1.6431

>  <r_i_glide_evdw>  (305) 
-14.445

>  <r_i_glide_ecoul>  (305) 
-7.06078

>  <r_i_glide_erotb>  (305) 
0

>  <r_i_glide_esite>  (305) 
-0.0372234

>  <r_i_glide_emodel>  (305) 
-26.9261

>  <r_i_glide_energy>  (305) 
-21.5057

>  <r_i_glide_einternal>  (305) 
0.0201064

>  <r_i_glide_intrahb_reward>  (305) 
-0

>  <i_i_glide_confnum>  (305) 
1

>  <i_i_glide_posenum>  (305) 
8

>  <r_i_glide_eff_state_penalty>  (305) 
0

>  <ligand_id>  (305) 
100

>  <original_smiles>  (305) 
CC1CCC2C(C)(O)OC3OC4(C)CCC1C32OO4

>  <smiles>  (305) 
[H]OC1(C([H])([H])[H])OC2([H])OC3(C([H])([H])[H])OOC24C1([H])C([H])([H])C([H])([H])C([H])(C([H])([H])[H])C4([H])C([H])([H])C3([H])[H]

$$$$
100:0:1
     RDKit          3D

 41 44  0  0  1  0  0  0  0  0999 V2000
    2.1732   -5.3729    0.4853 C   0  0  0  0  0  0  0  0  0  0  0  0
    3.5378   -4.7873    0.1066 C   0  0  2  0  0  0  0  0  0  0  0  0
    4.4242   -4.7450    1.3530 C   0  0  0  0  0  0  0  0  0  0  0  0
    5.8495   -4.3926    0.9417 C   0  0  0  0  0  0  0  0  0  0  0  0
    5.9235   -2.9854    0.3336 C   0  0  1  0  0  0  0  0  0  0  0  0
    7.2540   -2.6956   -0.4428 C   0  0  1  0  0  0  0  0  0  0  0  0
    7.9996   -1.5146    0.1330 C   0  0  0  0  0  0  0  0  0  0  0  0
    8.1483   -3.7910   -0.4438 O   0  0  0  0  0  0  0  0  0  0  0  0
    6.8672   -2.3785   -1.7468 O   0  0  0  0  0  0  0  0  0  0  0  0
    5.6173   -2.9527   -2.0146 C   0  0  2  0  0  0  0  0  0  0  0  0
    5.0170   -2.4083   -3.1631 O   0  0  0  0  0  0  0  0  0  0  0  0
    3.9724   -1.4830   -2.9349 C   0  0  1  0  0  0  0  0  0  0  0  0
    3.7888   -0.6062   -4.1701 C   0  0  0  0  0  0  0  0  0  0  0  0
    2.6505   -2.1984   -2.7118 C   0  0  0  0  0  0  0  0  0  0  0  0
    2.7017   -3.4521   -1.8903 C   0  0  0  0  0  0  0  0  0  0  0  0
    3.4478   -3.3871   -0.5589 C   0  0  2  0  0  0  0  0  0  0  0  0
    4.8340   -2.6749   -0.7129 C   0  0  1  0  0  0  0  0  0  0  0  0
    4.5102   -1.2924   -0.5681 O   0  0  0  0  0  0  0  0  0  0  0  0
    4.3064   -0.5886   -1.8948 O   0  0  0  0  0  0  0  0  0  0  0  0
    1.6585   -4.6890    1.1646 H   0  0  0  0  0  0  0  0  0  0  0  0
    2.2675   -6.3331    0.9994 H   0  0  0  0  0  0  0  0  0  0  0  0
    1.5533   -5.5449   -0.3938 H   0  0  0  0  0  0  0  0  0  0  0  0
    3.9943   -5.4795   -0.6042 H   0  0  0  0  0  0  0  0  0  0  0  0
    4.0435   -4.0196    2.0800 H   0  0  0  0  0  0  0  0  0  0  0  0
    4.4216   -5.7204    1.8399 H   0  0  0  0  0  0  0  0  0  0  0  0
    6.5096   -4.4418    1.8067 H   0  0  0  0  0  0  0  0  0  0  0  0
    6.1818   -5.1501    0.2220 H   0  0  0  0  0  0  0  0  0  0  0  0
    5.8056   -2.2623    1.1450 H   0  0  0  0  0  0  0  0  0  0  0  0
    8.9173   -1.3693   -0.4410 H   0  0  0  0  0  0  0  0  0  0  0  0
    8.2748   -1.6678    1.1716 H   0  0  0  0  0  0  0  0  0  0  0  0
    7.3508   -0.6393    0.0825 H   0  0  0  0  0  0  0  0  0  0  0  0
    8.8725   -3.5499   -1.0200 H   0  0  0  0  0  0  0  0  0  0  0  0
    5.7441   -4.0279   -2.1778 H   0  0  0  0  0  0  0  0  0  0  0  0
    4.7125   -0.0964   -4.2990 H   0  0  0  0  0  0  0  0  0  0  0  0
    2.9962    0.1423   -4.0158 H   0  0  0  0  0  0  0  0  0  0  0  0
    3.5643   -1.1902   -5.0737 H   0  0  0  0  0  0  0  0  0  0  0  0
    1.9616   -1.4867   -2.3247 H   0  0  0  0  0  0  0  0  0  0  0  0
    2.2601   -2.4806   -3.6974 H   0  0  0  0  0  0  0  0  0  0  0  0
    1.6685   -3.7927   -1.7608 H   0  0  0  0  0  0  0  0  0  0  0  0
    3.2151   -4.1789   -2.5345 H   0  0  0  0  0  0  0  0  0  0  0  0
    2.8534   -2.7582    0.1053 H   0  0  0  0  0  0  0  0  0  0  0  0
  1  2  1  0
  1 20  1  0
  1 21  1  0
  1 22  1  0
  2 16  1  0
  2  3  1  0
  2 23  1  6
  3  4  1  0
  3 24  1  0
  3 25  1  0
  4  5  1  0
  4 26  1  0
  4 27  1  0
  5 17  1  0
  5  6  1  0
  5 28  1  1
  6  7  1  0
  6  8  1  6
  6  9  1  0
  7 29  1  0
  7 30  1  0
  7 31  1  0
  8 32  1  0
  9 10  1  0
 10 17  1  0
 10 11  1  0
 10 33  1  6
 11 12  1  0
 12 19  1  0
 12 13  1  6
 12 14  1  0
 13 34  1  0
 13 35  1  0
 13 36  1  0
 14 15  1  0
 14 37  1  0
 14 38  1  0
 15 16  1  0
 15 39  1  0
 15 40  1  0
 16 17  1  0
 16 41  1  1
 17 18  1  6
 18 19  1  0
M  END
>  <i_m_ct_stereo_status>  (306) 
1

>  <s_m_source_file>  (306) 
/var/tmp/pbs.5076255.sched01/tmp2gjrvvgn/102_qij5c5l.sdf

>  <i_m_source_file_index>  (306) 
26

>  <i_lp_mmshare_version>  (306) 
48012

>  <i_f3d_flags>  (306) 
0

>  <s_epik_input>  (306) 
W0NAXTEyM1tDQEhdNFtDSDJdW0NIMl1bQ0BASF0oW0NIM10pW0NAQEhdMltDSDJdW0NIMl1bQ0BAXShbQ0gzXSkoT08zKU9bQ0BIXTFPW0NAXTQoW0NIM10pW09IXQ==

>  <s_epik_cmdline>  (306) 
J2VwaWtfcHl0aG9uJywgJy1waHQnLCAnMi4wJywgJy1waCcsICc3LjAnLCAnLXRuJywgJzgnLCAnLW1hJywgJzIwMCcsICctaW1hZScsICc8aW5maWxlLm1hZT4nLCAnLW9tYWUnLCAnPG91dGZpbGUubWFlPic=

>  <r_lp_tautomer_probability>  (306) 
1

>  <r_epik_Ionization_Penalty>  (306) 
4.44723e-08

>  <r_epik_Ionization_Penalty_Charging>  (306) 
0

>  <r_epik_Ionization_Penalty_Neutral>  (306) 
4.44723e-08

>  <r_epik_State_Penalty>  (306) 
-0

>  <r_epik_Charging_Adjusted_Penalty>  (306) 
0

>  <i_epik_Tot_Q>  (306) 
0

>  <i_epik_Tot_abs_Q>  (306) 
0

>  <s_epik_Chemistry_Notes>  (306) 
This compound contains an acetal/aminal-like group ( X-CH(R)-Y where X, Y are N, S, or O) that may be acid/base labile, releasing an aldehyde.

>  <s_lp_Force_Field>  (306) 
OPLS3e

>  <r_lp_Energy>  (306) 
31.4931

>  <b_lp_Chiralities_Consistent>  (306) 
1

>  <s_lp_Variant>  (306) 
100:0-1

>  <s_i_glide_gridfile>  (306) 
pfpi4k_grid

>  <i_i_glide_lignum>  (306) 
26

>  <i_i_glide_rotatable_bonds>  (306) 
1

>  <r_i_docking_score>  (306) 
-3.67738

>  <r_i_glide_ligand_efficiency>  (306) 
-0.193546

>  <r_i_glide_ligand_efficiency_sa>  (306) 
-0.516459

>  <r_i_glide_ligand_efficiency_ln>  (306) 
-0.932295

>  <r_i_glide_gscore>  (306) 
-3.67738

>  <r_i_glide_lipo>  (306) 
-0.546818

>  <r_i_glide_hbond>  (306) 
-0.16

>  <r_i_glide_metal>  (306) 
-0

>  <r_i_glide_rewards>  (306) 
-1.69588

>  <r_i_glide_evdw>  (306) 
-16.6126

>  <r_i_glide_ecoul>  (306) 
-2.90695

>  <r_i_glide_erotb>  (306) 
0

>  <r_i_glide_esite>  (306) 
-0.00801065

>  <r_i_glide_emodel>  (306) 
-24.3447

>  <r_i_glide_energy>  (306) 
-19.5195

>  <r_i_glide_einternal>  (306) 
0.0763783

>  <r_i_glide_intrahb_reward>  (306) 
-0

>  <i_i_glide_confnum>  (306) 
2

>  <i_i_glide_posenum>  (306) 
14

>  <r_i_glide_eff_state_penalty>  (306) 
0

>  <ligand_id>  (306) 
100

>  <original_smiles>  (306) 
CC1CCC2C(C)(O)OC3OC4(C)CCC1C32OO4

>  <smiles>  (306) 
[H]OC1(C([H])([H])[H])OC2([H])OC3(C([H])([H])[H])OOC24C1([H])C([H])([H])C([H])([H])C([H])(C([H])([H])[H])C4([H])C([H])([H])C3([H])[H]

$$$$
100:0:2
     RDKit          3D

 41 44  0  0  1  0  0  0  0  0999 V2000
    6.8766   -2.6928   -1.2544 C   0  0  0  0  0  0  0  0  0  0  0  0
    5.6088   -2.3434   -0.4548 C   0  0  2  0  0  0  0  0  0  0  0  0
    5.7978   -1.0202    0.2931 C   0  0  0  0  0  0  0  0  0  0  0  0
    4.4664   -0.5770    0.8997 C   0  0  0  0  0  0  0  0  0  0  0  0
    3.9873   -1.5822    1.9686 C   0  0  1  0  0  0  0  0  0  0  0  0
    2.4835   -1.4046    2.3698 C   0  0  1  0  0  0  0  0  0  0  0  0
    2.2957   -1.1661    3.8724 C   0  0  0  0  0  0  0  0  0  0  0  0
    1.8393   -0.3415    1.6868 O   0  0  0  0  0  0  0  0  0  0  0  0
    1.8743   -2.6263    2.0791 O   0  0  0  0  0  0  0  0  0  0  0  0
    2.6223   -3.3061    1.1210 C   0  0  2  0  0  0  0  0  0  0  0  0
    2.2817   -4.6553    1.0358 O   0  0  0  0  0  0  0  0  0  0  0  0
    3.1896   -5.5597    1.6212 C   0  0  1  0  0  0  0  0  0  0  0  0
    2.3611   -6.7961    1.9926 C   0  0  0  0  0  0  0  0  0  0  0  0
    4.3064   -5.9280    0.6252 C   0  0  0  0  0  0  0  0  0  0  0  0
    4.8261   -4.7663   -0.2327 C   0  0  0  0  0  0  0  0  0  0  0  0
    5.1756   -3.4710    0.5189 C   0  0  2  0  0  0  0  0  0  0  0  0
    4.0770   -3.0594    1.5507 C   0  0  1  0  0  0  0  0  0  0  0  0
    4.3957   -3.7590    2.7515 O   0  0  0  0  0  0  0  0  0  0  0  0
    3.6839   -5.1027    2.8694 O   0  0  0  0  0  0  0  0  0  0  0  0
    7.7144   -2.9397   -0.6002 H   0  0  0  0  0  0  0  0  0  0  0  0
    7.1794   -1.8612   -1.8880 H   0  0  0  0  0  0  0  0  0  0  0  0
    6.7136   -3.5326   -1.9307 H   0  0  0  0  0  0  0  0  0  0  0  0
    4.8070   -2.1982   -1.1813 H   0  0  0  0  0  0  0  0  0  0  0  0
    6.5669   -1.1123    1.0649 H   0  0  0  0  0  0  0  0  0  0  0  0
    6.1414   -0.2574   -0.4027 H   0  0  0  0  0  0  0  0  0  0  0  0
    4.5814    0.4114    1.3471 H   0  0  0  0  0  0  0  0  0  0  0  0
    3.7486   -0.4728    0.0821 H   0  0  0  0  0  0  0  0  0  0  0  0
    4.6165   -1.4313    2.8503 H   0  0  0  0  0  0  0  0  0  0  0  0
    1.2276   -1.1304    4.1009 H   0  0  0  0  0  0  0  0  0  0  0  0
    2.7475   -0.2177    4.1619 H   0  0  0  0  0  0  0  0  0  0  0  0
    2.7502   -1.9717    4.4469 H   0  0  0  0  0  0  0  0  0  0  0  0
    1.6443   -0.6032    0.7871 H   0  0  0  0  0  0  0  0  0  0  0  0
    2.4194   -2.8379    0.1510 H   0  0  0  0  0  0  0  0  0  0  0  0
    1.5945   -6.5257    2.7222 H   0  0  0  0  0  0  0  0  0  0  0  0
    2.9859   -7.5747    2.4380 H   0  0  0  0  0  0  0  0  0  0  0  0
    1.8549   -7.2250    1.1230 H   0  0  0  0  0  0  0  0  0  0  0  0
    5.1243   -6.4236    1.1470 H   0  0  0  0  0  0  0  0  0  0  0  0
    3.9162   -6.6696   -0.0786 H   0  0  0  0  0  0  0  0  0  0  0  0
    5.7091   -5.1316   -0.7473 H   0  0  0  0  0  0  0  0  0  0  0  0
    4.0963   -4.5453   -1.0126 H   0  0  0  0  0  0  0  0  0  0  0  0
    6.0616   -3.6898    1.1172 H   0  0  0  0  0  0  0  0  0  0  0  0
  1  2  1  0
  1 20  1  0
  1 21  1  0
  1 22  1  0
  2 16  1  0
  2  3  1  0
  2 23  1  6
  3  4  1  0
  3 24  1  0
  3 25  1  0
  4  5  1  0
  4 26  1  0
  4 27  1  0
  5 17  1  0
  5  6  1  0
  5 28  1  1
  6  7  1  0
  6  8  1  6
  6  9  1  0
  7 29  1  0
  7 30  1  0
  7 31  1  0
  8 32  1  0
  9 10  1  0
 10 17  1  0
 10 11  1  0
 10 33  1  6
 11 12  1  0
 12 19  1  0
 12 13  1  1
 12 14  1  0
 13 34  1  0
 13 35  1  0
 13 36  1  0
 14 15  1  0
 14 37  1  0
 14 38  1  0
 15 16  1  0
 15 39  1  0
 15 40  1  0
 16 17  1  0
 16 41  1  1
 17 18  1  1
 18 19  1  0
M  END
>  <i_m_ct_stereo_status>  (307) 
1

>  <s_m_source_file>  (307) 
/var/tmp/pbs.5076255.sched01/tmp2gjrvvgn/102_qij5c5l.sdf

>  <i_m_source_file_index>  (307) 
26

>  <i_lp_mmshare_version>  (307) 
48012

>  <i_f3d_flags>  (307) 
0

>  <s_epik_input>  (307) 
W0NAXTEyM1tDQEhdNFtDSDJdW0NIMl1bQ0BASF0oW0NIM10pW0NAQEhdMltDSDJdW0NIMl1bQ0BAXShbQ0gzXSkoT08zKU9bQ0BIXTFPW0NAXTQoW0NIM10pW09IXQ==

>  <s_epik_cmdline>  (307) 
J2VwaWtfcHl0aG9uJywgJy1waHQnLCAnMi4wJywgJy1waCcsICc3LjAnLCAnLXRuJywgJzgnLCAnLW1hJywgJzIwMCcsICctaW1hZScsICc8aW5maWxlLm1hZT4nLCAnLW9tYWUnLCAnPG91dGZpbGUubWFlPic=

>  <r_lp_tautomer_probability>  (307) 
1

>  <r_epik_Ionization_Penalty>  (307) 
4.44723e-08

>  <r_epik_Ionization_Penalty_Charging>  (307) 
0

>  <r_epik_Ionization_Penalty_Neutral>  (307) 
4.44723e-08

>  <r_epik_State_Penalty>  (307) 
-0

>  <r_epik_Charging_Adjusted_Penalty>  (307) 
0

>  <i_epik_Tot_Q>  (307) 
0

>  <i_epik_Tot_abs_Q>  (307) 
0

>  <s_epik_Chemistry_Notes>  (307) 
This compound contains an acetal/aminal-like group ( X-CH(R)-Y where X, Y are N, S, or O) that may be acid/base labile, releasing an aldehyde.

>  <s_lp_Force_Field>  (307) 
OPLS3e

>  <r_lp_Energy>  (307) 
31.4931

>  <b_lp_Chiralities_Consistent>  (307) 
1

>  <s_lp_Variant>  (307) 
100:0-1

>  <s_i_glide_gridfile>  (307) 
pfpi4k_grid

>  <i_i_glide_lignum>  (307) 
26

>  <i_i_glide_rotatable_bonds>  (307) 
1

>  <r_i_docking_score>  (307) 
-3.2525

>  <r_i_glide_ligand_efficiency>  (307) 
-0.171184

>  <r_i_glide_ligand_efficiency_sa>  (307) 
-0.456788

>  <r_i_glide_ligand_efficiency_ln>  (307) 
-0.824577

>  <r_i_glide_gscore>  (307) 
-3.2525

>  <r_i_glide_lipo>  (307) 
-0.33803

>  <r_i_glide_hbond>  (307) 
-0.00688003

>  <r_i_glide_metal>  (307) 
-0

>  <r_i_glide_rewards>  (307) 
-1.58122

>  <r_i_glide_evdw>  (307) 
-19.1011

>  <r_i_glide_ecoul>  (307) 
-2.25737

>  <r_i_glide_erotb>  (307) 
0

>  <r_i_glide_esite>  (307) 
-0.0327092

>  <r_i_glide_emodel>  (307) 
-25.6953

>  <r_i_glide_energy>  (307) 
-21.3585

>  <r_i_glide_einternal>  (307) 
0.514587

>  <r_i_glide_intrahb_reward>  (307) 
-0

>  <i_i_glide_confnum>  (307) 
1

>  <i_i_glide_posenum>  (307) 
4

>  <r_i_glide_eff_state_penalty>  (307) 
0

>  <ligand_id>  (307) 
100

>  <original_smiles>  (307) 
CC1CCC2C(C)(O)OC3OC4(C)CCC1C32OO4

>  <smiles>  (307) 
[H]OC1(C([H])([H])[H])OC2([H])OC3(C([H])([H])[H])OOC24C1([H])C([H])([H])C([H])([H])C([H])(C([H])([H])[H])C4([H])C([H])([H])C3([H])[H]

$$$$
101:0:0
     RDKit          3D

 46 50  0  0  1  0  0  0  0  0999 V2000
    2.6043   -2.3287   -3.5686 C   0  0  0  0  0  0  0  0  0  0  0  0
    2.9882   -2.9180   -2.1994 C   0  0  0  0  0  0  0  0  0  0  0  0
    4.4951   -3.2123   -1.9097 C   0  0  1  0  0  0  0  0  0  0  0  0
    4.9531   -3.9966   -2.9908 O   0  0  0  0  0  0  0  0  0  0  0  0
    5.3393   -1.9196   -1.8263 C   0  0  0  0  0  0  0  0  0  0  0  0
    4.9336   -0.8407   -2.2506 O   0  0  0  0  0  0  0  0  0  0  0  0
    6.5721   -2.0398   -1.2859 O   0  0  0  0  0  0  0  0  0  0  0  0
    7.0485   -3.2482   -0.6962 C   0  0  1  0  0  0  0  0  0  0  0  0
    8.1742   -2.7811    0.2351 C   0  0  0  0  0  0  0  0  0  0  0  0
    9.1639   -3.7741    0.2547 O   0  0  0  0  0  0  0  0  0  0  0  0
    5.9354   -4.0860   -0.0365 C   0  0  0  0  0  0  0  0  0  0  0  0
    4.6995   -4.0124   -0.6081 C   0  0  0  0  0  0  0  0  0  0  0  0
    3.5903   -4.7016    0.0159 C   0  0  0  0  0  0  0  0  0  0  0  0
    3.8134   -5.3882    1.1310 C   0  0  0  0  0  0  0  0  0  0  0  0
    5.0614   -5.5006    1.7399 N   0  0  0  0  0  0  0  0  0  0  0  0
    6.1729   -4.9100    1.1931 C   0  0  0  0  0  0  0  0  0  0  0  0
    7.2698   -5.1039    1.7073 O   0  0  0  0  0  0  0  0  0  0  0  0
    4.9404   -6.3530    2.9634 C   0  0  0  0  0  0  0  0  0  0  0  0
    3.4562   -6.7185    2.9711 C   0  0  0  0  0  0  0  0  0  0  0  0
    2.6862   -7.4966    3.8592 C   0  0  0  0  0  0  0  0  0  0  0  0
    1.3090   -7.6215    3.5516 C   0  0  0  0  0  0  0  0  0  0  0  0
    0.4568   -8.3642    4.3717 C   0  0  0  0  0  0  0  0  0  0  0  0
   -0.9005   -8.4318    4.0390 C   0  0  0  0  0  0  0  0  0  0  0  0
   -1.4270   -7.8369    2.8920 C   0  0  0  0  0  0  0  0  0  0  0  0
   -0.5741   -7.1022    2.0783 C   0  0  0  0  0  0  0  0  0  0  0  0
    0.7851   -6.9780    2.3866 C   0  0  0  0  0  0  0  0  0  0  0  0
    1.5422   -6.2373    1.5560 N   0  0  0  0  0  0  0  0  0  0  0  0
    2.8428   -6.1387    1.8777 C   0  0  0  0  0  0  0  0  0  0  0  0
    1.5150   -2.2814   -3.6590 H   0  0  0  0  0  0  0  0  0  0  0  0
    2.9508   -2.9712   -4.3789 H   0  0  0  0  0  0  0  0  0  0  0  0
    2.9891   -1.3203   -3.7299 H   0  0  0  0  0  0  0  0  0  0  0  0
    2.5959   -2.2768   -1.4127 H   0  0  0  0  0  0  0  0  0  0  0  0
    2.3935   -3.8301   -2.1671 H   0  0  0  0  0  0  0  0  0  0  0  0
    4.4166   -4.7805   -3.0429 H   0  0  0  0  0  0  0  0  0  0  0  0
    7.4749   -3.8065   -1.5293 H   0  0  0  0  0  0  0  0  0  0  0  0
    8.6463   -1.8396   -0.0867 H   0  0  0  0  0  0  0  0  0  0  0  0
    7.7925   -2.6273    1.2432 H   0  0  0  0  0  0  0  0  0  0  0  0
    8.7818   -4.5544    0.6398 H   0  0  0  0  0  0  0  0  0  0  0  0
    2.5842   -4.6955   -0.3850 H   0  0  0  0  0  0  0  0  0  0  0  0
    5.5830   -7.2329    2.8774 H   0  0  0  0  0  0  0  0  0  0  0  0
    5.2324   -5.7844    3.8510 H   0  0  0  0  0  0  0  0  0  0  0  0
    3.1453   -7.9591    4.7256 H   0  0  0  0  0  0  0  0  0  0  0  0
    0.8171   -8.8637    5.2497 H   0  0  0  0  0  0  0  0  0  0  0  0
   -1.6007   -8.8912    4.6989 H   0  0  0  0  0  0  0  0  0  0  0  0
   -2.4733   -7.9415    2.6512 H   0  0  0  0  0  0  0  0  0  0  0  0
   -0.9573   -6.6436    1.1893 H   0  0  0  0  0  0  0  0  0  0  0  0
  1  2  1  0
  1 29  1  0
  1 30  1  0
  1 31  1  0
  2  3  1  0
  2 32  1  0
  2 33  1  0
  3 12  1  0
  3  4  1  6
  3  5  1  0
  4 34  1  0
  5  6  2  0
  5  7  1  0
  7  8  1  0
  8  9  1  0
  8 11  1  0
  8 35  1  6
  9 10  1  0
  9 36  1  0
  9 37  1  0
 10 38  1  0
 11 16  1  0
 11 12  2  0
 12 13  1  0
 13 14  2  0
 13 39  1  0
 14 28  1  0
 14 15  1  0
 15 16  1  0
 15 18  1  0
 16 17  2  0
 18 19  1  0
 18 40  1  0
 18 41  1  0
 19 28  2  0
 19 20  1  0
 20 21  2  0
 20 42  1  0
 21 26  1  0
 21 22  1  0
 22 23  2  0
 22 43  1  0
 23 24  1  0
 23 44  1  0
 24 25  2  0
 24 45  1  0
 25 26  1  0
 25 46  1  0
 26 27  2  0
 27 28  1  0
M  END
>  <i_m_ct_stereo_status>  (308) 
1

>  <s_m_source_file>  (308) 
/var/tmp/pbs.5076255.sched01/tmp2gjrvvgn/102_qij5c5l.sdf

>  <i_m_source_file_index>  (308) 
27

>  <i_lp_mmshare_version>  (308) 
48012

>  <i_f3d_flags>  (308) 
0

>  <s_epik_input>  (308) 
W09IXVtDSDJdW0NAQEhdMU9DKD1PKVtDQF0oW09IXSkoW0NIMl1bQ0gzXSljKGMxMilbY0hdYzNuKGMyPU8pW0NIMl1jNGMzbmM1YyhbY0hdNClbY0hdW2NIXVtjSF1bY0hdNQ==

>  <s_epik_cmdline>  (308) 
J2VwaWtfcHl0aG9uJywgJy1waHQnLCAnMi4wJywgJy1waCcsICc3LjAnLCAnLXRuJywgJzgnLCAnLW1hJywgJzIwMCcsICctaW1hZScsICc8aW5maWxlLm1hZT4nLCAnLW9tYWUnLCAnPG91dGZpbGUubWFlPic=

>  <r_lp_tautomer_probability>  (308) 
1

>  <r_epik_Ionization_Penalty>  (308) 
0.000142008

>  <r_epik_Ionization_Penalty_Charging>  (308) 
2.9068e-07

>  <r_epik_Ionization_Penalty_Neutral>  (308) 
0.000141717

>  <r_epik_State_Penalty>  (308) 
-0

>  <r_epik_Charging_Adjusted_Penalty>  (308) 
2.9068e-07

>  <i_epik_Tot_Q>  (308) 
0

>  <i_epik_Tot_abs_Q>  (308) 
0

>  <s_epik_Chemistry_Notes>  (308) 
This compound has an ester and may undergo hydrolysis at high or low pH.

>  <s_lp_Force_Field>  (308) 
OPLS3e

>  <r_lp_Energy>  (308) 
52.5655

>  <b_lp_Chiralities_Consistent>  (308) 
1

>  <s_lp_Variant>  (308) 
101:0-1

>  <s_i_glide_gridfile>  (308) 
pfpi4k_grid

>  <i_i_glide_lignum>  (308) 
27

>  <i_i_glide_rotatable_bonds>  (308) 
4

>  <r_i_docking_score>  (308) 
-4.92644

>  <r_i_glide_ligand_efficiency>  (308) 
-0.175944

>  <r_i_glide_ligand_efficiency_sa>  (308) 
-0.53427

>  <r_i_glide_ligand_efficiency_ln>  (308) 
-1.13717

>  <r_i_glide_gscore>  (308) 
-4.92644

>  <r_i_glide_lipo>  (308) 
-0.768789

>  <r_i_glide_hbond>  (308) 
-0.167494

>  <r_i_glide_metal>  (308) 
-0

>  <r_i_glide_rewards>  (308) 
-1.37377

>  <r_i_glide_evdw>  (308) 
-32.1842

>  <r_i_glide_ecoul>  (308) 
-7.40043

>  <r_i_glide_erotb>  (308) 
0.135353

>  <r_i_glide_esite>  (308) 
-0.0324611

>  <r_i_glide_emodel>  (308) 
-54.1938

>  <r_i_glide_energy>  (308) 
-39.5846

>  <r_i_glide_einternal>  (308) 
4.34333

>  <r_i_glide_intrahb_reward>  (308) 
-0.5

>  <i_i_glide_confnum>  (308) 
1

>  <i_i_glide_posenum>  (308) 
36

>  <r_i_glide_eff_state_penalty>  (308) 
0

>  <ligand_id>  (308) 
101

>  <original_smiles>  (308) 
CCC1(O)C(=O)OC(CO)c2c1cc1n(c2=O)Cc2cc3ccccc3nc2-1

>  <smiles>  (308) 
[H]OC([H])([H])C1([H])OC(=O)C(O[H])(C([H])([H])C([H])([H])[H])c2c([H])c3n(c(=O)c21)C([H])([H])c1c-3nc2c([H])c([H])c([H])c([H])c2c1[H]

$$$$
101:0:1
     RDKit          3D

 46 50  0  0  1  0  0  0  0  0999 V2000
    2.2618   -2.8939   -4.3134 C   0  0  0  0  0  0  0  0  0  0  0  0
    2.4401   -3.0832   -2.8209 C   0  0  0  0  0  0  0  0  0  0  0  0
    3.8350   -2.7253   -2.2041 C   0  0  1  0  0  0  0  0  0  0  0  0
    4.7896   -3.4747   -2.9354 O   0  0  0  0  0  0  0  0  0  0  0  0
    4.1649   -1.2157   -2.3416 C   0  0  0  0  0  0  0  0  0  0  0  0
    3.5877   -0.4720   -3.1363 O   0  0  0  0  0  0  0  0  0  0  0  0
    5.1582   -0.7589   -1.5581 O   0  0  0  0  0  0  0  0  0  0  0  0
    5.8109   -1.5592   -0.5785 C   0  0  1  0  0  0  0  0  0  0  0  0
    6.4341   -0.5646    0.4017 C   0  0  0  0  0  0  0  0  0  0  0  0
    7.6961   -1.0514    0.7340 O   0  0  0  0  0  0  0  0  0  0  0  0
    4.9031   -2.6226    0.0647 C   0  0  0  0  0  0  0  0  0  0  0  0
    3.9237   -3.1360   -0.7317 C   0  0  0  0  0  0  0  0  0  0  0  0
    2.9867   -4.0759   -0.1594 C   0  0  0  0  0  0  0  0  0  0  0  0
    3.1039   -4.4047    1.1257 C   0  0  0  0  0  0  0  0  0  0  0  0
    4.0908   -3.9141    1.9638 N   0  0  0  0  0  0  0  0  0  0  0  0
    5.0316   -3.0400    1.5038 C   0  0  0  0  0  0  0  0  0  0  0  0
    5.8888   -2.6757    2.2929 O   0  0  0  0  0  0  0  0  0  0  0  0
    3.9421   -4.4855    3.3313 C   0  0  0  0  0  0  0  0  0  0  0  0
    2.7185   -5.3870    3.1694 C   0  0  0  0  0  0  0  0  0  0  0  0
    2.0414   -6.2190    4.0785 C   0  0  0  0  0  0  0  0  0  0  0  0
    0.9209   -6.9218    3.5678 C   0  0  0  0  0  0  0  0  0  0  0  0
    0.1601   -7.7669    4.3839 C   0  0  0  0  0  0  0  0  0  0  0  0
   -0.9575   -8.4294    3.8579 C   0  0  0  0  0  0  0  0  0  0  0  0
   -1.3172   -8.2910    2.5111 C   0  0  0  0  0  0  0  0  0  0  0  0
   -0.5540   -7.4478    1.6906 C   0  0  0  0  0  0  0  0  0  0  0  0
    0.5556   -6.7634    2.1904 C   0  0  0  0  0  0  0  0  0  0  0  0
    1.2207   -5.9574    1.3509 N   0  0  0  0  0  0  0  0  0  0  0  0
    2.2758   -5.3061    1.8631 C   0  0  0  0  0  0  0  0  0  0  0  0
    1.2945   -3.2652   -4.6536 H   0  0  0  0  0  0  0  0  0  0  0  0
    3.0259   -3.4399   -4.8592 H   0  0  0  0  0  0  0  0  0  0  0  0
    2.3037   -1.8469   -4.6106 H   0  0  0  0  0  0  0  0  0  0  0  0
    1.6516   -2.5346   -2.3032 H   0  0  0  0  0  0  0  0  0  0  0  0
    2.1934   -4.1344   -2.6801 H   0  0  0  0  0  0  0  0  0  0  0  0
    4.5449   -4.3891   -2.8968 H   0  0  0  0  0  0  0  0  0  0  0  0
    6.6026   -2.0614   -1.1325 H   0  0  0  0  0  0  0  0  0  0  0  0
    6.5954    0.4415   -0.0036 H   0  0  0  0  0  0  0  0  0  0  0  0
    5.7917   -0.3888    1.2679 H   0  0  0  0  0  0  0  0  0  0  0  0
    8.0630   -0.4589    1.3236 H   0  0  0  0  0  0  0  0  0  0  0  0
    2.1787   -4.5281   -0.7190 H   0  0  0  0  0  0  0  0  0  0  0  0
    4.8316   -5.0551    3.6169 H   0  0  0  0  0  0  0  0  0  0  0  0
    3.7768   -3.7008    4.0771 H   0  0  0  0  0  0  0  0  0  0  0  0
    2.3605   -6.3062    5.1101 H   0  0  0  0  0  0  0  0  0  0  0  0
    0.4140   -7.9185    5.4182 H   0  0  0  0  0  0  0  0  0  0  0  0
   -1.5437   -9.0655    4.4905 H   0  0  0  0  0  0  0  0  0  0  0  0
   -2.1603   -8.8277    2.1027 H   0  0  0  0  0  0  0  0  0  0  0  0
   -0.8167   -7.3506    0.6487 H   0  0  0  0  0  0  0  0  0  0  0  0
  1  2  1  0
  1 29  1  0
  1 30  1  0
  1 31  1  0
  2  3  1  0
  2 32  1  0
  2 33  1  0
  3 12  1  0
  3  4  1  6
  3  5  1  0
  4 34  1  0
  5  6  2  0
  5  7  1  0
  7  8  1  0
  8  9  1  0
  8 11  1  0
  8 35  1  6
  9 10  1  0
  9 36  1  0
  9 37  1  0
 10 38  1  0
 11 16  1  0
 11 12  2  0
 12 13  1  0
 13 14  2  0
 13 39  1  0
 14 28  1  0
 14 15  1  0
 15 16  1  0
 15 18  1  0
 16 17  2  0
 18 19  1  0
 18 40  1  0
 18 41  1  0
 19 28  2  0
 19 20  1  0
 20 21  2  0
 20 42  1  0
 21 26  1  0
 21 22  1  0
 22 23  2  0
 22 43  1  0
 23 24  1  0
 23 44  1  0
 24 25  2  0
 24 45  1  0
 25 26  1  0
 25 46  1  0
 26 27  2  0
 27 28  1  0
M  END
>  <i_m_ct_stereo_status>  (309) 
1

>  <s_m_source_file>  (309) 
/var/tmp/pbs.5076255.sched01/tmp2gjrvvgn/102_qij5c5l.sdf

>  <i_m_source_file_index>  (309) 
27

>  <i_lp_mmshare_version>  (309) 
48012

>  <i_f3d_flags>  (309) 
0

>  <s_epik_input>  (309) 
W09IXVtDSDJdW0NAQEhdMU9DKD1PKVtDQF0oW09IXSkoW0NIMl1bQ0gzXSljKGMxMilbY0hdYzNuKGMyPU8pW0NIMl1jNGMzbmM1YyhbY0hdNClbY0hdW2NIXVtjSF1bY0hdNQ==

>  <s_epik_cmdline>  (309) 
J2VwaWtfcHl0aG9uJywgJy1waHQnLCAnMi4wJywgJy1waCcsICc3LjAnLCAnLXRuJywgJzgnLCAnLW1hJywgJzIwMCcsICctaW1hZScsICc8aW5maWxlLm1hZT4nLCAnLW9tYWUnLCAnPG91dGZpbGUubWFlPic=

>  <r_lp_tautomer_probability>  (309) 
1

>  <r_epik_Ionization_Penalty>  (309) 
0.000142008

>  <r_epik_Ionization_Penalty_Charging>  (309) 
2.9068e-07

>  <r_epik_Ionization_Penalty_Neutral>  (309) 
0.000141717

>  <r_epik_State_Penalty>  (309) 
-0

>  <r_epik_Charging_Adjusted_Penalty>  (309) 
2.9068e-07

>  <i_epik_Tot_Q>  (309) 
0

>  <i_epik_Tot_abs_Q>  (309) 
0

>  <s_epik_Chemistry_Notes>  (309) 
This compound has an ester and may undergo hydrolysis at high or low pH.

>  <s_lp_Force_Field>  (309) 
OPLS3e

>  <r_lp_Energy>  (309) 
52.5655

>  <b_lp_Chiralities_Consistent>  (309) 
1

>  <s_lp_Variant>  (309) 
101:0-1

>  <s_i_glide_gridfile>  (309) 
pfpi4k_grid

>  <i_i_glide_lignum>  (309) 
27

>  <i_i_glide_rotatable_bonds>  (309) 
4

>  <r_i_docking_score>  (309) 
-3.82404

>  <r_i_glide_ligand_efficiency>  (309) 
-0.136573

>  <r_i_glide_ligand_efficiency_sa>  (309) 
-0.414716

>  <r_i_glide_ligand_efficiency_ln>  (309) 
-0.882701

>  <r_i_glide_gscore>  (309) 
-3.82404

>  <r_i_glide_lipo>  (309) 
-0.189213

>  <r_i_glide_hbond>  (309) 
-0.153915

>  <r_i_glide_metal>  (309) 
-0

>  <r_i_glide_rewards>  (309) 
-0.837529

>  <r_i_glide_evdw>  (309) 
-25.7179

>  <r_i_glide_ecoul>  (309) 
-9.7353

>  <r_i_glide_erotb>  (309) 
0.135353

>  <r_i_glide_esite>  (309) 
-0.0325476

>  <r_i_glide_emodel>  (309) 
-42.2279

>  <r_i_glide_energy>  (309) 
-35.4532

>  <r_i_glide_einternal>  (309) 
4.54528

>  <r_i_glide_intrahb_reward>  (309) 
-0

>  <i_i_glide_confnum>  (309) 
3

>  <i_i_glide_posenum>  (309) 
29

>  <r_i_glide_eff_state_penalty>  (309) 
0

>  <ligand_id>  (309) 
101

>  <original_smiles>  (309) 
CCC1(O)C(=O)OC(CO)c2c1cc1n(c2=O)Cc2cc3ccccc3nc2-1

>  <smiles>  (309) 
[H]OC([H])([H])C1([H])OC(=O)C(O[H])(C([H])([H])C([H])([H])[H])c2c([H])c3n(c(=O)c21)C([H])([H])c1c-3nc2c([H])c([H])c([H])c([H])c2c1[H]

$$$$
101:0:2
     RDKit          3D

 46 50  0  0  1  0  0  0  0  0999 V2000
    2.3644   -3.0435   -4.2129 C   0  0  0  0  0  0  0  0  0  0  0  0
    2.4840   -3.1740   -2.6954 C   0  0  0  0  0  0  0  0  0  0  0  0
    3.8344   -2.7464   -2.0305 C   0  0  1  0  0  0  0  0  0  0  0  0
    4.8525   -3.4819   -2.6866 O   0  0  0  0  0  0  0  0  0  0  0  0
    4.1232   -1.2295   -2.2305 C   0  0  0  0  0  0  0  0  0  0  0  0
    3.5542   -0.5555   -3.0892 O   0  0  0  0  0  0  0  0  0  0  0  0
    5.0829   -0.7101   -1.4390 O   0  0  0  0  0  0  0  0  0  0  0  0
    5.7045   -1.4284   -0.3837 C   0  0  1  0  0  0  0  0  0  0  0  0
    6.2101   -0.3433    0.5771 C   0  0  0  0  0  0  0  0  0  0  0  0
    5.1229    0.1266    1.3350 O   0  0  0  0  0  0  0  0  0  0  0  0
    4.8076   -2.5009    0.2578 C   0  0  0  0  0  0  0  0  0  0  0  0
    3.8840   -3.0817   -0.5404 C   0  0  0  0  0  0  0  0  0  0  0  0
    2.9552   -4.0368    0.0365 C   0  0  0  0  0  0  0  0  0  0  0  0
    3.0330   -4.2949    1.3406 C   0  0  0  0  0  0  0  0  0  0  0  0
    3.9673   -3.7320    2.2045 N   0  0  0  0  0  0  0  0  0  0  0  0
    4.9147   -2.8582    1.7279 C   0  0  0  0  0  0  0  0  0  0  0  0
    5.7817   -2.4365    2.4798 O   0  0  0  0  0  0  0  0  0  0  0  0
    3.7669   -4.2567    3.5709 C   0  0  0  0  0  0  0  0  0  0  0  0
    2.5762   -5.2143    3.3991 C   0  0  0  0  0  0  0  0  0  0  0  0
    1.8801   -6.0382    4.3199 C   0  0  0  0  0  0  0  0  0  0  0  0
    0.8071   -6.7978    3.7835 C   0  0  0  0  0  0  0  0  0  0  0  0
    0.0408   -7.6384    4.6059 C   0  0  0  0  0  0  0  0  0  0  0  0
   -1.0221   -8.3713    4.0609 C   0  0  0  0  0  0  0  0  0  0  0  0
   -1.3272   -8.2882    2.6983 C   0  0  0  0  0  0  0  0  0  0  0  0
   -0.5641   -7.4532    1.8735 C   0  0  0  0  0  0  0  0  0  0  0  0
    0.5061   -6.7042    2.3914 C   0  0  0  0  0  0  0  0  0  0  0  0
    1.1851   -5.9070    1.5490 N   0  0  0  0  0  0  0  0  0  0  0  0
    2.1932   -5.2054    2.0753 C   0  0  0  0  0  0  0  0  0  0  0  0
    1.4166   -3.4593   -4.5707 H   0  0  0  0  0  0  0  0  0  0  0  0
    3.1759   -3.5860   -4.7079 H   0  0  0  0  0  0  0  0  0  0  0  0
    2.3836   -2.0096   -4.5476 H   0  0  0  0  0  0  0  0  0  0  0  0
    1.6589   -2.6491   -2.2248 H   0  0  0  0  0  0  0  0  0  0  0  0
    2.2661   -4.2190   -2.5099 H   0  0  0  0  0  0  0  0  0  0  0  0
    4.6285   -4.3991   -2.6531 H   0  0  0  0  0  0  0  0  0  0  0  0
    6.5591   -1.9230   -0.8327 H   0  0  0  0  0  0  0  0  0  0  0  0
    6.9785   -0.7603    1.2334 H   0  0  0  0  0  0  0  0  0  0  0  0
    6.6787    0.5113    0.1157 H   0  0  0  0  0  0  0  0  0  0  0  0
    4.4954    0.5230    0.7363 H   0  0  0  0  0  0  0  0  0  0  0  0
    2.1877   -4.5370   -0.5437 H   0  0  0  0  0  0  0  0  0  0  0  0
    4.6554   -4.7930    3.9315 H   0  0  0  0  0  0  0  0  0  0  0  0
    3.5328   -3.4556    4.2866 H   0  0  0  0  0  0  0  0  0  0  0  0
    2.1622   -6.0635    5.3557 H   0  0  0  0  0  0  0  0  0  0  0  0
    0.2629   -7.7326    5.6545 H   0  0  0  0  0  0  0  0  0  0  0  0
   -1.5987   -9.0577    4.6803 H   0  0  0  0  0  0  0  0  0  0  0  0
   -2.1283   -8.8705    2.2736 H   0  0  0  0  0  0  0  0  0  0  0  0
   -0.7821   -7.4044    0.8167 H   0  0  0  0  0  0  0  0  0  0  0  0
  1  2  1  0
  1 29  1  0
  1 30  1  0
  1 31  1  0
  2  3  1  0
  2 32  1  0
  2 33  1  0
  3 12  1  0
  3  4  1  6
  3  5  1  0
  4 34  1  0
  5  6  2  0
  5  7  1  0
  7  8  1  0
  8  9  1  0
  8 11  1  0
  8 35  1  6
  9 10  1  0
  9 36  1  0
  9 37  1  0
 10 38  1  0
 11 16  1  0
 11 12  2  0
 12 13  1  0
 13 14  2  0
 13 39  1  0
 14 28  1  0
 14 15  1  0
 15 16  1  0
 15 18  1  0
 16 17  2  0
 18 19  1  0
 18 40  1  0
 18 41  1  0
 19 28  2  0
 19 20  1  0
 20 21  2  0
 20 42  1  0
 21 26  1  0
 21 22  1  0
 22 23  2  0
 22 43  1  0
 23 24  1  0
 23 44  1  0
 24 25  2  0
 24 45  1  0
 25 26  1  0
 25 46  1  0
 26 27  2  0
 27 28  1  0
M  END
>  <i_m_ct_stereo_status>  (310) 
1

>  <s_m_source_file>  (310) 
/var/tmp/pbs.5076255.sched01/tmp2gjrvvgn/102_qij5c5l.sdf

>  <i_m_source_file_index>  (310) 
27

>  <i_lp_mmshare_version>  (310) 
48012

>  <i_f3d_flags>  (310) 
0

>  <s_epik_input>  (310) 
W09IXVtDSDJdW0NAQEhdMU9DKD1PKVtDQF0oW09IXSkoW0NIMl1bQ0gzXSljKGMxMilbY0hdYzNuKGMyPU8pW0NIMl1jNGMzbmM1YyhbY0hdNClbY0hdW2NIXVtjSF1bY0hdNQ==

>  <s_epik_cmdline>  (310) 
J2VwaWtfcHl0aG9uJywgJy1waHQnLCAnMi4wJywgJy1waCcsICc3LjAnLCAnLXRuJywgJzgnLCAnLW1hJywgJzIwMCcsICctaW1hZScsICc8aW5maWxlLm1hZT4nLCAnLW9tYWUnLCAnPG91dGZpbGUubWFlPic=

>  <r_lp_tautomer_probability>  (310) 
1

>  <r_epik_Ionization_Penalty>  (310) 
0.000142008

>  <r_epik_Ionization_Penalty_Charging>  (310) 
2.9068e-07

>  <r_epik_Ionization_Penalty_Neutral>  (310) 
0.000141717

>  <r_epik_State_Penalty>  (310) 
-0

>  <r_epik_Charging_Adjusted_Penalty>  (310) 
2.9068e-07

>  <i_epik_Tot_Q>  (310) 
0

>  <i_epik_Tot_abs_Q>  (310) 
0

>  <s_epik_Chemistry_Notes>  (310) 
This compound has an ester and may undergo hydrolysis at high or low pH.

>  <s_lp_Force_Field>  (310) 
OPLS3e

>  <r_lp_Energy>  (310) 
52.5655

>  <b_lp_Chiralities_Consistent>  (310) 
1

>  <s_lp_Variant>  (310) 
101:0-1

>  <s_i_glide_gridfile>  (310) 
pfpi4k_grid

>  <i_i_glide_lignum>  (310) 
27

>  <i_i_glide_rotatable_bonds>  (310) 
4

>  <r_i_docking_score>  (310) 
-3.68182

>  <r_i_glide_ligand_efficiency>  (310) 
-0.131494

>  <r_i_glide_ligand_efficiency_sa>  (310) 
-0.399292

>  <r_i_glide_ligand_efficiency_ln>  (310) 
-0.849872

>  <r_i_glide_gscore>  (310) 
-3.68182

>  <r_i_glide_lipo>  (310) 
-0.254152

>  <r_i_glide_hbond>  (310) 
-0.141088

>  <r_i_glide_metal>  (310) 
-0

>  <r_i_glide_rewards>  (310) 
-0.833344

>  <r_i_glide_evdw>  (310) 
-27.9271

>  <r_i_glide_ecoul>  (310) 
-7.71376

>  <r_i_glide_erotb>  (310) 
0.135353

>  <r_i_glide_esite>  (310) 
-0.0351702

>  <r_i_glide_emodel>  (310) 
-41.6794

>  <r_i_glide_energy>  (310) 
-35.6409

>  <r_i_glide_einternal>  (310) 
5.03777

>  <r_i_glide_intrahb_reward>  (310) 
-0

>  <i_i_glide_confnum>  (310) 
1

>  <i_i_glide_posenum>  (310) 
12

>  <r_i_glide_eff_state_penalty>  (310) 
0

>  <ligand_id>  (310) 
101

>  <original_smiles>  (310) 
CCC1(O)C(=O)OC(CO)c2c1cc1n(c2=O)Cc2cc3ccccc3nc2-1

>  <smiles>  (310) 
[H]OC([H])([H])C1([H])OC(=O)C(O[H])(C([H])([H])C([H])([H])[H])c2c([H])c3n(c(=O)c21)C([H])([H])c1c-3nc2c([H])c([H])c([H])c([H])c2c1[H]

$$$$
102:0:0
     RDKit          3D

 68 74  0  0  1  0  0  0  0  0999 V2000
    5.7450   -1.2755    0.9869 C   0  0  0  0  0  0  0  0  0  0  0  0
    5.1621   -1.6953    2.3502 C   0  0  2  0  0  0  0  0  0  0  0  0
    4.3035   -3.0222    2.2161 C   0  0  0  0  0  0  0  0  0  0  0  0
    2.7346   -2.8967    2.3720 C   0  0  0  0  0  0  0  0  0  0  0  0
    2.3951   -2.2445    3.7722 C   0  0  2  0  0  0  0  0  0  0  0  0
    1.1162   -1.3882    4.4120 C   0  0  1  0  0  0  0  0  0  0  0  0
    0.5941    0.1685    4.5592 C   0  0  0  0  0  0  0  0  0  0  0  0
    1.2244    1.6005    4.1925 C   0  0  2  0  0  0  0  0  0  0  0  0
    0.9113    1.9335    2.6945 C   0  0  0  0  0  0  0  0  0  0  0  0
    2.7487    2.0027    4.4748 C   0  0  1  0  0  0  0  0  0  0  0  0
    2.7230    3.2925    5.3261 C   0  0  0  0  0  0  0  0  0  0  0  0
    1.3750    3.9460    5.0593 C   0  0  0  0  0  0  0  0  0  0  0  0
    0.4397    2.7363    5.0048 C   0  0  0  0  0  0  0  0  0  0  0  0
   -0.7774    3.0956    4.4201 O   0  0  0  0  0  0  0  0  0  0  0  0
   -1.7055    3.2746    5.4752 C   0  0  0  0  0  0  0  0  0  0  0  0
   -1.2144    2.2508    6.4728 C   0  0  0  0  0  0  0  0  0  0  0  0
    0.1872    2.3923    6.3330 O   0  0  0  0  0  0  0  0  0  0  0  0
    3.8981    1.0441    4.9633 C   0  0  2  0  0  0  0  0  0  0  0  0
    4.8147    0.5171    3.8970 O   0  0  0  0  0  0  0  0  0  0  0  0
    4.3426   -0.5341    2.9841 C   0  0  2  0  0  0  0  0  0  0  0  0
    3.3049   -1.1619    3.8581 C   0  0  1  0  0  0  0  0  0  0  0  0
    2.2954   -0.4880    3.0359 O   0  0  0  0  0  0  0  0  0  0  0  0
    0.9802   -1.2607    3.1065 O   0  0  0  0  0  0  0  0  0  0  0  0
    3.7737   -1.3190    5.3638 C   0  0  1  0  0  0  0  0  0  0  0  0
    5.1922   -1.8799    5.5828 C   0  0  0  0  0  0  0  0  0  0  0  0
    3.5645   -0.0480    6.0633 C   0  0  2  0  0  0  0  0  0  0  0  0
    2.2486   -0.1548    6.9427 C   0  0  0  0  0  0  0  0  0  0  0  0
    1.2503   -1.4408    6.9512 C   0  0  0  0  0  0  0  0  0  0  0  0
    0.5774   -2.1072    5.6523 C   0  0  1  0  0  0  0  0  0  0  0  0
   -0.9567   -2.1799    5.7390 C   0  0  0  0  0  0  0  0  0  0  0  0
    4.9529   -1.0805    0.2615 H   0  0  0  0  0  0  0  0  0  0  0  0
    6.3882   -2.0526    0.5765 H   0  0  0  0  0  0  0  0  0  0  0  0
    6.3371   -0.3668    1.0834 H   0  0  0  0  0  0  0  0  0  0  0  0
    6.0162   -1.9148    2.9947 H   0  0  0  0  0  0  0  0  0  0  0  0
    4.5352   -3.5258    1.2787 H   0  0  0  0  0  0  0  0  0  0  0  0
    4.6456   -3.7025    2.9927 H   0  0  0  0  0  0  0  0  0  0  0  0
    2.3294   -2.3629    1.5077 H   0  0  0  0  0  0  0  0  0  0  0  0
    2.3116   -3.8993    2.3366 H   0  0  0  0  0  0  0  0  0  0  0  0
    2.6221   -3.1127    4.3869 H   0  0  0  0  0  0  0  0  0  0  0  0
   -0.3805    0.1754    4.0699 H   0  0  0  0  0  0  0  0  0  0  0  0
    0.2484    0.2561    5.5617 H   0  0  0  0  0  0  0  0  0  0  0  0
    1.0280    2.9955    2.4762 H   0  0  0  0  0  0  0  0  0  0  0  0
   -0.1170    1.6822    2.4274 H   0  0  0  0  0  0  0  0  0  0  0  0
    1.5555    1.4250    1.9786 H   0  0  0  0  0  0  0  0  0  0  0  0
    3.1372    2.3547    3.5149 H   0  0  0  0  0  0  0  0  0  0  0  0
    2.7970    3.0480    6.3866 H   0  0  0  0  0  0  0  0  0  0  0  0
    3.5552    3.9600    5.0907 H   0  0  0  0  0  0  0  0  0  0  0  0
    1.0783    4.6558    5.8351 H   0  0  0  0  0  0  0  0  0  0  0  0
    1.3886    4.4689    4.1029 H   0  0  0  0  0  0  0  0  0  0  0  0
   -1.6350    4.2792    5.8927 H   0  0  0  0  0  0  0  0  0  0  0  0
   -2.7311    3.0910    5.1533 H   0  0  0  0  0  0  0  0  0  0  0  0
   -1.5557    2.4168    7.4942 H   0  0  0  0  0  0  0  0  0  0  0  0
   -1.5480    1.2622    6.1597 H   0  0  0  0  0  0  0  0  0  0  0  0
    4.5928    1.7135    5.4737 H   0  0  0  0  0  0  0  0  0  0  0  0
    4.0061    0.0470    2.1106 H   0  0  0  0  0  0  0  0  0  0  0  0
    3.2705   -2.0868    5.9334 H   0  0  0  0  0  0  0  0  0  0  0  0
    5.9667   -1.1923    5.2504 H   0  0  0  0  0  0  0  0  0  0  0  0
    5.3255   -2.8378    5.0774 H   0  0  0  0  0  0  0  0  0  0  0  0
    5.3638   -2.0592    6.6440 H   0  0  0  0  0  0  0  0  0  0  0  0
    4.3599    0.0536    6.8035 H   0  0  0  0  0  0  0  0  0  0  0  0
    2.6078   -0.1239    7.9713 H   0  0  0  0  0  0  0  0  0  0  0  0
    1.7298    0.7878    6.9165 H   0  0  0  0  0  0  0  0  0  0  0  0
    1.7534   -2.2428    7.4895 H   0  0  0  0  0  0  0  0  0  0  0  0
    0.4407   -1.1739    7.6257 H   0  0  0  0  0  0  0  0  0  0  0  0
    0.8877   -3.1517    5.6159 H   0  0  0  0  0  0  0  0  0  0  0  0
   -1.4306   -1.2104    5.8637 H   0  0  0  0  0  0  0  0  0  0  0  0
   -1.2539   -2.8055    6.5769 H   0  0  0  0  0  0  0  0  0  0  0  0
   -1.3626   -2.6343    4.8424 H   0  0  0  0  0  0  0  0  0  0  0  0
  1  2  1  0
  1 31  1  0
  1 32  1  0
  1 33  1  0
  2 20  1  0
  2  3  1  0
  2 34  1  1
  3  4  1  0
  3 35  1  0
  3 36  1  0
  4  5  1  0
  4 37  1  0
  4 38  1  0
  5 21  1  0
  5  6  1  0
  5 39  1  1
  6 23  1  6
  6 29  1  0
  6  7  1  0
  7  8  1  0
  7 40  1  0
  7 41  1  0
  8 13  1  0
  8  9  1  6
  8 10  1  0
  9 42  1  0
  9 43  1  0
  9 44  1  0
 10 11  1  0
 10 18  1  0
 10 45  1  6
 11 12  1  0
 11 46  1  0
 11 47  1  0
 12 13  1  0
 12 48  1  0
 12 49  1  0
 13 17  1  0
 13 14  1  0
 14 15  1  0
 15 16  1  0
 15 50  1  0
 15 51  1  0
 16 17  1  0
 16 52  1  0
 16 53  1  0
 18 26  1  0
 18 19  1  0
 18 54  1  1
 19 20  1  0
 20 21  1  0
 20 55  1  6
 21 22  1  1
 21 24  1  0
 22 23  1  0
 24 25  1  0
 24 26  1  0
 24 56  1  1
 25 57  1  0
 25 58  1  0
 25 59  1  0
 26 27  1  0
 26 60  1  1
 27 28  1  0
 27 61  1  0
 27 62  1  0
 28 29  1  0
 28 63  1  0
 28 64  1  0
 29 30  1  0
 29 65  1  6
 30 66  1  0
 30 67  1  0
 30 68  1  0
M  END
>  <i_m_ct_stereo_status>  (311) 
1

>  <s_m_source_file>  (311) 
/var/tmp/pbs.5076255.sched01/tmp2gjrvvgn/102_qij5c5l.sdf

>  <i_m_source_file_index>  (311) 
28

>  <i_lp_mmshare_version>  (311) 
48012

>  <i_f3d_flags>  (311) 
0

>  <s_epik_input>  (311) 
W0NIMl0xW0NIMl1bQ0BASF0oW0NIM10pW0NAQEhdKFtDQF0yKFtDQEhdMVtDQEBdMzQ1KU9PNClPW0NASF0oW0NASF0oW0NAQEhdMltDSDNdKVtDSDJdW0NIMl1bQ0BIXTVbQ0gzXSlbQ0BIXTZbQ0BdKFtDSDJdMykoW0NIM10pQzcoW0NIMl1bQ0gyXTYpT1tDSDJdW0NIMl1PNw==

>  <s_epik_cmdline>  (311) 
J2VwaWtfcHl0aG9uJywgJy1waHQnLCAnMi4wJywgJy1waCcsICc3LjAnLCAnLXRuJywgJzgnLCAnLW1hJywgJzIwMCcsICctaW1hZScsICc8aW5maWxlLm1hZT4nLCAnLW9tYWUnLCAnPG91dGZpbGUubWFlPic=

>  <r_lp_tautomer_probability>  (311) 
1

>  <r_epik_Ionization_Penalty>  (311) 
3.75678e-12

>  <r_epik_Ionization_Penalty_Charging>  (311) 
0

>  <r_epik_Ionization_Penalty_Neutral>  (311) 
3.75678e-12

>  <r_epik_State_Penalty>  (311) 
-0

>  <r_epik_Charging_Adjusted_Penalty>  (311) 
0

>  <i_epik_Tot_Q>  (311) 
0

>  <i_epik_Tot_abs_Q>  (311) 
0

>  <s_lp_Force_Field>  (311) 
OPLS3e

>  <r_lp_Energy>  (311) 
329.711

>  <b_lp_Chiralities_Consistent>  (311) 
1

>  <s_lp_Variant>  (311) 
102:0-1

>  <s_i_glide_gridfile>  (311) 
pfpi4k_grid

>  <i_i_glide_lignum>  (311) 
28

>  <i_i_glide_rotatable_bonds>  (311) 
0

>  <r_i_docking_score>  (311) 
-1.75403

>  <r_i_glide_ligand_efficiency>  (311) 
-0.0584678

>  <r_i_glide_ligand_efficiency_sa>  (311) 
-0.181673

>  <r_i_glide_ligand_efficiency_ln>  (311) 
-0.398536

>  <r_i_glide_gscore>  (311) 
-1.75403

>  <r_i_glide_lipo>  (311) 
-0.320422

>  <r_i_glide_hbond>  (311) 
0

>  <r_i_glide_metal>  (311) 
-0

>  <r_i_glide_rewards>  (311) 
-0.55523

>  <r_i_glide_evdw>  (311) 
-22.7674

>  <r_i_glide_ecoul>  (311) 
1.79315

>  <r_i_glide_erotb>  (311) 
0

>  <r_i_glide_esite>  (311) 
-0.00898235

>  <r_i_glide_emodel>  (311) 
-22.5931

>  <r_i_glide_energy>  (311) 
-20.9743

>  <r_i_glide_einternal>  (311) 
0

>  <r_i_glide_intrahb_reward>  (311) 
-0

>  <i_i_glide_confnum>  (311) 
1

>  <i_i_glide_posenum>  (311) 
11

>  <r_i_glide_eff_state_penalty>  (311) 
0

>  <ligand_id>  (311) 
102

>  <original_smiles>  (311) 
CC1CCC2C34CC5(C)C(CCC56OCCO6)C5OC1C2(OO3)C(C)C5CCC4C

>  <smiles>  (311) 
[H]C([H])([H])C1([H])C([H])([H])C([H])([H])C2([H])C34OOC25C1([H])OC([H])(C([H])(C([H])([H])C([H])([H])C3([H])C([H])([H])[H])C5([H])C([H])([H])[H])C1([H])C([H])([H])C([H])([H])C2(OC([H])([H])C([H])([H])O2)C1(C([H])([H])[H])C4([H])[H]

$$$$
102:0:1
     RDKit          3D

 68 74  0  0  1  0  0  0  0  0999 V2000
    2.6850   -7.9365    3.3422 C   0  0  0  0  0  0  0  0  0  0  0  0
    3.6409   -6.7349    3.4272 C   0  0  2  0  0  0  0  0  0  0  0  0
    3.1665   -5.7098    4.5427 C   0  0  0  0  0  0  0  0  0  0  0  0
    2.5688   -4.3267    4.0704 C   0  0  0  0  0  0  0  0  0  0  0  0
    3.6190   -3.5941    3.1342 C   0  0  2  0  0  0  0  0  0  0  0  0
    3.5733   -2.4333    1.9217 C   0  0  1  0  0  0  0  0  0  0  0  0
    3.4693   -2.3066    0.2718 C   0  0  0  0  0  0  0  0  0  0  0  0
    3.3969   -3.3831   -0.9169 C   0  0  2  0  0  0  0  0  0  0  0  0
    1.9180   -3.8682   -1.1053 C   0  0  0  0  0  0  0  0  0  0  0  0
    4.3577   -4.6477   -0.9493 C   0  0  1  0  0  0  0  0  0  0  0  0
    5.0301   -4.5943   -2.3588 C   0  0  0  0  0  0  0  0  0  0  0  0
    4.1712   -3.7031   -3.2751 C   0  0  0  0  0  0  0  0  0  0  0  0
    3.7344   -2.6447   -2.3030 C   0  0  0  0  0  0  0  0  0  0  0  0
    2.6383   -1.9750   -2.8550 O   0  0  0  0  0  0  0  0  0  0  0  0
    3.1540   -0.7726   -3.3668 C   0  0  0  0  0  0  0  0  0  0  0  0
    4.2804   -0.5375   -2.3924 C   0  0  0  0  0  0  0  0  0  0  0  0
    4.8286   -1.8004   -2.2012 O   0  0  0  0  0  0  0  0  0  0  0  0
    5.3415   -5.1992    0.1470 C   0  0  2  0  0  0  0  0  0  0  0  0
    4.8037   -6.3198    0.9967 O   0  0  0  0  0  0  0  0  0  0  0  0
    3.7950   -6.0551    2.0335 C   0  0  2  0  0  0  0  0  0  0  0  0
    4.1043   -4.6162    2.2902 C   0  0  1  0  0  0  0  0  0  0  0  0
    2.8765   -4.2704    1.5383 O   0  0  0  0  0  0  0  0  0  0  0  0
    2.3433   -2.9056    1.9538 O   0  0  0  0  0  0  0  0  0  0  0  0
    5.6769   -4.3491    2.3419 C   0  0  1  0  0  0  0  0  0  0  0  0
    6.5292   -5.3779    3.1362 C   0  0  0  0  0  0  0  0  0  0  0  0
    6.1914   -4.1590    0.9696 C   0  0  2  0  0  0  0  0  0  0  0  0
    6.3479   -2.6144    0.6329 C   0  0  0  0  0  0  0  0  0  0  0  0
    5.9097   -1.4117    1.6405 C   0  0  0  0  0  0  0  0  0  0  0  0
    4.4560   -1.2389    2.3195 C   0  0  1  0  0  0  0  0  0  0  0  0
    3.8181    0.1449    2.0473 C   0  0  0  0  0  0  0  0  0  0  0  0
    1.6748   -7.6216    3.0731 H   0  0  0  0  0  0  0  0  0  0  0  0
    2.6206   -8.4735    4.2871 H   0  0  0  0  0  0  0  0  0  0  0  0
    3.0195   -8.6472    2.5877 H   0  0  0  0  0  0  0  0  0  0  0  0
    4.6019   -7.1380    3.7490 H   0  0  0  0  0  0  0  0  0  0  0  0
    2.4717   -6.1849    5.2321 H   0  0  0  0  0  0  0  0  0  0  0  0
    4.0273   -5.4809    5.1675 H   0  0  0  0  0  0  0  0  0  0  0  0
    1.5981   -4.4818    3.6131 H   0  0  0  0  0  0  0  0  0  0  0  0
    2.3862   -3.6865    4.9408 H   0  0  0  0  0  0  0  0  0  0  0  0
    4.3015   -3.2709    3.9137 H   0  0  0  0  0  0  0  0  0  0  0  0
    2.6098   -1.6493    0.1032 H   0  0  0  0  0  0  0  0  0  0  0  0
    4.2130   -1.6111   -0.0373 H   0  0  0  0  0  0  0  0  0  0  0  0
    1.7441   -4.3117   -2.0813 H   0  0  0  0  0  0  0  0  0  0  0  0
    1.1988   -3.0827   -1.0548 H   0  0  0  0  0  0  0  0  0  0  0  0
    1.6065   -4.6331   -0.3865 H   0  0  0  0  0  0  0  0  0  0  0  0
    3.6965   -5.4986   -0.9250 H   0  0  0  0  0  0  0  0  0  0  0  0
    6.0155   -4.2130   -2.3193 H   0  0  0  0  0  0  0  0  0  0  0  0
    5.0080   -5.5894   -2.7642 H   0  0  0  0  0  0  0  0  0  0  0  0
    4.7420   -3.3136   -4.1171 H   0  0  0  0  0  0  0  0  0  0  0  0
    3.2863   -4.1993   -3.6627 H   0  0  0  0  0  0  0  0  0  0  0  0
    3.5475   -0.8921   -4.3788 H   0  0  0  0  0  0  0  0  0  0  0  0
    2.4132    0.0274   -3.3467 H   0  0  0  0  0  0  0  0  0  0  0  0
    4.9898    0.1994   -2.7379 H   0  0  0  0  0  0  0  0  0  0  0  0
    3.8894   -0.2616   -1.4164 H   0  0  0  0  0  0  0  0  0  0  0  0
    6.0831   -5.7634   -0.4139 H   0  0  0  0  0  0  0  0  0  0  0  0
    2.8686   -6.3088    1.5011 H   0  0  0  0  0  0  0  0  0  0  0  0
    5.9591   -3.4540    2.8780 H   0  0  0  0  0  0  0  0  0  0  0  0
    6.4759   -6.3892    2.7240 H   0  0  0  0  0  0  0  0  0  0  0  0
    6.1849   -5.4070    4.1662 H   0  0  0  0  0  0  0  0  0  0  0  0
    7.5625   -5.0670    3.1814 H   0  0  0  0  0  0  0  0  0  0  0  0
    7.2101   -4.5557    0.9358 H   0  0  0  0  0  0  0  0  0  0  0  0
    7.4280   -2.4809    0.5289 H   0  0  0  0  0  0  0  0  0  0  0  0
    6.0512   -2.4411   -0.3956 H   0  0  0  0  0  0  0  0  0  0  0  0
    6.6250   -1.3985    2.4594 H   0  0  0  0  0  0  0  0  0  0  0  0
    6.1396   -0.4911    1.0983 H   0  0  0  0  0  0  0  0  0  0  0  0
    4.6154   -1.2465    3.3996 H   0  0  0  0  0  0  0  0  0  0  0  0
    3.7099    0.3667    0.9834 H   0  0  0  0  0  0  0  0  0  0  0  0
    4.4344    0.9152    2.4984 H   0  0  0  0  0  0  0  0  0  0  0  0
    2.8377    0.2111    2.5211 H   0  0  0  0  0  0  0  0  0  0  0  0
  1  2  1  0
  1 31  1  0
  1 32  1  0
  1 33  1  0
  2 20  1  0
  2  3  1  0
  2 34  1  1
  3  4  1  0
  3 35  1  0
  3 36  1  0
  4  5  1  0
  4 37  1  0
  4 38  1  0
  5 21  1  0
  5  6  1  0
  5 39  1  1
  6 23  1  1
  6 29  1  0
  6  7  1  0
  7  8  1  0
  7 40  1  0
  7 41  1  0
  8 13  1  0
  8  9  1  6
  8 10  1  0
  9 42  1  0
  9 43  1  0
  9 44  1  0
 10 11  1  0
 10 18  1  0
 10 45  1  6
 11 12  1  0
 11 46  1  0
 11 47  1  0
 12 13  1  0
 12 48  1  0
 12 49  1  0
 13 17  1  0
 13 14  1  0
 14 15  1  0
 15 16  1  0
 15 50  1  0
 15 51  1  0
 16 17  1  0
 16 52  1  0
 16 53  1  0
 18 26  1  0
 18 19  1  0
 18 54  1  6
 19 20  1  0
 20 21  1  0
 20 55  1  6
 21 22  1  6
 21 24  1  0
 22 23  1  0
 24 25  1  0
 24 26  1  0
 24 56  1  1
 25 57  1  0
 25 58  1  0
 25 59  1  0
 26 27  1  0
 26 60  1  1
 27 28  1  0
 27 61  1  0
 27 62  1  0
 28 29  1  0
 28 63  1  0
 28 64  1  0
 29 30  1  0
 29 65  1  1
 30 66  1  0
 30 67  1  0
 30 68  1  0
M  END
>  <i_m_ct_stereo_status>  (312) 
1

>  <s_m_source_file>  (312) 
/var/tmp/pbs.5076255.sched01/tmp2gjrvvgn/102_qij5c5l.sdf

>  <i_m_source_file_index>  (312) 
28

>  <i_lp_mmshare_version>  (312) 
48012

>  <i_f3d_flags>  (312) 
0

>  <s_epik_input>  (312) 
W0NIMl0xW0NIMl1bQ0BASF0oW0NIM10pW0NAQEhdKFtDQF0yKFtDQEhdMVtDQEBdMzQ1KU9PNClPW0NASF0oW0NASF0oW0NAQEhdMltDSDNdKVtDSDJdW0NIMl1bQ0BIXTVbQ0gzXSlbQ0BIXTZbQ0BdKFtDSDJdMykoW0NIM10pQzcoW0NIMl1bQ0gyXTYpT1tDSDJdW0NIMl1PNw==

>  <s_epik_cmdline>  (312) 
J2VwaWtfcHl0aG9uJywgJy1waHQnLCAnMi4wJywgJy1waCcsICc3LjAnLCAnLXRuJywgJzgnLCAnLW1hJywgJzIwMCcsICctaW1hZScsICc8aW5maWxlLm1hZT4nLCAnLW9tYWUnLCAnPG91dGZpbGUubWFlPic=

>  <r_lp_tautomer_probability>  (312) 
1

>  <r_epik_Ionization_Penalty>  (312) 
3.75678e-12

>  <r_epik_Ionization_Penalty_Charging>  (312) 
0

>  <r_epik_Ionization_Penalty_Neutral>  (312) 
3.75678e-12

>  <r_epik_State_Penalty>  (312) 
-0

>  <r_epik_Charging_Adjusted_Penalty>  (312) 
0

>  <i_epik_Tot_Q>  (312) 
0

>  <i_epik_Tot_abs_Q>  (312) 
0

>  <s_lp_Force_Field>  (312) 
OPLS3e

>  <r_lp_Energy>  (312) 
329.711

>  <b_lp_Chiralities_Consistent>  (312) 
1

>  <s_lp_Variant>  (312) 
102:0-1

>  <s_i_glide_gridfile>  (312) 
pfpi4k_grid

>  <i_i_glide_lignum>  (312) 
28

>  <i_i_glide_rotatable_bonds>  (312) 
0

>  <r_i_docking_score>  (312) 
-1.4473

>  <r_i_glide_ligand_efficiency>  (312) 
-0.0482432

>  <r_i_glide_ligand_efficiency_sa>  (312) 
-0.149903

>  <r_i_glide_ligand_efficiency_ln>  (312) 
-0.328842

>  <r_i_glide_gscore>  (312) 
-1.4473

>  <r_i_glide_lipo>  (312) 
-0.788418

>  <r_i_glide_hbond>  (312) 
0

>  <r_i_glide_metal>  (312) 
-0

>  <r_i_glide_rewards>  (312) 
-0.55523

>  <r_i_glide_evdw>  (312) 
-2.62649

>  <r_i_glide_ecoul>  (312) 
0.27843

>  <r_i_glide_erotb>  (312) 
0

>  <r_i_glide_esite>  (312) 
-0.0140897

>  <r_i_glide_emodel>  (312) 
-2.16343

>  <r_i_glide_energy>  (312) 
-2.34806

>  <r_i_glide_einternal>  (312) 
0

>  <r_i_glide_intrahb_reward>  (312) 
-0

>  <i_i_glide_confnum>  (312) 
3

>  <i_i_glide_posenum>  (312) 
33

>  <r_i_glide_eff_state_penalty>  (312) 
0

>  <ligand_id>  (312) 
102

>  <original_smiles>  (312) 
CC1CCC2C34CC5(C)C(CCC56OCCO6)C5OC1C2(OO3)C(C)C5CCC4C

>  <smiles>  (312) 
[H]C([H])([H])C1([H])C([H])([H])C([H])([H])C2([H])C34OOC25C1([H])OC([H])(C([H])(C([H])([H])C([H])([H])C3([H])C([H])([H])[H])C5([H])C([H])([H])[H])C1([H])C([H])([H])C([H])([H])C2(OC([H])([H])C([H])([H])O2)C1(C([H])([H])[H])C4([H])[H]

$$$$
102:0:2
     RDKit          3D

 68 74  0  0  1  0  0  0  0  0999 V2000
    1.8502   -8.1315    3.5858 C   0  0  0  0  0  0  0  0  0  0  0  0
    2.7907   -6.9450    3.8766 C   0  0  2  0  0  0  0  0  0  0  0  0
    2.1401   -5.9478    4.9222 C   0  0  0  0  0  0  0  0  0  0  0  0
    1.6636   -4.5451    4.3911 C   0  0  0  0  0  0  0  0  0  0  0  0
    2.8778   -3.7943    3.7282 C   0  0  2  0  0  0  0  0  0  0  0  0
    3.0453   -2.5944    2.5746 C   0  0  1  0  0  0  0  0  0  0  0  0
    3.1715   -2.4247    0.9390 C   0  0  0  0  0  0  0  0  0  0  0  0
    3.3206   -3.4563   -0.2863 C   0  0  2  0  0  0  0  0  0  0  0  0
    1.9219   -3.9309   -0.7758 C   0  0  0  0  0  0  0  0  0  0  0  0
    4.2375   -4.7239   -0.2232 C   0  0  1  0  0  0  0  0  0  0  0  0
    5.1526   -4.5977   -1.4282 C   0  0  0  0  0  0  0  0  0  0  0  0
    4.5261   -3.7147   -2.4709 C   0  0  0  0  0  0  0  0  0  0  0  0
    3.9062   -2.6984   -1.5713 C   0  0  0  0  0  0  0  0  0  0  0  0
    2.9582   -1.9891   -2.2971 O   0  0  0  0  0  0  0  0  0  0  0  0
    3.5721   -0.7888   -2.6864 C   0  0  0  0  0  0  0  0  0  0  0  0
    4.5393   -0.6173   -1.5368 C   0  0  0  0  0  0  0  0  0  0  0  0
    4.9870   -1.8931   -1.2774 O   0  0  0  0  0  0  0  0  0  0  0  0
    5.0138   -5.3362    0.9905 C   0  0  2  0  0  0  0  0  0  0  0  0
    4.3445   -6.4780    1.6967 O   0  0  0  0  0  0  0  0  0  0  0  0
    3.1836   -6.2171    2.5623 C   0  0  2  0  0  0  0  0  0  0  0  0
    3.4768   -4.7918    2.9253 C   0  0  1  0  0  0  0  0  0  0  0  0
    2.4159   -4.4064    1.9882 O   0  0  0  0  0  0  0  0  0  0  0  0
    1.8284   -3.0649    2.3904 O   0  0  0  0  0  0  0  0  0  0  0  0
    5.0047   -4.5385    3.2433 C   0  0  1  0  0  0  0  0  0  0  0  0
    5.6876   -5.5694    4.1659 C   0  0  0  0  0  0  0  0  0  0  0  0
    5.7265   -4.3365    1.9801 C   0  0  2  0  0  0  0  0  0  0  0  0
    5.9430   -2.7885    1.7407 C   0  0  0  0  0  0  0  0  0  0  0  0
    5.3787   -1.6132    2.7162 C   0  0  0  0  0  0  0  0  0  0  0  0
    3.8481   -1.4238    3.1599 C   0  0  1  0  0  0  0  0  0  0  0  0
    3.2996   -0.0254    2.8271 C   0  0  0  0  0  0  0  0  0  0  0  0
    0.9036   -7.7955    3.1620 H   0  0  0  0  0  0  0  0  0  0  0  0
    1.6279   -8.6938    4.4902 H   0  0  0  0  0  0  0  0  0  0  0  0
    2.3085   -8.8185    2.8739 H   0  0  0  0  0  0  0  0  0  0  0  0
    3.6863   -7.3664    4.3357 H   0  0  0  0  0  0  0  0  0  0  0  0
    1.3122   -6.4283    5.4309 H   0  0  0  0  0  0  0  0  0  0  0  0
    2.8840   -5.7590    5.6981 H   0  0  0  0  0  0  0  0  0  0  0  0
    0.7897   -4.6641    3.7391 H   0  0  0  0  0  0  0  0  0  0  0  0
    1.3292   -3.9560    5.2398 H   0  0  0  0  0  0  0  0  0  0  0  0
    3.4167   -3.5310    4.6393 H   0  0  0  0  0  0  0  0  0  0  0  0
    2.3353   -1.7787    0.6692 H   0  0  0  0  0  0  0  0  0  0  0  0
    3.9634   -1.7294    0.7912 H   0  0  0  0  0  0  0  0  0  0  0  0
    1.9277   -4.3024   -1.8026 H   0  0  0  0  0  0  0  0  0  0  0  0
    1.2298   -3.1215   -0.8100 H   0  0  0  0  0  0  0  0  0  0  0  0
    1.5090   -4.7349   -0.1618 H   0  0  0  0  0  0  0  0  0  0  0  0
    3.5989   -5.5633   -0.4875 H   0  0  0  0  0  0  0  0  0  0  0  0
    6.1271   -4.1869   -1.1356 H   0  0  0  0  0  0  0  0  0  0  0  0
    5.2197   -5.5677   -1.8489 H   0  0  0  0  0  0  0  0  0  0  0  0
    5.2281   -3.2578   -3.1635 H   0  0  0  0  0  0  0  0  0  0  0  0
    3.7657   -4.2554   -3.0444 H   0  0  0  0  0  0  0  0  0  0  0  0
    4.1142   -0.8716   -3.6411 H   0  0  0  0  0  0  0  0  0  0  0  0
    2.8411    0.0177   -2.7528 H   0  0  0  0  0  0  0  0  0  0  0  0
    5.3408    0.0724   -1.7813 H   0  0  0  0  0  0  0  0  0  0  0  0
    4.0108   -0.2619   -0.6627 H   0  0  0  0  0  0  0  0  0  0  0  0
    5.8470   -5.8751    0.5301 H   0  0  0  0  0  0  0  0  0  0  0  0
    2.3363   -6.4163    1.8891 H   0  0  0  0  0  0  0  0  0  0  0  0
    5.2172   -3.6746    3.8576 H   0  0  0  0  0  0  0  0  0  0  0  0
    5.7801   -6.5572    3.7152 H   0  0  0  0  0  0  0  0  0  0  0  0
    5.1550   -5.6633    5.1120 H   0  0  0  0  0  0  0  0  0  0  0  0
    6.6936   -5.2322    4.4078 H   0  0  0  0  0  0  0  0  0  0  0  0
    6.7348   -4.7325    2.1153 H   0  0  0  0  0  0  0  0  0  0  0  0
    7.0098   -2.6670    1.8028 H   0  0  0  0  0  0  0  0  0  0  0  0
    5.8384   -2.5704    0.6928 H   0  0  0  0  0  0  0  0  0  0  0  0
    5.9284   -1.6509    3.6487 H   0  0  0  0  0  0  0  0  0  0  0  0
    5.7133   -0.6774    2.2761 H   0  0  0  0  0  0  0  0  0  0  0  0
    3.8150   -1.4726    4.2506 H   0  0  0  0  0  0  0  0  0  0  0  0
    3.3664    0.2251    1.7701 H   0  0  0  0  0  0  0  0  0  0  0  0
    3.8597    0.7340    3.3711 H   0  0  0  0  0  0  0  0  0  0  0  0
    2.2567    0.0589    3.1294 H   0  0  0  0  0  0  0  0  0  0  0  0
  1  2  1  0
  1 31  1  0
  1 32  1  0
  1 33  1  0
  2 20  1  0
  2  3  1  0
  2 34  1  1
  3  4  1  0
  3 35  1  0
  3 36  1  0
  4  5  1  0
  4 37  1  0
  4 38  1  0
  5 21  1  0
  5  6  1  0
  5 39  1  1
  6 23  1  6
  6 29  1  0
  6  7  1  0
  7  8  1  0
  7 40  1  0
  7 41  1  0
  8 13  1  0
  8  9  1  6
  8 10  1  0
  9 42  1  0
  9 43  1  0
  9 44  1  0
 10 11  1  0
 10 18  1  0
 10 45  1  6
 11 12  1  0
 11 46  1  0
 11 47  1  0
 12 13  1  0
 12 48  1  0
 12 49  1  0
 13 17  1  0
 13 14  1  0
 14 15  1  0
 15 16  1  0
 15 50  1  0
 15 51  1  0
 16 17  1  0
 16 52  1  0
 16 53  1  0
 18 26  1  0
 18 19  1  0
 18 54  1  6
 19 20  1  0
 20 21  1  0
 20 55  1  6
 21 22  1  6
 21 24  1  0
 22 23  1  0
 24 25  1  0
 24 26  1  0
 24 56  1  1
 25 57  1  0
 25 58  1  0
 25 59  1  0
 26 27  1  0
 26 60  1  1
 27 28  1  0
 27 61  1  0
 27 62  1  0
 28 29  1  0
 28 63  1  0
 28 64  1  0
 29 30  1  0
 29 65  1  1
 30 66  1  0
 30 67  1  0
 30 68  1  0
M  END
>  <i_m_ct_stereo_status>  (313) 
1

>  <s_m_source_file>  (313) 
/var/tmp/pbs.5076255.sched01/tmp2gjrvvgn/102_qij5c5l.sdf

>  <i_m_source_file_index>  (313) 
28

>  <i_lp_mmshare_version>  (313) 
48012

>  <i_f3d_flags>  (313) 
0

>  <s_epik_input>  (313) 
W0NIMl0xW0NIMl1bQ0BASF0oW0NIM10pW0NAQEhdKFtDQF0yKFtDQEhdMVtDQEBdMzQ1KU9PNClPW0NASF0oW0NASF0oW0NAQEhdMltDSDNdKVtDSDJdW0NIMl1bQ0BIXTVbQ0gzXSlbQ0BIXTZbQ0BdKFtDSDJdMykoW0NIM10pQzcoW0NIMl1bQ0gyXTYpT1tDSDJdW0NIMl1PNw==

>  <s_epik_cmdline>  (313) 
J2VwaWtfcHl0aG9uJywgJy1waHQnLCAnMi4wJywgJy1waCcsICc3LjAnLCAnLXRuJywgJzgnLCAnLW1hJywgJzIwMCcsICctaW1hZScsICc8aW5maWxlLm1hZT4nLCAnLW9tYWUnLCAnPG91dGZpbGUubWFlPic=

>  <r_lp_tautomer_probability>  (313) 
1

>  <r_epik_Ionization_Penalty>  (313) 
3.75678e-12

>  <r_epik_Ionization_Penalty_Charging>  (313) 
0

>  <r_epik_Ionization_Penalty_Neutral>  (313) 
3.75678e-12

>  <r_epik_State_Penalty>  (313) 
-0

>  <r_epik_Charging_Adjusted_Penalty>  (313) 
0

>  <i_epik_Tot_Q>  (313) 
0

>  <i_epik_Tot_abs_Q>  (313) 
0

>  <s_lp_Force_Field>  (313) 
OPLS3e

>  <r_lp_Energy>  (313) 
329.711

>  <b_lp_Chiralities_Consistent>  (313) 
1

>  <s_lp_Variant>  (313) 
102:0-1

>  <s_i_glide_gridfile>  (313) 
pfpi4k_grid

>  <i_i_glide_lignum>  (313) 
28

>  <i_i_glide_rotatable_bonds>  (313) 
0

>  <r_i_docking_score>  (313) 
-1.30645

>  <r_i_glide_ligand_efficiency>  (313) 
-0.0435484

>  <r_i_glide_ligand_efficiency_sa>  (313) 
-0.135315

>  <r_i_glide_ligand_efficiency_ln>  (313) 
-0.29684

>  <r_i_glide_gscore>  (313) 
-1.30645

>  <r_i_glide_lipo>  (313) 
-0.304786

>  <r_i_glide_hbond>  (313) 
0

>  <r_i_glide_metal>  (313) 
-0

>  <r_i_glide_rewards>  (313) 
-0.55523

>  <r_i_glide_evdw>  (313) 
-10.7301

>  <r_i_glide_ecoul>  (313) 
0.763116

>  <r_i_glide_erotb>  (313) 
0

>  <r_i_glide_esite>  (313) 
-0.0243986

>  <r_i_glide_emodel>  (313) 
-10.2364

>  <r_i_glide_energy>  (313) 
-9.96699

>  <r_i_glide_einternal>  (313) 
0

>  <r_i_glide_intrahb_reward>  (313) 
-0

>  <i_i_glide_confnum>  (313) 
1

>  <i_i_glide_posenum>  (313) 
15

>  <r_i_glide_eff_state_penalty>  (313) 
0

>  <ligand_id>  (313) 
102

>  <original_smiles>  (313) 
CC1CCC2C34CC5(C)C(CCC56OCCO6)C5OC1C2(OO3)C(C)C5CCC4C

>  <smiles>  (313) 
[H]C([H])([H])C1([H])C([H])([H])C([H])([H])C2([H])C34OOC25C1([H])OC([H])(C([H])(C([H])([H])C([H])([H])C3([H])C([H])([H])[H])C5([H])C([H])([H])[H])C1([H])C([H])([H])C([H])([H])C2(OC([H])([H])C([H])([H])O2)C1(C([H])([H])[H])C4([H])[H]

$$$$
103:0:0
     RDKit          3D

 67 72  0  0  1  0  0  0  0  0999 V2000
    3.2339   -8.9691    5.8507 C   0  0  0  0  0  0  0  0  0  0  0  0
    3.0322   -7.9863    4.6803 C   0  0  1  0  0  0  0  0  0  0  0  0
    3.4306   -6.5456    5.1136 C   0  0  0  0  0  0  0  0  0  0  0  0
    2.3996   -5.4259    4.8283 C   0  0  0  0  0  0  0  0  0  0  0  0
    1.7744   -5.2805    3.4104 C   0  0  1  0  0  0  0  0  0  0  0  0
    2.3152   -4.1405    2.7329 O   0  0  0  0  0  0  0  0  0  0  0  0
    3.5825   -4.3400    2.1195 C   0  0  1  0  0  0  0  0  0  0  0  0
    3.4160   -5.4398    1.0224 C   0  0  1  0  0  0  0  0  0  0  0  0
    4.6561   -5.5003    0.0899 C   0  0  0  0  0  0  0  0  0  0  0  0
    4.9332   -4.1554   -0.6345 C   0  0  0  0  0  0  0  0  0  0  0  0
    4.1929   -2.9824    0.0417 C   0  0  2  0  0  0  0  0  0  0  0  0
    4.5631   -1.5463   -0.3559 C   0  0  0  0  0  0  0  0  0  0  0  0
    4.1819   -0.6827    0.8665 C   0  0  0  0  0  0  0  0  0  0  0  0
    3.5903   -1.6485    1.9201 C   0  0  1  0  0  0  0  0  0  0  0  0
    3.7467   -1.1579    3.3703 C   0  0  0  0  0  0  0  0  0  0  0  0
    2.2006   -1.6829    1.6842 O   0  0  0  0  0  0  0  0  0  0  0  0
    4.2500   -3.0224    1.5809 C   0  0  1  0  0  0  0  0  0  0  0  0
    5.7301   -3.0121    2.0667 C   0  0  0  0  0  0  0  0  0  0  0  0
    3.0014   -6.7844    1.6679 C   0  0  1  0  0  0  0  0  0  0  0  0
    4.1851   -7.4818    2.3721 C   0  0  0  0  0  0  0  0  0  0  0  0
    3.8621   -8.5080    3.4740 C   0  0  0  0  0  0  0  0  0  0  0  0
    1.7140   -6.5531    2.5019 C   0  0  2  0  0  0  0  0  0  0  0  0
    0.6791   -6.3669    1.5539 O   0  0  0  0  0  0  0  0  0  0  0  0
   -0.6272   -6.6556    2.2386 O   0  0  0  0  0  0  0  0  0  0  0  0
   -0.3989   -7.6994    3.1592 C   0  0  0  0  0  0  0  0  0  0  0  0
   -1.0110   -7.2259    4.4897 C   0  0  0  0  0  0  0  0  0  0  0  0
   -1.1263   -8.9592    2.6753 C   0  0  0  0  0  0  0  0  0  0  0  0
    1.1361   -7.8198    3.1622 C   0  0  2  0  0  0  0  0  0  0  0  0
    1.6218   -8.0382    4.4787 O   0  0  0  0  0  0  0  0  0  0  0  0
    4.2729   -8.9906    6.1829 H   0  0  0  0  0  0  0  0  0  0  0  0
    2.9584   -9.9836    5.5580 H   0  0  0  0  0  0  0  0  0  0  0  0
    2.6151   -8.6991    6.7075 H   0  0  0  0  0  0  0  0  0  0  0  0
    3.5559   -6.5446    6.1962 H   0  0  0  0  0  0  0  0  0  0  0  0
    4.4223   -6.2749    4.7568 H   0  0  0  0  0  0  0  0  0  0  0  0
    1.5789   -5.5623    5.5368 H   0  0  0  0  0  0  0  0  0  0  0  0
    2.8518   -4.4702    5.0992 H   0  0  0  0  0  0  0  0  0  0  0  0
    0.7440   -4.9661    3.5871 H   0  0  0  0  0  0  0  0  0  0  0  0
    4.2347   -4.7115    2.9063 H   0  0  0  0  0  0  0  0  0  0  0  0
    2.5783   -5.1515    0.3829 H   0  0  0  0  0  0  0  0  0  0  0  0
    5.5410   -5.7721    0.6662 H   0  0  0  0  0  0  0  0  0  0  0  0
    4.5430   -6.2866   -0.6545 H   0  0  0  0  0  0  0  0  0  0  0  0
    6.0065   -3.9665   -0.6854 H   0  0  0  0  0  0  0  0  0  0  0  0
    4.5906   -4.2326   -1.6667 H   0  0  0  0  0  0  0  0  0  0  0  0
    3.1467   -3.0843   -0.2531 H   0  0  0  0  0  0  0  0  0  0  0  0
    5.6315   -1.4593   -0.5575 H   0  0  0  0  0  0  0  0  0  0  0  0
    4.0194   -1.2372   -1.2520 H   0  0  0  0  0  0  0  0  0  0  0  0
    5.0850   -0.2080    1.2542 H   0  0  0  0  0  0  0  0  0  0  0  0
    3.4906    0.1200    0.6087 H   0  0  0  0  0  0  0  0  0  0  0  0
    4.7825   -0.9581    3.6407 H   0  0  0  0  0  0  0  0  0  0  0  0
    3.3522   -1.8868    4.0768 H   0  0  0  0  0  0  0  0  0  0  0  0
    3.1975   -0.2279    3.5187 H   0  0  0  0  0  0  0  0  0  0  0  0
    1.8407   -2.3437    2.2615 H   0  0  0  0  0  0  0  0  0  0  0  0
    6.2908   -2.1514    1.7057 H   0  0  0  0  0  0  0  0  0  0  0  0
    6.2800   -3.8977    1.7521 H   0  0  0  0  0  0  0  0  0  0  0  0
    5.7829   -2.9927    3.1547 H   0  0  0  0  0  0  0  0  0  0  0  0
    2.7088   -7.4728    0.8778 H   0  0  0  0  0  0  0  0  0  0  0  0
    4.7487   -8.0064    1.6035 H   0  0  0  0  0  0  0  0  0  0  0  0
    4.8988   -6.7574    2.7582 H   0  0  0  0  0  0  0  0  0  0  0  0
    4.8303   -8.8329    3.8552 H   0  0  0  0  0  0  0  0  0  0  0  0
    3.4144   -9.4121    3.0551 H   0  0  0  0  0  0  0  0  0  0  0  0
   -0.8875   -7.9866    5.2665 H   0  0  0  0  0  0  0  0  0  0  0  0
   -2.0807   -7.0411    4.3766 H   0  0  0  0  0  0  0  0  0  0  0  0
   -0.5588   -6.3018    4.8498 H   0  0  0  0  0  0  0  0  0  0  0  0
   -0.9586   -9.8020    3.3458 H   0  0  0  0  0  0  0  0  0  0  0  0
   -0.7876   -9.2555    1.6848 H   0  0  0  0  0  0  0  0  0  0  0  0
   -2.2007   -8.7982    2.6125 H   0  0  0  0  0  0  0  0  0  0  0  0
    1.3848   -8.6783    2.5384 H   0  0  0  0  0  0  0  0  0  0  0  0
  2  1  1  1
  1 30  1  0
  1 31  1  0
  1 32  1  0
  2 21  1  0
  2 29  1  0
  2  3  1  0
  3  4  1  0
  3 33  1  0
  3 34  1  0
  4  5  1  0
  4 35  1  0
  4 36  1  0
  5 22  1  0
  5  6  1  0
  5 37  1  1
  6  7  1  0
  7 17  1  0
  7  8  1  0
  7 38  1  1
  8  9  1  0
  8 19  1  0
  8 39  1  6
  9 10  1  0
  9 40  1  0
  9 41  1  0
 10 11  1  0
 10 42  1  0
 10 43  1  0
 11 17  1  0
 11 12  1  0
 11 44  1  1
 12 13  1  0
 12 45  1  0
 12 46  1  0
 13 14  1  0
 13 47  1  0
 13 48  1  0
 14 15  1  0
 14 16  1  6
 14 17  1  0
 15 49  1  0
 15 50  1  0
 15 51  1  0
 16 52  1  0
 17 18  1  6
 18 53  1  0
 18 54  1  0
 18 55  1  0
 19 20  1  0
 19 22  1  0
 19 56  1  6
 20 21  1  0
 20 57  1  0
 20 58  1  0
 21 59  1  0
 21 60  1  0
 22 28  1  0
 22 23  1  6
 23 24  1  0
 24 25  1  0
 25 26  1  0
 25 27  1  0
 25 28  1  0
 26 61  1  0
 26 62  1  0
 26 63  1  0
 27 64  1  0
 27 65  1  0
 27 66  1  0
 28 29  1  0
 28 67  1  6
M  END
>  <i_m_ct_stereo_status>  (314) 
1

>  <s_m_source_file>  (314) 
/var/tmp/pbs.5076255.sched01/tmp2gjrvvgn/102_qij5c5l.sdf

>  <i_m_source_file_index>  (314) 
29

>  <i_lp_mmshare_version>  (314) 
48012

>  <i_f3d_flags>  (314) 
0

>  <s_epik_input>  (314) 
TzFPQyhbQ0gzXSkoW0NIM10pW0NAQEhdMk9bQ0BdKFtDSDNdKShbQ0gyXVtDSDJdW0NAQEhdM1tDQF0xMjQpW0NIMl1bQ0gyXVtDQEBIXTRbQ0BIXTVbQ0BIXShPMylbQ0BAXTYoW0NIM10pW0NASF0oW0NIMl1bQ0gyXTUpW0NIMl1bQ0gyXVtDQEBdNihbQ0gzXSlbT0hd

>  <s_epik_cmdline>  (314) 
J2VwaWtfcHl0aG9uJywgJy1waHQnLCAnMi4wJywgJy1waCcsICc3LjAnLCAnLXRuJywgJzgnLCAnLW1hJywgJzIwMCcsICctaW1hZScsICc8aW5maWxlLm1hZT4nLCAnLW9tYWUnLCAnPG91dGZpbGUubWFlPic=

>  <r_lp_tautomer_probability>  (314) 
1

>  <r_epik_Ionization_Penalty>  (314) 
7.77327e-07

>  <r_epik_Ionization_Penalty_Charging>  (314) 
0

>  <r_epik_Ionization_Penalty_Neutral>  (314) 
7.77327e-07

>  <r_epik_State_Penalty>  (314) 
-0

>  <r_epik_Charging_Adjusted_Penalty>  (314) 
0

>  <i_epik_Tot_Q>  (314) 
0

>  <i_epik_Tot_abs_Q>  (314) 
0

>  <s_lp_Force_Field>  (314) 
OPLS3e

>  <r_lp_Energy>  (314) 
68.9618

>  <b_lp_Chiralities_Consistent>  (314) 
1

>  <s_lp_Variant>  (314) 
103:0-1

>  <s_i_glide_gridfile>  (314) 
pfpi4k_grid

>  <i_i_glide_lignum>  (314) 
29

>  <i_i_glide_rotatable_bonds>  (314) 
1

>  <r_i_docking_score>  (314) 
-3.38106

>  <r_i_glide_ligand_efficiency>  (314) 
-0.116588

>  <r_i_glide_ligand_efficiency_sa>  (314) 
-0.358196

>  <r_i_glide_ligand_efficiency_ln>  (314) 
-0.774176

>  <r_i_glide_gscore>  (314) 
-3.38106

>  <r_i_glide_lipo>  (314) 
-0.250906

>  <r_i_glide_hbond>  (314) 
-0.313695

>  <r_i_glide_metal>  (314) 
-0

>  <r_i_glide_rewards>  (314) 
-1.13712

>  <r_i_glide_evdw>  (314) 
-29.103

>  <r_i_glide_ecoul>  (314) 
-1.49455

>  <r_i_glide_erotb>  (314) 
0

>  <r_i_glide_esite>  (314) 
0

>  <r_i_glide_emodel>  (314) 
-43.5475

>  <r_i_glide_energy>  (314) 
-30.5976

>  <r_i_glide_einternal>  (314) 
0.00111374

>  <r_i_glide_intrahb_reward>  (314) 
-0.5

>  <i_i_glide_confnum>  (314) 
2

>  <i_i_glide_posenum>  (314) 
13

>  <r_i_glide_eff_state_penalty>  (314) 
0

>  <ligand_id>  (314) 
103

>  <original_smiles>  (314) 
CC12CCC3OC4C(CCC5CCC(C)(O)C54C)C(CC1)C31OOC(C)(C)C1O2

>  <smiles>  (314) 
[H]OC1(C([H])([H])[H])C([H])([H])C([H])([H])C2([H])C([H])([H])C([H])([H])C3([H])C([H])(OC4([H])C([H])([H])C([H])([H])C5(C([H])([H])[H])OC6([H])C(C([H])([H])[H])(C([H])([H])[H])OOC46C3([H])C([H])([H])C5([H])[H])C21C([H])([H])[H]

$$$$
103:0:1
     RDKit          3D

 67 72  0  0  1  0  0  0  0  0999 V2000
    2.9570   -8.9140    5.9069 C   0  0  0  0  0  0  0  0  0  0  0  0
    2.7564   -7.9469    4.7240 C   0  0  1  0  0  0  0  0  0  0  0  0
    3.1151   -6.4965    5.1570 C   0  0  0  0  0  0  0  0  0  0  0  0
    2.0702   -5.4027    4.8386 C   0  0  0  0  0  0  0  0  0  0  0  0
    1.4719   -5.2882    3.4098 C   0  0  1  0  0  0  0  0  0  0  0  0
    2.0028   -4.1511    2.7310 O   0  0  0  0  0  0  0  0  0  0  0  0
    3.2805   -4.3143    2.1394 C   0  0  1  0  0  0  0  0  0  0  0  0
    3.1586   -5.4217    1.0487 C   0  0  1  0  0  0  0  0  0  0  0  0
    4.4126   -5.4657    0.1370 C   0  0  0  0  0  0  0  0  0  0  0  0
    4.6695   -4.1201   -0.5912 C   0  0  0  0  0  0  0  0  0  0  0  0
    3.8899   -2.9563    0.0628 C   0  0  2  0  0  0  0  0  0  0  0  0
    4.2396   -1.5156   -0.3388 C   0  0  0  0  0  0  0  0  0  0  0  0
    3.8175   -0.6527    0.8714 C   0  0  0  0  0  0  0  0  0  0  0  0
    3.2170   -1.6175    1.9229 C   0  0  1  0  0  0  0  0  0  0  0  0
    3.3478   -1.1136    3.3680 C   0  0  0  0  0  0  0  0  0  0  0  0
    1.8167   -1.6280    1.6795 O   0  0  0  0  0  0  0  0  0  0  0  0
    3.9183   -2.9814    1.6034 C   0  0  1  0  0  0  0  0  0  0  0  0
    5.3922   -2.9345    2.1157 C   0  0  0  0  0  0  0  0  0  0  0  0
    2.7532   -6.7737    1.6878 C   0  0  1  0  0  0  0  0  0  0  0  0
    3.9365   -7.4437    2.4237 C   0  0  0  0  0  0  0  0  0  0  0  0
    3.6184   -8.4602    3.5350 C   0  0  0  0  0  0  0  0  0  0  0  0
    1.4475   -6.5621    2.5053 C   0  0  2  0  0  0  0  0  0  0  0  0
    0.4158   -6.3923    1.5466 O   0  0  0  0  0  0  0  0  0  0  0  0
   -0.8836   -6.6555    2.2452 O   0  0  0  0  0  0  0  0  0  0  0  0
   -0.6588   -7.7180    3.1480 C   0  0  0  0  0  0  0  0  0  0  0  0
   -1.2970   -7.2627    4.4693 C   0  0  0  0  0  0  0  0  0  0  0  0
   -1.3483   -9.0047    2.6511 C   0  0  0  0  0  0  0  0  0  0  0  0
    0.8806   -7.8311    3.1716 C   0  0  2  0  0  0  0  0  0  0  0  0
    1.3500   -8.0294    4.4976 O   0  0  0  0  0  0  0  0  0  0  0  0
    3.9890   -8.9126    6.2573 H   0  0  0  0  0  0  0  0  0  0  0  0
    2.7073   -9.9372    5.6233 H   0  0  0  0  0  0  0  0  0  0  0  0
    2.3200   -8.6497    6.7513 H   0  0  0  0  0  0  0  0  0  0  0  0
    3.2277   -6.4809    6.2411 H   0  0  0  0  0  0  0  0  0  0  0  0
    4.1033   -6.2058    4.8085 H   0  0  0  0  0  0  0  0  0  0  0  0
    1.2449   -5.5393    5.5390 H   0  0  0  0  0  0  0  0  0  0  0  0
    2.4978   -4.4357    5.1082 H   0  0  0  0  0  0  0  0  0  0  0  0
    0.4394   -4.9866    3.5767 H   0  0  0  0  0  0  0  0  0  0  0  0
    3.9251   -4.6649    2.9412 H   0  0  0  0  0  0  0  0  0  0  0  0
    2.3281   -5.1532    0.3933 H   0  0  0  0  0  0  0  0  0  0  0  0
    5.2919   -5.7104    0.7315 H   0  0  0  0  0  0  0  0  0  0  0  0
    4.3269   -6.2670   -0.5981 H   0  0  0  0  0  0  0  0  0  0  0  0
    5.7397   -3.9100   -0.6261 H   0  0  0  0  0  0  0  0  0  0  0  0
    4.3504   -4.2109   -1.6299 H   0  0  0  0  0  0  0  0  0  0  0  0
    2.8509   -3.0818   -0.2479 H   0  0  0  0  0  0  0  0  0  0  0  0
    5.3082   -1.4038   -0.5313 H   0  0  0  0  0  0  0  0  0  0  0  0
    3.7074   -1.2231   -1.2462 H   0  0  0  0  0  0  0  0  0  0  0  0
    4.7044   -0.1582    1.2713 H   0  0  0  0  0  0  0  0  0  0  0  0
    3.1266    0.1420    0.5880 H   0  0  0  0  0  0  0  0  0  0  0  0
    4.3766   -0.8944    3.6470 H   0  0  0  0  0  0  0  0  0  0  0  0
    2.9547   -1.8499    4.0682 H   0  0  0  0  0  0  0  0  0  0  0  0
    2.7774   -0.1943    3.5046 H   0  0  0  0  0  0  0  0  0  0  0  0
    1.6533   -1.4556    0.7579 H   0  0  0  0  0  0  0  0  0  0  0  0
    5.9471   -2.0684    1.7590 H   0  0  0  0  0  0  0  0  0  0  0  0
    5.9664   -3.8106    1.8207 H   0  0  0  0  0  0  0  0  0  0  0  0
    5.4303   -2.9058    3.2039 H   0  0  0  0  0  0  0  0  0  0  0  0
    2.4905   -7.4591    0.8815 H   0  0  0  0  0  0  0  0  0  0  0  0
    4.5315   -7.9608    1.6732 H   0  0  0  0  0  0  0  0  0  0  0  0
    4.6224   -6.6983    2.8146 H   0  0  0  0  0  0  0  0  0  0  0  0
    4.5868   -8.7635    3.9343 H   0  0  0  0  0  0  0  0  0  0  0  0
    3.1975   -9.3758    3.1183 H   0  0  0  0  0  0  0  0  0  0  0  0
   -1.1739   -8.0175    5.2474 H   0  0  0  0  0  0  0  0  0  0  0  0
   -2.3645   -7.0885    4.3385 H   0  0  0  0  0  0  0  0  0  0  0  0
   -0.8681   -6.3332    4.8321 H   0  0  0  0  0  0  0  0  0  0  0  0
   -1.1675   -9.8402    3.3338 H   0  0  0  0  0  0  0  0  0  0  0  0
   -0.9812   -9.3127    1.6802 H   0  0  0  0  0  0  0  0  0  0  0  0
   -2.4308   -8.8822    2.5710 H   0  0  0  0  0  0  0  0  0  0  0  0
    1.1504   -8.6920    2.5578 H   0  0  0  0  0  0  0  0  0  0  0  0
  2  1  1  1
  1 30  1  0
  1 31  1  0
  1 32  1  0
  2 21  1  0
  2 29  1  0
  2  3  1  0
  3  4  1  0
  3 33  1  0
  3 34  1  0
  4  5  1  0
  4 35  1  0
  4 36  1  0
  5 22  1  0
  5  6  1  0
  5 37  1  1
  6  7  1  0
  7 17  1  0
  7  8  1  0
  7 38  1  1
  8  9  1  0
  8 19  1  0
  8 39  1  6
  9 10  1  0
  9 40  1  0
  9 41  1  0
 10 11  1  0
 10 42  1  0
 10 43  1  0
 11 17  1  0
 11 12  1  0
 11 44  1  1
 12 13  1  0
 12 45  1  0
 12 46  1  0
 13 14  1  0
 13 47  1  0
 13 48  1  0
 14 15  1  0
 14 16  1  6
 14 17  1  0
 15 49  1  0
 15 50  1  0
 15 51  1  0
 16 52  1  0
 17 18  1  6
 18 53  1  0
 18 54  1  0
 18 55  1  0
 19 20  1  0
 19 22  1  0
 19 56  1  6
 20 21  1  0
 20 57  1  0
 20 58  1  0
 21 59  1  0
 21 60  1  0
 22 28  1  0
 22 23  1  6
 23 24  1  0
 24 25  1  0
 25 26  1  0
 25 27  1  0
 25 28  1  0
 26 61  1  0
 26 62  1  0
 26 63  1  0
 27 64  1  0
 27 65  1  0
 27 66  1  0
 28 29  1  0
 28 67  1  6
M  END
>  <i_m_ct_stereo_status>  (315) 
1

>  <s_m_source_file>  (315) 
/var/tmp/pbs.5076255.sched01/tmp2gjrvvgn/102_qij5c5l.sdf

>  <i_m_source_file_index>  (315) 
29

>  <i_lp_mmshare_version>  (315) 
48012

>  <i_f3d_flags>  (315) 
0

>  <s_epik_input>  (315) 
TzFPQyhbQ0gzXSkoW0NIM10pW0NAQEhdMk9bQ0BdKFtDSDNdKShbQ0gyXVtDSDJdW0NAQEhdM1tDQF0xMjQpW0NIMl1bQ0gyXVtDQEBIXTRbQ0BIXTVbQ0BIXShPMylbQ0BAXTYoW0NIM10pW0NASF0oW0NIMl1bQ0gyXTUpW0NIMl1bQ0gyXVtDQEBdNihbQ0gzXSlbT0hd

>  <s_epik_cmdline>  (315) 
J2VwaWtfcHl0aG9uJywgJy1waHQnLCAnMi4wJywgJy1waCcsICc3LjAnLCAnLXRuJywgJzgnLCAnLW1hJywgJzIwMCcsICctaW1hZScsICc8aW5maWxlLm1hZT4nLCAnLW9tYWUnLCAnPG91dGZpbGUubWFlPic=

>  <r_lp_tautomer_probability>  (315) 
1

>  <r_epik_Ionization_Penalty>  (315) 
7.77327e-07

>  <r_epik_Ionization_Penalty_Charging>  (315) 
0

>  <r_epik_Ionization_Penalty_Neutral>  (315) 
7.77327e-07

>  <r_epik_State_Penalty>  (315) 
-0

>  <r_epik_Charging_Adjusted_Penalty>  (315) 
0

>  <i_epik_Tot_Q>  (315) 
0

>  <i_epik_Tot_abs_Q>  (315) 
0

>  <s_lp_Force_Field>  (315) 
OPLS3e

>  <r_lp_Energy>  (315) 
68.9618

>  <b_lp_Chiralities_Consistent>  (315) 
1

>  <s_lp_Variant>  (315) 
103:0-1

>  <s_i_glide_gridfile>  (315) 
pfpi4k_grid

>  <i_i_glide_lignum>  (315) 
29

>  <i_i_glide_rotatable_bonds>  (315) 
1

>  <r_i_docking_score>  (315) 
-3.13889

>  <r_i_glide_ligand_efficiency>  (315) 
-0.108238

>  <r_i_glide_ligand_efficiency_sa>  (315) 
-0.332541

>  <r_i_glide_ligand_efficiency_ln>  (315) 
-0.718727

>  <r_i_glide_gscore>  (315) 
-3.13889

>  <r_i_glide_lipo>  (315) 
-0.140551

>  <r_i_glide_hbond>  (315) 
-0.337442

>  <r_i_glide_metal>  (315) 
-0

>  <r_i_glide_rewards>  (315) 
-0.637121

>  <r_i_glide_evdw>  (315) 
-28.0621

>  <r_i_glide_ecoul>  (315) 
-4.13784

>  <r_i_glide_erotb>  (315) 
0

>  <r_i_glide_esite>  (315) 
0

>  <r_i_glide_emodel>  (315) 
-39.1244

>  <r_i_glide_energy>  (315) 
-32.1999

>  <r_i_glide_einternal>  (315) 
0.671105

>  <r_i_glide_intrahb_reward>  (315) 
-0

>  <i_i_glide_confnum>  (315) 
1

>  <i_i_glide_posenum>  (315) 
17

>  <r_i_glide_eff_state_penalty>  (315) 
0

>  <ligand_id>  (315) 
103

>  <original_smiles>  (315) 
CC12CCC3OC4C(CCC5CCC(C)(O)C54C)C(CC1)C31OOC(C)(C)C1O2

>  <smiles>  (315) 
[H]OC1(C([H])([H])[H])C([H])([H])C([H])([H])C2([H])C([H])([H])C([H])([H])C3([H])C([H])(OC4([H])C([H])([H])C([H])([H])C5(C([H])([H])[H])OC6([H])C(C([H])([H])[H])(C([H])([H])[H])OOC46C3([H])C([H])([H])C5([H])[H])C21C([H])([H])[H]

$$$$
103:0:2
     RDKit          3D

 67 72  0  0  1  0  0  0  0  0999 V2000
    8.2993   -2.7368   -0.4930 C   0  0  0  0  0  0  0  0  0  0  0  0
    6.8381   -2.8323   -0.0293 C   0  0  1  0  0  0  0  0  0  0  0  0
    6.6294   -4.1951    0.6893 C   0  0  0  0  0  0  0  0  0  0  0  0
    5.4280   -5.0508    0.2360 C   0  0  0  0  0  0  0  0  0  0  0  0
    4.0207   -4.4236    0.1283 C   0  0  1  0  0  0  0  0  0  0  0  0
    3.1756   -4.8739    1.1869 O   0  0  0  0  0  0  0  0  0  0  0  0
    3.3349   -4.2066    2.4225 C   0  0  1  0  0  0  0  0  0  0  0  0
    2.9546   -2.7136    2.2044 C   0  0  1  0  0  0  0  0  0  0  0  0
    2.7963   -1.9735    3.5525 C   0  0  0  0  0  0  0  0  0  0  0  0
    1.7036   -2.6004    4.4549 C   0  0  0  0  0  0  0  0  0  0  0  0
    1.3428   -4.0285    4.0040 C   0  0  2  0  0  0  0  0  0  0  0  0
    0.5047   -4.9132    4.9415 C   0  0  0  0  0  0  0  0  0  0  0  0
    0.8470   -6.3642    4.5369 C   0  0  0  0  0  0  0  0  0  0  0  0
    1.8493   -6.2626    3.3637 C   0  0  1  0  0  0  0  0  0  0  0  0
    2.7883   -7.4793    3.2541 C   0  0  0  0  0  0  0  0  0  0  0  0
    1.0334   -6.2619    2.1962 O   0  0  0  0  0  0  0  0  0  0  0  0
    2.5556   -4.8847    3.6058 C   0  0  1  0  0  0  0  0  0  0  0  0
    3.5515   -5.0044    4.7961 C   0  0  0  0  0  0  0  0  0  0  0  0
    3.9233   -2.0464    1.1890 C   0  0  1  0  0  0  0  0  0  0  0  0
    5.3097   -1.7416    1.8125 C   0  0  0  0  0  0  0  0  0  0  0  0
    6.5141   -1.5991    0.8640 C   0  0  0  0  0  0  0  0  0  0  0  0
    3.9205   -2.8882   -0.1206 C   0  0  2  0  0  0  0  0  0  0  0  0
    2.6695   -2.6673   -0.7388 O   0  0  0  0  0  0  0  0  0  0  0  0
    2.8026   -3.0506   -2.1844 O   0  0  0  0  0  0  0  0  0  0  0  0
    4.0805   -2.6176   -2.5948 C   0  0  0  0  0  0  0  0  0  0  0  0
    4.6467   -3.8008   -3.3815 C   0  0  0  0  0  0  0  0  0  0  0  0
    3.9911   -1.3886   -3.5150 C   0  0  0  0  0  0  0  0  0  0  0  0
    4.7953   -2.3239   -1.2606 C   0  0  2  0  0  0  0  0  0  0  0  0
    6.1298   -2.8166   -1.2688 O   0  0  0  0  0  0  0  0  0  0  0  0
    8.9932   -2.7889    0.3435 H   0  0  0  0  0  0  0  0  0  0  0  0
    8.5003   -1.8089   -1.0162 H   0  0  0  0  0  0  0  0  0  0  0  0
    8.5573   -3.5335   -1.1906 H   0  0  0  0  0  0  0  0  0  0  0  0
    7.5030   -4.8171    0.5030 H   0  0  0  0  0  0  0  0  0  0  0  0
    6.6505   -4.0824    1.7687 H   0  0  0  0  0  0  0  0  0  0  0  0
    5.6819   -5.4425   -0.7454 H   0  0  0  0  0  0  0  0  0  0  0  0
    5.3697   -5.9348    0.8768 H   0  0  0  0  0  0  0  0  0  0  0  0
    3.5651   -4.9245   -0.7178 H   0  0  0  0  0  0  0  0  0  0  0  0
    4.3946   -4.2850    2.6601 H   0  0  0  0  0  0  0  0  0  0  0  0
    1.9759   -2.6816    1.7175 H   0  0  0  0  0  0  0  0  0  0  0  0
    3.7457   -1.9778    4.0868 H   0  0  0  0  0  0  0  0  0  0  0  0
    2.5613   -0.9251    3.3869 H   0  0  0  0  0  0  0  0  0  0  0  0
    2.0345   -2.6002    5.4947 H   0  0  0  0  0  0  0  0  0  0  0  0
    0.8016   -1.9895    4.4216 H   0  0  0  0  0  0  0  0  0  0  0  0
    0.7286   -3.8966    3.1141 H   0  0  0  0  0  0  0  0  0  0  0  0
    0.7732   -4.7442    5.9839 H   0  0  0  0  0  0  0  0  0  0  0  0
   -0.5611   -4.7061    4.8258 H   0  0  0  0  0  0  0  0  0  0  0  0
    1.3074   -6.8703    5.3879 H   0  0  0  0  0  0  0  0  0  0  0  0
   -0.0413   -6.9438    4.2794 H   0  0  0  0  0  0  0  0  0  0  0  0
    3.3377   -7.6572    4.1788 H   0  0  0  0  0  0  0  0  0  0  0  0
    3.5245   -7.3441    2.4617 H   0  0  0  0  0  0  0  0  0  0  0  0
    2.2360   -8.3943    3.0453 H   0  0  0  0  0  0  0  0  0  0  0  0
    0.8559   -7.1644    1.9760 H   0  0  0  0  0  0  0  0  0  0  0  0
    3.0952   -5.4166    5.6939 H   0  0  0  0  0  0  0  0  0  0  0  0
    3.9734   -4.0407    5.0762 H   0  0  0  0  0  0  0  0  0  0  0  0
    4.3973   -5.6430    4.5442 H   0  0  0  0  0  0  0  0  0  0  0  0
    3.5043   -1.0719    0.9230 H   0  0  0  0  0  0  0  0  0  0  0  0
    5.2190   -0.8115    2.3705 H   0  0  0  0  0  0  0  0  0  0  0  0
    5.5526   -2.4705    2.5775 H   0  0  0  0  0  0  0  0  0  0  0  0
    7.3726   -1.4136    1.5012 H   0  0  0  0  0  0  0  0  0  0  0  0
    6.4287   -0.6905    0.2642 H   0  0  0  0  0  0  0  0  0  0  0  0
    5.6583   -3.6215   -3.7464 H   0  0  0  0  0  0  0  0  0  0  0  0
    4.0129   -4.0391   -4.2350 H   0  0  0  0  0  0  0  0  0  0  0  0
    4.6781   -4.6776   -2.7423 H   0  0  0  0  0  0  0  0  0  0  0  0
    4.9861   -1.0841   -3.8382 H   0  0  0  0  0  0  0  0  0  0  0  0
    3.5276   -0.5288   -3.0223 H   0  0  0  0  0  0  0  0  0  0  0  0
    3.4134   -1.6049   -4.4144 H   0  0  0  0  0  0  0  0  0  0  0  0
    4.8281   -1.2373   -1.1521 H   0  0  0  0  0  0  0  0  0  0  0  0
  2  1  1  6
  1 30  1  0
  1 31  1  0
  1 32  1  0
  2 21  1  0
  2 29  1  0
  2  3  1  0
  3  4  1  0
  3 33  1  0
  3 34  1  0
  4  5  1  0
  4 35  1  0
  4 36  1  0
  5 22  1  0
  5  6  1  0
  5 37  1  6
  6  7  1  0
  7 17  1  0
  7  8  1  0
  7 38  1  1
  8  9  1  0
  8 19  1  0
  8 39  1  6
  9 10  1  0
  9 40  1  0
  9 41  1  0
 10 11  1  0
 10 42  1  0
 10 43  1  0
 11 17  1  0
 11 12  1  0
 11 44  1  6
 12 13  1  0
 12 45  1  0
 12 46  1  0
 13 14  1  0
 13 47  1  0
 13 48  1  0
 14 15  1  0
 14 16  1  6
 14 17  1  0
 15 49  1  0
 15 50  1  0
 15 51  1  0
 16 52  1  0
 17 18  1  1
 18 53  1  0
 18 54  1  0
 18 55  1  0
 19 20  1  0
 19 22  1  0
 19 56  1  6
 20 21  1  0
 20 57  1  0
 20 58  1  0
 21 59  1  0
 21 60  1  0
 22 28  1  0
 22 23  1  6
 23 24  1  0
 24 25  1  0
 25 26  1  0
 25 27  1  0
 25 28  1  0
 26 61  1  0
 26 62  1  0
 26 63  1  0
 27 64  1  0
 27 65  1  0
 27 66  1  0
 28 29  1  0
 28 67  1  1
M  END
>  <i_m_ct_stereo_status>  (316) 
1

>  <s_m_source_file>  (316) 
/var/tmp/pbs.5076255.sched01/tmp2gjrvvgn/102_qij5c5l.sdf

>  <i_m_source_file_index>  (316) 
29

>  <i_lp_mmshare_version>  (316) 
48012

>  <i_f3d_flags>  (316) 
0

>  <s_epik_input>  (316) 
TzFPQyhbQ0gzXSkoW0NIM10pW0NAQEhdMk9bQ0BdKFtDSDNdKShbQ0gyXVtDSDJdW0NAQEhdM1tDQF0xMjQpW0NIMl1bQ0gyXVtDQEBIXTRbQ0BIXTVbQ0BIXShPMylbQ0BAXTYoW0NIM10pW0NASF0oW0NIMl1bQ0gyXTUpW0NIMl1bQ0gyXVtDQEBdNihbQ0gzXSlbT0hd

>  <s_epik_cmdline>  (316) 
J2VwaWtfcHl0aG9uJywgJy1waHQnLCAnMi4wJywgJy1waCcsICc3LjAnLCAnLXRuJywgJzgnLCAnLW1hJywgJzIwMCcsICctaW1hZScsICc8aW5maWxlLm1hZT4nLCAnLW9tYWUnLCAnPG91dGZpbGUubWFlPic=

>  <r_lp_tautomer_probability>  (316) 
1

>  <r_epik_Ionization_Penalty>  (316) 
7.77327e-07

>  <r_epik_Ionization_Penalty_Charging>  (316) 
0

>  <r_epik_Ionization_Penalty_Neutral>  (316) 
7.77327e-07

>  <r_epik_State_Penalty>  (316) 
-0

>  <r_epik_Charging_Adjusted_Penalty>  (316) 
0

>  <i_epik_Tot_Q>  (316) 
0

>  <i_epik_Tot_abs_Q>  (316) 
0

>  <s_lp_Force_Field>  (316) 
OPLS3e

>  <r_lp_Energy>  (316) 
68.9618

>  <b_lp_Chiralities_Consistent>  (316) 
1

>  <s_lp_Variant>  (316) 
103:0-1

>  <s_i_glide_gridfile>  (316) 
pfpi4k_grid

>  <i_i_glide_lignum>  (316) 
29

>  <i_i_glide_rotatable_bonds>  (316) 
1

>  <r_i_docking_score>  (316) 
-2.97309

>  <r_i_glide_ligand_efficiency>  (316) 
-0.102521

>  <r_i_glide_ligand_efficiency_sa>  (316) 
-0.314975

>  <r_i_glide_ligand_efficiency_ln>  (316) 
-0.680763

>  <r_i_glide_gscore>  (316) 
-2.97309

>  <r_i_glide_lipo>  (316) 
-0.679314

>  <r_i_glide_hbond>  (316) 
0

>  <r_i_glide_metal>  (316) 
-0

>  <r_i_glide_rewards>  (316) 
-0.637121

>  <r_i_glide_evdw>  (316) 
-32.12

>  <r_i_glide_ecoul>  (316) 
-0.337721

>  <r_i_glide_erotb>  (316) 
0

>  <r_i_glide_esite>  (316) 
0

>  <r_i_glide_emodel>  (316) 
-39.2514

>  <r_i_glide_energy>  (316) 
-32.4577

>  <r_i_glide_einternal>  (316) 
0.224437

>  <r_i_glide_intrahb_reward>  (316) 
-0

>  <i_i_glide_confnum>  (316) 
1

>  <i_i_glide_posenum>  (316) 
3

>  <r_i_glide_eff_state_penalty>  (316) 
0

>  <ligand_id>  (316) 
103

>  <original_smiles>  (316) 
CC12CCC3OC4C(CCC5CCC(C)(O)C54C)C(CC1)C31OOC(C)(C)C1O2

>  <smiles>  (316) 
[H]OC1(C([H])([H])[H])C([H])([H])C([H])([H])C2([H])C([H])([H])C([H])([H])C3([H])C([H])(OC4([H])C([H])([H])C([H])([H])C5(C([H])([H])[H])OC6([H])C(C([H])([H])[H])(C([H])([H])[H])OOC46C3([H])C([H])([H])C5([H])[H])C21C([H])([H])[H]

$$$$
104:0:0
     RDKit          3D

 68 72  0  0  1  0  0  0  0  0999 V2000
   -1.7225   -7.9874    3.8871 C   0  0  0  0  0  0  0  0  0  0  0  0
   -0.4896   -7.2841    3.3175 C   0  0  2  0  0  0  0  0  0  0  0  0
   -0.1650   -7.7775    1.8938 C   0  0  0  0  0  0  0  0  0  0  0  0
    1.2037   -7.3348    1.3339 C   0  0  1  0  0  0  0  0  0  0  0  0
    1.0164   -6.0600    0.7424 O   0  0  0  0  0  0  0  0  0  0  0  0
    2.3915   -7.3730    2.3670 C   0  0  1  0  0  0  0  0  0  0  0  0
    2.6621   -8.8909    2.7479 C   0  0  1  0  0  0  0  0  0  0  0  0
    3.9596   -9.1139    3.2811 O   0  0  0  0  0  0  0  0  0  0  0  0
    5.0358   -8.6351    2.5534 C   0  0  0  0  0  0  0  0  0  0  0  0
    6.2674   -8.8145    3.4512 C   0  0  0  0  0  0  0  0  0  0  0  0
    5.2313   -9.4229    1.2407 C   0  0  0  0  0  0  0  0  0  0  0  0
    4.9067   -7.2735    2.3125 O   0  0  0  0  0  0  0  0  0  0  0  0
    3.7069   -6.8357    1.6789 C   0  0  2  0  0  0  0  0  0  0  0  0
    3.9454   -5.3137    1.4439 C   0  0  1  0  0  0  0  0  0  0  0  0
    3.4559   -4.9567    0.1461 O   0  0  0  0  0  0  0  0  0  0  0  0
    3.9884   -3.7680   -0.3650 C   0  0  1  0  0  0  0  0  0  0  0  0
    3.5088   -3.5196   -1.6643 O   0  0  0  0  0  0  0  0  0  0  0  0
    3.5674   -2.6066    0.5492 C   0  0  0  0  0  0  0  0  0  0  0  0
    4.0062   -2.8941    1.9916 C   0  0  0  0  0  0  0  0  0  0  0  0
    3.4509   -4.2573    2.4737 C   0  0  2  0  0  0  0  0  0  0  0  0
    3.7120   -4.5767    3.9986 C   0  0  0  0  0  0  0  0  0  0  0  0
    5.2353   -4.6060    4.2926 C   0  0  0  0  0  0  0  0  0  0  0  0
    3.1424   -3.4105    4.8492 C   0  0  0  0  0  0  0  0  0  0  0  0
    2.9863   -5.8886    4.5173 C   0  0  2  0  0  0  0  0  0  0  0  0
    3.8857   -6.8463    5.0346 O   0  0  0  0  0  0  0  0  0  0  0  0
    1.9113   -6.5290    3.5883 C   0  0  2  0  0  0  0  0  0  0  0  0
    0.7281   -7.2524    4.2819 C   0  0  2  0  0  0  0  0  0  0  0  0
    1.1404   -8.6209    4.8531 C   0  0  0  0  0  0  0  0  0  0  0  0
    1.7643   -9.5711    3.8249 C   0  0  1  0  0  0  0  0  0  0  0  0
    0.8043  -10.4402    3.2655 O   0  0  0  0  0  0  0  0  0  0  0  0
   -1.5572   -9.0615    3.9743 H   0  0  0  0  0  0  0  0  0  0  0  0
   -2.5848   -7.8433    3.2363 H   0  0  0  0  0  0  0  0  0  0  0  0
   -1.9678   -7.6029    4.8772 H   0  0  0  0  0  0  0  0  0  0  0  0
   -0.7944   -6.2537    3.2025 H   0  0  0  0  0  0  0  0  0  0  0  0
   -0.2305   -8.8600    1.8554 H   0  0  0  0  0  0  0  0  0  0  0  0
   -0.9552   -7.4657    1.2091 H   0  0  0  0  0  0  0  0  0  0  0  0
    1.4115   -8.0118    0.5085 H   0  0  0  0  0  0  0  0  0  0  0  0
    1.8299   -5.7968    0.3211 H   0  0  0  0  0  0  0  0  0  0  0  0
    2.5874   -9.4957    1.8431 H   0  0  0  0  0  0  0  0  0  0  0  0
    6.1369   -8.2733    4.3868 H   0  0  0  0  0  0  0  0  0  0  0  0
    7.1596   -8.4426    2.9460 H   0  0  0  0  0  0  0  0  0  0  0  0
    6.4078   -9.8729    3.6783 H   0  0  0  0  0  0  0  0  0  0  0  0
    4.3668   -9.3643    0.5821 H   0  0  0  0  0  0  0  0  0  0  0  0
    5.4172  -10.4745    1.4656 H   0  0  0  0  0  0  0  0  0  0  0  0
    6.0966   -9.0310    0.7063 H   0  0  0  0  0  0  0  0  0  0  0  0
    3.7391   -7.2738    0.6815 H   0  0  0  0  0  0  0  0  0  0  0  0
    5.0323   -5.2071    1.3840 H   0  0  0  0  0  0  0  0  0  0  0  0
    5.0766   -3.8518   -0.4355 H   0  0  0  0  0  0  0  0  0  0  0  0
    3.4202   -4.3638   -2.1000 H   0  0  0  0  0  0  0  0  0  0  0  0
    4.0312   -1.6876    0.1869 H   0  0  0  0  0  0  0  0  0  0  0  0
    2.4853   -2.4810    0.4948 H   0  0  0  0  0  0  0  0  0  0  0  0
    5.0938   -2.8625    2.0545 H   0  0  0  0  0  0  0  0  0  0  0  0
    3.6322   -2.0712    2.5984 H   0  0  0  0  0  0  0  0  0  0  0  0
    2.3812   -4.1398    2.3383 H   0  0  0  0  0  0  0  0  0  0  0  0
    5.4349   -4.7994    5.3488 H   0  0  0  0  0  0  0  0  0  0  0  0
    5.7113   -3.6546    4.0624 H   0  0  0  0  0  0  0  0  0  0  0  0
    5.7517   -5.3753    3.7197 H   0  0  0  0  0  0  0  0  0  0  0  0
    3.2213   -3.6174    5.9189 H   0  0  0  0  0  0  0  0  0  0  0  0
    2.0900   -3.2289    4.6224 H   0  0  0  0  0  0  0  0  0  0  0  0
    3.6845   -2.4782    4.6972 H   0  0  0  0  0  0  0  0  0  0  0  0
    2.4329   -5.6097    5.4148 H   0  0  0  0  0  0  0  0  0  0  0  0
    3.3962   -7.5890    5.3474 H   0  0  0  0  0  0  0  0  0  0  0  0
    1.3920   -5.6571    3.2080 H   0  0  0  0  0  0  0  0  0  0  0  0
    0.4167   -6.6488    5.1348 H   0  0  0  0  0  0  0  0  0  0  0  0
    1.8795   -8.4402    5.6302 H   0  0  0  0  0  0  0  0  0  0  0  0
    0.3131   -9.1042    5.3782 H   0  0  0  0  0  0  0  0  0  0  0  0
    2.3805  -10.2675    4.3981 H   0  0  0  0  0  0  0  0  0  0  0  0
    1.2508  -11.1789    2.8839 H   0  0  0  0  0  0  0  0  0  0  0  0
  1  2  1  0
  1 31  1  0
  1 32  1  0
  1 33  1  0
  2 27  1  0
  2  3  1  0
  2 34  1  6
  3  4  1  0
  3 35  1  0
  3 36  1  0
  4  5  1  0
  6  4  1  6
  4 37  1  6
  5 38  1  0
  6 13  1  0
  6 26  1  0
  6  7  1  0
  7 29  1  0
  7  8  1  0
  7 39  1  6
  8  9  1  0
  9 10  1  0
  9 11  1  0
  9 12  1  0
 10 40  1  0
 10 41  1  0
 10 42  1  0
 11 43  1  0
 11 44  1  0
 11 45  1  0
 12 13  1  0
 13 14  1  0
 13 46  1  6
 14 20  1  0
 14 15  1  0
 14 47  1  6
 15 16  1  0
 16 17  1  0
 16 18  1  0
 16 48  1  6
 17 49  1  0
 18 19  1  0
 18 50  1  0
 18 51  1  0
 19 20  1  0
 19 52  1  0
 19 53  1  0
 20 21  1  0
 20 54  1  1
 21 22  1  0
 21 23  1  0
 21 24  1  0
 22 55  1  0
 22 56  1  0
 22 57  1  0
 23 58  1  0
 23 59  1  0
 23 60  1  0
 24 25  1  0
 24 26  1  0
 24 61  1  1
 25 62  1  0
 26 27  1  0
 26 63  1  6
 27 28  1  0
 27 64  1  1
 28 29  1  0
 28 65  1  0
 28 66  1  0
 29 30  1  0
 29 67  1  1
 30 68  1  0
M  END
>  <i_m_ct_stereo_status>  (317) 
1

>  <s_m_source_file>  (317) 
/var/tmp/pbs.5076255.sched01/tmp2gjrvvgn/102_qij5c5l.sdf

>  <i_m_source_file_index>  (317) 
30

>  <i_lp_mmshare_version>  (317) 
48012

>  <i_f3d_flags>  (317) 
0

>  <s_epik_input>  (317) 
W09IXVtDQEBIXTFbQ0gyXVtDQEBIXShbQ0gzXSlbQ0BASF0oW0NIMl1bQ0BIXTJbT0hdKVtDQEhdM1tDSF0oW09IXSlDKFtDSDNdKShbQ0gzXSlbQ0BASF0oW0NIMl1bQ0gyXVtDQEBIXShPNClbT0hdKVtDQEhdNFtDQEhdNU9DKFtDSDNdKShbQ0gzXSlPW0NAQEhdMltDQEBdMTM1

>  <s_epik_cmdline>  (317) 
J2VwaWtfcHl0aG9uJywgJy1waHQnLCAnMi4wJywgJy1waCcsICc3LjAnLCAnLXRuJywgJzgnLCAnLW1hJywgJzIwMCcsICctaW1hZScsICc8aW5maWxlLm1hZT4nLCAnLW9tYWUnLCAnPG91dGZpbGUubWFlPic=

>  <r_lp_tautomer_probability>  (317) 
1

>  <r_epik_Ionization_Penalty>  (317) 
4.95983e-07

>  <r_epik_Ionization_Penalty_Charging>  (317) 
0

>  <r_epik_Ionization_Penalty_Neutral>  (317) 
4.95983e-07

>  <r_epik_State_Penalty>  (317) 
-0

>  <r_epik_Charging_Adjusted_Penalty>  (317) 
0

>  <i_epik_Tot_Q>  (317) 
0

>  <i_epik_Tot_abs_Q>  (317) 
0

>  <s_epik_Chemistry_Notes>  (317) 
This compound contains an acetal/aminal-like group ( X-CH(R)-Y where X, Y are N, S, or O) that may be acid/base labile, releasing an aldehyde.

>  <s_lp_Force_Field>  (317) 
OPLS3e

>  <r_lp_Energy>  (317) 
74.5811

>  <b_lp_Chiralities_Consistent>  (317) 
1

>  <s_lp_Variant>  (317) 
104:0-1

>  <s_i_glide_gridfile>  (317) 
pfpi4k_grid

>  <i_i_glide_lignum>  (317) 
30

>  <i_i_glide_rotatable_bonds>  (317) 
4

>  <r_i_docking_score>  (317) 
-3.54857

>  <r_i_glide_ligand_efficiency>  (317) 
-0.118286

>  <r_i_glide_ligand_efficiency_sa>  (317) 
-0.367541

>  <r_i_glide_ligand_efficiency_ln>  (317) 
-0.806274

>  <r_i_glide_gscore>  (317) 
-3.54857

>  <r_i_glide_lipo>  (317) 
-0.0776255

>  <r_i_glide_hbond>  (317) 
0

>  <r_i_glide_metal>  (317) 
-0

>  <r_i_glide_rewards>  (317) 
-1.00084

>  <r_i_glide_evdw>  (317) 
-26.8092

>  <r_i_glide_ecoul>  (317) 
-7.47873

>  <r_i_glide_erotb>  (317) 
0

>  <r_i_glide_esite>  (317) 
-0.00783664

>  <r_i_glide_emodel>  (317) 
-46.046

>  <r_i_glide_energy>  (317) 
-34.2879

>  <r_i_glide_einternal>  (317) 
2.12353

>  <r_i_glide_intrahb_reward>  (317) 
-0.5

>  <i_i_glide_confnum>  (317) 
1

>  <i_i_glide_posenum>  (317) 
10

>  <r_i_glide_eff_state_penalty>  (317) 
0

>  <ligand_id>  (317) 
104

>  <original_smiles>  (317) 
CC1CC(O)C23C4OC(C)(C)OC2C2OC(O)CCC2C(C)(C)C(O)C3C1CC4O

>  <smiles>  (317) 
[H]OC1([H])OC2([H])C3([H])OC(C([H])([H])[H])(C([H])([H])[H])OC4([H])C([H])(O[H])C([H])([H])C5([H])C([H])(C([H])([H])[H])C([H])([H])C([H])(O[H])C43C5([H])C([H])(O[H])C(C([H])([H])[H])(C([H])([H])[H])C2([H])C([H])([H])C1([H])[H]

$$$$
104:0:1
     RDKit          3D

 68 72  0  0  1  0  0  0  0  0999 V2000
   -1.7294   -7.9857    3.8847 C   0  0  0  0  0  0  0  0  0  0  0  0
   -0.4939   -7.2866    3.3165 C   0  0  2  0  0  0  0  0  0  0  0  0
   -0.1711   -7.7749    1.8898 C   0  0  0  0  0  0  0  0  0  0  0  0
    1.2007   -7.3376    1.3342 C   0  0  1  0  0  0  0  0  0  0  0  0
    1.0174   -6.0623    0.7455 O   0  0  0  0  0  0  0  0  0  0  0  0
    2.3850   -7.3820    2.3687 C   0  0  1  0  0  0  0  0  0  0  0  0
    2.6483   -8.9025    2.7460 C   0  0  1  0  0  0  0  0  0  0  0  0
    3.9453   -9.1269    3.2816 O   0  0  0  0  0  0  0  0  0  0  0  0
    5.0242   -8.6533    2.5539 C   0  0  0  0  0  0  0  0  0  0  0  0
    6.2553   -8.8403    3.4509 C   0  0  0  0  0  0  0  0  0  0  0  0
    5.2186   -9.4404    1.2407 C   0  0  0  0  0  0  0  0  0  0  0  0
    4.9032   -7.2913    2.3134 O   0  0  0  0  0  0  0  0  0  0  0  0
    3.7038   -6.8479    1.6826 C   0  0  2  0  0  0  0  0  0  0  0  0
    3.9479   -5.3268    1.4514 C   0  0  1  0  0  0  0  0  0  0  0  0
    3.4602   -4.9651    0.1550 O   0  0  0  0  0  0  0  0  0  0  0  0
    3.9969   -3.7780   -0.3532 C   0  0  1  0  0  0  0  0  0  0  0  0
    3.5189   -3.5275   -1.6528 O   0  0  0  0  0  0  0  0  0  0  0  0
    3.5796   -2.6173    0.5627 C   0  0  0  0  0  0  0  0  0  0  0  0
    4.0172   -2.9093    2.0048 C   0  0  0  0  0  0  0  0  0  0  0  0
    3.4566   -4.2715    2.4840 C   0  0  2  0  0  0  0  0  0  0  0  0
    3.7164   -4.5952    4.0082 C   0  0  0  0  0  0  0  0  0  0  0  0
    5.2391   -4.6316    4.3025 C   0  0  0  0  0  0  0  0  0  0  0  0
    3.1509   -3.4295    4.8613 C   0  0  0  0  0  0  0  0  0  0  0  0
    2.9854   -5.9058    4.5237 C   0  0  2  0  0  0  0  0  0  0  0  0
    3.8823   -6.8655    5.0384 O   0  0  0  0  0  0  0  0  0  0  0  0
    1.9082   -6.5396    3.5925 C   0  0  2  0  0  0  0  0  0  0  0  0
    0.7212   -7.2610    4.2831 C   0  0  2  0  0  0  0  0  0  0  0  0
    1.1262   -8.6340    4.8507 C   0  0  0  0  0  0  0  0  0  0  0  0
    1.7445   -9.5855    3.8182 C   0  0  1  0  0  0  0  0  0  0  0  0
    0.7896  -10.4597    3.2574 O   0  0  0  0  0  0  0  0  0  0  0  0
   -1.5719   -9.0611    3.9758 H   0  0  0  0  0  0  0  0  0  0  0  0
   -2.5916   -7.8373    3.2347 H   0  0  0  0  0  0  0  0  0  0  0  0
   -1.9733   -7.5992    4.8745 H   0  0  0  0  0  0  0  0  0  0  0  0
   -0.7944   -6.2515    3.2070 H   0  0  0  0  0  0  0  0  0  0  0  0
   -0.2482   -8.8562    1.8344 H   0  0  0  0  0  0  0  0  0  0  0  0
   -0.9574   -7.4466    1.2077 H   0  0  0  0  0  0  0  0  0  0  0  0
    1.4097   -8.0110    0.5091 H   0  0  0  0  0  0  0  0  0  0  0  0
    1.8307   -5.7966    0.3292 H   0  0  0  0  0  0  0  0  0  0  0  0
    2.5740   -9.5073    1.8404 H   0  0  0  0  0  0  0  0  0  0  0  0
    6.1276   -8.3012    4.3879 H   0  0  0  0  0  0  0  0  0  0  0  0
    7.1494   -8.4714    2.9456 H   0  0  0  0  0  0  0  0  0  0  0  0
    6.3906   -9.9003    3.6741 H   0  0  0  0  0  0  0  0  0  0  0  0
    4.3555   -9.3793    0.5814 H   0  0  0  0  0  0  0  0  0  0  0  0
    5.4031  -10.4919    1.4661 H   0  0  0  0  0  0  0  0  0  0  0  0
    6.0857   -9.0504    0.7074 H   0  0  0  0  0  0  0  0  0  0  0  0
    3.7339   -7.2832    0.6838 H   0  0  0  0  0  0  0  0  0  0  0  0
    5.0350   -5.2233    1.3923 H   0  0  0  0  0  0  0  0  0  0  0  0
    5.0844   -3.8651   -0.4232 H   0  0  0  0  0  0  0  0  0  0  0  0
    3.4337   -4.3694   -2.0912 H   0  0  0  0  0  0  0  0  0  0  0  0
    4.0474   -1.6982    0.2034 H   0  0  0  0  0  0  0  0  0  0  0  0
    2.4979   -2.4871    0.5087 H   0  0  0  0  0  0  0  0  0  0  0  0
    5.1055   -2.8829    2.0675 H   0  0  0  0  0  0  0  0  0  0  0  0
    3.6478   -2.0860    2.6142 H   0  0  0  0  0  0  0  0  0  0  0  0
    2.3874   -4.1485    2.3493 H   0  0  0  0  0  0  0  0  0  0  0  0
    5.4372   -4.8283    5.3581 H   0  0  0  0  0  0  0  0  0  0  0  0
    5.7191   -3.6816    4.0746 H   0  0  0  0  0  0  0  0  0  0  0  0
    5.7526   -5.4018    3.7281 H   0  0  0  0  0  0  0  0  0  0  0  0
    3.2289   -3.6394    5.9300 H   0  0  0  0  0  0  0  0  0  0  0  0
    2.0994   -3.2435    4.6346 H   0  0  0  0  0  0  0  0  0  0  0  0
    3.6966   -2.4991    4.7114 H   0  0  0  0  0  0  0  0  0  0  0  0
    2.4320   -5.6261    5.4206 H   0  0  0  0  0  0  0  0  0  0  0  0
    3.3926   -7.6118    5.3467 H   0  0  0  0  0  0  0  0  0  0  0  0
    1.3928   -5.6654    3.2138 H   0  0  0  0  0  0  0  0  0  0  0  0
    0.4123   -6.6573    5.1374 H   0  0  0  0  0  0  0  0  0  0  0  0
    1.8684   -8.4565    5.6270 H   0  0  0  0  0  0  0  0  0  0  0  0
    0.2993   -9.1122    5.3803 H   0  0  0  0  0  0  0  0  0  0  0  0
    2.3635  -10.2811    4.3881 H   0  0  0  0  0  0  0  0  0  0  0  0
    0.1770   -9.9539    2.7489 H   0  0  0  0  0  0  0  0  0  0  0  0
  1  2  1  0
  1 31  1  0
  1 32  1  0
  1 33  1  0
  2 27  1  0
  2  3  1  0
  2 34  1  6
  3  4  1  0
  3 35  1  0
  3 36  1  0
  4  5  1  0
  6  4  1  6
  4 37  1  6
  5 38  1  0
  6 13  1  0
  6 26  1  0
  6  7  1  0
  7 29  1  0
  7  8  1  0
  7 39  1  6
  8  9  1  0
  9 10  1  0
  9 11  1  0
  9 12  1  0
 10 40  1  0
 10 41  1  0
 10 42  1  0
 11 43  1  0
 11 44  1  0
 11 45  1  0
 12 13  1  0
 13 14  1  0
 13 46  1  6
 14 20  1  0
 14 15  1  0
 14 47  1  6
 15 16  1  0
 16 17  1  0
 16 18  1  0
 16 48  1  6
 17 49  1  0
 18 19  1  0
 18 50  1  0
 18 51  1  0
 19 20  1  0
 19 52  1  0
 19 53  1  0
 20 21  1  0
 20 54  1  1
 21 22  1  0
 21 23  1  0
 21 24  1  0
 22 55  1  0
 22 56  1  0
 22 57  1  0
 23 58  1  0
 23 59  1  0
 23 60  1  0
 24 25  1  0
 24 26  1  0
 24 61  1  1
 25 62  1  0
 26 27  1  0
 26 63  1  6
 27 28  1  0
 27 64  1  1
 28 29  1  0
 28 65  1  0
 28 66  1  0
 29 30  1  0
 29 67  1  1
 30 68  1  0
M  END
>  <i_m_ct_stereo_status>  (318) 
1

>  <s_m_source_file>  (318) 
/var/tmp/pbs.5076255.sched01/tmp2gjrvvgn/102_qij5c5l.sdf

>  <i_m_source_file_index>  (318) 
30

>  <i_lp_mmshare_version>  (318) 
48012

>  <i_f3d_flags>  (318) 
0

>  <s_epik_input>  (318) 
W09IXVtDQEBIXTFbQ0gyXVtDQEBIXShbQ0gzXSlbQ0BASF0oW0NIMl1bQ0BIXTJbT0hdKVtDQEhdM1tDSF0oW09IXSlDKFtDSDNdKShbQ0gzXSlbQ0BASF0oW0NIMl1bQ0gyXVtDQEBIXShPNClbT0hdKVtDQEhdNFtDQEhdNU9DKFtDSDNdKShbQ0gzXSlPW0NAQEhdMltDQEBdMTM1

>  <s_epik_cmdline>  (318) 
J2VwaWtfcHl0aG9uJywgJy1waHQnLCAnMi4wJywgJy1waCcsICc3LjAnLCAnLXRuJywgJzgnLCAnLW1hJywgJzIwMCcsICctaW1hZScsICc8aW5maWxlLm1hZT4nLCAnLW9tYWUnLCAnPG91dGZpbGUubWFlPic=

>  <r_lp_tautomer_probability>  (318) 
1

>  <r_epik_Ionization_Penalty>  (318) 
4.95983e-07

>  <r_epik_Ionization_Penalty_Charging>  (318) 
0

>  <r_epik_Ionization_Penalty_Neutral>  (318) 
4.95983e-07

>  <r_epik_State_Penalty>  (318) 
-0

>  <r_epik_Charging_Adjusted_Penalty>  (318) 
0

>  <i_epik_Tot_Q>  (318) 
0

>  <i_epik_Tot_abs_Q>  (318) 
0

>  <s_epik_Chemistry_Notes>  (318) 
This compound contains an acetal/aminal-like group ( X-CH(R)-Y where X, Y are N, S, or O) that may be acid/base labile, releasing an aldehyde.

>  <s_lp_Force_Field>  (318) 
OPLS3e

>  <r_lp_Energy>  (318) 
74.5811

>  <b_lp_Chiralities_Consistent>  (318) 
1

>  <s_lp_Variant>  (318) 
104:0-1

>  <s_i_glide_gridfile>  (318) 
pfpi4k_grid

>  <i_i_glide_lignum>  (318) 
30

>  <i_i_glide_rotatable_bonds>  (318) 
4

>  <r_i_docking_score>  (318) 
-3.54555

>  <r_i_glide_ligand_efficiency>  (318) 
-0.118185

>  <r_i_glide_ligand_efficiency_sa>  (318) 
-0.367228

>  <r_i_glide_ligand_efficiency_ln>  (318) 
-0.805588

>  <r_i_glide_gscore>  (318) 
-3.54555

>  <r_i_glide_lipo>  (318) 
-0.0772249

>  <r_i_glide_hbond>  (318) 
0

>  <r_i_glide_metal>  (318) 
-0

>  <r_i_glide_rewards>  (318) 
-1.00084

>  <r_i_glide_evdw>  (318) 
-26.7821

>  <r_i_glide_ecoul>  (318) 
-7.46622

>  <r_i_glide_erotb>  (318) 
0

>  <r_i_glide_esite>  (318) 
-0.00844959

>  <r_i_glide_emodel>  (318) 
-46.2192

>  <r_i_glide_energy>  (318) 
-34.2483

>  <r_i_glide_einternal>  (318) 
1.7304

>  <r_i_glide_intrahb_reward>  (318) 
-0.5

>  <i_i_glide_confnum>  (318) 
1

>  <i_i_glide_posenum>  (318) 
17

>  <r_i_glide_eff_state_penalty>  (318) 
0

>  <ligand_id>  (318) 
104

>  <original_smiles>  (318) 
CC1CC(O)C23C4OC(C)(C)OC2C2OC(O)CCC2C(C)(C)C(O)C3C1CC4O

>  <smiles>  (318) 
[H]OC1([H])OC2([H])C3([H])OC(C([H])([H])[H])(C([H])([H])[H])OC4([H])C([H])(O[H])C([H])([H])C5([H])C([H])(C([H])([H])[H])C([H])([H])C([H])(O[H])C43C5([H])C([H])(O[H])C(C([H])([H])[H])(C([H])([H])[H])C2([H])C([H])([H])C1([H])[H]

$$$$
104:0:2
     RDKit          3D

 68 72  0  0  1  0  0  0  0  0999 V2000
   -1.7452   -7.9947    3.8834 C   0  0  0  0  0  0  0  0  0  0  0  0
   -0.5194   -7.2800    3.3111 C   0  0  2  0  0  0  0  0  0  0  0  0
   -0.1838   -7.7694    1.8875 C   0  0  0  0  0  0  0  0  0  0  0  0
    1.1877   -7.3187    1.3318 C   0  0  1  0  0  0  0  0  0  0  0  0
    1.0124   -6.0492    0.7257 O   0  0  0  0  0  0  0  0  0  0  0  0
    2.3614   -7.3308    2.3721 C   0  0  1  0  0  0  0  0  0  0  0  0
    2.6531   -8.8439    2.7649 C   0  0  1  0  0  0  0  0  0  0  0  0
    3.9536   -9.0374    3.3062 O   0  0  0  0  0  0  0  0  0  0  0  0
    5.0205   -8.5520    2.5758 C   0  0  0  0  0  0  0  0  0  0  0  0
    6.2557   -8.7145    3.4708 C   0  0  0  0  0  0  0  0  0  0  0  0
    5.2228   -9.3413    1.2607 C   0  0  0  0  0  0  0  0  0  0  0  0
    4.8703   -7.1911    2.3457 O   0  0  0  0  0  0  0  0  0  0  0  0
    3.6722   -6.7773    1.6903 C   0  0  2  0  0  0  0  0  0  0  0  0
    3.8873   -5.2535    1.4391 C   0  0  1  0  0  0  0  0  0  0  0  0
    3.3969   -4.9100    0.1370 O   0  0  0  0  0  0  0  0  0  0  0  0
    3.9122   -3.7138   -0.3754 C   0  0  1  0  0  0  0  0  0  0  0  0
    3.4410   -3.4793   -1.6815 O   0  0  0  0  0  0  0  0  0  0  0  0
    3.4720   -2.5579    0.5321 C   0  0  0  0  0  0  0  0  0  0  0  0
    3.9137   -2.8322    1.9742 C   0  0  0  0  0  0  0  0  0  0  0  0
    3.3760   -4.2008    2.4632 C   0  0  2  0  0  0  0  0  0  0  0  0
    3.6403   -4.5094    3.9883 C   0  0  0  0  0  0  0  0  0  0  0  0
    5.1621   -4.5140    4.2866 C   0  0  0  0  0  0  0  0  0  0  0  0
    3.0519   -3.3484    4.8334 C   0  0  0  0  0  0  0  0  0  0  0  0
    2.9342   -5.8318    4.5125 C   0  0  2  0  0  0  0  0  0  0  0  0
    3.8490   -6.7888    5.0034 O   0  0  0  0  0  0  0  0  0  0  0  0
    1.8652   -6.4867    3.5853 C   0  0  2  0  0  0  0  0  0  0  0  0
    0.6929   -7.2236    4.2805 C   0  0  2  0  0  0  0  0  0  0  0  0
    1.1210   -8.5836    4.8581 C   0  0  0  0  0  0  0  0  0  0  0  0
    1.7570   -9.5333    3.8357 C   0  0  1  0  0  0  0  0  0  0  0  0
    0.8202  -10.4277    3.2709 O   0  0  0  0  0  0  0  0  0  0  0  0
   -1.5720   -9.0647    3.9864 H   0  0  0  0  0  0  0  0  0  0  0  0
   -2.6083   -7.8634    3.2325 H   0  0  0  0  0  0  0  0  0  0  0  0
   -1.9981   -7.6018    4.8681 H   0  0  0  0  0  0  0  0  0  0  0  0
   -0.8413   -6.2530    3.1952 H   0  0  0  0  0  0  0  0  0  0  0  0
   -0.2456   -8.8507    1.8396 H   0  0  0  0  0  0  0  0  0  0  0  0
   -0.9717   -7.4580    1.2005 H   0  0  0  0  0  0  0  0  0  0  0  0
    1.4178   -7.9970    0.5155 H   0  0  0  0  0  0  0  0  0  0  0  0
    1.8338   -5.7883    0.3122 H   0  0  0  0  0  0  0  0  0  0  0  0
    2.5930   -9.4557    1.8645 H   0  0  0  0  0  0  0  0  0  0  0  0
    6.1242   -8.1720    4.4059 H   0  0  0  0  0  0  0  0  0  0  0  0
    7.1415   -8.3345    2.9599 H   0  0  0  0  0  0  0  0  0  0  0  0
    6.4056   -9.7701    3.6999 H   0  0  0  0  0  0  0  0  0  0  0  0
    4.3609   -9.2961    0.5986 H   0  0  0  0  0  0  0  0  0  0  0  0
    5.4150  -10.3888    1.4886 H   0  0  0  0  0  0  0  0  0  0  0  0
    6.0866   -8.9459    0.7288 H   0  0  0  0  0  0  0  0  0  0  0  0
    3.7207   -7.2197    0.6967 H   0  0  0  0  0  0  0  0  0  0  0  0
    4.9730   -5.1328    1.3808 H   0  0  0  0  0  0  0  0  0  0  0  0
    5.0003   -3.7861   -0.4432 H   0  0  0  0  0  0  0  0  0  0  0  0
    3.4199   -4.3211   -2.1262 H   0  0  0  0  0  0  0  0  0  0  0  0
    3.9244   -1.6344    0.1643 H   0  0  0  0  0  0  0  0  0  0  0  0
    2.3885   -2.4482    0.4757 H   0  0  0  0  0  0  0  0  0  0  0  0
    5.0007   -2.7843    2.0387 H   0  0  0  0  0  0  0  0  0  0  0  0
    3.5274   -2.0124    2.5762 H   0  0  0  0  0  0  0  0  0  0  0  0
    2.3051   -4.0963    2.3271 H   0  0  0  0  0  0  0  0  0  0  0  0
    5.3613   -4.6998    5.3439 H   0  0  0  0  0  0  0  0  0  0  0  0
    5.6219   -3.5548    4.0539 H   0  0  0  0  0  0  0  0  0  0  0  0
    5.6962   -5.2745    3.7186 H   0  0  0  0  0  0  0  0  0  0  0  0
    3.1330   -3.5487    5.9032 H   0  0  0  0  0  0  0  0  0  0  0  0
    1.9964   -3.1819    4.6060 H   0  0  0  0  0  0  0  0  0  0  0  0
    3.5803   -2.4076    4.6793 H   0  0  0  0  0  0  0  0  0  0  0  0
    2.3868   -5.5594    5.4159 H   0  0  0  0  0  0  0  0  0  0  0  0
    4.2883   -7.1839    4.2627 H   0  0  0  0  0  0  0  0  0  0  0  0
    1.3347   -5.6243    3.2035 H   0  0  0  0  0  0  0  0  0  0  0  0
    0.3719   -6.6195    5.1307 H   0  0  0  0  0  0  0  0  0  0  0  0
    1.8681   -8.3814    5.6255 H   0  0  0  0  0  0  0  0  0  0  0  0
    0.3064   -9.0715    5.3983 H   0  0  0  0  0  0  0  0  0  0  0  0
    2.3870  -10.2139    4.4130 H   0  0  0  0  0  0  0  0  0  0  0  0
    0.1978   -9.9366    2.7646 H   0  0  0  0  0  0  0  0  0  0  0  0
  1  2  1  0
  1 31  1  0
  1 32  1  0
  1 33  1  0
  2 27  1  0
  2  3  1  0
  2 34  1  6
  3  4  1  0
  3 35  1  0
  3 36  1  0
  4  5  1  0
  6  4  1  6
  4 37  1  6
  5 38  1  0
  6 13  1  0
  6 26  1  0
  6  7  1  0
  7 29  1  0
  7  8  1  0
  7 39  1  6
  8  9  1  0
  9 10  1  0
  9 11  1  0
  9 12  1  0
 10 40  1  0
 10 41  1  0
 10 42  1  0
 11 43  1  0
 11 44  1  0
 11 45  1  0
 12 13  1  0
 13 14  1  0
 13 46  1  6
 14 20  1  0
 14 15  1  0
 14 47  1  6
 15 16  1  0
 16 17  1  0
 16 18  1  0
 16 48  1  6
 17 49  1  0
 18 19  1  0
 18 50  1  0
 18 51  1  0
 19 20  1  0
 19 52  1  0
 19 53  1  0
 20 21  1  0
 20 54  1  1
 21 22  1  0
 21 23  1  0
 21 24  1  0
 22 55  1  0
 22 56  1  0
 22 57  1  0
 23 58  1  0
 23 59  1  0
 23 60  1  0
 24 25  1  0
 24 26  1  0
 24 61  1  1
 25 62  1  0
 26 27  1  0
 26 63  1  6
 27 28  1  0
 27 64  1  1
 28 29  1  0
 28 65  1  0
 28 66  1  0
 29 30  1  0
 29 67  1  1
 30 68  1  0
M  END
>  <i_m_ct_stereo_status>  (319) 
1

>  <s_m_source_file>  (319) 
/var/tmp/pbs.5076255.sched01/tmp2gjrvvgn/102_qij5c5l.sdf

>  <i_m_source_file_index>  (319) 
30

>  <i_lp_mmshare_version>  (319) 
48012

>  <i_f3d_flags>  (319) 
0

>  <s_epik_input>  (319) 
W09IXVtDQEBIXTFbQ0gyXVtDQEBIXShbQ0gzXSlbQ0BASF0oW0NIMl1bQ0BIXTJbT0hdKVtDQEhdM1tDSF0oW09IXSlDKFtDSDNdKShbQ0gzXSlbQ0BASF0oW0NIMl1bQ0gyXVtDQEBIXShPNClbT0hdKVtDQEhdNFtDQEhdNU9DKFtDSDNdKShbQ0gzXSlPW0NAQEhdMltDQEBdMTM1

>  <s_epik_cmdline>  (319) 
J2VwaWtfcHl0aG9uJywgJy1waHQnLCAnMi4wJywgJy1waCcsICc3LjAnLCAnLXRuJywgJzgnLCAnLW1hJywgJzIwMCcsICctaW1hZScsICc8aW5maWxlLm1hZT4nLCAnLW9tYWUnLCAnPG91dGZpbGUubWFlPic=

>  <r_lp_tautomer_probability>  (319) 
1

>  <r_epik_Ionization_Penalty>  (319) 
4.95983e-07

>  <r_epik_Ionization_Penalty_Charging>  (319) 
0

>  <r_epik_Ionization_Penalty_Neutral>  (319) 
4.95983e-07

>  <r_epik_State_Penalty>  (319) 
-0

>  <r_epik_Charging_Adjusted_Penalty>  (319) 
0

>  <i_epik_Tot_Q>  (319) 
0

>  <i_epik_Tot_abs_Q>  (319) 
0

>  <s_epik_Chemistry_Notes>  (319) 
This compound contains an acetal/aminal-like group ( X-CH(R)-Y where X, Y are N, S, or O) that may be acid/base labile, releasing an aldehyde.

>  <s_lp_Force_Field>  (319) 
OPLS3e

>  <r_lp_Energy>  (319) 
74.5811

>  <b_lp_Chiralities_Consistent>  (319) 
1

>  <s_lp_Variant>  (319) 
104:0-1

>  <s_i_glide_gridfile>  (319) 
pfpi4k_grid

>  <i_i_glide_lignum>  (319) 
30

>  <i_i_glide_rotatable_bonds>  (319) 
4

>  <r_i_docking_score>  (319) 
-3.50795

>  <r_i_glide_ligand_efficiency>  (319) 
-0.116932

>  <r_i_glide_ligand_efficiency_sa>  (319) 
-0.363334

>  <r_i_glide_ligand_efficiency_ln>  (319) 
-0.797045

>  <r_i_glide_gscore>  (319) 
-3.50795

>  <r_i_glide_lipo>  (319) 
-0.0722308

>  <r_i_glide_hbond>  (319) 
0

>  <r_i_glide_metal>  (319) 
-0

>  <r_i_glide_rewards>  (319) 
-1.00084

>  <r_i_glide_evdw>  (319) 
-26.9524

>  <r_i_glide_ecoul>  (319) 
-7.2177

>  <r_i_glide_erotb>  (319) 
0

>  <r_i_glide_esite>  (319) 
-0.00460831

>  <r_i_glide_emodel>  (319) 
-46.3052

>  <r_i_glide_energy>  (319) 
-34.1701

>  <r_i_glide_einternal>  (319) 
1.25119

>  <r_i_glide_intrahb_reward>  (319) 
-0.5

>  <i_i_glide_confnum>  (319) 
2

>  <i_i_glide_posenum>  (319) 
40

>  <r_i_glide_eff_state_penalty>  (319) 
0

>  <ligand_id>  (319) 
104

>  <original_smiles>  (319) 
CC1CC(O)C23C4OC(C)(C)OC2C2OC(O)CCC2C(C)(C)C(O)C3C1CC4O

>  <smiles>  (319) 
[H]OC1([H])OC2([H])C3([H])OC(C([H])([H])[H])(C([H])([H])[H])OC4([H])C([H])(O[H])C([H])([H])C5([H])C([H])(C([H])([H])[H])C([H])([H])C([H])(O[H])C43C5([H])C([H])(O[H])C(C([H])([H])[H])(C([H])([H])[H])C2([H])C([H])([H])C1([H])[H]

$$$$
106:0:0
     RDKit          3D

 20 20  0  0  1  0  0  0  0  0999 V2000
    3.0042    5.1598    2.8953 C   0  0  0  0  0  0  0  0  0  0  0  0
    2.4712    3.7242    2.8871 C   0  0  0  0  0  0  0  0  0  0  0  0
    1.4683    3.6201    3.8752 O   0  0  0  0  0  0  0  0  0  0  0  0
    0.7561    2.4859    4.0042 C   0  0  0  0  0  0  0  0  0  0  0  0
    0.9255    1.4697    3.3333 O   0  0  0  0  0  0  0  0  0  0  0  0
   -0.2456    2.6030    5.0927 C   0  0  0  0  0  0  0  0  0  0  0  0
   -0.4904    3.8117    5.7787 C   0  0  0  0  0  0  0  0  0  0  0  0
   -1.3918    3.9009    6.7628 N   0  0  0  0  0  0  0  0  0  0  0  0
   -2.0966    2.8119    7.1206 C   0  0  0  0  0  0  0  0  0  0  0  0
   -3.2524    2.9797    8.3879 Cl  0  0  0  0  0  0  0  0  0  0  0  0
   -1.9060    1.5924    6.5090 N   0  0  0  0  0  0  0  0  0  0  0  0
   -2.5688    0.5518    6.8792 O   0  0  0  0  0  0  0  0  0  0  0  0
   -0.9949    1.4822    5.4989 C   0  0  0  0  0  0  0  0  0  0  0  0
    3.7872    5.2594    2.1564 H   0  0  0  0  0  0  0  0  0  0  0  0
    3.4403    5.4258    3.8597 H   0  0  0  0  0  0  0  0  0  0  0  0
    2.2199    5.8748    2.6607 H   0  0  0  0  0  0  0  0  0  0  0  0
    2.0703    3.4815    1.9034 H   0  0  0  0  0  0  0  0  0  0  0  0
    3.2769    3.0264    3.1040 H   0  0  0  0  0  0  0  0  0  0  0  0
    0.0263    4.7322    5.5437 H   0  0  0  0  0  0  0  0  0  0  0  0
   -0.9028    0.4946    5.0777 H   0  0  0  0  0  0  0  0  0  0  0  0
  1  2  1  0
  1 14  1  0
  1 15  1  0
  1 16  1  0
  2  3  1  0
  2 17  1  0
  2 18  1  0
  3  4  1  0
  4  5  2  0
  4  6  1  0
  6 13  2  0
  6  7  1  0
  7  8  2  0
  7 19  1  0
  8  9  1  0
  9 10  1  0
  9 11  2  0
 11 12  1  0
 11 13  1  0
 13 20  1  0
M  CHG  2  11   1  12  -1
M  END
>  <i_m_ct_stereo_status>  (320) 
1

>  <s_m_source_file>  (320) 
/var/tmp/pbs.5076255.sched01/tmp2gjrvvgn/102_qij5c5l.sdf

>  <i_m_source_file_index>  (320) 
32

>  <i_lp_mmshare_version>  (320) 
48012

>  <i_f3d_flags>  (320) 
0

>  <s_epik_input>  (320) 
W0NIM11bQ0gyXU9DKD1PKWMxW2NIXW5jKENsKVtuK10oW08tXSlbY0hdMQ==

>  <s_epik_cmdline>  (320) 
J2VwaWtfcHl0aG9uJywgJy1waHQnLCAnMi4wJywgJy1waCcsICc3LjAnLCAnLXRuJywgJzgnLCAnLW1hJywgJzIwMCcsICctaW1hZScsICc8aW5maWxlLm1hZT4nLCAnLW9tYWUnLCAnPG91dGZpbGUubWFlPic=

>  <r_lp_tautomer_probability>  (320) 
1

>  <r_epik_Ionization_Penalty>  (320) 
2.50528e-10

>  <r_epik_Ionization_Penalty_Charging>  (320) 
2.50483e-10

>  <r_epik_Ionization_Penalty_Neutral>  (320) 
4.49929e-14

>  <r_epik_State_Penalty>  (320) 
-0

>  <r_epik_Charging_Adjusted_Penalty>  (320) 
2.50483e-10

>  <i_epik_Tot_Q>  (320) 
0

>  <i_epik_Tot_abs_Q>  (320) 
2

>  <s_epik_Chemistry_Notes>  (320) 
This compound has an ester and may undergo hydrolysis at high or low pH. This compound contains an electron-poor aromatic ring that is susceptible to covalent hydrolysis at low pH, typically resulting in measured values for nitrogen ring protonation that are around two units higher than predicted values.

>  <s_lp_Force_Field>  (320) 
OPLS3e

>  <r_lp_Energy>  (320) 
10.0369

>  <b_lp_Chiralities_Consistent>  (320) 
1

>  <s_lp_Variant>  (320) 
106:0-1

>  <s_i_glide_gridfile>  (320) 
pfpi4k_grid

>  <i_i_glide_lignum>  (320) 
32

>  <i_i_glide_rotatable_bonds>  (320) 
3

>  <r_i_docking_score>  (320) 
-5.61138

>  <r_i_glide_ligand_efficiency>  (320) 
-0.431644

>  <r_i_glide_ligand_efficiency_sa>  (320) 
-1.01494

>  <r_i_glide_ligand_efficiency_ln>  (320) 
-1.57404

>  <r_i_glide_gscore>  (320) 
-5.61138

>  <r_i_glide_lipo>  (320) 
-0.121372

>  <r_i_glide_hbond>  (320) 
-0.180509

>  <r_i_glide_metal>  (320) 
-0

>  <r_i_glide_rewards>  (320) 
-2.13418

>  <r_i_glide_evdw>  (320) 
-12.5506

>  <r_i_glide_ecoul>  (320) 
-19.2282

>  <r_i_glide_erotb>  (320) 
0.399647

>  <r_i_glide_esite>  (320) 
-0.0631968

>  <r_i_glide_emodel>  (320) 
-40.0503

>  <r_i_glide_energy>  (320) 
-31.7788

>  <r_i_glide_einternal>  (320) 
0.844412

>  <r_i_glide_intrahb_reward>  (320) 
-0

>  <i_i_glide_confnum>  (320) 
4

>  <i_i_glide_posenum>  (320) 
3

>  <r_i_glide_eff_state_penalty>  (320) 
0

>  <ligand_id>  (320) 
106

>  <original_smiles>  (320) 
CCOC(=O)c1cnc(Cl)[n+]([O-])c1

>  <smiles>  (320) 
[H]c1nc(Cl)[n+]([O-])c([H])c1C(=O)OC([H])([H])C([H])([H])[H]

$$$$
106:0:1
     RDKit          3D

 20 20  0  0  1  0  0  0  0  0999 V2000
    2.4131    0.3816   -4.9851 C   0  0  0  0  0  0  0  0  0  0  0  0
    3.8087    0.2208   -4.3823 C   0  0  0  0  0  0  0  0  0  0  0  0
    3.7698   -0.4304   -3.1217 O   0  0  0  0  0  0  0  0  0  0  0  0
    3.5417   -1.7550   -3.0264 C   0  0  0  0  0  0  0  0  0  0  0  0
    3.4229   -2.5075   -3.9953 O   0  0  0  0  0  0  0  0  0  0  0  0
    3.4452   -2.2087   -1.6179 C   0  0  0  0  0  0  0  0  0  0  0  0
    3.9360   -1.4423   -0.5483 C   0  0  0  0  0  0  0  0  0  0  0  0
    3.8536   -1.8608    0.7252 N   0  0  0  0  0  0  0  0  0  0  0  0
    3.2654   -3.0495    0.9918 C   0  0  0  0  0  0  0  0  0  0  0  0
    3.1704   -3.5323    2.6489 Cl  0  0  0  0  0  0  0  0  0  0  0  0
    2.7544   -3.8558    0.0018 N   0  0  0  0  0  0  0  0  0  0  0  0
    2.1960   -4.9831    0.2880 O   0  0  0  0  0  0  0  0  0  0  0  0
    2.8361   -3.4395   -1.2988 C   0  0  0  0  0  0  0  0  0  0  0  0
    2.4657    0.9052   -5.9334 H   0  0  0  0  0  0  0  0  0  0  0  0
    1.7509    0.9429   -4.3279 H   0  0  0  0  0  0  0  0  0  0  0  0
    1.9354   -0.5826   -5.1224 H   0  0  0  0  0  0  0  0  0  0  0  0
    4.4709   -0.3153   -5.0658 H   0  0  0  0  0  0  0  0  0  0  0  0
    4.2301    1.2171   -4.2341 H   0  0  0  0  0  0  0  0  0  0  0  0
    4.4051   -0.4775   -0.6995 H   0  0  0  0  0  0  0  0  0  0  0  0
    2.3891   -4.1080   -2.0182 H   0  0  0  0  0  0  0  0  0  0  0  0
  1  2  1  0
  1 14  1  0
  1 15  1  0
  1 16  1  0
  2  3  1  0
  2 17  1  0
  2 18  1  0
  3  4  1  0
  4  5  2  0
  4  6  1  0
  6 13  2  0
  6  7  1  0
  7  8  2  0
  7 19  1  0
  8  9  1  0
  9 10  1  0
  9 11  2  0
 11 12  1  0
 11 13  1  0
 13 20  1  0
M  CHG  2  11   1  12  -1
M  END
>  <i_m_ct_stereo_status>  (321) 
1

>  <s_m_source_file>  (321) 
/var/tmp/pbs.5076255.sched01/tmp2gjrvvgn/102_qij5c5l.sdf

>  <i_m_source_file_index>  (321) 
32

>  <i_lp_mmshare_version>  (321) 
48012

>  <i_f3d_flags>  (321) 
0

>  <s_epik_input>  (321) 
W0NIM11bQ0gyXU9DKD1PKWMxW2NIXW5jKENsKVtuK10oW08tXSlbY0hdMQ==

>  <s_epik_cmdline>  (321) 
J2VwaWtfcHl0aG9uJywgJy1waHQnLCAnMi4wJywgJy1waCcsICc3LjAnLCAnLXRuJywgJzgnLCAnLW1hJywgJzIwMCcsICctaW1hZScsICc8aW5maWxlLm1hZT4nLCAnLW9tYWUnLCAnPG91dGZpbGUubWFlPic=

>  <r_lp_tautomer_probability>  (321) 
1

>  <r_epik_Ionization_Penalty>  (321) 
2.50528e-10

>  <r_epik_Ionization_Penalty_Charging>  (321) 
2.50483e-10

>  <r_epik_Ionization_Penalty_Neutral>  (321) 
4.49929e-14

>  <r_epik_State_Penalty>  (321) 
-0

>  <r_epik_Charging_Adjusted_Penalty>  (321) 
2.50483e-10

>  <i_epik_Tot_Q>  (321) 
0

>  <i_epik_Tot_abs_Q>  (321) 
2

>  <s_epik_Chemistry_Notes>  (321) 
This compound has an ester and may undergo hydrolysis at high or low pH. This compound contains an electron-poor aromatic ring that is susceptible to covalent hydrolysis at low pH, typically resulting in measured values for nitrogen ring protonation that are around two units higher than predicted values.

>  <s_lp_Force_Field>  (321) 
OPLS3e

>  <r_lp_Energy>  (321) 
10.0369

>  <b_lp_Chiralities_Consistent>  (321) 
1

>  <s_lp_Variant>  (321) 
106:0-1

>  <s_i_glide_gridfile>  (321) 
pfpi4k_grid

>  <i_i_glide_lignum>  (321) 
32

>  <i_i_glide_rotatable_bonds>  (321) 
3

>  <r_i_docking_score>  (321) 
-4.27458

>  <r_i_glide_ligand_efficiency>  (321) 
-0.328814

>  <r_i_glide_ligand_efficiency_sa>  (321) 
-0.773151

>  <r_i_glide_ligand_efficiency_ln>  (321) 
-1.19906

>  <r_i_glide_gscore>  (321) 
-4.27458

>  <r_i_glide_lipo>  (321) 
-0.233497

>  <r_i_glide_hbond>  (321) 
-0.146303

>  <r_i_glide_metal>  (321) 
-0

>  <r_i_glide_rewards>  (321) 
-2.35559

>  <r_i_glide_evdw>  (321) 
-18.9572

>  <r_i_glide_ecoul>  (321) 
-6.34304

>  <r_i_glide_erotb>  (321) 
0.399647

>  <r_i_glide_esite>  (321) 
-0.0395161

>  <r_i_glide_emodel>  (321) 
-31.4241

>  <r_i_glide_energy>  (321) 
-25.3002

>  <r_i_glide_einternal>  (321) 
0.906864

>  <r_i_glide_intrahb_reward>  (321) 
-0

>  <i_i_glide_confnum>  (321) 
4

>  <i_i_glide_posenum>  (321) 
32

>  <r_i_glide_eff_state_penalty>  (321) 
0

>  <ligand_id>  (321) 
106

>  <original_smiles>  (321) 
CCOC(=O)c1cnc(Cl)[n+]([O-])c1

>  <smiles>  (321) 
[H]c1nc(Cl)[n+]([O-])c([H])c1C(=O)OC([H])([H])C([H])([H])[H]

$$$$
106:0:2
     RDKit          3D

 20 20  0  0  1  0  0  0  0  0999 V2000
    3.0201   -0.6559   -4.3173 C   0  0  0  0  0  0  0  0  0  0  0  0
    2.7856   -2.0978   -3.8399 C   0  0  0  0  0  0  0  0  0  0  0  0
    3.9050   -2.5010   -3.0669 O   0  0  0  0  0  0  0  0  0  0  0  0
    3.7520   -3.0578   -1.8466 C   0  0  0  0  0  0  0  0  0  0  0  0
    2.6733   -3.3624   -1.3382 O   0  0  0  0  0  0  0  0  0  0  0  0
    5.0562   -3.2728   -1.1676 C   0  0  0  0  0  0  0  0  0  0  0  0
    6.2665   -2.7919   -1.6955 C   0  0  0  0  0  0  0  0  0  0  0  0
    7.4416   -2.9498   -1.0640 N   0  0  0  0  0  0  0  0  0  0  0  0
    7.4696   -3.6288    0.1062 C   0  0  0  0  0  0  0  0  0  0  0  0
    9.0134   -3.8572    0.8481 Cl  0  0  0  0  0  0  0  0  0  0  0  0
    6.3311   -4.1403    0.6854 N   0  0  0  0  0  0  0  0  0  0  0  0
    6.3848   -4.7769    1.8003 O   0  0  0  0  0  0  0  0  0  0  0  0
    5.1278   -3.9610    0.0602 C   0  0  0  0  0  0  0  0  0  0  0  0
    2.1761   -0.3022   -4.9101 H   0  0  0  0  0  0  0  0  0  0  0  0
    3.9145   -0.5785   -4.9359 H   0  0  0  0  0  0  0  0  0  0  0  0
    3.1325    0.0219   -3.4691 H   0  0  0  0  0  0  0  0  0  0  0  0
    1.8505   -2.1518   -3.2789 H   0  0  0  0  0  0  0  0  0  0  0  0
    2.6790   -2.7707   -4.6916 H   0  0  0  0  0  0  0  0  0  0  0  0
    6.3074   -2.2677   -2.6381 H   0  0  0  0  0  0  0  0  0  0  0  0
    4.2792   -4.3830    0.5794 H   0  0  0  0  0  0  0  0  0  0  0  0
  1  2  1  0
  1 14  1  0
  1 15  1  0
  1 16  1  0
  2  3  1  0
  2 17  1  0
  2 18  1  0
  3  4  1  0
  4  5  2  0
  4  6  1  0
  6 13  2  0
  6  7  1  0
  7  8  2  0
  7 19  1  0
  8  9  1  0
  9 10  1  0
  9 11  2  0
 11 12  1  0
 11 13  1  0
 13 20  1  0
M  CHG  2  11   1  12  -1
M  END
>  <i_m_ct_stereo_status>  (322) 
1

>  <s_m_source_file>  (322) 
/var/tmp/pbs.5076255.sched01/tmp2gjrvvgn/102_qij5c5l.sdf

>  <i_m_source_file_index>  (322) 
32

>  <i_lp_mmshare_version>  (322) 
48012

>  <i_f3d_flags>  (322) 
0

>  <s_epik_input>  (322) 
W0NIM11bQ0gyXU9DKD1PKWMxW2NIXW5jKENsKVtuK10oW08tXSlbY0hdMQ==

>  <s_epik_cmdline>  (322) 
J2VwaWtfcHl0aG9uJywgJy1waHQnLCAnMi4wJywgJy1waCcsICc3LjAnLCAnLXRuJywgJzgnLCAnLW1hJywgJzIwMCcsICctaW1hZScsICc8aW5maWxlLm1hZT4nLCAnLW9tYWUnLCAnPG91dGZpbGUubWFlPic=

>  <r_lp_tautomer_probability>  (322) 
1

>  <r_epik_Ionization_Penalty>  (322) 
2.50528e-10

>  <r_epik_Ionization_Penalty_Charging>  (322) 
2.50483e-10

>  <r_epik_Ionization_Penalty_Neutral>  (322) 
4.49929e-14

>  <r_epik_State_Penalty>  (322) 
-0

>  <r_epik_Charging_Adjusted_Penalty>  (322) 
2.50483e-10

>  <i_epik_Tot_Q>  (322) 
0

>  <i_epik_Tot_abs_Q>  (322) 
2

>  <s_epik_Chemistry_Notes>  (322) 
This compound has an ester and may undergo hydrolysis at high or low pH. This compound contains an electron-poor aromatic ring that is susceptible to covalent hydrolysis at low pH, typically resulting in measured values for nitrogen ring protonation that are around two units higher than predicted values.

>  <s_lp_Force_Field>  (322) 
OPLS3e

>  <r_lp_Energy>  (322) 
10.0369

>  <b_lp_Chiralities_Consistent>  (322) 
1

>  <s_lp_Variant>  (322) 
106:0-1

>  <s_i_glide_gridfile>  (322) 
pfpi4k_grid

>  <i_i_glide_lignum>  (322) 
32

>  <i_i_glide_rotatable_bonds>  (322) 
3

>  <r_i_docking_score>  (322) 
-3.59646

>  <r_i_glide_ligand_efficiency>  (322) 
-0.276651

>  <r_i_glide_ligand_efficiency_sa>  (322) 
-0.650499

>  <r_i_glide_ligand_efficiency_ln>  (322) 
-1.00884

>  <r_i_glide_gscore>  (322) 
-3.59646

>  <r_i_glide_lipo>  (322) 
-0.470048

>  <r_i_glide_hbond>  (322) 
0

>  <r_i_glide_metal>  (322) 
-0

>  <r_i_glide_rewards>  (322) 
-2.38712

>  <r_i_glide_evdw>  (322) 
-20.5997

>  <r_i_glide_ecoul>  (322) 
-0.626909

>  <r_i_glide_erotb>  (322) 
0.399647

>  <r_i_glide_esite>  (322) 
-0.0149227

>  <r_i_glide_emodel>  (322) 
-26.1916

>  <r_i_glide_energy>  (322) 
-21.2266

>  <r_i_glide_einternal>  (322) 
1.19276

>  <r_i_glide_intrahb_reward>  (322) 
-0

>  <i_i_glide_confnum>  (322) 
4

>  <i_i_glide_posenum>  (322) 
4

>  <r_i_glide_eff_state_penalty>  (322) 
0

>  <ligand_id>  (322) 
106

>  <original_smiles>  (322) 
CCOC(=O)c1cnc(Cl)[n+]([O-])c1

>  <smiles>  (322) 
[H]c1nc(Cl)[n+]([O-])c([H])c1C(=O)OC([H])([H])C([H])([H])[H]

$$$$
