0:0:0
     RDKit          3D

 51 54  0  0  1  0  0  0  0  0999 V2000
    0.8331    1.1859    1.9041 C   0  0  0  0  0  0  0  0  0  0  0  0
    2.2407    0.6503    2.1259 C   0  0  0  0  0  0  0  0  0  0  0  0
    3.0526    1.2717    2.8075 O   0  0  0  0  0  0  0  0  0  0  0  0
    2.4534   -0.5452    1.5410 O   0  0  0  0  0  0  0  0  0  0  0  0
    3.6607   -1.2867    1.7402 C   0  0  2  0  0  0  0  0  0  0  0  0
    4.2706   -1.8178    0.4283 C   0  0  0  0  0  0  0  0  0  0  0  0
    3.8309   -1.4107   -0.7804 C   0  0  0  0  0  0  0  0  0  0  0  0
    4.4147   -1.7961   -2.0511 C   0  0  0  0  0  0  0  0  0  0  0  0
    3.9939   -1.0849   -3.3192 C   0  0  0  0  0  0  0  0  0  0  0  0
    5.3466   -2.7724   -2.0744 C   0  0  0  0  0  0  0  0  0  0  0  0
    5.8643   -3.4590   -0.8268 C   0  0  2  0  0  0  0  0  0  0  0  0
    5.1745   -4.7725   -0.4703 C   0  0  0  0  0  0  0  0  0  0  0  0
    5.1570   -4.2206    0.9468 C   0  0  0  0  0  0  0  0  0  0  0  0
    4.9609   -4.9009    2.1027 C   0  0  0  0  0  0  0  0  0  0  0  0
    4.7392   -6.4079    2.1065 C   0  0  0  0  0  0  0  0  0  0  0  0
    4.8700   -4.3200    3.5145 C   0  0  0  0  0  0  0  0  0  0  0  0
    4.4487   -2.8597    3.6032 C   0  0  1  0  0  0  0  0  0  0  0  0
    3.3107   -2.4244    2.7011 C   0  0  1  0  0  0  0  0  0  0  0  0
    3.1643   -2.3281    4.2060 C   0  0  0  0  0  0  0  0  0  0  0  0
    2.1687   -3.2399    4.9083 C   0  0  0  0  0  0  0  0  0  0  0  0
    3.1973   -0.9764    4.8986 C   0  0  0  0  0  0  0  0  0  0  0  0
    5.4851   -2.7743    0.5230 C   0  0  2  0  0  0  0  0  0  0  0  0
    6.7013   -2.0964    1.1680 C   0  0  0  0  0  0  0  0  0  0  0  0
    0.7150    1.5079    0.8768 H   0  0  0  0  0  0  0  0  0  0  0  0
    0.6545    2.0587    2.5285 H   0  0  0  0  0  0  0  0  0  0  0  0
    0.0716    0.4368    2.1140 H   0  0  0  0  0  0  0  0  0  0  0  0
    4.4189   -0.6522    2.1982 H   0  0  0  0  0  0  0  0  0  0  0  0
    2.9988   -0.7226   -0.8209 H   0  0  0  0  0  0  0  0  0  0  0  0
    2.9439   -1.2961   -3.5318 H   0  0  0  0  0  0  0  0  0  0  0  0
    4.5857   -1.3945   -4.1807 H   0  0  0  0  0  0  0  0  0  0  0  0
    4.1057   -0.0026   -3.2019 H   0  0  0  0  0  0  0  0  0  0  0  0
    5.7982   -3.0787   -3.0078 H   0  0  0  0  0  0  0  0  0  0  0  0
    6.9444   -3.5952   -0.9137 H   0  0  0  0  0  0  0  0  0  0  0  0
    4.2018   -4.8960   -0.9556 H   0  0  0  0  0  0  0  0  0  0  0  0
    5.7922   -5.6541   -0.6621 H   0  0  0  0  0  0  0  0  0  0  0  0
    5.4935   -6.8946    2.7271 H   0  0  0  0  0  0  0  0  0  0  0  0
    4.7855   -6.8517    1.1100 H   0  0  0  0  0  0  0  0  0  0  0  0
    3.7601   -6.6428    2.5271 H   0  0  0  0  0  0  0  0  0  0  0  0
    4.1645   -4.9175    4.0855 H   0  0  0  0  0  0  0  0  0  0  0  0
    5.8282   -4.4393    4.0227 H   0  0  0  0  0  0  0  0  0  0  0  0
    5.2936   -2.2033    3.7307 H   0  0  0  0  0  0  0  0  0  0  0  0
    2.7028   -3.1910    2.2349 H   0  0  0  0  0  0  0  0  0  0  0  0
    1.1837   -2.7695    4.9398 H   0  0  0  0  0  0  0  0  0  0  0  0
    2.4973   -3.4266    5.9328 H   0  0  0  0  0  0  0  0  0  0  0  0
    2.0711   -4.1921    4.3883 H   0  0  0  0  0  0  0  0  0  0  0  0
    2.2296   -0.4886    4.7923 H   0  0  0  0  0  0  0  0  0  0  0  0
    3.9516   -0.3395    4.4370 H   0  0  0  0  0  0  0  0  0  0  0  0
    3.4147   -1.0826    5.9665 H   0  0  0  0  0  0  0  0  0  0  0  0
    6.4981   -1.6235    2.1199 H   0  0  0  0  0  0  0  0  0  0  0  0
    7.0790   -1.3069    0.5195 H   0  0  0  0  0  0  0  0  0  0  0  0
    7.5199   -2.8031    1.2867 H   0  0  0  0  0  0  0  0  0  0  0  0
  1  2  1  0
  1 24  1  0
  1 25  1  0
  1 26  1  0
  2  3  2  0
  2  4  1  0
  4  5  1  0
  5 18  1  0
  5  6  1  0
  5 27  1  1
  6 22  1  0
  6  7  2  0
  7  8  1  0
  7 28  1  0
  8  9  1  0
  8 10  2  0
  9 29  1  0
  9 30  1  0
  9 31  1  0
 10 11  1  0
 10 32  1  0
 11 22  1  0
 11 12  1  0
 11 33  1  6
 12 13  1  0
 12 34  1  0
 12 35  1  0
 13 14  2  3
 13 22  1  0
 14 15  1  0
 14 16  1  0
 15 36  1  0
 15 37  1  0
 15 38  1  0
 16 17  1  0
 16 39  1  0
 16 40  1  0
 17 19  1  0
 17 18  1  0
 17 41  1  6
 18 19  1  0
 18 42  1  6
 19 20  1  0
 19 21  1  0
 20 43  1  0
 20 44  1  0
 20 45  1  0
 21 46  1  0
 21 47  1  0
 21 48  1  0
 22 23  1  1
 23 49  1  0
 23 50  1  0
 23 51  1  0
M  END
>  <i_m_ct_stereo_status>  (1) 
1

>  <s_m_source_file>  (1) 
/var/tmp/pbs.5076255.sched01/tmp7v4tqmxt/0pyfftbwv.sdf

>  <i_m_source_file_index>  (1) 
1

>  <i_lp_mmshare_version>  (1) 
48012

>  <i_f3d_flags>  (1) 
0

>  <s_epik_input>  (1) 
W0NIM11DKD1PKU9bQ0BIXTFbQ0BIXShDMihbQ0gzXSlbQ0gzXSlbQ0BASF0yW0NIMl1DKFxbQ0gzXSk9QzNcW0NIMl1bQ0BIXTRbQ0hdPUMoW0NIM10pW0NIXT1DMVtDQEBdMzRbQ0gzXQ==

>  <s_epik_cmdline>  (1) 
J2VwaWtfcHl0aG9uJywgJy1waHQnLCAnMi4wJywgJy1waCcsICc3LjAnLCAnLXRuJywgJzgnLCAnLW1hJywgJzIwMCcsICctaW1hZScsICc8aW5maWxlLm1hZT4nLCAnLW9tYWUnLCAnPG91dGZpbGUubWFlPic=

>  <r_lp_tautomer_probability>  (1) 
1

>  <r_epik_Ionization_Penalty>  (1) 
0

>  <r_epik_Ionization_Penalty_Charging>  (1) 
0

>  <r_epik_Ionization_Penalty_Neutral>  (1) 
0

>  <r_epik_State_Penalty>  (1) 
-0

>  <r_epik_Charging_Adjusted_Penalty>  (1) 
0

>  <i_epik_Tot_Q>  (1) 
0

>  <i_epik_Tot_abs_Q>  (1) 
0

>  <s_epik_Chemistry_Notes>  (1) 
This compound has an ester and may undergo hydrolysis at high or low pH.

>  <s_lp_Force_Field>  (1) 
OPLS3e

>  <r_lp_Energy>  (1) 
18.5211

>  <b_lp_Chiralities_Consistent>  (1) 
1

>  <s_lp_Variant>  (1) 
0:0-1

>  <s_i_glide_gridfile>  (1) 
pfpi4k_grid

>  <i_i_glide_lignum>  (1) 
1

>  <i_i_glide_rotatable_bonds>  (1) 
2

>  <r_i_docking_score>  (1) 
-2.61348

>  <r_i_glide_ligand_efficiency>  (1) 
-0.11363

>  <r_i_glide_ligand_efficiency_sa>  (1) 
-0.323147

>  <r_i_glide_ligand_efficiency_ln>  (1) 
-0.631963

>  <r_i_glide_gscore>  (1) 
-2.61348

>  <r_i_glide_lipo>  (1) 
-0.536007

>  <r_i_glide_hbond>  (1) 
0

>  <r_i_glide_metal>  (1) 
-0

>  <r_i_glide_rewards>  (1) 
-1.27878

>  <r_i_glide_evdw>  (1) 
-21.6641

>  <r_i_glide_ecoul>  (1) 
0.748519

>  <r_i_glide_erotb>  (1) 
0.190119

>  <r_i_glide_esite>  (1) 
-0.0178841

>  <r_i_glide_emodel>  (1) 
-23.9079

>  <r_i_glide_energy>  (1) 
-20.9156

>  <r_i_glide_einternal>  (1) 
0.33852

>  <r_i_glide_intrahb_reward>  (1) 
-0

>  <i_i_glide_confnum>  (1) 
1

>  <i_i_glide_posenum>  (1) 
28

>  <r_i_glide_eff_state_penalty>  (1) 
0

>  <ligand_id>  (1) 
0

>  <original_smiles>  (1) 
CC(=O)OC1C2=CC(C)=CC3CC(=C(C)CC4C1C4(C)C)C23C

>  <smiles>  (1) 
[H]C1=C2C([H])(OC(=O)C([H])([H])[H])C3([H])C([H])(C([H])([H])C(C([H])([H])[H])=C4C([H])([H])C([H])(C([H])=C1C([H])([H])[H])C42C([H])([H])[H])C3(C([H])([H])[H])C([H])([H])[H]

$$$$
0:0:1
     RDKit          3D

 51 54  0  0  1  0  0  0  0  0999 V2000
   -1.0833   -2.1201    5.1781 C   0  0  0  0  0  0  0  0  0  0  0  0
   -1.1149   -0.6642    5.5953 C   0  0  0  0  0  0  0  0  0  0  0  0
   -2.1251   -0.1671    6.0857 O   0  0  0  0  0  0  0  0  0  0  0  0
    0.0484   -0.0291    5.3614 O   0  0  0  0  0  0  0  0  0  0  0  0
    0.2923    1.2768    5.8766 C   0  0  2  0  0  0  0  0  0  0  0  0
   -0.3392    2.4328    5.0745 C   0  0  0  0  0  0  0  0  0  0  0  0
   -1.2396    2.2188    4.0858 C   0  0  0  0  0  0  0  0  0  0  0  0
   -1.9242    3.2760    3.3725 C   0  0  0  0  0  0  0  0  0  0  0  0
   -3.1147    2.9384    2.5081 C   0  0  0  0  0  0  0  0  0  0  0  0
   -1.5121    4.5435    3.5165 C   0  0  0  0  0  0  0  0  0  0  0  0
   -0.4311    4.9585    4.4994 C   0  0  2  0  0  0  0  0  0  0  0  0
    0.9448    5.1226    3.8581 C   0  0  0  0  0  0  0  0  0  0  0  0
    1.4240    4.3509    5.0817 C   0  0  0  0  0  0  0  0  0  0  0  0
    2.6917    4.2616    5.5561 C   0  0  0  0  0  0  0  0  0  0  0  0
    3.8370    4.9793    4.8663 C   0  0  0  0  0  0  0  0  0  0  0  0
    3.1802    3.4264    6.7417 C   0  0  0  0  0  0  0  0  0  0  0  0
    2.3308    2.2255    7.0999 C   0  0  1  0  0  0  0  0  0  0  0  0
    1.8030    1.4021    5.9483 C   0  0  1  0  0  0  0  0  0  0  0  0
    2.7074    0.7578    6.9820 C   0  0  0  0  0  0  0  0  0  0  0  0
    4.1116    0.3375    6.5928 C   0  0  0  0  0  0  0  0  0  0  0  0
    2.1344   -0.2411    7.9652 C   0  0  0  0  0  0  0  0  0  0  0  0
    0.0218    3.8722    5.5127 C   0  0  2  0  0  0  0  0  0  0  0  0
   -0.4199    4.1853    6.9514 C   0  0  0  0  0  0  0  0  0  0  0  0
   -0.9748   -2.2029    4.0964 H   0  0  0  0  0  0  0  0  0  0  0  0
   -2.0126   -2.5967    5.4803 H   0  0  0  0  0  0  0  0  0  0  0  0
   -0.2554   -2.6461    5.6578 H   0  0  0  0  0  0  0  0  0  0  0  0
   -0.1141    1.3250    6.8909 H   0  0  0  0  0  0  0  0  0  0  0  0
   -1.4960    1.2177    3.7767 H   0  0  0  0  0  0  0  0  0  0  0  0
   -2.8175    2.2634    1.7025 H   0  0  0  0  0  0  0  0  0  0  0  0
   -3.5928    3.8199    2.0816 H   0  0  0  0  0  0  0  0  0  0  0  0
   -3.8581    2.4448    3.1334 H   0  0  0  0  0  0  0  0  0  0  0  0
   -1.9801    5.3206    2.9285 H   0  0  0  0  0  0  0  0  0  0  0  0
   -0.6966    5.8677    5.0369 H   0  0  0  0  0  0  0  0  0  0  0  0
    1.0246    4.6145    2.8928 H   0  0  0  0  0  0  0  0  0  0  0  0
    1.2173    6.1761    3.7594 H   0  0  0  0  0  0  0  0  0  0  0  0
    4.3380    5.6441    5.5707 H   0  0  0  0  0  0  0  0  0  0  0  0
    3.5209    5.5665    3.9992 H   0  0  0  0  0  0  0  0  0  0  0  0
    4.5662    4.2435    4.5289 H   0  0  0  0  0  0  0  0  0  0  0  0
    4.1876    3.0828    6.5154 H   0  0  0  0  0  0  0  0  0  0  0  0
    3.2798    4.0590    7.6228 H   0  0  0  0  0  0  0  0  0  0  0  0
    1.6797    2.4303    7.9403 H   0  0  0  0  0  0  0  0  0  0  0  0
    2.2681    1.5243    4.9689 H   0  0  0  0  0  0  0  0  0  0  0  0
    4.1126   -0.6894    6.2214 H   0  0  0  0  0  0  0  0  0  0  0  0
    4.7718    0.3995    7.4592 H   0  0  0  0  0  0  0  0  0  0  0  0
    4.4988    0.9836    5.8058 H   0  0  0  0  0  0  0  0  0  0  0  0
    2.0699   -1.2240    7.4991 H   0  0  0  0  0  0  0  0  0  0  0  0
    1.1351    0.0622    8.2705 H   0  0  0  0  0  0  0  0  0  0  0  0
    2.7618   -0.3108    8.8540 H   0  0  0  0  0  0  0  0  0  0  0  0
   -0.1024    3.4688    7.6954 H   0  0  0  0  0  0  0  0  0  0  0  0
   -1.5092    4.2011    7.0090 H   0  0  0  0  0  0  0  0  0  0  0  0
   -0.0909    5.1722    7.2724 H   0  0  0  0  0  0  0  0  0  0  0  0
  1  2  1  0
  1 24  1  0
  1 25  1  0
  1 26  1  0
  2  3  2  0
  2  4  1  0
  4  5  1  0
  5 18  1  0
  5  6  1  0
  5 27  1  1
  6 22  1  0
  6  7  2  0
  7  8  1  0
  7 28  1  0
  8  9  1  0
  8 10  2  0
  9 29  1  0
  9 30  1  0
  9 31  1  0
 10 11  1  0
 10 32  1  0
 11 22  1  0
 11 12  1  0
 11 33  1  1
 12 13  1  0
 12 34  1  0
 12 35  1  0
 13 14  2  3
 13 22  1  0
 14 15  1  0
 14 16  1  0
 15 36  1  0
 15 37  1  0
 15 38  1  0
 16 17  1  0
 16 39  1  0
 16 40  1  0
 17 19  1  0
 17 18  1  0
 17 41  1  1
 18 19  1  0
 18 42  1  6
 19 20  1  0
 19 21  1  0
 20 43  1  0
 20 44  1  0
 20 45  1  0
 21 46  1  0
 21 47  1  0
 21 48  1  0
 22 23  1  1
 23 49  1  0
 23 50  1  0
 23 51  1  0
M  END
>  <i_m_ct_stereo_status>  (2) 
1

>  <s_m_source_file>  (2) 
/var/tmp/pbs.5076255.sched01/tmp7v4tqmxt/0pyfftbwv.sdf

>  <i_m_source_file_index>  (2) 
1

>  <i_lp_mmshare_version>  (2) 
48012

>  <i_f3d_flags>  (2) 
0

>  <s_epik_input>  (2) 
W0NIM11DKD1PKU9bQ0BIXTFbQ0BIXShDMihbQ0gzXSlbQ0gzXSlbQ0BASF0yW0NIMl1DKFxbQ0gzXSk9QzNcW0NIMl1bQ0BIXTRbQ0hdPUMoW0NIM10pW0NIXT1DMVtDQEBdMzRbQ0gzXQ==

>  <s_epik_cmdline>  (2) 
J2VwaWtfcHl0aG9uJywgJy1waHQnLCAnMi4wJywgJy1waCcsICc3LjAnLCAnLXRuJywgJzgnLCAnLW1hJywgJzIwMCcsICctaW1hZScsICc8aW5maWxlLm1hZT4nLCAnLW9tYWUnLCAnPG91dGZpbGUubWFlPic=

>  <r_lp_tautomer_probability>  (2) 
1

>  <r_epik_Ionization_Penalty>  (2) 
0

>  <r_epik_Ionization_Penalty_Charging>  (2) 
0

>  <r_epik_Ionization_Penalty_Neutral>  (2) 
0

>  <r_epik_State_Penalty>  (2) 
-0

>  <r_epik_Charging_Adjusted_Penalty>  (2) 
0

>  <i_epik_Tot_Q>  (2) 
0

>  <i_epik_Tot_abs_Q>  (2) 
0

>  <s_epik_Chemistry_Notes>  (2) 
This compound has an ester and may undergo hydrolysis at high or low pH.

>  <s_lp_Force_Field>  (2) 
OPLS3e

>  <r_lp_Energy>  (2) 
18.5211

>  <b_lp_Chiralities_Consistent>  (2) 
1

>  <s_lp_Variant>  (2) 
0:0-1

>  <s_i_glide_gridfile>  (2) 
pfpi4k_grid

>  <i_i_glide_lignum>  (2) 
1

>  <i_i_glide_rotatable_bonds>  (2) 
2

>  <r_i_docking_score>  (2) 
-2.31288

>  <r_i_glide_ligand_efficiency>  (2) 
-0.10056

>  <r_i_glide_ligand_efficiency_sa>  (2) 
-0.28598

>  <r_i_glide_ligand_efficiency_ln>  (2) 
-0.559276

>  <r_i_glide_gscore>  (2) 
-2.31288

>  <r_i_glide_lipo>  (2) 
-0.00652004

>  <r_i_glide_hbond>  (2) 
-0.155713

>  <r_i_glide_metal>  (2) 
-0

>  <r_i_glide_rewards>  (2) 
-1.27878

>  <r_i_glide_evdw>  (2) 
-15.142

>  <r_i_glide_ecoul>  (2) 
-1.69968

>  <r_i_glide_erotb>  (2) 
0.190119

>  <r_i_glide_esite>  (2) 
-0.0499392

>  <r_i_glide_emodel>  (2) 
-18.8592

>  <r_i_glide_energy>  (2) 
-16.8417

>  <r_i_glide_einternal>  (2) 
1.2028

>  <r_i_glide_intrahb_reward>  (2) 
-0

>  <i_i_glide_confnum>  (2) 
3

>  <i_i_glide_posenum>  (2) 
18

>  <r_i_glide_eff_state_penalty>  (2) 
0

>  <ligand_id>  (2) 
0

>  <original_smiles>  (2) 
CC(=O)OC1C2=CC(C)=CC3CC(=C(C)CC4C1C4(C)C)C23C

>  <smiles>  (2) 
[H]C1=C2C([H])(OC(=O)C([H])([H])[H])C3([H])C([H])(C([H])([H])C(C([H])([H])[H])=C4C([H])([H])C([H])(C([H])=C1C([H])([H])[H])C42C([H])([H])[H])C3(C([H])([H])[H])C([H])([H])[H]

$$$$
0:0:2
     RDKit          3D

 51 54  0  0  1  0  0  0  0  0999 V2000
   -2.7955    2.9179    2.9513 C   0  0  0  0  0  0  0  0  0  0  0  0
   -1.6315    3.3436    3.8335 C   0  0  0  0  0  0  0  0  0  0  0  0
   -1.3848    4.5343    4.0205 O   0  0  0  0  0  0  0  0  0  0  0  0
   -0.9730    2.2906    4.3695 O   0  0  0  0  0  0  0  0  0  0  0  0
    0.1510    2.4746    5.2336 C   0  0  2  0  0  0  0  0  0  0  0  0
    1.3951    1.7133    4.7464 C   0  0  0  0  0  0  0  0  0  0  0  0
    1.4280    1.1339    3.5222 C   0  0  0  0  0  0  0  0  0  0  0  0
    2.5964    0.4799    2.9686 C   0  0  0  0  0  0  0  0  0  0  0  0
    2.6057    0.0860    1.5066 C   0  0  0  0  0  0  0  0  0  0  0  0
    3.6659    0.2601    3.7555 C   0  0  0  0  0  0  0  0  0  0  0  0
    3.7514    0.7247    5.1976 C   0  0  2  0  0  0  0  0  0  0  0  0
    3.3815   -0.3386    6.2380 C   0  0  0  0  0  0  0  0  0  0  0  0
    2.5804    0.7883    6.8756 C   0  0  0  0  0  0  0  0  0  0  0  0
    2.0805    0.8421    8.1392 C   0  0  0  0  0  0  0  0  0  0  0  0
    2.3041   -0.2995    9.1218 C   0  0  0  0  0  0  0  0  0  0  0  0
    1.2208    1.9509    8.7456 C   0  0  0  0  0  0  0  0  0  0  0  0
    0.4219    2.7789    7.7607 C   0  0  1  0  0  0  0  0  0  0  0  0
   -0.2622    2.0385    6.6312 C   0  0  1  0  0  0  0  0  0  0  0  0
   -1.0899    2.8348    7.6261 C   0  0  0  0  0  0  0  0  0  0  0  0
   -1.9974    2.1022    8.5927 C   0  0  0  0  0  0  0  0  0  0  0  0
   -1.7496    4.1252    7.1961 C   0  0  0  0  0  0  0  0  0  0  0  0
    2.6517    1.7260    5.6490 C   0  0  2  0  0  0  0  0  0  0  0  0
    3.2095    3.1350    5.8613 C   0  0  0  0  0  0  0  0  0  0  0  0
   -2.4244    2.3874    2.0770 H   0  0  0  0  0  0  0  0  0  0  0  0
   -3.3543    3.7903    2.6167 H   0  0  0  0  0  0  0  0  0  0  0  0
   -3.4716    2.2643    3.5041 H   0  0  0  0  0  0  0  0  0  0  0  0
    0.4340    3.5286    5.2666 H   0  0  0  0  0  0  0  0  0  0  0  0
    0.5511    1.1749    2.8934 H   0  0  0  0  0  0  0  0  0  0  0  0
    1.8641   -0.6918    1.3240 H   0  0  0  0  0  0  0  0  0  0  0  0
    3.5813   -0.2858    1.1918 H   0  0  0  0  0  0  0  0  0  0  0  0
    2.3579    0.9483    0.8840 H   0  0  0  0  0  0  0  0  0  0  0  0
    4.5501   -0.2180    3.3608 H   0  0  0  0  0  0  0  0  0  0  0  0
    4.7494    1.1193    5.3968 H   0  0  0  0  0  0  0  0  0  0  0  0
    2.8042   -1.1648    5.8175 H   0  0  0  0  0  0  0  0  0  0  0  0
    4.2563   -0.7162    6.7713 H   0  0  0  0  0  0  0  0  0  0  0  0
    2.8066    0.0752   10.0154 H   0  0  0  0  0  0  0  0  0  0  0  0
    2.9058   -1.1109    8.7077 H   0  0  0  0  0  0  0  0  0  0  0  0
    1.3458   -0.7195    9.4331 H   0  0  0  0  0  0  0  0  0  0  0  0
    0.5325    1.4951    9.4570 H   0  0  0  0  0  0  0  0  0  0  0  0
    1.8460    2.6169    9.3417 H   0  0  0  0  0  0  0  0  0  0  0  0
    0.9040    3.7272    7.5461 H   0  0  0  0  0  0  0  0  0  0  0  0
   -0.3703    0.9569    6.7275 H   0  0  0  0  0  0  0  0  0  0  0  0
   -2.9799    1.9525    8.1415 H   0  0  0  0  0  0  0  0  0  0  0  0
   -2.1146    2.6844    9.5093 H   0  0  0  0  0  0  0  0  0  0  0  0
   -1.5742    1.1309    8.8476 H   0  0  0  0  0  0  0  0  0  0  0  0
   -2.6680    3.9002    6.6524 H   0  0  0  0  0  0  0  0  0  0  0  0
   -1.0751    4.6781    6.5460 H   0  0  0  0  0  0  0  0  0  0  0  0
   -1.9847    4.7579    8.0519 H   0  0  0  0  0  0  0  0  0  0  0  0
    2.4844    3.8662    6.1886 H   0  0  0  0  0  0  0  0  0  0  0  0
    3.6090    3.5159    4.9180 H   0  0  0  0  0  0  0  0  0  0  0  0
    4.0424    3.1417    6.5627 H   0  0  0  0  0  0  0  0  0  0  0  0
  1  2  1  0
  1 24  1  0
  1 25  1  0
  1 26  1  0
  2  3  2  0
  2  4  1  0
  4  5  1  0
  5 18  1  0
  5  6  1  0
  5 27  1  1
  6 22  1  0
  6  7  2  0
  7  8  1  0
  7 28  1  0
  8  9  1  0
  8 10  2  0
  9 29  1  0
  9 30  1  0
  9 31  1  0
 10 11  1  0
 10 32  1  0
 11 22  1  0
 11 12  1  0
 11 33  1  1
 12 13  1  0
 12 34  1  0
 12 35  1  0
 13 14  2  3
 13 22  1  0
 14 15  1  0
 14 16  1  0
 15 36  1  0
 15 37  1  0
 15 38  1  0
 16 17  1  0
 16 39  1  0
 16 40  1  0
 17 19  1  0
 17 18  1  0
 17 41  1  6
 18 19  1  0
 18 42  1  1
 19 20  1  0
 19 21  1  0
 20 43  1  0
 20 44  1  0
 20 45  1  0
 21 46  1  0
 21 47  1  0
 21 48  1  0
 22 23  1  1
 23 49  1  0
 23 50  1  0
 23 51  1  0
M  END
>  <i_m_ct_stereo_status>  (3) 
1

>  <s_m_source_file>  (3) 
/var/tmp/pbs.5076255.sched01/tmp7v4tqmxt/0pyfftbwv.sdf

>  <i_m_source_file_index>  (3) 
1

>  <i_lp_mmshare_version>  (3) 
48012

>  <i_f3d_flags>  (3) 
0

>  <s_epik_input>  (3) 
W0NIM11DKD1PKU9bQ0BIXTFbQ0BIXShDMihbQ0gzXSlbQ0gzXSlbQ0BASF0yW0NIMl1DKFxbQ0gzXSk9QzNcW0NIMl1bQ0BIXTRbQ0hdPUMoW0NIM10pW0NIXT1DMVtDQEBdMzRbQ0gzXQ==

>  <s_epik_cmdline>  (3) 
J2VwaWtfcHl0aG9uJywgJy1waHQnLCAnMi4wJywgJy1waCcsICc3LjAnLCAnLXRuJywgJzgnLCAnLW1hJywgJzIwMCcsICctaW1hZScsICc8aW5maWxlLm1hZT4nLCAnLW9tYWUnLCAnPG91dGZpbGUubWFlPic=

>  <r_lp_tautomer_probability>  (3) 
1

>  <r_epik_Ionization_Penalty>  (3) 
0

>  <r_epik_Ionization_Penalty_Charging>  (3) 
0

>  <r_epik_Ionization_Penalty_Neutral>  (3) 
0

>  <r_epik_State_Penalty>  (3) 
-0

>  <r_epik_Charging_Adjusted_Penalty>  (3) 
0

>  <i_epik_Tot_Q>  (3) 
0

>  <i_epik_Tot_abs_Q>  (3) 
0

>  <s_epik_Chemistry_Notes>  (3) 
This compound has an ester and may undergo hydrolysis at high or low pH.

>  <s_lp_Force_Field>  (3) 
OPLS3e

>  <r_lp_Energy>  (3) 
18.5211

>  <b_lp_Chiralities_Consistent>  (3) 
1

>  <s_lp_Variant>  (3) 
0:0-1

>  <s_i_glide_gridfile>  (3) 
pfpi4k_grid

>  <i_i_glide_lignum>  (3) 
1

>  <i_i_glide_rotatable_bonds>  (3) 
2

>  <r_i_docking_score>  (3) 
-2.31142

>  <r_i_glide_ligand_efficiency>  (3) 
-0.100497

>  <r_i_glide_ligand_efficiency_sa>  (3) 
-0.285799

>  <r_i_glide_ligand_efficiency_ln>  (3) 
-0.558923

>  <r_i_glide_gscore>  (3) 
-2.31142

>  <r_i_glide_lipo>  (3) 
-0.0225296

>  <r_i_glide_hbond>  (3) 
-0.11874

>  <r_i_glide_metal>  (3) 
-0

>  <r_i_glide_rewards>  (3) 
-1.27878

>  <r_i_glide_evdw>  (3) 
-16.0003

>  <r_i_glide_ecoul>  (3) 
-1.51417

>  <r_i_glide_erotb>  (3) 
0.190119

>  <r_i_glide_esite>  (3) 
-0.054352

>  <r_i_glide_emodel>  (3) 
-20.3151

>  <r_i_glide_energy>  (3) 
-17.5145

>  <r_i_glide_einternal>  (3) 
0.143442

>  <r_i_glide_intrahb_reward>  (3) 
-0

>  <i_i_glide_confnum>  (3) 
3

>  <i_i_glide_posenum>  (3) 
26

>  <r_i_glide_eff_state_penalty>  (3) 
0

>  <ligand_id>  (3) 
0

>  <original_smiles>  (3) 
CC(=O)OC1C2=CC(C)=CC3CC(=C(C)CC4C1C4(C)C)C23C

>  <smiles>  (3) 
[H]C1=C2C([H])(OC(=O)C([H])([H])[H])C3([H])C([H])(C([H])([H])C(C([H])([H])[H])=C4C([H])([H])C([H])(C([H])=C1C([H])([H])[H])C42C([H])([H])[H])C3(C([H])([H])[H])C([H])([H])[H]

$$$$
0:1:0
     RDKit          3D

 51 54  0  0  1  0  0  0  0  0999 V2000
   -3.4415    2.9553    2.5448 C   0  0  0  0  0  0  0  0  0  0  0  0
   -2.2998    3.6495    3.2741 C   0  0  0  0  0  0  0  0  0  0  0  0
   -2.0723    4.8482    3.1100 O   0  0  0  0  0  0  0  0  0  0  0  0
   -1.6298    2.8269    4.0947 O   0  0  0  0  0  0  0  0  0  0  0  0
   -0.4405    3.2563    4.7534 C   0  0  2  0  0  0  0  0  0  0  0  0
    0.8179    2.7388    4.0239 C   0  0  0  0  0  0  0  0  0  0  0  0
    0.7410    1.6619    3.2087 C   0  0  0  0  0  0  0  0  0  0  0  0
    1.9157    0.9610    2.7314 C   0  0  0  0  0  0  0  0  0  0  0  0
    1.8037    0.0155    1.5583 C   0  0  0  0  0  0  0  0  0  0  0  0
    3.0837    1.1445    3.3728 C   0  0  0  0  0  0  0  0  0  0  0  0
    3.2844    2.2139    4.4363 C   0  0  2  0  0  0  0  0  0  0  0  0
    2.8820    1.9011    5.8995 C   0  0  0  0  0  0  0  0  0  0  0  0
    2.4964    3.3819    5.8554 C   0  0  0  0  0  0  0  0  0  0  0  0
    1.9939    4.2465    6.7575 C   0  0  0  0  0  0  0  0  0  0  0  0
    1.8313    5.7238    6.4358 C   0  0  0  0  0  0  0  0  0  0  0  0
    1.0865    3.7397    7.8687 C   0  0  0  0  0  0  0  0  0  0  0  0
   -0.3170    3.7865    7.2706 C   0  0  1  0  0  0  0  0  0  0  0  0
   -0.4802    2.7200    6.1973 C   0  0  1  0  0  0  0  0  0  0  0  0
   -1.4905    2.8417    7.3217 C   0  0  0  0  0  0  0  0  0  0  0  0
   -1.5464    1.8157    8.4392 C   0  0  0  0  0  0  0  0  0  0  0  0
   -2.8866    3.3436    7.0153 C   0  0  0  0  0  0  0  0  0  0  0  0
    2.2195    3.3295    4.3566 C   0  0  2  0  0  0  0  0  0  0  0  0
    2.5676    4.5529    3.5166 C   0  0  0  0  0  0  0  0  0  0  0  0
   -4.1605    2.5480    3.2544 H   0  0  0  0  0  0  0  0  0  0  0  0
   -3.0518    2.1456    1.9336 H   0  0  0  0  0  0  0  0  0  0  0  0
   -3.9628    3.6535    1.8910 H   0  0  0  0  0  0  0  0  0  0  0  0
   -0.3925    4.3469    4.7852 H   0  0  0  0  0  0  0  0  0  0  0  0
   -0.2175    1.2170    2.9884 H   0  0  0  0  0  0  0  0  0  0  0  0
    1.4818    0.5595    0.6700 H   0  0  0  0  0  0  0  0  0  0  0  0
    1.0622   -0.7549    1.7679 H   0  0  0  0  0  0  0  0  0  0  0  0
    2.7539   -0.4646    1.3216 H   0  0  0  0  0  0  0  0  0  0  0  0
    3.9740    0.6287    3.0478 H   0  0  0  0  0  0  0  0  0  0  0  0
    4.2939    2.6269    4.3721 H   0  0  0  0  0  0  0  0  0  0  0  0
    2.0985    1.1491    5.9669 H   0  0  0  0  0  0  0  0  0  0  0  0
    3.7401    1.6182    6.5101 H   0  0  0  0  0  0  0  0  0  0  0  0
    1.9286    6.3072    7.3521 H   0  0  0  0  0  0  0  0  0  0  0  0
    0.8720    5.9601    5.9766 H   0  0  0  0  0  0  0  0  0  0  0  0
    2.6221    6.0642    5.7658 H   0  0  0  0  0  0  0  0  0  0  0  0
    1.3605    2.7293    8.1825 H   0  0  0  0  0  0  0  0  0  0  0  0
    1.1391    4.3955    8.7386 H   0  0  0  0  0  0  0  0  0  0  0  0
   -0.6358    4.8045    7.0597 H   0  0  0  0  0  0  0  0  0  0  0  0
    0.0556    1.7809    6.2939 H   0  0  0  0  0  0  0  0  0  0  0  0
   -2.1710    0.9722    8.1479 H   0  0  0  0  0  0  0  0  0  0  0  0
   -1.9560    2.2644    9.3469 H   0  0  0  0  0  0  0  0  0  0  0  0
   -0.5465    1.4460    8.6667 H   0  0  0  0  0  0  0  0  0  0  0  0
   -3.5148    2.5316    6.6481 H   0  0  0  0  0  0  0  0  0  0  0  0
   -2.8415    4.1082    6.2432 H   0  0  0  0  0  0  0  0  0  0  0  0
   -3.3499    3.7683    7.9057 H   0  0  0  0  0  0  0  0  0  0  0  0
    1.8286    5.3413    3.6033 H   0  0  0  0  0  0  0  0  0  0  0  0
    2.6238    4.2802    2.4604 H   0  0  0  0  0  0  0  0  0  0  0  0
    3.5442    4.9549    3.7812 H   0  0  0  0  0  0  0  0  0  0  0  0
  1  2  1  0
  1 24  1  0
  1 25  1  0
  1 26  1  0
  2  3  2  0
  2  4  1  0
  4  5  1  0
  5 18  1  0
  5  6  1  0
  5 27  1  1
  6 22  1  0
  6  7  2  0
  7  8  1  0
  7 28  1  0
  8  9  1  0
  8 10  2  0
  9 29  1  0
  9 30  1  0
  9 31  1  0
 10 11  1  0
 10 32  1  0
 11 22  1  0
 11 12  1  0
 11 33  1  1
 12 13  1  0
 12 34  1  0
 12 35  1  0
 13 14  2  3
 13 22  1  0
 14 15  1  0
 14 16  1  0
 15 36  1  0
 15 37  1  0
 15 38  1  0
 16 17  1  0
 16 39  1  0
 16 40  1  0
 17 19  1  0
 17 18  1  0
 17 41  1  6
 18 19  1  0
 18 42  1  6
 19 20  1  0
 19 21  1  0
 20 43  1  0
 20 44  1  0
 20 45  1  0
 21 46  1  0
 21 47  1  0
 21 48  1  0
 22 23  1  6
 23 49  1  0
 23 50  1  0
 23 51  1  0
M  END
>  <i_m_ct_stereo_status>  (4) 
1

>  <s_m_source_file>  (4) 
/var/tmp/pbs.5076255.sched01/tmp7v4tqmxt/0pyfftbwv.sdf

>  <i_m_source_file_index>  (4) 
2

>  <i_lp_mmshare_version>  (4) 
48012

>  <i_f3d_flags>  (4) 
0

>  <s_epik_input>  (4) 
W0NIM11DKD1PKU9bQ0BIXTFbQ0BIXShDMihbQ0gzXSlbQ0gzXSlbQ0BASF0yW0NIMl1DKFxbQ0gzXSk9QzNcW0NIMl1bQ0BIXTRbQ0hdPUMoW0NIM10pW0NIXT1DMVtDQEBdMzRbQ0gzXQ==

>  <s_epik_cmdline>  (4) 
J2VwaWtfcHl0aG9uJywgJy1waHQnLCAnMi4wJywgJy1waCcsICc3LjAnLCAnLXRuJywgJzgnLCAnLW1hJywgJzIwMCcsICctaW1hZScsICc8aW5maWxlLm1hZT4nLCAnLW9tYWUnLCAnPG91dGZpbGUubWFlPic=

>  <r_lp_tautomer_probability>  (4) 
1

>  <r_epik_Ionization_Penalty>  (4) 
0

>  <r_epik_Ionization_Penalty_Charging>  (4) 
0

>  <r_epik_Ionization_Penalty_Neutral>  (4) 
0

>  <r_epik_State_Penalty>  (4) 
-0

>  <r_epik_Charging_Adjusted_Penalty>  (4) 
0

>  <i_epik_Tot_Q>  (4) 
0

>  <i_epik_Tot_abs_Q>  (4) 
0

>  <s_epik_Chemistry_Notes>  (4) 
This compound has an ester and may undergo hydrolysis at high or low pH.

>  <s_lp_Force_Field>  (4) 
OPLS3e

>  <r_lp_Energy>  (4) 
54.8739

>  <b_lp_Chiralities_Consistent>  (4) 
1

>  <s_lp_Variant>  (4) 
0:0-2

>  <s_i_glide_gridfile>  (4) 
pfpi4k_grid

>  <i_i_glide_lignum>  (4) 
2

>  <i_i_glide_rotatable_bonds>  (4) 
2

>  <r_i_docking_score>  (4) 
-2.82364

>  <r_i_glide_ligand_efficiency>  (4) 
-0.122767

>  <r_i_glide_ligand_efficiency_sa>  (4) 
-0.349132

>  <r_i_glide_ligand_efficiency_ln>  (4) 
-0.682781

>  <r_i_glide_gscore>  (4) 
-2.82364

>  <r_i_glide_lipo>  (4) 
-0.176024

>  <r_i_glide_hbond>  (4) 
-0.16

>  <r_i_glide_metal>  (4) 
-0

>  <r_i_glide_rewards>  (4) 
-1.27878

>  <r_i_glide_evdw>  (4) 
-18.3174

>  <r_i_glide_ecoul>  (4) 
-2.76534

>  <r_i_glide_erotb>  (4) 
0.190119

>  <r_i_glide_esite>  (4) 
-0.0682805

>  <r_i_glide_emodel>  (4) 
-24.2039

>  <r_i_glide_energy>  (4) 
-21.0828

>  <r_i_glide_einternal>  (4) 
0.440087

>  <r_i_glide_intrahb_reward>  (4) 
-0

>  <i_i_glide_confnum>  (4) 
1

>  <i_i_glide_posenum>  (4) 
1

>  <r_i_glide_eff_state_penalty>  (4) 
0

>  <ligand_id>  (4) 
0

>  <original_smiles>  (4) 
CC(=O)OC1C2=CC(C)=CC3CC(=C(C)CC4C1C4(C)C)C23C

>  <smiles>  (4) 
[H]C1=C2C([H])(OC(=O)C([H])([H])[H])C3([H])C([H])(C([H])([H])C(C([H])([H])[H])=C4C([H])([H])C([H])(C([H])=C1C([H])([H])[H])C42C([H])([H])[H])C3(C([H])([H])[H])C([H])([H])[H]

$$$$
0:1:1
     RDKit          3D

 51 54  0  0  1  0  0  0  0  0999 V2000
   -1.6492   -0.1059    4.6004 C   0  0  0  0  0  0  0  0  0  0  0  0
   -0.7827    0.5179    5.6843 C   0  0  0  0  0  0  0  0  0  0  0  0
   -0.4820   -0.1123    6.7008 O   0  0  0  0  0  0  0  0  0  0  0  0
   -0.4335    1.7891    5.4050 O   0  0  0  0  0  0  0  0  0  0  0  0
    0.4792    2.5159    6.2278 C   0  0  2  0  0  0  0  0  0  0  0  0
   -0.0852    2.8849    7.6233 C   0  0  0  0  0  0  0  0  0  0  0  0
   -1.4196    2.9495    7.8350 C   0  0  0  0  0  0  0  0  0  0  0  0
   -1.9953    3.5326    9.0306 C   0  0  0  0  0  0  0  0  0  0  0  0
   -3.4318    3.2177    9.3927 C   0  0  0  0  0  0  0  0  0  0  0  0
   -1.2366    4.3607    9.7786 C   0  0  0  0  0  0  0  0  0  0  0  0
    0.2611    4.5360    9.5500 C   0  0  2  0  0  0  0  0  0  0  0  0
    0.7419    5.5396    8.4667 C   0  0  0  0  0  0  0  0  0  0  0  0
    1.8201    4.4667    8.2936 C   0  0  0  0  0  0  0  0  0  0  0  0
    2.9107    4.3512    7.5109 C   0  0  0  0  0  0  0  0  0  0  0  0
    3.8810    3.1887    7.6602 C   0  0  0  0  0  0  0  0  0  0  0  0
    2.9372    5.0130    6.1408 C   0  0  0  0  0  0  0  0  0  0  0  0
    2.3450    3.9699    5.1993 C   0  0  1  0  0  0  0  0  0  0  0  0
    0.8595    3.7978    5.4604 C   0  0  1  0  0  0  0  0  0  0  0  0
    1.3671    4.0496    4.0529 C   0  0  0  0  0  0  0  0  0  0  0  0
    1.1591    5.3914    3.3728 C   0  0  0  0  0  0  0  0  0  0  0  0
    1.3039    2.9349    3.0271 C   0  0  0  0  0  0  0  0  0  0  0  0
    0.8771    3.3605    8.7558 C   0  0  2  0  0  0  0  0  0  0  0  0
    1.4731    2.2163    9.5652 C   0  0  0  0  0  0  0  0  0  0  0  0
   -1.1215   -0.1002    3.6469 H   0  0  0  0  0  0  0  0  0  0  0  0
   -2.5787    0.4488    4.4804 H   0  0  0  0  0  0  0  0  0  0  0  0
   -1.8886   -1.1360    4.8574 H   0  0  0  0  0  0  0  0  0  0  0  0
    1.3677    1.8954    6.3661 H   0  0  0  0  0  0  0  0  0  0  0  0
   -2.1019    2.6635    7.0492 H   0  0  0  0  0  0  0  0  0  0  0  0
   -3.5439    2.1511    9.6008 H   0  0  0  0  0  0  0  0  0  0  0  0
   -4.0919    3.5004    8.5715 H   0  0  0  0  0  0  0  0  0  0  0  0
   -3.7431    3.7469   10.2919 H   0  0  0  0  0  0  0  0  0  0  0  0
   -1.6361    4.8310   10.6661 H   0  0  0  0  0  0  0  0  0  0  0  0
    0.7797    4.6864   10.5037 H   0  0  0  0  0  0  0  0  0  0  0  0
    0.0142    5.6845    7.6719 H   0  0  0  0  0  0  0  0  0  0  0  0
    1.0464    6.4964    8.8915 H   0  0  0  0  0  0  0  0  0  0  0  0
    4.8805    3.5098    7.3641 H   0  0  0  0  0  0  0  0  0  0  0  0
    3.6094    2.3212    7.0592 H   0  0  0  0  0  0  0  0  0  0  0  0
    3.9528    2.8755    8.7024 H   0  0  0  0  0  0  0  0  0  0  0  0
    2.3642    5.9436    6.1283 H   0  0  0  0  0  0  0  0  0  0  0  0
    3.9604    5.2331    5.8344 H   0  0  0  0  0  0  0  0  0  0  0  0
    2.9735    3.0871    5.1168 H   0  0  0  0  0  0  0  0  0  0  0  0
    0.2746    4.6540    5.7850 H   0  0  0  0  0  0  0  0  0  0  0  0
    0.1866    5.4286    2.8794 H   0  0  0  0  0  0  0  0  0  0  0  0
    1.9337    5.5562    2.6217 H   0  0  0  0  0  0  0  0  0  0  0  0
    1.2074    6.2011    4.1007 H   0  0  0  0  0  0  0  0  0  0  0  0
    0.3131    2.8956    2.5705 H   0  0  0  0  0  0  0  0  0  0  0  0
    1.5021    1.9735    3.5014 H   0  0  0  0  0  0  0  0  0  0  0  0
    2.0391    3.0926    2.2374 H   0  0  0  0  0  0  0  0  0  0  0  0
    1.9981    1.4960    8.9488 H   0  0  0  0  0  0  0  0  0  0  0  0
    0.6808    1.6799   10.0909 H   0  0  0  0  0  0  0  0  0  0  0  0
    2.1525    2.5820   10.3334 H   0  0  0  0  0  0  0  0  0  0  0  0
  1  2  1  0
  1 24  1  0
  1 25  1  0
  1 26  1  0
  2  3  2  0
  2  4  1  0
  4  5  1  0
  5 18  1  0
  5  6  1  0
  5 27  1  1
  6 22  1  0
  6  7  2  0
  7  8  1  0
  7 28  1  0
  8  9  1  0
  8 10  2  0
  9 29  1  0
  9 30  1  0
  9 31  1  0
 10 11  1  0
 10 32  1  0
 11 22  1  0
 11 12  1  0
 11 33  1  1
 12 13  1  0
 12 34  1  0
 12 35  1  0
 13 14  2  3
 13 22  1  0
 14 15  1  0
 14 16  1  0
 15 36  1  0
 15 37  1  0
 15 38  1  0
 16 17  1  0
 16 39  1  0
 16 40  1  0
 17 19  1  0
 17 18  1  0
 17 41  1  6
 18 19  1  0
 18 42  1  1
 19 20  1  0
 19 21  1  0
 20 43  1  0
 20 44  1  0
 20 45  1  0
 21 46  1  0
 21 47  1  0
 21 48  1  0
 22 23  1  1
 23 49  1  0
 23 50  1  0
 23 51  1  0
M  END
>  <i_m_ct_stereo_status>  (5) 
1

>  <s_m_source_file>  (5) 
/var/tmp/pbs.5076255.sched01/tmp7v4tqmxt/0pyfftbwv.sdf

>  <i_m_source_file_index>  (5) 
2

>  <i_lp_mmshare_version>  (5) 
48012

>  <i_f3d_flags>  (5) 
0

>  <s_epik_input>  (5) 
W0NIM11DKD1PKU9bQ0BIXTFbQ0BIXShDMihbQ0gzXSlbQ0gzXSlbQ0BASF0yW0NIMl1DKFxbQ0gzXSk9QzNcW0NIMl1bQ0BIXTRbQ0hdPUMoW0NIM10pW0NIXT1DMVtDQEBdMzRbQ0gzXQ==

>  <s_epik_cmdline>  (5) 
J2VwaWtfcHl0aG9uJywgJy1waHQnLCAnMi4wJywgJy1waCcsICc3LjAnLCAnLXRuJywgJzgnLCAnLW1hJywgJzIwMCcsICctaW1hZScsICc8aW5maWxlLm1hZT4nLCAnLW9tYWUnLCAnPG91dGZpbGUubWFlPic=

>  <r_lp_tautomer_probability>  (5) 
1

>  <r_epik_Ionization_Penalty>  (5) 
0

>  <r_epik_Ionization_Penalty_Charging>  (5) 
0

>  <r_epik_Ionization_Penalty_Neutral>  (5) 
0

>  <r_epik_State_Penalty>  (5) 
-0

>  <r_epik_Charging_Adjusted_Penalty>  (5) 
0

>  <i_epik_Tot_Q>  (5) 
0

>  <i_epik_Tot_abs_Q>  (5) 
0

>  <s_epik_Chemistry_Notes>  (5) 
This compound has an ester and may undergo hydrolysis at high or low pH.

>  <s_lp_Force_Field>  (5) 
OPLS3e

>  <r_lp_Energy>  (5) 
54.8739

>  <b_lp_Chiralities_Consistent>  (5) 
1

>  <s_lp_Variant>  (5) 
0:0-2

>  <s_i_glide_gridfile>  (5) 
pfpi4k_grid

>  <i_i_glide_lignum>  (5) 
2

>  <i_i_glide_rotatable_bonds>  (5) 
2

>  <r_i_docking_score>  (5) 
-2.09821

>  <r_i_glide_ligand_efficiency>  (5) 
-0.0912267

>  <r_i_glide_ligand_efficiency_sa>  (5) 
-0.259437

>  <r_i_glide_ligand_efficiency_ln>  (5) 
-0.507367

>  <r_i_glide_gscore>  (5) 
-2.09821

>  <r_i_glide_lipo>  (5) 
-0.000685143

>  <r_i_glide_hbond>  (5) 
-0.00155352

>  <r_i_glide_metal>  (5) 
-0

>  <r_i_glide_rewards>  (5) 
-1.27878

>  <r_i_glide_evdw>  (5) 
-15.1316

>  <r_i_glide_ecoul>  (5) 
-1.48121

>  <r_i_glide_erotb>  (5) 
0.190119

>  <r_i_glide_esite>  (5) 
-0.0285564

>  <r_i_glide_emodel>  (5) 
-18.6239

>  <r_i_glide_energy>  (5) 
-16.6128

>  <r_i_glide_einternal>  (5) 
0.621602

>  <r_i_glide_intrahb_reward>  (5) 
-0

>  <i_i_glide_confnum>  (5) 
1

>  <i_i_glide_posenum>  (5) 
15

>  <r_i_glide_eff_state_penalty>  (5) 
0

>  <ligand_id>  (5) 
0

>  <original_smiles>  (5) 
CC(=O)OC1C2=CC(C)=CC3CC(=C(C)CC4C1C4(C)C)C23C

>  <smiles>  (5) 
[H]C1=C2C([H])(OC(=O)C([H])([H])[H])C3([H])C([H])(C([H])([H])C(C([H])([H])[H])=C4C([H])([H])C([H])(C([H])=C1C([H])([H])[H])C42C([H])([H])[H])C3(C([H])([H])[H])C([H])([H])[H]

$$$$
0:1:2
     RDKit          3D

 51 54  0  0  1  0  0  0  0  0999 V2000
   -1.3091   -2.2968    5.6904 C   0  0  0  0  0  0  0  0  0  0  0  0
   -0.3338   -1.2939    6.2938 C   0  0  0  0  0  0  0  0  0  0  0  0
    0.2259   -1.5128    7.3667 O   0  0  0  0  0  0  0  0  0  0  0  0
   -0.2119   -0.1822    5.5560 O   0  0  0  0  0  0  0  0  0  0  0  0
    0.7087    0.8405    5.9272 C   0  0  2  0  0  0  0  0  0  0  0  0
    0.1312    1.8346    6.9642 C   0  0  0  0  0  0  0  0  0  0  0  0
   -1.2052    1.9835    7.1104 C   0  0  0  0  0  0  0  0  0  0  0  0
   -1.7928    3.0835    7.8533 C   0  0  0  0  0  0  0  0  0  0  0  0
   -3.2344    2.9945    8.3081 C   0  0  0  0  0  0  0  0  0  0  0  0
   -1.0421    4.1771    8.0982 C   0  0  0  0  0  0  0  0  0  0  0  0
    0.4556    4.2277    7.8234 C   0  0  2  0  0  0  0  0  0  0  0  0
    0.9460    4.5698    6.3913 C   0  0  0  0  0  0  0  0  0  0  0  0
    2.0256    3.5565    6.7755 C   0  0  0  0  0  0  0  0  0  0  0  0
    3.1238    3.0765    6.1600 C   0  0  0  0  0  0  0  0  0  0  0  0
    4.0935    2.1454    6.8722 C   0  0  0  0  0  0  0  0  0  0  0  0
    3.1613    2.9759    4.6418 C   0  0  0  0  0  0  0  0  0  0  0  0
    2.5782    1.6002    4.3315 C   0  0  1  0  0  0  0  0  0  0  0  0
    1.0896    1.5774    4.6326 C   0  0  1  0  0  0  0  0  0  0  0  0
    1.6075    1.0978    3.2915 C   0  0  0  0  0  0  0  0  0  0  0  0
    1.4063    1.9239    2.0351 C   0  0  0  0  0  0  0  0  0  0  0  0
    1.5506   -0.3787    2.9484 C   0  0  0  0  0  0  0  0  0  0  0  0
    1.0811    2.8169    7.7174 C   0  0  2  0  0  0  0  0  0  0  0  0
    1.6675    2.2284    8.9947 C   0  0  0  0  0  0  0  0  0  0  0  0
   -0.9784   -2.5974    4.6966 H   0  0  0  0  0  0  0  0  0  0  0  0
   -2.3055   -1.8648    5.6128 H   0  0  0  0  0  0  0  0  0  0  0  0
   -1.3687   -3.1901    6.3111 H   0  0  0  0  0  0  0  0  0  0  0  0
    1.6015    0.3755    6.3524 H   0  0  0  0  0  0  0  0  0  0  0  0
   -1.8771    1.3461    6.5562 H   0  0  0  0  0  0  0  0  0  0  0  0
   -3.3589    2.1740    9.0185 H   0  0  0  0  0  0  0  0  0  0  0  0
   -3.8791    2.8245    7.4457 H   0  0  0  0  0  0  0  0  0  0  0  0
   -3.5576    3.9077    8.8092 H   0  0  0  0  0  0  0  0  0  0  0  0
   -1.4504    5.0235    8.6312 H   0  0  0  0  0  0  0  0  0  0  0  0
    0.9622    4.8330    8.5835 H   0  0  0  0  0  0  0  0  0  0  0  0
    0.2268    4.3031    5.6198 H   0  0  0  0  0  0  0  0  0  0  0  0
    1.2472    5.6133    6.2909 H   0  0  0  0  0  0  0  0  0  0  0  0
    5.0960    2.2835    6.4648 H   0  0  0  0  0  0  0  0  0  0  0  0
    3.8276    1.0927    6.7757 H   0  0  0  0  0  0  0  0  0  0  0  0
    4.1548    2.3869    7.9339 H   0  0  0  0  0  0  0  0  0  0  0  0
    2.5869    3.7756    4.1670 H   0  0  0  0  0  0  0  0  0  0  0  0
    4.1875    3.0235    4.2770 H   0  0  0  0  0  0  0  0  0  0  0  0
    3.2070    0.7963    4.7045 H   0  0  0  0  0  0  0  0  0  0  0  0
    0.4989    2.4771    4.4896 H   0  0  0  0  0  0  0  0  0  0  0  0
    0.4393    1.7123    1.5744 H   0  0  0  0  0  0  0  0  0  0  0  0
    2.1927    1.7047    1.3117 H   0  0  0  0  0  0  0  0  0  0  0  0
    1.4449    2.9862    2.2726 H   0  0  0  0  0  0  0  0  0  0  0  0
    0.5646   -0.6403    2.5615 H   0  0  0  0  0  0  0  0  0  0  0  0
    1.7455   -0.9788    3.8372 H   0  0  0  0  0  0  0  0  0  0  0  0
    2.2966   -0.6274    2.1931 H   0  0  0  0  0  0  0  0  0  0  0  0
    2.1991    1.2997    8.8194 H   0  0  0  0  0  0  0  0  0  0  0  0
    0.8699    2.0181    9.7090 H   0  0  0  0  0  0  0  0  0  0  0  0
    2.3400    2.9305    9.4854 H   0  0  0  0  0  0  0  0  0  0  0  0
  1  2  1  0
  1 24  1  0
  1 25  1  0
  1 26  1  0
  2  3  2  0
  2  4  1  0
  4  5  1  0
  5 18  1  0
  5  6  1  0
  5 27  1  1
  6 22  1  0
  6  7  2  0
  7  8  1  0
  7 28  1  0
  8  9  1  0
  8 10  2  0
  9 29  1  0
  9 30  1  0
  9 31  1  0
 10 11  1  0
 10 32  1  0
 11 22  1  0
 11 12  1  0
 11 33  1  1
 12 13  1  0
 12 34  1  0
 12 35  1  0
 13 14  2  3
 13 22  1  0
 14 15  1  0
 14 16  1  0
 15 36  1  0
 15 37  1  0
 15 38  1  0
 16 17  1  0
 16 39  1  0
 16 40  1  0
 17 19  1  0
 17 18  1  0
 17 41  1  1
 18 19  1  0
 18 42  1  6
 19 20  1  0
 19 21  1  0
 20 43  1  0
 20 44  1  0
 20 45  1  0
 21 46  1  0
 21 47  1  0
 21 48  1  0
 22 23  1  1
 23 49  1  0
 23 50  1  0
 23 51  1  0
M  END
>  <i_m_ct_stereo_status>  (6) 
1

>  <s_m_source_file>  (6) 
/var/tmp/pbs.5076255.sched01/tmp7v4tqmxt/0pyfftbwv.sdf

>  <i_m_source_file_index>  (6) 
2

>  <i_lp_mmshare_version>  (6) 
48012

>  <i_f3d_flags>  (6) 
0

>  <s_epik_input>  (6) 
W0NIM11DKD1PKU9bQ0BIXTFbQ0BIXShDMihbQ0gzXSlbQ0gzXSlbQ0BASF0yW0NIMl1DKFxbQ0gzXSk9QzNcW0NIMl1bQ0BIXTRbQ0hdPUMoW0NIM10pW0NIXT1DMVtDQEBdMzRbQ0gzXQ==

>  <s_epik_cmdline>  (6) 
J2VwaWtfcHl0aG9uJywgJy1waHQnLCAnMi4wJywgJy1waCcsICc3LjAnLCAnLXRuJywgJzgnLCAnLW1hJywgJzIwMCcsICctaW1hZScsICc8aW5maWxlLm1hZT4nLCAnLW9tYWUnLCAnPG91dGZpbGUubWFlPic=

>  <r_lp_tautomer_probability>  (6) 
1

>  <r_epik_Ionization_Penalty>  (6) 
0

>  <r_epik_Ionization_Penalty_Charging>  (6) 
0

>  <r_epik_Ionization_Penalty_Neutral>  (6) 
0

>  <r_epik_State_Penalty>  (6) 
-0

>  <r_epik_Charging_Adjusted_Penalty>  (6) 
0

>  <i_epik_Tot_Q>  (6) 
0

>  <i_epik_Tot_abs_Q>  (6) 
0

>  <s_epik_Chemistry_Notes>  (6) 
This compound has an ester and may undergo hydrolysis at high or low pH.

>  <s_lp_Force_Field>  (6) 
OPLS3e

>  <r_lp_Energy>  (6) 
54.8739

>  <b_lp_Chiralities_Consistent>  (6) 
1

>  <s_lp_Variant>  (6) 
0:0-2

>  <s_i_glide_gridfile>  (6) 
pfpi4k_grid

>  <i_i_glide_lignum>  (6) 
2

>  <i_i_glide_rotatable_bonds>  (6) 
2

>  <r_i_docking_score>  (6) 
-2.01731

>  <r_i_glide_ligand_efficiency>  (6) 
-0.0877091

>  <r_i_glide_ligand_efficiency_sa>  (6) 
-0.249433

>  <r_i_glide_ligand_efficiency_ln>  (6) 
-0.487804

>  <r_i_glide_gscore>  (6) 
-2.01731

>  <r_i_glide_lipo>  (6) 
-0.0620767

>  <r_i_glide_hbond>  (6) 
0

>  <r_i_glide_metal>  (6) 
-0

>  <r_i_glide_rewards>  (6) 
-1.27878

>  <r_i_glide_evdw>  (6) 
-15.1518

>  <r_i_glide_ecoul>  (6) 
-0.420648

>  <r_i_glide_erotb>  (6) 
0.190119

>  <r_i_glide_esite>  (6) 
-0.0458882

>  <r_i_glide_emodel>  (6) 
-17.8953

>  <r_i_glide_energy>  (6) 
-15.5724

>  <r_i_glide_einternal>  (6) 
0.0774314

>  <r_i_glide_intrahb_reward>  (6) 
-0

>  <i_i_glide_confnum>  (6) 
1

>  <i_i_glide_posenum>  (6) 
9

>  <r_i_glide_eff_state_penalty>  (6) 
0

>  <ligand_id>  (6) 
0

>  <original_smiles>  (6) 
CC(=O)OC1C2=CC(C)=CC3CC(=C(C)CC4C1C4(C)C)C23C

>  <smiles>  (6) 
[H]C1=C2C([H])(OC(=O)C([H])([H])[H])C3([H])C([H])(C([H])([H])C(C([H])([H])[H])=C4C([H])([H])C([H])(C([H])=C1C([H])([H])[H])C42C([H])([H])[H])C3(C([H])([H])[H])C([H])([H])[H]

$$$$
1:0:0
     RDKit          3D

 23 25  0  0  1  0  0  0  0  0999 V2000
   -0.3249   -4.4613    7.3215 C   0  0  0  0  0  0  0  0  0  0  0  0
    0.0142   -5.7239    6.6001 C   0  0  0  0  0  0  0  0  0  0  0  0
   -0.5840   -6.1016    5.4708 N   0  0  0  0  0  0  0  0  0  0  0  0
    0.0043   -7.3265    5.1721 C   0  0  0  0  0  0  0  0  0  0  0  0
   -0.2227   -8.2683    4.0537 C   0  0  0  0  0  0  0  0  0  0  0  0
   -1.3701   -7.9174    2.8834 S   0  0  0  0  0  0  0  0  0  0  0  0
    0.6065   -9.3705    4.1126 N   0  0  0  0  0  0  0  0  0  0  0  0
    0.6157  -10.4104    3.1778 C   0  0  0  0  0  0  0  0  0  0  0  0
    1.4965  -11.3781    3.4160 C   0  0  0  0  0  0  0  0  0  0  0  0
    2.4572  -11.1135    4.8475 S   0  0  0  0  0  0  0  0  0  0  0  0
    1.5685   -9.5544    5.1610 C   0  0  0  0  0  0  0  0  0  0  0  0
    1.7763   -8.7312    6.1534 N   0  0  0  0  0  0  0  0  0  0  0  0
    0.9552   -7.6311    6.1036 C   0  0  0  0  0  0  0  0  0  0  0  0
    0.9582   -6.5920    7.0289 N   0  0  0  0  0  0  0  0  0  0  0  0
    1.8083   -6.4751    8.2020 C   0  0  0  0  0  0  0  0  0  0  0  0
   -1.1211   -3.9400    6.7920 H   0  0  0  0  0  0  0  0  0  0  0  0
    0.5462   -3.8079    7.3667 H   0  0  0  0  0  0  0  0  0  0  0  0
   -0.6690   -4.6780    8.3336 H   0  0  0  0  0  0  0  0  0  0  0  0
   -0.0720  -10.3774    2.3454 H   0  0  0  0  0  0  0  0  0  0  0  0
    1.6456  -12.2627    2.8195 H   0  0  0  0  0  0  0  0  0  0  0  0
    2.4804   -7.3310    8.2779 H   0  0  0  0  0  0  0  0  0  0  0  0
    1.1981   -6.4367    9.1043 H   0  0  0  0  0  0  0  0  0  0  0  0
    2.4135   -5.5708    8.1336 H   0  0  0  0  0  0  0  0  0  0  0  0
  1  2  1  0
  1 16  1  0
  1 17  1  0
  1 18  1  0
  2 14  1  0
  2  3  2  0
  3  4  1  0
  4 13  2  0
  4  5  1  0
  5  6  2  0
  5  7  1  0
  7 11  1  0
  7  8  1  0
  8  9  2  0
  8 19  1  0
  9 10  1  0
  9 20  1  0
 10 11  1  0
 11 12  2  0
 12 13  1  0
 13 14  1  0
 14 15  1  0
 15 21  1  0
 15 22  1  0
 15 23  1  0
M  END
>  <i_m_ct_stereo_status>  (7) 
1

>  <s_m_source_file>  (7) 
/var/tmp/pbs.5076255.sched01/tmp7v4tqmxt/0pyfftbwv.sdf

>  <i_m_source_file_index>  (7) 
3

>  <i_lp_mmshare_version>  (7) 
48012

>  <i_f3d_flags>  (7) 
0

>  <s_epik_input>  (7) 
W0NIM11jKG4xKW4oW0NIM10pYyhjMTIpbmMzbihjMj1TKVtjSF1bY0hdczM=

>  <s_epik_cmdline>  (7) 
J2VwaWtfcHl0aG9uJywgJy1waHQnLCAnMi4wJywgJy1waCcsICc3LjAnLCAnLXRuJywgJzgnLCAnLW1hJywgJzIwMCcsICctaW1hZScsICc8aW5maWxlLm1hZT4nLCAnLW9tYWUnLCAnPG91dGZpbGUubWFlPic=

>  <r_epik_Ionization_Penalty>  (7) 
0.00148717

>  <r_epik_Ionization_Penalty_Charging>  (7) 
1.8677e-07

>  <r_epik_Ionization_Penalty_Neutral>  (7) 
0.00148699

>  <r_epik_State_Penalty>  (7) 
0.000995546

>  <r_epik_Charging_Adjusted_Penalty>  (7) 
0.000995733

>  <i_epik_Tot_Q>  (7) 
0

>  <i_epik_Tot_abs_Q>  (7) 
0

>  <s_lp_Force_Field>  (7) 
OPLS3e

>  <r_lp_Energy>  (7) 
42.1941

>  <b_lp_Chiralities_Consistent>  (7) 
1

>  <s_lp_Variant>  (7) 
1:0-1

>  <s_i_glide_gridfile>  (7) 
pfpi4k_grid

>  <i_i_glide_lignum>  (7) 
3

>  <i_i_glide_rotatable_bonds>  (7) 
0

>  <r_i_docking_score>  (7) 
-3.56643

>  <r_i_glide_ligand_efficiency>  (7) 
-0.237762

>  <r_i_glide_ligand_efficiency_sa>  (7) 
-0.586372

>  <r_i_glide_ligand_efficiency_ln>  (7) 
-0.961808

>  <r_i_glide_gscore>  (7) 
-3.56643

>  <r_i_glide_lipo>  (7) 
-0.257502

>  <r_i_glide_hbond>  (7) 
0

>  <r_i_glide_metal>  (7) 
-0

>  <r_i_glide_rewards>  (7) 
-1.79783

>  <r_i_glide_evdw>  (7) 
-21.8687

>  <r_i_glide_ecoul>  (7) 
-1.83557

>  <r_i_glide_erotb>  (7) 
0

>  <r_i_glide_esite>  (7) 
-0.142333

>  <r_i_glide_emodel>  (7) 
-29.502

>  <r_i_glide_energy>  (7) 
-23.7043

>  <r_i_glide_einternal>  (7) 
0

>  <r_i_glide_intrahb_reward>  (7) 
-0

>  <i_i_glide_confnum>  (7) 
1

>  <i_i_glide_posenum>  (7) 
5

>  <r_i_glide_eff_state_penalty>  (7) 
0

>  <ligand_id>  (7) 
1

>  <original_smiles>  (7) 
Cc1nc2c(=S)n3ccsc3nc2n1C

>  <smiles>  (7) 
[H]c1sc2nc3c(nc(C([H])([H])[H])n3C([H])([H])[H])c(=S)n2c1[H]

$$$$
1:0:1
     RDKit          3D

 23 25  0  0  1  0  0  0  0  0999 V2000
   -1.7902    2.2554   10.5744 C   0  0  0  0  0  0  0  0  0  0  0  0
   -1.6608    2.1565    9.0929 C   0  0  0  0  0  0  0  0  0  0  0  0
   -1.0105    1.1705    8.4719 N   0  0  0  0  0  0  0  0  0  0  0  0
   -1.1593    1.4789    7.1237 C   0  0  0  0  0  0  0  0  0  0  0  0
   -0.6814    0.7752    5.9173 C   0  0  0  0  0  0  0  0  0  0  0  0
    0.1690   -0.6568    6.0624 S   0  0  0  0  0  0  0  0  0  0  0  0
   -1.0446    1.4163    4.7505 N   0  0  0  0  0  0  0  0  0  0  0  0
   -0.7164    0.9698    3.4675 C   0  0  0  0  0  0  0  0  0  0  0  0
   -1.1584    1.7367    2.4735 C   0  0  0  0  0  0  0  0  0  0  0  0
   -2.0800    3.1197    3.0138 S   0  0  0  0  0  0  0  0  0  0  0  0
   -1.8114    2.6265    4.7465 C   0  0  0  0  0  0  0  0  0  0  0  0
   -2.2483    3.2552    5.8044 N   0  0  0  0  0  0  0  0  0  0  0  0
   -1.8869    2.6233    6.9709 C   0  0  0  0  0  0  0  0  0  0  0  0
   -2.2124    3.0623    8.2514 N   0  0  0  0  0  0  0  0  0  0  0  0
   -2.9749    4.2472    8.6026 C   0  0  0  0  0  0  0  0  0  0  0  0
   -1.2885    1.4113   11.0462 H   0  0  0  0  0  0  0  0  0  0  0  0
   -2.8409    2.2305   10.8674 H   0  0  0  0  0  0  0  0  0  0  0  0
   -1.3371    3.1771   10.9408 H   0  0  0  0  0  0  0  0  0  0  0  0
   -0.1398    0.0668    3.3478 H   0  0  0  0  0  0  0  0  0  0  0  0
   -0.9901    1.5535    1.4194 H   0  0  0  0  0  0  0  0  0  0  0  0
   -3.2688    4.7815    7.7036 H   0  0  0  0  0  0  0  0  0  0  0  0
   -2.3677    4.9210    9.2078 H   0  0  0  0  0  0  0  0  0  0  0  0
   -3.8784    3.9749    9.1499 H   0  0  0  0  0  0  0  0  0  0  0  0
  1  2  1  0
  1 16  1  0
  1 17  1  0
  1 18  1  0
  2 14  1  0
  2  3  2  0
  3  4  1  0
  4 13  2  0
  4  5  1  0
  5  6  2  0
  5  7  1  0
  7 11  1  0
  7  8  1  0
  8  9  2  0
  8 19  1  0
  9 10  1  0
  9 20  1  0
 10 11  1  0
 11 12  2  0
 12 13  1  0
 13 14  1  0
 14 15  1  0
 15 21  1  0
 15 22  1  0
 15 23  1  0
M  END
>  <i_m_ct_stereo_status>  (8) 
1

>  <s_m_source_file>  (8) 
/var/tmp/pbs.5076255.sched01/tmp7v4tqmxt/0pyfftbwv.sdf

>  <i_m_source_file_index>  (8) 
3

>  <i_lp_mmshare_version>  (8) 
48012

>  <i_f3d_flags>  (8) 
0

>  <s_epik_input>  (8) 
W0NIM11jKG4xKW4oW0NIM10pYyhjMTIpbmMzbihjMj1TKVtjSF1bY0hdczM=

>  <s_epik_cmdline>  (8) 
J2VwaWtfcHl0aG9uJywgJy1waHQnLCAnMi4wJywgJy1waCcsICc3LjAnLCAnLXRuJywgJzgnLCAnLW1hJywgJzIwMCcsICctaW1hZScsICc8aW5maWxlLm1hZT4nLCAnLW9tYWUnLCAnPG91dGZpbGUubWFlPic=

>  <r_epik_Ionization_Penalty>  (8) 
0.00148717

>  <r_epik_Ionization_Penalty_Charging>  (8) 
1.8677e-07

>  <r_epik_Ionization_Penalty_Neutral>  (8) 
0.00148699

>  <r_epik_State_Penalty>  (8) 
0.000995546

>  <r_epik_Charging_Adjusted_Penalty>  (8) 
0.000995733

>  <i_epik_Tot_Q>  (8) 
0

>  <i_epik_Tot_abs_Q>  (8) 
0

>  <s_lp_Force_Field>  (8) 
OPLS3e

>  <r_lp_Energy>  (8) 
42.1941

>  <b_lp_Chiralities_Consistent>  (8) 
1

>  <s_lp_Variant>  (8) 
1:0-1

>  <s_i_glide_gridfile>  (8) 
pfpi4k_grid

>  <i_i_glide_lignum>  (8) 
3

>  <i_i_glide_rotatable_bonds>  (8) 
0

>  <r_i_docking_score>  (8) 
-3.45519

>  <r_i_glide_ligand_efficiency>  (8) 
-0.230346

>  <r_i_glide_ligand_efficiency_sa>  (8) 
-0.568082

>  <r_i_glide_ligand_efficiency_ln>  (8) 
-0.931808

>  <r_i_glide_gscore>  (8) 
-3.45519

>  <r_i_glide_lipo>  (8) 
-0.080874

>  <r_i_glide_hbond>  (8) 
0

>  <r_i_glide_metal>  (8) 
-0

>  <r_i_glide_rewards>  (8) 
-1.88866

>  <r_i_glide_evdw>  (8) 
-20.3901

>  <r_i_glide_ecoul>  (8) 
-2.53409

>  <r_i_glide_erotb>  (8) 
0

>  <r_i_glide_esite>  (8) 
-0.086045

>  <r_i_glide_emodel>  (8) 
-28.5434

>  <r_i_glide_energy>  (8) 
-22.9241

>  <r_i_glide_einternal>  (8) 
0

>  <r_i_glide_intrahb_reward>  (8) 
-0

>  <i_i_glide_confnum>  (8) 
1

>  <i_i_glide_posenum>  (8) 
1

>  <r_i_glide_eff_state_penalty>  (8) 
0

>  <ligand_id>  (8) 
1

>  <original_smiles>  (8) 
Cc1nc2c(=S)n3ccsc3nc2n1C

>  <smiles>  (8) 
[H]c1sc2nc3c(nc(C([H])([H])[H])n3C([H])([H])[H])c(=S)n2c1[H]

$$$$
1:0:2
     RDKit          3D

 23 25  0  0  1  0  0  0  0  0999 V2000
   -0.5327   -4.7833    6.7540 C   0  0  0  0  0  0  0  0  0  0  0  0
   -0.1857   -3.5886    5.9291 C   0  0  0  0  0  0  0  0  0  0  0  0
   -0.7501   -2.3914    6.1062 N   0  0  0  0  0  0  0  0  0  0  0  0
   -0.1454   -1.5978    5.1331 C   0  0  0  0  0  0  0  0  0  0  0  0
   -0.3142   -0.1664    4.8083 C   0  0  0  0  0  0  0  0  0  0  0  0
   -1.3846    0.7684    5.6964 S   0  0  0  0  0  0  0  0  0  0  0  0
    0.4802    0.2372    3.7511 N   0  0  0  0  0  0  0  0  0  0  0  0
    0.5192    1.5373    3.2334 C   0  0  0  0  0  0  0  0  0  0  0  0
    1.3576    1.7248    2.2137 C   0  0  0  0  0  0  0  0  0  0  0  0
    2.2309    0.2808    1.7628 S   0  0  0  0  0  0  0  0  0  0  0  0
    1.3670   -0.6585    3.0695 C   0  0  0  0  0  0  0  0  0  0  0  0
    1.5248   -1.9245    3.3479 N   0  0  0  0  0  0  0  0  0  0  0  0
    0.7376   -2.3342    4.3973 C   0  0  0  0  0  0  0  0  0  0  0  0
    0.7074   -3.6263    4.9126 N   0  0  0  0  0  0  0  0  0  0  0  0
    1.4808   -4.7662    4.4479 C   0  0  0  0  0  0  0  0  0  0  0  0
   -1.2783   -4.5120    7.5022 H   0  0  0  0  0  0  0  0  0  0  0  0
    0.3517   -5.1582    7.2700 H   0  0  0  0  0  0  0  0  0  0  0  0
   -0.9488   -5.5749    6.1284 H   0  0  0  0  0  0  0  0  0  0  0  0
   -0.1138    2.2962    3.6669 H   0  0  0  0  0  0  0  0  0  0  0  0
    1.5130    2.6539    1.6816 H   0  0  0  0  0  0  0  0  0  0  0  0
    2.1224   -4.4825    3.6129 H   0  0  0  0  0  0  0  0  0  0  0  0
    0.8136   -5.5598    4.1127 H   0  0  0  0  0  0  0  0  0  0  0  0
    2.1141   -5.1404    5.2521 H   0  0  0  0  0  0  0  0  0  0  0  0
  1  2  1  0
  1 16  1  0
  1 17  1  0
  1 18  1  0
  2 14  1  0
  2  3  2  0
  3  4  1  0
  4 13  2  0
  4  5  1  0
  5  6  2  0
  5  7  1  0
  7 11  1  0
  7  8  1  0
  8  9  2  0
  8 19  1  0
  9 10  1  0
  9 20  1  0
 10 11  1  0
 11 12  2  0
 12 13  1  0
 13 14  1  0
 14 15  1  0
 15 21  1  0
 15 22  1  0
 15 23  1  0
M  END
>  <i_m_ct_stereo_status>  (9) 
1

>  <s_m_source_file>  (9) 
/var/tmp/pbs.5076255.sched01/tmp7v4tqmxt/0pyfftbwv.sdf

>  <i_m_source_file_index>  (9) 
3

>  <i_lp_mmshare_version>  (9) 
48012

>  <i_f3d_flags>  (9) 
0

>  <s_epik_input>  (9) 
W0NIM11jKG4xKW4oW0NIM10pYyhjMTIpbmMzbihjMj1TKVtjSF1bY0hdczM=

>  <s_epik_cmdline>  (9) 
J2VwaWtfcHl0aG9uJywgJy1waHQnLCAnMi4wJywgJy1waCcsICc3LjAnLCAnLXRuJywgJzgnLCAnLW1hJywgJzIwMCcsICctaW1hZScsICc8aW5maWxlLm1hZT4nLCAnLW9tYWUnLCAnPG91dGZpbGUubWFlPic=

>  <r_epik_Ionization_Penalty>  (9) 
0.00148717

>  <r_epik_Ionization_Penalty_Charging>  (9) 
1.8677e-07

>  <r_epik_Ionization_Penalty_Neutral>  (9) 
0.00148699

>  <r_epik_State_Penalty>  (9) 
0.000995546

>  <r_epik_Charging_Adjusted_Penalty>  (9) 
0.000995733

>  <i_epik_Tot_Q>  (9) 
0

>  <i_epik_Tot_abs_Q>  (9) 
0

>  <s_lp_Force_Field>  (9) 
OPLS3e

>  <r_lp_Energy>  (9) 
42.1941

>  <b_lp_Chiralities_Consistent>  (9) 
1

>  <s_lp_Variant>  (9) 
1:0-1

>  <s_i_glide_gridfile>  (9) 
pfpi4k_grid

>  <i_i_glide_lignum>  (9) 
3

>  <i_i_glide_rotatable_bonds>  (9) 
0

>  <r_i_docking_score>  (9) 
-3.32842

>  <r_i_glide_ligand_efficiency>  (9) 
-0.221895

>  <r_i_glide_ligand_efficiency_sa>  (9) 
-0.547239

>  <r_i_glide_ligand_efficiency_ln>  (9) 
-0.897619

>  <r_i_glide_gscore>  (9) 
-3.32842

>  <r_i_glide_lipo>  (9) 
-0.00708559

>  <r_i_glide_hbond>  (9) 
0

>  <r_i_glide_metal>  (9) 
-0

>  <r_i_glide_rewards>  (9) 
-1.84568

>  <r_i_glide_evdw>  (9) 
-19.6792

>  <r_i_glide_ecoul>  (9) 
-2.71587

>  <r_i_glide_erotb>  (9) 
0

>  <r_i_glide_esite>  (9) 
-0.0843152

>  <r_i_glide_emodel>  (9) 
-27.8107

>  <r_i_glide_energy>  (9) 
-22.395

>  <r_i_glide_einternal>  (9) 
0

>  <r_i_glide_intrahb_reward>  (9) 
-0

>  <i_i_glide_confnum>  (9) 
1

>  <i_i_glide_posenum>  (9) 
10

>  <r_i_glide_eff_state_penalty>  (9) 
0

>  <ligand_id>  (9) 
1

>  <original_smiles>  (9) 
Cc1nc2c(=S)n3ccsc3nc2n1C

>  <smiles>  (9) 
[H]c1sc2nc3c(nc(C([H])([H])[H])n3C([H])([H])[H])c(=S)n2c1[H]

$$$$
3:0:0
     RDKit          3D

 52 56  0  0  1  0  0  0  0  0999 V2000
    3.4150   -2.5399    1.2163 C   0  0  0  0  0  0  0  0  0  0  0  0
    4.4357   -3.6132    1.6668 C   0  0  1  0  0  0  0  0  0  0  0  0
    4.1935   -4.0165    3.1478 C   0  0  0  0  0  0  0  0  0  0  0  0
    3.0420   -5.0163    3.4204 C   0  0  1  0  0  0  0  0  0  0  0  0
    1.7873   -4.3762    3.2958 O   0  0  0  0  0  0  0  0  0  0  0  0
    3.1762   -6.3256    2.5778 C   0  0  2  0  0  0  0  0  0  0  0  0
    4.3127   -6.8607    3.0258 F   0  0  0  0  0  0  0  0  0  0  0  0
    3.3652   -5.9809    1.0720 C   0  0  1  0  0  0  0  0  0  0  0  0
    2.0254   -5.6281    0.3840 C   0  0  0  0  0  0  0  0  0  0  0  0
    0.8195   -6.3763    0.9150 C   0  0  0  0  0  0  0  0  0  0  0  0
    0.8119   -7.1878    1.9870 C   0  0  0  0  0  0  0  0  0  0  0  0
   -0.4518   -7.9709    2.3313 C   0  0  0  0  0  0  0  0  0  0  0  0
   -0.6518   -8.1441    3.8297 C   0  0  0  0  0  0  0  0  0  0  0  0
   -1.7468   -7.9454    4.3506 O   0  0  0  0  0  0  0  0  0  0  0  0
    0.5773   -8.5603    4.6306 C   0  0  0  0  0  0  0  0  0  0  0  0
    1.7373   -7.5988    4.3270 C   0  0  0  0  0  0  0  0  0  0  0  0
    2.0814   -7.4560    2.8104 C   0  0  2  0  0  0  0  0  0  0  0  0
    2.6146   -8.8234    2.3044 C   0  0  0  0  0  0  0  0  0  0  0  0
    4.4528   -4.8985    0.7823 C   0  0  2  0  0  0  0  0  0  0  0  0
    5.9106   -5.4242    0.8117 C   0  0  0  0  0  0  0  0  0  0  0  0
    6.7987   -4.2260    1.1278 C   0  0  1  0  0  0  0  0  0  0  0  0
    7.3927   -3.3931   -0.0251 C   0  0  0  0  0  0  0  0  0  0  0  0
    6.3005   -2.3453    0.2478 C   0  0  0  0  0  0  0  0  0  0  0  0
    5.9385   -1.3338   -0.3476 O   0  0  0  0  0  0  0  0  0  0  0  0
    5.8771   -3.0785    1.5547 C   0  0  1  0  0  0  0  0  0  0  0  0
    3.6223   -1.5830    1.6973 H   0  0  0  0  0  0  0  0  0  0  0  0
    2.3846   -2.7812    1.4518 H   0  0  0  0  0  0  0  0  0  0  0  0
    3.4549   -2.3737    0.1412 H   0  0  0  0  0  0  0  0  0  0  0  0
    5.1055   -4.4814    3.5228 H   0  0  0  0  0  0  0  0  0  0  0  0
    4.0584   -3.1251    3.7635 H   0  0  0  0  0  0  0  0  0  0  0  0
    3.1296   -5.2824    4.4729 H   0  0  0  0  0  0  0  0  0  0  0  0
    1.7766   -3.9098    2.4692 H   0  0  0  0  0  0  0  0  0  0  0  0
    3.7172   -6.8874    0.5801 H   0  0  0  0  0  0  0  0  0  0  0  0
    1.8120   -4.5651    0.4224 H   0  0  0  0  0  0  0  0  0  0  0  0
    2.0940   -5.8615   -0.6758 H   0  0  0  0  0  0  0  0  0  0  0  0
   -0.0869   -6.2696    0.3374 H   0  0  0  0  0  0  0  0  0  0  0  0
   -1.3264   -7.4649    1.9245 H   0  0  0  0  0  0  0  0  0  0  0  0
   -0.4066   -8.9581    1.8756 H   0  0  0  0  0  0  0  0  0  0  0  0
    0.3475   -8.5534    5.6951 H   0  0  0  0  0  0  0  0  0  0  0  0
    0.8400   -9.5865    4.3776 H   0  0  0  0  0  0  0  0  0  0  0  0
    1.4437   -6.6382    4.7455 H   0  0  0  0  0  0  0  0  0  0  0  0
    2.6263   -7.9063    4.8825 H   0  0  0  0  0  0  0  0  0  0  0  0
    3.5012   -9.1470    2.8494 H   0  0  0  0  0  0  0  0  0  0  0  0
    2.8665   -8.7932    1.2450 H   0  0  0  0  0  0  0  0  0  0  0  0
    1.8711   -9.6124    2.4073 H   0  0  0  0  0  0  0  0  0  0  0  0
    4.3067   -4.5764   -0.2454 H   0  0  0  0  0  0  0  0  0  0  0  0
    6.0527   -6.1917    1.5711 H   0  0  0  0  0  0  0  0  0  0  0  0
    6.1770   -5.8781   -0.1415 H   0  0  0  0  0  0  0  0  0  0  0  0
    7.5611   -4.4340    1.8803 H   0  0  0  0  0  0  0  0  0  0  0  0
    8.4034   -3.0408    0.1810 H   0  0  0  0  0  0  0  0  0  0  0  0
    7.3289   -3.8751   -1.0006 H   0  0  0  0  0  0  0  0  0  0  0  0
    6.2334   -2.5524    2.4403 H   0  0  0  0  0  0  0  0  0  0  0  0
  2  1  1  6
  1 26  1  0
  1 27  1  0
  1 28  1  0
  2 19  1  0
  2 25  1  0
  2  3  1  0
  3  4  1  0
  3 29  1  0
  3 30  1  0
  4  5  1  0
  4  6  1  0
  4 31  1  1
  5 32  1  0
  6 17  1  0
  6  7  1  1
  6  8  1  0
  8  9  1  0
  8 19  1  0
  8 33  1  6
  9 10  1  0
  9 34  1  0
  9 35  1  0
 10 11  2  0
 10 36  1  0
 11 17  1  0
 11 12  1  0
 12 13  1  0
 12 37  1  0
 12 38  1  0
 13 14  2  0
 13 15  1  0
 15 16  1  0
 15 39  1  0
 15 40  1  0
 16 17  1  0
 16 41  1  0
 16 42  1  0
 17 18  1  6
 18 43  1  0
 18 44  1  0
 18 45  1  0
 19 20  1  0
 19 46  1  6
 20 21  1  0
 20 47  1  0
 20 48  1  0
 21 25  1  0
 21 22  1  0
 21 49  1  1
 22 23  1  0
 22 50  1  0
 22 51  1  0
 23 24  2  0
 23 25  1  0
 25 52  1  1
M  END
>  <i_m_ct_stereo_status>  (10) 
1

>  <s_m_source_file>  (10) 
/var/tmp/pbs.5076255.sched01/tmp7v4tqmxt/0pyfftbwv.sdf

>  <i_m_source_file_index>  (10) 
5

>  <i_lp_mmshare_version>  (10) 
48012

>  <i_f3d_flags>  (10) 
0

>  <s_epik_input>  (10) 
W0NIMl0xQyg9TylbQ0BASF0yW0NASF0xW0NIMl1bQ0BIXShbQ0BdMjNbQ0gzXSlbQ0BIXTRbQ0BAXShGKShbQ0BASF0oW0NIMl0zKVtPSF0pW0NAXTUoW0NIM10pQyg9W0NIXVtDSDJdNClbQ0gyXUMoPU8pW0NIMl1bQ0gyXTU=

>  <s_epik_cmdline>  (10) 
J2VwaWtfcHl0aG9uJywgJy1waHQnLCAnMi4wJywgJy1waCcsICc3LjAnLCAnLXRuJywgJzgnLCAnLW1hJywgJzIwMCcsICctaW1hZScsICc8aW5maWxlLm1hZT4nLCAnLW9tYWUnLCAnPG91dGZpbGUubWFlPic=

>  <r_lp_tautomer_probability>  (10) 
1

>  <r_epik_Ionization_Penalty>  (10) 
9.91097e-08

>  <r_epik_Ionization_Penalty_Charging>  (10) 
0

>  <r_epik_Ionization_Penalty_Neutral>  (10) 
9.91097e-08

>  <r_epik_State_Penalty>  (10) 
-0

>  <r_epik_Charging_Adjusted_Penalty>  (10) 
0

>  <i_epik_Tot_Q>  (10) 
0

>  <i_epik_Tot_abs_Q>  (10) 
0

>  <s_lp_Force_Field>  (10) 
OPLS3e

>  <r_lp_Energy>  (10) 
43.9471

>  <b_lp_Chiralities_Consistent>  (10) 
1

>  <s_lp_Variant>  (10) 
3:0-1

>  <s_i_glide_gridfile>  (10) 
pfpi4k_grid

>  <i_i_glide_lignum>  (10) 
5

>  <i_i_glide_rotatable_bonds>  (10) 
1

>  <r_i_docking_score>  (10) 
-3.22786

>  <r_i_glide_ligand_efficiency>  (10) 
-0.129114

>  <r_i_glide_ligand_efficiency_sa>  (10) 
-0.377533

>  <r_i_glide_ligand_efficiency_ln>  (10) 
-0.7651

>  <r_i_glide_gscore>  (10) 
-3.22786

>  <r_i_glide_lipo>  (10) 
-0.538792

>  <r_i_glide_hbond>  (10) 
-0.0159567

>  <r_i_glide_metal>  (10) 
-0

>  <r_i_glide_rewards>  (10) 
-1.11569

>  <r_i_glide_evdw>  (10) 
-25.7376

>  <r_i_glide_ecoul>  (10) 
-1.42032

>  <r_i_glide_erotb>  (10) 
0

>  <r_i_glide_esite>  (10) 
-0.0574925

>  <r_i_glide_emodel>  (10) 
-32.3651

>  <r_i_glide_energy>  (10) 
-27.1579

>  <r_i_glide_einternal>  (10) 
0.258453

>  <r_i_glide_intrahb_reward>  (10) 
-0

>  <i_i_glide_confnum>  (10) 
1

>  <i_i_glide_posenum>  (10) 
10

>  <r_i_glide_eff_state_penalty>  (10) 
0

>  <ligand_id>  (10) 
3

>  <original_smiles>  (10) 
CC12CC(O)C3(F)C(CC=C4CC(=O)CCC43C)C1CC1CC(=O)C12

>  <smiles>  (10) 
[H]OC1([H])C([H])([H])C2(C([H])([H])[H])C3([H])C(=O)C([H])([H])C3([H])C([H])([H])C2([H])C2([H])C([H])([H])C([H])=C3C([H])([H])C(=O)C([H])([H])C([H])([H])C3(C([H])([H])[H])C12F

$$$$
3:0:1
     RDKit          3D

 52 56  0  0  1  0  0  0  0  0999 V2000
    2.2244   -3.8532   -0.7888 C   0  0  0  0  0  0  0  0  0  0  0  0
    3.3255   -3.1685    0.0477 C   0  0  1  0  0  0  0  0  0  0  0  0
    2.8364   -2.9297    1.5008 C   0  0  0  0  0  0  0  0  0  0  0  0
    2.8761   -4.1502    2.4534 C   0  0  1  0  0  0  0  0  0  0  0  0
    1.8314   -5.0644    2.1638 O   0  0  0  0  0  0  0  0  0  0  0  0
    4.2872   -4.8138    2.5165 C   0  0  2  0  0  0  0  0  0  0  0  0
    5.0521   -3.8500    3.0321 F   0  0  0  0  0  0  0  0  0  0  0  0
    4.8053   -5.1270    1.0822 C   0  0  1  0  0  0  0  0  0  0  0  0
    4.1997   -6.4280    0.5033 C   0  0  0  0  0  0  0  0  0  0  0  0
    3.8728   -7.4963    1.5318 C   0  0  0  0  0  0  0  0  0  0  0  0
    3.9912   -7.3540    2.8646 C   0  0  0  0  0  0  0  0  0  0  0  0
    3.7739   -8.5631    3.7762 C   0  0  0  0  0  0  0  0  0  0  0  0
    3.1510   -8.1985    5.1216 C   0  0  0  0  0  0  0  0  0  0  0  0
    2.2602   -8.8701    5.6283 O   0  0  0  0  0  0  0  0  0  0  0  0
    3.7209   -6.9747    5.8227 C   0  0  0  0  0  0  0  0  0  0  0  0
    3.7235   -5.7809    4.8584 C   0  0  0  0  0  0  0  0  0  0  0  0
    4.4663   -6.0415    3.5077 C   0  0  2  0  0  0  0  0  0  0  0  0
    5.9730   -6.2505    3.8225 C   0  0  0  0  0  0  0  0  0  0  0  0
    4.6807   -3.9413    0.0735 C   0  0  2  0  0  0  0  0  0  0  0  0
    5.7880   -2.8644    0.1988 C   0  0  0  0  0  0  0  0  0  0  0  0
    5.1959   -1.5740   -0.3592 C   0  0  1  0  0  0  0  0  0  0  0  0
    5.3854   -1.2527   -1.8499 C   0  0  0  0  0  0  0  0  0  0  0  0
    3.9454   -1.7202   -2.0874 C   0  0  0  0  0  0  0  0  0  0  0  0
    3.2852   -1.9345   -3.1037 O   0  0  0  0  0  0  0  0  0  0  0  0
    3.6939   -1.8012   -0.5554 C   0  0  1  0  0  0  0  0  0  0  0  0
    1.4126   -3.1585   -0.9999 H   0  0  0  0  0  0  0  0  0  0  0  0
    1.7937   -4.7257   -0.3112 H   0  0  0  0  0  0  0  0  0  0  0  0
    2.6000   -4.1765   -1.7544 H   0  0  0  0  0  0  0  0  0  0  0  0
    3.4720   -2.1634    1.9463 H   0  0  0  0  0  0  0  0  0  0  0  0
    1.8357   -2.4931    1.4928 H   0  0  0  0  0  0  0  0  0  0  0  0
    2.6413   -3.7485    3.4384 H   0  0  0  0  0  0  0  0  0  0  0  0
    1.9112   -5.7985    2.7541 H   0  0  0  0  0  0  0  0  0  0  0  0
    5.8734   -5.3234    1.1671 H   0  0  0  0  0  0  0  0  0  0  0  0
    3.2879   -6.2389   -0.0558 H   0  0  0  0  0  0  0  0  0  0  0  0
    4.9054   -6.8569   -0.2085 H   0  0  0  0  0  0  0  0  0  0  0  0
    3.5625   -8.4479    1.1242 H   0  0  0  0  0  0  0  0  0  0  0  0
    3.1467   -9.3007    3.2781 H   0  0  0  0  0  0  0  0  0  0  0  0
    4.7340   -9.0364    3.9721 H   0  0  0  0  0  0  0  0  0  0  0  0
    3.1230   -6.7532    6.7067 H   0  0  0  0  0  0  0  0  0  0  0  0
    4.7241   -7.2100    6.1739 H   0  0  0  0  0  0  0  0  0  0  0  0
    2.6754   -5.5403    4.6880 H   0  0  0  0  0  0  0  0  0  0  0  0
    4.1509   -4.9114    5.3618 H   0  0  0  0  0  0  0  0  0  0  0  0
    6.4155   -5.3897    4.3251 H   0  0  0  0  0  0  0  0  0  0  0  0
    6.5528   -6.4426    2.9188 H   0  0  0  0  0  0  0  0  0  0  0  0
    6.1368   -7.1134    4.4681 H   0  0  0  0  0  0  0  0  0  0  0  0
    4.8190   -4.3602   -0.9235 H   0  0  0  0  0  0  0  0  0  0  0  0
    6.0844   -2.7082    1.2332 H   0  0  0  0  0  0  0  0  0  0  0  0
    6.6892   -3.1631   -0.3377 H   0  0  0  0  0  0  0  0  0  0  0  0
    5.3887   -0.6950    0.2597 H   0  0  0  0  0  0  0  0  0  0  0  0
    5.5225   -0.1896   -2.0476 H   0  0  0  0  0  0  0  0  0  0  0  0
    6.1566   -1.8659   -2.3192 H   0  0  0  0  0  0  0  0  0  0  0  0
    3.0796   -0.9689   -0.2084 H   0  0  0  0  0  0  0  0  0  0  0  0
  2  1  1  6
  1 26  1  0
  1 27  1  0
  1 28  1  0
  2 19  1  0
  2 25  1  0
  2  3  1  0
  3  4  1  0
  3 29  1  0
  3 30  1  0
  4  5  1  0
  4  6  1  0
  4 31  1  1
  5 32  1  0
  6 17  1  0
  6  7  1  1
  6  8  1  0
  8  9  1  0
  8 19  1  0
  8 33  1  1
  9 10  1  0
  9 34  1  0
  9 35  1  0
 10 11  2  0
 10 36  1  0
 11 17  1  0
 11 12  1  0
 12 13  1  0
 12 37  1  0
 12 38  1  0
 13 14  2  0
 13 15  1  0
 15 16  1  0
 15 39  1  0
 15 40  1  0
 16 17  1  0
 16 41  1  0
 16 42  1  0
 17 18  1  1
 18 43  1  0
 18 44  1  0
 18 45  1  0
 19 20  1  0
 19 46  1  6
 20 21  1  0
 20 47  1  0
 20 48  1  0
 21 25  1  0
 21 22  1  0
 21 49  1  1
 22 23  1  0
 22 50  1  0
 22 51  1  0
 23 24  2  0
 23 25  1  0
 25 52  1  1
M  END
>  <i_m_ct_stereo_status>  (11) 
1

>  <s_m_source_file>  (11) 
/var/tmp/pbs.5076255.sched01/tmp7v4tqmxt/0pyfftbwv.sdf

>  <i_m_source_file_index>  (11) 
5

>  <i_lp_mmshare_version>  (11) 
48012

>  <i_f3d_flags>  (11) 
0

>  <s_epik_input>  (11) 
W0NIMl0xQyg9TylbQ0BASF0yW0NASF0xW0NIMl1bQ0BIXShbQ0BdMjNbQ0gzXSlbQ0BIXTRbQ0BAXShGKShbQ0BASF0oW0NIMl0zKVtPSF0pW0NAXTUoW0NIM10pQyg9W0NIXVtDSDJdNClbQ0gyXUMoPU8pW0NIMl1bQ0gyXTU=

>  <s_epik_cmdline>  (11) 
J2VwaWtfcHl0aG9uJywgJy1waHQnLCAnMi4wJywgJy1waCcsICc3LjAnLCAnLXRuJywgJzgnLCAnLW1hJywgJzIwMCcsICctaW1hZScsICc8aW5maWxlLm1hZT4nLCAnLW9tYWUnLCAnPG91dGZpbGUubWFlPic=

>  <r_lp_tautomer_probability>  (11) 
1

>  <r_epik_Ionization_Penalty>  (11) 
9.91097e-08

>  <r_epik_Ionization_Penalty_Charging>  (11) 
0

>  <r_epik_Ionization_Penalty_Neutral>  (11) 
9.91097e-08

>  <r_epik_State_Penalty>  (11) 
-0

>  <r_epik_Charging_Adjusted_Penalty>  (11) 
0

>  <i_epik_Tot_Q>  (11) 
0

>  <i_epik_Tot_abs_Q>  (11) 
0

>  <s_lp_Force_Field>  (11) 
OPLS3e

>  <r_lp_Energy>  (11) 
43.9471

>  <b_lp_Chiralities_Consistent>  (11) 
1

>  <s_lp_Variant>  (11) 
3:0-1

>  <s_i_glide_gridfile>  (11) 
pfpi4k_grid

>  <i_i_glide_lignum>  (11) 
5

>  <i_i_glide_rotatable_bonds>  (11) 
1

>  <r_i_docking_score>  (11) 
-2.5758

>  <r_i_glide_ligand_efficiency>  (11) 
-0.103032

>  <r_i_glide_ligand_efficiency_sa>  (11) 
-0.301268

>  <r_i_glide_ligand_efficiency_ln>  (11) 
-0.610542

>  <r_i_glide_gscore>  (11) 
-2.5758

>  <r_i_glide_lipo>  (11) 
-0.32204

>  <r_i_glide_hbond>  (11) 
-0.00350329

>  <r_i_glide_metal>  (11) 
-0

>  <r_i_glide_rewards>  (11) 
-1.08964

>  <r_i_glide_evdw>  (11) 
-22.053

>  <r_i_glide_ecoul>  (11) 
-0.135821

>  <r_i_glide_erotb>  (11) 
0

>  <r_i_glide_esite>  (11) 
-0.037598

>  <r_i_glide_emodel>  (11) 
-26.2339

>  <r_i_glide_energy>  (11) 
-22.1888

>  <r_i_glide_einternal>  (11) 
0.363406

>  <r_i_glide_intrahb_reward>  (11) 
-0

>  <i_i_glide_confnum>  (11) 
2

>  <i_i_glide_posenum>  (11) 
37

>  <r_i_glide_eff_state_penalty>  (11) 
0

>  <ligand_id>  (11) 
3

>  <original_smiles>  (11) 
CC12CC(O)C3(F)C(CC=C4CC(=O)CCC43C)C1CC1CC(=O)C12

>  <smiles>  (11) 
[H]OC1([H])C([H])([H])C2(C([H])([H])[H])C3([H])C(=O)C([H])([H])C3([H])C([H])([H])C2([H])C2([H])C([H])([H])C([H])=C3C([H])([H])C(=O)C([H])([H])C([H])([H])C3(C([H])([H])[H])C12F

$$$$
3:0:2
     RDKit          3D

 52 56  0  0  1  0  0  0  0  0999 V2000
    2.2437   -3.8549   -0.7954 C   0  0  0  0  0  0  0  0  0  0  0  0
    3.3462   -3.1576    0.0315 C   0  0  1  0  0  0  0  0  0  0  0  0
    2.8661   -2.9154    1.4859 C   0  0  0  0  0  0  0  0  0  0  0  0
    2.9206   -4.1283    2.4463 C   0  0  1  0  0  0  0  0  0  0  0  0
    1.8987   -5.0620    2.1516 O   0  0  0  0  0  0  0  0  0  0  0  0
    4.3387   -4.7780    2.5063 C   0  0  2  0  0  0  0  0  0  0  0  0
    5.0986   -3.8044    3.0105 F   0  0  0  0  0  0  0  0  0  0  0  0
    4.8492   -5.0955    1.0693 C   0  0  1  0  0  0  0  0  0  0  0  0
    4.2481   -6.4039    0.4998 C   0  0  0  0  0  0  0  0  0  0  0  0
    3.9390   -7.4695    1.5360 C   0  0  0  0  0  0  0  0  0  0  0  0
    4.0693   -7.3217    2.8682 C   0  0  0  0  0  0  0  0  0  0  0  0
    3.8686   -8.5276    3.7872 C   0  0  0  0  0  0  0  0  0  0  0  0
    3.2476   -8.1597    5.1321 C   0  0  0  0  0  0  0  0  0  0  0  0
    2.3708   -8.8433    5.6516 O   0  0  0  0  0  0  0  0  0  0  0  0
    3.8088   -6.9287    5.8252 C   0  0  0  0  0  0  0  0  0  0  0  0
    3.7973   -5.7404    4.8536 C   0  0  0  0  0  0  0  0  0  0  0  0
    4.5364   -6.0007    3.5019 C   0  0  2  0  0  0  0  0  0  0  0  0
    6.0460   -6.1939    3.8101 C   0  0  0  0  0  0  0  0  0  0  0  0
    4.7093   -3.9169    0.0544 C   0  0  2  0  0  0  0  0  0  0  0  0
    5.8097   -2.8294    0.1696 C   0  0  0  0  0  0  0  0  0  0  0  0
    5.2038   -1.5476   -0.3931 C   0  0  1  0  0  0  0  0  0  0  0  0
    5.3838   -1.2374   -1.8883 C   0  0  0  0  0  0  0  0  0  0  0  0
    3.9451   -1.7146   -2.1137 C   0  0  0  0  0  0  0  0  0  0  0  0
    3.2834   -1.9411   -3.1253 O   0  0  0  0  0  0  0  0  0  0  0  0
    3.7030   -1.7891   -0.5794 C   0  0  1  0  0  0  0  0  0  0  0  0
    1.4228   -3.1704   -1.0071 H   0  0  0  0  0  0  0  0  0  0  0  0
    1.8152   -4.7292   -0.3170 H   0  0  0  0  0  0  0  0  0  0  0  0
    2.6257   -4.1742   -1.7602 H   0  0  0  0  0  0  0  0  0  0  0  0
    3.4964   -2.1409    1.9237 H   0  0  0  0  0  0  0  0  0  0  0  0
    1.8622   -2.4882    1.4812 H   0  0  0  0  0  0  0  0  0  0  0  0
    2.6770   -3.7233    3.4280 H   0  0  0  0  0  0  0  0  0  0  0  0
    2.2242   -5.6395    1.4751 H   0  0  0  0  0  0  0  0  0  0  0  0
    5.9190   -5.2846    1.1492 H   0  0  0  0  0  0  0  0  0  0  0  0
    3.3381   -6.2284   -0.0647 H   0  0  0  0  0  0  0  0  0  0  0  0
    4.9576   -6.8309   -0.2090 H   0  0  0  0  0  0  0  0  0  0  0  0
    3.6399   -8.4289    1.1370 H   0  0  0  0  0  0  0  0  0  0  0  0
    3.2464   -9.2758    3.2968 H   0  0  0  0  0  0  0  0  0  0  0  0
    4.8344   -8.9887    3.9831 H   0  0  0  0  0  0  0  0  0  0  0  0
    3.2134   -6.7068    6.7104 H   0  0  0  0  0  0  0  0  0  0  0  0
    4.8157   -7.1521    6.1727 H   0  0  0  0  0  0  0  0  0  0  0  0
    2.7465   -5.5124    4.6807 H   0  0  0  0  0  0  0  0  0  0  0  0
    4.2170   -4.8641    5.3509 H   0  0  0  0  0  0  0  0  0  0  0  0
    6.4820   -5.3267    4.3055 H   0  0  0  0  0  0  0  0  0  0  0  0
    6.6220   -6.3844    2.9053 H   0  0  0  0  0  0  0  0  0  0  0  0
    6.2220   -7.0508    4.4584 H   0  0  0  0  0  0  0  0  0  0  0  0
    4.8504   -4.3391   -0.9393 H   0  0  0  0  0  0  0  0  0  0  0  0
    6.1098   -2.6647    1.2026 H   0  0  0  0  0  0  0  0  0  0  0  0
    6.7129   -3.1234   -0.3672 H   0  0  0  0  0  0  0  0  0  0  0  0
    5.3939   -0.6628    0.2171 H   0  0  0  0  0  0  0  0  0  0  0  0
    5.5137   -0.1755   -2.0957 H   0  0  0  0  0  0  0  0  0  0  0  0
    6.1519   -1.8546   -2.3527 H   0  0  0  0  0  0  0  0  0  0  0  0
    3.0846   -0.9585   -0.2342 H   0  0  0  0  0  0  0  0  0  0  0  0
  2  1  1  6
  1 26  1  0
  1 27  1  0
  1 28  1  0
  2 19  1  0
  2 25  1  0
  2  3  1  0
  3  4  1  0
  3 29  1  0
  3 30  1  0
  4  5  1  0
  4  6  1  0
  4 31  1  1
  5 32  1  0
  6 17  1  0
  6  7  1  1
  6  8  1  0
  8  9  1  0
  8 19  1  0
  8 33  1  1
  9 10  1  0
  9 34  1  0
  9 35  1  0
 10 11  2  0
 10 36  1  0
 11 17  1  0
 11 12  1  0
 12 13  1  0
 12 37  1  0
 12 38  1  0
 13 14  2  0
 13 15  1  0
 15 16  1  0
 15 39  1  0
 15 40  1  0
 16 17  1  0
 16 41  1  0
 16 42  1  0
 17 18  1  1
 18 43  1  0
 18 44  1  0
 18 45  1  0
 19 20  1  0
 19 46  1  6
 20 21  1  0
 20 47  1  0
 20 48  1  0
 21 25  1  0
 21 22  1  0
 21 49  1  1
 22 23  1  0
 22 50  1  0
 22 51  1  0
 23 24  2  0
 23 25  1  0
 25 52  1  1
M  END
>  <i_m_ct_stereo_status>  (12) 
1

>  <s_m_source_file>  (12) 
/var/tmp/pbs.5076255.sched01/tmp7v4tqmxt/0pyfftbwv.sdf

>  <i_m_source_file_index>  (12) 
5

>  <i_lp_mmshare_version>  (12) 
48012

>  <i_f3d_flags>  (12) 
0

>  <s_epik_input>  (12) 
W0NIMl0xQyg9TylbQ0BASF0yW0NASF0xW0NIMl1bQ0BIXShbQ0BdMjNbQ0gzXSlbQ0BIXTRbQ0BAXShGKShbQ0BASF0oW0NIMl0zKVtPSF0pW0NAXTUoW0NIM10pQyg9W0NIXVtDSDJdNClbQ0gyXUMoPU8pW0NIMl1bQ0gyXTU=

>  <s_epik_cmdline>  (12) 
J2VwaWtfcHl0aG9uJywgJy1waHQnLCAnMi4wJywgJy1waCcsICc3LjAnLCAnLXRuJywgJzgnLCAnLW1hJywgJzIwMCcsICctaW1hZScsICc8aW5maWxlLm1hZT4nLCAnLW9tYWUnLCAnPG91dGZpbGUubWFlPic=

>  <r_lp_tautomer_probability>  (12) 
1

>  <r_epik_Ionization_Penalty>  (12) 
9.91097e-08

>  <r_epik_Ionization_Penalty_Charging>  (12) 
0

>  <r_epik_Ionization_Penalty_Neutral>  (12) 
9.91097e-08

>  <r_epik_State_Penalty>  (12) 
-0

>  <r_epik_Charging_Adjusted_Penalty>  (12) 
0

>  <i_epik_Tot_Q>  (12) 
0

>  <i_epik_Tot_abs_Q>  (12) 
0

>  <s_lp_Force_Field>  (12) 
OPLS3e

>  <r_lp_Energy>  (12) 
43.9471

>  <b_lp_Chiralities_Consistent>  (12) 
1

>  <s_lp_Variant>  (12) 
3:0-1

>  <s_i_glide_gridfile>  (12) 
pfpi4k_grid

>  <i_i_glide_lignum>  (12) 
5

>  <i_i_glide_rotatable_bonds>  (12) 
1

>  <r_i_docking_score>  (12) 
-2.54963

>  <r_i_glide_ligand_efficiency>  (12) 
-0.101985

>  <r_i_glide_ligand_efficiency_sa>  (12) 
-0.298206

>  <r_i_glide_ligand_efficiency_ln>  (12) 
-0.604338

>  <r_i_glide_gscore>  (12) 
-2.54963

>  <r_i_glide_lipo>  (12) 
-0.327006

>  <r_i_glide_hbond>  (12) 
0

>  <r_i_glide_metal>  (12) 
-0

>  <r_i_glide_rewards>  (12) 
-1.09381

>  <r_i_glide_evdw>  (12) 
-21.9972

>  <r_i_glide_ecoul>  (12) 
0.0544441

>  <r_i_glide_erotb>  (12) 
0

>  <r_i_glide_esite>  (12) 
-0.0371151

>  <r_i_glide_emodel>  (12) 
-25.7561

>  <r_i_glide_energy>  (12) 
-21.9428

>  <r_i_glide_einternal>  (12) 
0.342041

>  <r_i_glide_intrahb_reward>  (12) 
-0

>  <i_i_glide_confnum>  (12) 
1

>  <i_i_glide_posenum>  (12) 
14

>  <r_i_glide_eff_state_penalty>  (12) 
0

>  <ligand_id>  (12) 
3

>  <original_smiles>  (12) 
CC12CC(O)C3(F)C(CC=C4CC(=O)CCC43C)C1CC1CC(=O)C12

>  <smiles>  (12) 
[H]OC1([H])C([H])([H])C2(C([H])([H])[H])C3([H])C(=O)C([H])([H])C3([H])C([H])([H])C2([H])C2([H])C([H])([H])C([H])=C3C([H])([H])C(=O)C([H])([H])C([H])([H])C3(C([H])([H])[H])C12F

$$$$
4:0:0
     RDKit          3D

 83 87  0  0  1  0  0  0  0  0999 V2000
    1.2877   -2.6997    3.7294 C   0  0  0  0  0  0  0  0  0  0  0  0
    2.6893   -2.8172    3.1110 C   0  0  2  0  0  0  0  0  0  0  0  0
    2.8790   -1.6596    2.1122 C   0  0  0  0  0  0  0  0  0  0  0  0
    4.2668   -1.6542    1.4472 C   0  0  0  0  0  0  0  0  0  0  0  0
    4.2737   -0.6716    0.2655 C   0  0  0  0  0  0  0  0  0  0  0  0
    5.4015   -1.2714    2.4239 C   0  0  0  0  0  0  0  0  0  0  0  0
    4.4833   -2.9385    0.8636 O   0  0  0  0  0  0  0  0  0  0  0  0
    4.4358   -4.0799    1.7261 C   0  0  2  0  0  0  0  0  0  0  0  0
    4.8492   -5.2730    0.8060 C   0  0  0  0  0  0  0  0  0  0  0  0
    5.7971   -6.3836    1.3608 C   0  0  1  0  0  0  0  0  0  0  0  0
    7.2213   -5.8499    1.6316 C   0  0  0  0  0  0  0  0  0  0  0  0
    5.1513   -7.2349    2.5027 C   0  0  2  0  0  0  0  0  0  0  0  0
    4.9965   -6.4254    3.8123 C   0  0  0  0  0  0  0  0  0  0  0  0
    3.5531   -6.0881    4.3078 C   0  0  1  0  0  0  0  0  0  0  0  0
    3.7653   -4.9607    5.3543 C   0  0  0  0  0  0  0  0  0  0  0  0
    2.6644   -5.5285    3.1017 C   0  0  1  0  0  0  0  0  0  0  0  0
    1.1694   -5.8550    3.2488 C   0  0  0  0  0  0  0  0  0  0  0  0
    0.9090   -7.3783    3.3677 C   0  0  0  0  0  0  0  0  0  0  0  0
    2.0371   -8.2236    4.0546 C   0  0  1  0  0  0  0  0  0  0  0  0
    2.7801   -9.3678    3.2139 C   0  0  0  0  0  0  0  0  0  0  0  0
    2.1219  -10.7280    3.6225 C   0  0  0  0  0  0  0  0  0  0  0  0
    2.4642   -9.3356    1.6964 C   0  0  0  0  0  0  0  0  0  0  0  0
    4.3370   -9.4981    3.5399 C   0  0  2  0  0  0  0  0  0  0  0  0
    4.5168   -9.4605    5.0780 C   0  0  0  0  0  0  0  0  0  0  0  0
    3.9021   -8.2604    5.8180 C   0  0  0  0  0  0  0  0  0  0  0  0
    2.8866   -7.3570    5.0408 C   0  0  1  0  0  0  0  0  0  0  0  0
    1.9213   -6.9129    6.1973 C   0  0  0  0  0  0  0  0  0  0  0  0
    5.4787   -8.7512    2.6914 C   0  0  0  0  0  0  0  0  0  0  0  0
    5.6203   -9.4417    1.3024 C   0  0  0  0  0  0  0  0  0  0  0  0
    6.8760   -8.9596    3.3356 C   0  0  0  0  0  0  0  0  0  0  0  0
    3.0073   -4.1625    2.3802 C   0  0  1  0  0  0  0  0  0  0  0  0
    0.5159   -2.9959    3.0237 H   0  0  0  0  0  0  0  0  0  0  0  0
    1.0772   -1.6728    4.0299 H   0  0  0  0  0  0  0  0  0  0  0  0
    1.1905   -3.3002    4.6286 H   0  0  0  0  0  0  0  0  0  0  0  0
    3.3948   -2.6468    3.9178 H   0  0  0  0  0  0  0  0  0  0  0  0
    2.1129   -1.7334    1.3366 H   0  0  0  0  0  0  0  0  0  0  0  0
    2.7110   -0.6983    2.6022 H   0  0  0  0  0  0  0  0  0  0  0  0
    4.0893    0.3518    0.5962 H   0  0  0  0  0  0  0  0  0  0  0  0
    3.4999   -0.9299   -0.4612 H   0  0  0  0  0  0  0  0  0  0  0  0
    5.2315   -0.6856   -0.2564 H   0  0  0  0  0  0  0  0  0  0  0  0
    5.2934   -0.2400    2.7622 H   0  0  0  0  0  0  0  0  0  0  0  0
    6.3768   -1.3597    1.9446 H   0  0  0  0  0  0  0  0  0  0  0  0
    5.4206   -1.8940    3.3176 H   0  0  0  0  0  0  0  0  0  0  0  0
    5.2024   -3.9149    2.4767 H   0  0  0  0  0  0  0  0  0  0  0  0
    3.9577   -5.7262    0.3723 H   0  0  0  0  0  0  0  0  0  0  0  0
    5.3638   -4.8571   -0.0618 H   0  0  0  0  0  0  0  0  0  0  0  0
    5.9099   -7.0382    0.5014 H   0  0  0  0  0  0  0  0  0  0  0  0
    7.2670   -5.1289    2.4456 H   0  0  0  0  0  0  0  0  0  0  0  0
    7.6115   -5.3482    0.7454 H   0  0  0  0  0  0  0  0  0  0  0  0
    7.9220   -6.6497    1.8617 H   0  0  0  0  0  0  0  0  0  0  0  0
    4.1981   -7.4030    2.0749 H   0  0  0  0  0  0  0  0  0  0  0  0
    5.6021   -6.8616    4.5949 H   0  0  0  0  0  0  0  0  0  0  0  0
    5.5386   -5.4981    3.7030 H   0  0  0  0  0  0  0  0  0  0  0  0
    2.8270   -4.4955    5.6505 H   0  0  0  0  0  0  0  0  0  0  0  0
    4.4107   -4.1665    4.9876 H   0  0  0  0  0  0  0  0  0  0  0  0
    4.2517   -5.3292    6.2569 H   0  0  0  0  0  0  0  0  0  0  0  0
    2.7791   -6.1698    2.2499 H   0  0  0  0  0  0  0  0  0  0  0  0
    0.7274   -5.3234    4.0833 H   0  0  0  0  0  0  0  0  0  0  0  0
    0.6287   -5.4906    2.3766 H   0  0  0  0  0  0  0  0  0  0  0  0
   -0.0019   -7.4972    3.9553 H   0  0  0  0  0  0  0  0  0  0  0  0
    0.6269   -7.7656    2.3945 H   0  0  0  0  0  0  0  0  0  0  0  0
    1.4471   -8.8232    4.7492 H   0  0  0  0  0  0  0  0  0  0  0  0
    2.5879  -11.5759    3.1183 H   0  0  0  0  0  0  0  0  0  0  0  0
    1.0620  -10.7622    3.3656 H   0  0  0  0  0  0  0  0  0  0  0  0
    2.1656  -10.9322    4.6918 H   0  0  0  0  0  0  0  0  0  0  0  0
    3.0090  -10.1158    1.1654 H   0  0  0  0  0  0  0  0  0  0  0  0
    2.6419   -8.3805    1.2111 H   0  0  0  0  0  0  0  0  0  0  0  0
    1.4186   -9.5655    1.5095 H   0  0  0  0  0  0  0  0  0  0  0  0
    4.5709  -10.5395    3.3200 H   0  0  0  0  0  0  0  0  0  0  0  0
    4.0532  -10.3567    5.4861 H   0  0  0  0  0  0  0  0  0  0  0  0
    5.5478   -9.5911    5.3953 H   0  0  0  0  0  0  0  0  0  0  0  0
    3.4186   -8.7028    6.6911 H   0  0  0  0  0  0  0  0  0  0  0  0
    4.6835   -7.6608    6.2795 H   0  0  0  0  0  0  0  0  0  0  0  0
    1.3731   -7.7577    6.6161 H   0  0  0  0  0  0  0  0  0  0  0  0
    1.1704   -6.1854    5.9136 H   0  0  0  0  0  0  0  0  0  0  0  0
    2.4626   -6.4861    7.0408 H   0  0  0  0  0  0  0  0  0  0  0  0
    5.5859  -10.5301    1.3766 H   0  0  0  0  0  0  0  0  0  0  0  0
    6.5728   -9.2050    0.8263 H   0  0  0  0  0  0  0  0  0  0  0  0
    4.8548   -9.1364    0.5922 H   0  0  0  0  0  0  0  0  0  0  0  0
    7.0546  -10.0173    3.5343 H   0  0  0  0  0  0  0  0  0  0  0  0
    7.0125   -8.4284    4.2748 H   0  0  0  0  0  0  0  0  0  0  0  0
    7.6857   -8.6340    2.6854 H   0  0  0  0  0  0  0  0  0  0  0  0
    2.3330   -4.1578    1.5233 H   0  0  0  0  0  0  0  0  0  0  0  0
  1  2  1  0
  1 32  1  0
  1 33  1  0
  1 34  1  0
  2 31  1  0
  2  3  1  0
  2 35  1  1
  3  4  1  0
  3 36  1  0
  3 37  1  0
  4  5  1  0
  4  6  1  0
  4  7  1  0
  5 38  1  0
  5 39  1  0
  5 40  1  0
  6 41  1  0
  6 42  1  0
  6 43  1  0
  7  8  1  0
  8 31  1  0
  8  9  1  0
  8 44  1  1
  9 10  1  0
  9 45  1  0
  9 46  1  0
 10 11  1  0
 10 12  1  0
 10 47  1  6
 11 48  1  0
 11 49  1  0
 11 50  1  0
 12 28  1  0
 12 13  1  0
 12 51  1  6
 13 14  1  0
 13 52  1  0
 13 53  1  0
 14 26  1  0
 14 15  1  1
 14 16  1  0
 15 54  1  0
 15 55  1  0
 15 56  1  0
 16 17  1  0
 16 31  1  0
 16 57  1  6
 17 18  1  0
 17 58  1  0
 17 59  1  0
 18 19  1  0
 18 60  1  0
 18 61  1  0
 19 26  1  0
 19 20  1  0
 19 62  1  1
 20 21  1  0
 20 22  1  0
 20 23  1  0
 21 63  1  0
 21 64  1  0
 21 65  1  0
 22 66  1  0
 22 67  1  0
 22 68  1  0
 23 24  1  0
 23 28  1  0
 23 69  1  6
 24 25  1  0
 24 70  1  0
 24 71  1  0
 25 26  1  0
 25 72  1  0
 25 73  1  0
 26 27  1  1
 27 74  1  0
 27 75  1  0
 27 76  1  0
 28 29  1  0
 28 30  1  0
 29 77  1  0
 29 78  1  0
 29 79  1  0
 30 80  1  0
 30 81  1  0
 30 82  1  0
 31 83  1  6
M  END
>  <i_m_ct_stereo_status>  (13) 
1

>  <s_m_source_file>  (13) 
/var/tmp/pbs.5076255.sched01/tmp7v4tqmxt/0pyfftbwv.sdf

>  <i_m_source_file_index>  (13) 
6

>  <i_lp_mmshare_version>  (13) 
48012

>  <i_f3d_flags>  (13) 
0

>  <s_epik_input>  (13) 
W0NIM11bQ0BASF0xW0NIMl1DKFtDSDNdKShbQ0gzXSlPW0NAQEhdKFtDQEhdMVtDQEhdMltDQF0zNFtDSDNdKVtDSDJdW0NAQEhdKFtDSDNdKVtDQEhdKFtDSDJdMylDKFtDSDNdKShbQ0gzXSlbQ0BASF01QyhbQ0gzXSkoW0NIM10pW0NASF0oW0NIMl1bQ0gyXTIpW0NAQF00KFtDSDNdKVtDSDJdW0NIMl01

>  <s_epik_cmdline>  (13) 
J2VwaWtfcHl0aG9uJywgJy1waHQnLCAnMi4wJywgJy1waCcsICc3LjAnLCAnLXRuJywgJzgnLCAnLW1hJywgJzIwMCcsICctaW1hZScsICc8aW5maWxlLm1hZT4nLCAnLW9tYWUnLCAnPG91dGZpbGUubWFlPic=

>  <r_lp_tautomer_probability>  (13) 
1

>  <r_epik_Ionization_Penalty>  (13) 
1.14514e-10

>  <r_epik_Ionization_Penalty_Charging>  (13) 
0

>  <r_epik_Ionization_Penalty_Neutral>  (13) 
1.14514e-10

>  <r_epik_State_Penalty>  (13) 
-0

>  <r_epik_Charging_Adjusted_Penalty>  (13) 
0

>  <i_epik_Tot_Q>  (13) 
0

>  <i_epik_Tot_abs_Q>  (13) 
0

>  <s_lp_Force_Field>  (13) 
OPLS3e

>  <r_lp_Energy>  (13) 
148.227

>  <b_lp_Chiralities_Consistent>  (13) 
1

>  <s_lp_Variant>  (13) 
4:0-1

>  <s_i_glide_gridfile>  (13) 
pfpi4k_grid

>  <i_i_glide_lignum>  (13) 
6

>  <i_i_glide_rotatable_bonds>  (13) 
0

>  <r_i_docking_score>  (13) 
-2.53348

>  <r_i_glide_ligand_efficiency>  (13) 
-0.0817253

>  <r_i_glide_ligand_efficiency_sa>  (13) 
-0.25673

>  <r_i_glide_ligand_efficiency_ln>  (13) 
-0.571378

>  <r_i_glide_gscore>  (13) 
-2.53348

>  <r_i_glide_lipo>  (13) 
-0.549375

>  <r_i_glide_hbond>  (13) 
0

>  <r_i_glide_metal>  (13) 
-0

>  <r_i_glide_rewards>  (13) 
-0.485909

>  <r_i_glide_evdw>  (13) 
-28.5067

>  <r_i_glide_ecoul>  (13) 
-0.485751

>  <r_i_glide_erotb>  (13) 
0

>  <r_i_glide_esite>  (13) 
0

>  <r_i_glide_emodel>  (13) 
-33.4587

>  <r_i_glide_energy>  (13) 
-28.9925

>  <r_i_glide_einternal>  (13) 
0

>  <r_i_glide_intrahb_reward>  (13) 
-0

>  <i_i_glide_confnum>  (13) 
1

>  <i_i_glide_posenum>  (13) 
1

>  <r_i_glide_eff_state_penalty>  (13) 
0

>  <ligand_id>  (13) 
4

>  <original_smiles>  (13) 
CC1CC(C)(C)OC2CC(C)C3CC4(C)C(CCC5C(C)(C)C(CCC54C)C3(C)C)C12

>  <smiles>  (13) 
[H]C([H])([H])C1([H])C([H])([H])C(C([H])([H])[H])(C([H])([H])[H])OC2([H])C([H])([H])C([H])(C([H])([H])[H])C3([H])C([H])([H])C4(C([H])([H])[H])C([H])(C([H])([H])C([H])([H])C5([H])C(C([H])([H])[H])(C([H])([H])[H])C([H])(C([H])([H])C([H])([H])C54C([H])([H])[H])C3(C([H])([H])[H])C([H])([H])[H])C21[H]

$$$$
4:0:1
     RDKit          3D

 83 87  0  0  1  0  0  0  0  0999 V2000
    3.2817   -0.2939    1.4203 C   0  0  0  0  0  0  0  0  0  0  0  0
    3.9367   -1.5781    0.8892 C   0  0  2  0  0  0  0  0  0  0  0  0
    4.0324   -1.4722   -0.6450 C   0  0  0  0  0  0  0  0  0  0  0  0
    4.6951   -2.6973   -1.2977 C   0  0  0  0  0  0  0  0  0  0  0  0
    4.4823   -2.6634   -2.8219 C   0  0  0  0  0  0  0  0  0  0  0  0
    6.2093   -2.7890   -1.0037 C   0  0  0  0  0  0  0  0  0  0  0  0
    4.0006   -3.8591   -0.8525 O   0  0  0  0  0  0  0  0  0  0  0  0
    3.9516   -4.1166    0.5545 C   0  0  2  0  0  0  0  0  0  0  0  0
    3.2657   -5.5158    0.6652 C   0  0  0  0  0  0  0  0  0  0  0  0
    3.7863   -6.5558    1.7101 C   0  0  1  0  0  0  0  0  0  0  0  0
    5.1984   -7.0654    1.3625 C   0  0  0  0  0  0  0  0  0  0  0  0
    3.5631   -6.1097    3.1918 C   0  0  2  0  0  0  0  0  0  0  0  0
    4.4881   -4.9348    3.5867 C   0  0  0  0  0  0  0  0  0  0  0  0
    3.8314   -3.5497    3.8885 C   0  0  1  0  0  0  0  0  0  0  0  0
    5.0156   -2.5487    3.8319 C   0  0  0  0  0  0  0  0  0  0  0  0
    2.7717   -3.1716    2.7521 C   0  0  1  0  0  0  0  0  0  0  0  0
    1.6159   -2.3001    3.2722 C   0  0  0  0  0  0  0  0  0  0  0  0
    0.8521   -2.9714    4.4417 C   0  0  0  0  0  0  0  0  0  0  0  0
    1.6907   -3.9158    5.3691 C   0  0  1  0  0  0  0  0  0  0  0  0
    1.3052   -5.4679    5.4604 C   0  0  0  0  0  0  0  0  0  0  0  0
    0.4705   -5.6468    6.7718 C   0  0  0  0  0  0  0  0  0  0  0  0
    0.2786   -5.9342    4.3968 C   0  0  0  0  0  0  0  0  0  0  0  0
    2.5702   -6.4346    5.5929 C   0  0  2  0  0  0  0  0  0  0  0  0
    3.5380   -5.8337    6.6417 C   0  0  0  0  0  0  0  0  0  0  0  0
    3.9851   -4.3799    6.4211 C   0  0  0  0  0  0  0  0  0  0  0  0
    3.2034   -3.5210    5.3689 C   0  0  1  0  0  0  0  0  0  0  0  0
    3.2976   -2.0903    6.0081 C   0  0  0  0  0  0  0  0  0  0  0  0
    3.2677   -7.1382    4.3288 C   0  0  0  0  0  0  0  0  0  0  0  0
    2.3406   -8.2709    3.7957 C   0  0  0  0  0  0  0  0  0  0  0  0
    4.5506   -7.9006    4.7602 C   0  0  0  0  0  0  0  0  0  0  0  0
    3.2156   -2.9173    1.2541 C   0  0  1  0  0  0  0  0  0  0  0  0
    2.2120   -0.2732    1.2127 H   0  0  0  0  0  0  0  0  0  0  0  0
    3.7203    0.5892    0.9546 H   0  0  0  0  0  0  0  0  0  0  0  0
    3.4348   -0.1750    2.4894 H   0  0  0  0  0  0  0  0  0  0  0  0
    4.9558   -1.5807    1.2622 H   0  0  0  0  0  0  0  0  0  0  0  0
    3.0234   -1.3608   -1.0487 H   0  0  0  0  0  0  0  0  0  0  0  0
    4.5709   -0.5695   -0.9360 H   0  0  0  0  0  0  0  0  0  0  0  0
    4.9519   -1.7858   -3.2689 H   0  0  0  0  0  0  0  0  0  0  0  0
    3.4190   -2.6335   -3.0676 H   0  0  0  0  0  0  0  0  0  0  0  0
    4.9046   -3.5500   -3.2991 H   0  0  0  0  0  0  0  0  0  0  0  0
    6.7435   -1.9585   -1.4644 H   0  0  0  0  0  0  0  0  0  0  0  0
    6.6266   -3.7132   -1.4047 H   0  0  0  0  0  0  0  0  0  0  0  0
    6.4375   -2.7625    0.0611 H   0  0  0  0  0  0  0  0  0  0  0  0
    4.9836   -4.1913    0.8798 H   0  0  0  0  0  0  0  0  0  0  0  0
    2.1902   -5.3876    0.7753 H   0  0  0  0  0  0  0  0  0  0  0  0
    3.3634   -6.0040   -0.3064 H   0  0  0  0  0  0  0  0  0  0  0  0
    3.1456   -7.4173    1.5344 H   0  0  0  0  0  0  0  0  0  0  0  0
    5.9689   -6.2993    1.4343 H   0  0  0  0  0  0  0  0  0  0  0  0
    5.2078   -7.4324    0.3382 H   0  0  0  0  0  0  0  0  0  0  0  0
    5.5018   -7.9010    1.9893 H   0  0  0  0  0  0  0  0  0  0  0  0
    2.5642   -5.7672    3.1193 H   0  0  0  0  0  0  0  0  0  0  0  0
    5.1679   -5.2421    4.3700 H   0  0  0  0  0  0  0  0  0  0  0  0
    5.2162   -4.7984    2.8028 H   0  0  0  0  0  0  0  0  0  0  0  0
    4.6802   -1.5130    3.8395 H   0  0  0  0  0  0  0  0  0  0  0  0
    5.6291   -2.6763    2.9444 H   0  0  0  0  0  0  0  0  0  0  0  0
    5.6987   -2.6822    4.6694 H   0  0  0  0  0  0  0  0  0  0  0  0
    2.1335   -4.0129    2.5692 H   0  0  0  0  0  0  0  0  0  0  0  0
    1.9614   -1.3126    3.5529 H   0  0  0  0  0  0  0  0  0  0  0  0
    0.9057   -2.1166    2.4661 H   0  0  0  0  0  0  0  0  0  0  0  0
    0.4526   -2.1633    5.0542 H   0  0  0  0  0  0  0  0  0  0  0  0
   -0.0399   -3.4540    4.0603 H   0  0  0  0  0  0  0  0  0  0  0  0
    1.3795   -3.5614    6.3515 H   0  0  0  0  0  0  0  0  0  0  0  0
    0.1920   -6.6878    6.9385 H   0  0  0  0  0  0  0  0  0  0  0  0
   -0.4593   -5.0779    6.7412 H   0  0  0  0  0  0  0  0  0  0  0  0
    0.9892   -5.3095    7.6673 H   0  0  0  0  0  0  0  0  0  0  0  0
    0.0715   -6.9995    4.4860 H   0  0  0  0  0  0  0  0  0  0  0  0
    0.5514   -5.7075    3.3701 H   0  0  0  0  0  0  0  0  0  0  0  0
   -0.6878   -5.4615    4.5527 H   0  0  0  0  0  0  0  0  0  0  0  0
    2.1907   -7.3068    6.1239 H   0  0  0  0  0  0  0  0  0  0  0  0
    3.0402   -5.8704    7.6089 H   0  0  0  0  0  0  0  0  0  0  0  0
    4.4109   -6.4543    6.8283 H   0  0  0  0  0  0  0  0  0  0  0  0
    3.9119   -3.9202    7.4072 H   0  0  0  0  0  0  0  0  0  0  0  0
    5.0565   -4.3378    6.2368 H   0  0  0  0  0  0  0  0  0  0  0  0
    2.7642   -2.0324    6.9567 H   0  0  0  0  0  0  0  0  0  0  0  0
    2.9007   -1.2890    5.3965 H   0  0  0  0  0  0  0  0  0  0  0  0
    4.3243   -1.8156    6.2477 H   0  0  0  0  0  0  0  0  0  0  0  0
    1.8985   -8.8601    4.6008 H   0  0  0  0  0  0  0  0  0  0  0  0
    2.8862   -8.9819    3.1720 H   0  0  0  0  0  0  0  0  0  0  0  0
    1.5310   -7.9026    3.1688 H   0  0  0  0  0  0  0  0  0  0  0  0
    4.3441   -8.5555    5.6082 H   0  0  0  0  0  0  0  0  0  0  0  0
    5.3753   -7.2519    5.0470 H   0  0  0  0  0  0  0  0  0  0  0  0
    4.9342   -8.5436    3.9696 H   0  0  0  0  0  0  0  0  0  0  0  0
    2.2652   -2.8497    0.7231 H   0  0  0  0  0  0  0  0  0  0  0  0
  1  2  1  0
  1 32  1  0
  1 33  1  0
  1 34  1  0
  2 31  1  0
  2  3  1  0
  2 35  1  1
  3  4  1  0
  3 36  1  0
  3 37  1  0
  4  5  1  0
  4  6  1  0
  4  7  1  0
  5 38  1  0
  5 39  1  0
  5 40  1  0
  6 41  1  0
  6 42  1  0
  6 43  1  0
  7  8  1  0
  8 31  1  0
  8  9  1  0
  8 44  1  1
  9 10  1  0
  9 45  1  0
  9 46  1  0
 10 11  1  0
 10 12  1  0
 10 47  1  1
 11 48  1  0
 11 49  1  0
 11 50  1  0
 12 28  1  0
 12 13  1  0
 12 51  1  6
 13 14  1  0
 13 52  1  0
 13 53  1  0
 14 26  1  0
 14 15  1  1
 14 16  1  0
 15 54  1  0
 15 55  1  0
 15 56  1  0
 16 17  1  0
 16 31  1  0
 16 57  1  6
 17 18  1  0
 17 58  1  0
 17 59  1  0
 18 19  1  0
 18 60  1  0
 18 61  1  0
 19 26  1  0
 19 20  1  0
 19 62  1  1
 20 21  1  0
 20 22  1  0
 20 23  1  0
 21 63  1  0
 21 64  1  0
 21 65  1  0
 22 66  1  0
 22 67  1  0
 22 68  1  0
 23 24  1  0
 23 28  1  0
 23 69  1  1
 24 25  1  0
 24 70  1  0
 24 71  1  0
 25 26  1  0
 25 72  1  0
 25 73  1  0
 26 27  1  1
 27 74  1  0
 27 75  1  0
 27 76  1  0
 28 29  1  0
 28 30  1  0
 29 77  1  0
 29 78  1  0
 29 79  1  0
 30 80  1  0
 30 81  1  0
 30 82  1  0
 31 83  1  6
M  END
>  <i_m_ct_stereo_status>  (14) 
1

>  <s_m_source_file>  (14) 
/var/tmp/pbs.5076255.sched01/tmp7v4tqmxt/0pyfftbwv.sdf

>  <i_m_source_file_index>  (14) 
6

>  <i_lp_mmshare_version>  (14) 
48012

>  <i_f3d_flags>  (14) 
0

>  <s_epik_input>  (14) 
W0NIM11bQ0BASF0xW0NIMl1DKFtDSDNdKShbQ0gzXSlPW0NAQEhdKFtDQEhdMVtDQEhdMltDQF0zNFtDSDNdKVtDSDJdW0NAQEhdKFtDSDNdKVtDQEhdKFtDSDJdMylDKFtDSDNdKShbQ0gzXSlbQ0BASF01QyhbQ0gzXSkoW0NIM10pW0NASF0oW0NIMl1bQ0gyXTIpW0NAQF00KFtDSDNdKVtDSDJdW0NIMl01

>  <s_epik_cmdline>  (14) 
J2VwaWtfcHl0aG9uJywgJy1waHQnLCAnMi4wJywgJy1waCcsICc3LjAnLCAnLXRuJywgJzgnLCAnLW1hJywgJzIwMCcsICctaW1hZScsICc8aW5maWxlLm1hZT4nLCAnLW9tYWUnLCAnPG91dGZpbGUubWFlPic=

>  <r_lp_tautomer_probability>  (14) 
1

>  <r_epik_Ionization_Penalty>  (14) 
1.14514e-10

>  <r_epik_Ionization_Penalty_Charging>  (14) 
0

>  <r_epik_Ionization_Penalty_Neutral>  (14) 
1.14514e-10

>  <r_epik_State_Penalty>  (14) 
-0

>  <r_epik_Charging_Adjusted_Penalty>  (14) 
0

>  <i_epik_Tot_Q>  (14) 
0

>  <i_epik_Tot_abs_Q>  (14) 
0

>  <s_lp_Force_Field>  (14) 
OPLS3e

>  <r_lp_Energy>  (14) 
148.227

>  <b_lp_Chiralities_Consistent>  (14) 
1

>  <s_lp_Variant>  (14) 
4:0-1

>  <s_i_glide_gridfile>  (14) 
pfpi4k_grid

>  <i_i_glide_lignum>  (14) 
6

>  <i_i_glide_rotatable_bonds>  (14) 
0

>  <r_i_docking_score>  (14) 
-2.07483

>  <r_i_glide_ligand_efficiency>  (14) 
-0.0669301

>  <r_i_glide_ligand_efficiency_sa>  (14) 
-0.210253

>  <r_i_glide_ligand_efficiency_ln>  (14) 
-0.467939

>  <r_i_glide_gscore>  (14) 
-2.07483

>  <r_i_glide_lipo>  (14) 
-0.354812

>  <r_i_glide_hbond>  (14) 
0

>  <r_i_glide_metal>  (14) 
-0

>  <r_i_glide_rewards>  (14) 
-0.485909

>  <r_i_glide_evdw>  (14) 
-27.7742

>  <r_i_glide_ecoul>  (14) 
1.03065

>  <r_i_glide_erotb>  (14) 
0

>  <r_i_glide_esite>  (14) 
0

>  <r_i_glide_emodel>  (14) 
-30.3678

>  <r_i_glide_energy>  (14) 
-26.7436

>  <r_i_glide_einternal>  (14) 
0

>  <r_i_glide_intrahb_reward>  (14) 
-0

>  <i_i_glide_confnum>  (14) 
1

>  <i_i_glide_posenum>  (14) 
11

>  <r_i_glide_eff_state_penalty>  (14) 
0

>  <ligand_id>  (14) 
4

>  <original_smiles>  (14) 
CC1CC(C)(C)OC2CC(C)C3CC4(C)C(CCC5C(C)(C)C(CCC54C)C3(C)C)C12

>  <smiles>  (14) 
[H]C([H])([H])C1([H])C([H])([H])C(C([H])([H])[H])(C([H])([H])[H])OC2([H])C([H])([H])C([H])(C([H])([H])[H])C3([H])C([H])([H])C4(C([H])([H])[H])C([H])(C([H])([H])C([H])([H])C5([H])C(C([H])([H])[H])(C([H])([H])[H])C([H])(C([H])([H])C([H])([H])C54C([H])([H])[H])C3(C([H])([H])[H])C([H])([H])[H])C21[H]

$$$$
4:0:2
     RDKit          3D

 83 87  0  0  1  0  0  0  0  0999 V2000
    3.3141   -0.2164    2.8919 C   0  0  0  0  0  0  0  0  0  0  0  0
    3.8496   -1.2938    1.9358 C   0  0  2  0  0  0  0  0  0  0  0  0
    3.8916   -0.7014    0.5156 C   0  0  0  0  0  0  0  0  0  0  0  0
    4.4307   -1.6840   -0.5390 C   0  0  0  0  0  0  0  0  0  0  0  0
    4.1635   -1.1404   -1.9540 C   0  0  0  0  0  0  0  0  0  0  0  0
    5.9427   -1.9561   -0.3806 C   0  0  0  0  0  0  0  0  0  0  0  0
    3.6731   -2.8890   -0.4552 O   0  0  0  0  0  0  0  0  0  0  0  0
    3.6564   -3.5799    0.7971 C   0  0  2  0  0  0  0  0  0  0  0  0
    2.8725   -4.8945    0.4972 C   0  0  0  0  0  0  0  0  0  0  0  0
    3.3510   -6.2432    1.1177 C   0  0  1  0  0  0  0  0  0  0  0  0
    4.7004   -6.6931    0.5274 C   0  0  0  0  0  0  0  0  0  0  0  0
    3.2233   -6.2936    2.6736 C   0  0  2  0  0  0  0  0  0  0  0  0
    4.2507   -5.3697    3.3673 C   0  0  0  0  0  0  0  0  0  0  0  0
    3.7166   -4.1208    4.1383 C   0  0  1  0  0  0  0  0  0  0  0  0
    4.9734   -3.2315    4.3336 C   0  0  0  0  0  0  0  0  0  0  0  0
    2.6424   -3.3325    3.2517 C   0  0  1  0  0  0  0  0  0  0  0  0
    1.5753   -2.6111    4.0897 C   0  0  0  0  0  0  0  0  0  0  0  0
    0.8089   -3.5811    5.0238 C   0  0  0  0  0  0  0  0  0  0  0  0
    1.6114   -4.8213    5.5493 C   0  0  1  0  0  0  0  0  0  0  0  0
    1.1138   -6.2942    5.1636 C   0  0  0  0  0  0  0  0  0  0  0  0
    0.3251   -6.8394    6.3974 C   0  0  0  0  0  0  0  0  0  0  0  0
    0.0043   -6.3231    4.0800 C   0  0  0  0  0  0  0  0  0  0  0  0
    2.3035   -7.3246    4.8953 C   0  0  2  0  0  0  0  0  0  0  0  0
    3.3569   -7.1585    6.0192 C   0  0  0  0  0  0  0  0  0  0  0  0
    3.9041   -5.7401    6.2514 C   0  0  0  0  0  0  0  0  0  0  0  0
    3.1495   -4.5407    5.5842 C   0  0  1  0  0  0  0  0  0  0  0  0
    3.3783   -3.4050    6.6440 C   0  0  0  0  0  0  0  0  0  0  0  0
    2.8948   -7.6194    3.4317 C   0  0  0  0  0  0  0  0  0  0  0  0
    1.8622   -8.4581    2.6196 C   0  0  0  0  0  0  0  0  0  0  0  0
    4.1314   -8.5552    3.5106 C   0  0  0  0  0  0  0  0  0  0  0  0
    3.0430   -2.6318    1.8911 C   0  0  1  0  0  0  0  0  0  0  0  0
    2.2418   -0.0670    2.7714 H   0  0  0  0  0  0  0  0  0  0  0  0
    3.7985    0.7438    2.7103 H   0  0  0  0  0  0  0  0  0  0  0  0
    3.5201   -0.4618    3.9297 H   0  0  0  0  0  0  0  0  0  0  0  0
    4.8797   -1.4774    2.2243 H   0  0  0  0  0  0  0  0  0  0  0  0
    2.8781   -0.4058    0.2376 H   0  0  0  0  0  0  0  0  0  0  0  0
    4.4856    0.2136    0.4946 H   0  0  0  0  0  0  0  0  0  0  0  0
    4.6759   -0.1924   -2.1217 H   0  0  0  0  0  0  0  0  0  0  0  0
    3.0951   -0.9701   -2.1084 H   0  0  0  0  0  0  0  0  0  0  0  0
    4.4972   -1.8421   -2.7197 H   0  0  0  0  0  0  0  0  0  0  0  0
    6.5159   -1.0499   -0.5619 H   0  0  0  0  0  0  0  0  0  0  0  0
    6.2802   -2.7132   -1.0885 H   0  0  0  0  0  0  0  0  0  0  0  0
    6.2122   -2.2963    0.6180 H   0  0  0  0  0  0  0  0  0  0  0  0
    4.6913   -3.8173    1.0183 H   0  0  0  0  0  0  0  0  0  0  0  0
    1.8157   -4.7439    0.7156 H   0  0  0  0  0  0  0  0  0  0  0  0
    2.8834   -5.0438   -0.5819 H   0  0  0  0  0  0  0  0  0  0  0  0
    2.6365   -6.9582    0.7241 H   0  0  0  0  0  0  0  0  0  0  0  0
    5.5328   -6.0430    0.7949 H   0  0  0  0  0  0  0  0  0  0  0  0
    4.6425   -6.7006   -0.5620 H   0  0  0  0  0  0  0  0  0  0  0  0
    4.9627   -7.7046    0.8278 H   0  0  0  0  0  0  0  0  0  0  0  0
    2.2507   -5.8892    2.7795 H   0  0  0  0  0  0  0  0  0  0  0  0
    4.9355   -5.9561    3.9647 H   0  0  0  0  0  0  0  0  0  0  0  0
    4.9556   -5.0296    2.6241 H   0  0  0  0  0  0  0  0  0  0  0  0
    4.7190   -2.2371    4.6965 H   0  0  0  0  0  0  0  0  0  0  0  0
    5.5364   -3.0981    3.4134 H   0  0  0  0  0  0  0  0  0  0  0  0
    5.6796   -3.6709    5.0380 H   0  0  0  0  0  0  0  0  0  0  0  0
    1.9343   -4.0289    2.8483 H   0  0  0  0  0  0  0  0  0  0  0  0
    2.0041   -1.7922    4.6559 H   0  0  0  0  0  0  0  0  0  0  0  0
    0.8489   -2.1351    3.4298 H   0  0  0  0  0  0  0  0  0  0  0  0
    0.4939   -2.9970    5.8882 H   0  0  0  0  0  0  0  0  0  0  0  0
   -0.1296   -3.8539    4.5533 H   0  0  0  0  0  0  0  0  0  0  0  0
    1.3673   -4.7871    6.6117 H   0  0  0  0  0  0  0  0  0  0  0  0
   -0.0278   -7.8588    6.2355 H   0  0  0  0  0  0  0  0  0  0  0  0
   -0.5573   -6.2361    6.6122 H   0  0  0  0  0  0  0  0  0  0  0  0
    0.9050   -6.8456    7.3190 H   0  0  0  0  0  0  0  0  0  0  0  0
   -0.2785   -7.3459    3.8346 H   0  0  0  0  0  0  0  0  0  0  0  0
    0.2541   -5.7947    3.1659 H   0  0  0  0  0  0  0  0  0  0  0  0
   -0.9150   -5.8648    4.4436 H   0  0  0  0  0  0  0  0  0  0  0  0
    1.8808   -8.2991    5.1404 H   0  0  0  0  0  0  0  0  0  0  0  0
    2.8981   -7.4808    6.9522 H   0  0  0  0  0  0  0  0  0  0  0  0
    4.1863   -7.8560    5.9403 H   0  0  0  0  0  0  0  0  0  0  0  0
    3.9057   -5.6258    7.3361 H   0  0  0  0  0  0  0  0  0  0  0  0
    4.9679   -5.7046    6.0264 H   0  0  0  0  0  0  0  0  0  0  0  0
    2.8900   -3.6288    7.5929 H   0  0  0  0  0  0  0  0  0  0  0  0
    3.0196   -2.4259    6.3503 H   0  0  0  0  0  0  0  0  0  0  0  0
    4.4316   -3.2860    6.8946 H   0  0  0  0  0  0  0  0  0  0  0  0
    1.4100   -9.2508    3.2186 H   0  0  0  0  0  0  0  0  0  0  0  0
    2.3251   -8.9597    1.7673 H   0  0  0  0  0  0  0  0  0  0  0  0
    1.0571   -7.8594    2.1993 H   0  0  0  0  0  0  0  0  0  0  0  0
    3.9092   -9.4371    4.1142 H   0  0  0  0  0  0  0  0  0  0  0  0
    5.0141   -8.0868    3.9396 H   0  0  0  0  0  0  0  0  0  0  0  0
    4.4327   -8.9281    2.5334 H   0  0  0  0  0  0  0  0  0  0  0  0
    2.0807   -2.3393    1.4684 H   0  0  0  0  0  0  0  0  0  0  0  0
  1  2  1  0
  1 32  1  0
  1 33  1  0
  1 34  1  0
  2 31  1  0
  2  3  1  0
  2 35  1  1
  3  4  1  0
  3 36  1  0
  3 37  1  0
  4  5  1  0
  4  6  1  0
  4  7  1  0
  5 38  1  0
  5 39  1  0
  5 40  1  0
  6 41  1  0
  6 42  1  0
  6 43  1  0
  7  8  1  0
  8 31  1  0
  8  9  1  0
  8 44  1  1
  9 10  1  0
  9 45  1  0
  9 46  1  0
 10 11  1  0
 10 12  1  0
 10 47  1  6
 11 48  1  0
 11 49  1  0
 11 50  1  0
 12 28  1  0
 12 13  1  0
 12 51  1  6
 13 14  1  0
 13 52  1  0
 13 53  1  0
 14 26  1  0
 14 15  1  1
 14 16  1  0
 15 54  1  0
 15 55  1  0
 15 56  1  0
 16 17  1  0
 16 31  1  0
 16 57  1  6
 17 18  1  0
 17 58  1  0
 17 59  1  0
 18 19  1  0
 18 60  1  0
 18 61  1  0
 19 26  1  0
 19 20  1  0
 19 62  1  1
 20 21  1  0
 20 22  1  0
 20 23  1  0
 21 63  1  0
 21 64  1  0
 21 65  1  0
 22 66  1  0
 22 67  1  0
 22 68  1  0
 23 24  1  0
 23 28  1  0
 23 69  1  1
 24 25  1  0
 24 70  1  0
 24 71  1  0
 25 26  1  0
 25 72  1  0
 25 73  1  0
 26 27  1  1
 27 74  1  0
 27 75  1  0
 27 76  1  0
 28 29  1  0
 28 30  1  0
 29 77  1  0
 29 78  1  0
 29 79  1  0
 30 80  1  0
 30 81  1  0
 30 82  1  0
 31 83  1  6
M  END
>  <i_m_ct_stereo_status>  (15) 
1

>  <s_m_source_file>  (15) 
/var/tmp/pbs.5076255.sched01/tmp7v4tqmxt/0pyfftbwv.sdf

>  <i_m_source_file_index>  (15) 
6

>  <i_lp_mmshare_version>  (15) 
48012

>  <i_f3d_flags>  (15) 
0

>  <s_epik_input>  (15) 
W0NIM11bQ0BASF0xW0NIMl1DKFtDSDNdKShbQ0gzXSlPW0NAQEhdKFtDQEhdMVtDQEhdMltDQF0zNFtDSDNdKVtDSDJdW0NAQEhdKFtDSDNdKVtDQEhdKFtDSDJdMylDKFtDSDNdKShbQ0gzXSlbQ0BASF01QyhbQ0gzXSkoW0NIM10pW0NASF0oW0NIMl1bQ0gyXTIpW0NAQF00KFtDSDNdKVtDSDJdW0NIMl01

>  <s_epik_cmdline>  (15) 
J2VwaWtfcHl0aG9uJywgJy1waHQnLCAnMi4wJywgJy1waCcsICc3LjAnLCAnLXRuJywgJzgnLCAnLW1hJywgJzIwMCcsICctaW1hZScsICc8aW5maWxlLm1hZT4nLCAnLW9tYWUnLCAnPG91dGZpbGUubWFlPic=

>  <r_lp_tautomer_probability>  (15) 
1

>  <r_epik_Ionization_Penalty>  (15) 
1.14514e-10

>  <r_epik_Ionization_Penalty_Charging>  (15) 
0

>  <r_epik_Ionization_Penalty_Neutral>  (15) 
1.14514e-10

>  <r_epik_State_Penalty>  (15) 
-0

>  <r_epik_Charging_Adjusted_Penalty>  (15) 
0

>  <i_epik_Tot_Q>  (15) 
0

>  <i_epik_Tot_abs_Q>  (15) 
0

>  <s_lp_Force_Field>  (15) 
OPLS3e

>  <r_lp_Energy>  (15) 
148.227

>  <b_lp_Chiralities_Consistent>  (15) 
1

>  <s_lp_Variant>  (15) 
4:0-1

>  <s_i_glide_gridfile>  (15) 
pfpi4k_grid

>  <i_i_glide_lignum>  (15) 
6

>  <i_i_glide_rotatable_bonds>  (15) 
0

>  <r_i_docking_score>  (15) 
-2.02186

>  <r_i_glide_ligand_efficiency>  (15) 
-0.0652214

>  <r_i_glide_ligand_efficiency_sa>  (15) 
-0.204885

>  <r_i_glide_ligand_efficiency_ln>  (15) 
-0.455992

>  <r_i_glide_gscore>  (15) 
-2.02186

>  <r_i_glide_lipo>  (15) 
-0.214992

>  <r_i_glide_hbond>  (15) 
0

>  <r_i_glide_metal>  (15) 
-0

>  <r_i_glide_rewards>  (15) 
-0.485909

>  <r_i_glide_evdw>  (15) 
-27.8125

>  <r_i_glide_ecoul>  (15) 
0.46442

>  <r_i_glide_erotb>  (15) 
0

>  <r_i_glide_esite>  (15) 
0

>  <r_i_glide_emodel>  (15) 
-30.8825

>  <r_i_glide_energy>  (15) 
-27.3481

>  <r_i_glide_einternal>  (15) 
0

>  <r_i_glide_intrahb_reward>  (15) 
-0

>  <i_i_glide_confnum>  (15) 
1

>  <i_i_glide_posenum>  (15) 
21

>  <r_i_glide_eff_state_penalty>  (15) 
0

>  <ligand_id>  (15) 
4

>  <original_smiles>  (15) 
CC1CC(C)(C)OC2CC(C)C3CC4(C)C(CCC5C(C)(C)C(CCC54C)C3(C)C)C12

>  <smiles>  (15) 
[H]C([H])([H])C1([H])C([H])([H])C(C([H])([H])[H])(C([H])([H])[H])OC2([H])C([H])([H])C([H])(C([H])([H])[H])C3([H])C([H])([H])C4(C([H])([H])[H])C([H])(C([H])([H])C([H])([H])C5([H])C(C([H])([H])[H])(C([H])([H])[H])C([H])(C([H])([H])C([H])([H])C54C([H])([H])[H])C3(C([H])([H])[H])C([H])([H])[H])C21[H]

$$$$
5:0:0
     RDKit          3D

 29 32  0  0  1  0  0  0  0  0999 V2000
   -1.6038    3.2429    3.7939 C   0  0  0  0  0  0  0  0  0  0  0  0
   -2.1396    3.5634    4.9735 N   0  0  0  0  0  0  0  0  0  0  0  0
   -2.1511    2.6736    5.9966 C   0  0  0  0  0  0  0  0  0  0  0  0
   -2.7824    3.0536    7.1161 N   0  0  0  0  0  0  0  0  0  0  0  0
   -2.4975    2.7598    8.4003 C   0  0  0  0  0  0  0  0  0  0  0  0
   -1.2207    2.2395    8.7886 C   0  0  0  0  0  0  0  0  0  0  0  0
   -1.3234    2.1603   10.1445 C   0  0  0  0  0  0  0  0  0  0  0  0
   -0.3756    1.7075   11.1988 C   0  0  0  0  0  0  0  0  0  0  0  0
    1.1004    1.4994   10.9470 C   0  0  0  0  0  0  0  0  0  0  0  0
    0.1991    0.3108   11.2199 C   0  0  0  0  0  0  0  0  0  0  0  0
   -2.5904    2.6092   10.4663 N   0  0  0  0  0  0  0  0  0  0  0  0
   -3.3350    2.9780    9.4048 N   0  0  0  0  0  0  0  0  0  0  0  0
   -1.6472    1.3702    5.7301 C   0  0  0  0  0  0  0  0  0  0  0  0
   -1.5867    0.1669    6.4322 N   0  0  0  0  0  0  0  0  0  0  0  0
   -0.9655   -0.6537    5.6287 C   0  0  0  0  0  0  0  0  0  0  0  0
   -0.6442   -0.1204    4.4004 N   0  0  0  0  0  0  0  0  0  0  0  0
   -1.0939    1.1770    4.4297 C   0  0  0  0  0  0  0  0  0  0  0  0
   -1.0388    2.1003    3.4205 N   0  0  0  0  0  0  0  0  0  0  0  0
   -2.9666    2.6039   11.4350 H   0  0  0  0  0  0  0  0  0  0  0  0
   -0.1599   -0.4743    3.5834 H   0  0  0  0  0  0  0  0  0  0  0  0
   -3.6760    3.4785    6.9993 H   0  0  0  0  0  0  0  0  0  0  0  0
   -1.5756    4.0122    3.0347 H   0  0  0  0  0  0  0  0  0  0  0  0
   -0.3686    1.9725    8.1824 H   0  0  0  0  0  0  0  0  0  0  0  0
   -0.6720    2.1266   12.1606 H   0  0  0  0  0  0  0  0  0  0  0  0
    1.4586    1.6631    9.9323 H   0  0  0  0  0  0  0  0  0  0  0  0
    1.7997    1.7643   11.7344 H   0  0  0  0  0  0  0  0  0  0  0  0
    0.3390   -0.1812   12.1770 H   0  0  0  0  0  0  0  0  0  0  0  0
   -0.0621   -0.3476   10.3951 H   0  0  0  0  0  0  0  0  0  0  0  0
   -0.7211   -1.6478    5.9555 H   0  0  0  0  0  0  0  0  0  0  0  0
  1 22  1  0
  1  2  2  0
  1 18  1  0
  2  3  1  0
  3  4  1  0
  3 13  2  0
  4  5  1  0
  4 21  1  0
  5 12  2  0
  5  6  1  0
  6  7  2  0
  6 23  1  0
  7  8  1  0
  7 11  1  0
  8 10  1  0
  8  9  1  0
  8 24  1  0
  9 10  1  0
  9 25  1  0
  9 26  1  0
 10 27  1  0
 10 28  1  0
 11 19  1  0
 11 12  1  0
 13 14  1  0
 13 17  1  0
 14 15  2  0
 15 29  1  0
 15 16  1  0
 16 20  1  0
 16 17  1  0
 17 18  2  0
M  END
>  <i_m_ct_stereo_status>  (16) 
1

>  <s_m_source_file>  (16) 
/var/tmp/pbs.5076255.sched01/tmp7v4tqmxt/0pyfftbwv.sdf

>  <i_m_source_file_index>  (16) 
7

>  <i_lp_mmshare_version>  (16) 
48012

>  <i_f3d_flags>  (16) 
0

>  <s_epik_input>  (16) 
bjFbY0hdW25IXWMoYzEyKVtuSF1bY0hdbi9jMj1OL2MzW2NIXWMoW25IXW4zKVtDSF00W0NIMl1bQ0gyXTQ=

>  <s_epik_cmdline>  (16) 
J2VwaWtfcHl0aG9uJywgJy1waHQnLCAnMi4wJywgJy1waCcsICc3LjAnLCAnLXRuJywgJzgnLCAnLW1hJywgJzIwMCcsICctaW1hZScsICc8aW5maWxlLm1hZT4nLCAnLW9tYWUnLCAnPG91dGZpbGUubWFlPic=

>  <r_lp_tautomer_probability>  (16) 
0.83648

>  <r_epik_Ionization_Penalty>  (16) 
0.00252303

>  <r_epik_Ionization_Penalty_Charging>  (16) 
0

>  <r_epik_Ionization_Penalty_Neutral>  (16) 
0.00252303

>  <r_epik_State_Penalty>  (16) 
0.0944673

>  <r_epik_Charging_Adjusted_Penalty>  (16) 
0.0944673

>  <i_epik_Tot_Q>  (16) 
0

>  <i_epik_Tot_abs_Q>  (16) 
0

>  <s_lp_Force_Field>  (16) 
OPLS3e

>  <r_lp_Energy>  (16) 
20.3391

>  <b_lp_Chiralities_Consistent>  (16) 
1

>  <s_lp_Variant>  (16) 
5:0-1

>  <s_i_glide_gridfile>  (16) 
pfpi4k_grid

>  <i_i_glide_lignum>  (16) 
7

>  <i_i_glide_rotatable_bonds>  (16) 
3

>  <r_i_docking_score>  (16) 
-3.78394

>  <r_i_glide_ligand_efficiency>  (16) 
-0.210219

>  <r_i_glide_ligand_efficiency_sa>  (16) 
-0.550929

>  <r_i_glide_ligand_efficiency_ln>  (16) 
-0.972642

>  <r_i_glide_gscore>  (16) 
-3.78394

>  <r_i_glide_lipo>  (16) 
-0.12224

>  <r_i_glide_hbond>  (16) 
-0.32

>  <r_i_glide_metal>  (16) 
-0

>  <r_i_glide_rewards>  (16) 
-1.76419

>  <r_i_glide_evdw>  (16) 
-21.2131

>  <r_i_glide_ecoul>  (16) 
-7.78336

>  <r_i_glide_erotb>  (16) 
0.892774

>  <r_i_glide_esite>  (16) 
-0.242121

>  <r_i_glide_emodel>  (16) 
-34.902

>  <r_i_glide_energy>  (16) 
-28.9965

>  <r_i_glide_einternal>  (16) 
4.11742

>  <r_i_glide_intrahb_reward>  (16) 
-0

>  <i_i_glide_confnum>  (16) 
3

>  <i_i_glide_posenum>  (16) 
1

>  <r_i_glide_eff_state_penalty>  (16) 
0

>  <ligand_id>  (16) 
5

>  <original_smiles>  (16) 
c1nc(=Nc2cc(C3CC3)[nH]n2)c2nc[nH]c2[nH]1

>  <smiles>  (16) 
[H]c1nc(N([H])c2nn([H])c(C3([H])C([H])([H])C3([H])[H])c2[H])c2nc([H])n([H])c2n1

$$$$
5:0:1
     RDKit          3D

 29 32  0  0  1  0  0  0  0  0999 V2000
    5.1859   -1.9348    0.0525 C   0  0  0  0  0  0  0  0  0  0  0  0
    4.3006   -2.9252    0.2070 N   0  0  0  0  0  0  0  0  0  0  0  0
    3.3791   -3.1656   -0.7653 C   0  0  0  0  0  0  0  0  0  0  0  0
    2.4359   -4.1340   -0.6759 N   0  0  0  0  0  0  0  0  0  0  0  0
    2.2142   -5.1255    0.2165 C   0  0  0  0  0  0  0  0  0  0  0  0
    3.0675   -5.4685    1.3062 C   0  0  0  0  0  0  0  0  0  0  0  0
    2.4067   -6.5088    1.9122 C   0  0  0  0  0  0  0  0  0  0  0  0
    2.7343   -7.3355    3.1183 C   0  0  0  0  0  0  0  0  0  0  0  0
    3.2405   -6.6900    4.3859 C   0  0  0  0  0  0  0  0  0  0  0  0
    4.1638   -7.5525    3.5526 C   0  0  0  0  0  0  0  0  0  0  0  0
    1.2519   -6.7219    1.1829 N   0  0  0  0  0  0  0  0  0  0  0  0
    1.1222   -5.8748    0.1408 N   0  0  0  0  0  0  0  0  0  0  0  0
    3.4099   -2.3331   -1.9203 C   0  0  0  0  0  0  0  0  0  0  0  0
    2.6622   -2.2693   -3.0993 N   0  0  0  0  0  0  0  0  0  0  0  0
    3.1515   -1.2403   -3.7376 C   0  0  0  0  0  0  0  0  0  0  0  0
    4.2072   -0.6276   -3.1070 N   0  0  0  0  0  0  0  0  0  0  0  0
    4.3955   -1.3140   -1.9277 C   0  0  0  0  0  0  0  0  0  0  0  0
    5.3271   -1.0776   -0.9617 N   0  0  0  0  0  0  0  0  0  0  0  0
    0.5764   -7.4591    1.3586 H   0  0  0  0  0  0  0  0  0  0  0  0
    4.7567    0.1827   -3.3606 H   0  0  0  0  0  0  0  0  0  0  0  0
    1.8241   -4.1583   -1.4768 H   0  0  0  0  0  0  0  0  0  0  0  0
    5.8805   -1.8123    0.8705 H   0  0  0  0  0  0  0  0  0  0  0  0
    3.9998   -5.0372    1.6185 H   0  0  0  0  0  0  0  0  0  0  0  0
    2.0435   -8.1687    3.2203 H   0  0  0  0  0  0  0  0  0  0  0  0
    3.3891   -5.6113    4.3727 H   0  0  0  0  0  0  0  0  0  0  0  0
    2.9224   -7.1035    5.3392 H   0  0  0  0  0  0  0  0  0  0  0  0
    4.4316   -8.5216    3.9661 H   0  0  0  0  0  0  0  0  0  0  0  0
    4.9419   -7.0654    2.9665 H   0  0  0  0  0  0  0  0  0  0  0  0
    2.7552   -0.8898   -4.6847 H   0  0  0  0  0  0  0  0  0  0  0  0
  1 22  1  0
  1  2  2  0
  1 18  1  0
  2  3  1  0
  3  4  1  0
  3 13  2  0
  4  5  1  0
  4 21  1  0
  5 12  2  0
  5  6  1  0
  6  7  2  0
  6 23  1  0
  7  8  1  0
  7 11  1  0
  8 10  1  0
  8  9  1  0
  8 24  1  0
  9 10  1  0
  9 25  1  0
  9 26  1  0
 10 27  1  0
 10 28  1  0
 11 19  1  0
 11 12  1  0
 13 14  1  0
 13 17  1  0
 14 15  2  0
 15 29  1  0
 15 16  1  0
 16 20  1  0
 16 17  1  0
 17 18  2  0
M  END
>  <i_m_ct_stereo_status>  (17) 
1

>  <s_m_source_file>  (17) 
/var/tmp/pbs.5076255.sched01/tmp7v4tqmxt/0pyfftbwv.sdf

>  <i_m_source_file_index>  (17) 
7

>  <i_lp_mmshare_version>  (17) 
48012

>  <i_f3d_flags>  (17) 
0

>  <s_epik_input>  (17) 
bjFbY0hdW25IXWMoYzEyKVtuSF1bY0hdbi9jMj1OL2MzW2NIXWMoW25IXW4zKVtDSF00W0NIMl1bQ0gyXTQ=

>  <s_epik_cmdline>  (17) 
J2VwaWtfcHl0aG9uJywgJy1waHQnLCAnMi4wJywgJy1waCcsICc3LjAnLCAnLXRuJywgJzgnLCAnLW1hJywgJzIwMCcsICctaW1hZScsICc8aW5maWxlLm1hZT4nLCAnLW9tYWUnLCAnPG91dGZpbGUubWFlPic=

>  <r_lp_tautomer_probability>  (17) 
0.83648

>  <r_epik_Ionization_Penalty>  (17) 
0.00252303

>  <r_epik_Ionization_Penalty_Charging>  (17) 
0

>  <r_epik_Ionization_Penalty_Neutral>  (17) 
0.00252303

>  <r_epik_State_Penalty>  (17) 
0.0944673

>  <r_epik_Charging_Adjusted_Penalty>  (17) 
0.0944673

>  <i_epik_Tot_Q>  (17) 
0

>  <i_epik_Tot_abs_Q>  (17) 
0

>  <s_lp_Force_Field>  (17) 
OPLS3e

>  <r_lp_Energy>  (17) 
20.3391

>  <b_lp_Chiralities_Consistent>  (17) 
1

>  <s_lp_Variant>  (17) 
5:0-1

>  <s_i_glide_gridfile>  (17) 
pfpi4k_grid

>  <i_i_glide_lignum>  (17) 
7

>  <i_i_glide_rotatable_bonds>  (17) 
3

>  <r_i_docking_score>  (17) 
-3.52811

>  <r_i_glide_ligand_efficiency>  (17) 
-0.196006

>  <r_i_glide_ligand_efficiency_sa>  (17) 
-0.513682

>  <r_i_glide_ligand_efficiency_ln>  (17) 
-0.906883

>  <r_i_glide_gscore>  (17) 
-3.52811

>  <r_i_glide_lipo>  (17) 
-0.0193163

>  <r_i_glide_hbond>  (17) 
-0.313654

>  <r_i_glide_metal>  (17) 
-0

>  <r_i_glide_rewards>  (17) 
-2.04392

>  <r_i_glide_evdw>  (17) 
-22.6372

>  <r_i_glide_ecoul>  (17) 
-4.95438

>  <r_i_glide_erotb>  (17) 
0.892774

>  <r_i_glide_esite>  (17) 
-0.168978

>  <r_i_glide_emodel>  (17) 
-35.0967

>  <r_i_glide_energy>  (17) 
-27.5915

>  <r_i_glide_einternal>  (17) 
0.128706

>  <r_i_glide_intrahb_reward>  (17) 
-0

>  <i_i_glide_confnum>  (17) 
1

>  <i_i_glide_posenum>  (17) 
5

>  <r_i_glide_eff_state_penalty>  (17) 
0

>  <ligand_id>  (17) 
5

>  <original_smiles>  (17) 
c1nc(=Nc2cc(C3CC3)[nH]n2)c2nc[nH]c2[nH]1

>  <smiles>  (17) 
[H]c1nc(N([H])c2nn([H])c(C3([H])C([H])([H])C3([H])[H])c2[H])c2nc([H])n([H])c2n1

$$$$
5:0:2
     RDKit          3D

 29 32  0  0  1  0  0  0  0  0999 V2000
    6.5543   -1.3842    0.4407 C   0  0  0  0  0  0  0  0  0  0  0  0
    5.3980   -0.8968    0.9074 N   0  0  0  0  0  0  0  0  0  0  0  0
    4.2372   -1.1351    0.2393 C   0  0  0  0  0  0  0  0  0  0  0  0
    3.0249   -0.6859    0.6605 N   0  0  0  0  0  0  0  0  0  0  0  0
    2.6342    0.0583    1.7226 C   0  0  0  0  0  0  0  0  0  0  0  0
    3.4631    0.4024    2.8321 C   0  0  0  0  0  0  0  0  0  0  0  0
    2.6264    1.1378    3.6365 C   0  0  0  0  0  0  0  0  0  0  0  0
    2.8370    1.8301    4.9452 C   0  0  0  0  0  0  0  0  0  0  0  0
    3.4405    3.2116    5.0022 C   0  0  0  0  0  0  0  0  0  0  0  0
    4.2164    2.0202    5.5249 C   0  0  0  0  0  0  0  0  0  0  0  0
    1.4005    1.1610    3.0064 N   0  0  0  0  0  0  0  0  0  0  0  0
    1.4005    0.5038    1.8315 N   0  0  0  0  0  0  0  0  0  0  0  0
    4.3274   -1.8941   -0.9660 C   0  0  0  0  0  0  0  0  0  0  0  0
    3.4031   -2.3334   -1.9104 N   0  0  0  0  0  0  0  0  0  0  0  0
    4.1081   -3.0052   -2.7795 C   0  0  0  0  0  0  0  0  0  0  0  0
    5.4598   -3.0461   -2.5088 N   0  0  0  0  0  0  0  0  0  0  0  0
    5.6276   -2.3372   -1.3373 C   0  0  0  0  0  0  0  0  0  0  0  0
    6.7852   -2.0989   -0.6612 N   0  0  0  0  0  0  0  0  0  0  0  0
    0.5718    1.6380    3.3392 H   0  0  0  0  0  0  0  0  0  0  0  0
    6.2270   -3.4965   -2.9945 H   0  0  0  0  0  0  0  0  0  0  0  0
    2.2522   -0.8768    0.0207 H   0  0  0  0  0  0  0  0  0  0  0  0
    7.4280   -1.1394    1.0228 H   0  0  0  0  0  0  0  0  0  0  0  0
    4.4974    0.1740    3.0205 H   0  0  0  0  0  0  0  0  0  0  0  0
    2.0219    1.6140    5.6339 H   0  0  0  0  0  0  0  0  0  0  0  0
    3.7588    3.6584    4.0607 H   0  0  0  0  0  0  0  0  0  0  0  0
    3.0749    3.9098    5.7472 H   0  0  0  0  0  0  0  0  0  0  0  0
    4.3356    1.9416    6.6020 H   0  0  0  0  0  0  0  0  0  0  0  0
    5.0564    1.6529    4.9349 H   0  0  0  0  0  0  0  0  0  0  0  0
    3.6525   -3.4922   -3.6328 H   0  0  0  0  0  0  0  0  0  0  0  0
  1 22  1  0
  1  2  2  0
  1 18  1  0
  2  3  1  0
  3  4  1  0
  3 13  2  0
  4  5  1  0
  4 21  1  0
  5 12  2  0
  5  6  1  0
  6  7  2  0
  6 23  1  0
  7  8  1  0
  7 11  1  0
  8 10  1  0
  8  9  1  0
  8 24  1  0
  9 10  1  0
  9 25  1  0
  9 26  1  0
 10 27  1  0
 10 28  1  0
 11 19  1  0
 11 12  1  0
 13 14  1  0
 13 17  1  0
 14 15  2  0
 15 29  1  0
 15 16  1  0
 16 20  1  0
 16 17  1  0
 17 18  2  0
M  END
>  <i_m_ct_stereo_status>  (18) 
1

>  <s_m_source_file>  (18) 
/var/tmp/pbs.5076255.sched01/tmp7v4tqmxt/0pyfftbwv.sdf

>  <i_m_source_file_index>  (18) 
7

>  <i_lp_mmshare_version>  (18) 
48012

>  <i_f3d_flags>  (18) 
0

>  <s_epik_input>  (18) 
bjFbY0hdW25IXWMoYzEyKVtuSF1bY0hdbi9jMj1OL2MzW2NIXWMoW25IXW4zKVtDSF00W0NIMl1bQ0gyXTQ=

>  <s_epik_cmdline>  (18) 
J2VwaWtfcHl0aG9uJywgJy1waHQnLCAnMi4wJywgJy1waCcsICc3LjAnLCAnLXRuJywgJzgnLCAnLW1hJywgJzIwMCcsICctaW1hZScsICc8aW5maWxlLm1hZT4nLCAnLW9tYWUnLCAnPG91dGZpbGUubWFlPic=

>  <r_lp_tautomer_probability>  (18) 
0.83648

>  <r_epik_Ionization_Penalty>  (18) 
0.00252303

>  <r_epik_Ionization_Penalty_Charging>  (18) 
0

>  <r_epik_Ionization_Penalty_Neutral>  (18) 
0.00252303

>  <r_epik_State_Penalty>  (18) 
0.0944673

>  <r_epik_Charging_Adjusted_Penalty>  (18) 
0.0944673

>  <i_epik_Tot_Q>  (18) 
0

>  <i_epik_Tot_abs_Q>  (18) 
0

>  <s_lp_Force_Field>  (18) 
OPLS3e

>  <r_lp_Energy>  (18) 
20.3391

>  <b_lp_Chiralities_Consistent>  (18) 
1

>  <s_lp_Variant>  (18) 
5:0-1

>  <s_i_glide_gridfile>  (18) 
pfpi4k_grid

>  <i_i_glide_lignum>  (18) 
7

>  <i_i_glide_rotatable_bonds>  (18) 
3

>  <r_i_docking_score>  (18) 
-3.0751

>  <r_i_glide_ligand_efficiency>  (18) 
-0.170839

>  <r_i_glide_ligand_efficiency_sa>  (18) 
-0.447724

>  <r_i_glide_ligand_efficiency_ln>  (18) 
-0.790438

>  <r_i_glide_gscore>  (18) 
-3.0751

>  <r_i_glide_lipo>  (18) 
-0.0153294

>  <r_i_glide_hbond>  (18) 
-0.312334

>  <r_i_glide_metal>  (18) 
-0

>  <r_i_glide_rewards>  (18) 
-1.76419

>  <r_i_glide_evdw>  (18) 
-24.0263

>  <r_i_glide_ecoul>  (18) 
-3.6536

>  <r_i_glide_erotb>  (18) 
0.892774

>  <r_i_glide_esite>  (18) 
-0.126661

>  <r_i_glide_emodel>  (18) 
-34.3001

>  <r_i_glide_energy>  (18) 
-27.6799

>  <r_i_glide_einternal>  (18) 
0.0594268

>  <r_i_glide_intrahb_reward>  (18) 
-0

>  <i_i_glide_confnum>  (18) 
6

>  <i_i_glide_posenum>  (18) 
6

>  <r_i_glide_eff_state_penalty>  (18) 
0

>  <ligand_id>  (18) 
5

>  <original_smiles>  (18) 
c1nc(=Nc2cc(C3CC3)[nH]n2)c2nc[nH]c2[nH]1

>  <smiles>  (18) 
[H]c1nc(N([H])c2nn([H])c(C3([H])C([H])([H])C3([H])[H])c2[H])c2nc([H])n([H])c2n1

$$$$
5:1:0
     RDKit          3D

 29 32  0  0  1  0  0  0  0  0999 V2000
    6.5846   -1.3371    0.5977 C   0  0  0  0  0  0  0  0  0  0  0  0
    5.3707   -0.8972    0.9477 N   0  0  0  0  0  0  0  0  0  0  0  0
    4.2898   -1.1855    0.1752 C   0  0  0  0  0  0  0  0  0  0  0  0
    3.0486   -0.7694    0.5088 N   0  0  0  0  0  0  0  0  0  0  0  0
    2.6152   -0.0512    1.6207 C   0  0  0  0  0  0  0  0  0  0  0  0
    3.2119    0.3776    2.7695 C   0  0  0  0  0  0  0  0  0  0  0  0
    2.1800    1.0675    3.4684 C   0  0  0  0  0  0  0  0  0  0  0  0
    2.2777    1.7712    4.7886 C   0  0  0  0  0  0  0  0  0  0  0  0
    2.1243    3.2705    4.8720 C   0  0  0  0  0  0  0  0  0  0  0  0
    3.4758    2.6389    5.0932 C   0  0  0  0  0  0  0  0  0  0  0  0
    1.0227    1.0377    2.8230 N   0  0  0  0  0  0  0  0  0  0  0  0
    1.3078    0.3776    1.6827 N   0  0  0  0  0  0  0  0  0  0  0  0
    4.5119   -1.9430   -1.0032 C   0  0  0  0  0  0  0  0  0  0  0  0
    3.6895   -2.4160   -2.0174 N   0  0  0  0  0  0  0  0  0  0  0  0
    4.4922   -3.0639   -2.8134 C   0  0  0  0  0  0  0  0  0  0  0  0
    5.8134   -3.0538   -2.4273 N   0  0  0  0  0  0  0  0  0  0  0  0
    5.8557   -2.3366   -1.2516 C   0  0  0  0  0  0  0  0  0  0  0  0
    6.9396   -2.0505   -0.4763 N   0  0  0  0  0  0  0  0  0  0  0  0
    6.6371   -3.4651   -2.8481 H   0  0  0  0  0  0  0  0  0  0  0  0
    2.2789   -0.9836   -0.1293 H   0  0  0  0  0  0  0  0  0  0  0  0
    7.3816   -1.0648    1.2755 H   0  0  0  0  0  0  0  0  0  0  0  0
    4.2399    0.2372    3.0595 H   0  0  0  0  0  0  0  0  0  0  0  0
    1.8794    1.1674    5.6030 H   0  0  0  0  0  0  0  0  0  0  0  0
    1.9486    3.7964    3.9342 H   0  0  0  0  0  0  0  0  0  0  0  0
    1.6133    3.6786    5.7419 H   0  0  0  0  0  0  0  0  0  0  0  0
    3.8704    2.6394    6.1083 H   0  0  0  0  0  0  0  0  0  0  0  0
    4.2157    2.7531    4.3050 H   0  0  0  0  0  0  0  0  0  0  0  0
    4.1334   -3.5702   -3.6979 H   0  0  0  0  0  0  0  0  0  0  0  0
    0.6178    0.2415    0.9494 H   0  0  0  0  0  0  0  0  0  0  0  0
  1 21  1  0
  1  2  2  0
  1 18  1  0
  2  3  1  0
  3  4  1  0
  3 13  2  0
  4  5  1  0
  4 20  1  0
  5 12  1  0
  5  6  2  0
  6  7  1  0
  6 22  1  0
  7  8  1  0
  7 11  2  0
  8 10  1  0
  8  9  1  0
  8 23  1  0
  9 10  1  0
  9 24  1  0
  9 25  1  0
 10 26  1  0
 10 27  1  0
 11 12  1  0
 12 29  1  0
 13 14  1  0
 13 17  1  0
 14 15  2  0
 15 28  1  0
 15 16  1  0
 16 19  1  0
 16 17  1  0
 17 18  2  0
M  END
>  <i_m_ct_stereo_status>  (19) 
1

>  <s_m_source_file>  (19) 
/var/tmp/pbs.5076255.sched01/tmp7v4tqmxt/0pyfftbwv.sdf

>  <i_m_source_file_index>  (19) 
8

>  <i_lp_mmshare_version>  (19) 
48012

>  <i_f3d_flags>  (19) 
0

>  <s_epik_input>  (19) 
bjFbY0hdW25IXWMoYzEyKVtuSF1bY0hdbi9jMj1OL2MzW2NIXWMoW25IXW4zKVtDSF00W0NIMl1bQ0gyXTQ=

>  <s_epik_cmdline>  (19) 
J2VwaWtfcHl0aG9uJywgJy1waHQnLCAnMi4wJywgJy1waCcsICc3LjAnLCAnLXRuJywgJzgnLCAnLW1hJywgJzIwMCcsICctaW1hZScsICc8aW5maWxlLm1hZT4nLCAnLW9tYWUnLCAnPG91dGZpbGUubWFlPic=

>  <r_lp_tautomer_probability>  (19) 
0.156257

>  <r_epik_Ionization_Penalty>  (19) 
0.0016205

>  <r_epik_Ionization_Penalty_Charging>  (19) 
0

>  <r_epik_Ionization_Penalty_Neutral>  (19) 
0.0016205

>  <r_epik_State_Penalty>  (19) 
1.15516

>  <r_epik_Charging_Adjusted_Penalty>  (19) 
1.15516

>  <i_epik_Tot_Q>  (19) 
0

>  <i_epik_Tot_abs_Q>  (19) 
0

>  <s_lp_Force_Field>  (19) 
OPLS3e

>  <r_lp_Energy>  (19) 
21.5485

>  <b_lp_Chiralities_Consistent>  (19) 
1

>  <s_lp_Variant>  (19) 
5:0-2

>  <s_i_glide_gridfile>  (19) 
pfpi4k_grid

>  <i_i_glide_lignum>  (19) 
8

>  <i_i_glide_rotatable_bonds>  (19) 
3

>  <r_i_docking_score>  (19) 
-3.81039

>  <r_i_glide_ligand_efficiency>  (19) 
-0.211689

>  <r_i_glide_ligand_efficiency_sa>  (19) 
-0.554781

>  <r_i_glide_ligand_efficiency_ln>  (19) 
-0.979442

>  <r_i_glide_gscore>  (19) 
-3.81039

>  <r_i_glide_lipo>  (19) 
-0.0327702

>  <r_i_glide_hbond>  (19) 
-0.388798

>  <r_i_glide_metal>  (19) 
-0

>  <r_i_glide_rewards>  (19) 
-1.86578

>  <r_i_glide_evdw>  (19) 
-23.048

>  <r_i_glide_ecoul>  (19) 
-7.09569

>  <r_i_glide_erotb>  (19) 
0.892774

>  <r_i_glide_esite>  (19) 
-0.199061

>  <r_i_glide_emodel>  (19) 
-38.1372

>  <r_i_glide_energy>  (19) 
-30.1437

>  <r_i_glide_einternal>  (19) 
0.105834

>  <r_i_glide_intrahb_reward>  (19) 
-0

>  <i_i_glide_confnum>  (19) 
6

>  <i_i_glide_posenum>  (19) 
30

>  <r_i_glide_eff_state_penalty>  (19) 
0

>  <ligand_id>  (19) 
5

>  <original_smiles>  (19) 
c1nc(=Nc2cc(C3CC3)[nH]n2)c2nc[nH]c2[nH]1

>  <smiles>  (19) 
[H]c1nc(N([H])c2c([H])c(C3([H])C([H])([H])C3([H])[H])nn2[H])c2nc([H])n([H])c2n1

$$$$
5:1:1
     RDKit          3D

 29 32  0  0  1  0  0  0  0  0999 V2000
    6.5832   -1.3347    0.5585 C   0  0  0  0  0  0  0  0  0  0  0  0
    5.3753   -0.8920    0.9223 N   0  0  0  0  0  0  0  0  0  0  0  0
    4.2838   -1.1807    0.1630 C   0  0  0  0  0  0  0  0  0  0  0  0
    3.0472   -0.7638    0.5080 N   0  0  0  0  0  0  0  0  0  0  0  0
    2.6339   -0.0046    1.6031 C   0  0  0  0  0  0  0  0  0  0  0  0
    3.2516    0.4399    2.7377 C   0  0  0  0  0  0  0  0  0  0  0  0
    2.2316    1.1385    3.4434 C   0  0  0  0  0  0  0  0  0  0  0  0
    2.3385    1.7944    4.7883 C   0  0  0  0  0  0  0  0  0  0  0  0
    3.2176    1.1840    5.8557 C   0  0  0  0  0  0  0  0  0  0  0  0
    1.7152    1.1453    5.9999 C   0  0  0  0  0  0  0  0  0  0  0  0
    1.0752    1.1411    2.7997 N   0  0  0  0  0  0  0  0  0  0  0  0
    1.3328    0.4354    1.6799 N   0  0  0  0  0  0  0  0  0  0  0  0
    4.4928   -1.9415   -1.0189 C   0  0  0  0  0  0  0  0  0  0  0  0
    3.6574   -2.4117   -2.0224 N   0  0  0  0  0  0  0  0  0  0  0  0
    4.4527   -3.0620   -2.8249 C   0  0  0  0  0  0  0  0  0  0  0  0
    5.7785   -3.0528   -2.4526 N   0  0  0  0  0  0  0  0  0  0  0  0
    5.8328   -2.3366   -1.2771 C   0  0  0  0  0  0  0  0  0  0  0  0
    6.9252   -2.0531   -0.5171 N   0  0  0  0  0  0  0  0  0  0  0  0
    6.5935   -3.4724   -2.8828 H   0  0  0  0  0  0  0  0  0  0  0  0
    2.2706   -0.9793   -0.1195 H   0  0  0  0  0  0  0  0  0  0  0  0
    7.3906   -1.0640    1.2249 H   0  0  0  0  0  0  0  0  0  0  0  0
    4.2739    0.2698    3.0318 H   0  0  0  0  0  0  0  0  0  0  0  0
    2.3117    2.8803    4.7173 H   0  0  0  0  0  0  0  0  0  0  0  0
    3.7283    0.2526    5.6132 H   0  0  0  0  0  0  0  0  0  0  0  0
    3.7661    1.8548    6.5145 H   0  0  0  0  0  0  0  0  0  0  0  0
    1.2673    1.7935    6.7502 H   0  0  0  0  0  0  0  0  0  0  0  0
    1.2100    0.1934    5.8415 H   0  0  0  0  0  0  0  0  0  0  0  0
    4.0802   -3.5695   -3.7069 H   0  0  0  0  0  0  0  0  0  0  0  0
    0.6301    0.2855    0.9611 H   0  0  0  0  0  0  0  0  0  0  0  0
  1 21  1  0
  1  2  2  0
  1 18  1  0
  2  3  1  0
  3  4  1  0
  3 13  2  0
  4  5  1  0
  4 20  1  0
  5 12  1  0
  5  6  2  0
  6  7  1  0
  6 22  1  0
  7  8  1  0
  7 11  2  0
  8 10  1  0
  8  9  1  0
  8 23  1  0
  9 10  1  0
  9 24  1  0
  9 25  1  0
 10 26  1  0
 10 27  1  0
 11 12  1  0
 12 29  1  0
 13 14  1  0
 13 17  1  0
 14 15  2  0
 15 28  1  0
 15 16  1  0
 16 19  1  0
 16 17  1  0
 17 18  2  0
M  END
>  <i_m_ct_stereo_status>  (20) 
1

>  <s_m_source_file>  (20) 
/var/tmp/pbs.5076255.sched01/tmp7v4tqmxt/0pyfftbwv.sdf

>  <i_m_source_file_index>  (20) 
8

>  <i_lp_mmshare_version>  (20) 
48012

>  <i_f3d_flags>  (20) 
0

>  <s_epik_input>  (20) 
bjFbY0hdW25IXWMoYzEyKVtuSF1bY0hdbi9jMj1OL2MzW2NIXWMoW25IXW4zKVtDSF00W0NIMl1bQ0gyXTQ=

>  <s_epik_cmdline>  (20) 
J2VwaWtfcHl0aG9uJywgJy1waHQnLCAnMi4wJywgJy1waCcsICc3LjAnLCAnLXRuJywgJzgnLCAnLW1hJywgJzIwMCcsICctaW1hZScsICc8aW5maWxlLm1hZT4nLCAnLW9tYWUnLCAnPG91dGZpbGUubWFlPic=

>  <r_lp_tautomer_probability>  (20) 
0.156257

>  <r_epik_Ionization_Penalty>  (20) 
0.0016205

>  <r_epik_Ionization_Penalty_Charging>  (20) 
0

>  <r_epik_Ionization_Penalty_Neutral>  (20) 
0.0016205

>  <r_epik_State_Penalty>  (20) 
1.15516

>  <r_epik_Charging_Adjusted_Penalty>  (20) 
1.15516

>  <i_epik_Tot_Q>  (20) 
0

>  <i_epik_Tot_abs_Q>  (20) 
0

>  <s_lp_Force_Field>  (20) 
OPLS3e

>  <r_lp_Energy>  (20) 
21.5485

>  <b_lp_Chiralities_Consistent>  (20) 
1

>  <s_lp_Variant>  (20) 
5:0-2

>  <s_i_glide_gridfile>  (20) 
pfpi4k_grid

>  <i_i_glide_lignum>  (20) 
8

>  <i_i_glide_rotatable_bonds>  (20) 
3

>  <r_i_docking_score>  (20) 
-3.75781

>  <r_i_glide_ligand_efficiency>  (20) 
-0.208767

>  <r_i_glide_ligand_efficiency_sa>  (20) 
-0.547125

>  <r_i_glide_ligand_efficiency_ln>  (20) 
-0.965926

>  <r_i_glide_gscore>  (20) 
-3.75781

>  <r_i_glide_lipo>  (20) 
-0.0356654

>  <r_i_glide_hbond>  (20) 
-0.396505

>  <r_i_glide_metal>  (20) 
-0

>  <r_i_glide_rewards>  (20) 
-1.85259

>  <r_i_glide_evdw>  (20) 
-22.5618

>  <r_i_glide_ecoul>  (20) 
-6.94922

>  <r_i_glide_erotb>  (20) 
0.892774

>  <r_i_glide_esite>  (20) 
-0.195352

>  <r_i_glide_emodel>  (20) 
-37.3728

>  <r_i_glide_energy>  (20) 
-29.511

>  <r_i_glide_einternal>  (20) 
0.124278

>  <r_i_glide_intrahb_reward>  (20) 
-0

>  <i_i_glide_confnum>  (20) 
6

>  <i_i_glide_posenum>  (20) 
11

>  <r_i_glide_eff_state_penalty>  (20) 
0

>  <ligand_id>  (20) 
5

>  <original_smiles>  (20) 
c1nc(=Nc2cc(C3CC3)[nH]n2)c2nc[nH]c2[nH]1

>  <smiles>  (20) 
[H]c1nc(N([H])c2c([H])c(C3([H])C([H])([H])C3([H])[H])nn2[H])c2nc([H])n([H])c2n1

$$$$
5:1:2
     RDKit          3D

 29 32  0  0  1  0  0  0  0  0999 V2000
    3.2177    0.6945    4.4620 C   0  0  0  0  0  0  0  0  0  0  0  0
    3.5370    0.1569    3.2777 N   0  0  0  0  0  0  0  0  0  0  0  0
    2.6348    0.1690    2.2626 C   0  0  0  0  0  0  0  0  0  0  0  0
    2.9161   -0.3546    1.0504 N   0  0  0  0  0  0  0  0  0  0  0  0
    4.1267   -0.8406    0.5602 C   0  0  0  0  0  0  0  0  0  0  0  0
    5.3148   -1.1992    1.1369 C   0  0  0  0  0  0  0  0  0  0  0  0
    6.1277   -1.6122    0.0417 C   0  0  0  0  0  0  0  0  0  0  0  0
    7.5378   -2.1333    0.0708 C   0  0  0  0  0  0  0  0  0  0  0  0
    7.9957   -3.1454   -0.9554 C   0  0  0  0  0  0  0  0  0  0  0  0
    7.8075   -3.5641    0.4790 C   0  0  0  0  0  0  0  0  0  0  0  0
    5.5138   -1.4658   -1.1250 N   0  0  0  0  0  0  0  0  0  0  0  0
    4.2742   -1.0542   -0.7921 N   0  0  0  0  0  0  0  0  0  0  0  0
    1.3692    0.7569    2.5129 C   0  0  0  0  0  0  0  0  0  0  0  0
    0.2291    0.9441    1.7493 N   0  0  0  0  0  0  0  0  0  0  0  0
   -0.6009    1.5601    2.5446 C   0  0  0  0  0  0  0  0  0  0  0  0
   -0.1093    1.7957    3.8074 N   0  0  0  0  0  0  0  0  0  0  0  0
    1.1739    1.2871    3.8165 C   0  0  0  0  0  0  0  0  0  0  0  0
    2.0752    1.2784    4.8368 N   0  0  0  0  0  0  0  0  0  0  0  0
   -0.5313    2.2519    4.6034 H   0  0  0  0  0  0  0  0  0  0  0  0
    2.1518   -0.3963    0.3763 H   0  0  0  0  0  0  0  0  0  0  0  0
    3.9906    0.6473    5.2147 H   0  0  0  0  0  0  0  0  0  0  0  0
    5.5637   -1.1840    2.1853 H   0  0  0  0  0  0  0  0  0  0  0  0
    8.2489   -1.3748    0.3935 H   0  0  0  0  0  0  0  0  0  0  0  0
    7.2652   -3.4719   -1.6901 H   0  0  0  0  0  0  0  0  0  0  0  0
    9.0119   -3.0608   -1.3283 H   0  0  0  0  0  0  0  0  0  0  0  0
    8.7017   -3.7695    1.0634 H   0  0  0  0  0  0  0  0  0  0  0  0
    6.9417   -4.1815    0.7202 H   0  0  0  0  0  0  0  0  0  0  0  0
   -1.5903    1.8505    2.2226 H   0  0  0  0  0  0  0  0  0  0  0  0
    3.5646   -0.8865   -1.4948 H   0  0  0  0  0  0  0  0  0  0  0  0
  1 21  1  0
  1  2  2  0
  1 18  1  0
  2  3  1  0
  3  4  1  0
  3 13  2  0
  4  5  1  0
  4 20  1  0
  5 12  1  0
  5  6  2  0
  6  7  1  0
  6 22  1  0
  7  8  1  0
  7 11  2  0
  8 10  1  0
  8  9  1  0
  8 23  1  0
  9 10  1  0
  9 24  1  0
  9 25  1  0
 10 26  1  0
 10 27  1  0
 11 12  1  0
 12 29  1  0
 13 14  1  0
 13 17  1  0
 14 15  2  0
 15 28  1  0
 15 16  1  0
 16 19  1  0
 16 17  1  0
 17 18  2  0
M  END
>  <i_m_ct_stereo_status>  (21) 
1

>  <s_m_source_file>  (21) 
/var/tmp/pbs.5076255.sched01/tmp7v4tqmxt/0pyfftbwv.sdf

>  <i_m_source_file_index>  (21) 
8

>  <i_lp_mmshare_version>  (21) 
48012

>  <i_f3d_flags>  (21) 
0

>  <s_epik_input>  (21) 
bjFbY0hdW25IXWMoYzEyKVtuSF1bY0hdbi9jMj1OL2MzW2NIXWMoW25IXW4zKVtDSF00W0NIMl1bQ0gyXTQ=

>  <s_epik_cmdline>  (21) 
J2VwaWtfcHl0aG9uJywgJy1waHQnLCAnMi4wJywgJy1waCcsICc3LjAnLCAnLXRuJywgJzgnLCAnLW1hJywgJzIwMCcsICctaW1hZScsICc8aW5maWxlLm1hZT4nLCAnLW9tYWUnLCAnPG91dGZpbGUubWFlPic=

>  <r_lp_tautomer_probability>  (21) 
0.156257

>  <r_epik_Ionization_Penalty>  (21) 
0.0016205

>  <r_epik_Ionization_Penalty_Charging>  (21) 
0

>  <r_epik_Ionization_Penalty_Neutral>  (21) 
0.0016205

>  <r_epik_State_Penalty>  (21) 
1.15516

>  <r_epik_Charging_Adjusted_Penalty>  (21) 
1.15516

>  <i_epik_Tot_Q>  (21) 
0

>  <i_epik_Tot_abs_Q>  (21) 
0

>  <s_lp_Force_Field>  (21) 
OPLS3e

>  <r_lp_Energy>  (21) 
21.5485

>  <b_lp_Chiralities_Consistent>  (21) 
1

>  <s_lp_Variant>  (21) 
5:0-2

>  <s_i_glide_gridfile>  (21) 
pfpi4k_grid

>  <i_i_glide_lignum>  (21) 
8

>  <i_i_glide_rotatable_bonds>  (21) 
3

>  <r_i_docking_score>  (21) 
-3.30332

>  <r_i_glide_ligand_efficiency>  (21) 
-0.183518

>  <r_i_glide_ligand_efficiency_sa>  (21) 
-0.480953

>  <r_i_glide_ligand_efficiency_ln>  (21) 
-0.849102

>  <r_i_glide_gscore>  (21) 
-3.30332

>  <r_i_glide_lipo>  (21) 
-0.344853

>  <r_i_glide_hbond>  (21) 
-0.16

>  <r_i_glide_metal>  (21) 
-0

>  <r_i_glide_rewards>  (21) 
-1.76447

>  <r_i_glide_evdw>  (21) 
-24.7349

>  <r_i_glide_ecoul>  (21) 
-3.26623

>  <r_i_glide_erotb>  (21) 
0.892774

>  <r_i_glide_esite>  (21) 
-0.200094

>  <r_i_glide_emodel>  (21) 
-34.0192

>  <r_i_glide_energy>  (21) 
-28.0012

>  <r_i_glide_einternal>  (21) 
1.75592

>  <r_i_glide_intrahb_reward>  (21) 
-0

>  <i_i_glide_confnum>  (21) 
6

>  <i_i_glide_posenum>  (21) 
3

>  <r_i_glide_eff_state_penalty>  (21) 
0

>  <ligand_id>  (21) 
5

>  <original_smiles>  (21) 
c1nc(=Nc2cc(C3CC3)[nH]n2)c2nc[nH]c2[nH]1

>  <smiles>  (21) 
[H]c1nc(N([H])c2c([H])c(C3([H])C([H])([H])C3([H])[H])nn2[H])c2nc([H])n([H])c2n1

$$$$
6:0:0
     RDKit          3D

 51 55  0  0  1  0  0  0  0  0999 V2000
    6.2463   -7.0643    1.9492 C   0  0  0  0  0  0  0  0  0  0  0  0
    5.2453   -6.1719    1.4655 O   0  0  0  0  0  0  0  0  0  0  0  0
    4.7317   -5.3182    2.4831 C   0  0  2  0  0  0  0  0  0  0  0  0
    3.6914   -4.3351    1.9366 C   0  0  2  0  0  0  0  0  0  0  0  0
    4.1754   -3.5361    0.8772 O   0  0  0  0  0  0  0  0  0  0  0  0
    5.2635   -2.6218    1.0009 C   0  0  2  0  0  0  0  0  0  0  0  0
    5.4075   -1.4541    1.8462 O   0  0  0  0  0  0  0  0  0  0  0  0
    4.6449   -1.0880    2.9693 C   0  0  0  0  0  0  0  0  0  0  0  0
    3.4382   -1.9166    2.8016 C   0  0  1  0  0  0  0  0  0  0  0  0
    2.5148   -1.4885    3.8006 O   0  0  0  0  0  0  0  0  0  0  0  0
    2.8051   -1.4811    1.3473 C   0  0  1  0  0  0  0  0  0  0  0  0
    1.9323   -0.3891    1.5243 O   0  0  0  0  0  0  0  0  0  0  0  0
    3.7632   -1.0156    0.1518 C   0  0  1  0  0  0  0  0  0  0  0  0
    5.0773   -1.7989   -0.2433 C   0  0  2  0  0  0  0  0  0  0  0  0
    3.9026   -1.6650   -1.2010 C   0  0  0  0  0  0  0  0  0  0  0  0
    3.0233   -2.8333   -1.6606 C   0  0  0  0  0  0  0  0  0  0  0  0
    4.1361   -0.7975   -2.4222 C   0  0  0  0  0  0  0  0  0  0  0  0
    3.9355   -3.4412    3.1364 C   0  0  1  0  0  0  0  0  0  0  0  0
    3.3328   -3.8576    4.5040 C   0  0  0  0  0  0  0  0  0  0  0  0
    5.4536   -4.0133    2.8558 C   0  0  2  0  0  0  0  0  0  0  0  0
    6.3119   -3.4258    1.6989 C   0  0  1  0  0  0  0  0  0  0  0  0
    7.0543   -4.3298    0.8977 O   0  0  0  0  0  0  0  0  0  0  0  0
    7.9871   -3.9581    0.0335 C   0  0  0  0  0  0  0  0  0  0  0  0
    9.0096   -5.0685   -0.2285 C   0  0  0  0  0  0  0  0  0  0  0  0
    8.0887   -2.8495   -0.5042 O   0  0  0  0  0  0  0  0  0  0  0  0
    6.6619   -7.6391    1.1161 H   0  0  0  0  0  0  0  0  0  0  0  0
    5.8386   -7.7650    2.6761 H   0  0  0  0  0  0  0  0  0  0  0  0
    7.0779   -6.5216    2.4159 H   0  0  0  0  0  0  0  0  0  0  0  0
    4.3673   -5.9286    3.3017 H   0  0  0  0  0  0  0  0  0  0  0  0
    2.6733   -4.7530    1.8418 H   0  0  0  0  0  0  0  0  0  0  0  0
    5.1595   -1.2722    3.9101 H   0  0  0  0  0  0  0  0  0  0  0  0
    4.4025   -0.0176    2.9182 H   0  0  0  0  0  0  0  0  0  0  0  0
    1.6623   -1.7897    3.5462 H   0  0  0  0  0  0  0  0  0  0  0  0
    2.1292   -2.2731    1.0070 H   0  0  0  0  0  0  0  0  0  0  0  0
    1.4109   -0.3585    0.7157 H   0  0  0  0  0  0  0  0  0  0  0  0
    3.9466    0.0647    0.1706 H   0  0  0  0  0  0  0  0  0  0  0  0
    5.9411   -1.1692   -0.4840 H   0  0  0  0  0  0  0  0  0  0  0  0
    3.5811   -3.4758   -2.3446 H   0  0  0  0  0  0  0  0  0  0  0  0
    2.1439   -2.4411   -2.1820 H   0  0  0  0  0  0  0  0  0  0  0  0
    2.6461   -3.4389   -0.8332 H   0  0  0  0  0  0  0  0  0  0  0  0
    4.6465   -1.3811   -3.1917 H   0  0  0  0  0  0  0  0  0  0  0  0
    4.7557    0.0594   -2.1507 H   0  0  0  0  0  0  0  0  0  0  0  0
    3.1781   -0.4270   -2.8135 H   0  0  0  0  0  0  0  0  0  0  0  0
    3.5952   -3.1399    5.2711 H   0  0  0  0  0  0  0  0  0  0  0  0
    3.7088   -4.8122    4.8952 H   0  0  0  0  0  0  0  0  0  0  0  0
    2.2519   -3.9439    4.4486 H   0  0  0  0  0  0  0  0  0  0  0  0
    6.0065   -4.1750    3.8011 H   0  0  0  0  0  0  0  0  0  0  0  0
    7.0301   -2.7062    2.0725 H   0  0  0  0  0  0  0  0  0  0  0  0
    9.4483   -5.3342    0.7343 H   0  0  0  0  0  0  0  0  0  0  0  0
    9.7830   -4.7175   -0.9154 H   0  0  0  0  0  0  0  0  0  0  0  0
    8.6181   -5.9957   -0.6269 H   0  0  0  0  0  0  0  0  0  0  0  0
  1  2  1  0
  1 26  1  0
  1 27  1  0
  1 28  1  0
  2  3  1  0
  3 20  1  0
  3  4  1  0
  3 29  1  1
  4 18  1  0
  4  5  1  0
  4 30  1  6
  6  5  1  1
  6 14  1  0
  6 21  1  0
  6  7  1  0
  7  8  1  0
  8  9  1  0
  8 31  1  0
  8 32  1  0
  9 10  1  1
  9 11  1  0
  9 18  1  0
 10 33  1  0
 11 12  1  0
 11 13  1  0
 11 34  1  6
 12 35  1  0
 13 15  1  0
 13 14  1  0
 13 36  1  6
 14 15  1  0
 14 37  1  6
 15 16  1  0
 15 17  1  0
 16 38  1  0
 16 39  1  0
 16 40  1  0
 17 41  1  0
 17 42  1  0
 17 43  1  0
 18 19  1  1
 18 20  1  0
 19 44  1  0
 19 45  1  0
 19 46  1  0
 20 21  1  0
 20 47  1  1
 21 22  1  0
 21 48  1  1
 22 23  1  0
 23 24  1  0
 23 25  2  0
 24 49  1  0
 24 50  1  0
 24 51  1  0
M  END
>  <i_m_ct_stereo_status>  (22) 
1

>  <s_m_source_file>  (22) 
/var/tmp/pbs.5076255.sched01/tmp7v4tqmxt/0pyfftbwv.sdf

>  <i_m_source_file_index>  (22) 
9

>  <i_lp_mmshare_version>  (22) 
48012

>  <i_f3d_flags>  (22) 
2

>  <s_epik_input>  (22) 
W0NIM11DKD1PKU9bQ0BASF0xW0NAQEhdMltDQEhdKE9bQ0gzXSlbQ0BIXShPMylbQ0BdMihbQ0gzXSlbQ0BdKFtDSDJdTzQpKFtPSF0pW0NAQEhdKFtPSF0pW0NAQEhdKFtDQEhdNUMxMzQpQzUoW0NIM10pW0NIM10=

>  <s_epik_cmdline>  (22) 
J2VwaWtfcHl0aG9uJywgJy1waHQnLCAnMi4wJywgJy1waCcsICc3LjAnLCAnLXRuJywgJzgnLCAnLW1hJywgJzIwMCcsICctaW1hZScsICc8aW5maWxlLm1hZT4nLCAnLW9tYWUnLCAnPG91dGZpbGUubWFlPic=

>  <r_lp_tautomer_probability>  (22) 
1

>  <r_epik_Ionization_Penalty>  (22) 
1.05159e-07

>  <r_epik_Ionization_Penalty_Charging>  (22) 
0

>  <r_epik_Ionization_Penalty_Neutral>  (22) 
1.05159e-07

>  <r_epik_State_Penalty>  (22) 
-0

>  <r_epik_Charging_Adjusted_Penalty>  (22) 
0

>  <i_epik_Tot_Q>  (22) 
0

>  <i_epik_Tot_abs_Q>  (22) 
0

>  <s_epik_Chemistry_Notes>  (22) 
This compound has an ester and may undergo hydrolysis at high or low pH.

>  <s_lp_Force_Field>  (22) 
OPLS3e

>  <r_lp_Energy>  (22) 
191.984

>  <b_lp_Chiralities_Consistent>  (22) 
0

>  <s_lp_Variant>  (22) 
6:0-1

>  <s_i_glide_gridfile>  (22) 
pfpi4k_grid

>  <i_i_glide_lignum>  (22) 
9

>  <i_i_glide_rotatable_bonds>  (22) 
5

>  <r_i_docking_score>  (22) 
-2.79654

>  <r_i_glide_ligand_efficiency>  (22) 
-0.111862

>  <r_i_glide_ligand_efficiency_sa>  (22) 
-0.327086

>  <r_i_glide_ligand_efficiency_ln>  (22) 
-0.662865

>  <r_i_glide_gscore>  (22) 
-2.79654

>  <r_i_glide_lipo>  (22) 
-0.230352

>  <r_i_glide_hbond>  (22) 
0

>  <r_i_glide_metal>  (22) 
-0

>  <r_i_glide_rewards>  (22) 
-1.27595

>  <r_i_glide_evdw>  (22) 
-18.4804

>  <r_i_glide_ecoul>  (22) 
-3.45574

>  <r_i_glide_erotb>  (22) 
0.152141

>  <r_i_glide_esite>  (22) 
0

>  <r_i_glide_emodel>  (22) 
-23.3534

>  <r_i_glide_energy>  (22) 
-21.9361

>  <r_i_glide_einternal>  (22) 
3.57299

>  <r_i_glide_intrahb_reward>  (22) 
-0

>  <i_i_glide_confnum>  (22) 
2

>  <i_i_glide_posenum>  (22) 
10

>  <r_i_glide_eff_state_penalty>  (22) 
0

>  <ligand_id>  (22) 
6

>  <original_smiles>  (22) 
COC1C2OC34OCC(O)(C(O)C5C3C5(C)C)C2(C)C1C4OC(C)=O

>  <smiles>  (22) 
[H]OC1([H])C2([H])C([H])(C34OC([H])([H])C1(O[H])C1(C([H])([H])[H])C([H])(O3)C([H])(OC([H])([H])[H])C1([H])C4([H])OC(=O)C([H])([H])[H])C2(C([H])([H])[H])C([H])([H])[H]

$$$$
6:0:1
     RDKit          3D

 51 55  0  0  1  0  0  0  0  0999 V2000
    1.1864   -6.2876    3.0843 C   0  0  0  0  0  0  0  0  0  0  0  0
    1.5372   -5.3377    2.0898 O   0  0  0  0  0  0  0  0  0  0  0  0
    2.4791   -4.3607    2.5338 C   0  0  2  0  0  0  0  0  0  0  0  0
    2.8022   -3.2629    1.5149 C   0  0  2  0  0  0  0  0  0  0  0  0
    3.2286   -3.7716    0.2449 O   0  0  0  0  0  0  0  0  0  0  0  0
    4.4480   -4.5479    0.0732 C   0  0  2  0  0  0  0  0  0  0  0  0
    5.8234   -4.1892    0.3371 O   0  0  0  0  0  0  0  0  0  0  0  0
    6.3084   -3.1196    1.1022 C   0  0  0  0  0  0  0  0  0  0  0  0
    5.1449   -2.2188    1.1682 C   0  0  1  0  0  0  0  0  0  0  0  0
    5.6175   -1.0174    1.7740 O   0  0  0  0  0  0  0  0  0  0  0  0
    4.7546   -1.8344   -0.4015 C   0  0  1  0  0  0  0  0  0  0  0  0
    5.4833   -0.6807   -0.8355 O   0  0  0  0  0  0  0  0  0  0  0  0
    4.9867   -2.9172   -1.5732 C   0  0  1  0  0  0  0  0  0  0  0  0
    4.5930   -4.4526   -1.4103 C   0  0  2  0  0  0  0  0  0  0  0  0
    3.9479   -3.5243   -2.4544 C   0  0  0  0  0  0  0  0  0  0  0  0
    2.5027   -3.0564   -2.4342 C   0  0  0  0  0  0  0  0  0  0  0  0
    4.3275   -3.8136   -3.8884 C   0  0  0  0  0  0  0  0  0  0  0  0
    4.1209   -2.9949    2.1980 C   0  0  1  0  0  0  0  0  0  0  0  0
    4.0976   -2.2265    3.5489 C   0  0  0  0  0  0  0  0  0  0  0  0
    3.9976   -4.6431    2.3756 C   0  0  2  0  0  0  0  0  0  0  0  0
    4.3979   -5.5906    1.1611 C   0  0  1  0  0  0  0  0  0  0  0  0
    3.5724   -6.6983    0.8535 O   0  0  0  0  0  0  0  0  0  0  0  0
    3.5740   -7.8412    1.5726 C   0  0  0  0  0  0  0  0  0  0  0  0
    4.7315   -8.0053    2.5591 C   0  0  0  0  0  0  0  0  0  0  0  0
    2.7858   -8.7638    1.3770 O   0  0  0  0  0  0  0  0  0  0  0  0
    0.5542   -7.0309    2.5994 H   0  0  0  0  0  0  0  0  0  0  0  0
    0.5740   -5.8258    3.8794 H   0  0  0  0  0  0  0  0  0  0  0  0
    2.0902   -6.7959    3.4198 H   0  0  0  0  0  0  0  0  0  0  0  0
    2.1784   -3.9685    3.5008 H   0  0  0  0  0  0  0  0  0  0  0  0
    2.0906   -2.4351    1.5010 H   0  0  0  0  0  0  0  0  0  0  0  0
    6.6570   -3.4542    2.0755 H   0  0  0  0  0  0  0  0  0  0  0  0
    7.1423   -2.6620    0.5712 H   0  0  0  0  0  0  0  0  0  0  0  0
    4.8881   -0.4340    1.8599 H   0  0  0  0  0  0  0  0  0  0  0  0
    3.7076   -1.5231   -0.4062 H   0  0  0  0  0  0  0  0  0  0  0  0
    5.0638    0.0821   -0.4686 H   0  0  0  0  0  0  0  0  0  0  0  0
    5.9970   -2.8149   -1.9741 H   0  0  0  0  0  0  0  0  0  0  0  0
    5.2868   -5.1807   -1.8022 H   0  0  0  0  0  0  0  0  0  0  0  0
    1.8468   -3.8814   -2.7147 H   0  0  0  0  0  0  0  0  0  0  0  0
    2.3690   -2.2405   -3.1445 H   0  0  0  0  0  0  0  0  0  0  0  0
    2.1995   -2.6839   -1.4615 H   0  0  0  0  0  0  0  0  0  0  0  0
    3.7014   -4.6103   -4.2824 H   0  0  0  0  0  0  0  0  0  0  0  0
    5.3685   -4.1392   -3.9519 H   0  0  0  0  0  0  0  0  0  0  0  0
    4.1929   -2.9262   -4.5012 H   0  0  0  0  0  0  0  0  0  0  0  0
    5.1048   -2.1229    3.9533 H   0  0  0  0  0  0  0  0  0  0  0  0
    3.5410   -2.7162    4.3502 H   0  0  0  0  0  0  0  0  0  0  0  0
    3.6652   -1.2319    3.4297 H   0  0  0  0  0  0  0  0  0  0  0  0
    4.4300   -4.9742    3.3322 H   0  0  0  0  0  0  0  0  0  0  0  0
    5.3972   -6.0150    1.2973 H   0  0  0  0  0  0  0  0  0  0  0  0
    5.7184   -7.9425    2.0625 H   0  0  0  0  0  0  0  0  0  0  0  0
    4.6812   -8.9660    3.0823 H   0  0  0  0  0  0  0  0  0  0  0  0
    4.6625   -7.2263    3.3093 H   0  0  0  0  0  0  0  0  0  0  0  0
  1  2  1  0
  1 26  1  0
  1 27  1  0
  1 28  1  0
  2  3  1  0
  3 20  1  0
  3  4  1  0
  3 29  1  1
  4 18  1  0
  4  5  1  0
  4 30  1  6
  6  5  1  1
  6 14  1  0
  6 21  1  0
  6  7  1  0
  7  8  1  0
  8  9  1  0
  8 31  1  0
  8 32  1  0
  9 10  1  1
  9 11  1  0
  9 18  1  0
 10 33  1  0
 11 12  1  0
 11 13  1  0
 11 34  1  1
 12 35  1  0
 13 15  1  0
 13 14  1  0
 13 36  1  6
 14 15  1  0
 14 37  1  6
 15 16  1  0
 15 17  1  0
 16 38  1  0
 16 39  1  0
 16 40  1  0
 17 41  1  0
 17 42  1  0
 17 43  1  0
 18 19  1  1
 18 20  1  0
 19 44  1  0
 19 45  1  0
 19 46  1  0
 20 21  1  0
 20 47  1  1
 21 22  1  0
 21 48  1  1
 22 23  1  0
 23 24  1  0
 23 25  2  0
 24 49  1  0
 24 50  1  0
 24 51  1  0
M  END
>  <i_m_ct_stereo_status>  (23) 
1

>  <s_m_source_file>  (23) 
/var/tmp/pbs.5076255.sched01/tmp7v4tqmxt/0pyfftbwv.sdf

>  <i_m_source_file_index>  (23) 
9

>  <i_lp_mmshare_version>  (23) 
48012

>  <i_f3d_flags>  (23) 
2

>  <s_epik_input>  (23) 
W0NIM11DKD1PKU9bQ0BASF0xW0NAQEhdMltDQEhdKE9bQ0gzXSlbQ0BIXShPMylbQ0BdMihbQ0gzXSlbQ0BdKFtDSDJdTzQpKFtPSF0pW0NAQEhdKFtPSF0pW0NAQEhdKFtDQEhdNUMxMzQpQzUoW0NIM10pW0NIM10=

>  <s_epik_cmdline>  (23) 
J2VwaWtfcHl0aG9uJywgJy1waHQnLCAnMi4wJywgJy1waCcsICc3LjAnLCAnLXRuJywgJzgnLCAnLW1hJywgJzIwMCcsICctaW1hZScsICc8aW5maWxlLm1hZT4nLCAnLW9tYWUnLCAnPG91dGZpbGUubWFlPic=

>  <r_lp_tautomer_probability>  (23) 
1

>  <r_epik_Ionization_Penalty>  (23) 
1.05159e-07

>  <r_epik_Ionization_Penalty_Charging>  (23) 
0

>  <r_epik_Ionization_Penalty_Neutral>  (23) 
1.05159e-07

>  <r_epik_State_Penalty>  (23) 
-0

>  <r_epik_Charging_Adjusted_Penalty>  (23) 
0

>  <i_epik_Tot_Q>  (23) 
0

>  <i_epik_Tot_abs_Q>  (23) 
0

>  <s_epik_Chemistry_Notes>  (23) 
This compound has an ester and may undergo hydrolysis at high or low pH.

>  <s_lp_Force_Field>  (23) 
OPLS3e

>  <r_lp_Energy>  (23) 
191.984

>  <b_lp_Chiralities_Consistent>  (23) 
0

>  <s_lp_Variant>  (23) 
6:0-1

>  <s_i_glide_gridfile>  (23) 
pfpi4k_grid

>  <i_i_glide_lignum>  (23) 
9

>  <i_i_glide_rotatable_bonds>  (23) 
5

>  <r_i_docking_score>  (23) 
-2.58347

>  <r_i_glide_ligand_efficiency>  (23) 
-0.103339

>  <r_i_glide_ligand_efficiency_sa>  (23) 
-0.302164

>  <r_i_glide_ligand_efficiency_ln>  (23) 
-0.612359

>  <r_i_glide_gscore>  (23) 
-2.58347

>  <r_i_glide_lipo>  (23) 
-0.222837

>  <r_i_glide_hbond>  (23) 
-0.0397862

>  <r_i_glide_metal>  (23) 
-0

>  <r_i_glide_rewards>  (23) 
-1.01148

>  <r_i_glide_evdw>  (23) 
-20.0091

>  <r_i_glide_ecoul>  (23) 
-3.07363

>  <r_i_glide_erotb>  (23) 
0.152141

>  <r_i_glide_esite>  (23) 
0

>  <r_i_glide_emodel>  (23) 
-23.1952

>  <r_i_glide_energy>  (23) 
-23.0827

>  <r_i_glide_einternal>  (23) 
6.60126

>  <r_i_glide_intrahb_reward>  (23) 
-0

>  <i_i_glide_confnum>  (23) 
2

>  <i_i_glide_posenum>  (23) 
17

>  <r_i_glide_eff_state_penalty>  (23) 
0

>  <ligand_id>  (23) 
6

>  <original_smiles>  (23) 
COC1C2OC34OCC(O)(C(O)C5C3C5(C)C)C2(C)C1C4OC(C)=O

>  <smiles>  (23) 
[H]OC1([H])C2([H])C([H])(C34OC([H])([H])C1(O[H])C1(C([H])([H])[H])C([H])(O3)C([H])(OC([H])([H])[H])C1([H])C4([H])OC(=O)C([H])([H])[H])C2(C([H])([H])[H])C([H])([H])[H]

$$$$
6:0:2
     RDKit          3D

 51 55  0  0  1  0  0  0  0  0999 V2000
    1.6082   -6.4494    3.2369 C   0  0  0  0  0  0  0  0  0  0  0  0
    1.8523   -5.4624    2.2316 O   0  0  0  0  0  0  0  0  0  0  0  0
    2.8293   -4.4956    2.6229 C   0  0  2  0  0  0  0  0  0  0  0  0
    3.0617   -3.3756    1.6002 C   0  0  2  0  0  0  0  0  0  0  0  0
    3.3930   -3.8568    0.3033 O   0  0  0  0  0  0  0  0  0  0  0  0
    4.5980   -4.6013    0.0123 C   0  0  2  0  0  0  0  0  0  0  0  0
    5.9895   -4.2447    0.1884 O   0  0  0  0  0  0  0  0  0  0  0  0
    6.5014   -3.1419    0.8872 C   0  0  0  0  0  0  0  0  0  0  0  0
    5.3280   -2.2660    1.0911 C   0  0  1  0  0  0  0  0  0  0  0  0
    5.8306   -1.0611    1.6670 O   0  0  0  0  0  0  0  0  0  0  0  0
    4.7876   -1.8844   -0.4305 C   0  0  1  0  0  0  0  0  0  0  0  0
    5.4452   -0.7332   -0.9150 O   0  0  0  0  0  0  0  0  0  0  0  0
    4.9572   -2.9278   -1.6317 C   0  0  1  0  0  0  0  0  0  0  0  0
    4.5958   -4.4672   -1.4751 C   0  0  2  0  0  0  0  0  0  0  0  0
    3.8474   -3.5320   -2.4493 C   0  0  0  0  0  0  0  0  0  0  0  0
    2.3997   -3.0913   -2.2875 C   0  0  0  0  0  0  0  0  0  0  0  0
    4.1108   -3.7934   -3.9241 C   0  0  0  0  0  0  0  0  0  0  0  0
    4.4186   -3.0986    2.1907 C   0  0  1  0  0  0  0  0  0  0  0  0
    4.4756   -2.3398    3.5484 C   0  0  0  0  0  0  0  0  0  0  0  0
    4.3312   -4.7546    2.3382 C   0  0  2  0  0  0  0  0  0  0  0  0
    4.6116   -5.6786    1.0773 C   0  0  1  0  0  0  0  0  0  0  0  0
    3.7371   -6.7807    0.8020 O   0  0  0  0  0  0  0  0  0  0  0  0
    3.7719   -7.8654    1.5939 C   0  0  0  0  0  0  0  0  0  0  0  0
    2.7309   -8.9238    1.2569 C   0  0  0  0  0  0  0  0  0  0  0  0
    4.5313   -8.0181    2.5782 O   0  0  0  0  0  0  0  0  0  0  0  0
    0.9072   -7.1646    2.7899 H   0  0  0  0  0  0  0  0  0  0  0  0
    1.0805   -6.0037    4.0855 H   0  0  0  0  0  0  0  0  0  0  0  0
    2.5257   -6.9488    3.4792 H   0  0  0  0  0  0  0  0  0  0  0  0
    2.5989   -4.1361    3.6182 H   0  0  0  0  0  0  0  0  0  0  0  0
    2.3367   -2.5607    1.6251 H   0  0  0  0  0  0  0  0  0  0  0  0
    6.9572   -3.4573    1.8267 H   0  0  0  0  0  0  0  0  0  0  0  0
    7.2716   -2.6650    0.2797 H   0  0  0  0  0  0  0  0  0  0  0  0
    5.1128   -0.4754    1.8107 H   0  0  0  0  0  0  0  0  0  0  0  0
    3.7441   -1.5668   -0.3625 H   0  0  0  0  0  0  0  0  0  0  0  0
    5.0516    0.0202   -0.5256 H   0  0  0  0  0  0  0  0  0  0  0  0
    5.9015   -2.7699   -2.1601 H   0  0  0  0  0  0  0  0  0  0  0  0
    5.2507   -5.1779   -1.9484 H   0  0  0  0  0  0  0  0  0  0  0  0
    1.7425   -3.9225   -2.5242 H   0  0  0  0  0  0  0  0  0  0  0  0
    2.1758   -2.2647   -2.9610 H   0  0  0  0  0  0  0  0  0  0  0  0
    2.1687   -2.7518   -1.2840 H   0  0  0  0  0  0  0  0  0  0  0  0
    3.4762   -4.5932   -4.2949 H   0  0  0  0  0  0  0  0  0  0  0  0
    5.1450   -4.0993   -4.0930 H   0  0  0  0  0  0  0  0  0  0  0  0
    3.9139   -2.9069   -4.5206 H   0  0  0  0  0  0  0  0  0  0  0  0
    5.5023   -2.2183    3.8930 H   0  0  0  0  0  0  0  0  0  0  0  0
    3.9811   -2.8548    4.3731 H   0  0  0  0  0  0  0  0  0  0  0  0
    4.0145   -1.3514    3.4882 H   0  0  0  0  0  0  0  0  0  0  0  0
    4.8541   -5.1069    3.2472 H   0  0  0  0  0  0  0  0  0  0  0  0
    5.6210   -6.0975    1.1408 H   0  0  0  0  0  0  0  0  0  0  0  0
    1.7638   -8.4545    1.1315 H   0  0  0  0  0  0  0  0  0  0  0  0
    2.6567   -9.6811    2.0352 H   0  0  0  0  0  0  0  0  0  0  0  0
    2.9916   -9.4400    0.3222 H   0  0  0  0  0  0  0  0  0  0  0  0
  1  2  1  0
  1 26  1  0
  1 27  1  0
  1 28  1  0
  2  3  1  0
  3 20  1  0
  3  4  1  0
  3 29  1  1
  4 18  1  0
  4  5  1  0
  4 30  1  6
  6  5  1  1
  6 14  1  0
  6 21  1  0
  6  7  1  0
  7  8  1  0
  8  9  1  0
  8 31  1  0
  8 32  1  0
  9 10  1  1
  9 11  1  0
  9 18  1  0
 10 33  1  0
 11 12  1  0
 11 13  1  0
 11 34  1  1
 12 35  1  0
 13 15  1  0
 13 14  1  0
 13 36  1  6
 14 15  1  0
 14 37  1  6
 15 16  1  0
 15 17  1  0
 16 38  1  0
 16 39  1  0
 16 40  1  0
 17 41  1  0
 17 42  1  0
 17 43  1  0
 18 19  1  1
 18 20  1  0
 19 44  1  0
 19 45  1  0
 19 46  1  0
 20 21  1  0
 20 47  1  1
 21 22  1  0
 21 48  1  1
 22 23  1  0
 23 24  1  0
 23 25  2  0
 24 49  1  0
 24 50  1  0
 24 51  1  0
M  END
>  <i_m_ct_stereo_status>  (24) 
1

>  <s_m_source_file>  (24) 
/var/tmp/pbs.5076255.sched01/tmp7v4tqmxt/0pyfftbwv.sdf

>  <i_m_source_file_index>  (24) 
9

>  <i_lp_mmshare_version>  (24) 
48012

>  <i_f3d_flags>  (24) 
2

>  <s_epik_input>  (24) 
W0NIM11DKD1PKU9bQ0BASF0xW0NAQEhdMltDQEhdKE9bQ0gzXSlbQ0BIXShPMylbQ0BdMihbQ0gzXSlbQ0BdKFtDSDJdTzQpKFtPSF0pW0NAQEhdKFtPSF0pW0NAQEhdKFtDQEhdNUMxMzQpQzUoW0NIM10pW0NIM10=

>  <s_epik_cmdline>  (24) 
J2VwaWtfcHl0aG9uJywgJy1waHQnLCAnMi4wJywgJy1waCcsICc3LjAnLCAnLXRuJywgJzgnLCAnLW1hJywgJzIwMCcsICctaW1hZScsICc8aW5maWxlLm1hZT4nLCAnLW9tYWUnLCAnPG91dGZpbGUubWFlPic=

>  <r_lp_tautomer_probability>  (24) 
1

>  <r_epik_Ionization_Penalty>  (24) 
1.05159e-07

>  <r_epik_Ionization_Penalty_Charging>  (24) 
0

>  <r_epik_Ionization_Penalty_Neutral>  (24) 
1.05159e-07

>  <r_epik_State_Penalty>  (24) 
-0

>  <r_epik_Charging_Adjusted_Penalty>  (24) 
0

>  <i_epik_Tot_Q>  (24) 
0

>  <i_epik_Tot_abs_Q>  (24) 
0

>  <s_epik_Chemistry_Notes>  (24) 
This compound has an ester and may undergo hydrolysis at high or low pH.

>  <s_lp_Force_Field>  (24) 
OPLS3e

>  <r_lp_Energy>  (24) 
191.984

>  <b_lp_Chiralities_Consistent>  (24) 
0

>  <s_lp_Variant>  (24) 
6:0-1

>  <s_i_glide_gridfile>  (24) 
pfpi4k_grid

>  <i_i_glide_lignum>  (24) 
9

>  <i_i_glide_rotatable_bonds>  (24) 
5

>  <r_i_docking_score>  (24) 
-2.58207

>  <r_i_glide_ligand_efficiency>  (24) 
-0.103283

>  <r_i_glide_ligand_efficiency_sa>  (24) 
-0.302

>  <r_i_glide_ligand_efficiency_ln>  (24) 
-0.612027

>  <r_i_glide_gscore>  (24) 
-2.58207

>  <r_i_glide_lipo>  (24) 
-0.316659

>  <r_i_glide_hbond>  (24) 
0

>  <r_i_glide_metal>  (24) 
-0

>  <r_i_glide_rewards>  (24) 
-1.01403

>  <r_i_glide_evdw>  (24) 
-20.1045

>  <r_i_glide_ecoul>  (24) 
-2.65527

>  <r_i_glide_erotb>  (24) 
0.152141

>  <r_i_glide_esite>  (24) 
0

>  <r_i_glide_emodel>  (24) 
-25.1608

>  <r_i_glide_energy>  (24) 
-22.7597

>  <r_i_glide_einternal>  (24) 
1.65346

>  <r_i_glide_intrahb_reward>  (24) 
-0

>  <i_i_glide_confnum>  (24) 
2

>  <i_i_glide_posenum>  (24) 
35

>  <r_i_glide_eff_state_penalty>  (24) 
0

>  <ligand_id>  (24) 
6

>  <original_smiles>  (24) 
COC1C2OC34OCC(O)(C(O)C5C3C5(C)C)C2(C)C1C4OC(C)=O

>  <smiles>  (24) 
[H]OC1([H])C2([H])C([H])(C34OC([H])([H])C1(O[H])C1(C([H])([H])[H])C([H])(O3)C([H])(OC([H])([H])[H])C1([H])C4([H])OC(=O)C([H])([H])[H])C2(C([H])([H])[H])C([H])([H])[H]

$$$$
7:0:0
     RDKit          3D

 36 38  0  0  1  0  0  0  0  0999 V2000
    3.8307   -2.0357   -4.2182 O   0  0  0  0  0  0  0  0  0  0  0  0
    4.1586   -2.4984   -3.1081 C   0  0  0  0  0  0  0  0  0  0  0  0
    5.3633   -3.3477   -2.8393 C   0  0  0  0  0  0  0  0  0  0  0  0
    5.2665   -3.7253   -1.4688 O   0  0  0  0  0  0  0  0  0  0  0  0
    4.4726   -2.7709   -0.7748 C   0  0  1  0  0  0  0  0  0  0  0  0
    3.7993   -3.4691    0.4316 C   0  0  0  0  0  0  0  0  0  0  0  0
    3.0065   -2.4379    1.2411 C   0  0  0  0  0  0  0  0  0  0  0  0
    3.8502   -1.2995    1.7210 N   0  0  2  0  0  0  0  0  0  0  0  0
    3.1894   -0.2889    2.5878 C   0  0  2  0  0  0  0  0  0  0  0  0
    2.6064   -0.8085    3.8956 C   0  0  0  0  0  0  0  0  0  0  0  0
    1.6844    0.3391    4.2767 C   0  0  0  0  0  0  0  0  0  0  0  0
    1.1893    0.8811    3.0615 O   0  0  0  0  0  0  0  0  0  0  0  0
    1.9827    0.4524    1.9607 C   0  0  0  0  0  0  0  0  0  0  0  0
    4.6241   -0.6449    0.6231 C   0  0  0  0  0  0  0  0  0  0  0  0
    5.4069   -1.6548   -0.2300 C   0  0  0  0  0  0  0  0  0  0  0  0
    3.4245   -2.2728   -1.8205 C   0  0  0  0  0  0  0  0  0  0  0  0
    5.3714   -4.2400   -3.4751 H   0  0  0  0  0  0  0  0  0  0  0  0
    6.2657   -2.7491   -3.0025 H   0  0  0  0  0  0  0  0  0  0  0  0
    3.1388   -4.2532    0.0750 H   0  0  0  0  0  0  0  0  0  0  0  0
    4.5354   -3.9859    1.0606 H   0  0  0  0  0  0  0  0  0  0  0  0
    2.2068   -2.0898    0.5833 H   0  0  0  0  0  0  0  0  0  0  0  0
    2.5157   -2.9826    2.0549 H   0  0  0  0  0  0  0  0  0  0  0  0
    3.9178    0.4732    2.8877 H   0  0  0  0  0  0  0  0  0  0  0  0
    2.0034   -1.7057    3.7693 H   0  0  0  0  0  0  0  0  0  0  0  0
    3.3724   -1.0157    4.6489 H   0  0  0  0  0  0  0  0  0  0  0  0
    0.8670    0.0068    4.9137 H   0  0  0  0  0  0  0  0  0  0  0  0
    2.2482    1.1206    4.7815 H   0  0  0  0  0  0  0  0  0  0  0  0
    2.2928    1.2776    1.3146 H   0  0  0  0  0  0  0  0  0  0  0  0
    1.3427   -0.2137    1.3903 H   0  0  0  0  0  0  0  0  0  0  0  0
    3.9135   -0.1161   -0.0047 H   0  0  0  0  0  0  0  0  0  0  0  0
    5.3117    0.1079    1.0111 H   0  0  0  0  0  0  0  0  0  0  0  0
    6.2090   -2.1048    0.3693 H   0  0  0  0  0  0  0  0  0  0  0  0
    5.9254   -1.1487   -1.0446 H   0  0  0  0  0  0  0  0  0  0  0  0
    3.1696   -1.2265   -1.7035 H   0  0  0  0  0  0  0  0  0  0  0  0
    2.5217   -2.8766   -1.7843 H   0  0  0  0  0  0  0  0  0  0  0  0
    4.5627   -1.7286    2.3251 H   0  0  0  0  0  0  0  0  0  0  0  0
  1  2  2  0
  2 16  1  0
  2  3  1  0
  3  4  1  0
  3 17  1  0
  3 18  1  0
  5  4  1  6
  5 15  1  0
  5  6  1  0
  5 16  1  0
  6  7  1  0
  6 19  1  0
  6 20  1  0
  7  8  1  0
  7 21  1  0
  7 22  1  0
  8  9  1  0
  8 14  1  0
  8 36  1  1
  9 13  1  0
  9 10  1  0
  9 23  1  1
 10 11  1  0
 10 24  1  0
 10 25  1  0
 11 12  1  0
 11 26  1  0
 11 27  1  0
 12 13  1  0
 13 28  1  0
 13 29  1  0
 14 15  1  0
 14 30  1  0
 14 31  1  0
 15 32  1  0
 15 33  1  0
 16 34  1  0
 16 35  1  0
M  CHG  1   8   1
M  END
>  <i_m_ct_stereo_status>  (25) 
1

>  <s_m_source_file>  (25) 
/var/tmp/pbs.5076255.sched01/tmp7v4tqmxt/0pyfftbwv.sdf

>  <i_m_source_file_index>  (25) 
10

>  <i_lp_mmshare_version>  (25) 
48012

>  <i_f3d_flags>  (25) 
0

>  <s_epik_input>  (25) 
Tz1DKFtDSDJdMSlbQ0gyXU9DMTJbQ0gyXVtDSDJdTihbQ0gyXVtDSDJdMilbQ0BASF0zW0NIMl1bQ0gyXU9bQ0gyXTM=

>  <s_epik_cmdline>  (25) 
J2VwaWtfcHl0aG9uJywgJy1waHQnLCAnMi4wJywgJy1waCcsICc3LjAnLCAnLXRuJywgJzgnLCAnLW1hJywgJzIwMCcsICctaW1hZScsICc8aW5maWxlLm1hZT4nLCAnLW9tYWUnLCAnPG91dGZpbGUubWFlPic=

>  <r_lp_tautomer_probability>  (25) 
1

>  <r_epik_Ionization_Penalty>  (25) 
0.0514158

>  <r_epik_Ionization_Penalty_Charging>  (25) 
0.0514158

>  <r_epik_Ionization_Penalty_Neutral>  (25) 
2.11197e-09

>  <r_epik_State_Penalty>  (25) 
0.0440449

>  <r_epik_Charging_Adjusted_Penalty>  (25) 
0.0954607

>  <i_epik_Tot_Q>  (25) 
1

>  <i_epik_Tot_abs_Q>  (25) 
1

>  <s_lp_Force_Field>  (25) 
OPLS3e

>  <r_lp_Energy>  (25) 
17.8104

>  <b_lp_Chiralities_Consistent>  (25) 
1

>  <s_lp_Variant>  (25) 
7:0-1

>  <s_i_glide_gridfile>  (25) 
pfpi4k_grid

>  <i_i_glide_lignum>  (25) 
10

>  <i_i_glide_rotatable_bonds>  (25) 
1

>  <r_i_docking_score>  (25) 
-4.29852

>  <r_i_glide_ligand_efficiency>  (25) 
-0.268658

>  <r_i_glide_ligand_efficiency_sa>  (25) 
-0.676975

>  <r_i_glide_ligand_efficiency_ln>  (25) 
-1.13941

>  <r_i_glide_gscore>  (25) 
-4.29852

>  <r_i_glide_lipo>  (25) 
-0.355763

>  <r_i_glide_hbond>  (25) 
-0.32

>  <r_i_glide_metal>  (25) 
-0

>  <r_i_glide_rewards>  (25) 
-2.06034

>  <r_i_glide_evdw>  (25) 
-22.4283

>  <r_i_glide_ecoul>  (25) 
-5.09644

>  <r_i_glide_erotb>  (25) 
0.331811

>  <r_i_glide_esite>  (25) 
-0.0083446

>  <r_i_glide_emodel>  (25) 
-33.4431

>  <r_i_glide_energy>  (25) 
-27.5247

>  <r_i_glide_einternal>  (25) 
2.7571

>  <r_i_glide_intrahb_reward>  (25) 
-0

>  <i_i_glide_confnum>  (25) 
3

>  <i_i_glide_posenum>  (25) 
2

>  <r_i_glide_eff_state_penalty>  (25) 
0

>  <ligand_id>  (25) 
7

>  <original_smiles>  (25) 
O=C1COC2(CCN(C3CCOC3)CC2)C1

>  <smiles>  (25) 
[H]C1([H])OC2(C([H])([H])C1=O)C([H])([H])C([H])([H])[N+]([H])(C1([H])C([H])([H])OC([H])([H])C1([H])[H])C([H])([H])C2([H])[H]

$$$$
7:0:1
     RDKit          3D

 36 38  0  0  1  0  0  0  0  0999 V2000
    4.4244   -2.8057    4.3336 O   0  0  0  0  0  0  0  0  0  0  0  0
    4.4019   -3.6410    3.4316 C   0  0  0  0  0  0  0  0  0  0  0  0
    3.9412   -5.0714    3.5524 C   0  0  0  0  0  0  0  0  0  0  0  0
    4.2680   -5.6632    2.2926 O   0  0  0  0  0  0  0  0  0  0  0  0
    4.3160   -4.6470    1.2880 C   0  0  1  0  0  0  0  0  0  0  0  0
    5.2715   -5.0687    0.1498 C   0  0  0  0  0  0  0  0  0  0  0  0
    5.2505   -4.0007   -0.9687 C   0  0  0  0  0  0  0  0  0  0  0  0
    3.8776   -3.8017   -1.5164 N   0  0  2  0  0  0  0  0  0  0  0  0
    3.9140   -2.8456   -2.6712 C   0  0  2  0  0  0  0  0  0  0  0  0
    4.2006   -1.3974   -2.2939 C   0  0  0  0  0  0  0  0  0  0  0  0
    3.7904   -0.6777   -3.5593 C   0  0  0  0  0  0  0  0  0  0  0  0
    2.7177   -1.4414   -4.0988 O   0  0  0  0  0  0  0  0  0  0  0  0
    2.6268   -2.7288   -3.4930 C   0  0  0  0  0  0  0  0  0  0  0  0
    2.8954   -3.4514   -0.4468 C   0  0  0  0  0  0  0  0  0  0  0  0
    2.8997   -4.4915    0.6872 C   0  0  0  0  0  0  0  0  0  0  0  0
    4.8386   -3.3866    2.0236 C   0  0  0  0  0  0  0  0  0  0  0  0
    4.4568   -5.5847    4.3669 H   0  0  0  0  0  0  0  0  0  0  0  0
    2.8623   -5.0871    3.7230 H   0  0  0  0  0  0  0  0  0  0  0  0
    6.2829   -5.1807    0.5376 H   0  0  0  0  0  0  0  0  0  0  0  0
    5.0051   -6.0505   -0.2521 H   0  0  0  0  0  0  0  0  0  0  0  0
    5.6386   -3.0678   -0.5571 H   0  0  0  0  0  0  0  0  0  0  0  0
    5.9368   -4.2617   -1.7739 H   0  0  0  0  0  0  0  0  0  0  0  0
    4.6909   -3.1731   -3.3663 H   0  0  0  0  0  0  0  0  0  0  0  0
    3.5536   -1.0423   -1.4929 H   0  0  0  0  0  0  0  0  0  0  0  0
    5.2381   -1.2073   -2.0125 H   0  0  0  0  0  0  0  0  0  0  0  0
    3.4917    0.3484   -3.3495 H   0  0  0  0  0  0  0  0  0  0  0  0
    4.6130   -0.6705   -4.2727 H   0  0  0  0  0  0  0  0  0  0  0  0
    2.5373   -3.5173   -4.2404 H   0  0  0  0  0  0  0  0  0  0  0  0
    1.7318   -2.7459   -2.8799 H   0  0  0  0  0  0  0  0  0  0  0  0
    3.1373   -2.4851   -0.0087 H   0  0  0  0  0  0  0  0  0  0  0  0
    1.8816   -3.3614   -0.8372 H   0  0  0  0  0  0  0  0  0  0  0  0
    2.5296   -5.4477    0.3119 H   0  0  0  0  0  0  0  0  0  0  0  0
    2.1880   -4.1950    1.4502 H   0  0  0  0  0  0  0  0  0  0  0  0
    4.4106   -2.4563    1.6594 H   0  0  0  0  0  0  0  0  0  0  0  0
    5.9245   -3.3249    1.9802 H   0  0  0  0  0  0  0  0  0  0  0  0
    3.5920   -4.7056   -1.9076 H   0  0  0  0  0  0  0  0  0  0  0  0
  1  2  2  0
  2 16  1  0
  2  3  1  0
  3  4  1  0
  3 17  1  0
  3 18  1  0
  5  4  1  1
  5 15  1  0
  5  6  1  0
  5 16  1  0
  6  7  1  0
  6 19  1  0
  6 20  1  0
  7  8  1  0
  7 21  1  0
  7 22  1  0
  8  9  1  0
  8 14  1  0
  8 36  1  6
  9 13  1  0
  9 10  1  0
  9 23  1  6
 10 11  1  0
 10 24  1  0
 10 25  1  0
 11 12  1  0
 11 26  1  0
 11 27  1  0
 12 13  1  0
 13 28  1  0
 13 29  1  0
 14 15  1  0
 14 30  1  0
 14 31  1  0
 15 32  1  0
 15 33  1  0
 16 34  1  0
 16 35  1  0
M  CHG  1   8   1
M  END
>  <i_m_ct_stereo_status>  (26) 
1

>  <s_m_source_file>  (26) 
/var/tmp/pbs.5076255.sched01/tmp7v4tqmxt/0pyfftbwv.sdf

>  <i_m_source_file_index>  (26) 
10

>  <i_lp_mmshare_version>  (26) 
48012

>  <i_f3d_flags>  (26) 
0

>  <s_epik_input>  (26) 
Tz1DKFtDSDJdMSlbQ0gyXU9DMTJbQ0gyXVtDSDJdTihbQ0gyXVtDSDJdMilbQ0BASF0zW0NIMl1bQ0gyXU9bQ0gyXTM=

>  <s_epik_cmdline>  (26) 
J2VwaWtfcHl0aG9uJywgJy1waHQnLCAnMi4wJywgJy1waCcsICc3LjAnLCAnLXRuJywgJzgnLCAnLW1hJywgJzIwMCcsICctaW1hZScsICc8aW5maWxlLm1hZT4nLCAnLW9tYWUnLCAnPG91dGZpbGUubWFlPic=

>  <r_lp_tautomer_probability>  (26) 
1

>  <r_epik_Ionization_Penalty>  (26) 
0.0514158

>  <r_epik_Ionization_Penalty_Charging>  (26) 
0.0514158

>  <r_epik_Ionization_Penalty_Neutral>  (26) 
2.11197e-09

>  <r_epik_State_Penalty>  (26) 
0.0440449

>  <r_epik_Charging_Adjusted_Penalty>  (26) 
0.0954607

>  <i_epik_Tot_Q>  (26) 
1

>  <i_epik_Tot_abs_Q>  (26) 
1

>  <s_lp_Force_Field>  (26) 
OPLS3e

>  <r_lp_Energy>  (26) 
17.8104

>  <b_lp_Chiralities_Consistent>  (26) 
1

>  <s_lp_Variant>  (26) 
7:0-1

>  <s_i_glide_gridfile>  (26) 
pfpi4k_grid

>  <i_i_glide_lignum>  (26) 
10

>  <i_i_glide_rotatable_bonds>  (26) 
1

>  <r_i_docking_score>  (26) 
-4.13796

>  <r_i_glide_ligand_efficiency>  (26) 
-0.258622

>  <r_i_glide_ligand_efficiency_sa>  (26) 
-0.651688

>  <r_i_glide_ligand_efficiency_ln>  (26) 
-1.09685

>  <r_i_glide_gscore>  (26) 
-4.13796

>  <r_i_glide_lipo>  (26) 
-0.605513

>  <r_i_glide_hbond>  (26) 
0

>  <r_i_glide_metal>  (26) 
-0

>  <r_i_glide_rewards>  (26) 
-1.88099

>  <r_i_glide_evdw>  (26) 
-20.9279

>  <r_i_glide_ecoul>  (26) 
-6.0662

>  <r_i_glide_erotb>  (26) 
0.331811

>  <r_i_glide_esite>  (26) 
-0.0269409

>  <r_i_glide_emodel>  (26) 
-32.6789

>  <r_i_glide_energy>  (26) 
-26.9941

>  <r_i_glide_einternal>  (26) 
2.55476

>  <r_i_glide_intrahb_reward>  (26) 
-0

>  <i_i_glide_confnum>  (26) 
1

>  <i_i_glide_posenum>  (26) 
9

>  <r_i_glide_eff_state_penalty>  (26) 
0

>  <ligand_id>  (26) 
7

>  <original_smiles>  (26) 
O=C1COC2(CCN(C3CCOC3)CC2)C1

>  <smiles>  (26) 
[H]C1([H])OC2(C([H])([H])C1=O)C([H])([H])C([H])([H])[N+]([H])(C1([H])C([H])([H])OC([H])([H])C1([H])[H])C([H])([H])C2([H])[H]

$$$$
7:0:2
     RDKit          3D

 36 38  0  0  1  0  0  0  0  0999 V2000
    3.7898   -4.2899    4.6844 O   0  0  0  0  0  0  0  0  0  0  0  0
    3.8484   -4.8674    3.6080 C   0  0  0  0  0  0  0  0  0  0  0  0
    3.3538   -6.2648    3.3202 C   0  0  0  0  0  0  0  0  0  0  0  0
    3.7717   -6.5344    1.9850 O   0  0  0  0  0  0  0  0  0  0  0  0
    3.9366   -5.3045    1.2810 C   0  0  1  0  0  0  0  0  0  0  0  0
    4.9726   -5.5033    0.1603 C   0  0  0  0  0  0  0  0  0  0  0  0
    5.0855   -4.2114   -0.6750 C   0  0  0  0  0  0  0  0  0  0  0  0
    3.7820   -3.8113   -1.2796 N   0  0  2  0  0  0  0  0  0  0  0  0
    3.8865   -2.5395   -2.0760 C   0  0  2  0  0  0  0  0  0  0  0  0
    2.6794   -2.2672   -2.9504 C   0  0  0  0  0  0  0  0  0  0  0  0
    3.2340   -1.1795   -3.8482 C   0  0  0  0  0  0  0  0  0  0  0  0
    4.5781   -1.5625   -4.0862 O   0  0  0  0  0  0  0  0  0  0  0  0
    4.9942   -2.5286   -3.1252 C   0  0  0  0  0  0  0  0  0  0  0  0
    2.7098   -3.6823   -0.2521 C   0  0  0  0  0  0  0  0  0  0  0  0
    2.5858   -4.9532    0.6185 C   0  0  0  0  0  0  0  0  0  0  0  0
    4.4192   -4.2992    2.3517 C   0  0  0  0  0  0  0  0  0  0  0  0
    3.7962   -6.9931    3.9964 H   0  0  0  0  0  0  0  0  0  0  0  0
    2.2651   -6.2908    3.3867 H   0  0  0  0  0  0  0  0  0  0  0  0
    5.9440   -5.7542    0.5864 H   0  0  0  0  0  0  0  0  0  0  0  0
    4.7149   -6.3448   -0.4878 H   0  0  0  0  0  0  0  0  0  0  0  0
    5.4489   -3.4039   -0.0422 H   0  0  0  0  0  0  0  0  0  0  0  0
    5.8429   -4.3776   -1.4378 H   0  0  0  0  0  0  0  0  0  0  0  0
    4.0382   -1.6804   -1.4140 H   0  0  0  0  0  0  0  0  0  0  0  0
    2.3752   -3.1435   -3.5226 H   0  0  0  0  0  0  0  0  0  0  0  0
    1.8219   -1.9202   -2.3827 H   0  0  0  0  0  0  0  0  0  0  0  0
    2.6661   -1.0595   -4.7643 H   0  0  0  0  0  0  0  0  0  0  0  0
    3.2246   -0.2272   -3.3194 H   0  0  0  0  0  0  0  0  0  0  0  0
    5.9581   -2.2719   -2.6905 H   0  0  0  0  0  0  0  0  0  0  0  0
    5.0741   -3.4824   -3.6358 H   0  0  0  0  0  0  0  0  0  0  0  0
    2.9415   -2.8216    0.3695 H   0  0  0  0  0  0  0  0  0  0  0  0
    1.7454   -3.4760   -0.7147 H   0  0  0  0  0  0  0  0  0  0  0  0
    2.2289   -5.7811   -0.0019 H   0  0  0  0  0  0  0  0  0  0  0  0
    1.8144   -4.8161    1.3762 H   0  0  0  0  0  0  0  0  0  0  0  0
    4.0386   -3.2943    2.1959 H   0  0  0  0  0  0  0  0  0  0  0  0
    5.5057   -4.2792    2.4074 H   0  0  0  0  0  0  0  0  0  0  0  0
    3.5067   -4.5418   -1.9212 H   0  0  0  0  0  0  0  0  0  0  0  0
  1  2  2  0
  2 16  1  0
  2  3  1  0
  3  4  1  0
  3 17  1  0
  3 18  1  0
  5  4  1  1
  5 15  1  0
  5  6  1  0
  5 16  1  0
  6  7  1  0
  6 19  1  0
  6 20  1  0
  7  8  1  0
  7 21  1  0
  7 22  1  0
  8  9  1  0
  8 14  1  0
  8 36  1  6
  9 13  1  0
  9 10  1  0
  9 23  1  1
 10 11  1  0
 10 24  1  0
 10 25  1  0
 11 12  1  0
 11 26  1  0
 11 27  1  0
 12 13  1  0
 13 28  1  0
 13 29  1  0
 14 15  1  0
 14 30  1  0
 14 31  1  0
 15 32  1  0
 15 33  1  0
 16 34  1  0
 16 35  1  0
M  CHG  1   8   1
M  END
>  <i_m_ct_stereo_status>  (27) 
1

>  <s_m_source_file>  (27) 
/var/tmp/pbs.5076255.sched01/tmp7v4tqmxt/0pyfftbwv.sdf

>  <i_m_source_file_index>  (27) 
10

>  <i_lp_mmshare_version>  (27) 
48012

>  <i_f3d_flags>  (27) 
0

>  <s_epik_input>  (27) 
Tz1DKFtDSDJdMSlbQ0gyXU9DMTJbQ0gyXVtDSDJdTihbQ0gyXVtDSDJdMilbQ0BASF0zW0NIMl1bQ0gyXU9bQ0gyXTM=

>  <s_epik_cmdline>  (27) 
J2VwaWtfcHl0aG9uJywgJy1waHQnLCAnMi4wJywgJy1waCcsICc3LjAnLCAnLXRuJywgJzgnLCAnLW1hJywgJzIwMCcsICctaW1hZScsICc8aW5maWxlLm1hZT4nLCAnLW9tYWUnLCAnPG91dGZpbGUubWFlPic=

>  <r_lp_tautomer_probability>  (27) 
1

>  <r_epik_Ionization_Penalty>  (27) 
0.0514158

>  <r_epik_Ionization_Penalty_Charging>  (27) 
0.0514158

>  <r_epik_Ionization_Penalty_Neutral>  (27) 
2.11197e-09

>  <r_epik_State_Penalty>  (27) 
0.0440449

>  <r_epik_Charging_Adjusted_Penalty>  (27) 
0.0954607

>  <i_epik_Tot_Q>  (27) 
1

>  <i_epik_Tot_abs_Q>  (27) 
1

>  <s_lp_Force_Field>  (27) 
OPLS3e

>  <r_lp_Energy>  (27) 
17.8104

>  <b_lp_Chiralities_Consistent>  (27) 
1

>  <s_lp_Variant>  (27) 
7:0-1

>  <s_i_glide_gridfile>  (27) 
pfpi4k_grid

>  <i_i_glide_lignum>  (27) 
10

>  <i_i_glide_rotatable_bonds>  (27) 
1

>  <r_i_docking_score>  (27) 
-3.98761

>  <r_i_glide_ligand_efficiency>  (27) 
-0.249226

>  <r_i_glide_ligand_efficiency_sa>  (27) 
-0.628009

>  <r_i_glide_ligand_efficiency_ln>  (27) 
-1.057

>  <r_i_glide_gscore>  (27) 
-3.98761

>  <r_i_glide_lipo>  (27) 
-0.396874

>  <r_i_glide_hbond>  (27) 
-0.143369

>  <r_i_glide_metal>  (27) 
-0

>  <r_i_glide_rewards>  (27) 
-1.86619

>  <r_i_glide_evdw>  (27) 
-17.799

>  <r_i_glide_ecoul>  (27) 
-6.69533

>  <r_i_glide_erotb>  (27) 
0.331811

>  <r_i_glide_esite>  (27) 
-0.0187375

>  <r_i_glide_emodel>  (27) 
-31.1418

>  <r_i_glide_energy>  (27) 
-24.4943

>  <r_i_glide_einternal>  (27) 
0.163137

>  <r_i_glide_intrahb_reward>  (27) 
-0

>  <i_i_glide_confnum>  (27) 
1

>  <i_i_glide_posenum>  (27) 
1

>  <r_i_glide_eff_state_penalty>  (27) 
0

>  <ligand_id>  (27) 
7

>  <original_smiles>  (27) 
O=C1COC2(CCN(C3CCOC3)CC2)C1

>  <smiles>  (27) 
[H]C1([H])OC2(C([H])([H])C1=O)C([H])([H])C([H])([H])[N+]([H])(C1([H])C([H])([H])OC([H])([H])C1([H])[H])C([H])([H])C2([H])[H]

$$$$
7:1:0
     RDKit          3D

 35 37  0  0  1  0  0  0  0  0999 V2000
    2.8741   -1.3030    5.1774 O   0  0  0  0  0  0  0  0  0  0  0  0
    2.9499   -1.6324    3.9956 C   0  0  0  0  0  0  0  0  0  0  0  0
    1.9399   -1.3205    2.9225 C   0  0  0  0  0  0  0  0  0  0  0  0
    2.3710   -2.0627    1.8015 O   0  0  0  0  0  0  0  0  0  0  0  0
    3.7774   -2.3049    1.8916 C   0  0  0  0  0  0  0  0  0  0  0  0
    4.1163   -3.6093    1.1463 C   0  0  0  0  0  0  0  0  0  0  0  0
    3.9186   -3.4541   -0.3576 C   0  0  0  0  0  0  0  0  0  0  0  0
    4.7019   -2.3497   -0.9271 N   0  0  0  0  0  0  0  0  0  0  0  0
    4.5636   -2.2312   -2.3778 C   0  0  2  0  0  0  0  0  0  0  0  0
    3.1503   -1.9415   -2.8964 C   0  0  0  0  0  0  0  0  0  0  0  0
    2.9174   -3.0487   -3.8911 C   0  0  0  0  0  0  0  0  0  0  0  0
    4.2109   -3.3889   -4.3339 O   0  0  0  0  0  0  0  0  0  0  0  0
    5.0577   -3.4349   -3.1983 C   0  0  0  0  0  0  0  0  0  0  0  0
    4.3618   -1.0857   -0.2612 C   0  0  0  0  0  0  0  0  0  0  0  0
    4.5677   -1.1259    1.2561 C   0  0  0  0  0  0  0  0  0  0  0  0
    4.0689   -2.4403    3.3987 C   0  0  0  0  0  0  0  0  0  0  0  0
    0.9310   -1.6248    3.2155 H   0  0  0  0  0  0  0  0  0  0  0  0
    1.9530   -0.2467    2.7006 H   0  0  0  0  0  0  0  0  0  0  0  0
    5.1499   -3.8875    1.3494 H   0  0  0  0  0  0  0  0  0  0  0  0
    3.4843   -4.4244    1.5029 H   0  0  0  0  0  0  0  0  0  0  0  0
    4.2137   -4.4060   -0.8012 H   0  0  0  0  0  0  0  0  0  0  0  0
    2.8553   -3.3140   -0.5583 H   0  0  0  0  0  0  0  0  0  0  0  0
    5.1773   -1.3944   -2.7013 H   0  0  0  0  0  0  0  0  0  0  0  0
    2.3656   -1.9576   -2.1471 H   0  0  0  0  0  0  0  0  0  0  0  0
    3.1199   -0.9635   -3.3745 H   0  0  0  0  0  0  0  0  0  0  0  0
    2.4456   -3.8953   -3.4002 H   0  0  0  0  0  0  0  0  0  0  0  0
    2.2650   -2.7516   -4.7111 H   0  0  0  0  0  0  0  0  0  0  0  0
    6.1057   -3.3553   -3.4903 H   0  0  0  0  0  0  0  0  0  0  0  0
    4.9168   -4.3999   -2.7310 H   0  0  0  0  0  0  0  0  0  0  0  0
    4.9693   -0.2748   -0.6722 H   0  0  0  0  0  0  0  0  0  0  0  0
    3.3255   -0.8218   -0.4666 H   0  0  0  0  0  0  0  0  0  0  0  0
    4.2881   -0.1680    1.6955 H   0  0  0  0  0  0  0  0  0  0  0  0
    5.6293   -1.2588    1.4613 H   0  0  0  0  0  0  0  0  0  0  0  0
    5.0476   -2.0430    3.6504 H   0  0  0  0  0  0  0  0  0  0  0  0
    3.9971   -3.4762    3.7196 H   0  0  0  0  0  0  0  0  0  0  0  0
  1  2  2  0
  2 16  1  0
  2  3  1  0
  3  4  1  0
  3 17  1  0
  3 18  1  0
  4  5  1  0
  5 15  1  0
  5  6  1  0
  5 16  1  0
  6  7  1  0
  6 19  1  0
  6 20  1  0
  7  8  1  0
  7 21  1  0
  7 22  1  0
  8  9  1  0
  8 14  1  0
  9 13  1  0
  9 10  1  0
  9 23  1  6
 10 11  1  0
 10 24  1  0
 10 25  1  0
 11 12  1  0
 11 26  1  0
 11 27  1  0
 12 13  1  0
 13 28  1  0
 13 29  1  0
 14 15  1  0
 14 30  1  0
 14 31  1  0
 15 32  1  0
 15 33  1  0
 16 34  1  0
 16 35  1  0
M  END
>  <i_m_ct_stereo_status>  (28) 
1

>  <s_m_source_file>  (28) 
/var/tmp/pbs.5076255.sched01/tmp7v4tqmxt/0pyfftbwv.sdf

>  <i_m_source_file_index>  (28) 
11

>  <i_lp_mmshare_version>  (28) 
48012

>  <i_f3d_flags>  (28) 
0

>  <s_epik_input>  (28) 
Tz1DKFtDSDJdMSlbQ0gyXU9DMTJbQ0gyXVtDSDJdTihbQ0gyXVtDSDJdMilbQ0BASF0zW0NIMl1bQ0gyXU9bQ0gyXTM=

>  <s_epik_cmdline>  (28) 
J2VwaWtfcHl0aG9uJywgJy1waHQnLCAnMi4wJywgJy1waCcsICc3LjAnLCAnLXRuJywgJzgnLCAnLW1hJywgJzIwMCcsICctaW1hZScsICc8aW5maWxlLm1hZT4nLCAnLW9tYWUnLCAnPG91dGZpbGUubWFlPic=

>  <r_lp_tautomer_probability>  (28) 
1

>  <r_epik_Ionization_Penalty>  (28) 
1.47378

>  <r_epik_Ionization_Penalty_Charging>  (28) 
0

>  <r_epik_Ionization_Penalty_Neutral>  (28) 
1.47378

>  <r_epik_State_Penalty>  (28) 
1.56183

>  <r_epik_Charging_Adjusted_Penalty>  (28) 
1.56183

>  <i_epik_Tot_Q>  (28) 
0

>  <i_epik_Tot_abs_Q>  (28) 
0

>  <s_lp_Force_Field>  (28) 
OPLS3e

>  <r_lp_Energy>  (28) 
9.76616

>  <b_lp_Chiralities_Consistent>  (28) 
1

>  <s_lp_Variant>  (28) 
7:0-2

>  <s_i_glide_gridfile>  (28) 
pfpi4k_grid

>  <i_i_glide_lignum>  (28) 
11

>  <i_i_glide_rotatable_bonds>  (28) 
1

>  <r_i_docking_score>  (28) 
-3.78876

>  <r_i_glide_ligand_efficiency>  (28) 
-0.236797

>  <r_i_glide_ligand_efficiency_sa>  (28) 
-0.596692

>  <r_i_glide_ligand_efficiency_ln>  (28) 
-1.00429

>  <r_i_glide_gscore>  (28) 
-3.78876

>  <r_i_glide_lipo>  (28) 
-0.506483

>  <r_i_glide_hbond>  (28) 
-0.170922

>  <r_i_glide_metal>  (28) 
-0

>  <r_i_glide_rewards>  (28) 
-1.87306

>  <r_i_glide_evdw>  (28) 
-20.9879

>  <r_i_glide_ecoul>  (28) 
-3.48817

>  <r_i_glide_erotb>  (28) 
0.334328

>  <r_i_glide_esite>  (28) 
0

>  <r_i_glide_emodel>  (28) 
-26.4606

>  <r_i_glide_energy>  (28) 
-24.4761

>  <r_i_glide_einternal>  (28) 
7.52579

>  <r_i_glide_intrahb_reward>  (28) 
-0

>  <i_i_glide_confnum>  (28) 
6

>  <i_i_glide_posenum>  (28) 
16

>  <r_i_glide_eff_state_penalty>  (28) 
0

>  <ligand_id>  (28) 
7

>  <original_smiles>  (28) 
O=C1COC2(CCN(C3CCOC3)CC2)C1

>  <smiles>  (28) 
[H]C1([H])OC2(C([H])([H])C1=O)C([H])([H])C([H])([H])N(C1([H])C([H])([H])OC([H])([H])C1([H])[H])C([H])([H])C2([H])[H]

$$$$
7:1:1
     RDKit          3D

 35 37  0  0  1  0  0  0  0  0999 V2000
    3.7349   -1.1860    5.3995 O   0  0  0  0  0  0  0  0  0  0  0  0
    4.0780   -1.5381    4.2714 C   0  0  0  0  0  0  0  0  0  0  0  0
    3.5940   -2.7446    3.5190 C   0  0  0  0  0  0  0  0  0  0  0  0
    4.3885   -2.8028    2.3679 O   0  0  0  0  0  0  0  0  0  0  0  0
    4.8981   -1.5101    2.0558 C   0  0  0  0  0  0  0  0  0  0  0  0
    6.2327   -1.6608    1.2829 C   0  0  0  0  0  0  0  0  0  0  0  0
    6.0221   -2.2459   -0.1165 C   0  0  0  0  0  0  0  0  0  0  0  0
    5.0536   -1.4874   -0.9082 N   0  0  0  0  0  0  0  0  0  0  0  0
    4.9208   -2.0010   -2.2680 C   0  0  2  0  0  0  0  0  0  0  0  0
    4.0441   -1.1684   -3.2134 C   0  0  0  0  0  0  0  0  0  0  0  0
    3.0379   -2.1860   -3.7162 C   0  0  0  0  0  0  0  0  0  0  0  0
    3.7508   -3.4066   -3.6790 O   0  0  0  0  0  0  0  0  0  0  0  0
    4.3887   -3.4396   -2.4087 C   0  0  0  0  0  0  0  0  0  0  0  0
    3.7801   -1.3889   -0.1873 C   0  0  0  0  0  0  0  0  0  0  0  0
    3.8911   -0.7279    1.1785 C   0  0  0  0  0  0  0  0  0  0  0  0
    5.0875   -0.8053    3.4175 C   0  0  0  0  0  0  0  0  0  0  0  0
    3.7097   -3.6561    4.1144 H   0  0  0  0  0  0  0  0  0  0  0  0
    2.5342   -2.6136    3.2540 H   0  0  0  0  0  0  0  0  0  0  0  0
    6.6978   -0.6847    1.1942 H   0  0  0  0  0  0  0  0  0  0  0  0
    6.9219   -2.3132    1.8193 H   0  0  0  0  0  0  0  0  0  0  0  0
    6.9856   -2.2794   -0.6297 H   0  0  0  0  0  0  0  0  0  0  0  0
    5.6959   -3.2836   -0.0292 H   0  0  0  0  0  0  0  0  0  0  0  0
    5.9094   -2.0304   -2.7087 H   0  0  0  0  0  0  0  0  0  0  0  0
    3.5624   -0.2936   -2.7804 H   0  0  0  0  0  0  0  0  0  0  0  0
    4.6410   -0.7977   -4.0455 H   0  0  0  0  0  0  0  0  0  0  0  0
    2.1636   -2.2216   -3.0662 H   0  0  0  0  0  0  0  0  0  0  0  0
    2.6958   -1.9532   -4.7161 H   0  0  0  0  0  0  0  0  0  0  0  0
    5.1697   -4.1982   -2.3651 H   0  0  0  0  0  0  0  0  0  0  0  0
    3.6372   -3.7092   -1.6746 H   0  0  0  0  0  0  0  0  0  0  0  0
    3.0516   -0.8018   -0.7496 H   0  0  0  0  0  0  0  0  0  0  0  0
    3.3539   -2.3834   -0.0355 H   0  0  0  0  0  0  0  0  0  0  0  0
    2.9043   -0.6914    1.6325 H   0  0  0  0  0  0  0  0  0  0  0  0
    4.2255    0.3000    1.0576 H   0  0  0  0  0  0  0  0  0  0  0  0
    4.8566    0.2547    3.3410 H   0  0  0  0  0  0  0  0  0  0  0  0
    6.0938   -0.9440    3.7999 H   0  0  0  0  0  0  0  0  0  0  0  0
  1  2  2  0
  2 16  1  0
  2  3  1  0
  3  4  1  0
  3 17  1  0
  3 18  1  0
  4  5  1  0
  5 15  1  0
  5  6  1  0
  5 16  1  0
  6  7  1  0
  6 19  1  0
  6 20  1  0
  7  8  1  0
  7 21  1  0
  7 22  1  0
  8  9  1  0
  8 14  1  0
  9 13  1  0
  9 10  1  0
  9 23  1  6
 10 11  1  0
 10 24  1  0
 10 25  1  0
 11 12  1  0
 11 26  1  0
 11 27  1  0
 12 13  1  0
 13 28  1  0
 13 29  1  0
 14 15  1  0
 14 30  1  0
 14 31  1  0
 15 32  1  0
 15 33  1  0
 16 34  1  0
 16 35  1  0
M  END
>  <i_m_ct_stereo_status>  (29) 
1

>  <s_m_source_file>  (29) 
/var/tmp/pbs.5076255.sched01/tmp7v4tqmxt/0pyfftbwv.sdf

>  <i_m_source_file_index>  (29) 
11

>  <i_lp_mmshare_version>  (29) 
48012

>  <i_f3d_flags>  (29) 
0

>  <s_epik_input>  (29) 
Tz1DKFtDSDJdMSlbQ0gyXU9DMTJbQ0gyXVtDSDJdTihbQ0gyXVtDSDJdMilbQ0BASF0zW0NIMl1bQ0gyXU9bQ0gyXTM=

>  <s_epik_cmdline>  (29) 
J2VwaWtfcHl0aG9uJywgJy1waHQnLCAnMi4wJywgJy1waCcsICc3LjAnLCAnLXRuJywgJzgnLCAnLW1hJywgJzIwMCcsICctaW1hZScsICc8aW5maWxlLm1hZT4nLCAnLW9tYWUnLCAnPG91dGZpbGUubWFlPic=

>  <r_lp_tautomer_probability>  (29) 
1

>  <r_epik_Ionization_Penalty>  (29) 
1.47378

>  <r_epik_Ionization_Penalty_Charging>  (29) 
0

>  <r_epik_Ionization_Penalty_Neutral>  (29) 
1.47378

>  <r_epik_State_Penalty>  (29) 
1.56183

>  <r_epik_Charging_Adjusted_Penalty>  (29) 
1.56183

>  <i_epik_Tot_Q>  (29) 
0

>  <i_epik_Tot_abs_Q>  (29) 
0

>  <s_lp_Force_Field>  (29) 
OPLS3e

>  <r_lp_Energy>  (29) 
9.76616

>  <b_lp_Chiralities_Consistent>  (29) 
1

>  <s_lp_Variant>  (29) 
7:0-2

>  <s_i_glide_gridfile>  (29) 
pfpi4k_grid

>  <i_i_glide_lignum>  (29) 
11

>  <i_i_glide_rotatable_bonds>  (29) 
1

>  <r_i_docking_score>  (29) 
-3.4715

>  <r_i_glide_ligand_efficiency>  (29) 
-0.216969

>  <r_i_glide_ligand_efficiency_sa>  (29) 
-0.546728

>  <r_i_glide_ligand_efficiency_ln>  (29) 
-0.920191

>  <r_i_glide_gscore>  (29) 
-3.4715

>  <r_i_glide_lipo>  (29) 
-0.677931

>  <r_i_glide_hbond>  (29) 
0

>  <r_i_glide_metal>  (29) 
-0

>  <r_i_glide_rewards>  (29) 
-1.87316

>  <r_i_glide_evdw>  (29) 
-21.7054

>  <r_i_glide_ecoul>  (29) 
-1.1298

>  <r_i_glide_erotb>  (29) 
0.334328

>  <r_i_glide_esite>  (29) 
0

>  <r_i_glide_emodel>  (29) 
-24.7768

>  <r_i_glide_energy>  (29) 
-22.8352

>  <r_i_glide_einternal>  (29) 
6.56399

>  <r_i_glide_intrahb_reward>  (29) 
-0

>  <i_i_glide_confnum>  (29) 
5

>  <i_i_glide_posenum>  (29) 
10

>  <r_i_glide_eff_state_penalty>  (29) 
0

>  <ligand_id>  (29) 
7

>  <original_smiles>  (29) 
O=C1COC2(CCN(C3CCOC3)CC2)C1

>  <smiles>  (29) 
[H]C1([H])OC2(C([H])([H])C1=O)C([H])([H])C([H])([H])N(C1([H])C([H])([H])OC([H])([H])C1([H])[H])C([H])([H])C2([H])[H]

$$$$
7:1:2
     RDKit          3D

 35 37  0  0  1  0  0  0  0  0999 V2000
   -0.3158   -2.6052    9.4993 O   0  0  0  0  0  0  0  0  0  0  0  0
   -0.1444   -3.6364    8.8537 C   0  0  0  0  0  0  0  0  0  0  0  0
   -1.2112   -4.6685    8.5669 C   0  0  0  0  0  0  0  0  0  0  0  0
   -0.5191   -5.7229    7.9031 O   0  0  0  0  0  0  0  0  0  0  0  0
    0.6696   -5.2014    7.2867 C   0  0  0  0  0  0  0  0  0  0  0  0
    1.7176   -6.3315    7.1721 C   0  0  0  0  0  0  0  0  0  0  0  0
    1.2863   -7.4068    6.1611 C   0  0  0  0  0  0  0  0  0  0  0  0
    0.9756   -6.8431    4.8415 N   0  0  0  0  0  0  0  0  0  0  0  0
    0.6554   -7.8902    3.8619 C   0  0  2  0  0  0  0  0  0  0  0  0
    0.4749   -7.4232    2.4150 C   0  0  0  0  0  0  0  0  0  0  0  0
   -0.9074   -7.9412    2.0572 C   0  0  0  0  0  0  0  0  0  0  0  0
   -1.0723   -9.0805    2.8767 O   0  0  0  0  0  0  0  0  0  0  0  0
   -0.6053   -8.7117    4.1588 C   0  0  0  0  0  0  0  0  0  0  0  0
   -0.0648   -5.8218    4.9548 C   0  0  0  0  0  0  0  0  0  0  0  0
    0.3363   -4.6717    5.8717 C   0  0  0  0  0  0  0  0  0  0  0  0
    1.1433   -4.0546    8.2027 C   0  0  0  0  0  0  0  0  0  0  0  0
   -1.6645   -5.0393    9.4898 H   0  0  0  0  0  0  0  0  0  0  0  0
   -1.9789   -4.2385    7.9158 H   0  0  0  0  0  0  0  0  0  0  0  0
    2.6661   -5.9005    6.8462 H   0  0  0  0  0  0  0  0  0  0  0  0
    1.8935   -6.7899    8.1456 H   0  0  0  0  0  0  0  0  0  0  0  0
    2.0896   -8.1416    6.0718 H   0  0  0  0  0  0  0  0  0  0  0  0
    0.4225   -7.9501    6.5509 H   0  0  0  0  0  0  0  0  0  0  0  0
    1.4827   -8.5964    3.8290 H   0  0  0  0  0  0  0  0  0  0  0  0
    0.5610   -6.3465    2.2726 H   0  0  0  0  0  0  0  0  0  0  0  0
    1.2289   -7.8919    1.7797 H   0  0  0  0  0  0  0  0  0  0  0  0
   -1.6741   -7.2018    2.2921 H   0  0  0  0  0  0  0  0  0  0  0  0
   -0.9886   -8.1947    1.0002 H   0  0  0  0  0  0  0  0  0  0  0  0
   -0.3992   -9.5810    4.7751 H   0  0  0  0  0  0  0  0  0  0  0  0
   -1.3897   -8.1370    4.6415 H   0  0  0  0  0  0  0  0  0  0  0  0
   -0.2560   -5.3889    3.9770 H   0  0  0  0  0  0  0  0  0  0  0  0
   -0.9884   -6.2630    5.3295 H   0  0  0  0  0  0  0  0  0  0  0  0
   -0.4679   -3.9404    5.8978 H   0  0  0  0  0  0  0  0  0  0  0  0
    1.2042   -4.1521    5.4585 H   0  0  0  0  0  0  0  0  0  0  0  0
    1.5771   -3.2400    7.6228 H   0  0  0  0  0  0  0  0  0  0  0  0
    1.8638   -4.3997    8.9449 H   0  0  0  0  0  0  0  0  0  0  0  0
  1  2  2  0
  2 16  1  0
  2  3  1  0
  3  4  1  0
  3 17  1  0
  3 18  1  0
  4  5  1  0
  5 15  1  0
  5  6  1  0
  5 16  1  0
  6  7  1  0
  6 19  1  0
  6 20  1  0
  7  8  1  0
  7 21  1  0
  7 22  1  0
  8  9  1  0
  8 14  1  0
  9 13  1  0
  9 10  1  0
  9 23  1  6
 10 11  1  0
 10 24  1  0
 10 25  1  0
 11 12  1  0
 11 26  1  0
 11 27  1  0
 12 13  1  0
 13 28  1  0
 13 29  1  0
 14 15  1  0
 14 30  1  0
 14 31  1  0
 15 32  1  0
 15 33  1  0
 16 34  1  0
 16 35  1  0
M  END
>  <i_m_ct_stereo_status>  (30) 
1

>  <s_m_source_file>  (30) 
/var/tmp/pbs.5076255.sched01/tmp7v4tqmxt/0pyfftbwv.sdf

>  <i_m_source_file_index>  (30) 
11

>  <i_lp_mmshare_version>  (30) 
48012

>  <i_f3d_flags>  (30) 
0

>  <s_epik_input>  (30) 
Tz1DKFtDSDJdMSlbQ0gyXU9DMTJbQ0gyXVtDSDJdTihbQ0gyXVtDSDJdMilbQ0BASF0zW0NIMl1bQ0gyXU9bQ0gyXTM=

>  <s_epik_cmdline>  (30) 
J2VwaWtfcHl0aG9uJywgJy1waHQnLCAnMi4wJywgJy1waCcsICc3LjAnLCAnLXRuJywgJzgnLCAnLW1hJywgJzIwMCcsICctaW1hZScsICc8aW5maWxlLm1hZT4nLCAnLW9tYWUnLCAnPG91dGZpbGUubWFlPic=

>  <r_lp_tautomer_probability>  (30) 
1

>  <r_epik_Ionization_Penalty>  (30) 
1.47378

>  <r_epik_Ionization_Penalty_Charging>  (30) 
0

>  <r_epik_Ionization_Penalty_Neutral>  (30) 
1.47378

>  <r_epik_State_Penalty>  (30) 
1.56183

>  <r_epik_Charging_Adjusted_Penalty>  (30) 
1.56183

>  <i_epik_Tot_Q>  (30) 
0

>  <i_epik_Tot_abs_Q>  (30) 
0

>  <s_lp_Force_Field>  (30) 
OPLS3e

>  <r_lp_Energy>  (30) 
9.76616

>  <b_lp_Chiralities_Consistent>  (30) 
1

>  <s_lp_Variant>  (30) 
7:0-2

>  <s_i_glide_gridfile>  (30) 
pfpi4k_grid

>  <i_i_glide_lignum>  (30) 
11

>  <i_i_glide_rotatable_bonds>  (30) 
1

>  <r_i_docking_score>  (30) 
-2.75619

>  <r_i_glide_ligand_efficiency>  (30) 
-0.172262

>  <r_i_glide_ligand_efficiency_sa>  (30) 
-0.434073

>  <r_i_glide_ligand_efficiency_ln>  (30) 
-0.730584

>  <r_i_glide_gscore>  (30) 
-2.75619

>  <r_i_glide_lipo>  (30) 
0

>  <r_i_glide_hbond>  (30) 
-0.16

>  <r_i_glide_metal>  (30) 
-0

>  <r_i_glide_rewards>  (30) 
-1.87306

>  <r_i_glide_evdw>  (30) 
-15.0231

>  <r_i_glide_ecoul>  (30) 
-1.79358

>  <r_i_glide_erotb>  (30) 
0.334328

>  <r_i_glide_esite>  (30) 
-0.0372627

>  <r_i_glide_emodel>  (30) 
-17.704

>  <r_i_glide_energy>  (30) 
-16.8167

>  <r_i_glide_einternal>  (30) 
6.54681

>  <r_i_glide_intrahb_reward>  (30) 
-0

>  <i_i_glide_confnum>  (30) 
5

>  <i_i_glide_posenum>  (30) 
3

>  <r_i_glide_eff_state_penalty>  (30) 
0

>  <ligand_id>  (30) 
7

>  <original_smiles>  (30) 
O=C1COC2(CCN(C3CCOC3)CC2)C1

>  <smiles>  (30) 
[H]C1([H])OC2(C([H])([H])C1=O)C([H])([H])C([H])([H])N(C1([H])C([H])([H])OC([H])([H])C1([H])[H])C([H])([H])C2([H])[H]

$$$$
8:0:0
     RDKit          3D

 35 38  0  0  1  0  0  0  0  0999 V2000
    1.5513   -3.0726   -1.9128 N   0  0  0  0  0  0  0  0  0  0  0  0
    2.9238   -3.4994   -1.6907 C   0  0  2  0  0  0  0  0  0  0  0  0
    3.5266   -3.1044   -0.3546 C   0  0  1  0  0  0  0  0  0  0  0  0
    4.9228   -3.7676   -0.2356 C   0  0  0  0  0  0  0  0  0  0  0  0
    5.8262   -3.2773   -1.3694 C   0  0  2  0  0  0  0  0  0  0  0  0
    5.9441   -1.7612   -1.3031 C   0  0  0  0  0  0  0  0  0  0  0  0
    4.5566   -1.0975   -1.4499 C   0  0  2  0  0  0  0  0  0  0  0  0
    3.6526   -1.5947   -0.2829 C   0  0  0  0  0  0  0  0  0  0  0  0
    3.9012   -1.5012   -2.8173 C   0  0  0  0  0  0  0  0  0  0  0  0
    2.6705   -0.8993   -2.9297 O   0  0  0  0  0  0  0  0  0  0  0  0
    2.6158   -0.3324   -4.2181 C   0  0  0  0  0  0  0  0  0  0  0  0
    4.0052    0.0492   -4.4566 C   0  0  0  0  0  0  0  0  0  0  0  0
    4.6173   -1.0734   -3.9000 O   0  0  0  0  0  0  0  0  0  0  0  0
    3.8032   -3.0416   -2.8799 C   0  0  1  0  0  0  0  0  0  0  0  0
    5.2261   -3.6408   -2.7404 C   0  0  0  0  0  0  0  0  0  0  0  0
    1.5055   -2.0534   -1.8742 H   0  0  0  0  0  0  0  0  0  0  0  0
    0.9817   -3.4088   -1.1678 H   0  0  0  0  0  0  0  0  0  0  0  0
    2.8223   -4.5779   -1.4834 H   0  0  0  0  0  0  0  0  0  0  0  0
    2.8890   -3.4872    0.4362 H   0  0  0  0  0  0  0  0  0  0  0  0
    5.3689   -3.5121    0.7336 H   0  0  0  0  0  0  0  0  0  0  0  0
    4.8603   -4.8660   -0.2472 H   0  0  0  0  0  0  0  0  0  0  0  0
    6.8158   -3.7171   -1.2787 H   0  0  0  0  0  0  0  0  0  0  0  0
    6.3972   -1.4552   -0.3587 H   0  0  0  0  0  0  0  0  0  0  0  0
    6.6061   -1.4441   -2.0971 H   0  0  0  0  0  0  0  0  0  0  0  0
    4.6313   -0.0063   -1.4074 H   0  0  0  0  0  0  0  0  0  0  0  0
    2.6663   -1.1403   -0.3415 H   0  0  0  0  0  0  0  0  0  0  0  0
    4.0585   -1.2991    0.6868 H   0  0  0  0  0  0  0  0  0  0  0  0
    2.3261   -1.0971   -4.9191 H   0  0  0  0  0  0  0  0  0  0  0  0
    1.9083    0.4964   -4.3144 H   0  0  0  0  0  0  0  0  0  0  0  0
    4.1842    0.1529   -5.5203 H   0  0  0  0  0  0  0  0  0  0  0  0
    4.2586    0.9629   -3.9237 H   0  0  0  0  0  0  0  0  0  0  0  0
    3.3877   -3.3338   -3.8467 H   0  0  0  0  0  0  0  0  0  0  0  0
    5.8936   -3.2907   -3.5444 H   0  0  0  0  0  0  0  0  0  0  0  0
    5.1802   -4.7290   -2.8649 H   0  0  0  0  0  0  0  0  0  0  0  0
    1.1754   -3.3860   -2.8046 H   0  0  0  0  0  0  0  0  0  0  0  0
  1  2  1  0
  1 16  1  0
  1 17  1  0
  1 35  1  0
  2 14  1  0
  2  3  1  0
  2 18  1  1
  3  8  1  0
  3  4  1  0
  3 19  1  1
  4  5  1  0
  4 20  1  0
  4 21  1  0
  5 15  1  0
  5  6  1  0
  5 22  1  1
  6  7  1  0
  6 23  1  0
  6 24  1  0
  7  8  1  0
  7  9  1  0
  7 25  1  6
  8 26  1  0
  8 27  1  0
  9 13  1  0
  9 10  1  0
  9 14  1  0
 10 11  1  0
 11 12  1  0
 11 28  1  0
 11 29  1  0
 12 13  1  0
 12 30  1  0
 12 31  1  0
 14 15  1  0
 14 32  1  6
 15 33  1  0
 15 34  1  0
M  CHG  1   1   1
M  END
>  <i_m_ct_stereo_status>  (31) 
1

>  <s_m_source_file>  (31) 
/var/tmp/pbs.5076255.sched01/tmp7v4tqmxt/0pyfftbwv.sdf

>  <i_m_source_file_index>  (31) 
12

>  <i_lp_mmshare_version>  (31) 
48012

>  <i_f3d_flags>  (31) 
0

>  <s_epik_input>  (31) 
W0NIMl0xW0NASF0yW0NASF0oW05IMl0pW0NASF0oW0NIMl0zKVtDSDJdW0NAQEhdMVtDSDJdW0NASF0zQzI0T1tDSDJdW0NIMl1PNA==

>  <s_epik_cmdline>  (31) 
J2VwaWtfcHl0aG9uJywgJy1waHQnLCAnMi4wJywgJy1waCcsICc3LjAnLCAnLXRuJywgJzgnLCAnLW1hJywgJzIwMCcsICctaW1hZScsICc8aW5maWxlLm1hZT4nLCAnLW9tYWUnLCAnPG91dGZpbGUubWFlPic=

>  <r_epik_Ionization_Penalty>  (31) 
0.00131066

>  <r_epik_Ionization_Penalty_Charging>  (31) 
0.00131066

>  <r_epik_Ionization_Penalty_Neutral>  (31) 
9.36695e-14

>  <r_epik_State_Penalty>  (31) 
0.000870111

>  <r_epik_Charging_Adjusted_Penalty>  (31) 
0.00218078

>  <i_epik_Tot_Q>  (31) 
1

>  <i_epik_Tot_abs_Q>  (31) 
1

>  <s_lp_Force_Field>  (31) 
OPLS3e

>  <r_lp_Energy>  (31) 
7.34785

>  <b_lp_Chiralities_Consistent>  (31) 
1

>  <s_lp_Variant>  (31) 
8:0-1

>  <s_i_glide_gridfile>  (31) 
pfpi4k_grid

>  <i_i_glide_lignum>  (31) 
12

>  <i_i_glide_rotatable_bonds>  (31) 
0

>  <r_i_docking_score>  (31) 
-4.82753

>  <r_i_glide_ligand_efficiency>  (31) 
-0.321836

>  <r_i_glide_ligand_efficiency_sa>  (31) 
-0.793715

>  <r_i_glide_ligand_efficiency_ln>  (31) 
-1.30191

>  <r_i_glide_gscore>  (31) 
-4.82753

>  <r_i_glide_lipo>  (31) 
-0.78368

>  <r_i_glide_hbond>  (31) 
-0.127603

>  <r_i_glide_metal>  (31) 
-0

>  <r_i_glide_rewards>  (31) 
-2.47528

>  <r_i_glide_evdw>  (31) 
-6.23657

>  <r_i_glide_ecoul>  (31) 
-7.26376

>  <r_i_glide_erotb>  (31) 
0

>  <r_i_glide_esite>  (31) 
-0.0395802

>  <r_i_glide_emodel>  (31) 
-24.9738

>  <r_i_glide_energy>  (31) 
-13.5003

>  <r_i_glide_einternal>  (31) 
0

>  <r_i_glide_intrahb_reward>  (31) 
-0.5

>  <i_i_glide_confnum>  (31) 
5

>  <i_i_glide_posenum>  (31) 
24

>  <r_i_glide_eff_state_penalty>  (31) 
0

>  <ligand_id>  (31) 
8

>  <original_smiles>  (31) 
NC1C2CC3CC(C2)C2(OCCO2)C1C3

>  <smiles>  (31) 
[H]C1([H])OC2(OC1([H])[H])C1([H])C([H])([H])C3([H])C([H])([H])C([H])(C1([H])[H])C([H])([N+]([H])([H])[H])C2([H])C3([H])[H]

$$$$
8:0:1
     RDKit          3D

 35 38  0  0  1  0  0  0  0  0999 V2000
    3.3209   -4.6909   -0.3221 N   0  0  0  0  0  0  0  0  0  0  0  0
    4.5352   -4.0878    0.2523 C   0  0  2  0  0  0  0  0  0  0  0  0
    4.2103   -3.2729    1.5296 C   0  0  1  0  0  0  0  0  0  0  0  0
    5.5124   -2.7365    2.1522 C   0  0  0  0  0  0  0  0  0  0  0  0
    6.2332   -1.8317    1.1347 C   0  0  2  0  0  0  0  0  0  0  0  0
    5.3339   -0.6395    0.7701 C   0  0  0  0  0  0  0  0  0  0  0  0
    4.0180   -1.1563    0.1580 C   0  0  2  0  0  0  0  0  0  0  0  0
    3.2949   -2.0795    1.1682 C   0  0  0  0  0  0  0  0  0  0  0  0
    4.3445   -1.9620   -1.1302 C   0  0  0  0  0  0  0  0  0  0  0  0
    3.1561   -2.4201   -1.6970 O   0  0  0  0  0  0  0  0  0  0  0  0
    3.2448   -2.1845   -3.0794 C   0  0  0  0  0  0  0  0  0  0  0  0
    4.0697   -0.9100   -3.0972 C   0  0  0  0  0  0  0  0  0  0  0  0
    4.9960   -1.1508   -2.0603 O   0  0  0  0  0  0  0  0  0  0  0  0
    5.2632   -3.1726   -0.7708 C   0  0  1  0  0  0  0  0  0  0  0  0
    6.5673   -2.6216   -0.1464 C   0  0  0  0  0  0  0  0  0  0  0  0
    2.7266   -3.9182   -0.6165 H   0  0  0  0  0  0  0  0  0  0  0  0
    2.8454   -5.2575    0.3561 H   0  0  0  0  0  0  0  0  0  0  0  0
    5.1955   -4.9154    0.5279 H   0  0  0  0  0  0  0  0  0  0  0  0
    3.7139   -3.9088    2.2651 H   0  0  0  0  0  0  0  0  0  0  0  0
    5.2973   -2.1730    3.0612 H   0  0  0  0  0  0  0  0  0  0  0  0
    6.1609   -3.5594    2.4535 H   0  0  0  0  0  0  0  0  0  0  0  0
    7.1507   -1.4433    1.5760 H   0  0  0  0  0  0  0  0  0  0  0  0
    5.1226   -0.0467    1.6606 H   0  0  0  0  0  0  0  0  0  0  0  0
    5.8523    0.0298    0.0816 H   0  0  0  0  0  0  0  0  0  0  0  0
    3.3737   -0.3207   -0.0965 H   0  0  0  0  0  0  0  0  0  0  0  0
    2.3375   -2.4161    0.7648 H   0  0  0  0  0  0  0  0  0  0  0  0
    3.0426   -1.5166    2.0688 H   0  0  0  0  0  0  0  0  0  0  0  0
    3.7699   -3.0104   -3.5622 H   0  0  0  0  0  0  0  0  0  0  0  0
    2.2615   -2.0741   -3.5359 H   0  0  0  0  0  0  0  0  0  0  0  0
    4.5567   -0.7259   -4.0557 H   0  0  0  0  0  0  0  0  0  0  0  0
    3.4519   -0.0491   -2.8429 H   0  0  0  0  0  0  0  0  0  0  0  0
    5.4905   -3.7240   -1.6835 H   0  0  0  0  0  0  0  0  0  0  0  0
    7.0905   -1.9806   -0.8565 H   0  0  0  0  0  0  0  0  0  0  0  0
    7.2553   -3.4348    0.0865 H   0  0  0  0  0  0  0  0  0  0  0  0
    3.5166   -5.2514   -1.1545 H   0  0  0  0  0  0  0  0  0  0  0  0
  1  2  1  0
  1 16  1  0
  1 17  1  0
  1 35  1  0
  2 14  1  0
  2  3  1  0
  2 18  1  1
  3  8  1  0
  3  4  1  0
  3 19  1  1
  4  5  1  0
  4 20  1  0
  4 21  1  0
  5 15  1  0
  5  6  1  0
  5 22  1  1
  6  7  1  0
  6 23  1  0
  6 24  1  0
  7  8  1  0
  7  9  1  0
  7 25  1  6
  8 26  1  0
  8 27  1  0
  9 13  1  0
  9 10  1  0
  9 14  1  0
 10 11  1  0
 11 12  1  0
 11 28  1  0
 11 29  1  0
 12 13  1  0
 12 30  1  0
 12 31  1  0
 14 15  1  0
 14 32  1  6
 15 33  1  0
 15 34  1  0
M  CHG  1   1   1
M  END
>  <i_m_ct_stereo_status>  (32) 
1

>  <s_m_source_file>  (32) 
/var/tmp/pbs.5076255.sched01/tmp7v4tqmxt/0pyfftbwv.sdf

>  <i_m_source_file_index>  (32) 
12

>  <i_lp_mmshare_version>  (32) 
48012

>  <i_f3d_flags>  (32) 
0

>  <s_epik_input>  (32) 
W0NIMl0xW0NASF0yW0NASF0oW05IMl0pW0NASF0oW0NIMl0zKVtDSDJdW0NAQEhdMVtDSDJdW0NASF0zQzI0T1tDSDJdW0NIMl1PNA==

>  <s_epik_cmdline>  (32) 
J2VwaWtfcHl0aG9uJywgJy1waHQnLCAnMi4wJywgJy1waCcsICc3LjAnLCAnLXRuJywgJzgnLCAnLW1hJywgJzIwMCcsICctaW1hZScsICc8aW5maWxlLm1hZT4nLCAnLW9tYWUnLCAnPG91dGZpbGUubWFlPic=

>  <r_epik_Ionization_Penalty>  (32) 
0.00131066

>  <r_epik_Ionization_Penalty_Charging>  (32) 
0.00131066

>  <r_epik_Ionization_Penalty_Neutral>  (32) 
9.36695e-14

>  <r_epik_State_Penalty>  (32) 
0.000870111

>  <r_epik_Charging_Adjusted_Penalty>  (32) 
0.00218078

>  <i_epik_Tot_Q>  (32) 
1

>  <i_epik_Tot_abs_Q>  (32) 
1

>  <s_lp_Force_Field>  (32) 
OPLS3e

>  <r_lp_Energy>  (32) 
7.34785

>  <b_lp_Chiralities_Consistent>  (32) 
1

>  <s_lp_Variant>  (32) 
8:0-1

>  <s_i_glide_gridfile>  (32) 
pfpi4k_grid

>  <i_i_glide_lignum>  (32) 
12

>  <i_i_glide_rotatable_bonds>  (32) 
0

>  <r_i_docking_score>  (32) 
-4.8106

>  <r_i_glide_ligand_efficiency>  (32) 
-0.320707

>  <r_i_glide_ligand_efficiency_sa>  (32) 
-0.790931

>  <r_i_glide_ligand_efficiency_ln>  (32) 
-1.29734

>  <r_i_glide_gscore>  (32) 
-4.8106

>  <r_i_glide_lipo>  (32) 
-0.588053

>  <r_i_glide_hbond>  (32) 
0

>  <r_i_glide_metal>  (32) 
-0

>  <r_i_glide_rewards>  (32) 
-2.47528

>  <r_i_glide_evdw>  (32) 
-20.2001

>  <r_i_glide_ecoul>  (32) 
-4.43236

>  <r_i_glide_erotb>  (32) 
0

>  <r_i_glide_esite>  (32) 
-0.0724139

>  <r_i_glide_emodel>  (32) 
-36.9325

>  <r_i_glide_energy>  (32) 
-24.6325

>  <r_i_glide_einternal>  (32) 
0

>  <r_i_glide_intrahb_reward>  (32) 
-0.5

>  <i_i_glide_confnum>  (32) 
5

>  <i_i_glide_posenum>  (32) 
30

>  <r_i_glide_eff_state_penalty>  (32) 
0

>  <ligand_id>  (32) 
8

>  <original_smiles>  (32) 
NC1C2CC3CC(C2)C2(OCCO2)C1C3

>  <smiles>  (32) 
[H]C1([H])OC2(OC1([H])[H])C1([H])C([H])([H])C3([H])C([H])([H])C([H])(C1([H])[H])C([H])([N+]([H])([H])[H])C2([H])C3([H])[H]

$$$$
8:0:2
     RDKit          3D

 35 38  0  0  1  0  0  0  0  0999 V2000
    1.8195   -3.5417   -1.1649 N   0  0  0  0  0  0  0  0  0  0  0  0
    3.1926   -3.8177   -0.7735 C   0  0  2  0  0  0  0  0  0  0  0  0
    3.6043   -3.1309    0.5550 C   0  0  1  0  0  0  0  0  0  0  0  0
    5.0237   -3.5793    0.9435 C   0  0  0  0  0  0  0  0  0  0  0  0
    5.9997   -3.1741   -0.1644 C   0  0  2  0  0  0  0  0  0  0  0  0
    5.9782   -1.6559   -0.3746 C   0  0  0  0  0  0  0  0  0  0  0  0
    4.5600   -1.1867   -0.7489 C   0  0  2  0  0  0  0  0  0  0  0  0
    3.5927   -1.5966    0.3800 C   0  0  0  0  0  0  0  0  0  0  0  0
    4.1186   -1.8779   -2.0790 C   0  0  0  0  0  0  0  0  0  0  0  0
    2.8581   -1.4282   -2.4587 O   0  0  0  0  0  0  0  0  0  0  0  0
    2.8702   -1.2042   -3.8444 C   0  0  0  0  0  0  0  0  0  0  0  0
    4.2262   -0.7020   -3.9812 C   0  0  0  0  0  0  0  0  0  0  0  0
    4.9335   -1.5471   -3.1245 O   0  0  0  0  0  0  0  0  0  0  0  0
    4.1606   -3.4247   -1.9119 C   0  0  1  0  0  0  0  0  0  0  0  0
    5.5908   -3.8259   -1.4959 C   0  0  0  0  0  0  0  0  0  0  0  0
    1.7294   -2.5196   -1.3098 H   0  0  0  0  0  0  0  0  0  0  0  0
    1.2291   -3.8428   -0.4227 H   0  0  0  0  0  0  0  0  0  0  0  0
    3.2532   -4.9031   -0.6305 H   0  0  0  0  0  0  0  0  0  0  0  0
    2.9210   -3.4335    1.3472 H   0  0  0  0  0  0  0  0  0  0  0  0
    5.3220   -3.1061    1.8839 H   0  0  0  0  0  0  0  0  0  0  0  0
    5.0643   -4.6577    1.1148 H   0  0  0  0  0  0  0  0  0  0  0  0
    7.0137   -3.4869    0.1016 H   0  0  0  0  0  0  0  0  0  0  0  0
    6.3093   -1.1438    0.5364 H   0  0  0  0  0  0  0  0  0  0  0  0
    6.6721   -1.4161   -1.1686 H   0  0  0  0  0  0  0  0  0  0  0  0
    4.5422   -0.1163   -0.9049 H   0  0  0  0  0  0  0  0  0  0  0  0
    2.6167   -1.2302    0.1472 H   0  0  0  0  0  0  0  0  0  0  0  0
    3.8671   -1.1079    1.3133 H   0  0  0  0  0  0  0  0  0  0  0  0
    2.7281   -2.1351   -4.3974 H   0  0  0  0  0  0  0  0  0  0  0  0
    2.2107   -0.4298   -4.2119 H   0  0  0  0  0  0  0  0  0  0  0  0
    4.5930   -0.7166   -4.9939 H   0  0  0  0  0  0  0  0  0  0  0  0
    4.2933    0.3068   -3.5786 H   0  0  0  0  0  0  0  0  0  0  0  0
    3.8960   -3.8750   -2.8660 H   0  0  0  0  0  0  0  0  0  0  0  0
    6.3101   -3.5786   -2.2838 H   0  0  0  0  0  0  0  0  0  0  0  0
    5.6061   -4.9010   -1.3544 H   0  0  0  0  0  0  0  0  0  0  0  0
    1.5847   -4.0132   -2.0339 H   0  0  0  0  0  0  0  0  0  0  0  0
  1  2  1  0
  1 16  1  0
  1 17  1  0
  1 35  1  0
  2 14  1  0
  2  3  1  0
  2 18  1  1
  3  8  1  0
  3  4  1  0
  3 19  1  1
  4  5  1  0
  4 20  1  0
  4 21  1  0
  5 15  1  0
  5  6  1  0
  5 22  1  1
  6  7  1  0
  6 23  1  0
  6 24  1  0
  7  8  1  0
  7  9  1  0
  7 25  1  6
  8 26  1  0
  8 27  1  0
  9 13  1  0
  9 10  1  0
  9 14  1  0
 10 11  1  0
 11 12  1  0
 11 28  1  0
 11 29  1  0
 12 13  1  0
 12 30  1  0
 12 31  1  0
 14 15  1  0
 14 32  1  6
 15 33  1  0
 15 34  1  0
M  CHG  1   1   1
M  END
>  <i_m_ct_stereo_status>  (33) 
1

>  <s_m_source_file>  (33) 
/var/tmp/pbs.5076255.sched01/tmp7v4tqmxt/0pyfftbwv.sdf

>  <i_m_source_file_index>  (33) 
12

>  <i_lp_mmshare_version>  (33) 
48012

>  <i_f3d_flags>  (33) 
0

>  <s_epik_input>  (33) 
W0NIMl0xW0NASF0yW0NASF0oW05IMl0pW0NASF0oW0NIMl0zKVtDSDJdW0NAQEhdMVtDSDJdW0NASF0zQzI0T1tDSDJdW0NIMl1PNA==

>  <s_epik_cmdline>  (33) 
J2VwaWtfcHl0aG9uJywgJy1waHQnLCAnMi4wJywgJy1waCcsICc3LjAnLCAnLXRuJywgJzgnLCAnLW1hJywgJzIwMCcsICctaW1hZScsICc8aW5maWxlLm1hZT4nLCAnLW9tYWUnLCAnPG91dGZpbGUubWFlPic=

>  <r_epik_Ionization_Penalty>  (33) 
0.00131066

>  <r_epik_Ionization_Penalty_Charging>  (33) 
0.00131066

>  <r_epik_Ionization_Penalty_Neutral>  (33) 
9.36695e-14

>  <r_epik_State_Penalty>  (33) 
0.000870111

>  <r_epik_Charging_Adjusted_Penalty>  (33) 
0.00218078

>  <i_epik_Tot_Q>  (33) 
1

>  <i_epik_Tot_abs_Q>  (33) 
1

>  <s_lp_Force_Field>  (33) 
OPLS3e

>  <r_lp_Energy>  (33) 
7.34785

>  <b_lp_Chiralities_Consistent>  (33) 
1

>  <s_lp_Variant>  (33) 
8:0-1

>  <s_i_glide_gridfile>  (33) 
pfpi4k_grid

>  <i_i_glide_lignum>  (33) 
12

>  <i_i_glide_rotatable_bonds>  (33) 
0

>  <r_i_docking_score>  (33) 
-4.556

>  <r_i_glide_ligand_efficiency>  (33) 
-0.303733

>  <r_i_glide_ligand_efficiency_sa>  (33) 
-0.749071

>  <r_i_glide_ligand_efficiency_ln>  (33) 
-1.22868

>  <r_i_glide_gscore>  (33) 
-4.556

>  <r_i_glide_lipo>  (33) 
-0.439703

>  <r_i_glide_hbond>  (33) 
-0.171742

>  <r_i_glide_metal>  (33) 
-0

>  <r_i_glide_rewards>  (33) 
-2.47528

>  <r_i_glide_evdw>  (33) 
-14.3633

>  <r_i_glide_ecoul>  (33) 
-4.68044

>  <r_i_glide_erotb>  (33) 
0

>  <r_i_glide_esite>  (33) 
-0.0490469

>  <r_i_glide_emodel>  (33) 
-30.5049

>  <r_i_glide_energy>  (33) 
-19.0437

>  <r_i_glide_einternal>  (33) 
0

>  <r_i_glide_intrahb_reward>  (33) 
-0.5

>  <i_i_glide_confnum>  (33) 
5

>  <i_i_glide_posenum>  (33) 
26

>  <r_i_glide_eff_state_penalty>  (33) 
0

>  <ligand_id>  (33) 
8

>  <original_smiles>  (33) 
NC1C2CC3CC(C2)C2(OCCO2)C1C3

>  <smiles>  (33) 
[H]C1([H])OC2(OC1([H])[H])C1([H])C([H])([H])C3([H])C([H])([H])C([H])(C1([H])[H])C([H])([N+]([H])([H])[H])C2([H])C3([H])[H]

$$$$
9:0:0
     RDKit          3D

 32 35  0  0  1  0  0  0  0  0999 V2000
    3.7545    0.4953   -4.5546 C   0  0  0  0  0  0  0  0  0  0  0  0
    3.7419   -0.6554   -3.5676 C   0  0  0  0  0  0  0  0  0  0  0  0
    4.6146   -0.6566   -2.4660 C   0  0  0  0  0  0  0  0  0  0  0  0
    4.5835   -1.6918   -1.5253 C   0  0  0  0  0  0  0  0  0  0  0  0
    3.6720   -2.7569   -1.6749 C   0  0  0  0  0  0  0  0  0  0  0  0
    3.6596   -3.8571   -0.6932 C   0  0  0  0  0  0  0  0  0  0  0  0
    2.5526   -4.3395   -0.2153 N   0  0  0  0  0  0  0  0  0  0  0  0
    2.5416   -5.3830    0.6908 C   0  0  0  0  0  0  0  0  0  0  0  0
    1.5587   -6.2434    1.0021 N   0  0  0  0  0  0  0  0  0  0  0  0
    2.0800   -7.0978    1.9666 N   0  0  0  0  0  0  0  0  0  0  0  0
    3.3269   -6.6710    2.1726 C   0  0  0  0  0  0  0  0  0  0  0  0
    3.6684   -5.6305    1.4072 N   0  0  0  0  0  0  0  0  0  0  0  0
    4.8094   -4.7938    1.2636 C   0  0  1  0  0  0  0  0  0  0  0  0
    6.3179   -5.0571    1.2243 C   0  0  0  0  0  0  0  0  0  0  0  0
    6.3264   -4.0198    0.0659 C   0  0  0  0  0  0  0  0  0  0  0  0
    4.9342   -4.5791   -0.2331 C   0  0  2  0  0  0  0  0  0  0  0  0
    2.7876   -2.7649   -2.7798 C   0  0  0  0  0  0  0  0  0  0  0  0
    2.8342   -1.7207   -3.7239 C   0  0  0  0  0  0  0  0  0  0  0  0
    4.3271    1.3414   -4.1683 H   0  0  0  0  0  0  0  0  0  0  0  0
    2.7404    0.8491   -4.7505 H   0  0  0  0  0  0  0  0  0  0  0  0
    4.2029    0.1772   -5.4931 H   0  0  0  0  0  0  0  0  0  0  0  0
    5.3162    0.1429   -2.3210 H   0  0  0  0  0  0  0  0  0  0  0  0
    5.2483   -1.6348   -0.6820 H   0  0  0  0  0  0  0  0  0  0  0  0
    4.0123   -7.1304    2.8664 H   0  0  0  0  0  0  0  0  0  0  0  0
    4.5893   -3.8680    1.8036 H   0  0  0  0  0  0  0  0  0  0  0  0
    6.8533   -4.7155    2.1072 H   0  0  0  0  0  0  0  0  0  0  0  0
    6.5742   -6.0761    0.9243 H   0  0  0  0  0  0  0  0  0  0  0  0
    6.3653   -2.9959    0.4442 H   0  0  0  0  0  0  0  0  0  0  0  0
    7.0587   -4.2171   -0.7171 H   0  0  0  0  0  0  0  0  0  0  0  0
    5.0081   -5.5286   -0.7715 H   0  0  0  0  0  0  0  0  0  0  0  0
    2.0679   -3.5626   -2.9107 H   0  0  0  0  0  0  0  0  0  0  0  0
    2.1489   -1.6991   -4.5534 H   0  0  0  0  0  0  0  0  0  0  0  0
  1  2  1  0
  1 19  1  0
  1 20  1  0
  1 21  1  0
  2 18  2  0
  2  3  1  0
  3  4  2  0
  3 22  1  0
  4  5  1  0
  4 23  1  0
  5  6  1  0
  5 17  2  0
  6 16  1  0
  6  7  2  0
  7  8  1  0
  8 12  1  0
  8  9  2  0
  9 10  1  0
 10 11  2  0
 11 12  1  0
 11 24  1  0
 12 13  1  0
 13 16  1  0
 13 14  1  0
 13 25  1  1
 14 15  1  0
 14 26  1  0
 14 27  1  0
 15 16  1  0
 15 28  1  0
 15 29  1  0
 16 30  1  6
 17 18  1  0
 17 31  1  0
 18 32  1  0
M  END
>  <i_m_ct_stereo_status>  (34) 
1

>  <s_m_source_file>  (34) 
/var/tmp/pbs.5076255.sched01/tmp7v4tqmxt/0pyfftbwv.sdf

>  <i_m_source_file_index>  (34) 
13

>  <i_lp_mmshare_version>  (34) 
48012

>  <i_f3d_flags>  (34) 
0

>  <s_epik_input>  (34) 
W0NIM11jMVtjSF1bY0hdYyhbY0hdW2NIXTEpQyg9TjIpW0NAQEhdKFtDSDJdW0NIMl0zKVtDQEhdM24oYzI0KVtjSF1ubjQ=

>  <s_epik_cmdline>  (34) 
J2VwaWtfcHl0aG9uJywgJy1waHQnLCAnMi4wJywgJy1waCcsICc3LjAnLCAnLXRuJywgJzgnLCAnLW1hJywgJzIwMCcsICctaW1hZScsICc8aW5maWxlLm1hZT4nLCAnLW9tYWUnLCAnPG91dGZpbGUubWFlPic=

>  <r_lp_tautomer_probability>  (34) 
0.999601

>  <r_epik_Ionization_Penalty>  (34) 
0.0235743

>  <r_epik_Ionization_Penalty_Charging>  (34) 
0

>  <r_epik_Ionization_Penalty_Neutral>  (34) 
0.0235743

>  <r_epik_State_Penalty>  (34) 
0.0182516

>  <r_epik_Charging_Adjusted_Penalty>  (34) 
0.0182516

>  <i_epik_Tot_Q>  (34) 
0

>  <i_epik_Tot_abs_Q>  (34) 
0

>  <s_epik_Chemistry_Notes>  (34) 
This compound has an imine and may undergo hydrolysis.

>  <s_lp_Force_Field>  (34) 
OPLS3e

>  <r_lp_Energy>  (34) 
56.8573

>  <b_lp_Chiralities_Consistent>  (34) 
1

>  <s_lp_Variant>  (34) 
9:0-1

>  <s_i_glide_gridfile>  (34) 
pfpi4k_grid

>  <i_i_glide_lignum>  (34) 
13

>  <i_i_glide_rotatable_bonds>  (34) 
1

>  <r_i_docking_score>  (34) 
-3.9575

>  <r_i_glide_ligand_efficiency>  (34) 
-0.219861

>  <r_i_glide_ligand_efficiency_sa>  (34) 
-0.576199

>  <r_i_glide_ligand_efficiency_ln>  (34) 
-1.01726

>  <r_i_glide_gscore>  (34) 
-3.9575

>  <r_i_glide_lipo>  (34) 
-0.7577

>  <r_i_glide_hbond>  (34) 
0

>  <r_i_glide_metal>  (34) 
-0

>  <r_i_glide_rewards>  (34) 
-1.83888

>  <r_i_glide_evdw>  (34) 
-23.5715

>  <r_i_glide_ecoul>  (34) 
-2.34555

>  <r_i_glide_erotb>  (34) 
0.303933

>  <r_i_glide_esite>  (34) 
-0.134443

>  <r_i_glide_emodel>  (34) 
-31.4193

>  <r_i_glide_energy>  (34) 
-25.9171

>  <r_i_glide_einternal>  (34) 
1.49947

>  <r_i_glide_intrahb_reward>  (34) 
-0

>  <i_i_glide_confnum>  (34) 
1

>  <i_i_glide_posenum>  (34) 
31

>  <r_i_glide_eff_state_penalty>  (34) 
0

>  <ligand_id>  (34) 
9

>  <original_smiles>  (34) 
Cc1ccc(C2=Nc3nncn3C3CCC23)cc1

>  <smiles>  (34) 
[H]c1c([H])c(C([H])([H])[H])c([H])c([H])c1C1=Nc2nnc([H])n2C2([H])C([H])([H])C([H])([H])C12[H]

$$$$
9:0:1
     RDKit          3D

 32 35  0  0  1  0  0  0  0  0999 V2000
    3.4596   -0.1274   -5.0449 C   0  0  0  0  0  0  0  0  0  0  0  0
    3.8144   -1.0020   -3.8554 C   0  0  0  0  0  0  0  0  0  0  0  0
    3.7354   -2.4064   -3.9157 C   0  0  0  0  0  0  0  0  0  0  0  0
    4.1129   -3.1813   -2.8059 C   0  0  0  0  0  0  0  0  0  0  0  0
    4.5274   -2.5684   -1.6067 C   0  0  0  0  0  0  0  0  0  0  0  0
    4.8950   -3.4071   -0.4534 C   0  0  0  0  0  0  0  0  0  0  0  0
    4.0479   -3.7141    0.4804 N   0  0  0  0  0  0  0  0  0  0  0  0
    4.4170   -4.4797    1.5750 C   0  0  0  0  0  0  0  0  0  0  0  0
    3.6614   -5.2039    2.4180 N   0  0  0  0  0  0  0  0  0  0  0  0
    4.5390   -5.7958    3.3220 N   0  0  0  0  0  0  0  0  0  0  0  0
    5.7498   -5.3627    2.9636 C   0  0  0  0  0  0  0  0  0  0  0  0
    5.7362   -4.5598    1.8922 N   0  0  0  0  0  0  0  0  0  0  0  0
    6.6959   -3.8253    1.1525 C   0  0  1  0  0  0  0  0  0  0  0  0
    8.1143   -4.1224    0.6556 C   0  0  0  0  0  0  0  0  0  0  0  0
    7.6455   -3.4170   -0.6576 C   0  0  0  0  0  0  0  0  0  0  0  0
    6.2860   -4.0162   -0.2928 C   0  0  2  0  0  0  0  0  0  0  0  0
    4.5746   -1.1610   -1.5271 C   0  0  0  0  0  0  0  0  0  0  0  0
    4.2220   -0.3940   -2.6588 C   0  0  0  0  0  0  0  0  0  0  0  0
    3.4180   -0.6920   -5.9721 H   0  0  0  0  0  0  0  0  0  0  0  0
    4.2047    0.6565   -5.1794 H   0  0  0  0  0  0  0  0  0  0  0  0
    2.4892    0.3454   -4.8915 H   0  0  0  0  0  0  0  0  0  0  0  0
    3.3925   -2.8998   -4.8125 H   0  0  0  0  0  0  0  0  0  0  0  0
    4.0564   -4.2546   -2.8764 H   0  0  0  0  0  0  0  0  0  0  0  0
    6.6640   -5.6480    3.4696 H   0  0  0  0  0  0  0  0  0  0  0  0
    6.6182   -2.7834    1.4845 H   0  0  0  0  0  0  0  0  0  0  0  0
    8.8960   -3.5870    1.1937 H   0  0  0  0  0  0  0  0  0  0  0  0
    8.3172   -5.1926    0.5531 H   0  0  0  0  0  0  0  0  0  0  0  0
    7.6905   -2.3252   -0.6138 H   0  0  0  0  0  0  0  0  0  0  0  0
    8.0986   -3.8301   -1.5614 H   0  0  0  0  0  0  0  0  0  0  0  0
    6.2164   -5.0769   -0.5428 H   0  0  0  0  0  0  0  0  0  0  0  0
    4.8635   -0.6822   -0.6018 H   0  0  0  0  0  0  0  0  0  0  0  0
    4.2385    0.6809   -2.6174 H   0  0  0  0  0  0  0  0  0  0  0  0
  1  2  1  0
  1 19  1  0
  1 20  1  0
  1 21  1  0
  2 18  2  0
  2  3  1  0
  3  4  2  0
  3 22  1  0
  4  5  1  0
  4 23  1  0
  5  6  1  0
  5 17  2  0
  6 16  1  0
  6  7  2  0
  7  8  1  0
  8 12  1  0
  8  9  2  0
  9 10  1  0
 10 11  2  0
 11 12  1  0
 11 24  1  0
 12 13  1  0
 13 16  1  0
 13 14  1  0
 13 25  1  1
 14 15  1  0
 14 26  1  0
 14 27  1  0
 15 16  1  0
 15 28  1  0
 15 29  1  0
 16 30  1  1
 17 18  1  0
 17 31  1  0
 18 32  1  0
M  END
>  <i_m_ct_stereo_status>  (35) 
1

>  <s_m_source_file>  (35) 
/var/tmp/pbs.5076255.sched01/tmp7v4tqmxt/0pyfftbwv.sdf

>  <i_m_source_file_index>  (35) 
13

>  <i_lp_mmshare_version>  (35) 
48012

>  <i_f3d_flags>  (35) 
0

>  <s_epik_input>  (35) 
W0NIM11jMVtjSF1bY0hdYyhbY0hdW2NIXTEpQyg9TjIpW0NAQEhdKFtDSDJdW0NIMl0zKVtDQEhdM24oYzI0KVtjSF1ubjQ=

>  <s_epik_cmdline>  (35) 
J2VwaWtfcHl0aG9uJywgJy1waHQnLCAnMi4wJywgJy1waCcsICc3LjAnLCAnLXRuJywgJzgnLCAnLW1hJywgJzIwMCcsICctaW1hZScsICc8aW5maWxlLm1hZT4nLCAnLW9tYWUnLCAnPG91dGZpbGUubWFlPic=

>  <r_lp_tautomer_probability>  (35) 
0.999601

>  <r_epik_Ionization_Penalty>  (35) 
0.0235743

>  <r_epik_Ionization_Penalty_Charging>  (35) 
0

>  <r_epik_Ionization_Penalty_Neutral>  (35) 
0.0235743

>  <r_epik_State_Penalty>  (35) 
0.0182516

>  <r_epik_Charging_Adjusted_Penalty>  (35) 
0.0182516

>  <i_epik_Tot_Q>  (35) 
0

>  <i_epik_Tot_abs_Q>  (35) 
0

>  <s_epik_Chemistry_Notes>  (35) 
This compound has an imine and may undergo hydrolysis.

>  <s_lp_Force_Field>  (35) 
OPLS3e

>  <r_lp_Energy>  (35) 
56.8573

>  <b_lp_Chiralities_Consistent>  (35) 
1

>  <s_lp_Variant>  (35) 
9:0-1

>  <s_i_glide_gridfile>  (35) 
pfpi4k_grid

>  <i_i_glide_lignum>  (35) 
13

>  <i_i_glide_rotatable_bonds>  (35) 
1

>  <r_i_docking_score>  (35) 
-3.83945

>  <r_i_glide_ligand_efficiency>  (35) 
-0.213303

>  <r_i_glide_ligand_efficiency_sa>  (35) 
-0.559012

>  <r_i_glide_ligand_efficiency_ln>  (35) 
-0.986912

>  <r_i_glide_gscore>  (35) 
-3.83945

>  <r_i_glide_lipo>  (35) 
-1.05822

>  <r_i_glide_hbond>  (35) 
0

>  <r_i_glide_metal>  (35) 
-0

>  <r_i_glide_rewards>  (35) 
-1.94966

>  <r_i_glide_evdw>  (35) 
-23.191

>  <r_i_glide_ecoul>  (35) 
0.160334

>  <r_i_glide_erotb>  (35) 
0.303933

>  <r_i_glide_esite>  (35) 
0

>  <r_i_glide_emodel>  (35) 
-27.5217

>  <r_i_glide_energy>  (35) 
-23.0307

>  <r_i_glide_einternal>  (35) 
3.15728

>  <r_i_glide_intrahb_reward>  (35) 
-0

>  <i_i_glide_confnum>  (35) 
1

>  <i_i_glide_posenum>  (35) 
5

>  <r_i_glide_eff_state_penalty>  (35) 
0

>  <ligand_id>  (35) 
9

>  <original_smiles>  (35) 
Cc1ccc(C2=Nc3nncn3C3CCC23)cc1

>  <smiles>  (35) 
[H]c1c([H])c(C([H])([H])[H])c([H])c([H])c1C1=Nc2nnc([H])n2C2([H])C([H])([H])C([H])([H])C12[H]

$$$$
9:0:2
     RDKit          3D

 32 35  0  0  1  0  0  0  0  0999 V2000
    4.2232   -0.5746   -3.4224 C   0  0  0  0  0  0  0  0  0  0  0  0
    4.1979   -1.7261   -2.4428 C   0  0  0  0  0  0  0  0  0  0  0  0
    4.8471   -2.9423   -2.7359 C   0  0  0  0  0  0  0  0  0  0  0  0
    4.8152   -3.9894   -1.7974 C   0  0  0  0  0  0  0  0  0  0  0  0
    4.1194   -3.8499   -0.5744 C   0  0  0  0  0  0  0  0  0  0  0  0
    4.0555   -4.9959    0.3587 C   0  0  0  0  0  0  0  0  0  0  0  0
    2.9434   -5.4054    0.8841 N   0  0  0  0  0  0  0  0  0  0  0  0
    2.9083   -6.4511    1.7926 C   0  0  0  0  0  0  0  0  0  0  0  0
    1.9012   -7.2637    2.1358 N   0  0  0  0  0  0  0  0  0  0  0  0
    2.4217   -8.1477    3.0795 N   0  0  0  0  0  0  0  0  0  0  0  0
    3.6916   -7.7810    3.2435 C   0  0  0  0  0  0  0  0  0  0  0  0
    4.0468   -6.7515    2.4702 N   0  0  0  0  0  0  0  0  0  0  0  0
    5.2201   -5.9686    2.2810 C   0  0  1  0  0  0  0  0  0  0  0  0
    6.7127   -6.2833    2.1934 C   0  0  0  0  0  0  0  0  0  0  0  0
    6.7150   -5.2430    1.0297 C   0  0  0  0  0  0  0  0  0  0  0  0
    5.3076   -5.7757    0.7775 C   0  0  2  0  0  0  0  0  0  0  0  0
    3.4481   -2.6428   -0.2982 C   0  0  0  0  0  0  0  0  0  0  0  0
    3.5122   -1.5857   -1.2226 C   0  0  0  0  0  0  0  0  0  0  0  0
    4.9619   -0.7490   -4.2048 H   0  0  0  0  0  0  0  0  0  0  0  0
    4.4825    0.3533   -2.9099 H   0  0  0  0  0  0  0  0  0  0  0  0
    3.2587   -0.4413   -3.9114 H   0  0  0  0  0  0  0  0  0  0  0  0
    5.3598   -3.0850   -3.6822 H   0  0  0  0  0  0  0  0  0  0  0  0
    5.2610   -4.9453   -2.0451 H   0  0  0  0  0  0  0  0  0  0  0  0
    4.3805   -8.2737    3.9147 H   0  0  0  0  0  0  0  0  0  0  0  0
    5.0576   -5.0334    2.8276 H   0  0  0  0  0  0  0  0  0  0  0  0
    7.2899   -5.9759    3.0663 H   0  0  0  0  0  0  0  0  0  0  0  0
    6.9186   -7.3126    1.8844 H   0  0  0  0  0  0  0  0  0  0  0  0
    6.7654   -4.2005    1.3623 H   0  0  0  0  0  0  0  0  0  0  0  0
    7.4262   -5.4752    0.2356 H   0  0  0  0  0  0  0  0  0  0  0  0
    5.3339   -6.7275    0.2443 H   0  0  0  0  0  0  0  0  0  0  0  0
    2.8793   -2.5258    0.6139 H   0  0  0  0  0  0  0  0  0  0  0  0
    3.0145   -0.6669   -0.9939 H   0  0  0  0  0  0  0  0  0  0  0  0
  1  2  1  0
  1 19  1  0
  1 20  1  0
  1 21  1  0
  2 18  2  0
  2  3  1  0
  3  4  2  0
  3 22  1  0
  4  5  1  0
  4 23  1  0
  5  6  1  0
  5 17  2  0
  6 16  1  0
  6  7  2  0
  7  8  1  0
  8 12  1  0
  8  9  2  0
  9 10  1  0
 10 11  2  0
 11 12  1  0
 11 24  1  0
 12 13  1  0
 13 16  1  0
 13 14  1  0
 13 25  1  1
 14 15  1  0
 14 26  1  0
 14 27  1  0
 15 16  1  0
 15 28  1  0
 15 29  1  0
 16 30  1  6
 17 18  1  0
 17 31  1  0
 18 32  1  0
M  END
>  <i_m_ct_stereo_status>  (36) 
1

>  <s_m_source_file>  (36) 
/var/tmp/pbs.5076255.sched01/tmp7v4tqmxt/0pyfftbwv.sdf

>  <i_m_source_file_index>  (36) 
13

>  <i_lp_mmshare_version>  (36) 
48012

>  <i_f3d_flags>  (36) 
0

>  <s_epik_input>  (36) 
W0NIM11jMVtjSF1bY0hdYyhbY0hdW2NIXTEpQyg9TjIpW0NAQEhdKFtDSDJdW0NIMl0zKVtDQEhdM24oYzI0KVtjSF1ubjQ=

>  <s_epik_cmdline>  (36) 
J2VwaWtfcHl0aG9uJywgJy1waHQnLCAnMi4wJywgJy1waCcsICc3LjAnLCAnLXRuJywgJzgnLCAnLW1hJywgJzIwMCcsICctaW1hZScsICc8aW5maWxlLm1hZT4nLCAnLW9tYWUnLCAnPG91dGZpbGUubWFlPic=

>  <r_lp_tautomer_probability>  (36) 
0.999601

>  <r_epik_Ionization_Penalty>  (36) 
0.0235743

>  <r_epik_Ionization_Penalty_Charging>  (36) 
0

>  <r_epik_Ionization_Penalty_Neutral>  (36) 
0.0235743

>  <r_epik_State_Penalty>  (36) 
0.0182516

>  <r_epik_Charging_Adjusted_Penalty>  (36) 
0.0182516

>  <i_epik_Tot_Q>  (36) 
0

>  <i_epik_Tot_abs_Q>  (36) 
0

>  <s_epik_Chemistry_Notes>  (36) 
This compound has an imine and may undergo hydrolysis.

>  <s_lp_Force_Field>  (36) 
OPLS3e

>  <r_lp_Energy>  (36) 
56.8573

>  <b_lp_Chiralities_Consistent>  (36) 
1

>  <s_lp_Variant>  (36) 
9:0-1

>  <s_i_glide_gridfile>  (36) 
pfpi4k_grid

>  <i_i_glide_lignum>  (36) 
13

>  <i_i_glide_rotatable_bonds>  (36) 
1

>  <r_i_docking_score>  (36) 
-3.07479

>  <r_i_glide_ligand_efficiency>  (36) 
-0.170822

>  <r_i_glide_ligand_efficiency_sa>  (36) 
-0.44768

>  <r_i_glide_ligand_efficiency_ln>  (36) 
-0.790359

>  <r_i_glide_gscore>  (36) 
-3.07479

>  <r_i_glide_lipo>  (36) 
-0.590475

>  <r_i_glide_hbond>  (36) 
0

>  <r_i_glide_metal>  (36) 
-0

>  <r_i_glide_rewards>  (36) 
-1.84088

>  <r_i_glide_evdw>  (36) 
-18.6026

>  <r_i_glide_ecoul>  (36) 
0.0511127

>  <r_i_glide_erotb>  (36) 
0.303933

>  <r_i_glide_esite>  (36) 
-0.0249049

>  <r_i_glide_emodel>  (36) 
-22.6748

>  <r_i_glide_energy>  (36) 
-18.5515

>  <r_i_glide_einternal>  (36) 
1.42327

>  <r_i_glide_intrahb_reward>  (36) 
-0

>  <i_i_glide_confnum>  (36) 
5

>  <i_i_glide_posenum>  (36) 
37

>  <r_i_glide_eff_state_penalty>  (36) 
0

>  <ligand_id>  (36) 
9

>  <original_smiles>  (36) 
Cc1ccc(C2=Nc3nncn3C3CCC23)cc1

>  <smiles>  (36) 
[H]c1c([H])c(C([H])([H])[H])c([H])c([H])c1C1=Nc2nnc([H])n2C2([H])C([H])([H])C([H])([H])C12[H]

$$$$
9:1:0
     RDKit          3D

 33 36  0  0  1  0  0  0  0  0999 V2000
   -6.2202   -4.1706   -4.7612 C   0  0  0  0  0  0  0  0  0  0  0  0
   -6.4663   -5.5348   -5.3557 C   0  0  0  0  0  0  0  0  0  0  0  0
   -5.6345   -6.6334   -5.0407 C   0  0  0  0  0  0  0  0  0  0  0  0
   -5.8728   -7.9023   -5.6207 C   0  0  0  0  0  0  0  0  0  0  0  0
   -6.9531   -8.0758   -6.5248 C   0  0  0  0  0  0  0  0  0  0  0  0
   -7.2714   -9.4178   -7.1159 C   0  0  0  0  0  0  0  0  0  0  0  0
   -6.5944  -10.4817   -6.8232 N   0  0  0  0  0  0  0  0  0  0  0  0
   -6.8593  -11.6702   -7.4716 C   0  0  0  0  0  0  0  0  0  0  0  0
   -6.5189  -12.8960   -7.0970 N   0  0  0  0  0  0  0  0  0  0  0  0
   -6.9882  -13.7635   -7.9974 N   0  0  0  0  0  0  0  0  0  0  0  0
   -7.5892  -13.0589   -8.9385 C   0  0  0  0  0  0  0  0  0  0  0  0
   -7.5375  -11.7358   -8.6169 N   0  0  0  0  0  0  0  0  0  0  0  0
   -7.9423  -10.5264   -9.2186 C   0  0  1  0  0  0  0  0  0  0  0  0
   -9.1987  -10.0660   -9.9683 C   0  0  0  0  0  0  0  0  0  0  0  0
   -8.9982   -8.7392   -9.1874 C   0  0  0  0  0  0  0  0  0  0  0  0
   -8.4455   -9.6514   -8.0872 C   0  0  2  0  0  0  0  0  0  0  0  0
   -7.7731   -6.9615   -6.8209 C   0  0  0  0  0  0  0  0  0  0  0  0
   -7.5322   -5.7047   -6.2527 C   0  0  0  0  0  0  0  0  0  0  0  0
   -5.5434   -4.2153   -3.9261 H   0  0  0  0  0  0  0  0  0  0  0  0
   -7.1578   -3.7248   -4.4311 H   0  0  0  0  0  0  0  0  0  0  0  0
   -5.7733   -3.5283   -5.5134 H   0  0  0  0  0  0  0  0  0  0  0  0
   -4.8185   -6.5074   -4.3479 H   0  0  0  0  0  0  0  0  0  0  0  0
   -5.2374   -8.7354   -5.3374 H   0  0  0  0  0  0  0  0  0  0  0  0
   -8.0864  -13.4282   -9.8238 H   0  0  0  0  0  0  0  0  0  0  0  0
   -7.0549  -10.1082   -9.6935 H   0  0  0  0  0  0  0  0  0  0  0  0
   -9.0822   -9.9505  -11.0506 H   0  0  0  0  0  0  0  0  0  0  0  0
  -10.1073  -10.6124   -9.6853 H   0  0  0  0  0  0  0  0  0  0  0  0
   -8.2622   -8.0587   -9.6296 H   0  0  0  0  0  0  0  0  0  0  0  0
   -9.9337   -8.2440   -8.9201 H   0  0  0  0  0  0  0  0  0  0  0  0
   -9.2674  -10.1152   -7.5394 H   0  0  0  0  0  0  0  0  0  0  0  0
   -8.6375   -7.0319   -7.4555 H   0  0  0  0  0  0  0  0  0  0  0  0
   -8.1792   -4.8775   -6.5134 H   0  0  0  0  0  0  0  0  0  0  0  0
   -6.0010  -13.2164   -6.2943 H   0  0  0  0  0  0  0  0  0  0  0  0
  1  2  1  0
  1 19  1  0
  1 20  1  0
  1 21  1  0
  2 18  2  0
  2  3  1  0
  3  4  2  0
  3 22  1  0
  4  5  1  0
  4 23  1  0
  5  6  1  0
  5 17  2  0
  6 16  1  0
  6  7  2  0
  7  8  1  0
  8 12  1  0
  8  9  2  0
  9 10  1  0
  9 33  1  0
 10 11  2  0
 11 12  1  0
 11 24  1  0
 12 13  1  0
 13 16  1  0
 13 14  1  0
 13 25  1  6
 14 15  1  0
 14 26  1  0
 14 27  1  0
 15 16  1  0
 15 28  1  0
 15 29  1  0
 16 30  1  1
 17 18  1  0
 17 31  1  0
 18 32  1  0
M  CHG  1   9   1
M  END
>  <i_m_ct_stereo_status>  (37) 
1

>  <s_m_source_file>  (37) 
/var/tmp/pbs.5076255.sched01/tmp7v4tqmxt/0pyfftbwv.sdf

>  <i_m_source_file_index>  (37) 
14

>  <i_lp_mmshare_version>  (37) 
48012

>  <i_f3d_flags>  (37) 
0

>  <s_epik_input>  (37) 
W0NIM11jMVtjSF1bY0hdYyhbY0hdW2NIXTEpQyg9TjIpW0NAQEhdKFtDSDJdW0NIMl0zKVtDQEhdM24oYzI0KVtjSF1ubjQ=

>  <s_epik_cmdline>  (37) 
J2VwaWtfcHl0aG9uJywgJy1waHQnLCAnMi4wJywgJy1waCcsICc3LjAnLCAnLXRuJywgJzgnLCAnLW1hJywgJzIwMCcsICctaW1hZScsICc8aW5maWxlLm1hZT4nLCAnLW9tYWUnLCAnPG91dGZpbGUubWFlPic=

>  <r_lp_tautomer_probability>  (37) 
0.999601

>  <r_epik_Ionization_Penalty>  (37) 
2.08531

>  <r_epik_Ionization_Penalty_Charging>  (37) 
2.08531

>  <r_epik_Ionization_Penalty_Neutral>  (37) 
9.36483e-07

>  <r_epik_State_Penalty>  (37) 
2.22444

>  <r_epik_Charging_Adjusted_Penalty>  (37) 
4.30974

>  <i_epik_Tot_Q>  (37) 
1

>  <i_epik_Tot_abs_Q>  (37) 
1

>  <s_epik_Chemistry_Notes>  (37) 
This compound has an imine and may undergo hydrolysis.

>  <s_lp_Force_Field>  (37) 
OPLS3e

>  <r_lp_Energy>  (37) 
60.6277

>  <b_lp_Chiralities_Consistent>  (37) 
1

>  <s_lp_Variant>  (37) 
9:0-2

>  <s_i_glide_gridfile>  (37) 
pfpi4k_grid

>  <i_i_glide_lignum>  (37) 
14

>  <i_i_glide_rotatable_bonds>  (37) 
1

>  <r_i_docking_score>  (37) 
-4.89616

>  <r_i_glide_ligand_efficiency>  (37) 
-0.272009

>  <r_i_glide_ligand_efficiency_sa>  (37) 
-0.712865

>  <r_i_glide_ligand_efficiency_ln>  (37) 
-1.25853

>  <r_i_glide_gscore>  (37) 
-4.89616

>  <r_i_glide_lipo>  (37) 
-2.04678

>  <r_i_glide_hbond>  (37) 
0

>  <r_i_glide_metal>  (37) 
-0

>  <r_i_glide_rewards>  (37) 
-2.13629

>  <r_i_glide_evdw>  (37) 
-20.6717

>  <r_i_glide_ecoul>  (37) 
0.12493

>  <r_i_glide_erotb>  (37) 
0.301754

>  <r_i_glide_esite>  (37) 
0

>  <r_i_glide_emodel>  (37) 
-28.3903

>  <r_i_glide_energy>  (37) 
-20.5468

>  <r_i_glide_einternal>  (37) 
0.542299

>  <r_i_glide_intrahb_reward>  (37) 
-0

>  <i_i_glide_confnum>  (37) 
3

>  <i_i_glide_posenum>  (37) 
24

>  <r_i_glide_eff_state_penalty>  (37) 
0

>  <ligand_id>  (37) 
9

>  <original_smiles>  (37) 
Cc1ccc(C2=Nc3nncn3C3CCC23)cc1

>  <smiles>  (37) 
[H]c1c([H])c(C([H])([H])[H])c([H])c([H])c1C1=Nc2n(c([H])n[n+]2[H])C2([H])C([H])([H])C([H])([H])C12[H]

$$$$
9:1:1
     RDKit          3D

 33 36  0  0  1  0  0  0  0  0999 V2000
   -6.5463   -4.0220   -4.5623 C   0  0  0  0  0  0  0  0  0  0  0  0
   -6.4595   -5.4446   -5.0700 C   0  0  0  0  0  0  0  0  0  0  0  0
   -7.4758   -5.9679   -5.8831 C   0  0  0  0  0  0  0  0  0  0  0  0
   -7.3850   -7.2896   -6.3466 C   0  0  0  0  0  0  0  0  0  0  0  0
   -6.2758   -8.1062   -6.0264 C   0  0  0  0  0  0  0  0  0  0  0  0
   -6.2098   -9.5121   -6.5159 C   0  0  0  0  0  0  0  0  0  0  0  0
   -5.2370  -10.3137   -6.1913 N   0  0  0  0  0  0  0  0  0  0  0  0
   -5.1686  -11.5743   -6.7475 C   0  0  0  0  0  0  0  0  0  0  0  0
   -4.4887  -12.6444   -6.3173 N   0  0  0  0  0  0  0  0  0  0  0  0
   -4.7184  -13.6815   -7.1395 N   0  0  0  0  0  0  0  0  0  0  0  0
   -5.5270  -13.2340   -8.0834 C   0  0  0  0  0  0  0  0  0  0  0  0
   -5.8476  -11.9251   -7.8529 N   0  0  0  0  0  0  0  0  0  0  0  0
   -6.5995  -10.9240   -8.5196 C   0  0  1  0  0  0  0  0  0  0  0  0
   -7.9574  -10.8935   -9.2295 C   0  0  0  0  0  0  0  0  0  0  0  0
   -8.1175   -9.5095   -8.5442 C   0  0  0  0  0  0  0  0  0  0  0  0
   -7.2978  -10.1429   -7.4139 C   0  0  2  0  0  0  0  0  0  0  0  0
   -5.2585   -7.5789   -5.1959 C   0  0  0  0  0  0  0  0  0  0  0  0
   -5.3618   -6.2557   -4.7223 C   0  0  0  0  0  0  0  0  0  0  0  0
   -7.3050   -3.4558   -5.1054 H   0  0  0  0  0  0  0  0  0  0  0  0
   -5.5870   -3.5177   -4.6846 H   0  0  0  0  0  0  0  0  0  0  0  0
   -6.8113   -4.0143   -3.5056 H   0  0  0  0  0  0  0  0  0  0  0  0
   -8.3384   -5.3733   -6.1477 H   0  0  0  0  0  0  0  0  0  0  0  0
   -8.2079   -7.6503   -6.9334 H   0  0  0  0  0  0  0  0  0  0  0  0
   -5.9310  -13.7884   -8.9184 H   0  0  0  0  0  0  0  0  0  0  0  0
   -5.8740  -10.3175   -9.0645 H   0  0  0  0  0  0  0  0  0  0  0  0
   -7.9052  -10.8400  -10.3184 H   0  0  0  0  0  0  0  0  0  0  0  0
   -8.6556  -11.6569   -8.8707 H   0  0  0  0  0  0  0  0  0  0  0  0
   -7.6212   -8.6831   -9.0618 H   0  0  0  0  0  0  0  0  0  0  0  0
   -9.1442   -9.2754   -8.2670 H   0  0  0  0  0  0  0  0  0  0  0  0
   -7.9364  -10.7774   -6.7935 H   0  0  0  0  0  0  0  0  0  0  0  0
   -4.4048   -8.1742   -4.8949 H   0  0  0  0  0  0  0  0  0  0  0  0
   -4.5931   -5.8584   -4.0895 H   0  0  0  0  0  0  0  0  0  0  0  0
   -3.9034  -12.7555   -5.4936 H   0  0  0  0  0  0  0  0  0  0  0  0
  1  2  1  0
  1 19  1  0
  1 20  1  0
  1 21  1  0
  2 18  2  0
  2  3  1  0
  3  4  2  0
  3 22  1  0
  4  5  1  0
  4 23  1  0
  5  6  1  0
  5 17  2  0
  6 16  1  0
  6  7  2  0
  7  8  1  0
  8 12  1  0
  8  9  2  0
  9 10  1  0
  9 33  1  0
 10 11  2  0
 11 12  1  0
 11 24  1  0
 12 13  1  0
 13 16  1  0
 13 14  1  0
 13 25  1  6
 14 15  1  0
 14 26  1  0
 14 27  1  0
 15 16  1  0
 15 28  1  0
 15 29  1  0
 16 30  1  1
 17 18  1  0
 17 31  1  0
 18 32  1  0
M  CHG  1   9   1
M  END
>  <i_m_ct_stereo_status>  (38) 
1

>  <s_m_source_file>  (38) 
/var/tmp/pbs.5076255.sched01/tmp7v4tqmxt/0pyfftbwv.sdf

>  <i_m_source_file_index>  (38) 
14

>  <i_lp_mmshare_version>  (38) 
48012

>  <i_f3d_flags>  (38) 
0

>  <s_epik_input>  (38) 
W0NIM11jMVtjSF1bY0hdYyhbY0hdW2NIXTEpQyg9TjIpW0NAQEhdKFtDSDJdW0NIMl0zKVtDQEhdM24oYzI0KVtjSF1ubjQ=

>  <s_epik_cmdline>  (38) 
J2VwaWtfcHl0aG9uJywgJy1waHQnLCAnMi4wJywgJy1waCcsICc3LjAnLCAnLXRuJywgJzgnLCAnLW1hJywgJzIwMCcsICctaW1hZScsICc8aW5maWxlLm1hZT4nLCAnLW9tYWUnLCAnPG91dGZpbGUubWFlPic=

>  <r_lp_tautomer_probability>  (38) 
0.999601

>  <r_epik_Ionization_Penalty>  (38) 
2.08531

>  <r_epik_Ionization_Penalty_Charging>  (38) 
2.08531

>  <r_epik_Ionization_Penalty_Neutral>  (38) 
9.36483e-07

>  <r_epik_State_Penalty>  (38) 
2.22444

>  <r_epik_Charging_Adjusted_Penalty>  (38) 
4.30974

>  <i_epik_Tot_Q>  (38) 
1

>  <i_epik_Tot_abs_Q>  (38) 
1

>  <s_epik_Chemistry_Notes>  (38) 
This compound has an imine and may undergo hydrolysis.

>  <s_lp_Force_Field>  (38) 
OPLS3e

>  <r_lp_Energy>  (38) 
60.6277

>  <b_lp_Chiralities_Consistent>  (38) 
1

>  <s_lp_Variant>  (38) 
9:0-2

>  <s_i_glide_gridfile>  (38) 
pfpi4k_grid

>  <i_i_glide_lignum>  (38) 
14

>  <i_i_glide_rotatable_bonds>  (38) 
1

>  <r_i_docking_score>  (38) 
-4.83268

>  <r_i_glide_ligand_efficiency>  (38) 
-0.268482

>  <r_i_glide_ligand_efficiency_sa>  (38) 
-0.703622

>  <r_i_glide_ligand_efficiency_ln>  (38) 
-1.24222

>  <r_i_glide_gscore>  (38) 
-4.83268

>  <r_i_glide_lipo>  (38) 
-2.02402

>  <r_i_glide_hbond>  (38) 
0

>  <r_i_glide_metal>  (38) 
-0

>  <r_i_glide_rewards>  (38) 
-1.59247

>  <r_i_glide_evdw>  (38) 
-23.43

>  <r_i_glide_ecoul>  (38) 
-2.0221

>  <r_i_glide_erotb>  (38) 
0.301754

>  <r_i_glide_esite>  (38) 
-0.0431287

>  <r_i_glide_emodel>  (38) 
-33.3849

>  <r_i_glide_energy>  (38) 
-25.4521

>  <r_i_glide_einternal>  (38) 
0.369714

>  <r_i_glide_intrahb_reward>  (38) 
-0

>  <i_i_glide_confnum>  (38) 
4

>  <i_i_glide_posenum>  (38) 
8

>  <r_i_glide_eff_state_penalty>  (38) 
0

>  <ligand_id>  (38) 
9

>  <original_smiles>  (38) 
Cc1ccc(C2=Nc3nncn3C3CCC23)cc1

>  <smiles>  (38) 
[H]c1c([H])c(C([H])([H])[H])c([H])c([H])c1C1=Nc2n(c([H])n[n+]2[H])C2([H])C([H])([H])C([H])([H])C12[H]

$$$$
9:1:2
     RDKit          3D

 33 36  0  0  1  0  0  0  0  0999 V2000
    2.9770   -0.0447   -5.3327 C   0  0  0  0  0  0  0  0  0  0  0  0
    3.4298   -0.8013   -4.1008 C   0  0  0  0  0  0  0  0  0  0  0  0
    4.2068   -0.1617   -3.1251 C   0  0  0  0  0  0  0  0  0  0  0  0
    4.6255   -0.8507   -1.9737 C   0  0  0  0  0  0  0  0  0  0  0  0
    4.2544   -2.1941   -1.7740 C   0  0  0  0  0  0  0  0  0  0  0  0
    4.7121   -2.9119   -0.5596 C   0  0  0  0  0  0  0  0  0  0  0  0
    4.6812   -4.2089   -0.4708 N   0  0  0  0  0  0  0  0  0  0  0  0
    5.0212   -4.8138    0.7231 C   0  0  0  0  0  0  0  0  0  0  0  0
    5.3777   -6.0861    0.9318 N   0  0  0  0  0  0  0  0  0  0  0  0
    5.6585   -6.2672    2.2294 N   0  0  0  0  0  0  0  0  0  0  0  0
    5.4392   -5.1013    2.8175 C   0  0  0  0  0  0  0  0  0  0  0  0
    5.0656   -4.1637    1.8958 N   0  0  0  0  0  0  0  0  0  0  0  0
    4.6647   -2.8062    1.9196 C   0  0  1  0  0  0  0  0  0  0  0  0
    5.1626   -1.5470    2.6328 C   0  0  0  0  0  0  0  0  0  0  0  0
    4.8764   -0.8379    1.2751 C   0  0  0  0  0  0  0  0  0  0  0  0
    5.2819   -2.1842    0.6759 C   0  0  2  0  0  0  0  0  0  0  0  0
    3.4775   -2.8429   -2.7613 C   0  0  0  0  0  0  0  0  0  0  0  0
    3.0722   -2.1501   -3.9169 C   0  0  0  0  0  0  0  0  0  0  0  0
    3.1039    1.0337   -5.2187 H   0  0  0  0  0  0  0  0  0  0  0  0
    1.9207   -0.2449   -5.5186 H   0  0  0  0  0  0  0  0  0  0  0  0
    3.5411   -0.3630   -6.2104 H   0  0  0  0  0  0  0  0  0  0  0  0
    4.4810    0.8776   -3.2493 H   0  0  0  0  0  0  0  0  0  0  0  0
    5.2313   -0.3215   -1.2612 H   0  0  0  0  0  0  0  0  0  0  0  0
    5.5641   -4.8696    3.8652 H   0  0  0  0  0  0  0  0  0  0  0  0
    3.5705   -2.8188    1.8835 H   0  0  0  0  0  0  0  0  0  0  0  0
    4.5271   -1.2135    3.4490 H   0  0  0  0  0  0  0  0  0  0  0  0
    6.2172   -1.5945    2.8945 H   0  0  0  0  0  0  0  0  0  0  0  0
    3.8317   -0.5590    1.1178 H   0  0  0  0  0  0  0  0  0  0  0  0
    5.5698   -0.0287    1.0569 H   0  0  0  0  0  0  0  0  0  0  0  0
    6.3718   -2.2836    0.6605 H   0  0  0  0  0  0  0  0  0  0  0  0
    3.1784   -3.8653   -2.6481 H   0  0  0  0  0  0  0  0  0  0  0  0
    2.4719   -2.6634   -4.6556 H   0  0  0  0  0  0  0  0  0  0  0  0
    5.4572   -6.8527    0.2757 H   0  0  0  0  0  0  0  0  0  0  0  0
  1  2  1  0
  1 19  1  0
  1 20  1  0
  1 21  1  0
  2 18  2  0
  2  3  1  0
  3  4  2  0
  3 22  1  0
  4  5  1  0
  4 23  1  0
  5  6  1  0
  5 17  2  0
  6 16  1  0
  6  7  2  0
  7  8  1  0
  8 12  1  0
  8  9  2  0
  9 10  1  0
  9 33  1  0
 10 11  2  0
 11 12  1  0
 11 24  1  0
 12 13  1  0
 13 16  1  0
 13 14  1  0
 13 25  1  6
 14 15  1  0
 14 26  1  0
 14 27  1  0
 15 16  1  0
 15 28  1  0
 15 29  1  0
 16 30  1  1
 17 18  1  0
 17 31  1  0
 18 32  1  0
M  CHG  1   9   1
M  END
>  <i_m_ct_stereo_status>  (39) 
1

>  <s_m_source_file>  (39) 
/var/tmp/pbs.5076255.sched01/tmp7v4tqmxt/0pyfftbwv.sdf

>  <i_m_source_file_index>  (39) 
14

>  <i_lp_mmshare_version>  (39) 
48012

>  <i_f3d_flags>  (39) 
0

>  <s_epik_input>  (39) 
W0NIM11jMVtjSF1bY0hdYyhbY0hdW2NIXTEpQyg9TjIpW0NAQEhdKFtDSDJdW0NIMl0zKVtDQEhdM24oYzI0KVtjSF1ubjQ=

>  <s_epik_cmdline>  (39) 
J2VwaWtfcHl0aG9uJywgJy1waHQnLCAnMi4wJywgJy1waCcsICc3LjAnLCAnLXRuJywgJzgnLCAnLW1hJywgJzIwMCcsICctaW1hZScsICc8aW5maWxlLm1hZT4nLCAnLW9tYWUnLCAnPG91dGZpbGUubWFlPic=

>  <r_lp_tautomer_probability>  (39) 
0.999601

>  <r_epik_Ionization_Penalty>  (39) 
2.08531

>  <r_epik_Ionization_Penalty_Charging>  (39) 
2.08531

>  <r_epik_Ionization_Penalty_Neutral>  (39) 
9.36483e-07

>  <r_epik_State_Penalty>  (39) 
2.22444

>  <r_epik_Charging_Adjusted_Penalty>  (39) 
4.30974

>  <i_epik_Tot_Q>  (39) 
1

>  <i_epik_Tot_abs_Q>  (39) 
1

>  <s_epik_Chemistry_Notes>  (39) 
This compound has an imine and may undergo hydrolysis.

>  <s_lp_Force_Field>  (39) 
OPLS3e

>  <r_lp_Energy>  (39) 
60.6277

>  <b_lp_Chiralities_Consistent>  (39) 
1

>  <s_lp_Variant>  (39) 
9:0-2

>  <s_i_glide_gridfile>  (39) 
pfpi4k_grid

>  <i_i_glide_lignum>  (39) 
14

>  <i_i_glide_rotatable_bonds>  (39) 
1

>  <r_i_docking_score>  (39) 
-3.43848

>  <r_i_glide_ligand_efficiency>  (39) 
-0.191027

>  <r_i_glide_ligand_efficiency_sa>  (39) 
-0.500632

>  <r_i_glide_ligand_efficiency_ln>  (39) 
-0.883844

>  <r_i_glide_gscore>  (39) 
-3.43848

>  <r_i_glide_lipo>  (39) 
-0.788934

>  <r_i_glide_hbond>  (39) 
0

>  <r_i_glide_metal>  (39) 
-0

>  <r_i_glide_rewards>  (39) 
-1.9227

>  <r_i_glide_evdw>  (39) 
-20.6151

>  <r_i_glide_ecoul>  (39) 
0.0143489

>  <r_i_glide_erotb>  (39) 
0.301754

>  <r_i_glide_esite>  (39) 
0

>  <r_i_glide_emodel>  (39) 
-26.3874

>  <r_i_glide_energy>  (39) 
-20.6007

>  <r_i_glide_einternal>  (39) 
0.0018607

>  <r_i_glide_intrahb_reward>  (39) 
-0

>  <i_i_glide_confnum>  (39) 
1

>  <i_i_glide_posenum>  (39) 
21

>  <r_i_glide_eff_state_penalty>  (39) 
0

>  <ligand_id>  (39) 
9

>  <original_smiles>  (39) 
Cc1ccc(C2=Nc3nncn3C3CCC23)cc1

>  <smiles>  (39) 
[H]c1c([H])c(C([H])([H])[H])c([H])c([H])c1C1=Nc2n(c([H])n[n+]2[H])C2([H])C([H])([H])C([H])([H])C12[H]

$$$$
10:0:0
     RDKit          3D

 46 50  0  0  1  0  0  0  0  0999 V2000
    2.5443   -3.1774   -3.8453 C   0  0  0  0  0  0  0  0  0  0  0  0
    4.0716   -3.0101   -3.7609 C   0  0  2  0  0  0  0  0  0  0  0  0
    4.6138   -4.1927   -4.3226 O   0  0  0  0  0  0  0  0  0  0  0  0
    4.7124   -2.7071   -2.3630 C   0  0  2  0  0  0  0  0  0  0  0  0
    5.4361   -3.9224   -1.7542 C   0  0  0  0  0  0  0  0  0  0  0  0
    6.0502   -3.6741   -0.3899 C   0  0  2  0  0  0  0  0  0  0  0  0
    5.6317   -4.4932    0.8691 C   0  0  2  0  0  0  0  0  0  0  0  0
    4.3152   -5.1307    0.8446 O   0  0  0  0  0  0  0  0  0  0  0  0
    3.3151   -4.4068    1.4334 C   0  0  0  0  0  0  0  0  0  0  0  0
    2.9218   -4.5055    2.7831 C   0  0  0  0  0  0  0  0  0  0  0  0
    3.1760   -5.6574    3.4625 O   0  0  0  0  0  0  0  0  0  0  0  0
    2.3667   -3.3846    3.4745 C   0  0  0  0  0  0  0  0  0  0  0  0
    2.3554   -2.0781    2.9091 C   0  0  0  0  0  0  0  0  0  0  0  0
    2.7058   -2.0690    1.5491 C   0  0  0  0  0  0  0  0  0  0  0  0
    2.9160   -3.2334    0.8229 C   0  0  0  0  0  0  0  0  0  0  0  0
    2.8331   -3.0857   -0.6790 C   0  0  0  0  0  0  0  0  0  0  0  0
    3.7981   -2.0652   -1.2893 C   0  0  2  0  0  0  0  0  0  0  0  0
    3.0148   -1.0552   -1.9011 O   0  0  0  0  0  0  0  0  0  0  0  0
    4.6067   -1.4193   -0.1372 C   0  0  1  0  0  0  0  0  0  0  0  0
    3.5761   -0.9539    0.9464 C   0  0  0  0  0  0  0  0  0  0  0  0
    5.8448   -2.3039    0.3172 C   0  0  2  0  0  0  0  0  0  0  0  0
    6.9696   -1.4613    0.1576 O   0  0  0  0  0  0  0  0  0  0  0  0
    5.9558   -3.1587    1.6079 C   0  0  1  0  0  0  0  0  0  0  0  0
    5.3550   -2.7612    2.8152 O   0  0  0  0  0  0  0  0  0  0  0  0
    1.9980   -2.2559   -3.6670 H   0  0  0  0  0  0  0  0  0  0  0  0
    2.1817   -3.9344   -3.1551 H   0  0  0  0  0  0  0  0  0  0  0  0
    2.2255   -3.4716   -4.8372 H   0  0  0  0  0  0  0  0  0  0  0  0
    4.3508   -2.1939   -4.4261 H   0  0  0  0  0  0  0  0  0  0  0  0
    4.3543   -4.9141   -3.7590 H   0  0  0  0  0  0  0  0  0  0  0  0
    5.4971   -1.9775   -2.5702 H   0  0  0  0  0  0  0  0  0  0  0  0
    4.7953   -4.8014   -1.7149 H   0  0  0  0  0  0  0  0  0  0  0  0
    6.2230   -4.1988   -2.4486 H   0  0  0  0  0  0  0  0  0  0  0  0
    7.1292   -3.8191   -0.4709 H   0  0  0  0  0  0  0  0  0  0  0  0
    6.3795   -5.2534    1.0988 H   0  0  0  0  0  0  0  0  0  0  0  0
    3.6160   -6.2996    2.9262 H   0  0  0  0  0  0  0  0  0  0  0  0
    2.1326   -3.4975    4.5153 H   0  0  0  0  0  0  0  0  0  0  0  0
    2.2589   -1.1814    3.5074 H   0  0  0  0  0  0  0  0  0  0  0  0
    2.9551   -4.0817   -1.0882 H   0  0  0  0  0  0  0  0  0  0  0  0
    1.8126   -2.8675   -0.9566 H   0  0  0  0  0  0  0  0  0  0  0  0
    2.1385   -1.0401   -1.4828 H   0  0  0  0  0  0  0  0  0  0  0  0
    5.0085   -0.4977   -0.5632 H   0  0  0  0  0  0  0  0  0  0  0  0
    2.9107   -0.2029    0.5245 H   0  0  0  0  0  0  0  0  0  0  0  0
    4.1222   -0.4614    1.7470 H   0  0  0  0  0  0  0  0  0  0  0  0
    6.9832   -0.8775    0.9100 H   0  0  0  0  0  0  0  0  0  0  0  0
    7.0141   -3.2400    1.8445 H   0  0  0  0  0  0  0  0  0  0  0  0
    4.4284   -2.6580    2.6402 H   0  0  0  0  0  0  0  0  0  0  0  0
  1  2  1  0
  1 25  1  0
  1 26  1  0
  1 27  1  0
  2  3  1  0
  2  4  1  0
  2 28  1  6
  3 29  1  0
  4 17  1  0
  4  5  1  0
  4 30  1  6
  5  6  1  0
  5 31  1  0
  5 32  1  0
  6 21  1  0
  6  7  1  0
  6 33  1  6
  7 23  1  0
  7  8  1  0
  7 34  1  1
  8  9  1  0
  9 15  2  0
  9 10  1  0
 10 11  1  0
 10 12  2  0
 11 35  1  0
 12 13  1  0
 12 36  1  0
 13 14  2  0
 13 37  1  0
 14 20  1  0
 14 15  1  0
 15 16  1  0
 16 17  1  0
 16 38  1  0
 16 39  1  0
 17 18  1  6
 17 19  1  0
 18 40  1  0
 19 20  1  0
 19 21  1  0
 19 41  1  6
 20 42  1  0
 20 43  1  0
 21 22  1  1
 21 23  1  0
 22 44  1  0
 23 24  1  0
 23 45  1  1
 24 46  1  0
M  END
>  <i_m_ct_stereo_status>  (40) 
1

>  <s_m_source_file>  (40) 
/var/tmp/pbs.5076255.sched01/tmp7v4tqmxt/0pyfftbwv.sdf

>  <i_m_source_file_index>  (40) 
15

>  <i_lp_mmshare_version>  (40) 
48012

>  <i_f3d_flags>  (40) 
0

>  <s_epik_input>  (40) 
W0NIM11bQ0BIXShbT0hdKVtDQEBIXTFbQ0gyXVtDQEBIXShbQ0BAXTIoW09IXSlbQ0BIXTNbQ0BAXTE0W09IXSlbQ0BASF0oW0NAQEhdMltPSF0pT2M1YyhbQ0gyXTQpYyhbQ0gyXTMpW2NIXVtjSF1jNVtPSF0=

>  <s_epik_cmdline>  (40) 
J2VwaWtfcHl0aG9uJywgJy1waHQnLCAnMi4wJywgJy1waCcsICc3LjAnLCAnLXRuJywgJzgnLCAnLW1hJywgJzIwMCcsICctaW1hZScsICc8aW5maWxlLm1hZT4nLCAnLW9tYWUnLCAnPG91dGZpbGUubWFlPic=

>  <r_lp_tautomer_probability>  (40) 
1

>  <r_epik_Ionization_Penalty>  (40) 
0.000146759

>  <r_epik_Ionization_Penalty_Charging>  (40) 
0

>  <r_epik_Ionization_Penalty_Neutral>  (40) 
0.000146759

>  <r_epik_State_Penalty>  (40) 
-0

>  <r_epik_Charging_Adjusted_Penalty>  (40) 
0

>  <i_epik_Tot_Q>  (40) 
0

>  <i_epik_Tot_abs_Q>  (40) 
0

>  <s_lp_Force_Field>  (40) 
OPLS3e

>  <r_lp_Energy>  (40) 
112.233

>  <b_lp_Chiralities_Consistent>  (40) 
1

>  <s_lp_Variant>  (40) 
10:0-1

>  <s_i_glide_gridfile>  (40) 
pfpi4k_grid

>  <i_i_glide_lignum>  (40) 
15

>  <i_i_glide_rotatable_bonds>  (40) 
6

>  <r_i_docking_score>  (40) 
-4.80581

>  <r_i_glide_ligand_efficiency>  (40) 
-0.200242

>  <r_i_glide_ligand_efficiency_sa>  (40) 
-0.577598

>  <r_i_glide_ligand_efficiency_ln>  (40) 
-1.15025

>  <r_i_glide_gscore>  (40) 
-4.80581

>  <r_i_glide_lipo>  (40) 
-0.647058

>  <r_i_glide_hbond>  (40) 
-0.392266

>  <r_i_glide_metal>  (40) 
-0

>  <r_i_glide_rewards>  (40) 
-1.12934

>  <r_i_glide_evdw>  (40) 
-21.9885

>  <r_i_glide_ecoul>  (40) 
-11.3761

>  <r_i_glide_erotb>  (40) 
0.168692

>  <r_i_glide_esite>  (40) 
0

>  <r_i_glide_emodel>  (40) 
-39.0052

>  <r_i_glide_energy>  (40) 
-33.3646

>  <r_i_glide_einternal>  (40) 
8.85592

>  <r_i_glide_intrahb_reward>  (40) 
-0

>  <i_i_glide_confnum>  (40) 
3

>  <i_i_glide_posenum>  (40) 
33

>  <r_i_glide_eff_state_penalty>  (40) 
0

>  <ligand_id>  (40) 
10

>  <original_smiles>  (40) 
CC(O)C1CC2C3Oc4c(O)ccc5c4CC1(O)C(C5)C2(O)C3O

>  <smiles>  (40) 
[H]Oc1c([H])c([H])c2c3c1OC1([H])C([H])(O[H])C4(O[H])C1([H])C([H])([H])C([H])(C([H])(O[H])C([H])([H])[H])C(O[H])(C3([H])[H])C4([H])C2([H])[H]

$$$$
10:0:1
     RDKit          3D

 46 50  0  0  1  0  0  0  0  0999 V2000
    3.9247   -1.2169   -4.4753 C   0  0  0  0  0  0  0  0  0  0  0  0
    4.2120   -2.5697   -3.7746 C   0  0  2  0  0  0  0  0  0  0  0  0
    3.0531   -3.3763   -3.8534 O   0  0  0  0  0  0  0  0  0  0  0  0
    4.8339   -2.4547   -2.3468 C   0  0  2  0  0  0  0  0  0  0  0  0
    5.6781   -3.7021   -1.9845 C   0  0  0  0  0  0  0  0  0  0  0  0
    6.2554   -3.6399   -0.5668 C   0  0  2  0  0  0  0  0  0  0  0  0
    5.9069   -4.6926    0.5293 C   0  0  2  0  0  0  0  0  0  0  0  0
    4.6496   -5.4238    0.3822 O   0  0  0  0  0  0  0  0  0  0  0  0
    3.5940   -4.8928    1.0738 C   0  0  0  0  0  0  0  0  0  0  0  0
    3.2100   -5.2507    2.3827 C   0  0  0  0  0  0  0  0  0  0  0  0
    3.5571   -6.4741    2.8704 O   0  0  0  0  0  0  0  0  0  0  0  0
    2.5686   -4.3062    3.2514 C   0  0  0  0  0  0  0  0  0  0  0  0
    2.4350   -2.9319    2.9228 C   0  0  0  0  0  0  0  0  0  0  0  0
    2.7850   -2.6701    1.5824 C   0  0  0  0  0  0  0  0  0  0  0  0
    3.0782   -3.6721    0.6718 C   0  0  0  0  0  0  0  0  0  0  0  0
    2.9683   -3.2675   -0.7800 C   0  0  0  0  0  0  0  0  0  0  0  0
    3.8646   -2.0949   -1.1844 C   0  0  2  0  0  0  0  0  0  0  0  0
    3.0211   -1.0674   -1.5973 O   0  0  0  0  0  0  0  0  0  0  0  0
    4.6243   -1.5938    0.0553 C   0  0  1  0  0  0  0  0  0  0  0  0
    3.5621   -1.4088    1.1905 C   0  0  0  0  0  0  0  0  0  0  0  0
    5.9358   -2.4295    0.3623 C   0  0  2  0  0  0  0  0  0  0  0  0
    6.9797   -1.4662    0.3554 O   0  0  0  0  0  0  0  0  0  0  0  0
    6.1213   -3.4825    1.4902 C   0  0  1  0  0  0  0  0  0  0  0  0
    5.4757   -3.3461    2.7349 O   0  0  0  0  0  0  0  0  0  0  0  0
    4.8408   -0.6647   -4.6817 H   0  0  0  0  0  0  0  0  0  0  0  0
    3.2506   -0.5543   -3.9344 H   0  0  0  0  0  0  0  0  0  0  0  0
    3.4445   -1.3766   -5.4361 H   0  0  0  0  0  0  0  0  0  0  0  0
    4.9379   -3.1160   -4.3740 H   0  0  0  0  0  0  0  0  0  0  0  0
    3.1782   -4.1616   -3.3380 H   0  0  0  0  0  0  0  0  0  0  0  0
    5.5603   -1.6419   -2.4172 H   0  0  0  0  0  0  0  0  0  0  0  0
    5.0968   -4.6168   -2.1017 H   0  0  0  0  0  0  0  0  0  0  0  0
    6.4909   -3.8115   -2.7114 H   0  0  0  0  0  0  0  0  0  0  0  0
    7.3451   -3.6833   -0.6387 H   0  0  0  0  0  0  0  0  0  0  0  0
    6.7190   -5.4123    0.6501 H   0  0  0  0  0  0  0  0  0  0  0  0
    4.0307   -6.9901    2.2362 H   0  0  0  0  0  0  0  0  0  0  0  0
    2.3463   -4.6174    4.2548 H   0  0  0  0  0  0  0  0  0  0  0  0
    2.2831   -2.1547    3.6631 H   0  0  0  0  0  0  0  0  0  0  0  0
    3.1711   -4.1580   -1.3591 H   0  0  0  0  0  0  0  0  0  0  0  0
    1.9283   -3.0640   -1.0239 H   0  0  0  0  0  0  0  0  0  0  0  0
    2.1275   -1.1268   -1.2061 H   0  0  0  0  0  0  0  0  0  0  0  0
    4.9519   -0.5841   -0.2086 H   0  0  0  0  0  0  0  0  0  0  0  0
    2.8510   -0.6444    0.8926 H   0  0  0  0  0  0  0  0  0  0  0  0
    4.0716   -1.0148    2.0610 H   0  0  0  0  0  0  0  0  0  0  0  0
    6.8899   -0.9549    1.1503 H   0  0  0  0  0  0  0  0  0  0  0  0
    7.1896   -3.5135    1.7200 H   0  0  0  0  0  0  0  0  0  0  0  0
    4.5442   -3.2952    2.5641 H   0  0  0  0  0  0  0  0  0  0  0  0
  1  2  1  0
  1 25  1  0
  1 26  1  0
  1 27  1  0
  2  3  1  0
  2  4  1  0
  2 28  1  6
  3 29  1  0
  4 17  1  0
  4  5  1  0
  4 30  1  6
  5  6  1  0
  5 31  1  0
  5 32  1  0
  6 21  1  0
  6  7  1  0
  6 33  1  6
  7 23  1  0
  7  8  1  0
  7 34  1  1
  8  9  1  0
  9 15  2  0
  9 10  1  0
 10 11  1  0
 10 12  2  0
 11 35  1  0
 12 13  1  0
 12 36  1  0
 13 14  2  0
 13 37  1  0
 14 20  1  0
 14 15  1  0
 15 16  1  0
 16 17  1  0
 16 38  1  0
 16 39  1  0
 17 18  1  6
 17 19  1  0
 18 40  1  0
 19 20  1  0
 19 21  1  0
 19 41  1  6
 20 42  1  0
 20 43  1  0
 21 22  1  1
 21 23  1  0
 22 44  1  0
 23 24  1  0
 23 45  1  1
 24 46  1  0
M  END
>  <i_m_ct_stereo_status>  (41) 
1

>  <s_m_source_file>  (41) 
/var/tmp/pbs.5076255.sched01/tmp7v4tqmxt/0pyfftbwv.sdf

>  <i_m_source_file_index>  (41) 
15

>  <i_lp_mmshare_version>  (41) 
48012

>  <i_f3d_flags>  (41) 
0

>  <s_epik_input>  (41) 
W0NIM11bQ0BIXShbT0hdKVtDQEBIXTFbQ0gyXVtDQEBIXShbQ0BAXTIoW09IXSlbQ0BIXTNbQ0BAXTE0W09IXSlbQ0BASF0oW0NAQEhdMltPSF0pT2M1YyhbQ0gyXTQpYyhbQ0gyXTMpW2NIXVtjSF1jNVtPSF0=

>  <s_epik_cmdline>  (41) 
J2VwaWtfcHl0aG9uJywgJy1waHQnLCAnMi4wJywgJy1waCcsICc3LjAnLCAnLXRuJywgJzgnLCAnLW1hJywgJzIwMCcsICctaW1hZScsICc8aW5maWxlLm1hZT4nLCAnLW9tYWUnLCAnPG91dGZpbGUubWFlPic=

>  <r_lp_tautomer_probability>  (41) 
1

>  <r_epik_Ionization_Penalty>  (41) 
0.000146759

>  <r_epik_Ionization_Penalty_Charging>  (41) 
0

>  <r_epik_Ionization_Penalty_Neutral>  (41) 
0.000146759

>  <r_epik_State_Penalty>  (41) 
-0

>  <r_epik_Charging_Adjusted_Penalty>  (41) 
0

>  <i_epik_Tot_Q>  (41) 
0

>  <i_epik_Tot_abs_Q>  (41) 
0

>  <s_lp_Force_Field>  (41) 
OPLS3e

>  <r_lp_Energy>  (41) 
112.233

>  <b_lp_Chiralities_Consistent>  (41) 
1

>  <s_lp_Variant>  (41) 
10:0-1

>  <s_i_glide_gridfile>  (41) 
pfpi4k_grid

>  <i_i_glide_lignum>  (41) 
15

>  <i_i_glide_rotatable_bonds>  (41) 
6

>  <r_i_docking_score>  (41) 
-4.13889

>  <r_i_glide_ligand_efficiency>  (41) 
-0.172454

>  <r_i_glide_ligand_efficiency_sa>  (41) 
-0.497443

>  <r_i_glide_ligand_efficiency_ln>  (41) 
-0.990626

>  <r_i_glide_gscore>  (41) 
-4.13889

>  <r_i_glide_lipo>  (41) 
-0.648696

>  <r_i_glide_hbond>  (41) 
0

>  <r_i_glide_metal>  (41) 
-0

>  <r_i_glide_rewards>  (41) 
-1.12934

>  <r_i_glide_evdw>  (41) 
-19.4312

>  <r_i_glide_ecoul>  (41) 
-10.3866

>  <r_i_glide_erotb>  (41) 
0.168692

>  <r_i_glide_esite>  (41) 
0

>  <r_i_glide_emodel>  (41) 
-36.7462

>  <r_i_glide_energy>  (41) 
-29.8178

>  <r_i_glide_einternal>  (41) 
3.66514

>  <r_i_glide_intrahb_reward>  (41) 
-0

>  <i_i_glide_confnum>  (41) 
3

>  <i_i_glide_posenum>  (41) 
1

>  <r_i_glide_eff_state_penalty>  (41) 
0

>  <ligand_id>  (41) 
10

>  <original_smiles>  (41) 
CC(O)C1CC2C3Oc4c(O)ccc5c4CC1(O)C(C5)C2(O)C3O

>  <smiles>  (41) 
[H]Oc1c([H])c([H])c2c3c1OC1([H])C([H])(O[H])C4(O[H])C1([H])C([H])([H])C([H])(C([H])(O[H])C([H])([H])[H])C(O[H])(C3([H])[H])C4([H])C2([H])[H]

$$$$
10:0:2
     RDKit          3D

 46 50  0  0  1  0  0  0  0  0999 V2000
    2.9573   -1.0841   -3.9909 C   0  0  0  0  0  0  0  0  0  0  0  0
    4.2543   -1.5062   -3.3212 C   0  0  2  0  0  0  0  0  0  0  0  0
    4.6087   -2.7382   -3.9112 O   0  0  0  0  0  0  0  0  0  0  0  0
    4.1956   -1.6010   -1.7684 C   0  0  2  0  0  0  0  0  0  0  0  0
    5.5274   -1.1689   -1.1259 C   0  0  0  0  0  0  0  0  0  0  0  0
    5.5337   -1.2711    0.3955 C   0  0  2  0  0  0  0  0  0  0  0  0
    6.5533   -2.1542    1.1589 C   0  0  2  0  0  0  0  0  0  0  0  0
    7.1669   -3.2635    0.4227 O   0  0  0  0  0  0  0  0  0  0  0  0
    6.5515   -4.4810    0.5936 C   0  0  0  0  0  0  0  0  0  0  0  0
    6.8906   -5.4518    1.5640 C   0  0  0  0  0  0  0  0  0  0  0  0
    8.1602   -5.4760    2.0644 O   0  0  0  0  0  0  0  0  0  0  0  0
    5.9020   -6.3430    2.0930 C   0  0  0  0  0  0  0  0  0  0  0  0
    4.5126   -6.1902    1.8055 C   0  0  0  0  0  0  0  0  0  0  0  0
    4.2663   -5.2628    0.7831 C   0  0  0  0  0  0  0  0  0  0  0  0
    5.2873   -4.6401    0.0695 C   0  0  0  0  0  0  0  0  0  0  0  0
    4.8551   -4.0403   -1.2507 C   0  0  0  0  0  0  0  0  0  0  0  0
    3.7605   -2.9630   -1.1544 C   0  0  2  0  0  0  0  0  0  0  0  0
    2.6153   -3.4198   -1.8572 O   0  0  0  0  0  0  0  0  0  0  0  0
    3.3499   -2.8372    0.3266 C   0  0  1  0  0  0  0  0  0  0  0  0
    3.0815   -4.2906    0.8518 C   0  0  0  0  0  0  0  0  0  0  0  0
    4.3182   -1.8862    1.1488 C   0  0  2  0  0  0  0  0  0  0  0  0
    3.4611   -0.9008    1.6974 O   0  0  0  0  0  0  0  0  0  0  0  0
    5.3858   -2.3108    2.1832 C   0  0  1  0  0  0  0  0  0  0  0  0
    5.2153   -3.4385    3.0126 O   0  0  0  0  0  0  0  0  0  0  0  0
    2.6436   -0.0801   -3.6987 H   0  0  0  0  0  0  0  0  0  0  0  0
    2.1573   -1.7831   -3.7538 H   0  0  0  0  0  0  0  0  0  0  0  0
    3.0574   -1.0905   -5.0759 H   0  0  0  0  0  0  0  0  0  0  0  0
    4.9925   -0.7645   -3.6121 H   0  0  0  0  0  0  0  0  0  0  0  0
    4.0102   -3.3949   -3.5582 H   0  0  0  0  0  0  0  0  0  0  0  0
    3.4603   -0.8582   -1.4577 H   0  0  0  0  0  0  0  0  0  0  0  0
    6.3733   -1.7143   -1.5481 H   0  0  0  0  0  0  0  0  0  0  0  0
    5.7097   -0.1465   -1.4299 H   0  0  0  0  0  0  0  0  0  0  0  0
    5.6767   -0.2772    0.8138 H   0  0  0  0  0  0  0  0  0  0  0  0
    7.3378   -1.5179    1.5636 H   0  0  0  0  0  0  0  0  0  0  0  0
    8.3134   -6.1600    2.6933 H   0  0  0  0  0  0  0  0  0  0  0  0
    6.1817   -7.0305    2.8633 H   0  0  0  0  0  0  0  0  0  0  0  0
    3.7298   -6.6282    2.4263 H   0  0  0  0  0  0  0  0  0  0  0  0
    5.7503   -3.6801   -1.7349 H   0  0  0  0  0  0  0  0  0  0  0  0
    4.5985   -4.8545   -1.9149 H   0  0  0  0  0  0  0  0  0  0  0  0
    1.9493   -2.7514   -1.8169 H   0  0  0  0  0  0  0  0  0  0  0  0
    2.3692   -2.3589    0.3057 H   0  0  0  0  0  0  0  0  0  0  0  0
    2.2634   -4.7335    0.2933 H   0  0  0  0  0  0  0  0  0  0  0  0
    2.7552   -4.2123    1.8835 H   0  0  0  0  0  0  0  0  0  0  0  0
    2.8699   -0.6165    1.0191 H   0  0  0  0  0  0  0  0  0  0  0  0
    5.5110   -1.4791    2.8738 H   0  0  0  0  0  0  0  0  0  0  0  0
    5.0801   -4.1797    2.4392 H   0  0  0  0  0  0  0  0  0  0  0  0
  1  2  1  0
  1 25  1  0
  1 26  1  0
  1 27  1  0
  2  3  1  0
  2  4  1  0
  2 28  1  1
  3 29  1  0
  4 17  1  0
  4  5  1  0
  4 30  1  1
  5  6  1  0
  5 31  1  0
  5 32  1  0
  6 21  1  0
  6  7  1  0
  6 33  1  1
  7 23  1  0
  7  8  1  0
  7 34  1  1
  8  9  1  0
  9 15  2  0
  9 10  1  0
 10 11  1  0
 10 12  2  0
 11 35  1  0
 12 13  1  0
 12 36  1  0
 13 14  2  0
 13 37  1  0
 14 20  1  0
 14 15  1  0
 15 16  1  0
 16 17  1  0
 16 38  1  0
 16 39  1  0
 17 18  1  6
 17 19  1  0
 18 40  1  0
 19 20  1  0
 19 21  1  0
 19 41  1  6
 20 42  1  0
 20 43  1  0
 21 22  1  1
 21 23  1  0
 22 44  1  0
 23 24  1  0
 23 45  1  1
 24 46  1  0
M  END
>  <i_m_ct_stereo_status>  (42) 
1

>  <s_m_source_file>  (42) 
/var/tmp/pbs.5076255.sched01/tmp7v4tqmxt/0pyfftbwv.sdf

>  <i_m_source_file_index>  (42) 
15

>  <i_lp_mmshare_version>  (42) 
48012

>  <i_f3d_flags>  (42) 
0

>  <s_epik_input>  (42) 
W0NIM11bQ0BIXShbT0hdKVtDQEBIXTFbQ0gyXVtDQEBIXShbQ0BAXTIoW09IXSlbQ0BIXTNbQ0BAXTE0W09IXSlbQ0BASF0oW0NAQEhdMltPSF0pT2M1YyhbQ0gyXTQpYyhbQ0gyXTMpW2NIXVtjSF1jNVtPSF0=

>  <s_epik_cmdline>  (42) 
J2VwaWtfcHl0aG9uJywgJy1waHQnLCAnMi4wJywgJy1waCcsICc3LjAnLCAnLXRuJywgJzgnLCAnLW1hJywgJzIwMCcsICctaW1hZScsICc8aW5maWxlLm1hZT4nLCAnLW9tYWUnLCAnPG91dGZpbGUubWFlPic=

>  <r_lp_tautomer_probability>  (42) 
1

>  <r_epik_Ionization_Penalty>  (42) 
0.000146759

>  <r_epik_Ionization_Penalty_Charging>  (42) 
0

>  <r_epik_Ionization_Penalty_Neutral>  (42) 
0.000146759

>  <r_epik_State_Penalty>  (42) 
-0

>  <r_epik_Charging_Adjusted_Penalty>  (42) 
0

>  <i_epik_Tot_Q>  (42) 
0

>  <i_epik_Tot_abs_Q>  (42) 
0

>  <s_lp_Force_Field>  (42) 
OPLS3e

>  <r_lp_Energy>  (42) 
112.233

>  <b_lp_Chiralities_Consistent>  (42) 
1

>  <s_lp_Variant>  (42) 
10:0-1

>  <s_i_glide_gridfile>  (42) 
pfpi4k_grid

>  <i_i_glide_lignum>  (42) 
15

>  <i_i_glide_rotatable_bonds>  (42) 
6

>  <r_i_docking_score>  (42) 
-3.73435

>  <r_i_glide_ligand_efficiency>  (42) 
-0.155598

>  <r_i_glide_ligand_efficiency_sa>  (42) 
-0.448821

>  <r_i_glide_ligand_efficiency_ln>  (42) 
-0.8938

>  <r_i_glide_gscore>  (42) 
-3.73435

>  <r_i_glide_lipo>  (42) 
-0.817655

>  <r_i_glide_hbond>  (42) 
0

>  <r_i_glide_metal>  (42) 
-0

>  <r_i_glide_rewards>  (42) 
-1.12934

>  <r_i_glide_evdw>  (42) 
-25.8166

>  <r_i_glide_ecoul>  (42) 
-4.43477

>  <r_i_glide_erotb>  (42) 
0.168692

>  <r_i_glide_esite>  (42) 
0

>  <r_i_glide_emodel>  (42) 
-36.4006

>  <r_i_glide_energy>  (42) 
-30.2513

>  <r_i_glide_einternal>  (42) 
3.42816

>  <r_i_glide_intrahb_reward>  (42) 
-0

>  <i_i_glide_confnum>  (42) 
6

>  <i_i_glide_posenum>  (42) 
22

>  <r_i_glide_eff_state_penalty>  (42) 
0

>  <ligand_id>  (42) 
10

>  <original_smiles>  (42) 
CC(O)C1CC2C3Oc4c(O)ccc5c4CC1(O)C(C5)C2(O)C3O

>  <smiles>  (42) 
[H]Oc1c([H])c([H])c2c3c1OC1([H])C([H])(O[H])C4(O[H])C1([H])C([H])([H])C([H])(C([H])(O[H])C([H])([H])[H])C(O[H])(C3([H])[H])C4([H])C2([H])[H]

$$$$
11:0:0
     RDKit          3D

 43 46  0  0  1  0  0  0  0  0999 V2000
    3.2279   -0.8644   -3.0470 C   0  0  0  0  0  0  0  0  0  0  0  0
    3.5144   -2.3643   -3.1215 C   0  0  2  0  0  0  0  0  0  0  0  0
    2.2277   -3.1600   -2.9415 C   0  0  0  0  0  0  0  0  0  0  0  0
    2.1375   -3.4526   -1.5067 N   0  0  1  0  0  0  0  0  0  0  0  0
    1.1717   -4.5011   -1.1669 C   0  0  0  0  0  0  0  0  0  0  0  0
    3.5192   -3.6662   -1.0019 C   0  0  2  0  0  0  0  0  0  0  0  0
    3.7395   -3.3366    0.5037 C   0  0  2  0  0  0  0  0  0  0  0  0
    5.0750   -4.0411    0.9058 C   0  0  0  0  0  0  0  0  0  0  0  0
    6.3664   -3.1999    0.7491 C   0  0  2  0  0  0  0  0  0  0  0  0
    6.2473   -1.8974    1.5383 C   0  0  0  0  0  0  0  0  0  0  0  0
    5.0359   -1.1504    0.9955 C   0  0  2  0  0  0  0  0  0  0  0  0
    3.7460   -1.9906    1.3034 C   0  0  0  0  0  0  0  0  0  0  0  0
    5.2841   -0.8436   -0.5179 C   0  0  0  0  0  0  0  0  0  0  0  0
    5.6339   -2.0675   -1.4411 C   0  0  1  0  0  0  0  0  0  0  0  0
    6.7251   -2.8943   -0.7141 C   0  0  0  0  0  0  0  0  0  0  0  0
    4.4619   -2.9571   -2.0438 C   0  0  2  0  0  0  0  0  0  0  0  0
    5.0820   -3.9788   -2.7949 O   0  0  0  0  0  0  0  0  0  0  0  0
    2.6750   -0.6532   -2.1258 H   0  0  0  0  0  0  0  0  0  0  0  0
    2.6040   -0.5431   -3.8870 H   0  0  0  0  0  0  0  0  0  0  0  0
    4.1339   -0.2680   -3.0956 H   0  0  0  0  0  0  0  0  0  0  0  0
    3.9009   -2.5381   -4.1341 H   0  0  0  0  0  0  0  0  0  0  0  0
    1.3525   -2.6481   -3.3167 H   0  0  0  0  0  0  0  0  0  0  0  0
    2.3031   -4.0911   -3.5034 H   0  0  0  0  0  0  0  0  0  0  0  0
    1.3647   -5.4548   -1.6049 H   0  0  0  0  0  0  0  0  0  0  0  0
    0.1728   -4.2262   -1.5087 H   0  0  0  0  0  0  0  0  0  0  0  0
    1.2800   -4.7806   -0.1332 H   0  0  0  0  0  0  0  0  0  0  0  0
    3.6847   -4.7370   -1.0845 H   0  0  0  0  0  0  0  0  0  0  0  0
    3.6548   -2.4759   -0.1067 H   0  0  0  0  0  0  0  0  0  0  0  0
    5.0004   -4.3393    1.9486 H   0  0  0  0  0  0  0  0  0  0  0  0
    5.2159   -4.9798    0.3644 H   0  0  0  0  0  0  0  0  0  0  0  0
    7.1877   -3.7662    1.1722 H   0  0  0  0  0  0  0  0  0  0  0  0
    6.1329   -2.0990    2.6036 H   0  0  0  0  0  0  0  0  0  0  0  0
    7.1497   -1.2912    1.4265 H   0  0  0  0  0  0  0  0  0  0  0  0
    4.9591   -0.2094    1.5257 H   0  0  0  0  0  0  0  0  0  0  0  0
    2.8459   -1.3778    1.1634 H   0  0  0  0  0  0  0  0  0  0  0  0
    3.7498   -2.2228    2.3698 H   0  0  0  0  0  0  0  0  0  0  0  0
    4.4483   -0.2562   -0.8840 H   0  0  0  0  0  0  0  0  0  0  0  0
    6.1449   -0.1835   -0.5321 H   0  0  0  0  0  0  0  0  0  0  0  0
    6.1167   -1.6536   -2.3149 H   0  0  0  0  0  0  0  0  0  0  0  0
    7.6556   -2.3253   -0.7154 H   0  0  0  0  0  0  0  0  0  0  0  0
    6.9654   -3.8206   -1.2305 H   0  0  0  0  0  0  0  0  0  0  0  0
    4.4763   -4.6980   -2.8916 H   0  0  0  0  0  0  0  0  0  0  0  0
    1.8259   -2.5556   -1.1231 H   0  0  0  0  0  0  0  0  0  0  0  0
  1  2  1  0
  1 18  1  0
  1 19  1  0
  1 20  1  0
  2 16  1  0
  2  3  1  0
  2 21  1  6
  3  4  1  0
  3 22  1  0
  3 23  1  0
  4  5  1  0
  4  6  1  0
  4 43  1  1
  5 24  1  0
  5 25  1  0
  5 26  1  0
  6 16  1  0
  6  7  1  0
  6 27  1  1
  7 12  1  0
  7  8  1  0
  7 28  1  1
  8  9  1  0
  8 29  1  0
  8 30  1  0
  9 15  1  0
  9 10  1  0
  9 31  1  1
 10 11  1  0
 10 32  1  0
 10 33  1  0
 11 12  1  0
 11 13  1  0
 11 34  1  1
 12 35  1  0
 12 36  1  0
 13 14  1  0
 13 37  1  0
 13 38  1  0
 14 15  1  0
 14 16  1  0
 14 39  1  6
 15 40  1  0
 15 41  1  0
 16 17  1  6
 17 42  1  0
M  CHG  1   4   1
M  END
>  <i_m_ct_stereo_status>  (43) 
1

>  <s_m_source_file>  (43) 
/var/tmp/pbs.5076255.sched01/tmp7v4tqmxt/0pyfftbwv.sdf

>  <i_m_source_file_index>  (43) 
16

>  <i_lp_mmshare_version>  (43) 
48012

>  <i_f3d_flags>  (43) 
0

>  <s_epik_input>  (43) 
W0NIM11bQ0BASF0xW0NIMl1OKFtDSDNdKVtDQEBIXShbQ0BAXTEyW09IXSlbQ0BIXTNbQ0gyXVtDQEBIXTRbQ0gyXVtDQEhdKFtDSDJdMylbQ0gyXVtDQEhdMltDSDJdNA==

>  <s_epik_cmdline>  (43) 
J2VwaWtfcHl0aG9uJywgJy1waHQnLCAnMi4wJywgJy1waCcsICc3LjAnLCAnLXRuJywgJzgnLCAnLW1hJywgJzIwMCcsICctaW1hZScsICc8aW5maWxlLm1hZT4nLCAnLW9tYWUnLCAnPG91dGZpbGUubWFlPic=

>  <r_epik_Ionization_Penalty>  (43) 
0.00151973

>  <r_epik_Ionization_Penalty_Charging>  (43) 
0.00151973

>  <r_epik_Ionization_Penalty_Neutral>  (43) 
2.90738e-09

>  <r_epik_State_Penalty>  (43) 
0.00101903

>  <r_epik_Charging_Adjusted_Penalty>  (43) 
0.00253876

>  <i_epik_Tot_Q>  (43) 
1

>  <i_epik_Tot_abs_Q>  (43) 
1

>  <s_lp_Force_Field>  (43) 
OPLS3e

>  <r_lp_Energy>  (43) 
116.374

>  <b_lp_Chiralities_Consistent>  (43) 
1

>  <s_lp_Variant>  (43) 
11:0-1

>  <s_i_glide_gridfile>  (43) 
pfpi4k_grid

>  <i_i_glide_lignum>  (43) 
16

>  <i_i_glide_rotatable_bonds>  (43) 
1

>  <r_i_docking_score>  (43) 
-4.62899

>  <r_i_glide_ligand_efficiency>  (43) 
-0.272293

>  <r_i_glide_ligand_efficiency_sa>  (43) 
-0.700143

>  <r_i_glide_ligand_efficiency_ln>  (43) 
-1.2076

>  <r_i_glide_gscore>  (43) 
-4.62899

>  <r_i_glide_lipo>  (43) 
-0.647435

>  <r_i_glide_hbond>  (43) 
-0.491626

>  <r_i_glide_metal>  (43) 
-0

>  <r_i_glide_rewards>  (43) 
-1.79746

>  <r_i_glide_evdw>  (43) 
-12.8781

>  <r_i_glide_ecoul>  (43) 
-6.99042

>  <r_i_glide_erotb>  (43) 
0

>  <r_i_glide_esite>  (43) 
0

>  <r_i_glide_emodel>  (43) 
-25.7043

>  <r_i_glide_energy>  (43) 
-19.8685

>  <r_i_glide_einternal>  (43) 
0.265573

>  <r_i_glide_intrahb_reward>  (43) 
-0

>  <i_i_glide_confnum>  (43) 
2

>  <i_i_glide_posenum>  (43) 
13

>  <r_i_glide_eff_state_penalty>  (43) 
0

>  <ligand_id>  (43) 
11

>  <original_smiles>  (43) 
CC1CN(C)C2C3CC4CC(C3)CC(C4)C12O

>  <smiles>  (43) 
[H]OC12C3([H])C([H])([H])C4([H])C([H])([H])C([H])(C3([H])[H])C([H])([H])C([H])(C4([H])[H])C1([H])[N+]([H])(C([H])([H])[H])C([H])([H])C2([H])C([H])([H])[H]

$$$$
11:0:1
     RDKit          3D

 43 46  0  0  1  0  0  0  0  0999 V2000
    4.6117   -0.3433   -2.7693 C   0  0  0  0  0  0  0  0  0  0  0  0
    4.6911   -1.8658   -2.8332 C   0  0  2  0  0  0  0  0  0  0  0  0
    3.3158   -2.4094   -3.1971 C   0  0  0  0  0  0  0  0  0  0  0  0
    2.6413   -2.6572   -1.9065 N   0  0  1  0  0  0  0  0  0  0  0  0
    1.4608   -3.5166   -2.0336 C   0  0  0  0  0  0  0  0  0  0  0  0
    3.6858   -3.1452   -0.9588 C   0  0  2  0  0  0  0  0  0  0  0  0
    3.4043   -2.8342    0.5526 C   0  0  2  0  0  0  0  0  0  0  0  0
    4.3623   -3.7647    1.3638 C   0  0  0  0  0  0  0  0  0  0  0  0
    5.7368   -3.1672    1.7435 C   0  0  2  0  0  0  0  0  0  0  0  0
    5.5572   -1.8543    2.5082 C   0  0  0  0  0  0  0  0  0  0  0  0
    4.7859   -0.9048    1.6021 C   0  0  2  0  0  0  0  0  0  0  0  0
    3.3503   -1.4982    1.3622 C   0  0  0  0  0  0  0  0  0  0  0  0
    5.6215   -0.6633    0.3026 C   0  0  0  0  0  0  0  0  0  0  0  0
    6.0726   -1.9509   -0.4976 C   0  0  1  0  0  0  0  0  0  0  0  0
    6.6616   -2.9474    0.5340 C   0  0  0  0  0  0  0  0  0  0  0  0
    5.0623   -2.6261   -1.5287 C   0  0  2  0  0  0  0  0  0  0  0  0
    5.7189   -3.7577   -2.0559 O   0  0  0  0  0  0  0  0  0  0  0  0
    3.8009   -0.0115   -2.1320 H   0  0  0  0  0  0  0  0  0  0  0  0
    4.4358    0.0776   -3.7636 H   0  0  0  0  0  0  0  0  0  0  0  0
    5.5354    0.0556   -2.3627 H   0  0  0  0  0  0  0  0  0  0  0  0
    5.3896   -2.1300   -3.6281 H   0  0  0  0  0  0  0  0  0  0  0  0
    2.7392   -1.7399   -3.8358 H   0  0  0  0  0  0  0  0  0  0  0  0
    3.4367   -3.3581   -3.7276 H   0  0  0  0  0  0  0  0  0  0  0  0
    1.7045   -4.4800   -2.4460 H   0  0  0  0  0  0  0  0  0  0  0  0
    0.7590   -3.0597   -2.7242 H   0  0  0  0  0  0  0  0  0  0  0  0
    0.9972   -3.6563   -1.0730 H   0  0  0  0  0  0  0  0  0  0  0  0
    3.6634   -4.2313   -1.0730 H   0  0  0  0  0  0  0  0  0  0  0  0
    3.6953   -1.9809    0.0030 H   0  0  0  0  0  0  0  0  0  0  0  0
    3.8500   -4.0308    2.2867 H   0  0  0  0  0  0  0  0  0  0  0  0
    4.5236   -4.7160    0.8570 H   0  0  0  0  0  0  0  0  0  0  0  0
    6.2250   -3.8731    2.4116 H   0  0  0  0  0  0  0  0  0  0  0  0
    5.0253   -2.0200    3.4464 H   0  0  0  0  0  0  0  0  0  0  0  0
    6.5170   -1.4103    2.7660 H   0  0  0  0  0  0  0  0  0  0  0  0
    4.6734    0.0441    2.1225 H   0  0  0  0  0  0  0  0  0  0  0  0
    2.6749   -0.7358    0.9406 H   0  0  0  0  0  0  0  0  0  0  0  0
    2.9132   -1.7173    2.3374 H   0  0  0  0  0  0  0  0  0  0  0  0
    5.0523    0.0315   -0.2980 H   0  0  0  0  0  0  0  0  0  0  0  0
    6.5281   -0.1278    0.5823 H   0  0  0  0  0  0  0  0  0  0  0  0
    6.9171   -1.6534   -1.1139 H   0  0  0  0  0  0  0  0  0  0  0  0
    7.6066   -2.5409    0.8944 H   0  0  0  0  0  0  0  0  0  0  0  0
    6.9313   -3.9056    0.0969 H   0  0  0  0  0  0  0  0  0  0  0  0
    5.8721   -4.3584   -1.3457 H   0  0  0  0  0  0  0  0  0  0  0  0
    2.3108   -1.7608   -1.5482 H   0  0  0  0  0  0  0  0  0  0  0  0
  1  2  1  0
  1 18  1  0
  1 19  1  0
  1 20  1  0
  2 16  1  0
  2  3  1  0
  2 21  1  6
  3  4  1  0
  3 22  1  0
  3 23  1  0
  4  5  1  0
  4  6  1  0
  4 43  1  1
  5 24  1  0
  5 25  1  0
  5 26  1  0
  6 16  1  0
  6  7  1  0
  6 27  1  1
  7 12  1  0
  7  8  1  0
  7 28  1  1
  8  9  1  0
  8 29  1  0
  8 30  1  0
  9 15  1  0
  9 10  1  0
  9 31  1  1
 10 11  1  0
 10 32  1  0
 10 33  1  0
 11 12  1  0
 11 13  1  0
 11 34  1  1
 12 35  1  0
 12 36  1  0
 13 14  1  0
 13 37  1  0
 13 38  1  0
 14 15  1  0
 14 16  1  0
 14 39  1  6
 15 40  1  0
 15 41  1  0
 16 17  1  6
 17 42  1  0
M  CHG  1   4   1
M  END
>  <i_m_ct_stereo_status>  (44) 
1

>  <s_m_source_file>  (44) 
/var/tmp/pbs.5076255.sched01/tmp7v4tqmxt/0pyfftbwv.sdf

>  <i_m_source_file_index>  (44) 
16

>  <i_lp_mmshare_version>  (44) 
48012

>  <i_f3d_flags>  (44) 
0

>  <s_epik_input>  (44) 
W0NIM11bQ0BASF0xW0NIMl1OKFtDSDNdKVtDQEBIXShbQ0BAXTEyW09IXSlbQ0BIXTNbQ0gyXVtDQEBIXTRbQ0gyXVtDQEhdKFtDSDJdMylbQ0gyXVtDQEhdMltDSDJdNA==

>  <s_epik_cmdline>  (44) 
J2VwaWtfcHl0aG9uJywgJy1waHQnLCAnMi4wJywgJy1waCcsICc3LjAnLCAnLXRuJywgJzgnLCAnLW1hJywgJzIwMCcsICctaW1hZScsICc8aW5maWxlLm1hZT4nLCAnLW9tYWUnLCAnPG91dGZpbGUubWFlPic=

>  <r_epik_Ionization_Penalty>  (44) 
0.00151973

>  <r_epik_Ionization_Penalty_Charging>  (44) 
0.00151973

>  <r_epik_Ionization_Penalty_Neutral>  (44) 
2.90738e-09

>  <r_epik_State_Penalty>  (44) 
0.00101903

>  <r_epik_Charging_Adjusted_Penalty>  (44) 
0.00253876

>  <i_epik_Tot_Q>  (44) 
1

>  <i_epik_Tot_abs_Q>  (44) 
1

>  <s_lp_Force_Field>  (44) 
OPLS3e

>  <r_lp_Energy>  (44) 
116.374

>  <b_lp_Chiralities_Consistent>  (44) 
1

>  <s_lp_Variant>  (44) 
11:0-1

>  <s_i_glide_gridfile>  (44) 
pfpi4k_grid

>  <i_i_glide_lignum>  (44) 
16

>  <i_i_glide_rotatable_bonds>  (44) 
1

>  <r_i_docking_score>  (44) 
-3.74791

>  <r_i_glide_ligand_efficiency>  (44) 
-0.220465

>  <r_i_glide_ligand_efficiency_sa>  (44) 
-0.566878

>  <r_i_glide_ligand_efficiency_ln>  (44) 
-0.977745

>  <r_i_glide_gscore>  (44) 
-3.74791

>  <r_i_glide_lipo>  (44) 
-0.63589

>  <r_i_glide_hbond>  (44) 
-0.154909

>  <r_i_glide_metal>  (44) 
-0

>  <r_i_glide_rewards>  (44) 
-1.79746

>  <r_i_glide_evdw>  (44) 
-9.3777

>  <r_i_glide_ecoul>  (44) 
-4.31295

>  <r_i_glide_erotb>  (44) 
0

>  <r_i_glide_esite>  (44) 
-0.0438247

>  <r_i_glide_emodel>  (44) 
-18.5854

>  <r_i_glide_energy>  (44) 
-13.6906

>  <r_i_glide_einternal>  (44) 
0.0623321

>  <r_i_glide_intrahb_reward>  (44) 
-0

>  <i_i_glide_confnum>  (44) 
2

>  <i_i_glide_posenum>  (44) 
1

>  <r_i_glide_eff_state_penalty>  (44) 
0

>  <ligand_id>  (44) 
11

>  <original_smiles>  (44) 
CC1CN(C)C2C3CC4CC(C3)CC(C4)C12O

>  <smiles>  (44) 
[H]OC12C3([H])C([H])([H])C4([H])C([H])([H])C([H])(C3([H])[H])C([H])([H])C([H])(C4([H])[H])C1([H])[N+]([H])(C([H])([H])[H])C([H])([H])C2([H])C([H])([H])[H]

$$$$
11:0:2
     RDKit          3D

 43 46  0  0  1  0  0  0  0  0999 V2000
    5.5436   -1.0444   -0.2681 C   0  0  0  0  0  0  0  0  0  0  0  0
    5.3407   -2.4630   -0.8289 C   0  0  2  0  0  0  0  0  0  0  0  0
    4.3191   -2.4219   -1.9699 C   0  0  0  0  0  0  0  0  0  0  0  0
    3.0091   -2.6844   -1.3488 N   0  0  1  0  0  0  0  0  0  0  0  0
    1.9639   -3.0597   -2.3283 C   0  0  0  0  0  0  0  0  0  0  0  0
    3.2449   -3.6697   -0.2511 C   0  0  2  0  0  0  0  0  0  0  0  0
    2.2339   -3.5835    0.9450 C   0  0  2  0  0  0  0  0  0  0  0  0
    2.3841   -4.9264    1.7343 C   0  0  0  0  0  0  0  0  0  0  0  0
    3.3887   -4.9146    2.9084 C   0  0  2  0  0  0  0  0  0  0  0  0
    3.0467   -3.7997    3.8970 C   0  0  0  0  0  0  0  0  0  0  0  0
    3.0989   -2.4823    3.1259 C   0  0  2  0  0  0  0  0  0  0  0  0
    1.9662   -2.4966    2.0384 C   0  0  0  0  0  0  0  0  0  0  0  0
    4.5469   -2.2757    2.5655 C   0  0  0  0  0  0  0  0  0  0  0  0
    5.1343   -3.4559    1.6899 C   0  0  1  0  0  0  0  0  0  0  0  0
    4.8525   -4.7770    2.4561 C   0  0  0  0  0  0  0  0  0  0  0  0
    4.7784   -3.5536    0.1357 C   0  0  2  0  0  0  0  0  0  0  0  0
    5.4067   -4.7429   -0.3249 O   0  0  0  0  0  0  0  0  0  0  0  0
    4.6037   -0.5808    0.0386 H   0  0  0  0  0  0  0  0  0  0  0  0
    5.9534   -0.3919   -1.0355 H   0  0  0  0  0  0  0  0  0  0  0  0
    6.2448   -1.0391    0.5683 H   0  0  0  0  0  0  0  0  0  0  0  0
    6.3126   -2.7675   -1.2278 H   0  0  0  0  0  0  0  0  0  0  0  0
    4.3289   -1.4830   -2.5260 H   0  0  0  0  0  0  0  0  0  0  0  0
    4.5497   -3.2218   -2.6749 H   0  0  0  0  0  0  0  0  0  0  0  0
    2.2161   -3.9649   -2.8809 H   0  0  0  0  0  0  0  0  0  0  0  0
    1.8284   -2.2636   -3.0604 H   0  0  0  0  0  0  0  0  0  0  0  0
    1.0061   -3.2158   -1.8325 H   0  0  0  0  0  0  0  0  0  0  0  0
    3.0931   -4.6434   -0.7154 H   0  0  0  0  0  0  0  0  0  0  0  0
    2.9329   -2.7892    0.9382 H   0  0  0  0  0  0  0  0  0  0  0  0
    1.4083   -5.1850    2.1429 H   0  0  0  0  0  0  0  0  0  0  0  0
    2.6305   -5.7576    1.0726 H   0  0  0  0  0  0  0  0  0  0  0  0
    3.2979   -5.8630    3.4370 H   0  0  0  0  0  0  0  0  0  0  0  0
    2.0590   -3.9578    4.3329 H   0  0  0  0  0  0  0  0  0  0  0  0
    3.7516   -3.7905    4.7298 H   0  0  0  0  0  0  0  0  0  0  0  0
    2.8814   -1.6745    3.8231 H   0  0  0  0  0  0  0  0  0  0  0  0
    1.7851   -1.4875    1.6405 H   0  0  0  0  0  0  0  0  0  0  0  0
    1.0294   -2.7405    2.5414 H   0  0  0  0  0  0  0  0  0  0  0  0
    4.5721   -1.3190    2.0596 H   0  0  0  0  0  0  0  0  0  0  0  0
    5.2103   -2.1474    3.4217 H   0  0  0  0  0  0  0  0  0  0  0  0
    6.2174   -3.3266    1.7069 H   0  0  0  0  0  0  0  0  0  0  0  0
    5.4834   -4.7981    3.3440 H   0  0  0  0  0  0  0  0  0  0  0  0
    5.1447   -5.6644    1.8969 H   0  0  0  0  0  0  0  0  0  0  0  0
    5.0916   -4.9600   -1.1866 H   0  0  0  0  0  0  0  0  0  0  0  0
    2.6954   -1.8242   -0.9163 H   0  0  0  0  0  0  0  0  0  0  0  0
  1  2  1  0
  1 18  1  0
  1 19  1  0
  1 20  1  0
  2 16  1  0
  2  3  1  0
  2 21  1  6
  3  4  1  0
  3 22  1  0
  3 23  1  0
  4  5  1  0
  4  6  1  0
  4 43  1  1
  5 24  1  0
  5 25  1  0
  5 26  1  0
  6 16  1  0
  6  7  1  0
  6 27  1  6
  7 12  1  0
  7  8  1  0
  7 28  1  6
  8  9  1  0
  8 29  1  0
  8 30  1  0
  9 15  1  0
  9 10  1  0
  9 31  1  1
 10 11  1  0
 10 32  1  0
 10 33  1  0
 11 12  1  0
 11 13  1  0
 11 34  1  1
 12 35  1  0
 12 36  1  0
 13 14  1  0
 13 37  1  0
 13 38  1  0
 14 15  1  0
 14 16  1  0
 14 39  1  6
 15 40  1  0
 15 41  1  0
 16 17  1  6
 17 42  1  0
M  CHG  1   4   1
M  END
>  <i_m_ct_stereo_status>  (45) 
1

>  <s_m_source_file>  (45) 
/var/tmp/pbs.5076255.sched01/tmp7v4tqmxt/0pyfftbwv.sdf

>  <i_m_source_file_index>  (45) 
16

>  <i_lp_mmshare_version>  (45) 
48012

>  <i_f3d_flags>  (45) 
0

>  <s_epik_input>  (45) 
W0NIM11bQ0BASF0xW0NIMl1OKFtDSDNdKVtDQEBIXShbQ0BAXTEyW09IXSlbQ0BIXTNbQ0gyXVtDQEBIXTRbQ0gyXVtDQEhdKFtDSDJdMylbQ0gyXVtDQEhdMltDSDJdNA==

>  <s_epik_cmdline>  (45) 
J2VwaWtfcHl0aG9uJywgJy1waHQnLCAnMi4wJywgJy1waCcsICc3LjAnLCAnLXRuJywgJzgnLCAnLW1hJywgJzIwMCcsICctaW1hZScsICc8aW5maWxlLm1hZT4nLCAnLW9tYWUnLCAnPG91dGZpbGUubWFlPic=

>  <r_epik_Ionization_Penalty>  (45) 
0.00151973

>  <r_epik_Ionization_Penalty_Charging>  (45) 
0.00151973

>  <r_epik_Ionization_Penalty_Neutral>  (45) 
2.90738e-09

>  <r_epik_State_Penalty>  (45) 
0.00101903

>  <r_epik_Charging_Adjusted_Penalty>  (45) 
0.00253876

>  <i_epik_Tot_Q>  (45) 
1

>  <i_epik_Tot_abs_Q>  (45) 
1

>  <s_lp_Force_Field>  (45) 
OPLS3e

>  <r_lp_Energy>  (45) 
116.374

>  <b_lp_Chiralities_Consistent>  (45) 
1

>  <s_lp_Variant>  (45) 
11:0-1

>  <s_i_glide_gridfile>  (45) 
pfpi4k_grid

>  <i_i_glide_lignum>  (45) 
16

>  <i_i_glide_rotatable_bonds>  (45) 
1

>  <r_i_docking_score>  (45) 
-3.63118

>  <r_i_glide_ligand_efficiency>  (45) 
-0.213599

>  <r_i_glide_ligand_efficiency_sa>  (45) 
-0.549223

>  <r_i_glide_ligand_efficiency_ln>  (45) 
-0.947295

>  <r_i_glide_gscore>  (45) 
-3.63118

>  <r_i_glide_lipo>  (45) 
-0.191503

>  <r_i_glide_hbond>  (45) 
-0.0858666

>  <r_i_glide_metal>  (45) 
-0

>  <r_i_glide_rewards>  (45) 
-1.79746

>  <r_i_glide_evdw>  (45) 
-13.1207

>  <r_i_glide_ecoul>  (45) 
-5.73956

>  <r_i_glide_erotb>  (45) 
0

>  <r_i_glide_esite>  (45) 
-0.0393884

>  <r_i_glide_emodel>  (45) 
-23.5827

>  <r_i_glide_energy>  (45) 
-18.8603

>  <r_i_glide_einternal>  (45) 
0.161763

>  <r_i_glide_intrahb_reward>  (45) 
-0

>  <i_i_glide_confnum>  (45) 
1

>  <i_i_glide_posenum>  (45) 
5

>  <r_i_glide_eff_state_penalty>  (45) 
0

>  <ligand_id>  (45) 
11

>  <original_smiles>  (45) 
CC1CN(C)C2C3CC4CC(C3)CC(C4)C12O

>  <smiles>  (45) 
[H]OC12C3([H])C([H])([H])C4([H])C([H])([H])C([H])(C3([H])[H])C([H])([H])C([H])(C4([H])[H])C1([H])[N+]([H])(C([H])([H])[H])C([H])([H])C2([H])C([H])([H])[H]

$$$$
12:0:0
     RDKit          3D

 83 87  0  0  1  0  0  0  0  0999 V2000
   -2.2238    3.2296    5.1092 C   0  0  0  0  0  0  0  0  0  0  0  0
   -1.2983    2.7669    6.2543 C   0  0  2  0  0  0  0  0  0  0  0  0
   -0.3032    3.8573    6.6700 C   0  0  0  0  0  0  0  0  0  0  0  0
    0.6627    4.2026    5.5314 C   0  0  0  0  0  0  0  0  0  0  0  0
    1.3965    3.0061    4.8514 C   0  0  1  0  0  0  0  0  0  0  0  0
    1.6518    3.4567    3.3906 C   0  0  0  0  0  0  0  0  0  0  0  0
    2.7621    2.7441    5.5138 C   0  0  0  0  0  0  0  0  0  0  0  0
    3.5395    1.5677    4.8719 C   0  0  0  0  0  0  0  0  0  0  0  0
    2.8056    0.1804    4.8911 C   0  0  1  0  0  0  0  0  0  0  0  0
    2.7372   -0.2515    6.3808 C   0  0  0  0  0  0  0  0  0  0  0  0
    1.3834    0.4671    4.3289 C   0  0  0  0  0  0  0  0  0  0  0  0
    0.9557   -0.1058    3.1960 C   0  0  0  0  0  0  0  0  0  0  0  0
    1.7457   -0.9982    2.2922 C   0  0  0  0  0  0  0  0  0  0  0  0
    3.2773   -1.0735    2.5407 C   0  0  1  0  0  0  0  0  0  0  0  0
    3.6222   -0.9898    4.0926 C   0  0  1  0  0  0  0  0  0  0  0  0
    5.1355   -0.7072    4.3643 C   0  0  0  0  0  0  0  0  0  0  0  0
    3.3331   -2.4309    4.6264 C   0  0  0  0  0  0  0  0  0  0  0  0
    4.0604   -3.5809    3.8812 C   0  0  0  0  0  0  0  0  0  0  0  0
    3.7259   -3.6923    2.3763 C   0  0  2  0  0  0  0  0  0  0  0  0
    2.2981   -4.3090    2.3016 C   0  0  0  0  0  0  0  0  0  0  0  0
    4.6031   -4.7951    1.7068 C   0  0  0  0  0  0  0  0  0  0  0  0
    6.0936   -4.4694    1.5749 C   0  0  0  0  0  0  0  0  0  0  0  0
    6.3092   -3.1760    0.7879 C   0  0  1  0  0  0  0  0  0  0  0  0
    6.2257   -3.3868   -0.7390 C   0  0  0  0  0  0  0  0  0  0  0  0
    5.4805   -2.0165    1.4057 C   0  0  1  0  0  0  0  0  0  0  0  0
    5.8581   -0.6775    0.7390 C   0  0  0  0  0  0  0  0  0  0  0  0
    3.9315   -2.2691    1.6693 C   0  0  2  0  0  0  0  0  0  0  0  0
    3.2812   -2.2941    0.2528 C   0  0  0  0  0  0  0  0  0  0  0  0
    0.5591    1.6830    4.8357 C   0  0  1  0  0  0  0  0  0  0  0  0
   -0.5377    1.4548    5.9409 C   0  0  1  0  0  0  0  0  0  0  0  0
   -0.1491    0.7749    7.2683 C   0  0  0  0  0  0  0  0  0  0  0  0
   -1.6823    3.4541    4.1866 H   0  0  0  0  0  0  0  0  0  0  0  0
   -2.7642    4.1310    5.3994 H   0  0  0  0  0  0  0  0  0  0  0  0
   -2.9667    2.4705    4.8644 H   0  0  0  0  0  0  0  0  0  0  0  0
   -1.9571    2.5901    7.1070 H   0  0  0  0  0  0  0  0  0  0  0  0
   -0.8412    4.7533    6.9805 H   0  0  0  0  0  0  0  0  0  0  0  0
    0.2634    3.5501    7.5439 H   0  0  0  0  0  0  0  0  0  0  0  0
    0.0941    4.7607    4.7871 H   0  0  0  0  0  0  0  0  0  0  0  0
    1.3930    4.9208    5.9018 H   0  0  0  0  0  0  0  0  0  0  0  0
    2.0862    2.6723    2.7714 H   0  0  0  0  0  0  0  0  0  0  0  0
    2.3174    4.3209    3.3526 H   0  0  0  0  0  0  0  0  0  0  0  0
    0.7212    3.7458    2.8957 H   0  0  0  0  0  0  0  0  0  0  0  0
    3.3763    3.6398    5.4371 H   0  0  0  0  0  0  0  0  0  0  0  0
    2.6325    2.5939    6.5833 H   0  0  0  0  0  0  0  0  0  0  0  0
    3.8068    1.8173    3.8440 H   0  0  0  0  0  0  0  0  0  0  0  0
    4.4852    1.5348    5.4087 H   0  0  0  0  0  0  0  0  0  0  0  0
    3.7080   -0.5465    6.7731 H   0  0  0  0  0  0  0  0  0  0  0  0
    2.0674   -1.0959    6.5244 H   0  0  0  0  0  0  0  0  0  0  0  0
    2.4193    0.5413    7.0394 H   0  0  0  0  0  0  0  0  0  0  0  0
   -0.0100    0.1607    2.7907 H   0  0  0  0  0  0  0  0  0  0  0  0
    1.2331   -1.9482    2.2972 H   0  0  0  0  0  0  0  0  0  0  0  0
    1.5879   -0.5699    1.3007 H   0  0  0  0  0  0  0  0  0  0  0  0
    3.6248   -0.1293    2.1284 H   0  0  0  0  0  0  0  0  0  0  0  0
    5.7796   -1.5731    4.3168 H   0  0  0  0  0  0  0  0  0  0  0  0
    5.3273   -0.3813    5.3835 H   0  0  0  0  0  0  0  0  0  0  0  0
    5.5363    0.0555    3.6967 H   0  0  0  0  0  0  0  0  0  0  0  0
    3.6373   -2.5278    5.6679 H   0  0  0  0  0  0  0  0  0  0  0  0
    2.2575   -2.6040    4.6194 H   0  0  0  0  0  0  0  0  0  0  0  0
    5.1351   -3.5029    4.0150 H   0  0  0  0  0  0  0  0  0  0  0  0
    3.8056   -4.5212    4.3697 H   0  0  0  0  0  0  0  0  0  0  0  0
    1.8997   -4.3412    1.2910 H   0  0  0  0  0  0  0  0  0  0  0  0
    1.5718   -3.8328    2.9500 H   0  0  0  0  0  0  0  0  0  0  0  0
    2.3115   -5.3434    2.6422 H   0  0  0  0  0  0  0  0  0  0  0  0
    4.5146   -5.7316    2.2596 H   0  0  0  0  0  0  0  0  0  0  0  0
    4.2160   -5.0178    0.7115 H   0  0  0  0  0  0  0  0  0  0  0  0
    6.5375   -4.3787    2.5627 H   0  0  0  0  0  0  0  0  0  0  0  0
    6.6175   -5.2983    1.0966 H   0  0  0  0  0  0  0  0  0  0  0  0
    7.3561   -2.9110    0.9534 H   0  0  0  0  0  0  0  0  0  0  0  0
    5.4103   -4.0463   -1.0366 H   0  0  0  0  0  0  0  0  0  0  0  0
    7.1464   -3.8487   -1.0905 H   0  0  0  0  0  0  0  0  0  0  0  0
    6.1346   -2.4527   -1.2913 H   0  0  0  0  0  0  0  0  0  0  0  0
    5.9522   -1.9559    2.3697 H   0  0  0  0  0  0  0  0  0  0  0  0
    5.4435   -0.5501   -0.2596 H   0  0  0  0  0  0  0  0  0  0  0  0
    6.9426   -0.6124    0.6490 H   0  0  0  0  0  0  0  0  0  0  0  0
    5.5559    0.1738    1.3405 H   0  0  0  0  0  0  0  0  0  0  0  0
    3.6526   -3.0917   -0.3762 H   0  0  0  0  0  0  0  0  0  0  0  0
    3.4195   -1.3597   -0.2879 H   0  0  0  0  0  0  0  0  0  0  0  0
    2.2096   -2.4608    0.2741 H   0  0  0  0  0  0  0  0  0  0  0  0
   -0.1091    1.8814    4.0011 H   0  0  0  0  0  0  0  0  0  0  0  0
   -1.2685    0.7760    5.4985 H   0  0  0  0  0  0  0  0  0  0  0  0
    0.6132    1.3268    7.8190 H   0  0  0  0  0  0  0  0  0  0  0  0
    0.1754   -0.2495    7.1122 H   0  0  0  0  0  0  0  0  0  0  0  0
   -1.0095    0.7100    7.9352 H   0  0  0  0  0  0  0  0  0  0  0  0
  1  2  1  0
  1 32  1  0
  1 33  1  0
  1 34  1  0
  2 30  1  0
  2  3  1  0
  2 35  1  1
  3  4  1  0
  3 36  1  0
  3 37  1  0
  4  5  1  0
  4 38  1  0
  4 39  1  0
  5 29  1  0
  5  6  1  6
  5  7  1  0
  6 40  1  0
  6 41  1  0
  6 42  1  0
  7  8  1  0
  7 43  1  0
  7 44  1  0
  8  9  1  0
  8 45  1  0
  8 46  1  0
  9 15  1  0
  9 10  1  1
  9 11  1  0
 10 47  1  0
 10 48  1  0
 10 49  1  0
 11 12  2  0
 11 29  1  0
 12 13  1  0
 12 50  1  0
 13 14  1  0
 13 51  1  0
 13 52  1  0
 14 27  1  0
 14 15  1  0
 14 53  1  6
 15 16  1  6
 15 17  1  0
 16 54  1  0
 16 55  1  0
 16 56  1  0
 17 18  1  0
 17 57  1  0
 17 58  1  0
 18 19  1  0
 18 59  1  0
 18 60  1  0
 19 27  1  0
 19 20  1  1
 19 21  1  0
 20 61  1  0
 20 62  1  0
 20 63  1  0
 21 22  1  0
 21 64  1  0
 21 65  1  0
 22 23  1  0
 22 66  1  0
 22 67  1  0
 23 24  1  0
 23 25  1  0
 23 68  1  6
 24 69  1  0
 24 70  1  0
 24 71  1  0
 25 26  1  0
 25 27  1  0
 25 72  1  1
 26 73  1  0
 26 74  1  0
 26 75  1  0
 27 28  1  6
 28 76  1  0
 28 77  1  0
 28 78  1  0
 29 30  1  0
 29 79  1  6
 30 31  1  0
 30 80  1  6
 31 81  1  0
 31 82  1  0
 31 83  1  0
M  END
>  <i_m_ct_stereo_status>  (46) 
1

>  <s_m_source_file>  (46) 
/var/tmp/pbs.5076255.sched01/tmp7v4tqmxt/0pyfftbwv.sdf

>  <i_m_source_file_index>  (46) 
18

>  <i_lp_mmshare_version>  (46) 
48012

>  <i_f3d_flags>  (46) 
0

>  <s_epik_input>  (46) 
W0NIMl0xW0NIMl1bQ0BASF0oW0NIM10pW0NASF0oW0NIM10pW0NAQEhdKFtDQEBdMTJbQ0gzXSlDPTNbQ0BdKFtDSDNdKShbQ0gyXVtDSDJdMilbQ0BdNChbQ0gzXSlbQ0BIXShbQ0gyXVtDSF0zKVtDQF01KFtDSDNdKVtDQF0oW0NIM10pKFtDSDJdW0NIMl00KVtDSDJdW0NIMl1bQ0BASF0oW0NIM10pW0NASF01W0NIM10=

>  <s_epik_cmdline>  (46) 
J2VwaWtfcHl0aG9uJywgJy1waHQnLCAnMi4wJywgJy1waCcsICc3LjAnLCAnLXRuJywgJzgnLCAnLW1hJywgJzIwMCcsICctaW1hZScsICc8aW5maWxlLm1hZT4nLCAnLW9tYWUnLCAnPG91dGZpbGUubWFlPic=

>  <r_lp_tautomer_probability>  (46) 
1

>  <r_epik_Ionization_Penalty>  (46) 
0

>  <r_epik_Ionization_Penalty_Charging>  (46) 
0

>  <r_epik_Ionization_Penalty_Neutral>  (46) 
0

>  <r_epik_State_Penalty>  (46) 
-0

>  <r_epik_Charging_Adjusted_Penalty>  (46) 
0

>  <i_epik_Tot_Q>  (46) 
0

>  <i_epik_Tot_abs_Q>  (46) 
0

>  <s_lp_Force_Field>  (46) 
OPLS3e

>  <r_lp_Energy>  (46) 
126.568

>  <b_lp_Chiralities_Consistent>  (46) 
1

>  <s_lp_Variant>  (46) 
12:0-1

>  <s_i_glide_gridfile>  (46) 
pfpi4k_grid

>  <i_i_glide_lignum>  (46) 
18

>  <i_i_glide_rotatable_bonds>  (46) 
0

>  <r_i_docking_score>  (46) 
-2.46727

>  <r_i_glide_ligand_efficiency>  (46) 
-0.0795895

>  <r_i_glide_ligand_efficiency_sa>  (46) 
-0.250021

>  <r_i_glide_ligand_efficiency_ln>  (46) 
-0.556446

>  <r_i_glide_gscore>  (46) 
-2.46727

>  <r_i_glide_lipo>  (46) 
-0.588589

>  <r_i_glide_hbond>  (46) 
0

>  <r_i_glide_metal>  (46) 
-0

>  <r_i_glide_rewards>  (46) 
-0.513105

>  <r_i_glide_evdw>  (46) 
-26.6805

>  <r_i_glide_ecoul>  (46) 
-0.210354

>  <r_i_glide_erotb>  (46) 
0

>  <r_i_glide_esite>  (46) 
0

>  <r_i_glide_emodel>  (46) 
-30.8713

>  <r_i_glide_energy>  (46) 
-26.8909

>  <r_i_glide_einternal>  (46) 
0

>  <r_i_glide_intrahb_reward>  (46) 
-0

>  <i_i_glide_confnum>  (46) 
2

>  <i_i_glide_posenum>  (46) 
12

>  <r_i_glide_eff_state_penalty>  (46) 
0

>  <ligand_id>  (46) 
12

>  <original_smiles>  (46) 
CC1CCC2(C)CCC3(C)C(=CCC4C3(C)CCC3(C)CCC(C)C(C)C43C)C2C1C

>  <smiles>  (46) 
[H]C1=C2C3([H])C([H])(C([H])([H])[H])C([H])(C([H])([H])[H])C([H])([H])C([H])([H])C3(C([H])([H])[H])C([H])([H])C([H])([H])C2(C([H])([H])[H])C2(C([H])([H])[H])C([H])([H])C([H])([H])C3(C([H])([H])[H])C([H])([H])C([H])([H])C([H])(C([H])([H])[H])C([H])(C([H])([H])[H])C3(C([H])([H])[H])C2([H])C1([H])[H]

$$$$
12:0:1
     RDKit          3D

 83 87  0  0  1  0  0  0  0  0999 V2000
    4.6395   -3.2109   -1.8056 C   0  0  0  0  0  0  0  0  0  0  0  0
    5.6569   -2.9679   -0.6697 C   0  0  2  0  0  0  0  0  0  0  0  0
    5.8835   -4.2140    0.2005 C   0  0  0  0  0  0  0  0  0  0  0  0
    4.6161   -4.6245    0.9460 C   0  0  0  0  0  0  0  0  0  0  0  0
    3.9032   -3.5049    1.7599 C   0  0  1  0  0  0  0  0  0  0  0  0
    2.4109   -3.9050    1.7513 C   0  0  0  0  0  0  0  0  0  0  0  0
    4.3735   -3.4870    3.2254 C   0  0  0  0  0  0  0  0  0  0  0  0
    3.6765   -2.4009    4.0827 C   0  0  0  0  0  0  0  0  0  0  0  0
    3.8543   -0.9246    3.5844 C   0  0  1  0  0  0  0  0  0  0  0  0
    5.3522   -0.5763    3.7676 C   0  0  0  0  0  0  0  0  0  0  0  0
    3.4934   -0.9593    2.0734 C   0  0  0  0  0  0  0  0  0  0  0  0
    2.4721   -0.2450    1.5946 C   0  0  0  0  0  0  0  0  0  0  0  0
    1.4881    0.5648    2.3764 C   0  0  0  0  0  0  0  0  0  0  0  0
    1.5166    0.3923    3.9226 C   0  0  1  0  0  0  0  0  0  0  0  0
    2.9997    0.1605    4.4590 C   0  0  1  0  0  0  0  0  0  0  0  0
    3.0477   -0.3538    5.9341 C   0  0  0  0  0  0  0  0  0  0  0  0
    3.6292    1.5887    4.4683 C   0  0  0  0  0  0  0  0  0  0  0  0
    2.8409    2.6683    5.2524 C   0  0  0  0  0  0  0  0  0  0  0  0
    1.4025    2.9196    4.7385 C   0  0  2  0  0  0  0  0  0  0  0  0
    1.5574    3.7402    3.4222 C   0  0  0  0  0  0  0  0  0  0  0  0
    0.6715    3.9230    5.6837 C   0  0  0  0  0  0  0  0  0  0  0  0
    0.3262    3.3896    7.0768 C   0  0  0  0  0  0  0  0  0  0  0  0
   -0.5466    2.1389    6.9898 C   0  0  1  0  0  0  0  0  0  0  0  0
   -2.0351    2.4756    6.7467 C   0  0  0  0  0  0  0  0  0  0  0  0
    0.1237    1.0719    6.0736 C   0  0  1  0  0  0  0  0  0  0  0  0
   -0.6312   -0.2725    6.1577 C   0  0  0  0  0  0  0  0  0  0  0  0
    0.6104    1.5329    4.6266 C   0  0  2  0  0  0  0  0  0  0  0  0
   -0.6966    1.7386    3.7924 C   0  0  0  0  0  0  0  0  0  0  0  0
    4.0483   -2.0737    1.1382 C   0  0  1  0  0  0  0  0  0  0  0  0
    5.2941   -1.7638    0.2301 C   0  0  1  0  0  0  0  0  0  0  0  0
    6.5764   -1.2455    0.8902 C   0  0  0  0  0  0  0  0  0  0  0  0
    3.6425   -3.4552   -1.4317 H   0  0  0  0  0  0  0  0  0  0  0  0
    4.9559   -4.0389   -2.4440 H   0  0  0  0  0  0  0  0  0  0  0  0
    4.5402   -2.3241   -2.4340 H   0  0  0  0  0  0  0  0  0  0  0  0
    6.6029   -2.7549   -1.1755 H   0  0  0  0  0  0  0  0  0  0  0  0
    6.2126   -5.0517   -0.4117 H   0  0  0  0  0  0  0  0  0  0  0  0
    6.6838   -4.0465    0.9164 H   0  0  0  0  0  0  0  0  0  0  0  0
    3.9398   -5.0425    0.1998 H   0  0  0  0  0  0  0  0  0  0  0  0
    4.8482   -5.4660    1.5959 H   0  0  0  0  0  0  0  0  0  0  0  0
    1.7752   -3.1477    2.2096 H   0  0  0  0  0  0  0  0  0  0  0  0
    2.2443   -4.8510    2.2696 H   0  0  0  0  0  0  0  0  0  0  0  0
    2.0555   -4.0251    0.7257 H   0  0  0  0  0  0  0  0  0  0  0  0
    4.1744   -4.4583    3.6763 H   0  0  0  0  0  0  0  0  0  0  0  0
    5.4563   -3.3891    3.2595 H   0  0  0  0  0  0  0  0  0  0  0  0
    2.6123   -2.6196    4.1683 H   0  0  0  0  0  0  0  0  0  0  0  0
    4.0770   -2.5417    5.0822 H   0  0  0  0  0  0  0  0  0  0  0  0
    5.6315   -0.4660    4.8122 H   0  0  0  0  0  0  0  0  0  0  0  0
    5.6222    0.3500    3.2655 H   0  0  0  0  0  0  0  0  0  0  0  0
    5.9970   -1.3516    3.3916 H   0  0  0  0  0  0  0  0  0  0  0  0
    2.2223   -0.3225    0.5444 H   0  0  0  0  0  0  0  0  0  0  0  0
    1.5989    1.5784    2.0230 H   0  0  0  0  0  0  0  0  0  0  0  0
    0.5183    0.2239    2.0125 H   0  0  0  0  0  0  0  0  0  0  0  0
    1.0193   -0.5629    4.0617 H   0  0  0  0  0  0  0  0  0  0  0  0
    2.9486    0.4072    6.6956 H   0  0  0  0  0  0  0  0  0  0  0  0
    4.0158   -0.7693    6.1996 H   0  0  0  0  0  0  0  0  0  0  0  0
    2.3005   -1.1240    6.1186 H   0  0  0  0  0  0  0  0  0  0  0  0
    4.6236    1.5782    4.9128 H   0  0  0  0  0  0  0  0  0  0  0  0
    3.7722    1.9145    3.4388 H   0  0  0  0  0  0  0  0  0  0  0  0
    2.8228    2.4295    6.3113 H   0  0  0  0  0  0  0  0  0  0  0  0
    3.4011    3.6007    5.2040 H   0  0  0  0  0  0  0  0  0  0  0  0
    0.6183    3.8901    2.8933 H   0  0  0  0  0  0  0  0  0  0  0  0
    2.2838    3.3401    2.7246 H   0  0  0  0  0  0  0  0  0  0  0  0
    1.9317    4.7398    3.6354 H   0  0  0  0  0  0  0  0  0  0  0  0
    1.2719    4.8229    5.8096 H   0  0  0  0  0  0  0  0  0  0  0  0
   -0.2484    4.2633    5.2093 H   0  0  0  0  0  0  0  0  0  0  0  0
    1.2381    3.1644    7.6285 H   0  0  0  0  0  0  0  0  0  0  0  0
   -0.1793    4.1631    7.6565 H   0  0  0  0  0  0  0  0  0  0  0  0
   -0.5389    1.7126    7.9958 H   0  0  0  0  0  0  0  0  0  0  0  0
   -2.1830    3.2368    5.9820 H   0  0  0  0  0  0  0  0  0  0  0  0
   -2.4820    2.8795    7.6572 H   0  0  0  0  0  0  0  0  0  0  0  0
   -2.6145    1.5959    6.4740 H   0  0  0  0  0  0  0  0  0  0  0  0
    1.0141    0.8882    6.6453 H   0  0  0  0  0  0  0  0  0  0  0  0
   -1.5737   -0.2734    5.6115 H   0  0  0  0  0  0  0  0  0  0  0  0
   -0.8556   -0.4966    7.1994 H   0  0  0  0  0  0  0  0  0  0  0  0
   -0.0361   -1.1112    5.8026 H   0  0  0  0  0  0  0  0  0  0  0  0
   -1.3339    2.5124    4.2009 H   0  0  0  0  0  0  0  0  0  0  0  0
   -1.2923    0.8311    3.7254 H   0  0  0  0  0  0  0  0  0  0  0  0
   -0.5238    2.0562    2.7661 H   0  0  0  0  0  0  0  0  0  0  0  0
    3.2995   -2.1179    0.3495 H   0  0  0  0  0  0  0  0  0  0  0  0
    4.9893   -0.9526   -0.4350 H   0  0  0  0  0  0  0  0  0  0  0  0
    6.9878   -1.9390    1.6236 H   0  0  0  0  0  0  0  0  0  0  0  0
    6.4030   -0.2739    1.3439 H   0  0  0  0  0  0  0  0  0  0  0  0
    7.3646   -1.0900    0.1536 H   0  0  0  0  0  0  0  0  0  0  0  0
  1  2  1  0
  1 32  1  0
  1 33  1  0
  1 34  1  0
  2 30  1  0
  2  3  1  0
  2 35  1  6
  3  4  1  0
  3 36  1  0
  3 37  1  0
  4  5  1  0
  4 38  1  0
  4 39  1  0
  5 29  1  0
  5  6  1  1
  5  7  1  0
  6 40  1  0
  6 41  1  0
  6 42  1  0
  7  8  1  0
  7 43  1  0
  7 44  1  0
  8  9  1  0
  8 45  1  0
  8 46  1  0
  9 15  1  0
  9 10  1  6
  9 11  1  0
 10 47  1  0
 10 48  1  0
 10 49  1  0
 11 12  2  0
 11 29  1  0
 12 13  1  0
 12 50  1  0
 13 14  1  0
 13 51  1  0
 13 52  1  0
 14 27  1  0
 14 15  1  0
 14 53  1  6
 15 16  1  1
 15 17  1  0
 16 54  1  0
 16 55  1  0
 16 56  1  0
 17 18  1  0
 17 57  1  0
 17 58  1  0
 18 19  1  0
 18 59  1  0
 18 60  1  0
 19 27  1  0
 19 20  1  6
 19 21  1  0
 20 61  1  0
 20 62  1  0
 20 63  1  0
 21 22  1  0
 21 64  1  0
 21 65  1  0
 22 23  1  0
 22 66  1  0
 22 67  1  0
 23 24  1  0
 23 25  1  0
 23 68  1  1
 24 69  1  0
 24 70  1  0
 24 71  1  0
 25 26  1  0
 25 27  1  0
 25 72  1  1
 26 73  1  0
 26 74  1  0
 26 75  1  0
 27 28  1  6
 28 76  1  0
 28 77  1  0
 28 78  1  0
 29 30  1  0
 29 79  1  6
 30 31  1  0
 30 80  1  6
 31 81  1  0
 31 82  1  0
 31 83  1  0
M  END
>  <i_m_ct_stereo_status>  (47) 
1

>  <s_m_source_file>  (47) 
/var/tmp/pbs.5076255.sched01/tmp7v4tqmxt/0pyfftbwv.sdf

>  <i_m_source_file_index>  (47) 
18

>  <i_lp_mmshare_version>  (47) 
48012

>  <i_f3d_flags>  (47) 
0

>  <s_epik_input>  (47) 
W0NIMl0xW0NIMl1bQ0BASF0oW0NIM10pW0NASF0oW0NIM10pW0NAQEhdKFtDQEBdMTJbQ0gzXSlDPTNbQ0BdKFtDSDNdKShbQ0gyXVtDSDJdMilbQ0BdNChbQ0gzXSlbQ0BIXShbQ0gyXVtDSF0zKVtDQF01KFtDSDNdKVtDQF0oW0NIM10pKFtDSDJdW0NIMl00KVtDSDJdW0NIMl1bQ0BASF0oW0NIM10pW0NASF01W0NIM10=

>  <s_epik_cmdline>  (47) 
J2VwaWtfcHl0aG9uJywgJy1waHQnLCAnMi4wJywgJy1waCcsICc3LjAnLCAnLXRuJywgJzgnLCAnLW1hJywgJzIwMCcsICctaW1hZScsICc8aW5maWxlLm1hZT4nLCAnLW9tYWUnLCAnPG91dGZpbGUubWFlPic=

>  <r_lp_tautomer_probability>  (47) 
1

>  <r_epik_Ionization_Penalty>  (47) 
0

>  <r_epik_Ionization_Penalty_Charging>  (47) 
0

>  <r_epik_Ionization_Penalty_Neutral>  (47) 
0

>  <r_epik_State_Penalty>  (47) 
-0

>  <r_epik_Charging_Adjusted_Penalty>  (47) 
0

>  <i_epik_Tot_Q>  (47) 
0

>  <i_epik_Tot_abs_Q>  (47) 
0

>  <s_lp_Force_Field>  (47) 
OPLS3e

>  <r_lp_Energy>  (47) 
126.568

>  <b_lp_Chiralities_Consistent>  (47) 
1

>  <s_lp_Variant>  (47) 
12:0-1

>  <s_i_glide_gridfile>  (47) 
pfpi4k_grid

>  <i_i_glide_lignum>  (47) 
18

>  <i_i_glide_rotatable_bonds>  (47) 
0

>  <r_i_docking_score>  (47) 
-2.34339

>  <r_i_glide_ligand_efficiency>  (47) 
-0.0755931

>  <r_i_glide_ligand_efficiency_sa>  (47) 
-0.237467

>  <r_i_glide_ligand_efficiency_ln>  (47) 
-0.528505

>  <r_i_glide_gscore>  (47) 
-2.34339

>  <r_i_glide_lipo>  (47) 
-0.394622

>  <r_i_glide_hbond>  (47) 
0

>  <r_i_glide_metal>  (47) 
-0

>  <r_i_glide_rewards>  (47) 
-0.513105

>  <r_i_glide_evdw>  (47) 
-27.6165

>  <r_i_glide_ecoul>  (47) 
-0.365539

>  <r_i_glide_erotb>  (47) 
0

>  <r_i_glide_esite>  (47) 
0

>  <r_i_glide_emodel>  (47) 
-31.7582

>  <r_i_glide_energy>  (47) 
-27.9821

>  <r_i_glide_einternal>  (47) 
0

>  <r_i_glide_intrahb_reward>  (47) 
-0

>  <i_i_glide_confnum>  (47) 
1

>  <i_i_glide_posenum>  (47) 
20

>  <r_i_glide_eff_state_penalty>  (47) 
0

>  <ligand_id>  (47) 
12

>  <original_smiles>  (47) 
CC1CCC2(C)CCC3(C)C(=CCC4C3(C)CCC3(C)CCC(C)C(C)C43C)C2C1C

>  <smiles>  (47) 
[H]C1=C2C3([H])C([H])(C([H])([H])[H])C([H])(C([H])([H])[H])C([H])([H])C([H])([H])C3(C([H])([H])[H])C([H])([H])C([H])([H])C2(C([H])([H])[H])C2(C([H])([H])[H])C([H])([H])C([H])([H])C3(C([H])([H])[H])C([H])([H])C([H])([H])C([H])(C([H])([H])[H])C([H])(C([H])([H])[H])C3(C([H])([H])[H])C2([H])C1([H])[H]

$$$$
12:0:2
     RDKit          3D

 83 87  0  0  1  0  0  0  0  0999 V2000
    1.5628    1.8767    6.1359 C   0  0  0  0  0  0  0  0  0  0  0  0
    2.9803    1.3329    5.8524 C   0  0  2  0  0  0  0  0  0  0  0  0
    3.5061    1.7615    4.4774 C   0  0  0  0  0  0  0  0  0  0  0  0
    2.6654    1.1773    3.3371 C   0  0  0  0  0  0  0  0  0  0  0  0
    2.4078   -0.3599    3.3835 C   0  0  1  0  0  0  0  0  0  0  0  0
    1.0336   -0.5620    2.6947 C   0  0  0  0  0  0  0  0  0  0  0  0
    3.4691   -1.1273    2.5698 C   0  0  0  0  0  0  0  0  0  0  0  0
    3.2551   -2.6626    2.5738 C   0  0  0  0  0  0  0  0  0  0  0  0
    3.2588   -3.3439    3.9875 C   0  0  1  0  0  0  0  0  0  0  0  0
    4.7080   -3.2153    4.5274 C   0  0  0  0  0  0  0  0  0  0  0  0
    2.2721   -2.4989    4.8445 C   0  0  0  0  0  0  0  0  0  0  0  0
    1.1579   -3.0369    5.3576 C   0  0  0  0  0  0  0  0  0  0  0  0
    0.6596   -4.4313    5.1458 C   0  0  0  0  0  0  0  0  0  0  0  0
    1.3492   -5.2599    4.0248 C   0  0  1  0  0  0  0  0  0  0  0  0
    2.9078   -4.9403    3.9353 C   0  0  1  0  0  0  0  0  0  0  0  0
    3.5678   -5.4761    2.6216 C   0  0  0  0  0  0  0  0  0  0  0  0
    3.5324   -5.7559    5.1141 C   0  0  0  0  0  0  0  0  0  0  0  0
    3.1997   -7.2727    5.1270 C   0  0  0  0  0  0  0  0  0  0  0  0
    1.6915   -7.6068    5.2283 C   0  0  2  0  0  0  0  0  0  0  0  0
    1.2896   -7.3265    6.7078 C   0  0  0  0  0  0  0  0  0  0  0  0
    1.4786   -9.1487    5.1037 C   0  0  0  0  0  0  0  0  0  0  0  0
    1.7498   -9.7446    3.7205 C   0  0  0  0  0  0  0  0  0  0  0  0
    0.8788   -9.0826    2.6550 C   0  0  1  0  0  0  0  0  0  0  0  0
   -0.5564   -9.6497    2.6303 C   0  0  0  0  0  0  0  0  0  0  0  0
    1.0504   -7.5368    2.6941 C   0  0  1  0  0  0  0  0  0  0  0  0
    0.3549   -6.8858    1.4770 C   0  0  0  0  0  0  0  0  0  0  0  0
    0.8804   -6.8079    4.1033 C   0  0  2  0  0  0  0  0  0  0  0  0
   -0.6466   -6.8697    4.4283 C   0  0  0  0  0  0  0  0  0  0  0  0
    2.3394   -0.9452    4.8342 C   0  0  1  0  0  0  0  0  0  0  0  0
    3.0966   -0.2035    5.9976 C   0  0  1  0  0  0  0  0  0  0  0  0
    4.5615   -0.5688    6.3029 C   0  0  0  0  0  0  0  0  0  0  0  0
    0.8159    1.4956    5.4365 H   0  0  0  0  0  0  0  0  0  0  0  0
    1.5433    2.9660    6.0642 H   0  0  0  0  0  0  0  0  0  0  0  0
    1.2364    1.6062    7.1410 H   0  0  0  0  0  0  0  0  0  0  0  0
    3.6217    1.8014    6.6020 H   0  0  0  0  0  0  0  0  0  0  0  0
    3.5150    2.8502    4.4007 H   0  0  0  0  0  0  0  0  0  0  0  0
    4.5437    1.4578    4.3520 H   0  0  0  0  0  0  0  0  0  0  0  0
    1.7192    1.7164    3.3367 H   0  0  0  0  0  0  0  0  0  0  0  0
    3.1256    1.4474    2.3874 H   0  0  0  0  0  0  0  0  0  0  0  0
    0.6883   -1.5952    2.7343 H   0  0  0  0  0  0  0  0  0  0  0  0
    1.0710   -0.2618    1.6459 H   0  0  0  0  0  0  0  0  0  0  0  0
    0.2556    0.0377    3.1728 H   0  0  0  0  0  0  0  0  0  0  0  0
    3.4490   -0.7811    1.5372 H   0  0  0  0  0  0  0  0  0  0  0  0
    4.4627   -0.8648    2.9245 H   0  0  0  0  0  0  0  0  0  0  0  0
    2.3261   -2.9067    2.0598 H   0  0  0  0  0  0  0  0  0  0  0  0
    4.0434   -3.0520    1.9344 H   0  0  0  0  0  0  0  0  0  0  0  0
    5.4060   -3.8673    4.0068 H   0  0  0  0  0  0  0  0  0  0  0  0
    4.7699   -3.4676    5.5843 H   0  0  0  0  0  0  0  0  0  0  0  0
    5.1266   -2.2291    4.3978 H   0  0  0  0  0  0  0  0  0  0  0  0
    0.4621   -2.4122    5.8963 H   0  0  0  0  0  0  0  0  0  0  0  0
    0.6551   -4.8945    6.1208 H   0  0  0  0  0  0  0  0  0  0  0  0
   -0.3846   -4.2936    4.8723 H   0  0  0  0  0  0  0  0  0  0  0  0
    0.9300   -4.8280    3.1209 H   0  0  0  0  0  0  0  0  0  0  0  0
    3.8357   -6.5241    2.6259 H   0  0  0  0  0  0  0  0  0  0  0  0
    4.5391   -5.0306    2.4276 H   0  0  0  0  0  0  0  0  0  0  0  0
    2.9461   -5.2880    1.7477 H   0  0  0  0  0  0  0  0  0  0  0  0
    4.6203   -5.7023    5.0922 H   0  0  0  0  0  0  0  0  0  0  0  0
    3.2385   -5.3033    6.0605 H   0  0  0  0  0  0  0  0  0  0  0  0
    3.6301   -7.7610    4.2583 H   0  0  0  0  0  0  0  0  0  0  0  0
    3.7231   -7.7317    5.9650 H   0  0  0  0  0  0  0  0  0  0  0  0
    0.2217   -7.4176    6.8954 H   0  0  0  0  0  0  0  0  0  0  0  0
    1.6313   -6.3716    7.0905 H   0  0  0  0  0  0  0  0  0  0  0  0
    1.7620   -8.0500    7.3714 H   0  0  0  0  0  0  0  0  0  0  0  0
    2.1054   -9.6763    5.8231 H   0  0  0  0  0  0  0  0  0  0  0  0
    0.4579   -9.4037    5.3898 H   0  0  0  0  0  0  0  0  0  0  0  0
    2.8016   -9.6316    3.4612 H   0  0  0  0  0  0  0  0  0  0  0  0
    1.5702  -10.8211    3.7392 H   0  0  0  0  0  0  0  0  0  0  0  0
    1.3010   -9.4029    1.6986 H   0  0  0  0  0  0  0  0  0  0  0  0
   -0.9874   -9.7770    3.6213 H   0  0  0  0  0  0  0  0  0  0  0  0
   -0.5462  -10.6452    2.1820 H   0  0  0  0  0  0  0  0  0  0  0  0
   -1.2366   -9.0476    2.0287 H   0  0  0  0  0  0  0  0  0  0  0  0
    2.0933   -7.4733    2.4416 H   0  0  0  0  0  0  0  0  0  0  0  0
   -0.7280   -6.8523    1.5713 H   0  0  0  0  0  0  0  0  0  0  0  0
    0.5760   -7.4514    0.5710 H   0  0  0  0  0  0  0  0  0  0  0  0
    0.7201   -5.8796    1.2918 H   0  0  0  0  0  0  0  0  0  0  0  0
   -1.0133   -7.8846    4.5262 H   0  0  0  0  0  0  0  0  0  0  0  0
   -1.2517   -6.3849    3.6684 H   0  0  0  0  0  0  0  0  0  0  0  0
   -0.9217   -6.4008    5.3693 H   0  0  0  0  0  0  0  0  0  0  0  0
    1.3275   -0.6599    5.1144 H   0  0  0  0  0  0  0  0  0  0  0  0
    2.5666   -0.4660    6.9153 H   0  0  0  0  0  0  0  0  0  0  0  0
    5.2283   -0.3948    5.4581 H   0  0  0  0  0  0  0  0  0  0  0  0
    4.6552   -1.5950    6.6449 H   0  0  0  0  0  0  0  0  0  0  0  0
    4.9443    0.0411    7.1220 H   0  0  0  0  0  0  0  0  0  0  0  0
  1  2  1  0
  1 32  1  0
  1 33  1  0
  1 34  1  0
  2 30  1  0
  2  3  1  0
  2 35  1  1
  3  4  1  0
  3 36  1  0
  3 37  1  0
  4  5  1  0
  4 38  1  0
  4 39  1  0
  5 29  1  0
  5  6  1  6
  5  7  1  0
  6 40  1  0
  6 41  1  0
  6 42  1  0
  7  8  1  0
  7 43  1  0
  7 44  1  0
  8  9  1  0
  8 45  1  0
  8 46  1  0
  9 15  1  0
  9 10  1  1
  9 11  1  0
 10 47  1  0
 10 48  1  0
 10 49  1  0
 11 12  2  0
 11 29  1  0
 12 13  1  0
 12 50  1  0
 13 14  1  0
 13 51  1  0
 13 52  1  0
 14 27  1  0
 14 15  1  0
 14 53  1  6
 15 16  1  6
 15 17  1  0
 16 54  1  0
 16 55  1  0
 16 56  1  0
 17 18  1  0
 17 57  1  0
 17 58  1  0
 18 19  1  0
 18 59  1  0
 18 60  1  0
 19 27  1  0
 19 20  1  1
 19 21  1  0
 20 61  1  0
 20 62  1  0
 20 63  1  0
 21 22  1  0
 21 64  1  0
 21 65  1  0
 22 23  1  0
 22 66  1  0
 22 67  1  0
 23 24  1  0
 23 25  1  0
 23 68  1  6
 24 69  1  0
 24 70  1  0
 24 71  1  0
 25 26  1  0
 25 27  1  0
 25 72  1  6
 26 73  1  0
 26 74  1  0
 26 75  1  0
 27 28  1  1
 28 76  1  0
 28 77  1  0
 28 78  1  0
 29 30  1  0
 29 79  1  1
 30 31  1  0
 30 80  1  1
 31 81  1  0
 31 82  1  0
 31 83  1  0
M  END
>  <i_m_ct_stereo_status>  (48) 
1

>  <s_m_source_file>  (48) 
/var/tmp/pbs.5076255.sched01/tmp7v4tqmxt/0pyfftbwv.sdf

>  <i_m_source_file_index>  (48) 
18

>  <i_lp_mmshare_version>  (48) 
48012

>  <i_f3d_flags>  (48) 
0

>  <s_epik_input>  (48) 
W0NIMl0xW0NIMl1bQ0BASF0oW0NIM10pW0NASF0oW0NIM10pW0NAQEhdKFtDQEBdMTJbQ0gzXSlDPTNbQ0BdKFtDSDNdKShbQ0gyXVtDSDJdMilbQ0BdNChbQ0gzXSlbQ0BIXShbQ0gyXVtDSF0zKVtDQF01KFtDSDNdKVtDQF0oW0NIM10pKFtDSDJdW0NIMl00KVtDSDJdW0NIMl1bQ0BASF0oW0NIM10pW0NASF01W0NIM10=

>  <s_epik_cmdline>  (48) 
J2VwaWtfcHl0aG9uJywgJy1waHQnLCAnMi4wJywgJy1waCcsICc3LjAnLCAnLXRuJywgJzgnLCAnLW1hJywgJzIwMCcsICctaW1hZScsICc8aW5maWxlLm1hZT4nLCAnLW9tYWUnLCAnPG91dGZpbGUubWFlPic=

>  <r_lp_tautomer_probability>  (48) 
1

>  <r_epik_Ionization_Penalty>  (48) 
0

>  <r_epik_Ionization_Penalty_Charging>  (48) 
0

>  <r_epik_Ionization_Penalty_Neutral>  (48) 
0

>  <r_epik_State_Penalty>  (48) 
-0

>  <r_epik_Charging_Adjusted_Penalty>  (48) 
0

>  <i_epik_Tot_Q>  (48) 
0

>  <i_epik_Tot_abs_Q>  (48) 
0

>  <s_lp_Force_Field>  (48) 
OPLS3e

>  <r_lp_Energy>  (48) 
126.568

>  <b_lp_Chiralities_Consistent>  (48) 
1

>  <s_lp_Variant>  (48) 
12:0-1

>  <s_i_glide_gridfile>  (48) 
pfpi4k_grid

>  <i_i_glide_lignum>  (48) 
18

>  <i_i_glide_rotatable_bonds>  (48) 
0

>  <r_i_docking_score>  (48) 
-1.86624

>  <r_i_glide_ligand_efficiency>  (48) 
-0.0602013

>  <r_i_glide_ligand_efficiency_sa>  (48) 
-0.189115

>  <r_i_glide_ligand_efficiency_ln>  (48) 
-0.420895

>  <r_i_glide_gscore>  (48) 
-1.86624

>  <r_i_glide_lipo>  (48) 
-0.0579791

>  <r_i_glide_hbond>  (48) 
0

>  <r_i_glide_metal>  (48) 
-0

>  <r_i_glide_rewards>  (48) 
-0.513105

>  <r_i_glide_evdw>  (48) 
-26.5503

>  <r_i_glide_ecoul>  (48) 
0.21571

>  <r_i_glide_erotb>  (48) 
0

>  <r_i_glide_esite>  (48) 
0

>  <r_i_glide_emodel>  (48) 
-29.3324

>  <r_i_glide_energy>  (48) 
-26.3346

>  <r_i_glide_einternal>  (48) 
0

>  <r_i_glide_intrahb_reward>  (48) 
-0

>  <i_i_glide_confnum>  (48) 
1

>  <i_i_glide_posenum>  (48) 
2

>  <r_i_glide_eff_state_penalty>  (48) 
0

>  <ligand_id>  (48) 
12

>  <original_smiles>  (48) 
CC1CCC2(C)CCC3(C)C(=CCC4C3(C)CCC3(C)CCC(C)C(C)C43C)C2C1C

>  <smiles>  (48) 
[H]C1=C2C3([H])C([H])(C([H])([H])[H])C([H])(C([H])([H])[H])C([H])([H])C([H])([H])C3(C([H])([H])[H])C([H])([H])C([H])([H])C2(C([H])([H])[H])C2(C([H])([H])[H])C([H])([H])C([H])([H])C3(C([H])([H])[H])C([H])([H])C([H])([H])C([H])(C([H])([H])[H])C([H])(C([H])([H])[H])C3(C([H])([H])[H])C2([H])C1([H])[H]

$$$$
13:0:0
     RDKit          3D

 38 41  0  0  1  0  0  0  0  0999 V2000
    2.2089   -4.6583   -0.3172 C   0  0  0  0  0  0  0  0  0  0  0  0
    2.2791   -5.7801    0.5977 N   0  0  0  0  0  0  0  0  0  0  0  0
    1.1061   -6.2574    1.1454 N   0  0  0  0  0  0  0  0  0  0  0  0
    1.4720   -7.2490    1.9526 C   0  0  0  0  0  0  0  0  0  0  0  0
    2.8651   -7.4230    1.8935 C   0  0  0  0  0  0  0  0  0  0  0  0
    3.7556   -8.3229    2.5225 C   0  0  0  0  0  0  0  0  0  0  0  0
    3.3891   -9.3449    3.4236 N   0  0  0  0  0  0  0  0  0  0  0  0
    2.3946  -10.2851    2.9128 C   0  0  0  0  0  0  0  0  0  0  0  0
    2.2115  -11.4812    3.8650 C   0  0  0  0  0  0  0  0  0  0  0  0
    1.9638  -11.0518    5.2656 N   0  0  2  0  0  0  0  0  0  0  0  0
    0.6148  -10.5404    5.5688 C   0  0  0  0  0  0  0  0  0  0  0  0
    0.7615   -9.7335    6.8643 C   0  0  0  0  0  0  0  0  0  0  0  0
    2.2794   -9.5911    7.0938 C   0  0  0  0  0  0  0  0  0  0  0  0
    2.9215  -10.0576    5.7830 C   0  0  2  0  0  0  0  0  0  0  0  0
    3.1254   -8.8810    4.7850 C   0  0  0  0  0  0  0  0  0  0  0  0
    5.1190   -8.1548    2.1694 C   0  0  0  0  0  0  0  0  0  0  0  0
    5.5653   -7.2094    1.3028 N   0  0  0  0  0  0  0  0  0  0  0  0
    4.7335   -6.3398    0.7078 N   0  0  0  0  0  0  0  0  0  0  0  0
    3.4133   -6.4779    1.0199 C   0  0  0  0  0  0  0  0  0  0  0  0
    3.2002   -4.4368   -0.7192 H   0  0  0  0  0  0  0  0  0  0  0  0
    1.8369   -3.7705    0.1977 H   0  0  0  0  0  0  0  0  0  0  0  0
    1.5317   -4.9012   -1.1373 H   0  0  0  0  0  0  0  0  0  0  0  0
    0.7939   -7.8182    2.5630 H   0  0  0  0  0  0  0  0  0  0  0  0
    1.4369   -9.7769    2.8272 H   0  0  0  0  0  0  0  0  0  0  0  0
    2.6663  -10.6230    1.9128 H   0  0  0  0  0  0  0  0  0  0  0  0
    1.4146  -12.1400    3.5126 H   0  0  0  0  0  0  0  0  0  0  0  0
    3.1281  -12.0677    3.8548 H   0  0  0  0  0  0  0  0  0  0  0  0
    0.2522   -9.8849    4.7782 H   0  0  0  0  0  0  0  0  0  0  0  0
   -0.0872  -11.3637    5.6834 H   0  0  0  0  0  0  0  0  0  0  0  0
    0.2686   -8.7668    6.7744 H   0  0  0  0  0  0  0  0  0  0  0  0
    0.2947  -10.2528    7.7024 H   0  0  0  0  0  0  0  0  0  0  0  0
    2.5618   -8.5776    7.3772 H   0  0  0  0  0  0  0  0  0  0  0  0
    2.5695  -10.2597    7.9070 H   0  0  0  0  0  0  0  0  0  0  0  0
    3.8731  -10.5495    5.9815 H   0  0  0  0  0  0  0  0  0  0  0  0
    3.9441   -8.2530    5.1321 H   0  0  0  0  0  0  0  0  0  0  0  0
    2.2316   -8.2522    4.7560 H   0  0  0  0  0  0  0  0  0  0  0  0
    5.8799   -8.7997    2.5832 H   0  0  0  0  0  0  0  0  0  0  0  0
    2.0473  -11.8557    5.8817 H   0  0  0  0  0  0  0  0  0  0  0  0
  1  2  1  0
  1 20  1  0
  1 21  1  0
  1 22  1  0
  2 19  1  0
  2  3  1  0
  3  4  2  0
  4  5  1  0
  4 23  1  0
  5 19  2  0
  5  6  1  0
  6  7  1  0
  6 16  2  0
  7 15  1  0
  7  8  1  0
  8  9  1  0
  8 24  1  0
  8 25  1  0
  9 10  1  0
  9 26  1  0
  9 27  1  0
 10 14  1  0
 10 11  1  0
 10 38  1  1
 11 12  1  0
 11 28  1  0
 11 29  1  0
 12 13  1  0
 12 30  1  0
 12 31  1  0
 13 14  1  0
 13 32  1  0
 13 33  1  0
 14 15  1  0
 14 34  1  1
 15 35  1  0
 15 36  1  0
 16 17  1  0
 16 37  1  0
 17 18  2  0
 18 19  1  0
M  CHG  1  10   1
M  END
>  <i_m_ct_stereo_status>  (49) 
1

>  <s_m_source_file>  (49) 
/var/tmp/pbs.5076255.sched01/tmp7v4tqmxt/0pyfftbwv.sdf

>  <i_m_source_file_index>  (49) 
19

>  <i_lp_mmshare_version>  (49) 
48012

>  <i_f3d_flags>  (49) 
0

>  <s_epik_input>  (49) 
W2NIXTFubihbQ0gzXSljKGMxMilubltjSF1jMk4oW0NIMl1bQ0gyXTMpW0NIMl1bQ0BIXShOMzQpW0NIMl1bQ0gyXVtDSDJdNA==

>  <s_epik_cmdline>  (49) 
J2VwaWtfcHl0aG9uJywgJy1waHQnLCAnMi4wJywgJy1waCcsICc3LjAnLCAnLXRuJywgJzgnLCAnLW1hJywgJzIwMCcsICctaW1hZScsICc8aW5maWxlLm1hZT4nLCAnLW9tYWUnLCAnPG91dGZpbGUubWFlPic=

>  <r_epik_Ionization_Penalty>  (49) 
0.00107161

>  <r_epik_Ionization_Penalty_Charging>  (49) 
0.00107148

>  <r_epik_Ionization_Penalty_Neutral>  (49) 
1.30652e-07

>  <r_epik_State_Penalty>  (49) 
0.000701724

>  <r_epik_Charging_Adjusted_Penalty>  (49) 
0.00177321

>  <i_epik_Tot_Q>  (49) 
1

>  <i_epik_Tot_abs_Q>  (49) 
1

>  <s_lp_Force_Field>  (49) 
OPLS3e

>  <r_lp_Energy>  (49) 
47.9004

>  <b_lp_Chiralities_Consistent>  (49) 
1

>  <s_lp_Variant>  (49) 
13:0-1

>  <s_i_glide_gridfile>  (49) 
pfpi4k_grid

>  <i_i_glide_lignum>  (49) 
19

>  <i_i_glide_rotatable_bonds>  (49) 
1

>  <r_i_docking_score>  (49) 
-4.14131

>  <r_i_glide_ligand_efficiency>  (49) 
-0.217964

>  <r_i_glide_ligand_efficiency_sa>  (49) 
-0.581615

>  <r_i_glide_ligand_efficiency_ln>  (49) 
-1.04991

>  <r_i_glide_gscore>  (49) 
-4.14131

>  <r_i_glide_lipo>  (49) 
-0.0344975

>  <r_i_glide_hbond>  (49) 
-0.300521

>  <r_i_glide_metal>  (49) 
-0

>  <r_i_glide_rewards>  (49) 
-1.6986

>  <r_i_glide_evdw>  (49) 
-18.2446

>  <r_i_glide_ecoul>  (49) 
-8.77719

>  <r_i_glide_erotb>  (49) 
0.262917

>  <r_i_glide_esite>  (49) 
-0.141802

>  <r_i_glide_emodel>  (49) 
-36.4057

>  <r_i_glide_energy>  (49) 
-27.0218

>  <r_i_glide_einternal>  (49) 
2.73896

>  <r_i_glide_intrahb_reward>  (49) 
-0

>  <i_i_glide_confnum>  (49) 
4

>  <i_i_glide_posenum>  (49) 
28

>  <r_i_glide_eff_state_penalty>  (49) 
0

>  <ligand_id>  (49) 
13

>  <original_smiles>  (49) 
Cn1ncc2c(N3CCN4CCCC4C3)cnnc21

>  <smiles>  (49) 
[H]c1nnc2c(c([H])nn2C([H])([H])[H])c1N1C([H])([H])C([H])([H])[N+]2([H])C([H])([H])C([H])([H])C([H])([H])C2([H])C1([H])[H]

$$$$
13:0:1
     RDKit          3D

 38 41  0  0  1  0  0  0  0  0999 V2000
    4.4981   -4.1231   -0.4528 C   0  0  0  0  0  0  0  0  0  0  0  0
    3.8810   -5.1882    0.3137 N   0  0  0  0  0  0  0  0  0  0  0  0
    2.5123   -5.1773    0.4851 N   0  0  0  0  0  0  0  0  0  0  0  0
    2.2331   -6.2507    1.2079 C   0  0  0  0  0  0  0  0  0  0  0  0
    3.4152   -6.9467    1.5025 C   0  0  0  0  0  0  0  0  0  0  0  0
    3.6838   -8.1304    2.2285 C   0  0  0  0  0  0  0  0  0  0  0  0
    2.7197   -8.9283    2.8800 N   0  0  0  0  0  0  0  0  0  0  0  0
    1.8553   -9.6782    1.9753 C   0  0  0  0  0  0  0  0  0  0  0  0
    0.9806  -10.6908    2.7433 C   0  0  0  0  0  0  0  0  0  0  0  0
    0.2492  -10.0593    3.8654 N   0  0  2  0  0  0  0  0  0  0  0  0
   -0.9207   -9.2337    3.5011 C   0  0  0  0  0  0  0  0  0  0  0  0
   -1.1690   -8.3359    4.7168 C   0  0  0  0  0  0  0  0  0  0  0  0
    0.0666   -8.4915    5.6194 C   0  0  0  0  0  0  0  0  0  0  0  0
    1.0908   -9.2378    4.7613 C   0  0  2  0  0  0  0  0  0  0  0  0
    1.9941   -8.2615    3.9587 C   0  0  0  0  0  0  0  0  0  0  0  0
    5.0514   -8.4995    2.2729 C   0  0  0  0  0  0  0  0  0  0  0  0
    6.0499   -7.7865    1.6904 N   0  0  0  0  0  0  0  0  0  0  0  0
    5.8096   -6.6508    1.0130 N   0  0  0  0  0  0  0  0  0  0  0  0
    4.5037   -6.2750    0.9324 C   0  0  0  0  0  0  0  0  0  0  0  0
    5.5748   -4.2885   -0.5258 H   0  0  0  0  0  0  0  0  0  0  0  0
    4.3207   -3.1632    0.0365 H   0  0  0  0  0  0  0  0  0  0  0  0
    4.0782   -4.0989   -1.4605 H   0  0  0  0  0  0  0  0  0  0  0  0
    1.2449   -6.5424    1.5179 H   0  0  0  0  0  0  0  0  0  0  0  0
    1.2170   -8.9651    1.4525 H   0  0  0  0  0  0  0  0  0  0  0  0
    2.4499  -10.1881    1.2151 H   0  0  0  0  0  0  0  0  0  0  0  0
    0.2755  -11.1995    2.0836 H   0  0  0  0  0  0  0  0  0  0  0  0
    1.6295  -11.4557    3.1656 H   0  0  0  0  0  0  0  0  0  0  0  0
   -0.7048   -8.6176    2.6305 H   0  0  0  0  0  0  0  0  0  0  0  0
   -1.7835   -9.8528    3.2638 H   0  0  0  0  0  0  0  0  0  0  0  0
   -1.3279   -7.3001    4.4136 H   0  0  0  0  0  0  0  0  0  0  0  0
   -2.0572   -8.6705    5.2475 H   0  0  0  0  0  0  0  0  0  0  0  0
    0.4361   -7.5335    5.9885 H   0  0  0  0  0  0  0  0  0  0  0  0
   -0.2060   -9.1023    6.4827 H   0  0  0  0  0  0  0  0  0  0  0  0
    1.7043   -9.8938    5.3802 H   0  0  0  0  0  0  0  0  0  0  0  0
    2.6997   -7.7756    4.6304 H   0  0  0  0  0  0  0  0  0  0  0  0
    1.3794   -7.4734    3.5210 H   0  0  0  0  0  0  0  0  0  0  0  0
    5.3710   -9.3849    2.8025 H   0  0  0  0  0  0  0  0  0  0  0  0
   -0.1329  -10.7963    4.4449 H   0  0  0  0  0  0  0  0  0  0  0  0
  1  2  1  0
  1 20  1  0
  1 21  1  0
  1 22  1  0
  2 19  1  0
  2  3  1  0
  3  4  2  0
  4  5  1  0
  4 23  1  0
  5 19  2  0
  5  6  1  0
  6  7  1  0
  6 16  2  0
  7 15  1  0
  7  8  1  0
  8  9  1  0
  8 24  1  0
  8 25  1  0
  9 10  1  0
  9 26  1  0
  9 27  1  0
 10 14  1  0
 10 11  1  0
 10 38  1  1
 11 12  1  0
 11 28  1  0
 11 29  1  0
 12 13  1  0
 12 30  1  0
 12 31  1  0
 13 14  1  0
 13 32  1  0
 13 33  1  0
 14 15  1  0
 14 34  1  1
 15 35  1  0
 15 36  1  0
 16 17  1  0
 16 37  1  0
 17 18  2  0
 18 19  1  0
M  CHG  1  10   1
M  END
>  <i_m_ct_stereo_status>  (50) 
1

>  <s_m_source_file>  (50) 
/var/tmp/pbs.5076255.sched01/tmp7v4tqmxt/0pyfftbwv.sdf

>  <i_m_source_file_index>  (50) 
19

>  <i_lp_mmshare_version>  (50) 
48012

>  <i_f3d_flags>  (50) 
0

>  <s_epik_input>  (50) 
W2NIXTFubihbQ0gzXSljKGMxMilubltjSF1jMk4oW0NIMl1bQ0gyXTMpW0NIMl1bQ0BIXShOMzQpW0NIMl1bQ0gyXVtDSDJdNA==

>  <s_epik_cmdline>  (50) 
J2VwaWtfcHl0aG9uJywgJy1waHQnLCAnMi4wJywgJy1waCcsICc3LjAnLCAnLXRuJywgJzgnLCAnLW1hJywgJzIwMCcsICctaW1hZScsICc8aW5maWxlLm1hZT4nLCAnLW9tYWUnLCAnPG91dGZpbGUubWFlPic=

>  <r_epik_Ionization_Penalty>  (50) 
0.00107161

>  <r_epik_Ionization_Penalty_Charging>  (50) 
0.00107148

>  <r_epik_Ionization_Penalty_Neutral>  (50) 
1.30652e-07

>  <r_epik_State_Penalty>  (50) 
0.000701724

>  <r_epik_Charging_Adjusted_Penalty>  (50) 
0.00177321

>  <i_epik_Tot_Q>  (50) 
1

>  <i_epik_Tot_abs_Q>  (50) 
1

>  <s_lp_Force_Field>  (50) 
OPLS3e

>  <r_lp_Energy>  (50) 
47.9004

>  <b_lp_Chiralities_Consistent>  (50) 
1

>  <s_lp_Variant>  (50) 
13:0-1

>  <s_i_glide_gridfile>  (50) 
pfpi4k_grid

>  <i_i_glide_lignum>  (50) 
19

>  <i_i_glide_rotatable_bonds>  (50) 
1

>  <r_i_docking_score>  (50) 
-3.49678

>  <r_i_glide_ligand_efficiency>  (50) 
-0.184041

>  <r_i_glide_ligand_efficiency_sa>  (50) 
-0.491095

>  <r_i_glide_ligand_efficiency_ln>  (50) 
-0.886508

>  <r_i_glide_gscore>  (50) 
-3.49678

>  <r_i_glide_lipo>  (50) 
-0.285657

>  <r_i_glide_hbond>  (50) 
-0.0760905

>  <r_i_glide_metal>  (50) 
-0

>  <r_i_glide_rewards>  (50) 
-1.78328

>  <r_i_glide_evdw>  (50) 
-19.2012

>  <r_i_glide_ecoul>  (50) 
-3.94848

>  <r_i_glide_erotb>  (50) 
0.262917

>  <r_i_glide_esite>  (50) 
-0.0623364

>  <r_i_glide_emodel>  (50) 
-30.8417

>  <r_i_glide_energy>  (50) 
-23.1497

>  <r_i_glide_einternal>  (50) 
2.85514

>  <r_i_glide_intrahb_reward>  (50) 
-0

>  <i_i_glide_confnum>  (50) 
4

>  <i_i_glide_posenum>  (50) 
1

>  <r_i_glide_eff_state_penalty>  (50) 
0

>  <ligand_id>  (50) 
13

>  <original_smiles>  (50) 
Cn1ncc2c(N3CCN4CCCC4C3)cnnc21

>  <smiles>  (50) 
[H]c1nnc2c(c([H])nn2C([H])([H])[H])c1N1C([H])([H])C([H])([H])[N+]2([H])C([H])([H])C([H])([H])C([H])([H])C2([H])C1([H])[H]

$$$$
13:0:2
     RDKit          3D

 38 41  0  0  1  0  0  0  0  0999 V2000
    1.7535   -1.3549    3.7972 C   0  0  0  0  0  0  0  0  0  0  0  0
    1.3896   -2.7207    4.0758 N   0  0  0  0  0  0  0  0  0  0  0  0
    1.8421   -3.6805    3.2040 N   0  0  0  0  0  0  0  0  0  0  0  0
    1.4126   -4.8288    3.6847 C   0  0  0  0  0  0  0  0  0  0  0  0
    0.6563   -4.6116    4.8548 C   0  0  0  0  0  0  0  0  0  0  0  0
   -0.0393   -5.4661    5.7483 C   0  0  0  0  0  0  0  0  0  0  0  0
   -0.1753   -6.8689    5.6207 N   0  0  0  0  0  0  0  0  0  0  0  0
    0.8598   -7.6340    6.3107 C   0  0  0  0  0  0  0  0  0  0  0  0
    0.5352   -9.1440    6.3181 C   0  0  0  0  0  0  0  0  0  0  0  0
    0.2181   -9.6539    4.9641 N   0  0  2  0  0  0  0  0  0  0  0  0
    1.3530   -9.8640    4.0469 C   0  0  0  0  0  0  0  0  0  0  0  0
    0.7451   -9.8802    2.6388 C   0  0  0  0  0  0  0  0  0  0  0  0
   -0.7059   -9.3972    2.7955 C   0  0  0  0  0  0  0  0  0  0  0  0
   -0.7984   -8.8629    4.2289 C   0  0  2  0  0  0  0  0  0  0  0  0
   -0.4797   -7.3587    4.2771 C   0  0  0  0  0  0  0  0  0  0  0  0
   -0.6520   -4.8065    6.8424 C   0  0  0  0  0  0  0  0  0  0  0  0
   -0.6307   -3.4597    7.0360 N   0  0  0  0  0  0  0  0  0  0  0  0
    0.0067   -2.6359    6.1920 N   0  0  0  0  0  0  0  0  0  0  0  0
    0.6339   -3.2349    5.1343 C   0  0  0  0  0  0  0  0  0  0  0  0
    1.3691   -0.7087    4.5848 H   0  0  0  0  0  0  0  0  0  0  0  0
    1.3328   -1.0541    2.8355 H   0  0  0  0  0  0  0  0  0  0  0  0
    2.8417   -1.2694    3.7582 H   0  0  0  0  0  0  0  0  0  0  0  0
    1.6335   -5.7685    3.2077 H   0  0  0  0  0  0  0  0  0  0  0  0
    1.8083   -7.4690    5.7913 H   0  0  0  0  0  0  0  0  0  0  0  0
    1.0025   -7.2791    7.3325 H   0  0  0  0  0  0  0  0  0  0  0  0
    1.3284   -9.7392    6.7739 H   0  0  0  0  0  0  0  0  0  0  0  0
   -0.3525   -9.3052    6.9249 H   0  0  0  0  0  0  0  0  0  0  0  0
    2.0544   -9.0344    4.1155 H   0  0  0  0  0  0  0  0  0  0  0  0
    1.8996  -10.7764    4.2769 H   0  0  0  0  0  0  0  0  0  0  0  0
    1.3156   -9.2407    1.9627 H   0  0  0  0  0  0  0  0  0  0  0  0
    0.7544  -10.8839    2.2198 H   0  0  0  0  0  0  0  0  0  0  0  0
   -0.9810   -8.6674    2.0360 H   0  0  0  0  0  0  0  0  0  0  0  0
   -1.3731  -10.2470    2.6860 H   0  0  0  0  0  0  0  0  0  0  0  0
   -1.7921   -9.0421    4.6402 H   0  0  0  0  0  0  0  0  0  0  0  0
   -1.2900   -6.7810    3.8469 H   0  0  0  0  0  0  0  0  0  0  0  0
    0.3959   -7.2479    3.6495 H   0  0  0  0  0  0  0  0  0  0  0  0
   -1.2202   -5.3480    7.5804 H   0  0  0  0  0  0  0  0  0  0  0  0
   -0.2531  -10.5510    5.0863 H   0  0  0  0  0  0  0  0  0  0  0  0
  1  2  1  0
  1 20  1  0
  1 21  1  0
  1 22  1  0
  2 19  1  0
  2  3  1  0
  3  4  2  0
  4  5  1  0
  4 23  1  0
  5 19  2  0
  5  6  1  0
  6  7  1  0
  6 16  2  0
  7 15  1  0
  7  8  1  0
  8  9  1  0
  8 24  1  0
  8 25  1  0
  9 10  1  0
  9 26  1  0
  9 27  1  0
 10 14  1  0
 10 11  1  0
 10 38  1  1
 11 12  1  0
 11 28  1  0
 11 29  1  0
 12 13  1  0
 12 30  1  0
 12 31  1  0
 13 14  1  0
 13 32  1  0
 13 33  1  0
 14 15  1  0
 14 34  1  1
 15 35  1  0
 15 36  1  0
 16 17  1  0
 16 37  1  0
 17 18  2  0
 18 19  1  0
M  CHG  1  10   1
M  END
>  <i_m_ct_stereo_status>  (51) 
1

>  <s_m_source_file>  (51) 
/var/tmp/pbs.5076255.sched01/tmp7v4tqmxt/0pyfftbwv.sdf

>  <i_m_source_file_index>  (51) 
19

>  <i_lp_mmshare_version>  (51) 
48012

>  <i_f3d_flags>  (51) 
0

>  <s_epik_input>  (51) 
W2NIXTFubihbQ0gzXSljKGMxMilubltjSF1jMk4oW0NIMl1bQ0gyXTMpW0NIMl1bQ0BIXShOMzQpW0NIMl1bQ0gyXVtDSDJdNA==

>  <s_epik_cmdline>  (51) 
J2VwaWtfcHl0aG9uJywgJy1waHQnLCAnMi4wJywgJy1waCcsICc3LjAnLCAnLXRuJywgJzgnLCAnLW1hJywgJzIwMCcsICctaW1hZScsICc8aW5maWxlLm1hZT4nLCAnLW9tYWUnLCAnPG91dGZpbGUubWFlPic=

>  <r_epik_Ionization_Penalty>  (51) 
0.00107161

>  <r_epik_Ionization_Penalty_Charging>  (51) 
0.00107148

>  <r_epik_Ionization_Penalty_Neutral>  (51) 
1.30652e-07

>  <r_epik_State_Penalty>  (51) 
0.000701724

>  <r_epik_Charging_Adjusted_Penalty>  (51) 
0.00177321

>  <i_epik_Tot_Q>  (51) 
1

>  <i_epik_Tot_abs_Q>  (51) 
1

>  <s_lp_Force_Field>  (51) 
OPLS3e

>  <r_lp_Energy>  (51) 
47.9004

>  <b_lp_Chiralities_Consistent>  (51) 
1

>  <s_lp_Variant>  (51) 
13:0-1

>  <s_i_glide_gridfile>  (51) 
pfpi4k_grid

>  <i_i_glide_lignum>  (51) 
19

>  <i_i_glide_rotatable_bonds>  (51) 
1

>  <r_i_docking_score>  (51) 
-3.37722

>  <r_i_glide_ligand_efficiency>  (51) 
-0.177749

>  <r_i_glide_ligand_efficiency_sa>  (51) 
-0.474305

>  <r_i_glide_ligand_efficiency_ln>  (51) 
-0.856199

>  <r_i_glide_gscore>  (51) 
-3.37722

>  <r_i_glide_lipo>  (51) 
-0.116354

>  <r_i_glide_hbond>  (51) 
-0.132038

>  <r_i_glide_metal>  (51) 
-0

>  <r_i_glide_rewards>  (51) 
-1.6679

>  <r_i_glide_evdw>  (51) 
-16.8655

>  <r_i_glide_ecoul>  (51) 
-4.86584

>  <r_i_glide_erotb>  (51) 
0.262917

>  <r_i_glide_esite>  (51) 
-0.1507

>  <r_i_glide_emodel>  (51) 
-28.9688

>  <r_i_glide_energy>  (51) 
-21.7314

>  <r_i_glide_einternal>  (51) 
2.72492

>  <r_i_glide_intrahb_reward>  (51) 
-0

>  <i_i_glide_confnum>  (51) 
3

>  <i_i_glide_posenum>  (51) 
14

>  <r_i_glide_eff_state_penalty>  (51) 
0

>  <ligand_id>  (51) 
13

>  <original_smiles>  (51) 
Cn1ncc2c(N3CCN4CCCC4C3)cnnc21

>  <smiles>  (51) 
[H]c1nnc2c(c([H])nn2C([H])([H])[H])c1N1C([H])([H])C([H])([H])[N+]2([H])C([H])([H])C([H])([H])C([H])([H])C2([H])C1([H])[H]

$$$$
14:0:0
     RDKit          3D

 29 30  0  0  1  0  0  0  0  0999 V2000
    3.0148  -12.2523    5.2767 N   0  0  0  0  0  0  0  0  0  0  0  0
    1.8900  -11.6813    4.5097 C   0  0  0  0  0  0  0  0  0  0  0  0
    2.3529  -11.1774    3.1336 C   0  0  0  0  0  0  0  0  0  0  0  0
    3.1941   -9.8966    3.2399 C   0  0  0  0  0  0  0  0  0  0  0  0
    3.6647   -9.4229    1.9404 N   0  0  0  0  0  0  0  0  0  0  0  0
    3.7279   -8.0896    1.5824 C   0  0  0  0  0  0  0  0  0  0  0  0
    4.5402   -7.7885    0.5726 N   0  0  0  0  0  0  0  0  0  0  0  0
    4.5917   -6.4902    0.2022 C   0  0  0  0  0  0  0  0  0  0  0  0
    3.8367   -5.4727    0.8274 C   0  0  0  0  0  0  0  0  0  0  0  0
    3.9505   -4.0712    0.3617 C   0  0  0  0  0  0  0  0  0  0  0  0
    2.9118   -3.1945    0.4024 N   0  0  0  0  0  0  0  0  0  0  0  0
    3.4849   -2.1117   -0.1255 C   0  0  0  0  0  0  0  0  0  0  0  0
    4.7803   -2.2873   -0.4813 O   0  0  0  0  0  0  0  0  0  0  0  0
    5.0863   -3.6180   -0.1537 N   0  0  0  0  0  0  0  0  0  0  0  0
    3.0230   -5.9284    1.8974 C   0  0  0  0  0  0  0  0  0  0  0  0
    2.0571   -4.8631    2.8527 Cl  0  0  0  0  0  0  0  0  0  0  0  0
    2.9752   -7.2262    2.2562 N   0  0  0  0  0  0  0  0  0  0  0  0
    4.1983  -10.0657    1.3671 H   0  0  0  0  0  0  0  0  0  0  0  0
    2.6507  -12.5780    6.1723 H   0  0  0  0  0  0  0  0  0  0  0  0
    3.7217  -11.5553    5.4283 H   0  0  0  0  0  0  0  0  0  0  0  0
    1.1236  -12.4491    4.4095 H   0  0  0  0  0  0  0  0  0  0  0  0
    1.4313  -10.8810    5.0919 H   0  0  0  0  0  0  0  0  0  0  0  0
    2.8930  -11.9696    2.6105 H   0  0  0  0  0  0  0  0  0  0  0  0
    1.4684  -10.9685    2.5367 H   0  0  0  0  0  0  0  0  0  0  0  0
    2.6000   -9.1373    3.7558 H   0  0  0  0  0  0  0  0  0  0  0  0
    4.0729  -10.0878    3.8557 H   0  0  0  0  0  0  0  0  0  0  0  0
    5.2416   -6.2615   -0.6290 H   0  0  0  0  0  0  0  0  0  0  0  0
    2.9936   -1.1574   -0.2482 H   0  0  0  0  0  0  0  0  0  0  0  0
    3.3939  -13.0434    4.7768 H   0  0  0  0  0  0  0  0  0  0  0  0
  1  2  1  0
  1 19  1  0
  1 20  1  0
  1 29  1  0
  2  3  1  0
  2 21  1  0
  2 22  1  0
  3  4  1  0
  3 23  1  0
  3 24  1  0
  4 25  1  0
  4 26  1  0
  4  5  1  0
  5  6  1  0
  5 18  1  0
  6  7  2  0
  6 17  1  0
  7  8  1  0
  8 27  1  0
  8  9  2  0
  9 10  1  0
  9 15  1  0
 10 14  2  0
 10 11  1  0
 11 12  2  0
 12 13  1  0
 12 28  1  0
 13 14  1  0
 15 16  1  0
 15 17  2  0
M  CHG  1   1   1
M  END
>  <i_m_ct_stereo_status>  (52) 
1

>  <s_m_source_file>  (52) 
/var/tmp/pbs.5076255.sched01/tmp7v4tqmxt/0pyfftbwv.sdf

>  <i_m_source_file_index>  (52) 
20

>  <i_lp_mmshare_version>  (52) 
48012

>  <i_f3d_flags>  (52) 
0

>  <s_epik_input>  (52) 
W05IMl1bQ0gyXVtDSDJdW0NIMl0vTj1jMVxuW2NIXWMoYyhDbClbbkhdMSktYzJuW2NIXW9uMg==

>  <s_epik_cmdline>  (52) 
J2VwaWtfcHl0aG9uJywgJy1waHQnLCAnMi4wJywgJy1waCcsICc3LjAnLCAnLXRuJywgJzgnLCAnLW1hJywgJzIwMCcsICctaW1hZScsICc8aW5maWxlLm1hZT4nLCAnLW9tYWUnLCAnPG91dGZpbGUubWFlPic=

>  <r_lp_tautomer_probability>  (52) 
1

>  <r_epik_Ionization_Penalty>  (52) 
0.000380504

>  <r_epik_Ionization_Penalty_Charging>  (52) 
0.000367764

>  <r_epik_Ionization_Penalty_Neutral>  (52) 
1.27403e-05

>  <r_epik_State_Penalty>  (52) 
0.000224128

>  <r_epik_Charging_Adjusted_Penalty>  (52) 
0.000591892

>  <i_epik_Tot_Q>  (52) 
1

>  <i_epik_Tot_abs_Q>  (52) 
1

>  <s_lp_Force_Field>  (52) 
OPLS3e

>  <r_lp_Energy>  (52) 
22.5195

>  <b_lp_Chiralities_Consistent>  (52) 
1

>  <s_lp_Variant>  (52) 
14:0-1

>  <s_i_glide_gridfile>  (52) 
pfpi4k_grid

>  <i_i_glide_lignum>  (52) 
20

>  <i_i_glide_rotatable_bonds>  (52) 
5

>  <r_i_docking_score>  (52) 
-4.32431

>  <r_i_glide_ligand_efficiency>  (52) 
-0.254371

>  <r_i_glide_ligand_efficiency_sa>  (52) 
-0.65406

>  <r_i_glide_ligand_efficiency_ln>  (52) 
-1.12812

>  <r_i_glide_gscore>  (52) 
-4.32431

>  <r_i_glide_lipo>  (52) 
-0.167269

>  <r_i_glide_hbond>  (52) 
-0.382445

>  <r_i_glide_metal>  (52) 
-0

>  <r_i_glide_rewards>  (52) 
-2.21509

>  <r_i_glide_evdw>  (52) 
-17.2333

>  <r_i_glide_ecoul>  (52) 
-8.55135

>  <r_i_glide_erotb>  (52) 
0.754322

>  <r_i_glide_esite>  (52) 
-0.169454

>  <r_i_glide_emodel>  (52) 
-36.5348

>  <r_i_glide_energy>  (52) 
-25.7846

>  <r_i_glide_einternal>  (52) 
2.94601

>  <r_i_glide_intrahb_reward>  (52) 
-0

>  <i_i_glide_confnum>  (52) 
4

>  <i_i_glide_posenum>  (52) 
23

>  <r_i_glide_eff_state_penalty>  (52) 
0

>  <ligand_id>  (52) 
14

>  <original_smiles>  (52) 
NCCCN=c1ncc(-c2ncon2)c(Cl)[nH]1

>  <smiles>  (52) 
[H]c1nc(-c2c([H])nc(N([H])C([H])([H])C([H])([H])C([H])([H])[N+]([H])([H])[H])nc2Cl)no1

$$$$
14:0:1
     RDKit          3D

 29 30  0  0  1  0  0  0  0  0999 V2000
    1.6996  -11.8568    4.8786 N   0  0  0  0  0  0  0  0  0  0  0  0
    1.2555  -10.4842    4.6259 C   0  0  0  0  0  0  0  0  0  0  0  0
    1.6842  -10.0161    3.2290 C   0  0  0  0  0  0  0  0  0  0  0  0
    3.2169   -9.9627    3.0622 C   0  0  0  0  0  0  0  0  0  0  0  0
    3.6333   -9.4348    1.7727 N   0  0  0  0  0  0  0  0  0  0  0  0
    3.7037   -8.0851    1.4892 C   0  0  0  0  0  0  0  0  0  0  0  0
    4.5106   -7.7351    0.4968 N   0  0  0  0  0  0  0  0  0  0  0  0
    4.5648   -6.4213    0.1888 C   0  0  0  0  0  0  0  0  0  0  0  0
    3.8079   -5.4357    0.8600 C   0  0  0  0  0  0  0  0  0  0  0  0
    3.9208   -4.0115    0.4582 C   0  0  0  0  0  0  0  0  0  0  0  0
    2.9120   -3.1144    0.6324 N   0  0  0  0  0  0  0  0  0  0  0  0
    3.4720   -2.0176    0.1191 C   0  0  0  0  0  0  0  0  0  0  0  0
    4.7327   -2.2007   -0.3473 O   0  0  0  0  0  0  0  0  0  0  0  0
    5.0281   -3.5536   -0.1197 N   0  0  0  0  0  0  0  0  0  0  0  0
    2.9954   -5.9439    1.9098 C   0  0  0  0  0  0  0  0  0  0  0  0
    2.0001   -4.9406    2.9038 Cl  0  0  0  0  0  0  0  0  0  0  0  0
    2.9582   -7.2577    2.2108 N   0  0  0  0  0  0  0  0  0  0  0  0
    4.1571  -10.0570    1.1722 H   0  0  0  0  0  0  0  0  0  0  0  0
    1.4270  -12.1346    5.8284 H   0  0  0  0  0  0  0  0  0  0  0  0
    2.7042  -11.9075    4.8282 H   0  0  0  0  0  0  0  0  0  0  0  0
    0.1697  -10.4402    4.7161 H   0  0  0  0  0  0  0  0  0  0  0  0
    1.6616   -9.8240    5.3946 H   0  0  0  0  0  0  0  0  0  0  0  0
    1.2410  -10.6546    2.4627 H   0  0  0  0  0  0  0  0  0  0  0  0
    1.2586   -9.0261    3.0767 H   0  0  0  0  0  0  0  0  0  0  0  0
    3.6704   -9.3746    3.8664 H   0  0  0  0  0  0  0  0  0  0  0  0
    3.6215  -10.9730    3.1410 H   0  0  0  0  0  0  0  0  0  0  0  0
    5.2241   -6.1610   -0.6252 H   0  0  0  0  0  0  0  0  0  0  0  0
    2.9922   -1.0489    0.0882 H   0  0  0  0  0  0  0  0  0  0  0  0
    1.3028  -12.4946    4.2087 H   0  0  0  0  0  0  0  0  0  0  0  0
  1  2  1  0
  1 19  1  0
  1 20  1  0
  1 29  1  0
  2  3  1  0
  2 21  1  0
  2 22  1  0
  3  4  1  0
  3 23  1  0
  3 24  1  0
  4 25  1  0
  4 26  1  0
  4  5  1  0
  5  6  1  0
  5 18  1  0
  6  7  2  0
  6 17  1  0
  7  8  1  0
  8 27  1  0
  8  9  2  0
  9 10  1  0
  9 15  1  0
 10 14  2  0
 10 11  1  0
 11 12  2  0
 12 13  1  0
 12 28  1  0
 13 14  1  0
 15 16  1  0
 15 17  2  0
M  CHG  1   1   1
M  END
>  <i_m_ct_stereo_status>  (53) 
1

>  <s_m_source_file>  (53) 
/var/tmp/pbs.5076255.sched01/tmp7v4tqmxt/0pyfftbwv.sdf

>  <i_m_source_file_index>  (53) 
20

>  <i_lp_mmshare_version>  (53) 
48012

>  <i_f3d_flags>  (53) 
0

>  <s_epik_input>  (53) 
W05IMl1bQ0gyXVtDSDJdW0NIMl0vTj1jMVxuW2NIXWMoYyhDbClbbkhdMSktYzJuW2NIXW9uMg==

>  <s_epik_cmdline>  (53) 
J2VwaWtfcHl0aG9uJywgJy1waHQnLCAnMi4wJywgJy1waCcsICc3LjAnLCAnLXRuJywgJzgnLCAnLW1hJywgJzIwMCcsICctaW1hZScsICc8aW5maWxlLm1hZT4nLCAnLW9tYWUnLCAnPG91dGZpbGUubWFlPic=

>  <r_lp_tautomer_probability>  (53) 
1

>  <r_epik_Ionization_Penalty>  (53) 
0.000380504

>  <r_epik_Ionization_Penalty_Charging>  (53) 
0.000367764

>  <r_epik_Ionization_Penalty_Neutral>  (53) 
1.27403e-05

>  <r_epik_State_Penalty>  (53) 
0.000224128

>  <r_epik_Charging_Adjusted_Penalty>  (53) 
0.000591892

>  <i_epik_Tot_Q>  (53) 
1

>  <i_epik_Tot_abs_Q>  (53) 
1

>  <s_lp_Force_Field>  (53) 
OPLS3e

>  <r_lp_Energy>  (53) 
22.5195

>  <b_lp_Chiralities_Consistent>  (53) 
1

>  <s_lp_Variant>  (53) 
14:0-1

>  <s_i_glide_gridfile>  (53) 
pfpi4k_grid

>  <i_i_glide_lignum>  (53) 
20

>  <i_i_glide_rotatable_bonds>  (53) 
5

>  <r_i_docking_score>  (53) 
-4.17901

>  <r_i_glide_ligand_efficiency>  (53) 
-0.245824

>  <r_i_glide_ligand_efficiency_sa>  (53) 
-0.632083

>  <r_i_glide_ligand_efficiency_ln>  (53) 
-1.09021

>  <r_i_glide_gscore>  (53) 
-4.17901

>  <r_i_glide_lipo>  (53) 
-0.182676

>  <r_i_glide_hbond>  (53) 
-0.270214

>  <r_i_glide_metal>  (53) 
-0

>  <r_i_glide_rewards>  (53) 
-2.21375

>  <r_i_glide_evdw>  (53) 
-16.8669

>  <r_i_glide_ecoul>  (53) 
-8.55285

>  <r_i_glide_erotb>  (53) 
0.754322

>  <r_i_glide_esite>  (53) 
-0.140416

>  <r_i_glide_emodel>  (53) 
-35.6983

>  <r_i_glide_energy>  (53) 
-25.4198

>  <r_i_glide_einternal>  (53) 
2.80154

>  <r_i_glide_intrahb_reward>  (53) 
-0

>  <i_i_glide_confnum>  (53) 
4

>  <i_i_glide_posenum>  (53) 
1

>  <r_i_glide_eff_state_penalty>  (53) 
0

>  <ligand_id>  (53) 
14

>  <original_smiles>  (53) 
NCCCN=c1ncc(-c2ncon2)c(Cl)[nH]1

>  <smiles>  (53) 
[H]c1nc(-c2c([H])nc(N([H])C([H])([H])C([H])([H])C([H])([H])[N+]([H])([H])[H])nc2Cl)no1

$$$$
14:0:2
     RDKit          3D

 29 30  0  0  1  0  0  0  0  0999 V2000
    0.6226  -10.9605    5.2834 N   0  0  0  0  0  0  0  0  0  0  0  0
    1.0078   -9.5543    5.4678 C   0  0  0  0  0  0  0  0  0  0  0  0
    0.5963   -8.6756    4.2750 C   0  0  0  0  0  0  0  0  0  0  0  0
    1.5057   -8.8785    3.0509 C   0  0  0  0  0  0  0  0  0  0  0  0
    1.1631   -7.9776    1.9552 N   0  0  0  0  0  0  0  0  0  0  0  0
    1.8285   -6.8065    1.6636 C   0  0  0  0  0  0  0  0  0  0  0  0
    1.5002   -6.2207    0.5139 N   0  0  0  0  0  0  0  0  0  0  0  0
    2.2173   -5.1205    0.1723 C   0  0  0  0  0  0  0  0  0  0  0  0
    3.1777   -4.5357    1.0172 C   0  0  0  0  0  0  0  0  0  0  0  0
    3.8646   -3.2896    0.6170 C   0  0  0  0  0  0  0  0  0  0  0  0
    4.1014   -2.2684    1.4865 N   0  0  0  0  0  0  0  0  0  0  0  0
    4.6702   -1.3820    0.6690 C   0  0  0  0  0  0  0  0  0  0  0  0
    4.7923   -1.8075   -0.6140 O   0  0  0  0  0  0  0  0  0  0  0  0
    4.2323   -3.0934   -0.6442 N   0  0  0  0  0  0  0  0  0  0  0  0
    3.4145   -5.2441    2.2180 C   0  0  0  0  0  0  0  0  0  0  0  0
    4.5963   -4.7298    3.3648 Cl  0  0  0  0  0  0  0  0  0  0  0  0
    2.7395   -6.3733    2.5256 N   0  0  0  0  0  0  0  0  0  0  0  0
    0.5932   -8.3550    1.2105 H   0  0  0  0  0  0  0  0  0  0  0  0
    0.9223  -11.4939    6.1090 H   0  0  0  0  0  0  0  0  0  0  0  0
    1.0477  -11.3303    4.4501 H   0  0  0  0  0  0  0  0  0  0  0  0
    0.5411   -9.1849    6.3813 H   0  0  0  0  0  0  0  0  0  0  0  0
    2.0823   -9.4865    5.6373 H   0  0  0  0  0  0  0  0  0  0  0  0
   -0.4517   -8.8551    4.0242 H   0  0  0  0  0  0  0  0  0  0  0  0
    0.6592   -7.6347    4.5867 H   0  0  0  0  0  0  0  0  0  0  0  0
    2.5537   -8.7568    3.3429 H   0  0  0  0  0  0  0  0  0  0  0  0
    1.3986   -9.9004    2.6878 H   0  0  0  0  0  0  0  0  0  0  0  0
    1.9444   -4.6646   -0.7701 H   0  0  0  0  0  0  0  0  0  0  0  0
    5.0422   -0.4167    0.9906 H   0  0  0  0  0  0  0  0  0  0  0  0
   -0.3964  -11.0243    5.2131 H   0  0  0  0  0  0  0  0  0  0  0  0
  1  2  1  0
  1 19  1  0
  1 20  1  0
  1 29  1  0
  2  3  1  0
  2 21  1  0
  2 22  1  0
  3  4  1  0
  3 23  1  0
  3 24  1  0
  4 25  1  0
  4 26  1  0
  4  5  1  0
  5  6  1  0
  5 18  1  0
  6  7  2  0
  6 17  1  0
  7  8  1  0
  8 27  1  0
  8  9  2  0
  9 10  1  0
  9 15  1  0
 10 14  2  0
 10 11  1  0
 11 12  2  0
 12 13  1  0
 12 28  1  0
 13 14  1  0
 15 16  1  0
 15 17  2  0
M  CHG  1   1   1
M  END
>  <i_m_ct_stereo_status>  (54) 
1

>  <s_m_source_file>  (54) 
/var/tmp/pbs.5076255.sched01/tmp7v4tqmxt/0pyfftbwv.sdf

>  <i_m_source_file_index>  (54) 
20

>  <i_lp_mmshare_version>  (54) 
48012

>  <i_f3d_flags>  (54) 
0

>  <s_epik_input>  (54) 
W05IMl1bQ0gyXVtDSDJdW0NIMl0vTj1jMVxuW2NIXWMoYyhDbClbbkhdMSktYzJuW2NIXW9uMg==

>  <s_epik_cmdline>  (54) 
J2VwaWtfcHl0aG9uJywgJy1waHQnLCAnMi4wJywgJy1waCcsICc3LjAnLCAnLXRuJywgJzgnLCAnLW1hJywgJzIwMCcsICctaW1hZScsICc8aW5maWxlLm1hZT4nLCAnLW9tYWUnLCAnPG91dGZpbGUubWFlPic=

>  <r_lp_tautomer_probability>  (54) 
1

>  <r_epik_Ionization_Penalty>  (54) 
0.000380504

>  <r_epik_Ionization_Penalty_Charging>  (54) 
0.000367764

>  <r_epik_Ionization_Penalty_Neutral>  (54) 
1.27403e-05

>  <r_epik_State_Penalty>  (54) 
0.000224128

>  <r_epik_Charging_Adjusted_Penalty>  (54) 
0.000591892

>  <i_epik_Tot_Q>  (54) 
1

>  <i_epik_Tot_abs_Q>  (54) 
1

>  <s_lp_Force_Field>  (54) 
OPLS3e

>  <r_lp_Energy>  (54) 
22.5195

>  <b_lp_Chiralities_Consistent>  (54) 
1

>  <s_lp_Variant>  (54) 
14:0-1

>  <s_i_glide_gridfile>  (54) 
pfpi4k_grid

>  <i_i_glide_lignum>  (54) 
20

>  <i_i_glide_rotatable_bonds>  (54) 
5

>  <r_i_docking_score>  (54) 
-4.01534

>  <r_i_glide_ligand_efficiency>  (54) 
-0.236196

>  <r_i_glide_ligand_efficiency_sa>  (54) 
-0.607327

>  <r_i_glide_ligand_efficiency_ln>  (54) 
-1.04751

>  <r_i_glide_gscore>  (54) 
-4.01534

>  <r_i_glide_lipo>  (54) 
-0.0157623

>  <r_i_glide_hbond>  (54) 
-0.682982

>  <r_i_glide_metal>  (54) 
-0

>  <r_i_glide_rewards>  (54) 
-1.66949

>  <r_i_glide_evdw>  (54) 
-15.9507

>  <r_i_glide_ecoul>  (54) 
-11.565

>  <r_i_glide_erotb>  (54) 
1.0776

>  <r_i_glide_esite>  (54) 
-0.192425

>  <r_i_glide_emodel>  (54) 
-37.5232

>  <r_i_glide_energy>  (54) 
-27.5156

>  <r_i_glide_einternal>  (54) 
2.62442

>  <r_i_glide_intrahb_reward>  (54) 
-0

>  <i_i_glide_confnum>  (54) 
4

>  <i_i_glide_posenum>  (54) 
11

>  <r_i_glide_eff_state_penalty>  (54) 
0

>  <ligand_id>  (54) 
14

>  <original_smiles>  (54) 
NCCCN=c1ncc(-c2ncon2)c(Cl)[nH]1

>  <smiles>  (54) 
[H]c1nc(-c2c([H])nc(N([H])C([H])([H])C([H])([H])C([H])([H])[N+]([H])([H])[H])nc2Cl)no1

$$$$
15:0:0
     RDKit          3D

 92 97  0  0  1  0  0  0  0  0999 V2000
   -2.0289   -0.6941    4.9183 C   0  0  0  0  0  0  0  0  0  0  0  0
   -0.9968   -0.1165    4.1345 O   0  0  0  0  0  0  0  0  0  0  0  0
   -0.0658    0.8708    4.6299 C   0  0  1  0  0  0  0  0  0  0  0  0
   -0.9561    2.1567    4.8573 C   0  0  1  0  0  0  0  0  0  0  0  0
   -2.2577    2.2711    4.0321 C   0  0  0  0  0  0  0  0  0  0  0  0
   -2.6650    3.2932    3.2485 C   0  0  0  0  0  0  0  0  0  0  0  0
   -3.9562    3.2707    2.4505 C   0  0  0  0  0  0  0  0  0  0  0  0
   -1.9042    4.5672    3.0582 C   0  0  0  0  0  0  0  0  0  0  0  0
   -1.2046    2.3658    6.3417 C   0  0  0  0  0  0  0  0  0  0  0  0
   -2.2923    2.2342    6.8825 O   0  0  0  0  0  0  0  0  0  0  0  0
    0.0750    2.6702    7.0698 C   0  0  2  0  0  0  0  0  0  0  0  0
    0.7091    3.9668    6.6228 C   0  0  2  0  0  0  0  0  0  0  0  0
    2.1996    4.0738    6.3381 C   0  0  1  0  0  0  0  0  0  0  0  0
    3.0232    3.1753    7.2433 C   0  0  0  0  0  0  0  0  0  0  0  0
    2.4961    1.7385    7.4523 C   0  0  2  0  0  0  0  0  0  0  0  0
    3.6162    0.7320    7.1876 C   0  0  0  0  0  0  0  0  0  0  0  0
    4.2545    0.7636    5.7899 C   0  0  0  0  0  0  0  0  0  0  0  0
    3.3697    0.3064    4.6154 C   0  0  1  0  0  0  0  0  0  0  0  0
    4.3695   -0.0080    3.6526 O   0  0  0  0  0  0  0  0  0  0  0  0
    2.7076   -1.0712    4.9434 C   0  0  1  0  0  0  0  0  0  0  0  0
    3.6978   -2.1785    5.3998 C   0  0  0  0  0  0  0  0  0  0  0  0
    1.3917   -1.0405    5.7934 C   0  0  1  0  0  0  0  0  0  0  0  0
    1.5458   -1.7665    7.0226 O   0  0  0  0  0  0  0  0  0  0  0  0
    0.6084   -2.6182    7.4918 C   0  0  0  0  0  0  0  0  0  0  0  0
    1.0063   -3.2654    8.8051 C   0  0  0  0  0  0  0  0  0  0  0  0
   -0.4794   -2.8619    6.9796 O   0  0  0  0  0  0  0  0  0  0  0  0
    0.6243    0.3251    5.9739 C   0  0  1  0  0  0  0  0  0  0  0  0
    0.9601    1.3719    7.1838 C   0  0  2  0  0  0  0  0  0  0  0  0
    0.4667    0.6912    8.5131 C   0  0  0  0  0  0  0  0  0  0  0  0
    2.4604    1.4193    3.8970 C   0  0  2  0  0  0  0  0  0  0  0  0
    3.0014    2.9117    3.9085 C   0  0  0  0  0  0  0  0  0  0  0  0
    2.6595    4.1554    4.8332 C   0  0  1  0  0  0  0  0  0  0  0  0
    1.8979    5.2534    4.0682 C   0  0  0  0  0  0  0  0  0  0  0  0
    3.9189    4.8007    4.9429 O   0  0  0  0  0  0  0  0  0  0  0  0
    0.9755    1.0660    3.4323 C   0  0  0  0  0  0  0  0  0  0  0  0
    0.9573   -0.1773    2.4655 C   0  0  0  0  0  0  0  0  0  0  0  0
    0.5220    2.1462    2.4183 C   0  0  0  0  0  0  0  0  0  0  0  0
    0.0424    3.9171    7.9946 C   0  0  0  0  0  0  0  0  0  0  0  0
   -1.1961    4.7929    8.1535 C   0  0  0  0  0  0  0  0  0  0  0  0
    0.7606    4.0203    9.3342 C   0  0  0  0  0  0  0  0  0  0  0  0
   -2.7725   -1.0549    4.2152 H   0  0  0  0  0  0  0  0  0  0  0  0
   -2.5454   -0.0047    5.5774 H   0  0  0  0  0  0  0  0  0  0  0  0
   -1.6653   -1.5226    5.5005 H   0  0  0  0  0  0  0  0  0  0  0  0
   -0.3408    3.0065    4.5892 H   0  0  0  0  0  0  0  0  0  0  0  0
   -2.9401    1.4464    4.0682 H   0  0  0  0  0  0  0  0  0  0  0  0
   -4.6218    4.0910    2.7395 H   0  0  0  0  0  0  0  0  0  0  0  0
   -4.5099    2.3560    2.5880 H   0  0  0  0  0  0  0  0  0  0  0  0
   -3.7698    3.3592    1.3841 H   0  0  0  0  0  0  0  0  0  0  0  0
   -1.3931    4.5713    2.1043 H   0  0  0  0  0  0  0  0  0  0  0  0
   -1.2189    4.7753    3.8748 H   0  0  0  0  0  0  0  0  0  0  0  0
   -2.6637    5.3512    3.0192 H   0  0  0  0  0  0  0  0  0  0  0  0
    0.1480    4.5786    5.9247 H   0  0  0  0  0  0  0  0  0  0  0  0
    2.4205    5.0820    6.7088 H   0  0  0  0  0  0  0  0  0  0  0  0
    4.0538    3.1889    6.9000 H   0  0  0  0  0  0  0  0  0  0  0  0
    3.1436    3.6745    8.2042 H   0  0  0  0  0  0  0  0  0  0  0  0
    2.5465    1.6936    8.5339 H   0  0  0  0  0  0  0  0  0  0  0  0
    4.4245    0.9572    7.8880 H   0  0  0  0  0  0  0  0  0  0  0  0
    3.3286   -0.2667    7.4983 H   0  0  0  0  0  0  0  0  0  0  0  0
    4.7248    1.7201    5.6014 H   0  0  0  0  0  0  0  0  0  0  0  0
    5.1173    0.0949    5.8607 H   0  0  0  0  0  0  0  0  0  0  0  0
    4.7322    0.8036    3.3361 H   0  0  0  0  0  0  0  0  0  0  0  0
    2.4484   -1.4835    3.9773 H   0  0  0  0  0  0  0  0  0  0  0  0
    4.1269   -1.9985    6.3863 H   0  0  0  0  0  0  0  0  0  0  0  0
    4.5268   -2.2924    4.6994 H   0  0  0  0  0  0  0  0  0  0  0  0
    3.1881   -3.1420    5.4371 H   0  0  0  0  0  0  0  0  0  0  0  0
    0.7184   -1.6562    5.1954 H   0  0  0  0  0  0  0  0  0  0  0  0
    1.9497   -3.8017    8.7016 H   0  0  0  0  0  0  0  0  0  0  0  0
    0.2362   -3.9698    9.0989 H   0  0  0  0  0  0  0  0  0  0  0  0
    1.0967   -2.5146    9.5893 H   0  0  0  0  0  0  0  0  0  0  0  0
   -0.2552   -0.1052    6.4303 H   0  0  0  0  0  0  0  0  0  0  0  0
    1.1153   -0.1343    8.8110 H   0  0  0  0  0  0  0  0  0  0  0  0
   -0.5597    0.3169    8.4628 H   0  0  0  0  0  0  0  0  0  0  0  0
    0.4649    1.3754    9.3597 H   0  0  0  0  0  0  0  0  0  0  0  0
    2.8317    1.3012    2.8773 H   0  0  0  0  0  0  0  0  0  0  0  0
    4.0780    2.7880    3.9330 H   0  0  0  0  0  0  0  0  0  0  0  0
    2.8779    3.2916    2.8891 H   0  0  0  0  0  0  0  0  0  0  0  0
    0.8826    4.9671    3.8442 H   0  0  0  0  0  0  0  0  0  0  0  0
    2.3684    5.4983    3.1120 H   0  0  0  0  0  0  0  0  0  0  0  0
    1.8518    6.1813    4.6390 H   0  0  0  0  0  0  0  0  0  0  0  0
    4.1808    5.0778    4.0795 H   0  0  0  0  0  0  0  0  0  0  0  0
    1.8577   -0.2687    1.8589 H   0  0  0  0  0  0  0  0  0  0  0  0
    0.1377   -0.1097    1.7495 H   0  0  0  0  0  0  0  0  0  0  0  0
    0.7763   -1.1291    2.9504 H   0  0  0  0  0  0  0  0  0  0  0  0
    1.1694    2.1695    1.5371 H   0  0  0  0  0  0  0  0  0  0  0  0
    0.5434    3.1519    2.8173 H   0  0  0  0  0  0  0  0  0  0  0  0
   -0.4853    1.9673    2.0435 H   0  0  0  0  0  0  0  0  0  0  0  0
   -0.9220    5.7910    8.4941 H   0  0  0  0  0  0  0  0  0  0  0  0
   -1.8787    4.3496    8.8813 H   0  0  0  0  0  0  0  0  0  0  0  0
   -1.7227    4.9026    7.2102 H   0  0  0  0  0  0  0  0  0  0  0  0
    1.2048    5.0096    9.4490 H   0  0  0  0  0  0  0  0  0  0  0  0
    1.5235    3.2661    9.4718 H   0  0  0  0  0  0  0  0  0  0  0  0
    0.0488    3.8745   10.1473 H   0  0  0  0  0  0  0  0  0  0  0  0
  1  2  1  0
  1 41  1  0
  1 42  1  0
  1 43  1  0
  3  2  1  6
  3 27  1  0
  3 35  1  0
  3  4  1  0
  4  5  1  0
  4  9  1  0
  4 44  1  6
  5  6  2  3
  5 45  1  0
  6  7  1  0
  6  8  1  0
  7 46  1  0
  7 47  1  0
  7 48  1  0
  8 49  1  0
  8 50  1  0
  8 51  1  0
  9 10  2  0
  9 11  1  0
 11 28  1  0
 11 38  1  1
 11 12  1  0
 12 13  1  0
 12 38  1  0
 12 52  1  6
 13 32  1  0
 13 14  1  0
 13 53  1  1
 14 15  1  0
 14 54  1  0
 14 55  1  0
 15 28  1  0
 15 16  1  0
 15 56  1  1
 16 17  1  0
 16 57  1  0
 16 58  1  0
 17 18  1  0
 17 59  1  0
 17 60  1  0
 18 19  1  6
 18 20  1  0
 18 30  1  0
 19 61  1  0
 20 21  1  0
 20 22  1  0
 20 62  1  6
 21 63  1  0
 21 64  1  0
 21 65  1  0
 22 23  1  0
 22 27  1  0
 22 66  1  6
 23 24  1  0
 24 25  1  0
 24 26  2  0
 25 67  1  0
 25 68  1  0
 25 69  1  0
 27 28  1  0
 27 70  1  1
 28 29  1  1
 29 71  1  0
 29 72  1  0
 29 73  1  0
 30 31  1  0
 30 35  1  0
 30 74  1  6
 31 32  1  0
 31 75  1  0
 31 76  1  0
 32 33  1  0
 32 34  1  1
 33 77  1  0
 33 78  1  0
 33 79  1  0
 34 80  1  0
 35 36  1  0
 35 37  1  0
 36 81  1  0
 36 82  1  0
 36 83  1  0
 37 84  1  0
 37 85  1  0
 37 86  1  0
 38 39  1  0
 38 40  1  0
 39 87  1  0
 39 88  1  0
 39 89  1  0
 40 90  1  0
 40 91  1  0
 40 92  1  0
M  END
>  <i_m_ct_stereo_status>  (55) 
1

>  <s_m_source_file>  (55) 
/var/tmp/pbs.5076255.sched01/tmp7v4tqmxt/0pyfftbwv.sdf

>  <i_m_source_file_index>  (55) 
21

>  <i_lp_mmshare_version>  (55) 
48012

>  <i_f3d_flags>  (55) 
2

>  <s_epik_input>  (55) 
W0NIM11DMShbQ0gzXSlbQ0BASF0oW0NAQF0xMjMpW0NASF00W0NIMl1bQ0BIXTVbQ0BdMyhbQ0gzXSlbQ0BIXTZbQ0BAXShPW0NIM10pKFtDQEhdKEMyPU8pW0NIXT1DKFtDSDNdKVtDSDNdKUMoW0NIM10pKFtDSDNdKVtDQEBIXShbQ0gyXVtDQF00KFtDSDNdKVtPSF0pW0NAQF0oW09IXSkoW0NIMl1bQ0gyXTUpW0NAQEhdKFtDSDNdKVtDQEhdNk9DKD1PKVtDSDNd

>  <s_epik_cmdline>  (55) 
J2VwaWtfcHl0aG9uJywgJy1waHQnLCAnMi4wJywgJy1waCcsICc3LjAnLCAnLXRuJywgJzgnLCAnLW1hJywgJzIwMCcsICctaW1hZScsICc8aW5maWxlLm1hZT4nLCAnLW9tYWUnLCAnPG91dGZpbGUubWFlPic=

>  <r_lp_tautomer_probability>  (55) 
1

>  <r_epik_Ionization_Penalty>  (55) 
1.66405e-06

>  <r_epik_Ionization_Penalty_Charging>  (55) 
0

>  <r_epik_Ionization_Penalty_Neutral>  (55) 
1.66405e-06

>  <r_epik_State_Penalty>  (55) 
-0

>  <r_epik_Charging_Adjusted_Penalty>  (55) 
0

>  <i_epik_Tot_Q>  (55) 
0

>  <i_epik_Tot_abs_Q>  (55) 
0

>  <s_epik_Chemistry_Notes>  (55) 
This compound has an ester and may undergo hydrolysis at high or low pH.

>  <s_lp_Force_Field>  (55) 
OPLS3e

>  <r_lp_Energy>  (55) 
192.138

>  <b_lp_Chiralities_Consistent>  (55) 
0

>  <s_lp_Variant>  (55) 
15:0-1

>  <s_i_glide_gridfile>  (55) 
pfpi4k_grid

>  <i_i_glide_lignum>  (55) 
21

>  <i_i_glide_rotatable_bonds>  (55) 
6

>  <r_i_docking_score>  (55) 
-1.42605

>  <r_i_glide_ligand_efficiency>  (55) 
-0.0356513

>  <r_i_glide_ligand_efficiency_sa>  (55) 
-0.121926

>  <r_i_glide_ligand_efficiency_ln>  (55) 
-0.304135

>  <r_i_glide_gscore>  (55) 
-1.42605

>  <r_i_glide_lipo>  (55) 
-0.134776

>  <r_i_glide_hbond>  (55) 
-0.0417395

>  <r_i_glide_metal>  (55) 
-0

>  <r_i_glide_rewards>  (55) 
-0.000214109

>  <r_i_glide_evdw>  (55) 
-21.6921

>  <r_i_glide_ecoul>  (55) 
-1.32783

>  <r_i_glide_erotb>  (55) 
0.0579238

>  <r_i_glide_esite>  (55) 
-0.0234656

>  <r_i_glide_emodel>  (55) 
-23.6909

>  <r_i_glide_energy>  (55) 
-23.02

>  <r_i_glide_einternal>  (55) 
0.477716

>  <r_i_glide_intrahb_reward>  (55) 
-0

>  <i_i_glide_confnum>  (55) 
2

>  <i_i_glide_posenum>  (55) 
3

>  <r_i_glide_eff_state_penalty>  (55) 
0

>  <ligand_id>  (55) 
15

>  <original_smiles>  (55) 
COC12C(C=C(C)C)C(=O)C34C(C5CC6CCC(O)(C(C)C(OC(C)=O)C1C63C)C(CC5(C)O)C2(C)C)C4(C)C

>  <smiles>  (55) 
[H]OC1(C([H])([H])[H])C([H])([H])C2([H])C3(O[H])C([H])([H])C([H])([H])C4([H])C([H])([H])C1([H])C1([H])C5(C(=O)C([H])(C([H])=C(C([H])([H])[H])C([H])([H])[H])C(OC([H])([H])[H])(C([H])(C([H])(OC(=O)C([H])([H])[H])C3([H])C([H])([H])[H])C45C([H])([H])[H])C2(C([H])([H])[H])C([H])([H])[H])C1(C([H])([H])[H])C([H])([H])[H]

$$$$
15:0:1
     RDKit          3D

 92 97  0  0  1  0  0  0  0  0999 V2000
   -1.9557   -0.7585    4.9619 C   0  0  0  0  0  0  0  0  0  0  0  0
   -0.9189   -0.1728    4.1831 O   0  0  0  0  0  0  0  0  0  0  0  0
   -0.0125    0.8413    4.6696 C   0  0  1  0  0  0  0  0  0  0  0  0
   -0.9305    2.1099    4.8921 C   0  0  1  0  0  0  0  0  0  0  0  0
   -2.2271    2.2124    4.0559 C   0  0  0  0  0  0  0  0  0  0  0  0
   -2.6558    3.2312    3.2690 C   0  0  0  0  0  0  0  0  0  0  0  0
   -3.9420    3.1644    2.4691 C   0  0  0  0  0  0  0  0  0  0  0  0
   -1.9144    4.5197    3.0816 C   0  0  0  0  0  0  0  0  0  0  0  0
   -1.1858    2.3075    6.3749 C   0  0  0  0  0  0  0  0  0  0  0  0
   -2.2804    2.1526    6.9172 O   0  0  0  0  0  0  0  0  0  0  0  0
    0.0828    2.6377    7.1142 C   0  0  2  0  0  0  0  0  0  0  0  0
    0.6914    3.9460    6.6716 C   0  0  2  0  0  0  0  0  0  0  0  0
    2.1813    4.0913    6.3924 C   0  0  1  0  0  0  0  0  0  0  0  0
    3.0230    3.2103    7.2943 C   0  0  0  0  0  0  0  0  0  0  0  0
    2.5266    1.7582    7.4993 C   0  0  2  0  0  0  0  0  0  0  0  0
    3.6723    0.7776    7.2325 C   0  0  0  0  0  0  0  0  0  0  0  0
    4.3096    0.8291    5.8377 C   0  0  0  0  0  0  0  0  0  0  0  0
    3.4350    0.3536    4.6593 C   0  0  1  0  0  0  0  0  0  0  0  0
    4.4361    0.0620    3.6905 O   0  0  0  0  0  0  0  0  0  0  0  0
    2.8079   -1.0383    4.9846 C   0  0  1  0  0  0  0  0  0  0  0  0
    3.8227   -2.1252    5.4427 C   0  0  0  0  0  0  0  0  0  0  0  0
    1.4891   -1.0375    5.8311 C   0  0  1  0  0  0  0  0  0  0  0  0
    1.6554   -1.7645    7.0577 O   0  0  0  0  0  0  0  0  0  0  0  0
    0.7329   -2.6363    7.5220 C   0  0  0  0  0  0  0  0  0  0  0  0
    1.1495   -3.2923    8.8242 C   0  0  0  0  0  0  0  0  0  0  0  0
   -0.3545   -2.8934    7.0146 O   0  0  0  0  0  0  0  0  0  0  0  0
    0.6874    0.3117    6.0138 C   0  0  1  0  0  0  0  0  0  0  0  0
    0.9983    1.3590    7.2297 C   0  0  2  0  0  0  0  0  0  0  0  0
    0.5200    0.6614    8.5563 C   0  0  0  0  0  0  0  0  0  0  0  0
    2.5003    1.4475    3.9427 C   0  0  2  0  0  0  0  0  0  0  0  0
    3.0100    2.9526    3.9607 C   0  0  0  0  0  0  0  0  0  0  0  0
    2.6404    4.1857    4.8867 C   0  0  1  0  0  0  0  0  0  0  0  0
    1.8562    5.2692    4.1206 C   0  0  0  0  0  0  0  0  0  0  0  0
    3.8848    4.8610    4.9895 O   0  0  0  0  0  0  0  0  0  0  0  0
    1.0252    1.0621    3.4746 C   0  0  0  0  0  0  0  0  0  0  0  0
    1.0340   -0.1801    2.5061 C   0  0  0  0  0  0  0  0  0  0  0  0
    0.5517    2.1404    2.4608 C   0  0  0  0  0  0  0  0  0  0  0  0
    0.0245    3.8794    8.0429 C   0  0  0  0  0  0  0  0  0  0  0  0
   -1.2335    4.7317    8.1964 C   0  0  0  0  0  0  0  0  0  0  0  0
    0.7398    3.9959    9.3853 C   0  0  0  0  0  0  0  0  0  0  0  0
   -2.6536   -1.1832    4.2541 H   0  0  0  0  0  0  0  0  0  0  0  0
   -2.5197   -0.0673    5.5794 H   0  0  0  0  0  0  0  0  0  0  0  0
   -1.5936   -1.5607    5.5804 H   0  0  0  0  0  0  0  0  0  0  0  0
   -0.3279    2.9709    4.6382 H   0  0  0  0  0  0  0  0  0  0  0  0
   -2.8790    1.3635    4.0832 H   0  0  0  0  0  0  0  0  0  0  0  0
   -4.6278    3.9668    2.7494 H   0  0  0  0  0  0  0  0  0  0  0  0
   -4.4572    2.2324    2.6288 H   0  0  0  0  0  0  0  0  0  0  0  0
   -3.7453    3.2266    1.4013 H   0  0  0  0  0  0  0  0  0  0  0  0
   -1.4145    4.4833    2.1224 H   0  0  0  0  0  0  0  0  0  0  0  0
   -1.2052    4.7073    3.8813 H   0  0  0  0  0  0  0  0  0  0  0  0
   -2.6329    5.3408    3.0282 H   0  0  0  0  0  0  0  0  0  0  0  0
    0.1182    4.5460    5.9775 H   0  0  0  0  0  0  0  0  0  0  0  0
    2.3723    5.1007    6.7681 H   0  0  0  0  0  0  0  0  0  0  0  0
    4.0525    3.2451    6.9546 H   0  0  0  0  0  0  0  0  0  0  0  0
    3.1279    3.7086    8.2581 H   0  0  0  0  0  0  0  0  0  0  0  0
    2.5792    1.7128    8.5830 H   0  0  0  0  0  0  0  0  0  0  0  0
    4.4731    1.0202    7.9350 H   0  0  0  0  0  0  0  0  0  0  0  0
    3.4060   -0.2261    7.5422 H   0  0  0  0  0  0  0  0  0  0  0  0
    4.7574    1.7966    5.6491 H   0  0  0  0  0  0  0  0  0  0  0  0
    5.1869    0.1820    5.9053 H   0  0  0  0  0  0  0  0  0  0  0  0
    4.6873    0.8755    3.2846 H   0  0  0  0  0  0  0  0  0  0  0  0
    2.5579   -1.4578    4.0200 H   0  0  0  0  0  0  0  0  0  0  0  0
    4.2470   -1.9379    6.4296 H   0  0  0  0  0  0  0  0  0  0  0  0
    4.6559   -2.2189    4.7443 H   0  0  0  0  0  0  0  0  0  0  0  0
    3.3376   -3.1004    5.4771 H   0  0  0  0  0  0  0  0  0  0  0  0
    0.8302   -1.6661    5.2285 H   0  0  0  0  0  0  0  0  0  0  0  0
    2.1067   -3.8005    8.7063 H   0  0  0  0  0  0  0  0  0  0  0  0
    0.3982   -4.0240    9.1106 H   0  0  0  0  0  0  0  0  0  0  0  0
    1.2234   -2.5493    9.6180 H   0  0  0  0  0  0  0  0  0  0  0  0
   -0.1803   -0.1419    6.4689 H   0  0  0  0  0  0  0  0  0  0  0  0
    1.1879   -0.1495    8.8542 H   0  0  0  0  0  0  0  0  0  0  0  0
   -0.4959    0.2626    8.5044 H   0  0  0  0  0  0  0  0  0  0  0  0
    0.5023    1.3431    9.4065 H   0  0  0  0  0  0  0  0  0  0  0  0
    2.8753    1.3428    2.9235 H   0  0  0  0  0  0  0  0  0  0  0  0
    4.0920    2.8539    3.9848 H   0  0  0  0  0  0  0  0  0  0  0  0
    2.8809    3.3341    2.9425 H   0  0  0  0  0  0  0  0  0  0  0  0
    0.8510    4.9567    3.8925 H   0  0  0  0  0  0  0  0  0  0  0  0
    2.3268    5.5232    3.1677 H   0  0  0  0  0  0  0  0  0  0  0  0
    1.7803    6.1963    4.6884 H   0  0  0  0  0  0  0  0  0  0  0  0
    3.7220    5.7269    5.3300 H   0  0  0  0  0  0  0  0  0  0  0  0
    1.9373   -0.2504    1.8988 H   0  0  0  0  0  0  0  0  0  0  0  0
    0.2115   -0.1358    1.7919 H   0  0  0  0  0  0  0  0  0  0  0  0
    0.8807   -1.1377    2.9907 H   0  0  0  0  0  0  0  0  0  0  0  0
    1.1999    2.1780    1.5822 H   0  0  0  0  0  0  0  0  0  0  0  0
    0.5481    3.1416    2.8629 H   0  0  0  0  0  0  0  0  0  0  0  0
   -0.4499    1.9350    2.0814 H   0  0  0  0  0  0  0  0  0  0  0  0
   -0.9807    5.7308    8.5519 H   0  0  0  0  0  0  0  0  0  0  0  0
   -1.9116    4.2699    8.9134 H   0  0  0  0  0  0  0  0  0  0  0  0
   -1.7579    4.8341    7.2509 H   0  0  0  0  0  0  0  0  0  0  0  0
    1.1614    4.9965    9.5044 H   0  0  0  0  0  0  0  0  0  0  0  0
    1.5210    3.2604    9.5221 H   0  0  0  0  0  0  0  0  0  0  0  0
    0.0314    3.8300   10.1976 H   0  0  0  0  0  0  0  0  0  0  0  0
  1  2  1  0
  1 41  1  0
  1 42  1  0
  1 43  1  0
  3  2  1  6
  3 27  1  0
  3 35  1  0
  3  4  1  0
  4  5  1  0
  4  9  1  0
  4 44  1  6
  5  6  2  3
  5 45  1  0
  6  7  1  0
  6  8  1  0
  7 46  1  0
  7 47  1  0
  7 48  1  0
  8 49  1  0
  8 50  1  0
  8 51  1  0
  9 10  2  0
  9 11  1  0
 11 28  1  0
 11 38  1  1
 11 12  1  0
 12 13  1  0
 12 38  1  0
 12 52  1  6
 13 32  1  0
 13 14  1  0
 13 53  1  1
 14 15  1  0
 14 54  1  0
 14 55  1  0
 15 28  1  0
 15 16  1  0
 15 56  1  1
 16 17  1  0
 16 57  1  0
 16 58  1  0
 17 18  1  0
 17 59  1  0
 17 60  1  0
 18 19  1  6
 18 20  1  0
 18 30  1  0
 19 61  1  0
 20 21  1  0
 20 22  1  0
 20 62  1  6
 21 63  1  0
 21 64  1  0
 21 65  1  0
 22 23  1  0
 22 27  1  0
 22 66  1  6
 23 24  1  0
 24 25  1  0
 24 26  2  0
 25 67  1  0
 25 68  1  0
 25 69  1  0
 27 28  1  0
 27 70  1  1
 28 29  1  1
 29 71  1  0
 29 72  1  0
 29 73  1  0
 30 31  1  0
 30 35  1  0
 30 74  1  6
 31 32  1  0
 31 75  1  0
 31 76  1  0
 32 33  1  0
 32 34  1  1
 33 77  1  0
 33 78  1  0
 33 79  1  0
 34 80  1  0
 35 36  1  0
 35 37  1  0
 36 81  1  0
 36 82  1  0
 36 83  1  0
 37 84  1  0
 37 85  1  0
 37 86  1  0
 38 39  1  0
 38 40  1  0
 39 87  1  0
 39 88  1  0
 39 89  1  0
 40 90  1  0
 40 91  1  0
 40 92  1  0
M  END
>  <i_m_ct_stereo_status>  (56) 
1

>  <s_m_source_file>  (56) 
/var/tmp/pbs.5076255.sched01/tmp7v4tqmxt/0pyfftbwv.sdf

>  <i_m_source_file_index>  (56) 
21

>  <i_lp_mmshare_version>  (56) 
48012

>  <i_f3d_flags>  (56) 
2

>  <s_epik_input>  (56) 
W0NIM11DMShbQ0gzXSlbQ0BASF0oW0NAQF0xMjMpW0NASF00W0NIMl1bQ0BIXTVbQ0BdMyhbQ0gzXSlbQ0BIXTZbQ0BAXShPW0NIM10pKFtDQEhdKEMyPU8pW0NIXT1DKFtDSDNdKVtDSDNdKUMoW0NIM10pKFtDSDNdKVtDQEBIXShbQ0gyXVtDQF00KFtDSDNdKVtPSF0pW0NAQF0oW09IXSkoW0NIMl1bQ0gyXTUpW0NAQEhdKFtDSDNdKVtDQEhdNk9DKD1PKVtDSDNd

>  <s_epik_cmdline>  (56) 
J2VwaWtfcHl0aG9uJywgJy1waHQnLCAnMi4wJywgJy1waCcsICc3LjAnLCAnLXRuJywgJzgnLCAnLW1hJywgJzIwMCcsICctaW1hZScsICc8aW5maWxlLm1hZT4nLCAnLW9tYWUnLCAnPG91dGZpbGUubWFlPic=

>  <r_lp_tautomer_probability>  (56) 
1

>  <r_epik_Ionization_Penalty>  (56) 
1.66405e-06

>  <r_epik_Ionization_Penalty_Charging>  (56) 
0

>  <r_epik_Ionization_Penalty_Neutral>  (56) 
1.66405e-06

>  <r_epik_State_Penalty>  (56) 
-0

>  <r_epik_Charging_Adjusted_Penalty>  (56) 
0

>  <i_epik_Tot_Q>  (56) 
0

>  <i_epik_Tot_abs_Q>  (56) 
0

>  <s_epik_Chemistry_Notes>  (56) 
This compound has an ester and may undergo hydrolysis at high or low pH.

>  <s_lp_Force_Field>  (56) 
OPLS3e

>  <r_lp_Energy>  (56) 
192.138

>  <b_lp_Chiralities_Consistent>  (56) 
0

>  <s_lp_Variant>  (56) 
15:0-1

>  <s_i_glide_gridfile>  (56) 
pfpi4k_grid

>  <i_i_glide_lignum>  (56) 
21

>  <i_i_glide_rotatable_bonds>  (56) 
6

>  <r_i_docking_score>  (56) 
-1.33508

>  <r_i_glide_ligand_efficiency>  (56) 
-0.033377

>  <r_i_glide_ligand_efficiency_sa>  (56) 
-0.114148

>  <r_i_glide_ligand_efficiency_ln>  (56) 
-0.284733

>  <r_i_glide_gscore>  (56) 
-1.33508

>  <r_i_glide_lipo>  (56) 
-0.0753597

>  <r_i_glide_hbond>  (56) 
-0.0964118

>  <r_i_glide_metal>  (56) 
-0

>  <r_i_glide_rewards>  (56) 
0

>  <r_i_glide_evdw>  (56) 
-20.2347

>  <r_i_glide_ecoul>  (56) 
-1.25954

>  <r_i_glide_erotb>  (56) 
0.0579238

>  <r_i_glide_esite>  (56) 
-0.0205651

>  <r_i_glide_emodel>  (56) 
-21.717

>  <r_i_glide_energy>  (56) 
-21.4942

>  <r_i_glide_einternal>  (56) 
0.940561

>  <r_i_glide_intrahb_reward>  (56) 
-0

>  <i_i_glide_confnum>  (56) 
2

>  <i_i_glide_posenum>  (56) 
24

>  <r_i_glide_eff_state_penalty>  (56) 
0

>  <ligand_id>  (56) 
15

>  <original_smiles>  (56) 
COC12C(C=C(C)C)C(=O)C34C(C5CC6CCC(O)(C(C)C(OC(C)=O)C1C63C)C(CC5(C)O)C2(C)C)C4(C)C

>  <smiles>  (56) 
[H]OC1(C([H])([H])[H])C([H])([H])C2([H])C3(O[H])C([H])([H])C([H])([H])C4([H])C([H])([H])C1([H])C1([H])C5(C(=O)C([H])(C([H])=C(C([H])([H])[H])C([H])([H])[H])C(OC([H])([H])[H])(C([H])(C([H])(OC(=O)C([H])([H])[H])C3([H])C([H])([H])[H])C45C([H])([H])[H])C2(C([H])([H])[H])C([H])([H])[H])C1(C([H])([H])[H])C([H])([H])[H]

$$$$
15:0:2
     RDKit          3D

 92 97  0  0  1  0  0  0  0  0999 V2000
   -1.9993   -0.7730    4.9539 C   0  0  0  0  0  0  0  0  0  0  0  0
   -0.9678   -0.1985    4.1619 O   0  0  0  0  0  0  0  0  0  0  0  0
   -0.0405    0.8013    4.6415 C   0  0  1  0  0  0  0  0  0  0  0  0
   -0.9350    2.0886    4.8516 C   0  0  1  0  0  0  0  0  0  0  0  0
   -2.2363    2.2047    4.0287 C   0  0  0  0  0  0  0  0  0  0  0  0
   -2.6573    3.2262    3.2445 C   0  0  0  0  0  0  0  0  0  0  0  0
   -3.9407    3.1697    2.4370 C   0  0  0  0  0  0  0  0  0  0  0  0
   -1.9102    4.5216    3.0666 C   0  0  0  0  0  0  0  0  0  0  0  0
   -1.1846    2.3119    6.3302 C   0  0  0  0  0  0  0  0  0  0  0  0
   -2.2835    2.1864    6.8773 O   0  0  0  0  0  0  0  0  0  0  0  0
    0.0855    2.6306    7.0619 C   0  0  2  0  0  0  0  0  0  0  0  0
    0.7182    3.9197    6.5962 C   0  0  2  0  0  0  0  0  0  0  0  0
    2.2091    4.0305    6.3163 C   0  0  1  0  0  0  0  0  0  0  0  0
    3.0348    3.1465    7.2334 C   0  0  0  0  0  0  0  0  0  0  0  0
    2.5104    1.7102    7.4644 C   0  0  2  0  0  0  0  0  0  0  0  0
    3.6340    0.7018    7.2139 C   0  0  0  0  0  0  0  0  0  0  0  0
    4.2749    0.7177    5.8191 C   0  0  0  0  0  0  0  0  0  0  0  0
    3.4011    0.2438    4.6433 C   0  0  1  0  0  0  0  0  0  0  0  0
    4.4220   -0.0735    3.6984 O   0  0  0  0  0  0  0  0  0  0  0  0
    2.7407   -1.1342    4.9885 C   0  0  1  0  0  0  0  0  0  0  0  0
    3.7331   -2.2323    5.4664 C   0  0  0  0  0  0  0  0  0  0  0  0
    1.4220   -1.0911    5.8360 C   0  0  1  0  0  0  0  0  0  0  0  0
    1.5711   -1.8029    7.0743 O   0  0  0  0  0  0  0  0  0  0  0  0
    0.6318   -2.6489    7.5548 C   0  0  0  0  0  0  0  0  0  0  0  0
    1.0370   -3.2939    8.8665 C   0  0  0  0  0  0  0  0  0  0  0  0
   -0.4605   -2.8948    7.0520 O   0  0  0  0  0  0  0  0  0  0  0  0
    0.6490    0.2767    5.9952 C   0  0  1  0  0  0  0  0  0  0  0  0
    0.9770    1.3356    7.1974 C   0  0  2  0  0  0  0  0  0  0  0  0
    0.4812    0.6692    8.5330 C   0  0  0  0  0  0  0  0  0  0  0  0
    2.4874    1.3440    3.9075 C   0  0  2  0  0  0  0  0  0  0  0  0
    3.0201    2.8397    3.9050 C   0  0  0  0  0  0  0  0  0  0  0  0
    2.6705    4.0932    4.8109 C   0  0  1  0  0  0  0  0  0  0  0  0
    1.9061    5.1780    4.0260 C   0  0  0  0  0  0  0  0  0  0  0  0
    3.9269    4.7477    4.9103 O   0  0  0  0  0  0  0  0  0  0  0  0
    1.0037    0.9871    3.4423 C   0  0  0  0  0  0  0  0  0  0  0  0
    0.9946   -0.2724    2.4938 C   0  0  0  0  0  0  0  0  0  0  0  0
    0.5472    2.0591    2.4118 C   0  0  0  0  0  0  0  0  0  0  0  0
    0.0490    3.8897    7.9665 C   0  0  0  0  0  0  0  0  0  0  0  0
   -1.1967    4.7637    8.1053 C   0  0  0  0  0  0  0  0  0  0  0  0
    0.7622    4.0134    9.3072 C   0  0  0  0  0  0  0  0  0  0  0  0
   -2.7247   -1.1864    4.2672 H   0  0  0  0  0  0  0  0  0  0  0  0
   -2.5388   -0.0740    5.5836 H   0  0  0  0  0  0  0  0  0  0  0  0
   -1.6343   -1.5781    5.5639 H   0  0  0  0  0  0  0  0  0  0  0  0
   -0.3190    2.9357    4.5769 H   0  0  0  0  0  0  0  0  0  0  0  0
   -2.8996    1.3625    4.0773 H   0  0  0  0  0  0  0  0  0  0  0  0
   -4.6206    3.9725    2.7246 H   0  0  0  0  0  0  0  0  0  0  0  0
   -4.4648    2.2392    2.5713 H   0  0  0  0  0  0  0  0  0  0  0  0
   -3.7412    3.2543    1.3725 H   0  0  0  0  0  0  0  0  0  0  0  0
   -1.4095    4.4953    2.1069 H   0  0  0  0  0  0  0  0  0  0  0  0
   -1.1916    4.6915    3.8596 H   0  0  0  0  0  0  0  0  0  0  0  0
   -2.6118    5.3486    3.0344 H   0  0  0  0  0  0  0  0  0  0  0  0
    0.1562    4.5227    5.8909 H   0  0  0  0  0  0  0  0  0  0  0  0
    2.4181    5.0417    6.6797 H   0  0  0  0  0  0  0  0  0  0  0  0
    4.0667    3.1565    6.8970 H   0  0  0  0  0  0  0  0  0  0  0  0
    3.1469    3.6591    8.1880 H   0  0  0  0  0  0  0  0  0  0  0  0
    2.5619    1.6808    8.5479 H   0  0  0  0  0  0  0  0  0  0  0  0
    4.4421    0.9400    7.9101 H   0  0  0  0  0  0  0  0  0  0  0  0
    3.3497   -0.2931    7.5393 H   0  0  0  0  0  0  0  0  0  0  0  0
    4.7408    1.6730    5.6126 H   0  0  0  0  0  0  0  0  0  0  0  0
    5.1410    0.0562    5.9024 H   0  0  0  0  0  0  0  0  0  0  0  0
    4.0129   -0.4011    2.9156 H   0  0  0  0  0  0  0  0  0  0  0  0
    2.4803   -1.5681    4.0323 H   0  0  0  0  0  0  0  0  0  0  0  0
    4.1571   -2.0356    6.4514 H   0  0  0  0  0  0  0  0  0  0  0  0
    4.5671   -2.3548    4.7743 H   0  0  0  0  0  0  0  0  0  0  0  0
    3.2293   -3.1978    5.5183 H   0  0  0  0  0  0  0  0  0  0  0  0
    0.7502   -1.7163    5.2463 H   0  0  0  0  0  0  0  0  0  0  0  0
    1.9810   -3.8284    8.7560 H   0  0  0  0  0  0  0  0  0  0  0  0
    0.2694   -4.0016    9.1652 H   0  0  0  0  0  0  0  0  0  0  0  0
    1.1318   -2.5422    9.6499 H   0  0  0  0  0  0  0  0  0  0  0  0
   -0.2279   -0.1530    6.4562 H   0  0  0  0  0  0  0  0  0  0  0  0
    1.1311   -0.1502    8.8450 H   0  0  0  0  0  0  0  0  0  0  0  0
   -0.5427    0.2900    8.4847 H   0  0  0  0  0  0  0  0  0  0  0  0
    0.4747    1.3635    9.3718 H   0  0  0  0  0  0  0  0  0  0  0  0
    2.8709    1.2149    2.8938 H   0  0  0  0  0  0  0  0  0  0  0  0
    4.0986    2.7185    3.9332 H   0  0  0  0  0  0  0  0  0  0  0  0
    2.9030    3.2078    2.8813 H   0  0  0  0  0  0  0  0  0  0  0  0
    0.8943    4.8846    3.8003 H   0  0  0  0  0  0  0  0  0  0  0  0
    2.3828    5.4065    3.0695 H   0  0  0  0  0  0  0  0  0  0  0  0
    1.8474    6.1155    4.5780 H   0  0  0  0  0  0  0  0  0  0  0  0
    3.7866    5.6021    5.2854 H   0  0  0  0  0  0  0  0  0  0  0  0
    1.8973   -0.3717    1.8906 H   0  0  0  0  0  0  0  0  0  0  0  0
    0.1788   -0.2225    1.7725 H   0  0  0  0  0  0  0  0  0  0  0  0
    0.8156   -1.2181    2.9918 H   0  0  0  0  0  0  0  0  0  0  0  0
    1.1952    2.0792    1.5315 H   0  0  0  0  0  0  0  0  0  0  0  0
    0.5579    3.0704    2.7940 H   0  0  0  0  0  0  0  0  0  0  0  0
   -0.4581    1.8691    2.0358 H   0  0  0  0  0  0  0  0  0  0  0  0
   -0.9308    5.7686    8.4327 H   0  0  0  0  0  0  0  0  0  0  0  0
   -1.8847    4.3302    8.8324 H   0  0  0  0  0  0  0  0  0  0  0  0
   -1.7170    4.8511    7.1561 H   0  0  0  0  0  0  0  0  0  0  0  0
    1.2031    5.0057    9.4104 H   0  0  0  0  0  0  0  0  0  0  0  0
    1.5285    3.2651    9.4547 H   0  0  0  0  0  0  0  0  0  0  0  0
    0.0501    3.8718   10.1201 H   0  0  0  0  0  0  0  0  0  0  0  0
  1  2  1  0
  1 41  1  0
  1 42  1  0
  1 43  1  0
  3  2  1  6
  3 27  1  0
  3 35  1  0
  3  4  1  0
  4  5  1  0
  4  9  1  0
  4 44  1  6
  5  6  2  3
  5 45  1  0
  6  7  1  0
  6  8  1  0
  7 46  1  0
  7 47  1  0
  7 48  1  0
  8 49  1  0
  8 50  1  0
  8 51  1  0
  9 10  2  0
  9 11  1  0
 11 28  1  0
 11 38  1  1
 11 12  1  0
 12 13  1  0
 12 38  1  0
 12 52  1  6
 13 32  1  0
 13 14  1  0
 13 53  1  1
 14 15  1  0
 14 54  1  0
 14 55  1  0
 15 28  1  0
 15 16  1  0
 15 56  1  1
 16 17  1  0
 16 57  1  0
 16 58  1  0
 17 18  1  0
 17 59  1  0
 17 60  1  0
 18 19  1  6
 18 20  1  0
 18 30  1  0
 19 61  1  0
 20 21  1  0
 20 22  1  0
 20 62  1  6
 21 63  1  0
 21 64  1  0
 21 65  1  0
 22 23  1  0
 22 27  1  0
 22 66  1  6
 23 24  1  0
 24 25  1  0
 24 26  2  0
 25 67  1  0
 25 68  1  0
 25 69  1  0
 27 28  1  0
 27 70  1  1
 28 29  1  1
 29 71  1  0
 29 72  1  0
 29 73  1  0
 30 31  1  0
 30 35  1  0
 30 74  1  6
 31 32  1  0
 31 75  1  0
 31 76  1  0
 32 33  1  0
 32 34  1  1
 33 77  1  0
 33 78  1  0
 33 79  1  0
 34 80  1  0
 35 36  1  0
 35 37  1  0
 36 81  1  0
 36 82  1  0
 36 83  1  0
 37 84  1  0
 37 85  1  0
 37 86  1  0
 38 39  1  0
 38 40  1  0
 39 87  1  0
 39 88  1  0
 39 89  1  0
 40 90  1  0
 40 91  1  0
 40 92  1  0
M  END
>  <i_m_ct_stereo_status>  (57) 
1

>  <s_m_source_file>  (57) 
/var/tmp/pbs.5076255.sched01/tmp7v4tqmxt/0pyfftbwv.sdf

>  <i_m_source_file_index>  (57) 
21

>  <i_lp_mmshare_version>  (57) 
48012

>  <i_f3d_flags>  (57) 
2

>  <s_epik_input>  (57) 
W0NIM11DMShbQ0gzXSlbQ0BASF0oW0NAQF0xMjMpW0NASF00W0NIMl1bQ0BIXTVbQ0BdMyhbQ0gzXSlbQ0BIXTZbQ0BAXShPW0NIM10pKFtDQEhdKEMyPU8pW0NIXT1DKFtDSDNdKVtDSDNdKUMoW0NIM10pKFtDSDNdKVtDQEBIXShbQ0gyXVtDQF00KFtDSDNdKVtPSF0pW0NAQF0oW09IXSkoW0NIMl1bQ0gyXTUpW0NAQEhdKFtDSDNdKVtDQEhdNk9DKD1PKVtDSDNd

>  <s_epik_cmdline>  (57) 
J2VwaWtfcHl0aG9uJywgJy1waHQnLCAnMi4wJywgJy1waCcsICc3LjAnLCAnLXRuJywgJzgnLCAnLW1hJywgJzIwMCcsICctaW1hZScsICc8aW5maWxlLm1hZT4nLCAnLW9tYWUnLCAnPG91dGZpbGUubWFlPic=

>  <r_lp_tautomer_probability>  (57) 
1

>  <r_epik_Ionization_Penalty>  (57) 
1.66405e-06

>  <r_epik_Ionization_Penalty_Charging>  (57) 
0

>  <r_epik_Ionization_Penalty_Neutral>  (57) 
1.66405e-06

>  <r_epik_State_Penalty>  (57) 
-0

>  <r_epik_Charging_Adjusted_Penalty>  (57) 
0

>  <i_epik_Tot_Q>  (57) 
0

>  <i_epik_Tot_abs_Q>  (57) 
0

>  <s_epik_Chemistry_Notes>  (57) 
This compound has an ester and may undergo hydrolysis at high or low pH.

>  <s_lp_Force_Field>  (57) 
OPLS3e

>  <r_lp_Energy>  (57) 
192.138

>  <b_lp_Chiralities_Consistent>  (57) 
0

>  <s_lp_Variant>  (57) 
15:0-1

>  <s_i_glide_gridfile>  (57) 
pfpi4k_grid

>  <i_i_glide_lignum>  (57) 
21

>  <i_i_glide_rotatable_bonds>  (57) 
6

>  <r_i_docking_score>  (57) 
-1.24536

>  <r_i_glide_ligand_efficiency>  (57) 
-0.031134

>  <r_i_glide_ligand_efficiency_sa>  (57) 
-0.106477

>  <r_i_glide_ligand_efficiency_ln>  (57) 
-0.265599

>  <r_i_glide_gscore>  (57) 
-1.24536

>  <r_i_glide_lipo>  (57) 
-0.0837603

>  <r_i_glide_hbond>  (57) 
0

>  <r_i_glide_metal>  (57) 
-0

>  <r_i_glide_rewards>  (57) 
0

>  <r_i_glide_evdw>  (57) 
-19.7932

>  <r_i_glide_ecoul>  (57) 
-1.36962

>  <r_i_glide_erotb>  (57) 
0.0579238

>  <r_i_glide_esite>  (57) 
-0.0244217

>  <r_i_glide_emodel>  (57) 
-21.721

>  <r_i_glide_energy>  (57) 
-21.1628

>  <r_i_glide_einternal>  (57) 
0.3682

>  <r_i_glide_intrahb_reward>  (57) 
-0

>  <i_i_glide_confnum>  (57) 
2

>  <i_i_glide_posenum>  (57) 
19

>  <r_i_glide_eff_state_penalty>  (57) 
0

>  <ligand_id>  (57) 
15

>  <original_smiles>  (57) 
COC12C(C=C(C)C)C(=O)C34C(C5CC6CCC(O)(C(C)C(OC(C)=O)C1C63C)C(CC5(C)O)C2(C)C)C4(C)C

>  <smiles>  (57) 
[H]OC1(C([H])([H])[H])C([H])([H])C2([H])C3(O[H])C([H])([H])C([H])([H])C4([H])C([H])([H])C1([H])C1([H])C5(C(=O)C([H])(C([H])=C(C([H])([H])[H])C([H])([H])[H])C(OC([H])([H])[H])(C([H])(C([H])(OC(=O)C([H])([H])[H])C3([H])C([H])([H])[H])C45C([H])([H])[H])C2(C([H])([H])[H])C([H])([H])[H])C1(C([H])([H])[H])C([H])([H])[H]

$$$$
17:0:0
     RDKit          3D

 11 12  0  0  1  0  0  0  0  0999 V2000
    3.0856   -2.5976   -3.5846 C   0  0  0  0  0  0  0  0  0  0  0  0
    3.1250   -1.6482   -2.5264 C   0  0  0  0  0  0  0  0  0  0  0  0
    4.2700   -1.7458   -1.8701 N   0  0  0  0  0  0  0  0  0  0  0  0
    4.6687   -1.0559   -0.8110 C   0  0  0  0  0  0  0  0  0  0  0  0
    5.8953   -1.4515   -0.5086 N   0  0  0  0  0  0  0  0  0  0  0  0
    6.2550   -2.4570   -1.4503 N   0  0  0  0  0  0  0  0  0  0  0  0
    5.2295   -2.6304   -2.2528 C   0  0  0  0  0  0  0  0  0  0  0  0
    4.6128   -3.5417   -3.6510 S   0  0  0  0  0  0  0  0  0  0  0  0
    2.2746   -2.7752   -4.2933 H   0  0  0  0  0  0  0  0  0  0  0  0
    2.3718   -0.9140   -2.2376 H   0  0  0  0  0  0  0  0  0  0  0  0
    4.1333   -0.2879   -0.2779 H   0  0  0  0  0  0  0  0  0  0  0  0
  1  8  1  0
  1  2  2  0
  1  9  1  0
  2  3  1  0
  2 10  1  0
  3  7  1  0
  3  4  1  0
  4  5  2  0
  4 11  1  0
  5  6  1  0
  6  7  2  0
  7  8  1  0
M  END
>  <i_m_ct_stereo_status>  (58) 
1

>  <s_m_source_file>  (58) 
/var/tmp/pbs.5076255.sched01/tmp7v4tqmxt/0pyfftbwv.sdf

>  <i_m_source_file_index>  (58) 
23

>  <i_lp_mmshare_version>  (58) 
48012

>  <i_f3d_flags>  (58) 
0

>  <s_epik_input>  (58) 
W2NIXTFbY0hdc2MobjEyKW5uW2NIXTI=

>  <s_epik_cmdline>  (58) 
J2VwaWtfcHl0aG9uJywgJy1waHQnLCAnMi4wJywgJy1waCcsICc3LjAnLCAnLXRuJywgJzgnLCAnLW1hJywgJzIwMCcsICctaW1hZScsICc8aW5maWxlLm1hZT4nLCAnLW9tYWUnLCAnPG91dGZpbGUubWFlPic=

>  <r_lp_tautomer_probability>  (58) 
1

>  <r_epik_Ionization_Penalty>  (58) 
0.000101483

>  <r_epik_Ionization_Penalty_Charging>  (58) 
0

>  <r_epik_Ionization_Penalty_Neutral>  (58) 
0.000101483

>  <r_epik_State_Penalty>  (58) 
-0

>  <r_epik_Charging_Adjusted_Penalty>  (58) 
0

>  <i_epik_Tot_Q>  (58) 
0

>  <i_epik_Tot_abs_Q>  (58) 
0

>  <s_lp_Force_Field>  (58) 
OPLS3e

>  <r_lp_Energy>  (58) 
1.20871

>  <b_lp_Chiralities_Consistent>  (58) 
1

>  <s_lp_Variant>  (58) 
17:0-1

>  <s_i_glide_gridfile>  (58) 
pfpi4k_grid

>  <i_i_glide_lignum>  (58) 
23

>  <i_i_glide_rotatable_bonds>  (58) 
0

>  <r_i_docking_score>  (58) 
-4.26271

>  <r_i_glide_ligand_efficiency>  (58) 
-0.532838

>  <r_i_glide_ligand_efficiency_sa>  (58) 
-1.06568

>  <r_i_glide_ligand_efficiency_ln>  (58) 
-1.38425

>  <r_i_glide_gscore>  (58) 
-4.26271

>  <r_i_glide_lipo>  (58) 
-0.401962

>  <r_i_glide_hbond>  (58) 
0

>  <r_i_glide_metal>  (58) 
-0

>  <r_i_glide_rewards>  (58) 
-2.38295

>  <r_i_glide_evdw>  (58) 
-17.0615

>  <r_i_glide_ecoul>  (58) 
-3.10163

>  <r_i_glide_erotb>  (58) 
0

>  <r_i_glide_esite>  (58) 
-0.159481

>  <r_i_glide_emodel>  (58) 
-26.7459

>  <r_i_glide_energy>  (58) 
-20.1631

>  <r_i_glide_einternal>  (58) 
0

>  <r_i_glide_intrahb_reward>  (58) 
-0

>  <i_i_glide_confnum>  (58) 
1

>  <i_i_glide_posenum>  (58) 
3

>  <r_i_glide_eff_state_penalty>  (58) 
0

>  <ligand_id>  (58) 
17

>  <original_smiles>  (58) 
c1cn2cnnc2s1

>  <smiles>  (58) 
[H]c1sc2nnc([H])n2c1[H]

$$$$
17:0:1
     RDKit          3D

 11 12  0  0  1  0  0  0  0  0999 V2000
    1.8965  -10.0512    2.6872 C   0  0  0  0  0  0  0  0  0  0  0  0
    0.5523  -10.2118    3.1381 C   0  0  0  0  0  0  0  0  0  0  0  0
   -0.1178   -9.0720    2.9610 N   0  0  0  0  0  0  0  0  0  0  0  0
   -1.3837   -8.7901    3.2437 C   0  0  0  0  0  0  0  0  0  0  0  0
   -1.6160   -7.5241    2.9066 N   0  0  0  0  0  0  0  0  0  0  0  0
   -0.4033   -7.0159    2.3713 N   0  0  0  0  0  0  0  0  0  0  0  0
    0.4901   -7.9794    2.4245 C   0  0  0  0  0  0  0  0  0  0  0  0
    2.1849   -8.3908    2.0652 S   0  0  0  0  0  0  0  0  0  0  0  0
    2.6879  -10.7958    2.6794 H   0  0  0  0  0  0  0  0  0  0  0  0
    0.0413  -11.0687    3.5706 H   0  0  0  0  0  0  0  0  0  0  0  0
   -2.1206   -9.4517    3.6736 H   0  0  0  0  0  0  0  0  0  0  0  0
  1  8  1  0
  1  2  2  0
  1  9  1  0
  2  3  1  0
  2 10  1  0
  3  7  1  0
  3  4  1  0
  4  5  2  0
  4 11  1  0
  5  6  1  0
  6  7  2  0
  7  8  1  0
M  END
>  <i_m_ct_stereo_status>  (59) 
1

>  <s_m_source_file>  (59) 
/var/tmp/pbs.5076255.sched01/tmp7v4tqmxt/0pyfftbwv.sdf

>  <i_m_source_file_index>  (59) 
23

>  <i_lp_mmshare_version>  (59) 
48012

>  <i_f3d_flags>  (59) 
0

>  <s_epik_input>  (59) 
W2NIXTFbY0hdc2MobjEyKW5uW2NIXTI=

>  <s_epik_cmdline>  (59) 
J2VwaWtfcHl0aG9uJywgJy1waHQnLCAnMi4wJywgJy1waCcsICc3LjAnLCAnLXRuJywgJzgnLCAnLW1hJywgJzIwMCcsICctaW1hZScsICc8aW5maWxlLm1hZT4nLCAnLW9tYWUnLCAnPG91dGZpbGUubWFlPic=

>  <r_lp_tautomer_probability>  (59) 
1

>  <r_epik_Ionization_Penalty>  (59) 
0.000101483

>  <r_epik_Ionization_Penalty_Charging>  (59) 
0

>  <r_epik_Ionization_Penalty_Neutral>  (59) 
0.000101483

>  <r_epik_State_Penalty>  (59) 
-0

>  <r_epik_Charging_Adjusted_Penalty>  (59) 
0

>  <i_epik_Tot_Q>  (59) 
0

>  <i_epik_Tot_abs_Q>  (59) 
0

>  <s_lp_Force_Field>  (59) 
OPLS3e

>  <r_lp_Energy>  (59) 
1.20871

>  <b_lp_Chiralities_Consistent>  (59) 
1

>  <s_lp_Variant>  (59) 
17:0-1

>  <s_i_glide_gridfile>  (59) 
pfpi4k_grid

>  <i_i_glide_lignum>  (59) 
23

>  <i_i_glide_rotatable_bonds>  (59) 
0

>  <r_i_docking_score>  (59) 
-4.04

>  <r_i_glide_ligand_efficiency>  (59) 
-0.505

>  <r_i_glide_ligand_efficiency_sa>  (59) 
-1.01

>  <r_i_glide_ligand_efficiency_ln>  (59) 
-1.31193

>  <r_i_glide_gscore>  (59) 
-4.04

>  <r_i_glide_lipo>  (59) 
-0.110941

>  <r_i_glide_hbond>  (59) 
0

>  <r_i_glide_metal>  (59) 
-0

>  <r_i_glide_rewards>  (59) 
-2.25

>  <r_i_glide_evdw>  (59) 
-15.1863

>  <r_i_glide_ecoul>  (59) 
-4.03263

>  <r_i_glide_erotb>  (59) 
0

>  <r_i_glide_esite>  (59) 
-0.314849

>  <r_i_glide_emodel>  (59) 
-25.4756

>  <r_i_glide_energy>  (59) 
-19.219

>  <r_i_glide_einternal>  (59) 
0

>  <r_i_glide_intrahb_reward>  (59) 
-0

>  <i_i_glide_confnum>  (59) 
1

>  <i_i_glide_posenum>  (59) 
1

>  <r_i_glide_eff_state_penalty>  (59) 
0

>  <ligand_id>  (59) 
17

>  <original_smiles>  (59) 
c1cn2cnnc2s1

>  <smiles>  (59) 
[H]c1sc2nnc([H])n2c1[H]

$$$$
17:0:2
     RDKit          3D

 11 12  0  0  1  0  0  0  0  0999 V2000
    0.2199  -10.0389    3.1879 C   0  0  0  0  0  0  0  0  0  0  0  0
    1.4286   -9.3918    2.7889 C   0  0  0  0  0  0  0  0  0  0  0  0
    1.1375   -8.2172    2.2173 N   0  0  0  0  0  0  0  0  0  0  0  0
    1.9336   -7.2867    1.7024 C   0  0  0  0  0  0  0  0  0  0  0  0
    1.1665   -6.2942    1.2448 N   0  0  0  0  0  0  0  0  0  0  0  0
   -0.1769   -6.6596    1.4928 N   0  0  0  0  0  0  0  0  0  0  0  0
   -0.1576   -7.8283    2.0869 C   0  0  0  0  0  0  0  0  0  0  0  0
   -1.2229   -9.0516    2.7832 S   0  0  0  0  0  0  0  0  0  0  0  0
    0.1136  -11.0044    3.6808 H   0  0  0  0  0  0  0  0  0  0  0  0
    2.4599   -9.7106    2.8828 H   0  0  0  0  0  0  0  0  0  0  0  0
    3.0118   -7.3041    1.6505 H   0  0  0  0  0  0  0  0  0  0  0  0
  1  8  1  0
  1  2  2  0
  1  9  1  0
  2  3  1  0
  2 10  1  0
  3  7  1  0
  3  4  1  0
  4  5  2  0
  4 11  1  0
  5  6  1  0
  6  7  2  0
  7  8  1  0
M  END
>  <i_m_ct_stereo_status>  (60) 
1

>  <s_m_source_file>  (60) 
/var/tmp/pbs.5076255.sched01/tmp7v4tqmxt/0pyfftbwv.sdf

>  <i_m_source_file_index>  (60) 
23

>  <i_lp_mmshare_version>  (60) 
48012

>  <i_f3d_flags>  (60) 
0

>  <s_epik_input>  (60) 
W2NIXTFbY0hdc2MobjEyKW5uW2NIXTI=

>  <s_epik_cmdline>  (60) 
J2VwaWtfcHl0aG9uJywgJy1waHQnLCAnMi4wJywgJy1waCcsICc3LjAnLCAnLXRuJywgJzgnLCAnLW1hJywgJzIwMCcsICctaW1hZScsICc8aW5maWxlLm1hZT4nLCAnLW9tYWUnLCAnPG91dGZpbGUubWFlPic=

>  <r_lp_tautomer_probability>  (60) 
1

>  <r_epik_Ionization_Penalty>  (60) 
0.000101483

>  <r_epik_Ionization_Penalty_Charging>  (60) 
0

>  <r_epik_Ionization_Penalty_Neutral>  (60) 
0.000101483

>  <r_epik_State_Penalty>  (60) 
-0

>  <r_epik_Charging_Adjusted_Penalty>  (60) 
0

>  <i_epik_Tot_Q>  (60) 
0

>  <i_epik_Tot_abs_Q>  (60) 
0

>  <s_lp_Force_Field>  (60) 
OPLS3e

>  <r_lp_Energy>  (60) 
1.20871

>  <b_lp_Chiralities_Consistent>  (60) 
1

>  <s_lp_Variant>  (60) 
17:0-1

>  <s_i_glide_gridfile>  (60) 
pfpi4k_grid

>  <i_i_glide_lignum>  (60) 
23

>  <i_i_glide_rotatable_bonds>  (60) 
0

>  <r_i_docking_score>  (60) 
-3.9919

>  <r_i_glide_ligand_efficiency>  (60) 
-0.498988

>  <r_i_glide_ligand_efficiency_sa>  (60) 
-0.997976

>  <r_i_glide_ligand_efficiency_ln>  (60) 
-1.29631

>  <r_i_glide_gscore>  (60) 
-3.9919

>  <r_i_glide_lipo>  (60) 
-0.0365615

>  <r_i_glide_hbond>  (60) 
0

>  <r_i_glide_metal>  (60) 
-0

>  <r_i_glide_rewards>  (60) 
-2.25

>  <r_i_glide_evdw>  (60) 
-15.3109

>  <r_i_glide_ecoul>  (60) 
-4.22499

>  <r_i_glide_erotb>  (60) 
0

>  <r_i_glide_esite>  (60) 
-0.306048

>  <r_i_glide_emodel>  (60) 
-25.7165

>  <r_i_glide_energy>  (60) 
-19.5359

>  <r_i_glide_einternal>  (60) 
0

>  <r_i_glide_intrahb_reward>  (60) 
-0

>  <i_i_glide_confnum>  (60) 
1

>  <i_i_glide_posenum>  (60) 
18

>  <r_i_glide_eff_state_penalty>  (60) 
0

>  <ligand_id>  (60) 
17

>  <original_smiles>  (60) 
c1cn2cnnc2s1

>  <smiles>  (60) 
[H]c1sc2nnc([H])n2c1[H]

$$$$
18:0:0
     RDKit          3D

 64 69  0  0  1  0  0  0  0  0999 V2000
    2.8148    4.9022    2.6565 C   0  0  0  0  0  0  0  0  0  0  0  0
    2.4127    4.6841    3.9219 C   0  0  0  0  0  0  0  0  0  0  0  0
    1.0840    5.0799    4.4572 C   0  0  1  0  0  0  0  0  0  0  0  0
    0.1809    4.1966    3.8332 O   0  0  0  0  0  0  0  0  0  0  0  0
    0.1994    2.9173    4.4445 C   0  0  1  0  0  0  0  0  0  0  0  0
   -1.1343    2.2171    4.0734 C   0  0  0  0  0  0  0  0  0  0  0  0
   -1.9247    2.6892    3.0852 C   0  0  0  0  0  0  0  0  0  0  0  0
   -1.5455    0.9343    4.7977 C   0  0  0  0  0  0  0  0  0  0  0  0
    1.3630    1.9104    3.9659 C   0  0  1  0  0  0  0  0  0  0  0  0
    1.5919    1.8105    2.4334 C   0  0  0  0  0  0  0  0  0  0  0  0
    2.6857    1.8882    4.7680 C   0  0  0  0  0  0  0  0  0  0  0  0
    3.5993    1.1120    4.4809 O   0  0  0  0  0  0  0  0  0  0  0  0
    2.8004    2.8733    5.9406 C   0  0  2  0  0  0  0  0  0  0  0  0
    3.2782    4.2051    5.0436 C   0  0  2  0  0  0  0  0  0  0  0  0
    3.3838    5.5735    5.7857 C   0  0  0  0  0  0  0  0  0  0  0  0
    2.4886    5.2525    6.8933 C   0  0  2  0  0  0  0  0  0  0  0  0
    3.5585    4.3968    7.8770 C   0  0  1  0  0  0  0  0  0  0  0  0
    3.5852    2.8683    8.3651 C   0  0  0  0  0  0  0  0  0  0  0  0
    4.0137    2.6637    6.9362 C   0  0  2  0  0  0  0  0  0  0  0  0
    5.0172    3.8327    7.3686 C   0  0  0  0  0  0  0  0  0  0  0  0
    6.0640    4.3964    6.3357 C   0  0  0  0  0  0  0  0  0  0  0  0
    6.1209    3.6114    8.4833 C   0  0  0  0  0  0  0  0  0  0  0  0
    1.0461    4.8804    6.0237 C   0  0  2  0  0  0  0  0  0  0  0  0
    0.3014    3.4858    5.9392 C   0  0  1  0  0  0  0  0  0  0  0  0
   -1.1712    3.8044    6.4278 C   0  0  0  0  0  0  0  0  0  0  0  0
    1.2789    2.6665    6.7606 C   0  0  0  0  0  0  0  0  0  0  0  0
    0.9196    1.1406    6.9570 C   0  0  0  0  0  0  0  0  0  0  0  0
    0.8014    3.1344    8.2490 C   0  0  0  0  0  0  0  0  0  0  0  0
    3.8137    4.6521    2.3230 H   0  0  0  0  0  0  0  0  0  0  0  0
    2.1279    5.3187    1.9332 H   0  0  0  0  0  0  0  0  0  0  0  0
    0.8755    6.1172    4.1721 H   0  0  0  0  0  0  0  0  0  0  0  0
   -1.6695    3.5636    2.4952 H   0  0  0  0  0  0  0  0  0  0  0  0
   -2.8488    2.1996    2.8289 H   0  0  0  0  0  0  0  0  0  0  0  0
   -1.6388    1.0225    5.8654 H   0  0  0  0  0  0  0  0  0  0  0  0
   -0.8559    0.1201    4.6066 H   0  0  0  0  0  0  0  0  0  0  0  0
   -2.5222    0.6046    4.4540 H   0  0  0  0  0  0  0  0  0  0  0  0
    0.9824    0.9217    4.1532 H   0  0  0  0  0  0  0  0  0  0  0  0
    1.8532    0.7806    2.1729 H   0  0  0  0  0  0  0  0  0  0  0  0
    2.4270    2.4168    2.0902 H   0  0  0  0  0  0  0  0  0  0  0  0
    0.7128    2.0741    1.8486 H   0  0  0  0  0  0  0  0  0  0  0  0
    4.1731    3.9237    4.4946 H   0  0  0  0  0  0  0  0  0  0  0  0
    4.3226    5.9606    6.1501 H   0  0  0  0  0  0  0  0  0  0  0  0
    3.0338    6.4545    5.2394 H   0  0  0  0  0  0  0  0  0  0  0  0
    2.2720    6.1877    7.4173 H   0  0  0  0  0  0  0  0  0  0  0  0
    3.7653    5.0087    8.7758 H   0  0  0  0  0  0  0  0  0  0  0  0
    4.2219    2.5663    9.1805 H   0  0  0  0  0  0  0  0  0  0  0  0
    2.8327    2.1532    8.5615 H   0  0  0  0  0  0  0  0  0  0  0  0
    4.5471    1.7092    6.8293 H   0  0  0  0  0  0  0  0  0  0  0  0
    6.8617    3.6758    6.1456 H   0  0  0  0  0  0  0  0  0  0  0  0
    6.5366    5.3143    6.6884 H   0  0  0  0  0  0  0  0  0  0  0  0
    5.7456    4.6647    5.3345 H   0  0  0  0  0  0  0  0  0  0  0  0
    6.4532    2.5684    8.5079 H   0  0  0  0  0  0  0  0  0  0  0  0
    5.7707    3.8726    9.4877 H   0  0  0  0  0  0  0  0  0  0  0  0
    7.0286    4.2180    8.4088 H   0  0  0  0  0  0  0  0  0  0  0  0
    0.3396    5.6399    6.3757 H   0  0  0  0  0  0  0  0  0  0  0  0
   -1.2128    4.5327    7.2420 H   0  0  0  0  0  0  0  0  0  0  0  0
   -1.7323    2.9605    6.8038 H   0  0  0  0  0  0  0  0  0  0  0  0
   -1.7571    4.2570    5.6266 H   0  0  0  0  0  0  0  0  0  0  0  0
   -0.0696    1.0026    7.3824 H   0  0  0  0  0  0  0  0  0  0  0  0
    1.6049    0.6685    7.6627 H   0  0  0  0  0  0  0  0  0  0  0  0
    0.9607    0.4911    6.0914 H   0  0  0  0  0  0  0  0  0  0  0  0
   -0.2608    3.0456    8.4364 H   0  0  0  0  0  0  0  0  0  0  0  0
    1.0628    4.1421    8.5621 H   0  0  0  0  0  0  0  0  0  0  0  0
    1.0364    2.4717    9.0821 H   0  0  0  0  0  0  0  0  0  0  0  0
  1  2  2  0
  1 29  1  0
  1 30  1  0
  2 14  1  0
  2  3  1  0
  3 23  1  0
  3  4  1  0
  3 31  1  1
  4  5  1  0
  5 24  1  0
  5  6  1  1
  5  9  1  0
  6  7  2  0
  6  8  1  0
  7 32  1  0
  7 33  1  0
  8 34  1  0
  8 35  1  0
  8 36  1  0
  9 10  1  0
  9 11  1  0
  9 37  1  1
 10 38  1  0
 10 39  1  0
 10 40  1  0
 11 12  2  0
 11 13  1  0
 13 19  1  0
 13 26  1  1
 13 14  1  0
 14 15  1  0
 14 41  1  6
 15 16  1  0
 15 42  1  0
 15 43  1  0
 16 17  1  0
 16 23  1  0
 16 44  1  1
 17 20  1  0
 17 18  1  0
 17 45  1  1
 18 19  1  0
 18 46  1  0
 18 47  1  0
 19 20  1  0
 19 48  1  1
 20 21  1  0
 20 22  1  0
 21 49  1  0
 21 50  1  0
 21 51  1  0
 22 52  1  0
 22 53  1  0
 22 54  1  0
 23 24  1  0
 23 55  1  1
 24 25  1  1
 24 26  1  0
 25 56  1  0
 25 57  1  0
 25 58  1  0
 26 27  1  0
 26 28  1  0
 27 59  1  0
 27 60  1  0
 27 61  1  0
 28 62  1  0
 28 63  1  0
 28 64  1  0
M  END
>  <i_m_ct_stereo_status>  (61) 
1

>  <s_m_source_file>  (61) 
/var/tmp/pbs.5076255.sched01/tmp7v4tqmxt/0pyfftbwv.sdf

>  <i_m_source_file_index>  (61) 
24

>  <i_lp_mmshare_version>  (61) 
48012

>  <i_f3d_flags>  (61) 
0

>  <s_epik_input>  (61) 
Tz1DMVtDQEhdKFtDSDNdKVtDQEBdKE8yKShDKD1bQ0gyXSlbQ0gzXSlbQ0BAXShbQ0gzXSkoQzMoW0NIM10pW0NIM10pW0NASF0oW0NASF0yQyg9W0NIMl0pW0NAQEhdNFtDQF0xMzUpW0NASF0oW0NIMl00KVtDQEhdNltDSDJdW0NAQEhdNUM2KFtDSDNdKVtDSDNd

>  <s_epik_cmdline>  (61) 
J2VwaWtfcHl0aG9uJywgJy1waHQnLCAnMi4wJywgJy1waCcsICc3LjAnLCAnLXRuJywgJzgnLCAnLW1hJywgJzIwMCcsICctaW1hZScsICc8aW5maWxlLm1hZT4nLCAnLW9tYWUnLCAnPG91dGZpbGUubWFlPic=

>  <r_lp_tautomer_probability>  (61) 
1

>  <r_epik_Ionization_Penalty>  (61) 
1.60935e-12

>  <r_epik_Ionization_Penalty_Charging>  (61) 
0

>  <r_epik_Ionization_Penalty_Neutral>  (61) 
1.60935e-12

>  <r_epik_State_Penalty>  (61) 
-0

>  <r_epik_Charging_Adjusted_Penalty>  (61) 
0

>  <i_epik_Tot_Q>  (61) 
0

>  <i_epik_Tot_abs_Q>  (61) 
0

>  <s_lp_Force_Field>  (61) 
OPLS3e

>  <r_lp_Energy>  (61) 
333.372

>  <b_lp_Chiralities_Consistent>  (61) 
1

>  <s_lp_Variant>  (61) 
18:0-1

>  <s_i_glide_gridfile>  (61) 
pfpi4k_grid

>  <i_i_glide_lignum>  (61) 
24

>  <i_i_glide_rotatable_bonds>  (61) 
1

>  <r_i_docking_score>  (61) 
-1.552

>  <r_i_glide_ligand_efficiency>  (61) 
-0.0554285

>  <r_i_glide_ligand_efficiency_sa>  (61) 
-0.168314

>  <r_i_glide_ligand_efficiency_ln>  (61) 
-0.358247

>  <r_i_glide_gscore>  (61) 
-1.552

>  <r_i_glide_lipo>  (61) 
-0.0631634

>  <r_i_glide_hbond>  (61) 
0

>  <r_i_glide_metal>  (61) 
-0

>  <r_i_glide_rewards>  (61) 
-0.814344

>  <r_i_glide_evdw>  (61) 
-16.3777

>  <r_i_glide_ecoul>  (61) 
0.0841765

>  <r_i_glide_erotb>  (61) 
0.133964

>  <r_i_glide_esite>  (61) 
-0.00219701

>  <r_i_glide_emodel>  (61) 
-17.3527

>  <r_i_glide_energy>  (61) 
-16.2935

>  <r_i_glide_einternal>  (61) 
0.00259101

>  <r_i_glide_intrahb_reward>  (61) 
-0

>  <i_i_glide_confnum>  (61) 
1

>  <i_i_glide_posenum>  (61) 
38

>  <r_i_glide_eff_state_penalty>  (61) 
0

>  <ligand_id>  (61) 
18

>  <original_smiles>  (61) 
C=C1C2OC3(C(=C)C)C(C)C(=O)C45C1CC(C1CC4C1(C)C)C2C3(C)C5(C)C

>  <smiles>  (61) 
[H]C([H])=C1C2([H])OC3(C(=C([H])[H])C([H])([H])[H])C([H])(C([H])([H])[H])C(=O)C45C1([H])C([H])([H])C([H])(C1([H])C([H])([H])C4([H])C1(C([H])([H])[H])C([H])([H])[H])C2([H])C3(C([H])([H])[H])C5(C([H])([H])[H])C([H])([H])[H]

$$$$
18:0:1
     RDKit          3D

 64 69  0  0  1  0  0  0  0  0999 V2000
    2.4562    5.7471    3.2326 C   0  0  0  0  0  0  0  0  0  0  0  0
    2.0317    5.3762    4.4516 C   0  0  0  0  0  0  0  0  0  0  0  0
    0.6356    5.5330    4.9298 C   0  0  1  0  0  0  0  0  0  0  0  0
   -0.0928    4.5825    4.1859 O   0  0  0  0  0  0  0  0  0  0  0  0
    0.0912    3.2733    4.7113 C   0  0  1  0  0  0  0  0  0  0  0  0
   -1.1028    2.4123    4.2164 C   0  0  0  0  0  0  0  0  0  0  0  0
   -1.9115    2.8281    3.2202 C   0  0  0  0  0  0  0  0  0  0  0  0
   -1.3452    1.0302    4.8239 C   0  0  0  0  0  0  0  0  0  0  0  0
    1.4158    2.4877    4.2408 C   0  0  1  0  0  0  0  0  0  0  0  0
    1.7356    2.5326    2.7229 C   0  0  0  0  0  0  0  0  0  0  0  0
    2.6864    2.5981    5.1216 C   0  0  0  0  0  0  0  0  0  0  0  0
    3.7122    1.9881    4.8429 O   0  0  0  0  0  0  0  0  0  0  0  0
    2.5869    3.5026    6.3578 C   0  0  2  0  0  0  0  0  0  0  0  0
    2.9046    4.9498    5.5866 C   0  0  2  0  0  0  0  0  0  0  0  0
    2.7662    6.2603    6.4208 C   0  0  0  0  0  0  0  0  0  0  0  0
    1.8743    5.7292    7.4453 C   0  0  2  0  0  0  0  0  0  0  0  0
    3.0104    4.9662    8.4344 C   0  0  1  0  0  0  0  0  0  0  0  0
    3.2431    3.4279    8.8208 C   0  0  0  0  0  0  0  0  0  0  0  0
    3.7670    3.3947    7.4097 C   0  0  2  0  0  0  0  0  0  0  0  0
    4.5588    4.6624    7.9747 C   0  0  0  0  0  0  0  0  0  0  0  0
    5.5629    5.4491    7.0485 C   0  0  0  0  0  0  0  0  0  0  0  0
    5.6314    4.5239    9.1371 C   0  0  0  0  0  0  0  0  0  0  0  0
    0.5497    5.2124    6.4735 C   0  0  2  0  0  0  0  0  0  0  0  0
    0.0321    3.7318    6.2453 C   0  0  1  0  0  0  0  0  0  0  0  0
   -1.4949    3.7831    6.6658 C   0  0  0  0  0  0  0  0  0  0  0  0
    1.0811    3.0107    7.0692 C   0  0  0  0  0  0  0  0  0  0  0  0
    0.9441    1.4391    7.1415 C   0  0  0  0  0  0  0  0  0  0  0  0
    0.4630    3.2893    8.5533 C   0  0  0  0  0  0  0  0  0  0  0  0
    3.4950    5.6782    2.9340 H   0  0  0  0  0  0  0  0  0  0  0  0
    1.7396    6.1169    2.5149 H   0  0  0  0  0  0  0  0  0  0  0  0
    0.2931    6.5491    4.7016 H   0  0  0  0  0  0  0  0  0  0  0  0
   -1.7781    3.7748    2.7032 H   0  0  0  0  0  0  0  0  0  0  0  0
   -2.7280    2.2090    2.8802 H   0  0  0  0  0  0  0  0  0  0  0  0
   -1.4950    1.0198    5.8879 H   0  0  0  0  0  0  0  0  0  0  0  0
   -0.5353    0.3435    4.6121 H   0  0  0  0  0  0  0  0  0  0  0  0
   -2.2466    0.5889    4.4092 H   0  0  0  0  0  0  0  0  0  0  0  0
    1.1796    1.4429    4.3368 H   0  0  0  0  0  0  0  0  0  0  0  0
    2.1664    1.5768    2.4142 H   0  0  0  0  0  0  0  0  0  0  0  0
    2.4770    3.2848    2.4595 H   0  0  0  0  0  0  0  0  0  0  0  0
    0.8526    2.6837    2.1057 H   0  0  0  0  0  0  0  0  0  0  0  0
    3.8544    4.8437    5.0732 H   0  0  0  0  0  0  0  0  0  0  0  0
    3.6159    6.7510    6.8652 H   0  0  0  0  0  0  0  0  0  0  0  0
    2.3151    7.1164    5.9130 H   0  0  0  0  0  0  0  0  0  0  0  0
    1.4942    6.5806    8.0197 H   0  0  0  0  0  0  0  0  0  0  0  0
    3.0831    5.5297    9.3789 H   0  0  0  0  0  0  0  0  0  0  0  0
    3.8829    3.1624    9.6516 H   0  0  0  0  0  0  0  0  0  0  0  0
    2.6036    2.5951    8.9166 H   0  0  0  0  0  0  0  0  0  0  0  0
    4.4442    2.5437    7.2727 H   0  0  0  0  0  0  0  0  0  0  0  0
    6.4698    4.8700    6.8604 H   0  0  0  0  0  0  0  0  0  0  0  0
    5.8727    6.3998    7.4873 H   0  0  0  0  0  0  0  0  0  0  0  0
    5.2612    5.7391    6.0460 H   0  0  0  0  0  0  0  0  0  0  0  0
    6.1144    3.5423    9.1117 H   0  0  0  0  0  0  0  0  0  0  0  0
    5.1973    4.6559   10.1326 H   0  0  0  0  0  0  0  0  0  0  0  0
    6.4397    5.2620    9.1562 H   0  0  0  0  0  0  0  0  0  0  0  0
   -0.2813    5.8289    6.8303 H   0  0  0  0  0  0  0  0  0  0  0  0
   -1.6931    4.4403    7.5161 H   0  0  0  0  0  0  0  0  0  0  0  0
   -1.9324    2.8398    6.9592 H   0  0  0  0  0  0  0  0  0  0  0  0
   -2.1101    4.1688    5.8544 H   0  0  0  0  0  0  0  0  0  0  0  0
   -0.0330    1.1245    7.4994 H   0  0  0  0  0  0  0  0  0  0  0  0
    1.6570    1.0197    7.8528 H   0  0  0  0  0  0  0  0  0  0  0  0
    1.1222    0.8682    6.2380 H   0  0  0  0  0  0  0  0  0  0  0  0
   -0.5828    3.0308    8.6731 H   0  0  0  0  0  0  0  0  0  0  0  0
    0.5525    4.2975    8.9488 H   0  0  0  0  0  0  0  0  0  0  0  0
    0.7546    2.6076    9.3529 H   0  0  0  0  0  0  0  0  0  0  0  0
  1  2  2  0
  1 29  1  0
  1 30  1  0
  2 14  1  0
  2  3  1  0
  3 23  1  0
  3  4  1  0
  3 31  1  1
  4  5  1  0
  5 24  1  0
  5  6  1  1
  5  9  1  0
  6  7  2  0
  6  8  1  0
  7 32  1  0
  7 33  1  0
  8 34  1  0
  8 35  1  0
  8 36  1  0
  9 10  1  0
  9 11  1  0
  9 37  1  6
 10 38  1  0
 10 39  1  0
 10 40  1  0
 11 12  2  0
 11 13  1  0
 13 19  1  0
 13 26  1  1
 13 14  1  0
 14 15  1  0
 14 41  1  6
 15 16  1  0
 15 42  1  0
 15 43  1  0
 16 17  1  0
 16 23  1  0
 16 44  1  1
 17 20  1  0
 17 18  1  0
 17 45  1  1
 18 19  1  0
 18 46  1  0
 18 47  1  0
 19 20  1  0
 19 48  1  6
 20 21  1  0
 20 22  1  0
 21 49  1  0
 21 50  1  0
 21 51  1  0
 22 52  1  0
 22 53  1  0
 22 54  1  0
 23 24  1  0
 23 55  1  1
 24 25  1  1
 24 26  1  0
 25 56  1  0
 25 57  1  0
 25 58  1  0
 26 27  1  0
 26 28  1  0
 27 59  1  0
 27 60  1  0
 27 61  1  0
 28 62  1  0
 28 63  1  0
 28 64  1  0
M  END
>  <i_m_ct_stereo_status>  (62) 
1

>  <s_m_source_file>  (62) 
/var/tmp/pbs.5076255.sched01/tmp7v4tqmxt/0pyfftbwv.sdf

>  <i_m_source_file_index>  (62) 
24

>  <i_lp_mmshare_version>  (62) 
48012

>  <i_f3d_flags>  (62) 
0

>  <s_epik_input>  (62) 
Tz1DMVtDQEhdKFtDSDNdKVtDQEBdKE8yKShDKD1bQ0gyXSlbQ0gzXSlbQ0BAXShbQ0gzXSkoQzMoW0NIM10pW0NIM10pW0NASF0oW0NASF0yQyg9W0NIMl0pW0NAQEhdNFtDQF0xMzUpW0NASF0oW0NIMl00KVtDQEhdNltDSDJdW0NAQEhdNUM2KFtDSDNdKVtDSDNd

>  <s_epik_cmdline>  (62) 
J2VwaWtfcHl0aG9uJywgJy1waHQnLCAnMi4wJywgJy1waCcsICc3LjAnLCAnLXRuJywgJzgnLCAnLW1hJywgJzIwMCcsICctaW1hZScsICc8aW5maWxlLm1hZT4nLCAnLW9tYWUnLCAnPG91dGZpbGUubWFlPic=

>  <r_lp_tautomer_probability>  (62) 
1

>  <r_epik_Ionization_Penalty>  (62) 
1.60935e-12

>  <r_epik_Ionization_Penalty_Charging>  (62) 
0

>  <r_epik_Ionization_Penalty_Neutral>  (62) 
1.60935e-12

>  <r_epik_State_Penalty>  (62) 
-0

>  <r_epik_Charging_Adjusted_Penalty>  (62) 
0

>  <i_epik_Tot_Q>  (62) 
0

>  <i_epik_Tot_abs_Q>  (62) 
0

>  <s_lp_Force_Field>  (62) 
OPLS3e

>  <r_lp_Energy>  (62) 
333.372

>  <b_lp_Chiralities_Consistent>  (62) 
1

>  <s_lp_Variant>  (62) 
18:0-1

>  <s_i_glide_gridfile>  (62) 
pfpi4k_grid

>  <i_i_glide_lignum>  (62) 
24

>  <i_i_glide_rotatable_bonds>  (62) 
1

>  <r_i_docking_score>  (62) 
-1.45408

>  <r_i_glide_ligand_efficiency>  (62) 
-0.0519316

>  <r_i_glide_ligand_efficiency_sa>  (62) 
-0.157695

>  <r_i_glide_ligand_efficiency_ln>  (62) 
-0.335645

>  <r_i_glide_gscore>  (62) 
-1.45408

>  <r_i_glide_lipo>  (62) 
-0.0328332

>  <r_i_glide_hbond>  (62) 
0

>  <r_i_glide_metal>  (62) 
-0

>  <r_i_glide_rewards>  (62) 
-0.814344

>  <r_i_glide_evdw>  (62) 
-14.7803

>  <r_i_glide_ecoul>  (62) 
0.00198925

>  <r_i_glide_erotb>  (62) 
0.133964

>  <r_i_glide_esite>  (62) 
-0.00215735

>  <r_i_glide_emodel>  (62) 
-15.7166

>  <r_i_glide_energy>  (62) 
-14.7783

>  <r_i_glide_einternal>  (62) 
0.0112397

>  <r_i_glide_intrahb_reward>  (62) 
-0

>  <i_i_glide_confnum>  (62) 
1

>  <i_i_glide_posenum>  (62) 
2

>  <r_i_glide_eff_state_penalty>  (62) 
0

>  <ligand_id>  (62) 
18

>  <original_smiles>  (62) 
C=C1C2OC3(C(=C)C)C(C)C(=O)C45C1CC(C1CC4C1(C)C)C2C3(C)C5(C)C

>  <smiles>  (62) 
[H]C([H])=C1C2([H])OC3(C(=C([H])[H])C([H])([H])[H])C([H])(C([H])([H])[H])C(=O)C45C1([H])C([H])([H])C([H])(C1([H])C([H])([H])C4([H])C1(C([H])([H])[H])C([H])([H])[H])C2([H])C3(C([H])([H])[H])C5(C([H])([H])[H])C([H])([H])[H]

$$$$
18:0:2
     RDKit          3D

 64 69  0  0  1  0  0  0  0  0999 V2000
    3.0648   -0.1537    4.6786 C   0  0  0  0  0  0  0  0  0  0  0  0
    2.5914    0.5401    5.7413 C   0  0  0  0  0  0  0  0  0  0  0  0
    2.5875    2.0224    5.8265 C   0  0  1  0  0  0  0  0  0  0  0  0
    1.6021    2.4077    4.8920 O   0  0  0  0  0  0  0  0  0  0  0  0
    0.2939    2.2493    5.4374 C   0  0  1  0  0  0  0  0  0  0  0  0
   -0.6550    3.1647    4.6211 C   0  0  0  0  0  0  0  0  0  0  0  0
   -0.2823    3.7037    3.4415 C   0  0  0  0  0  0  0  0  0  0  0  0
   -2.0723    3.4328    5.1252 C   0  0  0  0  0  0  0  0  0  0  0  0
   -0.3305    0.7766    5.3098 C   0  0  1  0  0  0  0  0  0  0  0  0
   -0.1834    0.0764    3.9368 C   0  0  0  0  0  0  0  0  0  0  0  0
   -0.1393   -0.1852    6.4956 C   0  0  0  0  0  0  0  0  0  0  0  0
   -0.6511   -1.3200    6.4825 O   0  0  0  0  0  0  0  0  0  0  0  0
    0.6815    0.3147    7.6834 C   0  0  2  0  0  0  0  0  0  0  0  0
    2.1949   -0.0434    7.0544 C   0  0  2  0  0  0  0  0  0  0  0  0
    3.4425    0.4485    7.8551 C   0  0  0  0  0  0  0  0  0  0  0  0
    2.7757    1.5221    8.5919 C   0  0  2  0  0  0  0  0  0  0  0  0
    2.0848    0.6049    9.8486 C   0  0  1  0  0  0  0  0  0  0  0  0
    0.5500    0.3297   10.2263 C   0  0  0  0  0  0  0  0  0  0  0  0
    0.6351   -0.5566    9.0189 C   0  0  2  0  0  0  0  0  0  0  0  0
    1.9476   -1.0279    9.7927 C   0  0  0  0  0  0  0  0  0  0  0  0
    2.8703   -2.1482    9.1831 C   0  0  0  0  0  0  0  0  0  0  0  0
    1.8485   -1.7615   11.2037 C   0  0  0  0  0  0  0  0  0  0  0  0
    2.1894    2.4824    7.2844 C   0  0  2  0  0  0  0  0  0  0  0  0
    0.6807    2.7558    6.9030 C   0  0  1  0  0  0  0  0  0  0  0  0
    0.5782    4.3417    6.8975 C   0  0  0  0  0  0  0  0  0  0  0  0
    0.0132    1.9069    7.9578 C   0  0  0  0  0  0  0  0  0  0  0  0
   -1.5602    1.8748    7.9625 C   0  0  0  0  0  0  0  0  0  0  0  0
    0.1674    2.9071    9.2328 C   0  0  0  0  0  0  0  0  0  0  0  0
    3.1033   -1.2337    4.6861 H   0  0  0  0  0  0  0  0  0  0  0  0
    3.3975    0.3631    3.7915 H   0  0  0  0  0  0  0  0  0  0  0  0
    3.5707    2.4037    5.5387 H   0  0  0  0  0  0  0  0  0  0  0  0
    0.6842    3.5357    2.9839 H   0  0  0  0  0  0  0  0  0  0  0  0
   -0.9647    4.3259    2.8826 H   0  0  0  0  0  0  0  0  0  0  0  0
   -2.1200    3.8778    6.1125 H   0  0  0  0  0  0  0  0  0  0  0  0
   -2.6716    2.5297    5.1536 H   0  0  0  0  0  0  0  0  0  0  0  0
   -2.5817    4.1264    4.4637 H   0  0  0  0  0  0  0  0  0  0  0  0
   -1.4039    0.9211    5.3210 H   0  0  0  0  0  0  0  0  0  0  0  0
   -1.0782   -0.5121    3.7335 H   0  0  0  0  0  0  0  0  0  0  0  0
    0.6442   -0.6295    3.9000 H   0  0  0  0  0  0  0  0  0  0  0  0
   -0.0712    0.7787    3.1095 H   0  0  0  0  0  0  0  0  0  0  0  0
    2.2041   -1.0965    6.8179 H   0  0  0  0  0  0  0  0  0  0  0  0
    3.9851   -0.1995    8.5219 H   0  0  0  0  0  0  0  0  0  0  0  0
    4.2747    0.8401    7.2647 H   0  0  0  0  0  0  0  0  0  0  0  0
    3.5560    2.1226    9.0609 H   0  0  0  0  0  0  0  0  0  0  0  0
    2.5931    0.8428   10.7678 H   0  0  0  0  0  0  0  0  0  0  0  0
    0.3073   -0.0943   11.2056 H   0  0  0  0  0  0  0  0  0  0  0  0
   -0.3402    0.8874   10.1437 H   0  0  0  0  0  0  0  0  0  0  0  0
   -0.1292   -1.3217    9.0430 H   0  0  0  0  0  0  0  0  0  0  0  0
    2.3907   -3.1341    9.2430 H   0  0  0  0  0  0  0  0  0  0  0  0
    3.8227   -2.2309    9.7216 H   0  0  0  0  0  0  0  0  0  0  0  0
    3.1756   -2.0967    8.1580 H   0  0  0  0  0  0  0  0  0  0  0  0
    0.9219   -2.3375   11.2866 H   0  0  0  0  0  0  0  0  0  0  0  0
    1.8902   -1.0737   12.0456 H   0  0  0  0  0  0  0  0  0  0  0  0
    2.6641   -2.4534   11.4521 H   0  0  0  0  0  0  0  0  0  0  0  0
    2.7017    3.4275    7.4249 H   0  0  0  0  0  0  0  0  0  0  0  0
    1.1560    4.8222    7.6915 H   0  0  0  0  0  0  0  0  0  0  0  0
   -0.4284    4.7415    7.0213 H   0  0  0  0  0  0  0  0  0  0  0  0
    0.9849    4.7574    5.9744 H   0  0  0  0  0  0  0  0  0  0  0  0
   -1.9837    2.8792    8.0361 H   0  0  0  0  0  0  0  0  0  0  0  0
   -1.9439    1.3499    8.8338 H   0  0  0  0  0  0  0  0  0  0  0  0
   -2.0700    1.4125    7.1272 H   0  0  0  0  0  0  0  0  0  0  0  0
   -0.1981    3.9175    9.0570 H   0  0  0  0  0  0  0  0  0  0  0  0
    1.1565    3.0337    9.6562 H   0  0  0  0  0  0  0  0  0  0  0  0
   -0.5210    2.7720   10.0645 H   0  0  0  0  0  0  0  0  0  0  0  0
  1  2  2  0
  1 29  1  0
  1 30  1  0
  2 14  1  0
  2  3  1  0
  3 23  1  0
  3  4  1  0
  3 31  1  6
  4  5  1  0
  5 24  1  0
  5  6  1  6
  5  9  1  0
  6  7  2  0
  6  8  1  0
  7 32  1  0
  7 33  1  0
  8 34  1  0
  8 35  1  0
  8 36  1  0
  9 10  1  0
  9 11  1  0
  9 37  1  6
 10 38  1  0
 10 39  1  0
 10 40  1  0
 11 12  2  0
 11 13  1  0
 13 19  1  0
 13 26  1  1
 13 14  1  0
 14 15  1  0
 14 41  1  6
 15 16  1  0
 15 42  1  0
 15 43  1  0
 16 17  1  0
 16 23  1  0
 16 44  1  1
 17 20  1  0
 17 18  1  0
 17 45  1  1
 18 19  1  0
 18 46  1  0
 18 47  1  0
 19 20  1  0
 19 48  1  6
 20 21  1  0
 20 22  1  0
 21 49  1  0
 21 50  1  0
 21 51  1  0
 22 52  1  0
 22 53  1  0
 22 54  1  0
 23 24  1  0
 23 55  1  1
 24 25  1  6
 24 26  1  0
 25 56  1  0
 25 57  1  0
 25 58  1  0
 26 27  1  0
 26 28  1  0
 27 59  1  0
 27 60  1  0
 27 61  1  0
 28 62  1  0
 28 63  1  0
 28 64  1  0
M  END
>  <i_m_ct_stereo_status>  (63) 
1

>  <s_m_source_file>  (63) 
/var/tmp/pbs.5076255.sched01/tmp7v4tqmxt/0pyfftbwv.sdf

>  <i_m_source_file_index>  (63) 
24

>  <i_lp_mmshare_version>  (63) 
48012

>  <i_f3d_flags>  (63) 
0

>  <s_epik_input>  (63) 
Tz1DMVtDQEhdKFtDSDNdKVtDQEBdKE8yKShDKD1bQ0gyXSlbQ0gzXSlbQ0BAXShbQ0gzXSkoQzMoW0NIM10pW0NIM10pW0NASF0oW0NASF0yQyg9W0NIMl0pW0NAQEhdNFtDQF0xMzUpW0NASF0oW0NIMl00KVtDQEhdNltDSDJdW0NAQEhdNUM2KFtDSDNdKVtDSDNd

>  <s_epik_cmdline>  (63) 
J2VwaWtfcHl0aG9uJywgJy1waHQnLCAnMi4wJywgJy1waCcsICc3LjAnLCAnLXRuJywgJzgnLCAnLW1hJywgJzIwMCcsICctaW1hZScsICc8aW5maWxlLm1hZT4nLCAnLW9tYWUnLCAnPG91dGZpbGUubWFlPic=

>  <r_lp_tautomer_probability>  (63) 
1

>  <r_epik_Ionization_Penalty>  (63) 
1.60935e-12

>  <r_epik_Ionization_Penalty_Charging>  (63) 
0

>  <r_epik_Ionization_Penalty_Neutral>  (63) 
1.60935e-12

>  <r_epik_State_Penalty>  (63) 
-0

>  <r_epik_Charging_Adjusted_Penalty>  (63) 
0

>  <i_epik_Tot_Q>  (63) 
0

>  <i_epik_Tot_abs_Q>  (63) 
0

>  <s_lp_Force_Field>  (63) 
OPLS3e

>  <r_lp_Energy>  (63) 
333.372

>  <b_lp_Chiralities_Consistent>  (63) 
1

>  <s_lp_Variant>  (63) 
18:0-1

>  <s_i_glide_gridfile>  (63) 
pfpi4k_grid

>  <i_i_glide_lignum>  (63) 
24

>  <i_i_glide_rotatable_bonds>  (63) 
1

>  <r_i_docking_score>  (63) 
-1.40003

>  <r_i_glide_ligand_efficiency>  (63) 
-0.0500012

>  <r_i_glide_ligand_efficiency_sa>  (63) 
-0.151833

>  <r_i_glide_ligand_efficiency_ln>  (63) 
-0.323169

>  <r_i_glide_gscore>  (63) 
-1.40003

>  <r_i_glide_lipo>  (63) 
0

>  <r_i_glide_hbond>  (63) 
-0.000497505

>  <r_i_glide_metal>  (63) 
-0

>  <r_i_glide_rewards>  (63) 
-0.814344

>  <r_i_glide_evdw>  (63) 
-11.6162

>  <r_i_glide_ecoul>  (63) 
-0.683975

>  <r_i_glide_erotb>  (63) 
0.133964

>  <r_i_glide_esite>  (63) 
-0.0357497

>  <r_i_glide_emodel>  (63) 
-13.1861

>  <r_i_glide_energy>  (63) 
-12.3002

>  <r_i_glide_einternal>  (63) 
0.000983868

>  <r_i_glide_intrahb_reward>  (63) 
-0

>  <i_i_glide_confnum>  (63) 
3

>  <i_i_glide_posenum>  (63) 
1

>  <r_i_glide_eff_state_penalty>  (63) 
0

>  <ligand_id>  (63) 
18

>  <original_smiles>  (63) 
C=C1C2OC3(C(=C)C)C(C)C(=O)C45C1CC(C1CC4C1(C)C)C2C3(C)C5(C)C

>  <smiles>  (63) 
[H]C([H])=C1C2([H])OC3(C(=C([H])[H])C([H])([H])[H])C([H])(C([H])([H])[H])C(=O)C45C1([H])C([H])([H])C([H])(C1([H])C([H])([H])C4([H])C1(C([H])([H])[H])C([H])([H])[H])C2([H])C3(C([H])([H])[H])C5(C([H])([H])[H])C([H])([H])[H]

$$$$
19:0:0
     RDKit          3D

 93100  0  0  1  0  0  0  0  0999 V2000
   -1.9708    2.6200    3.9221 C   0  0  0  0  0  0  0  0  0  0  0  0
   -0.6840    2.0602    4.1621 O   0  0  0  0  0  0  0  0  0  0  0  0
    0.2227    3.0148    4.6768 C   0  0  2  0  0  0  0  0  0  0  0  0
    0.6207    3.9536    3.7072 O   0  0  0  0  0  0  0  0  0  0  0  0
    1.9496    3.7828    3.4446 C   0  0  0  0  0  0  0  0  0  0  0  0
    2.6011    4.3696    2.5873 O   0  0  0  0  0  0  0  0  0  0  0  0
    2.4609    2.8031    4.3868 C   0  0  0  0  0  0  0  0  0  0  0  0
    3.7680    2.5416    4.4301 O   0  0  0  0  0  0  0  0  0  0  0  0
    1.4735    2.3101    5.1305 C   0  0  0  0  0  0  0  0  0  0  0  0
    1.5127    1.3453    6.3423 C   0  0  2  0  0  0  0  0  0  0  0  0
    2.9225    0.9969    6.8618 C   0  0  0  0  0  0  0  0  0  0  0  0
    2.7673   -0.2493    7.7391 C   0  0  0  0  0  0  0  0  0  0  0  0
    1.3717   -0.8804    7.4571 C   0  0  2  0  0  0  0  0  0  0  0  0
    0.5878   -0.6147    8.7798 C   0  0  0  0  0  0  0  0  0  0  0  0
    1.4771   -2.4502    7.1728 C   0  0  1  0  0  0  0  0  0  0  0  0
    0.2062   -3.2700    7.5830 C   0  0  1  0  0  0  0  0  0  0  0  0
   -0.9664   -2.9938    6.8475 O   0  0  0  0  0  0  0  0  0  0  0  0
    0.4633   -4.7607    7.4564 C   0  0  1  0  0  0  0  0  0  0  0  0
   -0.6181   -5.4831    8.0167 O   0  0  0  0  0  0  0  0  0  0  0  0
    0.7531   -5.2065    6.0006 C   0  0  2  0  0  0  0  0  0  0  0  0
    1.0142   -6.7108    5.9198 C   0  0  0  0  0  0  0  0  0  0  0  0
    0.8442   -7.3403    4.7338 C   0  0  0  0  0  0  0  0  0  0  0  0
    2.1232   -7.8689    4.0867 C   0  0  2  0  0  0  0  0  0  0  0  0
    2.2074   -8.9729    3.0110 C   0  0  0  0  0  0  0  0  0  0  0  0
    1.3129  -10.1976    3.2916 C   0  0  0  0  0  0  0  0  0  0  0  0
    1.7808   -8.4108    1.6285 C   0  0  0  0  0  0  0  0  0  0  0  0
    3.7346   -9.3336    3.0712 C   0  0  1  0  0  0  0  0  0  0  0  0
    4.3700   -9.4413    1.8095 O   0  0  0  0  0  0  0  0  0  0  0  0
    4.4422   -8.2999    4.0008 C   0  0  0  0  0  0  0  0  0  0  0  0
    3.3465   -7.9340    5.0162 C   0  0  2  0  0  0  0  0  0  0  0  0
    3.1612   -9.0719    6.0653 C   0  0  1  0  0  0  0  0  0  0  0  0
    4.3591   -9.3781    6.7017 O   0  0  0  0  0  0  0  0  0  0  0  0
    2.2217   -8.5602    6.9426 O   0  0  0  0  0  0  0  0  0  0  0  0
    2.1729   -7.1465    6.8114 C   0  0  1  0  0  0  0  0  0  0  0  0
    3.4120   -6.7389    6.0317 C   0  0  2  0  0  0  0  0  0  0  0  0
    3.3535   -5.1909    5.7146 C   0  0  1  0  0  0  0  0  0  0  0  0
    4.4387   -4.9574    4.8439 O   0  0  0  0  0  0  0  0  0  0  0  0
    1.9744   -4.4288    5.3355 C   0  0  1  0  0  0  0  0  0  0  0  0
    1.8146   -4.4615    3.7696 C   0  0  0  0  0  0  0  0  0  0  0  0
    1.9671   -2.8453    5.7226 C   0  0  2  0  0  0  0  0  0  0  0  0
    3.3857   -2.2927    5.3734 C   0  0  0  0  0  0  0  0  0  0  0  0
    0.9661   -2.1747    4.9340 O   0  0  0  0  0  0  0  0  0  0  0  0
    0.9979   -0.7402    4.8942 C   0  0  0  0  0  0  0  0  0  0  0  0
    0.7591   -0.0388    6.2671 C   0  0  2  0  0  0  0  0  0  0  0  0
   -0.7770    0.2042    6.4426 C   0  0  0  0  0  0  0  0  0  0  0  0
   -2.6085    1.7890    3.6654 H   0  0  0  0  0  0  0  0  0  0  0  0
   -1.9797    3.3414    3.1007 H   0  0  0  0  0  0  0  0  0  0  0  0
   -2.3777    3.0871    4.8222 H   0  0  0  0  0  0  0  0  0  0  0  0
   -0.2136    3.5452    5.5405 H   0  0  0  0  0  0  0  0  0  0  0  0
    4.1363    2.9304    3.6487 H   0  0  0  0  0  0  0  0  0  0  0  0
    1.0722    1.9093    7.1675 H   0  0  0  0  0  0  0  0  0  0  0  0
    3.6032    0.7591    6.0485 H   0  0  0  0  0  0  0  0  0  0  0  0
    3.3786    1.8233    7.4141 H   0  0  0  0  0  0  0  0  0  0  0  0
    3.6008   -0.9367    7.5987 H   0  0  0  0  0  0  0  0  0  0  0  0
    2.8747    0.0445    8.7856 H   0  0  0  0  0  0  0  0  0  0  0  0
   -0.4565   -0.9027    8.7259 H   0  0  0  0  0  0  0  0  0  0  0  0
    0.5871    0.4422    9.0445 H   0  0  0  0  0  0  0  0  0  0  0  0
    1.0110   -1.1567    9.6290 H   0  0  0  0  0  0  0  0  0  0  0  0
    2.2488   -2.8149    7.8540 H   0  0  0  0  0  0  0  0  0  0  0  0
   -0.0171   -3.0925    8.6410 H   0  0  0  0  0  0  0  0  0  0  0  0
   -0.7352   -3.0334    5.9181 H   0  0  0  0  0  0  0  0  0  0  0  0
    1.3115   -4.9368    8.1095 H   0  0  0  0  0  0  0  0  0  0  0  0
   -1.3872   -5.3607    7.4596 H   0  0  0  0  0  0  0  0  0  0  0  0
   -0.1474   -5.0076    5.4186 H   0  0  0  0  0  0  0  0  0  0  0  0
    0.1560   -6.9361    4.0066 H   0  0  0  0  0  0  0  0  0  0  0  0
    2.3722   -7.0086    3.5010 H   0  0  0  0  0  0  0  0  0  0  0  0
    1.3813  -10.9291    2.4835 H   0  0  0  0  0  0  0  0  0  0  0  0
    0.2652   -9.9136    3.3824 H   0  0  0  0  0  0  0  0  0  0  0  0
    1.5788  -10.7413    4.1886 H   0  0  0  0  0  0  0  0  0  0  0  0
    1.8524   -9.1893    0.8730 H   0  0  0  0  0  0  0  0  0  0  0  0
    2.4025   -7.5801    1.2903 H   0  0  0  0  0  0  0  0  0  0  0  0
    0.7441   -8.0769    1.6318 H   0  0  0  0  0  0  0  0  0  0  0  0
    3.8483  -10.3181    3.5462 H   0  0  0  0  0  0  0  0  0  0  0  0
    4.2102  -10.3101    1.4423 H   0  0  0  0  0  0  0  0  0  0  0  0
    5.3615   -8.6902    4.4498 H   0  0  0  0  0  0  0  0  0  0  0  0
    4.7217   -7.4132    3.4339 H   0  0  0  0  0  0  0  0  0  0  0  0
    2.7737  -10.0082    5.6573 H   0  0  0  0  0  0  0  0  0  0  0  0
    4.2099  -10.1597    7.2445 H   0  0  0  0  0  0  0  0  0  0  0  0
    2.1503   -6.7448    7.8122 H   0  0  0  0  0  0  0  0  0  0  0  0
    4.2866   -6.8788    6.6631 H   0  0  0  0  0  0  0  0  0  0  0  0
    3.6500   -4.7503    6.6614 H   0  0  0  0  0  0  0  0  0  0  0  0
    4.2790   -5.4429    4.0367 H   0  0  0  0  0  0  0  0  0  0  0  0
    2.5930   -5.0098    3.2539 H   0  0  0  0  0  0  0  0  0  0  0  0
    1.8824   -3.4845    3.2960 H   0  0  0  0  0  0  0  0  0  0  0  0
    0.8600   -4.8704    3.4492 H   0  0  0  0  0  0  0  0  0  0  0  0
    4.1478   -2.6627    6.0547 H   0  0  0  0  0  0  0  0  0  0  0  0
    3.4940   -1.2231    5.4067 H   0  0  0  0  0  0  0  0  0  0  0  0
    3.6931   -2.5644    4.3642 H   0  0  0  0  0  0  0  0  0  0  0  0
    1.9024   -0.3832    4.3973 H   0  0  0  0  0  0  0  0  0  0  0  0
    0.2159   -0.4521    4.1987 H   0  0  0  0  0  0  0  0  0  0  0  0
   -1.3476   -0.7037    6.6138 H   0  0  0  0  0  0  0  0  0  0  0  0
   -1.2533    0.6334    5.5339 H   0  0  0  0  0  0  0  0  0  0  0  0
   -0.9957    0.9063    7.2592 H   0  0  0  0  0  0  0  0  0  0  0  0
  1  2  1  0
  1 46  1  0
  1 47  1  0
  1 48  1  0
  2  3  1  0
  3  9  1  0
  3 49  1  1
  3  4  1  0
  4  5  1  0
  5  6  2  0
  5  7  1  0
  7  9  2  0
  7  8  1  0
  8 50  1  0
  9 10  1  0
 10 44  1  0
 10 11  1  0
 10 51  1  1
 11 12  1  0
 11 52  1  0
 11 53  1  0
 12 13  1  0
 12 54  1  0
 12 55  1  0
 13 44  1  0
 13 14  1  1
 13 15  1  0
 14 56  1  0
 14 57  1  0
 14 58  1  0
 15 40  1  0
 15 16  1  0
 15 59  1  1
 16 17  1  0
 16 18  1  0
 16 60  1  1
 17 61  1  0
 18 19  1  0
 18 20  1  0
 18 62  1  1
 19 63  1  0
 20 38  1  0
 20 21  1  0
 20 64  1  6
 21 34  1  0
 21 22  2  0
 22 23  1  0
 22 65  1  0
 23 30  1  0
 23 24  1  0
 23 66  1  6
 24 25  1  0
 24 26  1  0
 24 27  1  0
 25 67  1  0
 25 68  1  0
 25 69  1  0
 26 70  1  0
 26 71  1  0
 26 72  1  0
 27 28  1  0
 27 29  1  0
 27 73  1  1
 28 74  1  0
 30 29  1  6
 29 75  1  0
 29 76  1  0
 30 35  1  0
 30 31  1  0
 31 32  1  0
 31 33  1  0
 31 77  1  6
 32 78  1  0
 33 34  1  0
 34 35  1  0
 34 79  1  1
 35 36  1  0
 35 80  1  1
 36 37  1  0
 36 38  1  0
 36 81  1  1
 37 82  1  0
 38 39  1  6
 38 40  1  0
 39 83  1  0
 39 84  1  0
 39 85  1  0
 40 41  1  6
 40 42  1  0
 41 86  1  0
 41 87  1  0
 41 88  1  0
 42 43  1  0
 43 44  1  0
 43 89  1  0
 43 90  1  0
 44 45  1  1
 45 91  1  0
 45 92  1  0
 45 93  1  0
M  END
>  <i_m_ct_stereo_status>  (64) 
1

>  <s_m_source_file>  (64) 
/var/tmp/pbs.5076255.sched01/tmp7v4tqmxt/0pyfftbwv.sdf

>  <i_m_source_file_index>  (64) 
25

>  <i_lp_mmshare_version>  (64) 
48012

>  <i_f3d_flags>  (64) 
0

>  <s_epik_input>  (64) 
W0NIM11PW0NAQEhdMU9DKD1PKUMoPU8pW0NASF0xW0NASF0oW0NIMl1bQ0gyXTIpW0NAXShbQ0gyXU8zKShbQ0gzXSlbQ0BAXTIoW0NIM10pW0NAQEhdKFtDQEBIXShbT0hdKVtDQEhdNFtPSF0pW0NAQF0zKFtDSDNdKVtDQEBdKFtDSDNdKShbQ0BIXShbT0hdKVtDQEhdNVtDQEBIXTZPW0NAQEhdN1tPSF0pW0NASF00QzY9W0NIXVtDQEBIXShbQ0BAXTU3OClDKFtDSDNdKShbQ0gzXSlbQ0BASF0oW09IXSlbQ0gyXTg=

>  <s_epik_cmdline>  (64) 
J2VwaWtfcHl0aG9uJywgJy1waHQnLCAnMi4wJywgJy1waCcsICc3LjAnLCAnLXRuJywgJzgnLCAnLW1hJywgJzIwMCcsICctaW1hZScsICc8aW5maWxlLm1hZT4nLCAnLW9tYWUnLCAnPG91dGZpbGUubWFlPic=

>  <r_lp_tautomer_probability>  (64) 
0.98983

>  <r_epik_Ionization_Penalty>  (64) 
0.279796

>  <r_epik_Ionization_Penalty_Charging>  (64) 
0

>  <r_epik_Ionization_Penalty_Neutral>  (64) 
0.279796

>  <r_epik_State_Penalty>  (64) 
0.275143

>  <r_epik_Charging_Adjusted_Penalty>  (64) 
0.275143

>  <i_epik_Tot_Q>  (64) 
0

>  <i_epik_Tot_abs_Q>  (64) 
0

>  <s_epik_Chemistry_Notes>  (64) 
This compound has an ester and may undergo hydrolysis at high or low pH. This compound contains an acetal/aminal-like group ( X-CH(R)-Y where X, Y are N, S, or O) that may be acid/base labile, releasing an aldehyde.

>  <s_lp_Force_Field>  (64) 
OPLS3e

>  <r_lp_Energy>  (64) 
146.33

>  <b_lp_Chiralities_Consistent>  (64) 
1

>  <s_lp_Variant>  (64) 
19:0-1

>  <s_i_glide_gridfile>  (64) 
pfpi4k_grid

>  <i_i_glide_lignum>  (64) 
25

>  <i_i_glide_rotatable_bonds>  (64) 
8

>  <r_i_docking_score>  (64) 
-2.76354

>  <r_i_glide_ligand_efficiency>  (64) 
-0.0614119

>  <r_i_glide_ligand_efficiency_sa>  (64) 
-0.218436

>  <r_i_glide_ligand_efficiency_ln>  (64) 
-0.574939

>  <r_i_glide_gscore>  (64) 
-2.76354

>  <r_i_glide_lipo>  (64) 
-0.101892

>  <r_i_glide_hbond>  (64) 
-0.117545

>  <r_i_glide_metal>  (64) 
-0

>  <r_i_glide_rewards>  (64) 
-0.5

>  <r_i_glide_evdw>  (64) 
-24.9393

>  <r_i_glide_ecoul>  (64) 
-5.09696

>  <r_i_glide_erotb>  (64) 
0.0528437

>  <r_i_glide_esite>  (64) 
-0.085432

>  <r_i_glide_emodel>  (64) 
-39.5655

>  <r_i_glide_energy>  (64) 
-30.0363

>  <r_i_glide_einternal>  (64) 
3.49486

>  <r_i_glide_intrahb_reward>  (64) 
-0.5

>  <i_i_glide_confnum>  (64) 
1

>  <i_i_glide_posenum>  (64) 
18

>  <r_i_glide_eff_state_penalty>  (64) 
0

>  <ligand_id>  (64) 
19

>  <original_smiles>  (64) 
COC1OC(=O)C(=O)C1C1CCC2(C)C3C(O)C(O)C4C5=CC6C(C)(C)C(O)CC67C(O)OC5C7C(O)C4(C)C3(C)OCC12C

>  <smiles>  (64) 
[H]OC1=C(C2([H])C([H])([H])C([H])([H])C3(C([H])([H])[H])C4([H])C([H])(O[H])C([H])(O[H])C5([H])C6=C([H])C7([H])C(C([H])([H])[H])(C([H])([H])[H])C([H])(O[H])C([H])([H])C78C([H])(O[H])OC6([H])C8([H])C([H])(O[H])C5(C([H])([H])[H])C4(C([H])([H])[H])OC([H])([H])C23C([H])([H])[H])C([H])(OC([H])([H])[H])OC1=O

$$$$
19:0:1
     RDKit          3D

 93100  0  0  1  0  0  0  0  0999 V2000
    3.7431   -0.0916    2.1276 C   0  0  0  0  0  0  0  0  0  0  0  0
    3.6381    0.7056    3.3000 O   0  0  0  0  0  0  0  0  0  0  0  0
    2.4966    1.5023    3.3088 C   0  0  2  0  0  0  0  0  0  0  0  0
    2.6112    2.6073    2.4654 O   0  0  0  0  0  0  0  0  0  0  0  0
    2.5150    3.7572    3.1473 C   0  0  0  0  0  0  0  0  0  0  0  0
    2.6256    4.8951    2.6731 O   0  0  0  0  0  0  0  0  0  0  0  0
    2.2614    3.4179    4.5482 C   0  0  0  0  0  0  0  0  0  0  0  0
    2.0871    4.3659    5.4796 O   0  0  0  0  0  0  0  0  0  0  0  0
    2.2356    2.0784    4.6710 C   0  0  0  0  0  0  0  0  0  0  0  0
    1.9914    1.2218    5.9350 C   0  0  2  0  0  0  0  0  0  0  0  0
    3.2625    0.7453    6.6383 C   0  0  0  0  0  0  0  0  0  0  0  0
    2.8181   -0.3805    7.5869 C   0  0  0  0  0  0  0  0  0  0  0  0
    1.3821   -0.8483    7.1859 C   0  0  2  0  0  0  0  0  0  0  0  0
    0.4937   -0.3511    8.3657 C   0  0  0  0  0  0  0  0  0  0  0  0
    1.3068   -2.4478    7.0575 C   0  0  1  0  0  0  0  0  0  0  0  0
   -0.1152   -3.0386    7.3376 C   0  0  1  0  0  0  0  0  0  0  0  0
   -1.1156   -2.6486    6.4111 O   0  0  0  0  0  0  0  0  0  0  0  0
   -0.0610   -4.5580    7.3464 C   0  0  1  0  0  0  0  0  0  0  0  0
   -1.3014   -5.0567    7.8001 O   0  0  0  0  0  0  0  0  0  0  0  0
    0.3319   -5.1694    5.9777 C   0  0  2  0  0  0  0  0  0  0  0  0
    0.3805   -6.6963    6.0391 C   0  0  0  0  0  0  0  0  0  0  0  0
    0.2669   -7.3951    4.8861 C   0  0  0  0  0  0  0  0  0  0  0  0
    1.5198   -8.1484    4.4624 C   0  0  2  0  0  0  0  0  0  0  0  0
    1.5691   -9.3441    3.4823 C   0  0  0  0  0  0  0  0  0  0  0  0
    0.4778  -10.4071    3.7229 C   0  0  0  0  0  0  0  0  0  0  0  0
    1.4122   -8.8584    2.0261 C   0  0  0  0  0  0  0  0  0  0  0  0
    3.0050   -9.9045    3.7854 C   0  0  1  0  0  0  0  0  0  0  0  0
    3.7861  -10.1476    2.6279 O   0  0  0  0  0  0  0  0  0  0  0  0
    3.7433   -8.9025    4.7216 C   0  0  0  0  0  0  0  0  0  0  0  0
    2.5956   -8.2995    5.5472 C   0  0  2  0  0  0  0  0  0  0  0  0
    2.1052   -9.2951    6.6257 C   0  0  1  0  0  0  0  0  0  0  0  0
    3.1621   -9.7389    7.4609 O   0  0  0  0  0  0  0  0  0  0  0  0
    1.1570   -8.5907    7.3499 O   0  0  0  0  0  0  0  0  0  0  0  0
    1.3488   -7.1990    7.1035 C   0  0  1  0  0  0  0  0  0  0  0  0
    2.7165   -7.0316    6.4765 C   0  0  2  0  0  0  0  0  0  0  0  0
    2.9255   -5.5328    6.0390 C   0  0  1  0  0  0  0  0  0  0  0  0
    4.1301   -5.5208    5.2966 O   0  0  0  0  0  0  0  0  0  0  0  0
    1.7284   -4.6317    5.4351 C   0  0  1  0  0  0  0  0  0  0  0  0
    1.7567   -4.7721    3.8617 C   0  0  0  0  0  0  0  0  0  0  0  0
    1.8994   -3.0462    5.7252 C   0  0  2  0  0  0  0  0  0  0  0  0
    3.4199   -2.7089    5.5033 C   0  0  0  0  0  0  0  0  0  0  0  0
    1.0331   -2.3564    4.8078 O   0  0  0  0  0  0  0  0  0  0  0  0
    1.2849   -0.9661    4.6278 C   0  0  0  0  0  0  0  0  0  0  0  0
    1.0485   -0.0396    5.8580 C   0  0  2  0  0  0  0  0  0  0  0  0
   -0.4017    0.5030    5.7495 C   0  0  0  0  0  0  0  0  0  0  0  0
    4.6101   -0.7519    2.1956 H   0  0  0  0  0  0  0  0  0  0  0  0
    3.8387    0.5016    1.2162 H   0  0  0  0  0  0  0  0  0  0  0  0
    2.8582   -0.7200    2.0361 H   0  0  0  0  0  0  0  0  0  0  0  0
    1.6275    0.9333    2.9834 H   0  0  0  0  0  0  0  0  0  0  0  0
    1.9695    3.9284    6.3116 H   0  0  0  0  0  0  0  0  0  0  0  0
    1.5441    1.9128    6.6441 H   0  0  0  0  0  0  0  0  0  0  0  0
    3.9906    0.4033    5.9061 H   0  0  0  0  0  0  0  0  0  0  0  0
    3.7521    1.5568    7.1891 H   0  0  0  0  0  0  0  0  0  0  0  0
    3.5510   -1.1806    7.6111 H   0  0  0  0  0  0  0  0  0  0  0  0
    2.8426    0.0009    8.6088 H   0  0  0  0  0  0  0  0  0  0  0  0
   -0.5701   -0.4927    8.1785 H   0  0  0  0  0  0  0  0  0  0  0  0
    0.6297    0.7182    8.5542 H   0  0  0  0  0  0  0  0  0  0  0  0
    0.7351   -0.8695    9.2958 H   0  0  0  0  0  0  0  0  0  0  0  0
    1.9363   -2.8327    7.8603 H   0  0  0  0  0  0  0  0  0  0  0  0
   -0.4303   -2.7369    8.3339 H   0  0  0  0  0  0  0  0  0  0  0  0
   -0.7289   -2.7313    5.5474 H   0  0  0  0  0  0  0  0  0  0  0  0
    0.6760   -4.7783    8.1134 H   0  0  0  0  0  0  0  0  0  0  0  0
   -1.9335   -4.9705    7.1038 H   0  0  0  0  0  0  0  0  0  0  0  0
   -0.4477   -4.8931    5.2635 H   0  0  0  0  0  0  0  0  0  0  0  0
   -0.2687   -6.9705    4.0510 H   0  0  0  0  0  0  0  0  0  0  0  0
    1.9582   -7.3760    3.8549 H   0  0  0  0  0  0  0  0  0  0  0  0
    0.5499  -11.1967    2.9724 H   0  0  0  0  0  0  0  0  0  0  0  0
   -0.5209   -9.9708    3.6527 H   0  0  0  0  0  0  0  0  0  0  0  0
    0.5436  -10.9058    4.6864 H   0  0  0  0  0  0  0  0  0  0  0  0
    1.4728   -9.6990    1.3352 H   0  0  0  0  0  0  0  0  0  0  0  0
    2.1840   -8.1474    1.7215 H   0  0  0  0  0  0  0  0  0  0  0  0
    0.4428   -8.3825    1.8647 H   0  0  0  0  0  0  0  0  0  0  0  0
    2.9159  -10.8503    4.3271 H   0  0  0  0  0  0  0  0  0  0  0  0
    3.4777  -10.9373    2.1998 H   0  0  0  0  0  0  0  0  0  0  0  0
    4.5268   -9.3611    5.3121 H   0  0  0  0  0  0  0  0  0  0  0  0
    4.2098   -8.1225    4.1277 H   0  0  0  0  0  0  0  0  0  0  0  0
    1.6623  -10.2003    6.2384 H   0  0  0  0  0  0  0  0  0  0  0  0
    2.8731  -10.5331    7.8653 H   0  0  0  0  0  0  0  0  0  0  0  0
    1.2655   -6.7039    8.0672 H   0  0  0  0  0  0  0  0  0  0  0  0
    3.4928   -7.2360    7.2172 H   0  0  0  0  0  0  0  0  0  0  0  0
    3.1641   -5.0445    6.9831 H   0  0  0  0  0  0  0  0  0  0  0  0
    4.0129   -6.0528    4.5256 H   0  0  0  0  0  0  0  0  0  0  0  0
    2.4991   -5.4671    3.4865 H   0  0  0  0  0  0  0  0  0  0  0  0
    2.0260   -3.8554    3.3378 H   0  0  0  0  0  0  0  0  0  0  0  0
    0.7984   -5.0678    3.4431 H   0  0  0  0  0  0  0  0  0  0  0  0
    4.0353   -3.1231    6.2978 H   0  0  0  0  0  0  0  0  0  0  0  0
    3.6981   -1.6709    5.4952 H   0  0  0  0  0  0  0  0  0  0  0  0
    3.7964   -3.0983    4.5588 H   0  0  0  0  0  0  0  0  0  0  0  0
    2.2767   -0.8663    4.2476 H   0  0  0  0  0  0  0  0  0  0  0  0
    0.6364   -0.6834    3.8004 H   0  0  0  0  0  0  0  0  0  0  0  0
   -1.1567   -0.2760    5.8119 H   0  0  0  0  0  0  0  0  0  0  0  0
   -0.5453    0.9973    4.7906 H   0  0  0  0  0  0  0  0  0  0  0  0
   -0.6373    1.2506    6.5047 H   0  0  0  0  0  0  0  0  0  0  0  0
  1  2  1  0
  1 46  1  0
  1 47  1  0
  1 48  1  0
  2  3  1  0
  3  9  1  0
  3 49  1  6
  3  4  1  0
  4  5  1  0
  5  6  2  0
  5  7  1  0
  7  9  2  0
  7  8  1  0
  8 50  1  0
  9 10  1  0
 10 44  1  0
 10 11  1  0
 10 51  1  1
 11 12  1  0
 11 52  1  0
 11 53  1  0
 12 13  1  0
 12 54  1  0
 12 55  1  0
 13 44  1  0
 13 14  1  1
 13 15  1  0
 14 56  1  0
 14 57  1  0
 14 58  1  0
 15 40  1  0
 15 16  1  0
 15 59  1  1
 16 17  1  0
 16 18  1  0
 16 60  1  1
 17 61  1  0
 18 19  1  0
 18 20  1  0
 18 62  1  1
 19 63  1  0
 20 38  1  0
 20 21  1  0
 20 64  1  6
 21 34  1  0
 21 22  2  0
 22 23  1  0
 22 65  1  0
 23 30  1  0
 23 24  1  0
 23 66  1  6
 24 25  1  0
 24 26  1  0
 24 27  1  0
 25 67  1  0
 25 68  1  0
 25 69  1  0
 26 70  1  0
 26 71  1  0
 26 72  1  0
 27 28  1  0
 27 29  1  0
 27 73  1  1
 28 74  1  0
 30 29  1  6
 29 75  1  0
 29 76  1  0
 30 35  1  0
 30 31  1  0
 31 32  1  0
 31 33  1  0
 31 77  1  6
 32 78  1  0
 33 34  1  0
 34 35  1  0
 34 79  1  1
 35 36  1  0
 35 80  1  1
 36 37  1  0
 36 38  1  0
 36 81  1  1
 37 82  1  0
 38 39  1  6
 38 40  1  0
 39 83  1  0
 39 84  1  0
 39 85  1  0
 40 41  1  6
 40 42  1  0
 41 86  1  0
 41 87  1  0
 41 88  1  0
 42 43  1  0
 43 44  1  0
 43 89  1  0
 43 90  1  0
 44 45  1  1
 45 91  1  0
 45 92  1  0
 45 93  1  0
M  END
>  <i_m_ct_stereo_status>  (65) 
1

>  <s_m_source_file>  (65) 
/var/tmp/pbs.5076255.sched01/tmp7v4tqmxt/0pyfftbwv.sdf

>  <i_m_source_file_index>  (65) 
25

>  <i_lp_mmshare_version>  (65) 
48012

>  <i_f3d_flags>  (65) 
0

>  <s_epik_input>  (65) 
W0NIM11PW0NAQEhdMU9DKD1PKUMoPU8pW0NASF0xW0NASF0oW0NIMl1bQ0gyXTIpW0NAXShbQ0gyXU8zKShbQ0gzXSlbQ0BAXTIoW0NIM10pW0NAQEhdKFtDQEBIXShbT0hdKVtDQEhdNFtPSF0pW0NAQF0zKFtDSDNdKVtDQEBdKFtDSDNdKShbQ0BIXShbT0hdKVtDQEhdNVtDQEBIXTZPW0NAQEhdN1tPSF0pW0NASF00QzY9W0NIXVtDQEBIXShbQ0BAXTU3OClDKFtDSDNdKShbQ0gzXSlbQ0BASF0oW09IXSlbQ0gyXTg=

>  <s_epik_cmdline>  (65) 
J2VwaWtfcHl0aG9uJywgJy1waHQnLCAnMi4wJywgJy1waCcsICc3LjAnLCAnLXRuJywgJzgnLCAnLW1hJywgJzIwMCcsICctaW1hZScsICc8aW5maWxlLm1hZT4nLCAnLW9tYWUnLCAnPG91dGZpbGUubWFlPic=

>  <r_lp_tautomer_probability>  (65) 
0.98983

>  <r_epik_Ionization_Penalty>  (65) 
0.279796

>  <r_epik_Ionization_Penalty_Charging>  (65) 
0

>  <r_epik_Ionization_Penalty_Neutral>  (65) 
0.279796

>  <r_epik_State_Penalty>  (65) 
0.275143

>  <r_epik_Charging_Adjusted_Penalty>  (65) 
0.275143

>  <i_epik_Tot_Q>  (65) 
0

>  <i_epik_Tot_abs_Q>  (65) 
0

>  <s_epik_Chemistry_Notes>  (65) 
This compound has an ester and may undergo hydrolysis at high or low pH. This compound contains an acetal/aminal-like group ( X-CH(R)-Y where X, Y are N, S, or O) that may be acid/base labile, releasing an aldehyde.

>  <s_lp_Force_Field>  (65) 
OPLS3e

>  <r_lp_Energy>  (65) 
146.33

>  <b_lp_Chiralities_Consistent>  (65) 
1

>  <s_lp_Variant>  (65) 
19:0-1

>  <s_i_glide_gridfile>  (65) 
pfpi4k_grid

>  <i_i_glide_lignum>  (65) 
25

>  <i_i_glide_rotatable_bonds>  (65) 
8

>  <r_i_docking_score>  (65) 
-2.67186

>  <r_i_glide_ligand_efficiency>  (65) 
-0.0593746

>  <r_i_glide_ligand_efficiency_sa>  (65) 
-0.211189

>  <r_i_glide_ligand_efficiency_ln>  (65) 
-0.555866

>  <r_i_glide_gscore>  (65) 
-2.67186

>  <r_i_glide_lipo>  (65) 
-0.024615

>  <r_i_glide_hbond>  (65) 
-0.0352198

>  <r_i_glide_metal>  (65) 
-0

>  <r_i_glide_rewards>  (65) 
-0.5

>  <r_i_glide_evdw>  (65) 
-27.0858

>  <r_i_glide_ecoul>  (65) 
-4.69925

>  <r_i_glide_erotb>  (65) 
0.0528437

>  <r_i_glide_esite>  (65) 
-0.105689

>  <r_i_glide_emodel>  (65) 
-40.9007

>  <r_i_glide_energy>  (65) 
-31.7851

>  <r_i_glide_einternal>  (65) 
3.88714

>  <r_i_glide_intrahb_reward>  (65) 
-0.5

>  <i_i_glide_confnum>  (65) 
1

>  <i_i_glide_posenum>  (65) 
4

>  <r_i_glide_eff_state_penalty>  (65) 
0

>  <ligand_id>  (65) 
19

>  <original_smiles>  (65) 
COC1OC(=O)C(=O)C1C1CCC2(C)C3C(O)C(O)C4C5=CC6C(C)(C)C(O)CC67C(O)OC5C7C(O)C4(C)C3(C)OCC12C

>  <smiles>  (65) 
[H]OC1=C(C2([H])C([H])([H])C([H])([H])C3(C([H])([H])[H])C4([H])C([H])(O[H])C([H])(O[H])C5([H])C6=C([H])C7([H])C(C([H])([H])[H])(C([H])([H])[H])C([H])(O[H])C([H])([H])C78C([H])(O[H])OC6([H])C8([H])C([H])(O[H])C5(C([H])([H])[H])C4(C([H])([H])[H])OC([H])([H])C23C([H])([H])[H])C([H])(OC([H])([H])[H])OC1=O

$$$$
19:0:2
     RDKit          3D

 93100  0  0  1  0  0  0  0  0999 V2000
   -1.7097    2.8871    8.2199 C   0  0  0  0  0  0  0  0  0  0  0  0
   -1.3155    2.2782    7.0092 O   0  0  0  0  0  0  0  0  0  0  0  0
   -1.2050    3.1292    5.9344 C   0  0  2  0  0  0  0  0  0  0  0  0
   -2.4716    3.4622    5.4008 O   0  0  0  0  0  0  0  0  0  0  0  0
   -2.5885    2.9554    4.1377 C   0  0  0  0  0  0  0  0  0  0  0  0
   -3.5995    2.9747    3.4415 O   0  0  0  0  0  0  0  0  0  0  0  0
   -1.2955    2.3984    3.7617 C   0  0  0  0  0  0  0  0  0  0  0  0
   -1.0967    1.9660    2.5056 O   0  0  0  0  0  0  0  0  0  0  0  0
   -0.4645    2.4777    4.7843 C   0  0  0  0  0  0  0  0  0  0  0  0
    1.0643    2.1843    4.8713 C   0  0  2  0  0  0  0  0  0  0  0  0
    1.8087    2.2093    3.5221 C   0  0  0  0  0  0  0  0  0  0  0  0
    3.1437    1.5008    3.7693 C   0  0  0  0  0  0  0  0  0  0  0  0
    3.0580    0.7216    5.1163 C   0  0  2  0  0  0  0  0  0  0  0  0
    4.0255    1.5154    6.0448 C   0  0  0  0  0  0  0  0  0  0  0  0
    3.5459   -0.7872    4.9562 C   0  0  1  0  0  0  0  0  0  0  0  0
    4.1777   -1.4024    6.2554 C   0  0  1  0  0  0  0  0  0  0  0  0
    3.2872   -1.5969    7.3397 O   0  0  0  0  0  0  0  0  0  0  0  0
    4.7824   -2.7693    5.9599 C   0  0  1  0  0  0  0  0  0  0  0  0
    5.4919   -3.2317    7.0994 O   0  0  0  0  0  0  0  0  0  0  0  0
    3.7276   -3.8121    5.5046 C   0  0  2  0  0  0  0  0  0  0  0  0
    4.3771   -5.1686    5.2168 C   0  0  0  0  0  0  0  0  0  0  0  0
    3.6128   -6.2841    5.2474 C   0  0  0  0  0  0  0  0  0  0  0  0
    3.4218   -6.9668    3.8990 C   0  0  2  0  0  0  0  0  0  0  0  0
    2.9865   -8.4361    3.6814 C   0  0  0  0  0  0  0  0  0  0  0  0
    3.7124   -9.4509    4.5880 C   0  0  0  0  0  0  0  0  0  0  0  0
    1.4685   -8.6037    3.9512 C   0  0  0  0  0  0  0  0  0  0  0  0
    3.3835   -8.6205    2.1767 C   0  0  1  0  0  0  0  0  0  0  0  0
    2.3677   -9.2122    1.4076 O   0  0  0  0  0  0  0  0  0  0  0  0
    3.7708   -7.2366    1.5803 C   0  0  0  0  0  0  0  0  0  0  0  0
    4.3790   -6.5142    2.7849 C   0  0  2  0  0  0  0  0  0  0  0  0
    5.8019   -7.0556    3.0776 C   0  0  1  0  0  0  0  0  0  0  0  0
    6.6476   -6.9617    1.9373 O   0  0  0  0  0  0  0  0  0  0  0  0
    6.2596   -6.2617    4.1185 O   0  0  0  0  0  0  0  0  0  0  0  0
    5.4730   -5.0740    4.1657 C   0  0  1  0  0  0  0  0  0  0  0  0
    4.7201   -4.9890    2.8525 C   0  0  2  0  0  0  0  0  0  0  0  0
    3.7160   -3.7733    2.8901 C   0  0  1  0  0  0  0  0  0  0  0  0
    2.9319   -3.9010    1.7118 O   0  0  0  0  0  0  0  0  0  0  0  0
    2.9006   -3.3490    4.2268 C   0  0  1  0  0  0  0  0  0  0  0  0
    1.5232   -4.1091    4.2089 C   0  0  0  0  0  0  0  0  0  0  0  0
    2.5018   -1.7728    4.2999 C   0  0  2  0  0  0  0  0  0  0  0  0
    2.0730   -1.3582    2.8577 C   0  0  0  0  0  0  0  0  0  0  0  0
    1.3894   -1.6069    5.1981 O   0  0  0  0  0  0  0  0  0  0  0  0
    0.7000   -0.3491    5.1792 C   0  0  0  0  0  0  0  0  0  0  0  0
    1.5623    0.8766    5.5984 C   0  0  2  0  0  0  0  0  0  0  0  0
    1.4411    1.0408    7.1470 C   0  0  0  0  0  0  0  0  0  0  0  0
   -1.6092    2.1624    9.0189 H   0  0  0  0  0  0  0  0  0  0  0  0
   -2.7501    3.2317    8.2064 H   0  0  0  0  0  0  0  0  0  0  0  0
   -1.0689    3.7328    8.4741 H   0  0  0  0  0  0  0  0  0  0  0  0
   -0.6981    4.0591    6.1982 H   0  0  0  0  0  0  0  0  0  0  0  0
   -0.1677    1.8967    2.3679 H   0  0  0  0  0  0  0  0  0  0  0  0
    1.4700    3.0415    5.4065 H   0  0  0  0  0  0  0  0  0  0  0  0
    1.2957    1.6697    2.7315 H   0  0  0  0  0  0  0  0  0  0  0  0
    1.9620    3.2259    3.1450 H   0  0  0  0  0  0  0  0  0  0  0  0
    3.4336    0.8849    2.9159 H   0  0  0  0  0  0  0  0  0  0  0  0
    3.9271    2.2589    3.8022 H   0  0  0  0  0  0  0  0  0  0  0  0
    4.0177    1.1628    7.0739 H   0  0  0  0  0  0  0  0  0  0  0  0
    3.7619    2.5729    6.0869 H   0  0  0  0  0  0  0  0  0  0  0  0
    5.0626    1.4549    5.7059 H   0  0  0  0  0  0  0  0  0  0  0  0
    4.3905   -0.7421    4.2666 H   0  0  0  0  0  0  0  0  0  0  0  0
    5.0020   -0.7749    6.6000 H   0  0  0  0  0  0  0  0  0  0  0  0
    2.5216   -2.0348    7.0048 H   0  0  0  0  0  0  0  0  0  0  0  0
    5.5143   -2.5681    5.1836 H   0  0  0  0  0  0  0  0  0  0  0  0
    4.8742   -3.3061    7.8108 H   0  0  0  0  0  0  0  0  0  0  0  0
    3.0404   -3.9672    6.3357 H   0  0  0  0  0  0  0  0  0  0  0  0
    2.7213   -6.3084    5.8547 H   0  0  0  0  0  0  0  0  0  0  0  0
    2.5261   -6.4493    3.6020 H   0  0  0  0  0  0  0  0  0  0  0  0
    3.3256  -10.4565    4.4115 H   0  0  0  0  0  0  0  0  0  0  0  0
    3.5574   -9.2158    5.6424 H   0  0  0  0  0  0  0  0  0  0  0  0
    4.7819   -9.5053    4.4111 H   0  0  0  0  0  0  0  0  0  0  0  0
    1.1512   -9.6326    3.7904 H   0  0  0  0  0  0  0  0  0  0  0  0
    0.8482   -7.9828    3.3067 H   0  0  0  0  0  0  0  0  0  0  0  0
    1.2182   -8.3605    4.9827 H   0  0  0  0  0  0  0  0  0  0  0  0
    4.2599   -9.2718    2.1063 H   0  0  0  0  0  0  0  0  0  0  0  0
    2.3942  -10.1462    1.5482 H   0  0  0  0  0  0  0  0  0  0  0  0
    4.4293   -7.3091    0.7154 H   0  0  0  0  0  0  0  0  0  0  0  0
    2.8802   -6.7025    1.2535 H   0  0  0  0  0  0  0  0  0  0  0  0
    5.8311   -8.0933    3.3874 H   0  0  0  0  0  0  0  0  0  0  0  0
    7.4635   -7.3791    2.1546 H   0  0  0  0  0  0  0  0  0  0  0  0
    6.1702   -4.2598    4.3132 H   0  0  0  0  0  0  0  0  0  0  0  0
    5.4099   -4.7630    2.0404 H   0  0  0  0  0  0  0  0  0  0  0  0
    4.3789   -2.9252    2.7144 H   0  0  0  0  0  0  0  0  0  0  0  0
    2.6120   -3.0494    1.4595 H   0  0  0  0  0  0  0  0  0  0  0  0
    1.4081   -4.7858    3.3693 H   0  0  0  0  0  0  0  0  0  0  0  0
    0.6549   -3.4620    4.0927 H   0  0  0  0  0  0  0  0  0  0  0  0
    1.3398   -4.6802    5.1185 H   0  0  0  0  0  0  0  0  0  0  0  0
    2.9219   -1.3144    2.1764 H   0  0  0  0  0  0  0  0  0  0  0  0
    1.6182   -0.3876    2.7686 H   0  0  0  0  0  0  0  0  0  0  0  0
    1.3301   -2.0401    2.4427 H   0  0  0  0  0  0  0  0  0  0  0  0
    0.1811   -0.1956    4.2313 H   0  0  0  0  0  0  0  0  0  0  0  0
   -0.1219   -0.4608    5.8840 H   0  0  0  0  0  0  0  0  0  0  0  0
    2.0473    0.3298    7.7072 H   0  0  0  0  0  0  0  0  0  0  0  0
    0.4421    0.8720    7.5099 H   0  0  0  0  0  0  0  0  0  0  0  0
    1.7687    2.0384    7.4651 H   0  0  0  0  0  0  0  0  0  0  0  0
  1  2  1  0
  1 46  1  0
  1 47  1  0
  1 48  1  0
  2  3  1  0
  3  9  1  0
  3 49  1  1
  3  4  1  0
  4  5  1  0
  5  6  2  0
  5  7  1  0
  7  9  2  0
  7  8  1  0
  8 50  1  0
  9 10  1  0
 10 44  1  0
 10 11  1  0
 10 51  1  1
 11 12  1  0
 11 52  1  0
 11 53  1  0
 12 13  1  0
 12 54  1  0
 12 55  1  0
 13 44  1  0
 13 14  1  1
 13 15  1  0
 14 56  1  0
 14 57  1  0
 14 58  1  0
 15 40  1  0
 15 16  1  0
 15 59  1  6
 16 17  1  0
 16 18  1  0
 16 60  1  1
 17 61  1  0
 18 19  1  0
 18 20  1  0
 18 62  1  6
 19 63  1  0
 20 38  1  0
 20 21  1  0
 20 64  1  1
 21 34  1  0
 21 22  2  0
 22 23  1  0
 22 65  1  0
 23 30  1  0
 23 24  1  0
 23 66  1  6
 24 25  1  0
 24 26  1  0
 24 27  1  0
 25 67  1  0
 25 68  1  0
 25 69  1  0
 26 70  1  0
 26 71  1  0
 26 72  1  0
 27 28  1  0
 27 29  1  0
 27 73  1  1
 28 74  1  0
 30 29  1  6
 29 75  1  0
 29 76  1  0
 30 35  1  0
 30 31  1  0
 31 32  1  0
 31 33  1  0
 31 77  1  1
 32 78  1  0
 33 34  1  0
 34 35  1  0
 34 79  1  1
 35 36  1  0
 35 80  1  6
 36 37  1  0
 36 38  1  0
 36 81  1  6
 37 82  1  0
 38 39  1  6
 38 40  1  0
 39 83  1  0
 39 84  1  0
 39 85  1  0
 40 41  1  6
 40 42  1  0
 41 86  1  0
 41 87  1  0
 41 88  1  0
 42 43  1  0
 43 44  1  0
 43 89  1  0
 43 90  1  0
 44 45  1  1
 45 91  1  0
 45 92  1  0
 45 93  1  0
M  END
>  <i_m_ct_stereo_status>  (66) 
1

>  <s_m_source_file>  (66) 
/var/tmp/pbs.5076255.sched01/tmp7v4tqmxt/0pyfftbwv.sdf

>  <i_m_source_file_index>  (66) 
25

>  <i_lp_mmshare_version>  (66) 
48012

>  <i_f3d_flags>  (66) 
0

>  <s_epik_input>  (66) 
W0NIM11PW0NAQEhdMU9DKD1PKUMoPU8pW0NASF0xW0NASF0oW0NIMl1bQ0gyXTIpW0NAXShbQ0gyXU8zKShbQ0gzXSlbQ0BAXTIoW0NIM10pW0NAQEhdKFtDQEBIXShbT0hdKVtDQEhdNFtPSF0pW0NAQF0zKFtDSDNdKVtDQEBdKFtDSDNdKShbQ0BIXShbT0hdKVtDQEhdNVtDQEBIXTZPW0NAQEhdN1tPSF0pW0NASF00QzY9W0NIXVtDQEBIXShbQ0BAXTU3OClDKFtDSDNdKShbQ0gzXSlbQ0BASF0oW09IXSlbQ0gyXTg=

>  <s_epik_cmdline>  (66) 
J2VwaWtfcHl0aG9uJywgJy1waHQnLCAnMi4wJywgJy1waCcsICc3LjAnLCAnLXRuJywgJzgnLCAnLW1hJywgJzIwMCcsICctaW1hZScsICc8aW5maWxlLm1hZT4nLCAnLW9tYWUnLCAnPG91dGZpbGUubWFlPic=

>  <r_lp_tautomer_probability>  (66) 
0.98983

>  <r_epik_Ionization_Penalty>  (66) 
0.279796

>  <r_epik_Ionization_Penalty_Charging>  (66) 
0

>  <r_epik_Ionization_Penalty_Neutral>  (66) 
0.279796

>  <r_epik_State_Penalty>  (66) 
0.275143

>  <r_epik_Charging_Adjusted_Penalty>  (66) 
0.275143

>  <i_epik_Tot_Q>  (66) 
0

>  <i_epik_Tot_abs_Q>  (66) 
0

>  <s_epik_Chemistry_Notes>  (66) 
This compound has an ester and may undergo hydrolysis at high or low pH. This compound contains an acetal/aminal-like group ( X-CH(R)-Y where X, Y are N, S, or O) that may be acid/base labile, releasing an aldehyde.

>  <s_lp_Force_Field>  (66) 
OPLS3e

>  <r_lp_Energy>  (66) 
146.33

>  <b_lp_Chiralities_Consistent>  (66) 
1

>  <s_lp_Variant>  (66) 
19:0-1

>  <s_i_glide_gridfile>  (66) 
pfpi4k_grid

>  <i_i_glide_lignum>  (66) 
25

>  <i_i_glide_rotatable_bonds>  (66) 
8

>  <r_i_docking_score>  (66) 
-2.16009

>  <r_i_glide_ligand_efficiency>  (66) 
-0.0480019

>  <r_i_glide_ligand_efficiency_sa>  (66) 
-0.170738

>  <r_i_glide_ligand_efficiency_ln>  (66) 
-0.449394

>  <r_i_glide_gscore>  (66) 
-2.16009

>  <r_i_glide_lipo>  (66) 
-0.0800286

>  <r_i_glide_hbond>  (66) 
0

>  <r_i_glide_metal>  (66) 
-0

>  <r_i_glide_rewards>  (66) 
-0.51103

>  <r_i_glide_evdw>  (66) 
-25.7287

>  <r_i_glide_ecoul>  (66) 
-1.98043

>  <r_i_glide_erotb>  (66) 
0.0528437

>  <r_i_glide_esite>  (66) 
-0.0383716

>  <r_i_glide_emodel>  (66) 
-36.8427

>  <r_i_glide_energy>  (66) 
-27.7092

>  <r_i_glide_einternal>  (66) 
1.77151

>  <r_i_glide_intrahb_reward>  (66) 
-0.5

>  <i_i_glide_confnum>  (66) 
2

>  <i_i_glide_posenum>  (66) 
6

>  <r_i_glide_eff_state_penalty>  (66) 
0

>  <ligand_id>  (66) 
19

>  <original_smiles>  (66) 
COC1OC(=O)C(=O)C1C1CCC2(C)C3C(O)C(O)C4C5=CC6C(C)(C)C(O)CC67C(O)OC5C7C(O)C4(C)C3(C)OCC12C

>  <smiles>  (66) 
[H]OC1=C(C2([H])C([H])([H])C([H])([H])C3(C([H])([H])[H])C4([H])C([H])(O[H])C([H])(O[H])C5([H])C6=C([H])C7([H])C(C([H])([H])[H])(C([H])([H])[H])C([H])(O[H])C([H])([H])C78C([H])(O[H])OC6([H])C8([H])C([H])(O[H])C5(C([H])([H])[H])C4(C([H])([H])[H])OC([H])([H])C23C([H])([H])[H])C([H])(OC([H])([H])[H])OC1=O

$$$$
19:1:0
     RDKit          3D

 92 99  0  0  1  0  0  0  0  0999 V2000
   -0.5361    1.8642   10.1733 C   0  0  0  0  0  0  0  0  0  0  0  0
   -0.2397    3.2609   10.1935 O   0  0  0  0  0  0  0  0  0  0  0  0
   -1.0594    4.0692    9.4026 C   0  0  2  0  0  0  0  0  0  0  0  0
   -2.3964    3.9622    9.7613 O   0  0  0  0  0  0  0  0  0  0  0  0
   -3.1214    3.4107    8.7324 C   0  0  0  0  0  0  0  0  0  0  0  0
   -4.2997    3.0254    8.8027 O   0  0  0  0  0  0  0  0  0  0  0  0
   -2.2521    3.3069    7.5331 C   0  0  0  0  0  0  0  0  0  0  0  0
   -2.7833    2.9711    6.4732 O   0  0  0  0  0  0  0  0  0  0  0  0
   -0.9899    3.7128    7.9388 C   0  0  0  0  0  0  0  0  0  0  0  0
    0.2933    3.9932    7.1328 C   0  0  2  0  0  0  0  0  0  0  0  0
    0.0269    4.4330    5.6802 C   0  0  0  0  0  0  0  0  0  0  0  0
    1.3712    4.2756    4.9582 C   0  0  0  0  0  0  0  0  0  0  0  0
    2.3185    3.4034    5.8516 C   0  0  2  0  0  0  0  0  0  0  0  0
    3.4066    4.4169    6.3227 C   0  0  0  0  0  0  0  0  0  0  0  0
    2.9940    2.2274    4.9975 C   0  0  1  0  0  0  0  0  0  0  0  0
    4.3845    1.7708    5.5508 C   0  0  1  0  0  0  0  0  0  0  0  0
    4.3796    1.1791    6.8292 O   0  0  0  0  0  0  0  0  0  0  0  0
    5.0355    0.7819    4.6122 C   0  0  1  0  0  0  0  0  0  0  0  0
    6.3769    0.5446    5.0030 O   0  0  0  0  0  0  0  0  0  0  0  0
    4.2432   -0.5316    4.4241 C   0  0  2  0  0  0  0  0  0  0  0  0
    4.9263   -1.4808    3.4340 C   0  0  0  0  0  0  0  0  0  0  0  0
    4.6533   -2.8071    3.4960 C   0  0  0  0  0  0  0  0  0  0  0  0
    3.8775   -3.3682    2.3071 C   0  0  2  0  0  0  0  0  0  0  0  0
    3.8013   -4.8540    1.8919 C   0  0  0  0  0  0  0  0  0  0  0  0
    5.1660   -5.5786    1.9319 C   0  0  0  0  0  0  0  0  0  0  0  0
    2.8585   -5.6370    2.8425 C   0  0  0  0  0  0  0  0  0  0  0  0
    3.2357   -4.7052    0.4314 C   0  0  1  0  0  0  0  0  0  0  0  0
    2.1434   -5.5235    0.0785 O   0  0  0  0  0  0  0  0  0  0  0  0
    2.8477   -3.2204    0.1935 C   0  0  0  0  0  0  0  0  0  0  0  0
    3.8493   -2.4561    1.0597 C   0  0  2  0  0  0  0  0  0  0  0  0
    5.2476   -2.4015    0.3939 C   0  0  1  0  0  0  0  0  0  0  0  0
    5.1857   -1.8757   -0.9023 O   0  0  0  0  0  0  0  0  0  0  0  0
    5.9909   -1.6145    1.2519 O   0  0  0  0  0  0  0  0  0  0  0  0
    5.1124   -0.8452    2.0632 C   0  0  1  0  0  0  0  0  0  0  0  0
    3.7392   -0.9324    1.4123 C   0  0  2  0  0  0  0  0  0  0  0  0
    2.6702   -0.2100    2.3253 C   0  0  1  0  0  0  0  0  0  0  0  0
    1.4024   -0.5212    1.7500 O   0  0  0  0  0  0  0  0  0  0  0  0
    2.7352   -0.2970    3.9477 C   0  0  1  0  0  0  0  0  0  0  0  0
    1.8732   -1.5339    4.4079 C   0  0  0  0  0  0  0  0  0  0  0  0
    2.0646    0.9856    4.6938 C   0  0  2  0  0  0  0  0  0  0  0  0
    0.7610    1.3369    3.9169 C   0  0  0  0  0  0  0  0  0  0  0  0
    1.7323    0.6067    6.0338 O   0  0  0  0  0  0  0  0  0  0  0  0
    0.8851    1.4778    6.8023 C   0  0  0  0  0  0  0  0  0  0  0  0
    1.4370    2.9173    7.0763 C   0  0  2  0  0  0  0  0  0  0  0  0
    2.1918    2.9071    8.4369 C   0  0  0  0  0  0  0  0  0  0  0  0
    0.2864    1.2991   10.6157 H   0  0  0  0  0  0  0  0  0  0  0  0
   -0.6196    1.5410    9.1369 H   0  0  0  0  0  0  0  0  0  0  0  0
   -1.4696    1.5864   10.6850 H   0  0  0  0  0  0  0  0  0  0  0  0
   -0.8193    5.1223    9.5711 H   0  0  0  0  0  0  0  0  0  0  0  0
    0.6916    4.8958    7.5965 H   0  0  0  0  0  0  0  0  0  0  0  0
   -0.7294    3.8138    5.1933 H   0  0  0  0  0  0  0  0  0  0  0  0
   -0.3445    5.4633    5.6133 H   0  0  0  0  0  0  0  0  0  0  0  0
    1.2440    3.8906    3.9460 H   0  0  0  0  0  0  0  0  0  0  0  0
    1.8016    5.2658    4.7894 H   0  0  0  0  0  0  0  0  0  0  0  0
    4.0991    3.9868    7.0410 H   0  0  0  0  0  0  0  0  0  0  0  0
    2.9545    5.2784    6.8141 H   0  0  0  0  0  0  0  0  0  0  0  0
    4.0100    4.7909    5.4929 H   0  0  0  0  0  0  0  0  0  0  0  0
    3.2275    2.6673    4.0258 H   0  0  0  0  0  0  0  0  0  0  0  0
    5.0591    2.6281    5.6021 H   0  0  0  0  0  0  0  0  0  0  0  0
    3.7633    0.4574    6.8107 H   0  0  0  0  0  0  0  0  0  0  0  0
    5.0659    1.3353    3.6813 H   0  0  0  0  0  0  0  0  0  0  0  0
    6.8333    0.1200    4.2888 H   0  0  0  0  0  0  0  0  0  0  0  0
    4.2451   -1.0289    5.3931 H   0  0  0  0  0  0  0  0  0  0  0  0
    4.3452   -3.2298    4.4385 H   0  0  0  0  0  0  0  0  0  0  0  0
    2.8924   -3.2107    2.6975 H   0  0  0  0  0  0  0  0  0  0  0  0
    5.0467   -6.6270    1.6519 H   0  0  0  0  0  0  0  0  0  0  0  0
    5.6006   -5.5546    2.9328 H   0  0  0  0  0  0  0  0  0  0  0  0
    5.9035   -5.1690    1.2529 H   0  0  0  0  0  0  0  0  0  0  0  0
    2.8038   -6.6880    2.5592 H   0  0  0  0  0  0  0  0  0  0  0  0
    1.8383   -5.2518    2.8403 H   0  0  0  0  0  0  0  0  0  0  0  0
    3.2182   -5.6110    3.8716 H   0  0  0  0  0  0  0  0  0  0  0  0
    4.0414   -4.9682   -0.2629 H   0  0  0  0  0  0  0  0  0  0  0  0
    2.2451   -5.7578   -0.8381 H   0  0  0  0  0  0  0  0  0  0  0  0
    2.8474   -2.9457   -0.8657 H   0  0  0  0  0  0  0  0  0  0  0  0
    1.8465   -3.0403    0.5660 H   0  0  0  0  0  0  0  0  0  0  0  0
    5.7303   -3.3693    0.3097 H   0  0  0  0  0  0  0  0  0  0  0  0
    4.5312   -1.1905   -0.9064 H   0  0  0  0  0  0  0  0  0  0  0  0
    5.5087    0.1581    2.0733 H   0  0  0  0  0  0  0  0  0  0  0  0
    3.7299   -0.3603    0.4860 H   0  0  0  0  0  0  0  0  0  0  0  0
    2.8579    0.8465    2.1235 H   0  0  0  0  0  0  0  0  0  0  0  0
    1.4347   -0.4897    0.7920 H   0  0  0  0  0  0  0  0  0  0  0  0
    1.4550   -2.1012    3.5855 H   0  0  0  0  0  0  0  0  0  0  0  0
    0.9820   -1.2730    4.9763 H   0  0  0  0  0  0  0  0  0  0  0  0
    2.4215   -2.2257    5.0452 H   0  0  0  0  0  0  0  0  0  0  0  0
    0.9835    1.7855    2.9523 H   0  0  0  0  0  0  0  0  0  0  0  0
    0.1043    2.0341    4.4092 H   0  0  0  0  0  0  0  0  0  0  0  0
    0.1448    0.4548    3.7417 H   0  0  0  0  0  0  0  0  0  0  0  0
   -0.1362    1.4771    6.4087 H   0  0  0  0  0  0  0  0  0  0  0  0
    0.8067    0.9537    7.7499 H   0  0  0  0  0  0  0  0  0  0  0  0
    1.5146    2.6166    9.2504 H   0  0  0  0  0  0  0  0  0  0  0  0
    2.5815    3.8925    8.6782 H   0  0  0  0  0  0  0  0  0  0  0  0
    3.0608    2.2528    8.4062 H   0  0  0  0  0  0  0  0  0  0  0  0
  1  2  1  0
  1 46  1  0
  1 47  1  0
  1 48  1  0
  2  3  1  0
  3  9  1  0
  3 49  1  6
  3  4  1  0
  4  5  1  0
  5  6  2  0
  5  7  1  0
  7  9  2  0
  7  8  1  0
  9 10  1  0
 10 44  1  0
 10 11  1  0
 10 50  1  1
 11 12  1  0
 11 51  1  0
 11 52  1  0
 12 13  1  0
 12 53  1  0
 12 54  1  0
 13 44  1  0
 13 14  1  1
 13 15  1  0
 14 55  1  0
 14 56  1  0
 14 57  1  0
 15 40  1  0
 15 16  1  0
 15 58  1  6
 16 17  1  0
 16 18  1  0
 16 59  1  1
 17 60  1  0
 18 19  1  0
 18 20  1  0
 18 61  1  6
 19 62  1  0
 20 38  1  0
 20 21  1  0
 20 63  1  1
 21 34  1  0
 21 22  2  0
 22 23  1  0
 22 64  1  0
 23 30  1  0
 23 24  1  0
 23 65  1  1
 24 25  1  0
 24 26  1  0
 24 27  1  0
 25 66  1  0
 25 67  1  0
 25 68  1  0
 26 69  1  0
 26 70  1  0
 26 71  1  0
 27 28  1  0
 27 29  1  0
 27 72  1  6
 28 73  1  0
 30 29  1  6
 29 74  1  0
 29 75  1  0
 30 35  1  0
 30 31  1  0
 31 32  1  0
 31 33  1  0
 31 76  1  6
 32 77  1  0
 33 34  1  0
 34 35  1  0
 34 78  1  1
 35 36  1  0
 35 79  1  6
 36 37  1  0
 36 38  1  0
 36 80  1  1
 37 81  1  0
 38 39  1  1
 38 40  1  0
 39 82  1  0
 39 83  1  0
 39 84  1  0
 40 41  1  6
 40 42  1  0
 41 85  1  0
 41 86  1  0
 41 87  1  0
 42 43  1  0
 43 44  1  0
 43 88  1  0
 43 89  1  0
 44 45  1  1
 45 90  1  0
 45 91  1  0
 45 92  1  0
M  CHG  1   8  -1
M  END
>  <i_m_ct_stereo_status>  (67) 
1

>  <s_m_source_file>  (67) 
/var/tmp/pbs.5076255.sched01/tmp7v4tqmxt/0pyfftbwv.sdf

>  <i_m_source_file_index>  (67) 
26

>  <i_lp_mmshare_version>  (67) 
48012

>  <i_f3d_flags>  (67) 
0

>  <s_epik_input>  (67) 
W0NIM11PW0NAQEhdMU9DKD1PKUMoPU8pW0NASF0xW0NASF0oW0NIMl1bQ0gyXTIpW0NAXShbQ0gyXU8zKShbQ0gzXSlbQ0BAXTIoW0NIM10pW0NAQEhdKFtDQEBIXShbT0hdKVtDQEhdNFtPSF0pW0NAQF0zKFtDSDNdKVtDQEBdKFtDSDNdKShbQ0BIXShbT0hdKVtDQEhdNVtDQEBIXTZPW0NAQEhdN1tPSF0pW0NASF00QzY9W0NIXVtDQEBIXShbQ0BAXTU3OClDKFtDSDNdKShbQ0gzXSlbQ0BASF0oW09IXSlbQ0gyXTg=

>  <s_epik_cmdline>  (67) 
J2VwaWtfcHl0aG9uJywgJy1waHQnLCAnMi4wJywgJy1waCcsICc3LjAnLCAnLXRuJywgJzgnLCAnLW1hJywgJzIwMCcsICctaW1hZScsICc8aW5maWxlLm1hZT4nLCAnLW9tYWUnLCAnPG91dGZpbGUubWFlPic=

>  <r_lp_tautomer_probability>  (67) 
1

>  <r_epik_Ionization_Penalty>  (67) 
0.578926

>  <r_epik_Ionization_Penalty_Charging>  (67) 
0.578926

>  <r_epik_Ionization_Penalty_Neutral>  (67) 
5.37924e-07

>  <r_epik_State_Penalty>  (67) 
0.59434

>  <r_epik_Charging_Adjusted_Penalty>  (67) 
1.17327

>  <i_epik_Tot_Q>  (67) 
-1

>  <i_epik_Tot_abs_Q>  (67) 
1

>  <s_epik_Chemistry_Notes>  (67) 
This compound has an ester and may undergo hydrolysis at high or low pH. This compound contains an acetal/aminal-like group ( X-CH(R)-Y where X, Y are N, S, or O) that may be acid/base labile, releasing an aldehyde.

>  <s_lp_Force_Field>  (67) 
OPLS3e

>  <r_lp_Energy>  (67) 
152.483

>  <b_lp_Chiralities_Consistent>  (67) 
1

>  <s_lp_Variant>  (67) 
19:0-2

>  <s_i_glide_gridfile>  (67) 
pfpi4k_grid

>  <i_i_glide_lignum>  (67) 
26

>  <i_i_glide_rotatable_bonds>  (67) 
7

>  <r_i_docking_score>  (67) 
-3.89914

>  <r_i_glide_ligand_efficiency>  (67) 
-0.0866475

>  <r_i_glide_ligand_efficiency_sa>  (67) 
-0.308196

>  <r_i_glide_ligand_efficiency_ln>  (67) 
-0.811194

>  <r_i_glide_gscore>  (67) 
-3.89914

>  <r_i_glide_lipo>  (67) 
-0.431022

>  <r_i_glide_hbond>  (67) 
-0.450539

>  <r_i_glide_metal>  (67) 
-0

>  <r_i_glide_rewards>  (67) 
-0.589496

>  <r_i_glide_evdw>  (67) 
-27.5687

>  <r_i_glide_ecoul>  (67) 
-7.32311

>  <r_i_glide_erotb>  (67) 
0.0530009

>  <r_i_glide_esite>  (67) 
-0.00418153

>  <r_i_glide_emodel>  (67) 
-46.2488

>  <r_i_glide_energy>  (67) 
-34.8918

>  <r_i_glide_einternal>  (67) 
4.46297

>  <r_i_glide_intrahb_reward>  (67) 
-0.5

>  <i_i_glide_confnum>  (67) 
3

>  <i_i_glide_posenum>  (67) 
22

>  <r_i_glide_eff_state_penalty>  (67) 
0

>  <ligand_id>  (67) 
19

>  <original_smiles>  (67) 
COC1OC(=O)C(=O)C1C1CCC2(C)C3C(O)C(O)C4C5=CC6C(C)(C)C(O)CC67C(O)OC5C7C(O)C4(C)C3(C)OCC12C

>  <smiles>  (67) 
[H]OC1([H])OC2([H])C3=C([H])C4([H])C(C([H])([H])[H])(C([H])([H])[H])C([H])(O[H])C([H])([H])C14C2([H])C([H])(O[H])C1(C([H])([H])[H])C3([H])C([H])(O[H])C([H])(O[H])C2([H])C1(C([H])([H])[H])OC([H])([H])C1(C([H])([H])[H])C([H])(C3=C([O-])C(=O)OC3([H])OC([H])([H])[H])C([H])([H])C([H])([H])C21C([H])([H])[H]

$$$$
19:1:1
     RDKit          3D

 92 99  0  0  1  0  0  0  0  0999 V2000
   -0.1078    2.8026   11.3623 C   0  0  0  0  0  0  0  0  0  0  0  0
   -0.3732    2.6814    9.9872 O   0  0  0  0  0  0  0  0  0  0  0  0
   -1.0722    3.7481    9.4482 C   0  0  2  0  0  0  0  0  0  0  0  0
   -2.4201    3.7441    9.8170 O   0  0  0  0  0  0  0  0  0  0  0  0
   -3.1795    3.4017    8.7285 C   0  0  0  0  0  0  0  0  0  0  0  0
   -4.3802    3.1278    8.7769 O   0  0  0  0  0  0  0  0  0  0  0  0
   -2.3458    3.4196    7.5060 C   0  0  0  0  0  0  0  0  0  0  0  0
   -2.9352    3.3288    6.3900 O   0  0  0  0  0  0  0  0  0  0  0  0
   -1.0684    3.6494    7.9405 C   0  0  0  0  0  0  0  0  0  0  0  0
    0.2353    3.9612    7.1528 C   0  0  2  0  0  0  0  0  0  0  0  0
   -0.0176    4.3975    5.6884 C   0  0  0  0  0  0  0  0  0  0  0  0
    1.3268    4.2444    4.9632 C   0  0  0  0  0  0  0  0  0  0  0  0
    2.2752    3.3767    5.8462 C   0  0  2  0  0  0  0  0  0  0  0  0
    3.3611    4.3922    6.3226 C   0  0  0  0  0  0  0  0  0  0  0  0
    2.9563    2.1983    5.0049 C   0  0  1  0  0  0  0  0  0  0  0  0
    4.3551    1.7591    5.5467 C   0  0  1  0  0  0  0  0  0  0  0  0
    4.3656    1.1721    6.8264 O   0  0  0  0  0  0  0  0  0  0  0  0
    5.0140    0.7743    4.5988 C   0  0  1  0  0  0  0  0  0  0  0  0
    6.3449    0.5076    5.0163 O   0  0  0  0  0  0  0  0  0  0  0  0
    4.2271   -0.5421    4.4216 C   0  0  2  0  0  0  0  0  0  0  0  0
    4.9171   -1.4892    3.4343 C   0  0  0  0  0  0  0  0  0  0  0  0
    4.6524   -2.8138    3.4993 C   0  0  0  0  0  0  0  0  0  0  0  0
    3.8806   -3.3825    2.3111 C   0  0  2  0  0  0  0  0  0  0  0  0
    3.8124   -4.8669    1.8997 C   0  0  0  0  0  0  0  0  0  0  0  0
    5.1740   -5.5920    1.9314 C   0  0  0  0  0  0  0  0  0  0  0  0
    2.8680   -5.6648    2.8473 C   0  0  0  0  0  0  0  0  0  0  0  0
    3.2444   -4.7285    0.4454 C   0  0  1  0  0  0  0  0  0  0  0  0
    2.1600   -5.5709    0.1455 O   0  0  0  0  0  0  0  0  0  0  0  0
    2.8403   -3.2474    0.1962 C   0  0  0  0  0  0  0  0  0  0  0  0
    3.8394   -2.4750    1.0612 C   0  0  2  0  0  0  0  0  0  0  0  0
    5.2363   -2.4164    0.3918 C   0  0  1  0  0  0  0  0  0  0  0  0
    5.1740   -1.8900   -0.8978 O   0  0  0  0  0  0  0  0  0  0  0  0
    5.9728   -1.6223    1.2428 O   0  0  0  0  0  0  0  0  0  0  0  0
    5.0964   -0.8574    2.0595 C   0  0  1  0  0  0  0  0  0  0  0  0
    3.7247   -0.9521    1.4151 C   0  0  2  0  0  0  0  0  0  0  0  0
    2.6560   -0.2317    2.3314 C   0  0  1  0  0  0  0  0  0  0  0  0
    1.3973   -0.5569    1.7429 O   0  0  0  0  0  0  0  0  0  0  0  0
    2.7153   -0.3206    3.9569 C   0  0  1  0  0  0  0  0  0  0  0  0
    1.8616   -1.5617    4.4086 C   0  0  0  0  0  0  0  0  0  0  0  0
    2.0318    0.9494    4.7179 C   0  0  2  0  0  0  0  0  0  0  0  0
    0.7369    1.3001    3.9230 C   0  0  0  0  0  0  0  0  0  0  0  0
    1.6882    0.5727    6.0659 O   0  0  0  0  0  0  0  0  0  0  0  0
    0.8347    1.4525    6.8207 C   0  0  0  0  0  0  0  0  0  0  0  0
    1.3922    2.8932    7.0755 C   0  0  2  0  0  0  0  0  0  0  0  0
    2.1878    2.8755    8.4319 C   0  0  0  0  0  0  0  0  0  0  0  0
    0.6058    2.0239   11.5900 H   0  0  0  0  0  0  0  0  0  0  0  0
   -1.0035    2.6719   11.9938 H   0  0  0  0  0  0  0  0  0  0  0  0
    0.3612    3.7695   11.5860 H   0  0  0  0  0  0  0  0  0  0  0  0
   -0.6999    4.7272    9.7866 H   0  0  0  0  0  0  0  0  0  0  0  0
    0.6471    4.8623    7.6088 H   0  0  0  0  0  0  0  0  0  0  0  0
   -0.7476    3.7678    5.1887 H   0  0  0  0  0  0  0  0  0  0  0  0
   -0.3870    5.4219    5.6111 H   0  0  0  0  0  0  0  0  0  0  0  0
    1.2067    3.8606    3.9513 H   0  0  0  0  0  0  0  0  0  0  0  0
    1.7587    5.2301    4.7847 H   0  0  0  0  0  0  0  0  0  0  0  0
    4.0576    3.9725    7.0433 H   0  0  0  0  0  0  0  0  0  0  0  0
    2.9112    5.2537    6.8136 H   0  0  0  0  0  0  0  0  0  0  0  0
    3.9661    4.7718    5.4979 H   0  0  0  0  0  0  0  0  0  0  0  0
    3.1879    2.6375    4.0329 H   0  0  0  0  0  0  0  0  0  0  0  0
    5.0164    2.6262    5.5984 H   0  0  0  0  0  0  0  0  0  0  0  0
    3.7668    0.4321    6.8163 H   0  0  0  0  0  0  0  0  0  0  0  0
    5.0574    1.3131    3.6658 H   0  0  0  0  0  0  0  0  0  0  0  0
    6.7932    1.3345    5.1388 H   0  0  0  0  0  0  0  0  0  0  0  0
    4.2337   -1.0427    5.3895 H   0  0  0  0  0  0  0  0  0  0  0  0
    4.3361   -3.2445    4.4372 H   0  0  0  0  0  0  0  0  0  0  0  0
    2.8887   -3.2393    2.6909 H   0  0  0  0  0  0  0  0  0  0  0  0
    5.0654   -6.6402    1.6508 H   0  0  0  0  0  0  0  0  0  0  0  0
    5.6107   -5.5652    2.9280 H   0  0  0  0  0  0  0  0  0  0  0  0
    5.9077   -5.1783    1.2518 H   0  0  0  0  0  0  0  0  0  0  0  0
    2.8179   -6.7172    2.5639 H   0  0  0  0  0  0  0  0  0  0  0  0
    1.8458   -5.2857    2.8421 H   0  0  0  0  0  0  0  0  0  0  0  0
    3.2274   -5.6358    3.8741 H   0  0  0  0  0  0  0  0  0  0  0  0
    4.0402   -4.9921   -0.2617 H   0  0  0  0  0  0  0  0  0  0  0  0
    2.2402   -5.7969   -0.7791 H   0  0  0  0  0  0  0  0  0  0  0  0
    2.8401   -2.9765   -0.8701 H   0  0  0  0  0  0  0  0  0  0  0  0
    1.8391   -3.0720    0.5690 H   0  0  0  0  0  0  0  0  0  0  0  0
    5.7348   -3.3790    0.3106 H   0  0  0  0  0  0  0  0  0  0  0  0
    4.5255   -1.2002   -0.9054 H   0  0  0  0  0  0  0  0  0  0  0  0
    5.4902    0.1432    2.0749 H   0  0  0  0  0  0  0  0  0  0  0  0
    3.7193   -0.3804    0.4898 H   0  0  0  0  0  0  0  0  0  0  0  0
    2.8355    0.8240    2.1206 H   0  0  0  0  0  0  0  0  0  0  0  0
    1.4294   -0.5375    0.7822 H   0  0  0  0  0  0  0  0  0  0  0  0
    1.4454   -2.1294    3.5850 H   0  0  0  0  0  0  0  0  0  0  0  0
    0.9709   -1.3049    4.9771 H   0  0  0  0  0  0  0  0  0  0  0  0
    2.4130   -2.2521    5.0427 H   0  0  0  0  0  0  0  0  0  0  0  0
    0.9551    1.7495    2.9575 H   0  0  0  0  0  0  0  0  0  0  0  0
    0.0733    1.9958    4.4074 H   0  0  0  0  0  0  0  0  0  0  0  0
    0.1232    0.4205    3.7359 H   0  0  0  0  0  0  0  0  0  0  0  0
   -0.1737    1.4556    6.3992 H   0  0  0  0  0  0  0  0  0  0  0  0
    0.6920    0.9706    7.7827 H   0  0  0  0  0  0  0  0  0  0  0  0
    1.5952    2.4993    9.2462 H   0  0  0  0  0  0  0  0  0  0  0  0
    2.5360    3.8862    8.6937 H   0  0  0  0  0  0  0  0  0  0  0  0
    3.0559    2.2094    8.3962 H   0  0  0  0  0  0  0  0  0  0  0  0
  1  2  1  0
  1 46  1  0
  1 47  1  0
  1 48  1  0
  2  3  1  0
  3  9  1  0
  3 49  1  6
  3  4  1  0
  4  5  1  0
  5  6  2  0
  5  7  1  0
  7  9  2  0
  7  8  1  0
  9 10  1  0
 10 44  1  0
 10 11  1  0
 10 50  1  1
 11 12  1  0
 11 51  1  0
 11 52  1  0
 12 13  1  0
 12 53  1  0
 12 54  1  0
 13 44  1  0
 13 14  1  1
 13 15  1  0
 14 55  1  0
 14 56  1  0
 14 57  1  0
 15 40  1  0
 15 16  1  0
 15 58  1  6
 16 17  1  0
 16 18  1  0
 16 59  1  1
 17 60  1  0
 18 19  1  0
 18 20  1  0
 18 61  1  6
 19 62  1  0
 20 38  1  0
 20 21  1  0
 20 63  1  1
 21 34  1  0
 21 22  2  0
 22 23  1  0
 22 64  1  0
 23 30  1  0
 23 24  1  0
 23 65  1  1
 24 25  1  0
 24 26  1  0
 24 27  1  0
 25 66  1  0
 25 67  1  0
 25 68  1  0
 26 69  1  0
 26 70  1  0
 26 71  1  0
 27 28  1  0
 27 29  1  0
 27 72  1  6
 28 73  1  0
 30 29  1  6
 29 74  1  0
 29 75  1  0
 30 35  1  0
 30 31  1  0
 31 32  1  0
 31 33  1  0
 31 76  1  6
 32 77  1  0
 33 34  1  0
 34 35  1  0
 34 78  1  1
 35 36  1  0
 35 79  1  6
 36 37  1  0
 36 38  1  0
 36 80  1  1
 37 81  1  0
 38 39  1  1
 38 40  1  0
 39 82  1  0
 39 83  1  0
 39 84  1  0
 40 41  1  6
 40 42  1  0
 41 85  1  0
 41 86  1  0
 41 87  1  0
 42 43  1  0
 43 44  1  0
 43 88  1  0
 43 89  1  0
 44 45  1  1
 45 90  1  0
 45 91  1  0
 45 92  1  0
M  CHG  1   8  -1
M  END
>  <i_m_ct_stereo_status>  (68) 
1

>  <s_m_source_file>  (68) 
/var/tmp/pbs.5076255.sched01/tmp7v4tqmxt/0pyfftbwv.sdf

>  <i_m_source_file_index>  (68) 
26

>  <i_lp_mmshare_version>  (68) 
48012

>  <i_f3d_flags>  (68) 
0

>  <s_epik_input>  (68) 
W0NIM11PW0NAQEhdMU9DKD1PKUMoPU8pW0NASF0xW0NASF0oW0NIMl1bQ0gyXTIpW0NAXShbQ0gyXU8zKShbQ0gzXSlbQ0BAXTIoW0NIM10pW0NAQEhdKFtDQEBIXShbT0hdKVtDQEhdNFtPSF0pW0NAQF0zKFtDSDNdKVtDQEBdKFtDSDNdKShbQ0BIXShbT0hdKVtDQEhdNVtDQEBIXTZPW0NAQEhdN1tPSF0pW0NASF00QzY9W0NIXVtDQEBIXShbQ0BAXTU3OClDKFtDSDNdKShbQ0gzXSlbQ0BASF0oW09IXSlbQ0gyXTg=

>  <s_epik_cmdline>  (68) 
J2VwaWtfcHl0aG9uJywgJy1waHQnLCAnMi4wJywgJy1waCcsICc3LjAnLCAnLXRuJywgJzgnLCAnLW1hJywgJzIwMCcsICctaW1hZScsICc8aW5maWxlLm1hZT4nLCAnLW9tYWUnLCAnPG91dGZpbGUubWFlPic=

>  <r_lp_tautomer_probability>  (68) 
1

>  <r_epik_Ionization_Penalty>  (68) 
0.578926

>  <r_epik_Ionization_Penalty_Charging>  (68) 
0.578926

>  <r_epik_Ionization_Penalty_Neutral>  (68) 
5.37924e-07

>  <r_epik_State_Penalty>  (68) 
0.59434

>  <r_epik_Charging_Adjusted_Penalty>  (68) 
1.17327

>  <i_epik_Tot_Q>  (68) 
-1

>  <i_epik_Tot_abs_Q>  (68) 
1

>  <s_epik_Chemistry_Notes>  (68) 
This compound has an ester and may undergo hydrolysis at high or low pH. This compound contains an acetal/aminal-like group ( X-CH(R)-Y where X, Y are N, S, or O) that may be acid/base labile, releasing an aldehyde.

>  <s_lp_Force_Field>  (68) 
OPLS3e

>  <r_lp_Energy>  (68) 
152.483

>  <b_lp_Chiralities_Consistent>  (68) 
1

>  <s_lp_Variant>  (68) 
19:0-2

>  <s_i_glide_gridfile>  (68) 
pfpi4k_grid

>  <i_i_glide_lignum>  (68) 
26

>  <i_i_glide_rotatable_bonds>  (68) 
7

>  <r_i_docking_score>  (68) 
-3.8736

>  <r_i_glide_ligand_efficiency>  (68) 
-0.0860799

>  <r_i_glide_ligand_efficiency_sa>  (68) 
-0.306177

>  <r_i_glide_ligand_efficiency_ln>  (68) 
-0.805881

>  <r_i_glide_gscore>  (68) 
-3.8736

>  <r_i_glide_lipo>  (68) 
-0.439149

>  <r_i_glide_hbond>  (68) 
-0.453229

>  <r_i_glide_metal>  (68) 
-0

>  <r_i_glide_rewards>  (68) 
-0.587842

>  <r_i_glide_evdw>  (68) 
-26.7993

>  <r_i_glide_ecoul>  (68) 
-7.33228

>  <r_i_glide_erotb>  (68) 
0.0530009

>  <r_i_glide_esite>  (68) 
-0.00657382

>  <r_i_glide_emodel>  (68) 
-47.1702

>  <r_i_glide_energy>  (68) 
-34.1316

>  <r_i_glide_einternal>  (68) 
3.2882

>  <r_i_glide_intrahb_reward>  (68) 
-0.5

>  <i_i_glide_confnum>  (68) 
3

>  <i_i_glide_posenum>  (68) 
28

>  <r_i_glide_eff_state_penalty>  (68) 
0

>  <ligand_id>  (68) 
19

>  <original_smiles>  (68) 
COC1OC(=O)C(=O)C1C1CCC2(C)C3C(O)C(O)C4C5=CC6C(C)(C)C(O)CC67C(O)OC5C7C(O)C4(C)C3(C)OCC12C

>  <smiles>  (68) 
[H]OC1([H])OC2([H])C3=C([H])C4([H])C(C([H])([H])[H])(C([H])([H])[H])C([H])(O[H])C([H])([H])C14C2([H])C([H])(O[H])C1(C([H])([H])[H])C3([H])C([H])(O[H])C([H])(O[H])C2([H])C1(C([H])([H])[H])OC([H])([H])C1(C([H])([H])[H])C([H])(C3=C([O-])C(=O)OC3([H])OC([H])([H])[H])C([H])([H])C([H])([H])C21C([H])([H])[H]

$$$$
19:1:2
     RDKit          3D

 92 99  0  0  1  0  0  0  0  0999 V2000
   -0.6806   -2.3718    5.8844 C   0  0  0  0  0  0  0  0  0  0  0  0
   -0.1075   -2.8327    7.0987 O   0  0  0  0  0  0  0  0  0  0  0  0
   -0.5983   -4.0597    7.5284 C   0  0  2  0  0  0  0  0  0  0  0  0
   -1.8132   -3.9232    8.1815 O   0  0  0  0  0  0  0  0  0  0  0  0
   -1.6772   -4.2558    9.4890 C   0  0  0  0  0  0  0  0  0  0  0  0
   -2.5839   -4.1561   10.3204 O   0  0  0  0  0  0  0  0  0  0  0  0
   -0.3214   -4.8160    9.7175 C   0  0  0  0  0  0  0  0  0  0  0  0
   -0.0660   -5.2597   10.8536 O   0  0  0  0  0  0  0  0  0  0  0  0
    0.3302   -4.6802    8.5283 C   0  0  0  0  0  0  0  0  0  0  0  0
    1.7984   -5.0373    8.2084 C   0  0  2  0  0  0  0  0  0  0  0  0
    2.7251   -3.8467    8.4080 C   0  0  0  0  0  0  0  0  0  0  0  0
    4.0260   -4.2237    7.6995 C   0  0  0  0  0  0  0  0  0  0  0  0
    3.7674   -5.4526    6.7672 C   0  0  2  0  0  0  0  0  0  0  0  0
    4.5461   -6.6073    7.4669 C   0  0  0  0  0  0  0  0  0  0  0  0
    4.3496   -5.1936    5.2976 C   0  0  1  0  0  0  0  0  0  0  0  0
    4.7614   -6.5021    4.5428 C   0  0  1  0  0  0  0  0  0  0  0  0
    3.7029   -7.3968    4.2478 O   0  0  0  0  0  0  0  0  0  0  0  0
    5.4633   -6.1579    3.2365 C   0  0  1  0  0  0  0  0  0  0  0  0
    5.9839   -7.3355    2.6466 O   0  0  0  0  0  0  0  0  0  0  0  0
    4.5571   -5.3984    2.2339 C   0  0  2  0  0  0  0  0  0  0  0  0
    5.3115   -5.0601    0.9442 C   0  0  0  0  0  0  0  0  0  0  0  0
    4.6049   -4.8289   -0.1860 C   0  0  0  0  0  0  0  0  0  0  0  0
    4.6493   -3.3956   -0.7000 C   0  0  2  0  0  0  0  0  0  0  0  0
    4.3136   -2.9393   -2.1393 C   0  0  0  0  0  0  0  0  0  0  0  0
    4.9558   -3.8086   -3.2433 C   0  0  0  0  0  0  0  0  0  0  0  0
    2.7882   -2.9230   -2.3906 C   0  0  0  0  0  0  0  0  0  0  0  0
    4.9238   -1.4995   -2.1131 C   0  0  1  0  0  0  0  0  0  0  0  0
    4.1244   -0.5037   -2.7207 O   0  0  0  0  0  0  0  0  0  0  0  0
    5.3631   -1.1476   -0.6561 C   0  0  0  0  0  0  0  0  0  0  0  0
    5.7604   -2.5203   -0.0892 C   0  0  2  0  0  0  0  0  0  0  0  0
    7.1553   -2.9822   -0.6074 C   0  0  1  0  0  0  0  0  0  0  0  0
    8.1536   -2.0218   -0.3308 O   0  0  0  0  0  0  0  0  0  0  0  0
    7.3960   -4.1646    0.0724 O   0  0  0  0  0  0  0  0  0  0  0  0
    6.5542   -4.2211    1.2140 C   0  0  1  0  0  0  0  0  0  0  0  0
    6.0151   -2.8185    1.4292 C   0  0  2  0  0  0  0  0  0  0  0  0
    4.9691   -2.8325    2.6095 C   0  0  1  0  0  0  0  0  0  0  0  0
    4.3985   -1.5371    2.6167 O   0  0  0  0  0  0  0  0  0  0  0  0
    3.9319   -4.0595    2.8275 C   0  0  1  0  0  0  0  0  0  0  0  0
    2.6068   -3.7160    2.0421 C   0  0  0  0  0  0  0  0  0  0  0  0
    3.4692   -4.2672    4.3701 C   0  0  2  0  0  0  0  0  0  0  0  0
    3.2310   -2.8275    4.9590 C   0  0  0  0  0  0  0  0  0  0  0  0
    2.2747   -5.0702    4.3674 O   0  0  0  0  0  0  0  0  0  0  0  0
    1.5192   -5.0822    5.5854 C   0  0  0  0  0  0  0  0  0  0  0  0
    2.2033   -5.7036    6.8363 C   0  0  2  0  0  0  0  0  0  0  0  0
    1.7537   -7.1860    6.9148 C   0  0  0  0  0  0  0  0  0  0  0  0
   -0.1766   -1.4484    5.5892 H   0  0  0  0  0  0  0  0  0  0  0  0
   -1.7534   -2.1809    5.9699 H   0  0  0  0  0  0  0  0  0  0  0  0
   -0.5120   -3.1116    5.1028 H   0  0  0  0  0  0  0  0  0  0  0  0
   -0.7519   -4.7361    6.6927 H   0  0  0  0  0  0  0  0  0  0  0  0
    2.0539   -5.7284    9.0103 H   0  0  0  0  0  0  0  0  0  0  0  0
    2.2826   -2.9423    7.9931 H   0  0  0  0  0  0  0  0  0  0  0  0
    2.8841   -3.6349    9.4716 H   0  0  0  0  0  0  0  0  0  0  0  0
    4.4461   -3.3655    7.1887 H   0  0  0  0  0  0  0  0  0  0  0  0
    4.7768   -4.4471    8.4562 H   0  0  0  0  0  0  0  0  0  0  0  0
    4.3755   -7.5728    6.9894 H   0  0  0  0  0  0  0  0  0  0  0  0
    4.2443   -6.7189    8.5111 H   0  0  0  0  0  0  0  0  0  0  0  0
    5.6236   -6.4239    7.4588 H   0  0  0  0  0  0  0  0  0  0  0  0
    5.2853   -4.6558    5.4505 H   0  0  0  0  0  0  0  0  0  0  0  0
    5.4918   -7.0447    5.1412 H   0  0  0  0  0  0  0  0  0  0  0  0
    3.0418   -6.9114    3.7713 H   0  0  0  0  0  0  0  0  0  0  0  0
    6.3110   -5.5549    3.5468 H   0  0  0  0  0  0  0  0  0  0  0  0
    5.2643   -7.9400    2.5197 H   0  0  0  0  0  0  0  0  0  0  0  0
    3.7439   -6.0721    1.9627 H   0  0  0  0  0  0  0  0  0  0  0  0
    3.6344   -5.2839   -0.3097 H   0  0  0  0  0  0  0  0  0  0  0  0
    3.7883   -3.0225   -0.1748 H   0  0  0  0  0  0  0  0  0  0  0  0
    4.6725   -3.4460   -4.2339 H   0  0  0  0  0  0  0  0  0  0  0  0
    4.6324   -4.8375   -3.1698 H   0  0  0  0  0  0  0  0  0  0  0  0
    6.0408   -3.8362   -3.2233 H   0  0  0  0  0  0  0  0  0  0  0  0
    2.5549   -2.6033   -3.4082 H   0  0  0  0  0  0  0  0  0  0  0  0
    2.2582   -2.2524   -1.7147 H   0  0  0  0  0  0  0  0  0  0  0  0
    2.3476   -3.9080   -2.2634 H   0  0  0  0  0  0  0  0  0  0  0  0
    5.8091   -1.5295   -2.7114 H   0  0  0  0  0  0  0  0  0  0  0  0
    3.2985   -0.4498   -2.2547 H   0  0  0  0  0  0  0  0  0  0  0  0
    6.1516   -0.4012   -0.5995 H   0  0  0  0  0  0  0  0  0  0  0  0
    4.5169   -0.7473   -0.1011 H   0  0  0  0  0  0  0  0  0  0  0  0
    7.1947   -3.1654   -1.6696 H   0  0  0  0  0  0  0  0  0  0  0  0
    8.9681   -2.3245   -0.7131 H   0  0  0  0  0  0  0  0  0  0  0  0
    7.1778   -4.5660    2.0317 H   0  0  0  0  0  0  0  0  0  0  0  0
    6.8118   -2.1535    1.7581 H   0  0  0  0  0  0  0  0  0  0  0  0
    5.6039   -2.8711    3.4927 H   0  0  0  0  0  0  0  0  0  0  0  0
    3.8763   -1.4380    1.8337 H   0  0  0  0  0  0  0  0  0  0  0  0
    2.6464   -2.7916    1.4777 H   0  0  0  0  0  0  0  0  0  0  0  0
    1.7410   -3.5508    2.6828 H   0  0  0  0  0  0  0  0  0  0  0  0
    2.3102   -4.5039    1.3539 H   0  0  0  0  0  0  0  0  0  0  0  0
    4.1672   -2.2926    5.1128 H   0  0  0  0  0  0  0  0  0  0  0  0
    2.7550   -2.7637    5.9220 H   0  0  0  0  0  0  0  0  0  0  0  0
    2.6095   -2.2092    4.3108 H   0  0  0  0  0  0  0  0  0  0  0  0
    1.2292   -4.0736    5.8078 H   0  0  0  0  0  0  0  0  0  0  0  0
    0.6037   -5.6273    5.3602 H   0  0  0  0  0  0  0  0  0  0  0  0
    0.6728   -7.2389    7.0538 H   0  0  0  0  0  0  0  0  0  0  0  0
    2.1919   -7.7381    7.7523 H   0  0  0  0  0  0  0  0  0  0  0  0
    1.9780   -7.7342    5.9984 H   0  0  0  0  0  0  0  0  0  0  0  0
  1  2  1  0
  1 46  1  0
  1 47  1  0
  1 48  1  0
  2  3  1  0
  3  9  1  0
  3 49  1  6
  3  4  1  0
  4  5  1  0
  5  6  2  0
  5  7  1  0
  7  9  2  0
  7  8  1  0
  9 10  1  0
 10 44  1  0
 10 11  1  0
 10 50  1  1
 11 12  1  0
 11 51  1  0
 11 52  1  0
 12 13  1  0
 12 53  1  0
 12 54  1  0
 13 44  1  0
 13 14  1  1
 13 15  1  0
 14 55  1  0
 14 56  1  0
 14 57  1  0
 15 40  1  0
 15 16  1  0
 15 58  1  1
 16 17  1  0
 16 18  1  0
 16 59  1  1
 17 60  1  0
 18 19  1  0
 18 20  1  0
 18 61  1  1
 19 62  1  0
 20 38  1  0
 20 21  1  0
 20 63  1  6
 21 34  1  0
 21 22  2  0
 22 23  1  0
 22 64  1  0
 23 30  1  0
 23 24  1  0
 23 65  1  1
 24 25  1  0
 24 26  1  0
 24 27  1  0
 25 66  1  0
 25 67  1  0
 25 68  1  0
 26 69  1  0
 26 70  1  0
 26 71  1  0
 27 28  1  0
 27 29  1  0
 27 72  1  6
 28 73  1  0
 30 29  1  1
 29 74  1  0
 29 75  1  0
 30 35  1  0
 30 31  1  0
 31 32  1  0
 31 33  1  0
 31 76  1  6
 32 77  1  0
 33 34  1  0
 34 35  1  0
 34 78  1  1
 35 36  1  0
 35 79  1  1
 36 37  1  0
 36 38  1  0
 36 80  1  1
 37 81  1  0
 38 39  1  6
 38 40  1  0
 39 82  1  0
 39 83  1  0
 39 84  1  0
 40 41  1  1
 40 42  1  0
 41 85  1  0
 41 86  1  0
 41 87  1  0
 42 43  1  0
 43 44  1  0
 43 88  1  0
 43 89  1  0
 44 45  1  1
 45 90  1  0
 45 91  1  0
 45 92  1  0
M  CHG  1   8  -1
M  END
>  <i_m_ct_stereo_status>  (69) 
1

>  <s_m_source_file>  (69) 
/var/tmp/pbs.5076255.sched01/tmp7v4tqmxt/0pyfftbwv.sdf

>  <i_m_source_file_index>  (69) 
26

>  <i_lp_mmshare_version>  (69) 
48012

>  <i_f3d_flags>  (69) 
0

>  <s_epik_input>  (69) 
W0NIM11PW0NAQEhdMU9DKD1PKUMoPU8pW0NASF0xW0NASF0oW0NIMl1bQ0gyXTIpW0NAXShbQ0gyXU8zKShbQ0gzXSlbQ0BAXTIoW0NIM10pW0NAQEhdKFtDQEBIXShbT0hdKVtDQEhdNFtPSF0pW0NAQF0zKFtDSDNdKVtDQEBdKFtDSDNdKShbQ0BIXShbT0hdKVtDQEhdNVtDQEBIXTZPW0NAQEhdN1tPSF0pW0NASF00QzY9W0NIXVtDQEBIXShbQ0BAXTU3OClDKFtDSDNdKShbQ0gzXSlbQ0BASF0oW09IXSlbQ0gyXTg=

>  <s_epik_cmdline>  (69) 
J2VwaWtfcHl0aG9uJywgJy1waHQnLCAnMi4wJywgJy1waCcsICc3LjAnLCAnLXRuJywgJzgnLCAnLW1hJywgJzIwMCcsICctaW1hZScsICc8aW5maWxlLm1hZT4nLCAnLW9tYWUnLCAnPG91dGZpbGUubWFlPic=

>  <r_lp_tautomer_probability>  (69) 
1

>  <r_epik_Ionization_Penalty>  (69) 
0.578926

>  <r_epik_Ionization_Penalty_Charging>  (69) 
0.578926

>  <r_epik_Ionization_Penalty_Neutral>  (69) 
5.37924e-07

>  <r_epik_State_Penalty>  (69) 
0.59434

>  <r_epik_Charging_Adjusted_Penalty>  (69) 
1.17327

>  <i_epik_Tot_Q>  (69) 
-1

>  <i_epik_Tot_abs_Q>  (69) 
1

>  <s_epik_Chemistry_Notes>  (69) 
This compound has an ester and may undergo hydrolysis at high or low pH. This compound contains an acetal/aminal-like group ( X-CH(R)-Y where X, Y are N, S, or O) that may be acid/base labile, releasing an aldehyde.

>  <s_lp_Force_Field>  (69) 
OPLS3e

>  <r_lp_Energy>  (69) 
152.483

>  <b_lp_Chiralities_Consistent>  (69) 
1

>  <s_lp_Variant>  (69) 
19:0-2

>  <s_i_glide_gridfile>  (69) 
pfpi4k_grid

>  <i_i_glide_lignum>  (69) 
26

>  <i_i_glide_rotatable_bonds>  (69) 
7

>  <r_i_docking_score>  (69) 
-3.08173

>  <r_i_glide_ligand_efficiency>  (69) 
-0.0684829

>  <r_i_glide_ligand_efficiency_sa>  (69) 
-0.243586

>  <r_i_glide_ligand_efficiency_ln>  (69) 
-0.641137

>  <r_i_glide_gscore>  (69) 
-3.08173

>  <r_i_glide_lipo>  (69) 
-0.426536

>  <r_i_glide_hbond>  (69) 
-0.0227329

>  <r_i_glide_metal>  (69) 
-0

>  <r_i_glide_rewards>  (69) 
-0.566815

>  <r_i_glide_evdw>  (69) 
-28.5271

>  <r_i_glide_ecoul>  (69) 
-3.98193

>  <r_i_glide_erotb>  (69) 
0.0371006

>  <r_i_glide_esite>  (69) 
-0.0791013

>  <r_i_glide_emodel>  (69) 
-43.7868

>  <r_i_glide_energy>  (69) 
-32.5091

>  <r_i_glide_einternal>  (69) 
3.53245

>  <r_i_glide_intrahb_reward>  (69) 
-0.5

>  <i_i_glide_confnum>  (69) 
2

>  <i_i_glide_posenum>  (69) 
20

>  <r_i_glide_eff_state_penalty>  (69) 
0

>  <ligand_id>  (69) 
19

>  <original_smiles>  (69) 
COC1OC(=O)C(=O)C1C1CCC2(C)C3C(O)C(O)C4C5=CC6C(C)(C)C(O)CC67C(O)OC5C7C(O)C4(C)C3(C)OCC12C

>  <smiles>  (69) 
[H]OC1([H])OC2([H])C3=C([H])C4([H])C(C([H])([H])[H])(C([H])([H])[H])C([H])(O[H])C([H])([H])C14C2([H])C([H])(O[H])C1(C([H])([H])[H])C3([H])C([H])(O[H])C([H])(O[H])C2([H])C1(C([H])([H])[H])OC([H])([H])C1(C([H])([H])[H])C([H])(C3=C([O-])C(=O)OC3([H])OC([H])([H])[H])C([H])([H])C([H])([H])C21C([H])([H])[H]

$$$$
22:0:0
     RDKit          3D

 32 37  0  0  1  0  0  0  0  0999 V2000
    4.0685   -1.9240    2.6052 O   0  0  0  0  0  0  0  0  0  0  0  0
    3.5173   -2.3250    1.3667 C   0  0  2  0  0  0  0  0  0  0  0  0
    3.5305   -3.8962    1.2102 C   0  0  0  0  0  0  0  0  0  0  0  0
    3.9372   -4.5037    0.0583 C   0  0  0  0  0  0  0  0  0  0  0  0
    4.4730   -3.4954   -0.8976 C   0  0  2  0  0  0  0  0  0  0  0  0
    6.0211   -3.5144   -0.4190 C   0  0  2  0  0  0  0  0  0  0  0  0
    6.5241   -2.8810    0.8633 C   0  0  0  0  0  0  0  0  0  0  0  0
    6.3365   -1.5629    0.8513 C   0  0  0  0  0  0  0  0  0  0  0  0
    5.5054   -1.2368   -0.3477 C   0  0  2  0  0  0  0  0  0  0  0  0
    3.9671   -1.4421    0.0810 C   0  0  1  0  0  0  0  0  0  0  0  0
    3.4308   -2.3430   -0.9858 C   0  0  1  0  0  0  0  0  0  0  0  0
    3.3818   -1.8719   -2.4338 C   0  0  2  0  0  0  0  0  0  0  0  0
    2.9486   -2.8538   -3.5068 C   0  0  0  0  0  0  0  0  0  0  0  0
    4.4044   -2.6018   -3.2470 C   0  0  2  0  0  0  0  0  0  0  0  0
    5.2039   -3.3619   -2.2352 C   0  0  1  0  0  0  0  0  0  0  0  0
    6.0601   -2.3698   -1.3403 C   0  0  2  0  0  0  0  0  0  0  0  0
    3.8035   -1.0342    2.7778 H   0  0  0  0  0  0  0  0  0  0  0  0
    2.4540   -2.1159    1.4981 H   0  0  0  0  0  0  0  0  0  0  0  0
    3.1574   -4.4800    2.0375 H   0  0  0  0  0  0  0  0  0  0  0  0
    3.9589   -5.5636   -0.1429 H   0  0  0  0  0  0  0  0  0  0  0  0
    6.6211   -4.3786   -0.7035 H   0  0  0  0  0  0  0  0  0  0  0  0
    7.0177   -3.4401    1.6413 H   0  0  0  0  0  0  0  0  0  0  0  0
    6.6197   -0.8598    1.6218 H   0  0  0  0  0  0  0  0  0  0  0  0
    5.7028   -0.2450   -0.7283 H   0  0  0  0  0  0  0  0  0  0  0  0
    3.4396   -0.4884    0.0957 H   0  0  0  0  0  0  0  0  0  0  0  0
    2.4099   -2.6689   -0.7717 H   0  0  0  0  0  0  0  0  0  0  0  0
    3.1825   -0.8156   -2.6165 H   0  0  0  0  0  0  0  0  0  0  0  0
    2.5505   -3.8199   -3.1991 H   0  0  0  0  0  0  0  0  0  0  0  0
    2.5309   -2.4410   -4.4182 H   0  0  0  0  0  0  0  0  0  0  0  0
    4.9654   -1.9983   -3.9557 H   0  0  0  0  0  0  0  0  0  0  0  0
    5.7246   -4.2422   -2.6231 H   0  0  0  0  0  0  0  0  0  0  0  0
    7.0622   -2.1945   -1.7286 H   0  0  0  0  0  0  0  0  0  0  0  0
  1  2  1  0
  1 17  1  0
  2 10  1  0
  2  3  1  0
  2 18  1  1
  3  4  2  0
  3 19  1  0
  5  4  1  6
  4 20  1  0
  5 11  1  0
  5 15  1  0
  5  6  1  0
  6 16  1  0
  6  7  1  0
  6 21  1  6
  7  8  2  0
  7 22  1  0
  8  9  1  0
  8 23  1  0
  9 16  1  0
  9 10  1  0
  9 24  1  6
 10 11  1  0
 10 25  1  1
 11 12  1  0
 11 26  1  1
 12 14  1  0
 12 13  1  0
 12 27  1  1
 13 14  1  0
 13 28  1  0
 13 29  1  0
 14 15  1  0
 14 30  1  6
 15 16  1  0
 15 31  1  6
 16 32  1  6
M  END
>  <i_m_ct_stereo_status>  (70) 
1

>  <s_m_source_file>  (70) 
/var/tmp/pbs.5076255.sched01/tmp7v4tqmxt/0pyfftbwv.sdf

>  <i_m_source_file_index>  (70) 
29

>  <i_lp_mmshare_version>  (70) 
48012

>  <i_f3d_flags>  (70) 
2

>  <s_epik_input>  (70) 
W0NIMl0xW0NASF0oW0NASF0yMylbQ0BIXTFbQ0BASF00W0NAQEhdKFtDQEhdKFtPSF0pW0NIXT1bQ0hdNSlbQ0BASF0oW0NIXT1bQ0hdNilbQ0BIXTNbQ0BASF02QzI0NQ==

>  <s_epik_cmdline>  (70) 
J2VwaWtfcHl0aG9uJywgJy1waHQnLCAnMi4wJywgJy1waCcsICc3LjAnLCAnLXRuJywgJzgnLCAnLW1hJywgJzIwMCcsICctaW1hZScsICc8aW5maWxlLm1hZT4nLCAnLW9tYWUnLCAnPG91dGZpbGUubWFlPic=

>  <r_lp_tautomer_probability>  (70) 
1

>  <r_epik_Ionization_Penalty>  (70) 
2.74257e-07

>  <r_epik_Ionization_Penalty_Charging>  (70) 
0

>  <r_epik_Ionization_Penalty_Neutral>  (70) 
2.74257e-07

>  <r_epik_State_Penalty>  (70) 
-0

>  <r_epik_Charging_Adjusted_Penalty>  (70) 
0

>  <i_epik_Tot_Q>  (70) 
0

>  <i_epik_Tot_abs_Q>  (70) 
0

>  <s_lp_Force_Field>  (70) 
OPLS3e

>  <r_lp_Energy>  (70) 
131.32

>  <b_lp_Chiralities_Consistent>  (70) 
0

>  <s_lp_Variant>  (70) 
22:0-1

>  <s_i_glide_gridfile>  (70) 
pfpi4k_grid

>  <i_i_glide_lignum>  (70) 
29

>  <i_i_glide_rotatable_bonds>  (70) 
1

>  <r_i_docking_score>  (70) 
-4.07156

>  <r_i_glide_ligand_efficiency>  (70) 
-0.254472

>  <r_i_glide_ligand_efficiency_sa>  (70) 
-0.64123

>  <r_i_glide_ligand_efficiency_ln>  (70) 
-1.07925

>  <r_i_glide_gscore>  (70) 
-4.07156

>  <r_i_glide_lipo>  (70) 
-0.786314

>  <r_i_glide_hbond>  (70) 
0

>  <r_i_glide_metal>  (70) 
-0

>  <r_i_glide_rewards>  (70) 
-1.96168

>  <r_i_glide_evdw>  (70) 
-23.0301

>  <r_i_glide_ecoul>  (70) 
-1.14704

>  <r_i_glide_erotb>  (70) 
0

>  <r_i_glide_esite>  (70) 
0

>  <r_i_glide_emodel>  (70) 
-29.9667

>  <r_i_glide_energy>  (70) 
-24.1771

>  <r_i_glide_einternal>  (70) 
0.466151

>  <r_i_glide_intrahb_reward>  (70) 
-0

>  <i_i_glide_confnum>  (70) 
1

>  <i_i_glide_posenum>  (70) 
20

>  <r_i_glide_eff_state_penalty>  (70) 
0

>  <ligand_id>  (70) 
22

>  <original_smiles>  (70) 
OC1C=CC23C4C=CC5C1C2C1CC1C3C54

>  <smiles>  (70) 
[H]OC1([H])C([H])=C([H])C23C4([H])C([H])=C([H])C5([H])C1([H])C2([H])C1([H])C([H])([H])C1([H])C3([H])C54[H]

$$$$
22:0:1
     RDKit          3D

 32 37  0  0  1  0  0  0  0  0999 V2000
    4.2165   -2.0064    2.6618 O   0  0  0  0  0  0  0  0  0  0  0  0
    3.6165   -2.3975    1.4405 C   0  0  2  0  0  0  0  0  0  0  0  0
    3.6437   -3.9663    1.2465 C   0  0  0  0  0  0  0  0  0  0  0  0
    4.0147   -4.5455    0.0711 C   0  0  0  0  0  0  0  0  0  0  0  0
    4.4990   -3.5069   -0.8818 C   0  0  2  0  0  0  0  0  0  0  0  0
    6.0611   -3.5112   -0.4503 C   0  0  2  0  0  0  0  0  0  0  0  0
    6.6050   -2.8963    0.8221 C   0  0  0  0  0  0  0  0  0  0  0  0
    6.4043   -1.5837    0.8399 C   0  0  0  0  0  0  0  0  0  0  0  0
    5.5259   -1.2464   -0.3244 C   0  0  2  0  0  0  0  0  0  0  0  0
    4.0069   -1.4840    0.1575 C   0  0  1  0  0  0  0  0  0  0  0  0
    3.4419   -2.3692   -0.9089 C   0  0  1  0  0  0  0  0  0  0  0  0
    3.3337   -1.8685   -2.3447 C   0  0  2  0  0  0  0  0  0  0  0  0
    2.8698   -2.8307   -3.4254 C   0  0  0  0  0  0  0  0  0  0  0  0
    4.3362   -2.5708   -3.2104 C   0  0  2  0  0  0  0  0  0  0  0  0
    5.1821   -3.3410   -2.2407 C   0  0  1  0  0  0  0  0  0  0  0  0
    6.0581   -2.3553   -1.3589 C   0  0  2  0  0  0  0  0  0  0  0  0
    3.8026   -2.4778    3.3679 H   0  0  0  0  0  0  0  0  0  0  0  0
    2.5551   -2.2037    1.6129 H   0  0  0  0  0  0  0  0  0  0  0  0
    3.3090   -4.5816    2.0716 H   0  0  0  0  0  0  0  0  0  0  0  0
    4.0447   -5.5996   -0.1611 H   0  0  0  0  0  0  0  0  0  0  0  0
    6.6520   -4.3775   -0.7308 H   0  0  0  0  0  0  0  0  0  0  0  0
    7.1369   -3.4705    1.5627 H   0  0  0  0  0  0  0  0  0  0  0  0
    6.7030   -0.8956    1.6152 H   0  0  0  0  0  0  0  0  0  0  0  0
    5.6973   -0.2442   -0.6887 H   0  0  0  0  0  0  0  0  0  0  0  0
    3.4700   -0.5359    0.2144 H   0  0  0  0  0  0  0  0  0  0  0  0
    2.4311   -2.7128   -0.6624 H   0  0  0  0  0  0  0  0  0  0  0  0
    3.1191   -0.8109   -2.4964 H   0  0  0  0  0  0  0  0  0  0  0  0
    2.4934   -3.8069   -3.1244 H   0  0  0  0  0  0  0  0  0  0  0  0
    2.4123   -2.4006   -4.3115 H   0  0  0  0  0  0  0  0  0  0  0  0
    4.8614   -1.9488   -3.9298 H   0  0  0  0  0  0  0  0  0  0  0  0
    5.7020   -4.2080   -2.6618 H   0  0  0  0  0  0  0  0  0  0  0  0
    7.0424   -2.1588   -1.7833 H   0  0  0  0  0  0  0  0  0  0  0  0
  1  2  1  0
  1 17  1  0
  2 10  1  0
  2  3  1  0
  2 18  1  1
  3  4  2  0
  3 19  1  0
  5  4  1  6
  4 20  1  0
  5 11  1  0
  5 15  1  0
  5  6  1  0
  6 16  1  0
  6  7  1  0
  6 21  1  6
  7  8  2  0
  7 22  1  0
  8  9  1  0
  8 23  1  0
  9 16  1  0
  9 10  1  0
  9 24  1  6
 10 11  1  0
 10 25  1  1
 11 12  1  0
 11 26  1  1
 12 14  1  0
 12 13  1  0
 12 27  1  1
 13 14  1  0
 13 28  1  0
 13 29  1  0
 14 15  1  0
 14 30  1  6
 15 16  1  0
 15 31  1  6
 16 32  1  6
M  END
>  <i_m_ct_stereo_status>  (71) 
1

>  <s_m_source_file>  (71) 
/var/tmp/pbs.5076255.sched01/tmp7v4tqmxt/0pyfftbwv.sdf

>  <i_m_source_file_index>  (71) 
29

>  <i_lp_mmshare_version>  (71) 
48012

>  <i_f3d_flags>  (71) 
2

>  <s_epik_input>  (71) 
W0NIMl0xW0NASF0oW0NASF0yMylbQ0BIXTFbQ0BASF00W0NAQEhdKFtDQEhdKFtPSF0pW0NIXT1bQ0hdNSlbQ0BASF0oW0NIXT1bQ0hdNilbQ0BIXTNbQ0BASF02QzI0NQ==

>  <s_epik_cmdline>  (71) 
J2VwaWtfcHl0aG9uJywgJy1waHQnLCAnMi4wJywgJy1waCcsICc3LjAnLCAnLXRuJywgJzgnLCAnLW1hJywgJzIwMCcsICctaW1hZScsICc8aW5maWxlLm1hZT4nLCAnLW9tYWUnLCAnPG91dGZpbGUubWFlPic=

>  <r_lp_tautomer_probability>  (71) 
1

>  <r_epik_Ionization_Penalty>  (71) 
2.74257e-07

>  <r_epik_Ionization_Penalty_Charging>  (71) 
0

>  <r_epik_Ionization_Penalty_Neutral>  (71) 
2.74257e-07

>  <r_epik_State_Penalty>  (71) 
-0

>  <r_epik_Charging_Adjusted_Penalty>  (71) 
0

>  <i_epik_Tot_Q>  (71) 
0

>  <i_epik_Tot_abs_Q>  (71) 
0

>  <s_lp_Force_Field>  (71) 
OPLS3e

>  <r_lp_Energy>  (71) 
131.32

>  <b_lp_Chiralities_Consistent>  (71) 
0

>  <s_lp_Variant>  (71) 
22:0-1

>  <s_i_glide_gridfile>  (71) 
pfpi4k_grid

>  <i_i_glide_lignum>  (71) 
29

>  <i_i_glide_rotatable_bonds>  (71) 
1

>  <r_i_docking_score>  (71) 
-4.01372

>  <r_i_glide_ligand_efficiency>  (71) 
-0.250858

>  <r_i_glide_ligand_efficiency_sa>  (71) 
-0.632122

>  <r_i_glide_ligand_efficiency_ln>  (71) 
-1.06392

>  <r_i_glide_gscore>  (71) 
-4.01372

>  <r_i_glide_lipo>  (71) 
-0.754514

>  <r_i_glide_hbond>  (71) 
0

>  <r_i_glide_metal>  (71) 
-0

>  <r_i_glide_rewards>  (71) 
-1.96168

>  <r_i_glide_evdw>  (71) 
-22.9674

>  <r_i_glide_ecoul>  (71) 
-0.9944

>  <r_i_glide_erotb>  (71) 
0

>  <r_i_glide_esite>  (71) 
0

>  <r_i_glide_emodel>  (71) 
-29.6768

>  <r_i_glide_energy>  (71) 
-23.9618

>  <r_i_glide_einternal>  (71) 
0.432896

>  <r_i_glide_intrahb_reward>  (71) 
-0

>  <i_i_glide_confnum>  (71) 
2

>  <i_i_glide_posenum>  (71) 
7

>  <r_i_glide_eff_state_penalty>  (71) 
0

>  <ligand_id>  (71) 
22

>  <original_smiles>  (71) 
OC1C=CC23C4C=CC5C1C2C1CC1C3C54

>  <smiles>  (71) 
[H]OC1([H])C([H])=C([H])C23C4([H])C([H])=C([H])C5([H])C1([H])C2([H])C1([H])C([H])([H])C1([H])C3([H])C54[H]

$$$$
22:0:2
     RDKit          3D

 32 37  0  0  1  0  0  0  0  0999 V2000
    4.1266   -2.1355    2.6766 O   0  0  0  0  0  0  0  0  0  0  0  0
    3.5462   -2.4566    1.4296 C   0  0  2  0  0  0  0  0  0  0  0  0
    3.5533   -4.0153    1.1736 C   0  0  0  0  0  0  0  0  0  0  0  0
    3.9495   -4.5503   -0.0148 C   0  0  0  0  0  0  0  0  0  0  0  0
    4.4778   -3.4842   -0.9102 C   0  0  2  0  0  0  0  0  0  0  0  0
    6.0256   -3.5329   -0.4384 C   0  0  2  0  0  0  0  0  0  0  0  0
    6.5417   -2.9854    0.8737 C   0  0  0  0  0  0  0  0  0  0  0  0
    6.3651   -1.6664    0.9391 C   0  0  0  0  0  0  0  0  0  0  0  0
    5.5250   -1.2644   -0.2308 C   0  0  2  0  0  0  0  0  0  0  0  0
    3.9891   -1.4962    0.1989 C   0  0  1  0  0  0  0  0  0  0  0  0
    3.4411   -2.3273   -0.9174 C   0  0  1  0  0  0  0  0  0  0  0  0
    3.3836   -1.7656   -2.3323 C   0  0  2  0  0  0  0  0  0  0  0  0
    2.9319   -2.6744   -3.4589 C   0  0  0  0  0  0  0  0  0  0  0  0
    4.3945   -2.4484   -3.2013 C   0  0  2  0  0  0  0  0  0  0  0  0
    5.2004   -3.2723   -2.2425 C   0  0  1  0  0  0  0  0  0  0  0  0
    6.0670   -2.3385   -1.2965 C   0  0  2  0  0  0  0  0  0  0  0  0
    5.0649   -2.1785    2.5735 H   0  0  0  0  0  0  0  0  0  0  0  0
    2.4861   -2.2521    1.5892 H   0  0  0  0  0  0  0  0  0  0  0  0
    3.1863   -4.6500    1.9665 H   0  0  0  0  0  0  0  0  0  0  0  0
    3.9641   -5.5970   -0.2853 H   0  0  0  0  0  0  0  0  0  0  0  0
    6.6157   -4.3925   -0.7459 H   0  0  0  0  0  0  0  0  0  0  0  0
    7.0507   -3.5986    1.5982 H   0  0  0  0  0  0  0  0  0  0  0  0
    6.6755   -1.0098    1.7373 H   0  0  0  0  0  0  0  0  0  0  0  0
    5.7242   -0.2459   -0.5413 H   0  0  0  0  0  0  0  0  0  0  0  0
    3.4647   -0.5422    0.2797 H   0  0  0  0  0  0  0  0  0  0  0  0
    2.4201   -2.6640   -0.7166 H   0  0  0  0  0  0  0  0  0  0  0  0
    3.1855   -0.6993   -2.4459 H   0  0  0  0  0  0  0  0  0  0  0  0
    2.5290   -3.6536   -3.2089 H   0  0  0  0  0  0  0  0  0  0  0  0
    2.4967   -2.1934   -4.3281 H   0  0  0  0  0  0  0  0  0  0  0  0
    4.9468   -1.8131   -3.8903 H   0  0  0  0  0  0  0  0  0  0  0  0
    5.7160   -4.1308   -2.6848 H   0  0  0  0  0  0  0  0  0  0  0  0
    7.0677   -2.1457   -1.6843 H   0  0  0  0  0  0  0  0  0  0  0  0
  1  2  1  0
  1 17  1  0
  2 10  1  0
  2  3  1  0
  2 18  1  1
  3  4  2  0
  3 19  1  0
  5  4  1  6
  4 20  1  0
  5 11  1  0
  5 15  1  0
  5  6  1  0
  6 16  1  0
  6  7  1  0
  6 21  1  6
  7  8  2  0
  7 22  1  0
  8  9  1  0
  8 23  1  0
  9 16  1  0
  9 10  1  0
  9 24  1  6
 10 11  1  0
 10 25  1  1
 11 12  1  0
 11 26  1  1
 12 14  1  0
 12 13  1  0
 12 27  1  1
 13 14  1  0
 13 28  1  0
 13 29  1  0
 14 15  1  0
 14 30  1  6
 15 16  1  0
 15 31  1  6
 16 32  1  6
M  END
>  <i_m_ct_stereo_status>  (72) 
1

>  <s_m_source_file>  (72) 
/var/tmp/pbs.5076255.sched01/tmp7v4tqmxt/0pyfftbwv.sdf

>  <i_m_source_file_index>  (72) 
29

>  <i_lp_mmshare_version>  (72) 
48012

>  <i_f3d_flags>  (72) 
2

>  <s_epik_input>  (72) 
W0NIMl0xW0NASF0oW0NASF0yMylbQ0BIXTFbQ0BASF00W0NAQEhdKFtDQEhdKFtPSF0pW0NIXT1bQ0hdNSlbQ0BASF0oW0NIXT1bQ0hdNilbQ0BIXTNbQ0BASF02QzI0NQ==

>  <s_epik_cmdline>  (72) 
J2VwaWtfcHl0aG9uJywgJy1waHQnLCAnMi4wJywgJy1waCcsICc3LjAnLCAnLXRuJywgJzgnLCAnLW1hJywgJzIwMCcsICctaW1hZScsICc8aW5maWxlLm1hZT4nLCAnLW9tYWUnLCAnPG91dGZpbGUubWFlPic=

>  <r_lp_tautomer_probability>  (72) 
1

>  <r_epik_Ionization_Penalty>  (72) 
2.74257e-07

>  <r_epik_Ionization_Penalty_Charging>  (72) 
0

>  <r_epik_Ionization_Penalty_Neutral>  (72) 
2.74257e-07

>  <r_epik_State_Penalty>  (72) 
-0

>  <r_epik_Charging_Adjusted_Penalty>  (72) 
0

>  <i_epik_Tot_Q>  (72) 
0

>  <i_epik_Tot_abs_Q>  (72) 
0

>  <s_lp_Force_Field>  (72) 
OPLS3e

>  <r_lp_Energy>  (72) 
131.32

>  <b_lp_Chiralities_Consistent>  (72) 
0

>  <s_lp_Variant>  (72) 
22:0-1

>  <s_i_glide_gridfile>  (72) 
pfpi4k_grid

>  <i_i_glide_lignum>  (72) 
29

>  <i_i_glide_rotatable_bonds>  (72) 
1

>  <r_i_docking_score>  (72) 
-3.966

>  <r_i_glide_ligand_efficiency>  (72) 
-0.247875

>  <r_i_glide_ligand_efficiency_sa>  (72) 
-0.624607

>  <r_i_glide_ligand_efficiency_ln>  (72) 
-1.05127

>  <r_i_glide_gscore>  (72) 
-3.966

>  <r_i_glide_lipo>  (72) 
-0.764618

>  <r_i_glide_hbond>  (72) 
0

>  <r_i_glide_metal>  (72) 
-0

>  <r_i_glide_rewards>  (72) 
-1.96168

>  <r_i_glide_evdw>  (72) 
-22.8597

>  <r_i_glide_ecoul>  (72) 
-0.644798

>  <r_i_glide_erotb>  (72) 
0

>  <r_i_glide_esite>  (72) 
0

>  <r_i_glide_emodel>  (72) 
-29.3608

>  <r_i_glide_energy>  (72) 
-23.5045

>  <r_i_glide_einternal>  (72) 
0.00969021

>  <r_i_glide_intrahb_reward>  (72) 
-0

>  <i_i_glide_confnum>  (72) 
2

>  <i_i_glide_posenum>  (72) 
37

>  <r_i_glide_eff_state_penalty>  (72) 
0

>  <ligand_id>  (72) 
22

>  <original_smiles>  (72) 
OC1C=CC23C4C=CC5C1C2C1CC1C3C54

>  <smiles>  (72) 
[H]OC1([H])C([H])=C([H])C23C4([H])C([H])=C([H])C5([H])C1([H])C2([H])C1([H])C([H])([H])C1([H])C3([H])C54[H]

$$$$
23:0:0
     RDKit          3D

 13 14  0  0  1  0  0  0  0  0999 V2000
   -1.0686   -8.7263    3.1043 C   0  0  0  0  0  0  0  0  0  0  0  0
   -0.7138   -7.8425    2.0667 C   0  0  0  0  0  0  0  0  0  0  0  0
   -0.0762   -6.6617    2.2507 N   0  0  0  0  0  0  0  0  0  0  0  0
    0.2463   -6.3855    3.5514 C   0  0  0  0  0  0  0  0  0  0  0  0
    1.0858   -4.9197    4.0570 S   0  0  0  0  0  0  0  0  0  0  0  0
    0.9648   -5.5028    5.7190 C   0  0  0  0  0  0  0  0  0  0  0  0
    0.3508   -6.6720    5.9188 N   0  0  0  0  0  0  0  0  0  0  0  0
   -0.0522   -7.1891    4.6910 C   0  0  0  0  0  0  0  0  0  0  0  0
   -0.7329   -8.3939    4.4295 C   0  0  0  0  0  0  0  0  0  0  0  0
   -1.5822   -9.6535    2.8938 H   0  0  0  0  0  0  0  0  0  0  0  0
   -0.9627   -8.0897    1.0446 H   0  0  0  0  0  0  0  0  0  0  0  0
    1.3549   -4.9671    6.5721 H   0  0  0  0  0  0  0  0  0  0  0  0
   -0.9903   -9.0584    5.2418 H   0  0  0  0  0  0  0  0  0  0  0  0
  1  9  2  0
  1  2  1  0
  1 10  1  0
  2  3  2  0
  2 11  1  0
  3  4  1  0
  4  8  2  0
  4  5  1  0
  5  6  1  0
  6  7  2  0
  6 12  1  0
  7  8  1  0
  8  9  1  0
  9 13  1  0
M  END
>  <i_m_ct_stereo_status>  (73) 
1

>  <s_m_source_file>  (73) 
/var/tmp/pbs.5076255.sched01/tmp7v4tqmxt/0pyfftbwv.sdf

>  <i_m_source_file_index>  (73) 
30

>  <i_lp_mmshare_version>  (73) 
48012

>  <i_f3d_flags>  (73) 
0

>  <s_epik_input>  (73) 
bjFbY0hdW2NIXVtjSF1jKGMxMiluW2NIXXMy

>  <s_epik_cmdline>  (73) 
J2VwaWtfcHl0aG9uJywgJy1waHQnLCAnMi4wJywgJy1waCcsICc3LjAnLCAnLXRuJywgJzgnLCAnLW1hJywgJzIwMCcsICctaW1hZScsICc8aW5maWxlLm1hZT4nLCAnLW9tYWUnLCAnPG91dGZpbGUubWFlPic=

>  <r_lp_tautomer_probability>  (73) 
1

>  <r_epik_Ionization_Penalty>  (73) 
1.8642e-08

>  <r_epik_Ionization_Penalty_Charging>  (73) 
0

>  <r_epik_Ionization_Penalty_Neutral>  (73) 
1.8642e-08

>  <r_epik_State_Penalty>  (73) 
-0

>  <r_epik_Charging_Adjusted_Penalty>  (73) 
0

>  <i_epik_Tot_Q>  (73) 
0

>  <i_epik_Tot_abs_Q>  (73) 
0

>  <s_lp_Force_Field>  (73) 
OPLS3e

>  <r_lp_Energy>  (73) 
12.2077

>  <b_lp_Chiralities_Consistent>  (73) 
1

>  <s_lp_Variant>  (73) 
23:0-1

>  <s_i_glide_gridfile>  (73) 
pfpi4k_grid

>  <i_i_glide_lignum>  (73) 
30

>  <i_i_glide_rotatable_bonds>  (73) 
0

>  <r_i_docking_score>  (73) 
-3.45695

>  <r_i_glide_ligand_efficiency>  (73) 
-0.384106

>  <r_i_glide_ligand_efficiency_sa>  (73) 
-0.798973

>  <r_i_glide_ligand_efficiency_ln>  (73) 
-1.08124

>  <r_i_glide_gscore>  (73) 
-3.45695

>  <r_i_glide_lipo>  (73) 
0

>  <r_i_glide_hbond>  (73) 
-0.16

>  <r_i_glide_metal>  (73) 
-0

>  <r_i_glide_rewards>  (73) 
-2.25

>  <r_i_glide_evdw>  (73) 
-11.6416

>  <r_i_glide_ecoul>  (73) 
-3.09916

>  <r_i_glide_erotb>  (73) 
0

>  <r_i_glide_esite>  (73) 
0

>  <r_i_glide_emodel>  (73) 
-18.3663

>  <r_i_glide_energy>  (73) 
-14.7408

>  <r_i_glide_einternal>  (73) 
0

>  <r_i_glide_intrahb_reward>  (73) 
-0

>  <i_i_glide_confnum>  (73) 
1

>  <i_i_glide_posenum>  (73) 
11

>  <r_i_glide_eff_state_penalty>  (73) 
0

>  <ligand_id>  (73) 
23

>  <original_smiles>  (73) 
c1cnc2scnc2c1

>  <smiles>  (73) 
[H]c1nc2c([H])c([H])c([H])nc2s1

$$$$
23:0:1
     RDKit          3D

 13 14  0  0  1  0  0  0  0  0999 V2000
    1.6484   -5.0516    4.9457 C   0  0  0  0  0  0  0  0  0  0  0  0
    0.7803   -5.7269    5.8289 C   0  0  0  0  0  0  0  0  0  0  0  0
   -0.1476   -6.6304    5.4446 N   0  0  0  0  0  0  0  0  0  0  0  0
   -0.1952   -6.8780    4.1018 C   0  0  0  0  0  0  0  0  0  0  0  0
   -1.3214   -8.0042    3.3468 S   0  0  0  0  0  0  0  0  0  0  0  0
   -0.5880   -7.5883    1.7939 C   0  0  0  0  0  0  0  0  0  0  0  0
    0.3576   -6.6438    1.7873 N   0  0  0  0  0  0  0  0  0  0  0  0
    0.6192   -6.2651    3.1029 C   0  0  0  0  0  0  0  0  0  0  0  0
    1.5640   -5.3239    3.5653 C   0  0  0  0  0  0  0  0  0  0  0  0
    2.3667   -4.3379    5.3204 H   0  0  0  0  0  0  0  0  0  0  0  0
    0.8348   -5.5350    6.8908 H   0  0  0  0  0  0  0  0  0  0  0  0
   -0.9181   -8.0205    0.8602 H   0  0  0  0  0  0  0  0  0  0  0  0
    2.2128   -4.8179    2.8627 H   0  0  0  0  0  0  0  0  0  0  0  0
  1  9  2  0
  1  2  1  0
  1 10  1  0
  2  3  2  0
  2 11  1  0
  3  4  1  0
  4  8  2  0
  4  5  1  0
  5  6  1  0
  6  7  2  0
  6 12  1  0
  7  8  1  0
  8  9  1  0
  9 13  1  0
M  END
>  <i_m_ct_stereo_status>  (74) 
1

>  <s_m_source_file>  (74) 
/var/tmp/pbs.5076255.sched01/tmp7v4tqmxt/0pyfftbwv.sdf

>  <i_m_source_file_index>  (74) 
30

>  <i_lp_mmshare_version>  (74) 
48012

>  <i_f3d_flags>  (74) 
0

>  <s_epik_input>  (74) 
bjFbY0hdW2NIXVtjSF1jKGMxMiluW2NIXXMy

>  <s_epik_cmdline>  (74) 
J2VwaWtfcHl0aG9uJywgJy1waHQnLCAnMi4wJywgJy1waCcsICc3LjAnLCAnLXRuJywgJzgnLCAnLW1hJywgJzIwMCcsICctaW1hZScsICc8aW5maWxlLm1hZT4nLCAnLW9tYWUnLCAnPG91dGZpbGUubWFlPic=

>  <r_lp_tautomer_probability>  (74) 
1

>  <r_epik_Ionization_Penalty>  (74) 
1.8642e-08

>  <r_epik_Ionization_Penalty_Charging>  (74) 
0

>  <r_epik_Ionization_Penalty_Neutral>  (74) 
1.8642e-08

>  <r_epik_State_Penalty>  (74) 
-0

>  <r_epik_Charging_Adjusted_Penalty>  (74) 
0

>  <i_epik_Tot_Q>  (74) 
0

>  <i_epik_Tot_abs_Q>  (74) 
0

>  <s_lp_Force_Field>  (74) 
OPLS3e

>  <r_lp_Energy>  (74) 
12.2077

>  <b_lp_Chiralities_Consistent>  (74) 
1

>  <s_lp_Variant>  (74) 
23:0-1

>  <s_i_glide_gridfile>  (74) 
pfpi4k_grid

>  <i_i_glide_lignum>  (74) 
30

>  <i_i_glide_rotatable_bonds>  (74) 
0

>  <r_i_docking_score>  (74) 
-3.34731

>  <r_i_glide_ligand_efficiency>  (74) 
-0.371923

>  <r_i_glide_ligand_efficiency_sa>  (74) 
-0.773632

>  <r_i_glide_ligand_efficiency_ln>  (74) 
-1.04694

>  <r_i_glide_gscore>  (74) 
-3.34731

>  <r_i_glide_lipo>  (74) 
0

>  <r_i_glide_hbond>  (74) 
-0.0656092

>  <r_i_glide_metal>  (74) 
-0

>  <r_i_glide_rewards>  (74) 
-2.25

>  <r_i_glide_evdw>  (74) 
-12.6176

>  <r_i_glide_ecoul>  (74) 
-2.67214

>  <r_i_glide_erotb>  (74) 
0

>  <r_i_glide_esite>  (74) 
0

>  <r_i_glide_emodel>  (74) 
-18.7987

>  <r_i_glide_energy>  (74) 
-15.2897

>  <r_i_glide_einternal>  (74) 
0

>  <r_i_glide_intrahb_reward>  (74) 
-0

>  <i_i_glide_confnum>  (74) 
1

>  <i_i_glide_posenum>  (74) 
2

>  <r_i_glide_eff_state_penalty>  (74) 
0

>  <ligand_id>  (74) 
23

>  <original_smiles>  (74) 
c1cnc2scnc2c1

>  <smiles>  (74) 
[H]c1nc2c([H])c([H])c([H])nc2s1

$$$$
23:0:2
     RDKit          3D

 13 14  0  0  1  0  0  0  0  0999 V2000
   -0.3843   -9.4312    2.8626 C   0  0  0  0  0  0  0  0  0  0  0  0
   -0.9335   -8.2053    2.4350 C   0  0  0  0  0  0  0  0  0  0  0  0
   -0.9261   -7.0630    3.1623 N   0  0  0  0  0  0  0  0  0  0  0  0
   -0.3355   -7.1800    4.3919 C   0  0  0  0  0  0  0  0  0  0  0  0
   -0.1842   -5.8444    5.5336 S   0  0  0  0  0  0  0  0  0  0  0  0
    0.6228   -6.9613    6.6384 C   0  0  0  0  0  0  0  0  0  0  0  0
    0.7846   -8.2208    6.2273 N   0  0  0  0  0  0  0  0  0  0  0  0
    0.2498   -8.3577    4.9488 C   0  0  0  0  0  0  0  0  0  0  0  0
    0.2157   -9.5077    4.1335 C   0  0  0  0  0  0  0  0  0  0  0  0
   -0.4232  -10.2992    2.2212 H   0  0  0  0  0  0  0  0  0  0  0  0
   -1.3841   -8.1423    1.4551 H   0  0  0  0  0  0  0  0  0  0  0  0
    0.9886   -6.6802    7.6169 H   0  0  0  0  0  0  0  0  0  0  0  0
    0.6342  -10.4365    4.4936 H   0  0  0  0  0  0  0  0  0  0  0  0
  1  9  2  0
  1  2  1  0
  1 10  1  0
  2  3  2  0
  2 11  1  0
  3  4  1  0
  4  8  2  0
  4  5  1  0
  5  6  1  0
  6  7  2  0
  6 12  1  0
  7  8  1  0
  8  9  1  0
  9 13  1  0
M  END
>  <i_m_ct_stereo_status>  (75) 
1

>  <s_m_source_file>  (75) 
/var/tmp/pbs.5076255.sched01/tmp7v4tqmxt/0pyfftbwv.sdf

>  <i_m_source_file_index>  (75) 
30

>  <i_lp_mmshare_version>  (75) 
48012

>  <i_f3d_flags>  (75) 
0

>  <s_epik_input>  (75) 
bjFbY0hdW2NIXVtjSF1jKGMxMiluW2NIXXMy

>  <s_epik_cmdline>  (75) 
J2VwaWtfcHl0aG9uJywgJy1waHQnLCAnMi4wJywgJy1waCcsICc3LjAnLCAnLXRuJywgJzgnLCAnLW1hJywgJzIwMCcsICctaW1hZScsICc8aW5maWxlLm1hZT4nLCAnLW9tYWUnLCAnPG91dGZpbGUubWFlPic=

>  <r_lp_tautomer_probability>  (75) 
1

>  <r_epik_Ionization_Penalty>  (75) 
1.8642e-08

>  <r_epik_Ionization_Penalty_Charging>  (75) 
0

>  <r_epik_Ionization_Penalty_Neutral>  (75) 
1.8642e-08

>  <r_epik_State_Penalty>  (75) 
-0

>  <r_epik_Charging_Adjusted_Penalty>  (75) 
0

>  <i_epik_Tot_Q>  (75) 
0

>  <i_epik_Tot_abs_Q>  (75) 
0

>  <s_lp_Force_Field>  (75) 
OPLS3e

>  <r_lp_Energy>  (75) 
12.2077

>  <b_lp_Chiralities_Consistent>  (75) 
1

>  <s_lp_Variant>  (75) 
23:0-1

>  <s_i_glide_gridfile>  (75) 
pfpi4k_grid

>  <i_i_glide_lignum>  (75) 
30

>  <i_i_glide_rotatable_bonds>  (75) 
0

>  <r_i_docking_score>  (75) 
-3.31652

>  <r_i_glide_ligand_efficiency>  (75) 
-0.368502

>  <r_i_glide_ligand_efficiency_sa>  (75) 
-0.766515

>  <r_i_glide_ligand_efficiency_ln>  (75) 
-1.03731

>  <r_i_glide_gscore>  (75) 
-3.31652

>  <r_i_glide_lipo>  (75) 
0

>  <r_i_glide_hbond>  (75) 
-0.13671

>  <r_i_glide_metal>  (75) 
-0

>  <r_i_glide_rewards>  (75) 
-2.25

>  <r_i_glide_evdw>  (75) 
-13.121

>  <r_i_glide_ecoul>  (75) 
-1.82504

>  <r_i_glide_erotb>  (75) 
0

>  <r_i_glide_esite>  (75) 
0

>  <r_i_glide_emodel>  (75) 
-18.4241

>  <r_i_glide_energy>  (75) 
-14.9461

>  <r_i_glide_einternal>  (75) 
0

>  <r_i_glide_intrahb_reward>  (75) 
-0

>  <i_i_glide_confnum>  (75) 
1

>  <i_i_glide_posenum>  (75) 
6

>  <r_i_glide_eff_state_penalty>  (75) 
0

>  <ligand_id>  (75) 
23

>  <original_smiles>  (75) 
c1cnc2scnc2c1

>  <smiles>  (75) 
[H]c1nc2c([H])c([H])c([H])nc2s1

$$$$
24:0:0
     RDKit          3D

 73 78  0  0  1  0  0  0  0  0999 V2000
    4.8239   -5.7726    0.6084 C   0  0  0  0  0  0  0  0  0  0  0  0
    4.4786   -7.1896    0.9974 C   0  0  0  0  0  0  0  0  0  0  0  0
    4.6250   -8.0917    0.1679 O   0  0  0  0  0  0  0  0  0  0  0  0
    4.0080   -7.4436    2.4331 C   0  0  2  0  0  0  0  0  0  0  0  0
    3.8298   -8.9517    2.7341 C   0  0  0  0  0  0  0  0  0  0  0  0
    2.4699   -9.6026    2.3795 C   0  0  0  0  0  0  0  0  0  0  0  0
    1.2224   -9.3491    3.2916 C   0  0  1  0  0  0  0  0  0  0  0  0
    1.4927   -9.3298    4.8095 C   0  0  0  0  0  0  0  0  0  0  0  0
    0.4258   -8.4308    5.4256 C   0  0  0  0  0  0  0  0  0  0  0  0
    0.0052   -7.4114    4.3466 C   0  0  1  0  0  0  0  0  0  0  0  0
    0.3280   -5.8537    4.5837 C   0  0  1  0  0  0  0  0  0  0  0  0
   -0.3956   -5.4410    5.8825 C   0  0  0  0  0  0  0  0  0  0  0  0
    0.6436   -5.4220    7.0138 C   0  0  0  0  0  0  0  0  0  0  0  0
    2.0040   -5.5314    6.3208 C   0  0  0  0  0  0  0  0  0  0  0  0
    1.7518   -5.1857    4.8308 C   0  0  2  0  0  0  0  0  0  0  0  0
    1.5694   -3.7763    4.9478 O   0  0  0  0  0  0  0  0  0  0  0  0
    1.4401   -3.1824    3.5913 O   0  0  0  0  0  0  0  0  0  0  0  0
    2.7506   -3.0761    3.0720 C   0  0  0  0  0  0  0  0  0  0  0  0
    2.6374   -2.4692    1.6588 C   0  0  0  0  0  0  0  0  0  0  0  0
    4.0066   -2.2266    0.9994 C   0  0  0  0  0  0  0  0  0  0  0  0
    4.9402   -1.3829    1.8480 C   0  0  0  0  0  0  0  0  0  0  0  0
    5.0466   -1.9718    3.2637 C   0  0  0  0  0  0  0  0  0  0  0  0
    3.6658   -2.1520    3.9185 C   0  0  0  0  0  0  0  0  0  0  0  0
    3.2917   -4.3591    2.8910 O   0  0  0  0  0  0  0  0  0  0  0  0
    3.0275   -5.3716    3.8685 C   0  0  1  0  0  0  0  0  0  0  0  0
    4.3409   -5.4399    4.6777 C   0  0  0  0  0  0  0  0  0  0  0  0
    2.8043   -6.6026    2.9674 C   0  0  1  0  0  0  0  0  0  0  0  0
    1.6868   -6.2917    1.9232 C   0  0  0  0  0  0  0  0  0  0  0  0
    0.5764   -7.3026    1.7610 C   0  0  0  0  0  0  0  0  0  0  0  0
    0.2257   -8.1676    2.9816 C   0  0  1  0  0  0  0  0  0  0  0  0
   -1.1224   -8.8292    2.6003 C   0  0  0  0  0  0  0  0  0  0  0  0
    5.4061   -5.2951    1.3860 H   0  0  0  0  0  0  0  0  0  0  0  0
    3.9076   -5.2116    0.4799 H   0  0  0  0  0  0  0  0  0  0  0  0
    5.3809   -5.7202   -0.3279 H   0  0  0  0  0  0  0  0  0  0  0  0
    4.8911   -7.1615    3.0029 H   0  0  0  0  0  0  0  0  0  0  0  0
    4.5968   -9.5005    2.1890 H   0  0  0  0  0  0  0  0  0  0  0  0
    4.0936   -9.1424    3.7702 H   0  0  0  0  0  0  0  0  0  0  0  0
    2.2443   -9.4620    1.3248 H   0  0  0  0  0  0  0  0  0  0  0  0
    2.6597  -10.6721    2.4425 H   0  0  0  0  0  0  0  0  0  0  0  0
    0.6432  -10.2607    3.1401 H   0  0  0  0  0  0  0  0  0  0  0  0
    1.4662  -10.3360    5.2290 H   0  0  0  0  0  0  0  0  0  0  0  0
    2.4650   -8.9247    5.0723 H   0  0  0  0  0  0  0  0  0  0  0  0
   -0.4393   -9.0532    5.6460 H   0  0  0  0  0  0  0  0  0  0  0  0
    0.7402   -8.0112    6.3732 H   0  0  0  0  0  0  0  0  0  0  0  0
   -1.0802   -7.3732    4.4447 H   0  0  0  0  0  0  0  0  0  0  0  0
   -0.1626   -5.3038    3.7937 H   0  0  0  0  0  0  0  0  0  0  0  0
   -0.7866   -4.4233    5.7778 H   0  0  0  0  0  0  0  0  0  0  0  0
   -1.2522   -6.0701    6.1115 H   0  0  0  0  0  0  0  0  0  0  0  0
    0.5492   -4.4835    7.5577 H   0  0  0  0  0  0  0  0  0  0  0  0
    0.4856   -6.2293    7.7276 H   0  0  0  0  0  0  0  0  0  0  0  0
    2.7145   -4.8576    6.8024 H   0  0  0  0  0  0  0  0  0  0  0  0
    2.4004   -6.5437    6.4294 H   0  0  0  0  0  0  0  0  0  0  0  0
    2.0513   -3.1185    1.0166 H   0  0  0  0  0  0  0  0  0  0  0  0
    2.0726   -1.5312    1.7034 H   0  0  0  0  0  0  0  0  0  0  0  0
    4.5396   -3.1553    0.8542 H   0  0  0  0  0  0  0  0  0  0  0  0
    3.8932   -1.7948    0.0098 H   0  0  0  0  0  0  0  0  0  0  0  0
    5.9317   -1.3952    1.4033 H   0  0  0  0  0  0  0  0  0  0  0  0
    4.6447   -0.3371    1.8763 H   0  0  0  0  0  0  0  0  0  0  0  0
    5.5408   -2.9346    3.2319 H   0  0  0  0  0  0  0  0  0  0  0  0
    5.6644   -1.3381    3.8879 H   0  0  0  0  0  0  0  0  0  0  0  0
    3.1870   -1.1760    4.0146 H   0  0  0  0  0  0  0  0  0  0  0  0
    3.7735   -2.5143    4.9460 H   0  0  0  0  0  0  0  0  0  0  0  0
    4.4133   -6.3664    5.2585 H   0  0  0  0  0  0  0  0  0  0  0  0
    4.4242   -4.6118    5.3781 H   0  0  0  0  0  0  0  0  0  0  0  0
    5.2078   -5.3712    4.0279 H   0  0  0  0  0  0  0  0  0  0  0  0
    2.4377   -7.2375    3.7464 H   0  0  0  0  0  0  0  0  0  0  0  0
    1.2020   -5.3523    2.1632 H   0  0  0  0  0  0  0  0  0  0  0  0
    2.0647   -6.1064    0.9277 H   0  0  0  0  0  0  0  0  0  0  0  0
   -0.3171   -6.7598    1.4347 H   0  0  0  0  0  0  0  0  0  0  0  0
    0.8163   -7.9464    0.9207 H   0  0  0  0  0  0  0  0  0  0  0  0
   -1.8997   -8.0984    2.3867 H   0  0  0  0  0  0  0  0  0  0  0  0
   -1.4916   -9.4664    3.4008 H   0  0  0  0  0  0  0  0  0  0  0  0
   -1.0067   -9.4504    1.7140 H   0  0  0  0  0  0  0  0  0  0  0  0
  1  2  1  0
  1 32  1  0
  1 33  1  0
  1 34  1  0
  2  3  2  0
  2  4  1  0
  4 27  1  0
  4  5  1  0
  4 35  1  1
  5  6  1  0
  5 36  1  0
  5 37  1  0
  6  7  1  0
  6 38  1  0
  6 39  1  0
  7 30  1  0
  7  8  1  0
  7 40  1  1
  8  9  1  0
  8 41  1  0
  8 42  1  0
  9 10  1  0
  9 43  1  0
  9 44  1  0
 10 30  1  0
 10 11  1  0
 10 45  1  1
 11 15  1  0
 11 12  1  0
 11 46  1  6
 12 13  1  0
 12 47  1  0
 12 48  1  0
 13 14  1  0
 13 49  1  0
 13 50  1  0
 14 15  1  0
 14 51  1  0
 14 52  1  0
 15 25  1  0
 15 16  1  1
 16 17  1  0
 17 18  1  0
 18 23  1  0
 18 19  1  0
 18 24  1  0
 19 20  1  0
 19 53  1  0
 19 54  1  0
 20 21  1  0
 20 55  1  0
 20 56  1  0
 21 22  1  0
 21 57  1  0
 21 58  1  0
 22 23  1  0
 22 59  1  0
 22 60  1  0
 23 61  1  0
 23 62  1  0
 24 25  1  0
 25 26  1  1
 25 27  1  0
 26 63  1  0
 26 64  1  0
 26 65  1  0
 27 28  1  0
 27 66  1  1
 28 29  1  0
 28 67  1  0
 28 68  1  0
 29 30  1  0
 29 69  1  0
 29 70  1  0
 30 31  1  6
 31 71  1  0
 31 72  1  0
 31 73  1  0
M  END
>  <i_m_ct_stereo_status>  (76) 
1

>  <s_m_source_file>  (76) 
/var/tmp/pbs.5076255.sched01/tmp7v4tqmxt/0pyfftbwv.sdf

>  <i_m_source_file_index>  (76) 
31

>  <i_lp_mmshare_version>  (76) 
48012

>  <i_f3d_flags>  (76) 
0

>  <s_epik_input>  (76) 
W0NIMl0xW0NIMl1bQ0gyXVtDSDJdW0NIMl1DMShPTzIpT1tDQF0zKFtDSDNdKVtDQEBIXShbQ0gyXVtDSDJdNClbQ0BIXShDKD1PKVtDSDNdKVtDSDJdW0NIMl1bQ0BASF0oW0NIMl1bQ0gyXTUpW0NAQF00KFtDSDNdKVtDQEBIXTVbQ0BIXShbQ0BdMjM2KVtDSDJdW0NIMl1bQ0gyXTY=

>  <s_epik_cmdline>  (76) 
J2VwaWtfcHl0aG9uJywgJy1waHQnLCAnMi4wJywgJy1waCcsICc3LjAnLCAnLXRuJywgJzgnLCAnLW1hJywgJzIwMCcsICctaW1hZScsICc8aW5maWxlLm1hZT4nLCAnLW9tYWUnLCAnPG91dGZpbGUubWFlPic=

>  <r_lp_tautomer_probability>  (76) 
1

>  <r_epik_Ionization_Penalty>  (76) 
2.7864e-13

>  <r_epik_Ionization_Penalty_Charging>  (76) 
0

>  <r_epik_Ionization_Penalty_Neutral>  (76) 
2.7864e-13

>  <r_epik_State_Penalty>  (76) 
-0

>  <r_epik_Charging_Adjusted_Penalty>  (76) 
0

>  <i_epik_Tot_Q>  (76) 
0

>  <i_epik_Tot_abs_Q>  (76) 
0

>  <s_lp_Force_Field>  (76) 
OPLS3e

>  <r_lp_Energy>  (76) 
102.748

>  <b_lp_Chiralities_Consistent>  (76) 
1

>  <s_lp_Variant>  (76) 
24:0-1

>  <s_i_glide_gridfile>  (76) 
pfpi4k_grid

>  <i_i_glide_lignum>  (76) 
31

>  <i_i_glide_rotatable_bonds>  (76) 
1

>  <r_i_docking_score>  (76) 
-2.48832

>  <r_i_glide_ligand_efficiency>  (76) 
-0.0802682

>  <r_i_glide_ligand_efficiency_sa>  (76) 
-0.252153

>  <r_i_glide_ligand_efficiency_ln>  (76) 
-0.561191

>  <r_i_glide_gscore>  (76) 
-2.48832

>  <r_i_glide_lipo>  (76) 
-0.288966

>  <r_i_glide_hbond>  (76) 
0

>  <r_i_glide_metal>  (76) 
-0

>  <r_i_glide_rewards>  (76) 
-0.615657

>  <r_i_glide_evdw>  (76) 
-30.0164

>  <r_i_glide_ecoul>  (76) 
-0.549157

>  <r_i_glide_erotb>  (76) 
0

>  <r_i_glide_esite>  (76) 
-0.000497506

>  <r_i_glide_emodel>  (76) 
-34.6503

>  <r_i_glide_energy>  (76) 
-30.5656

>  <r_i_glide_einternal>  (76) 
0.326483

>  <r_i_glide_intrahb_reward>  (76) 
-0

>  <i_i_glide_confnum>  (76) 
1

>  <i_i_glide_posenum>  (76) 
1

>  <r_i_glide_eff_state_penalty>  (76) 
0

>  <ligand_id>  (76) 
24

>  <original_smiles>  (76) 
CC(=O)C1CCC2CCC3C4CCCC45OOC4(CCCCC4)OC5(C)C1CCC23C

>  <smiles>  (76) 
[H]C([H])([H])C(=O)C1([H])C([H])([H])C([H])([H])C2([H])C([H])([H])C([H])([H])C3([H])C4([H])C([H])([H])C([H])([H])C([H])([H])C45OOC4(OC5(C([H])([H])[H])C1([H])C([H])([H])C([H])([H])C23C([H])([H])[H])C([H])([H])C([H])([H])C([H])([H])C([H])([H])C4([H])[H]

$$$$
24:0:1
     RDKit          3D

 73 78  0  0  1  0  0  0  0  0999 V2000
    6.2468   -9.9790    1.4528 C   0  0  0  0  0  0  0  0  0  0  0  0
    6.2868   -8.6419    2.1843 C   0  0  0  0  0  0  0  0  0  0  0  0
    6.9363   -7.7020    1.7281 O   0  0  0  0  0  0  0  0  0  0  0  0
    5.4696   -8.4680    3.4764 C   0  0  2  0  0  0  0  0  0  0  0  0
    5.4754   -9.7203    4.3904 C   0  0  0  0  0  0  0  0  0  0  0  0
    4.3922  -10.8185    4.1705 C   0  0  0  0  0  0  0  0  0  0  0  0
    2.9095  -10.5560    4.5906 C   0  0  1  0  0  0  0  0  0  0  0  0
    2.7060   -9.8513    5.9427 C   0  0  0  0  0  0  0  0  0  0  0  0
    1.3768   -9.1077    5.8410 C   0  0  0  0  0  0  0  0  0  0  0  0
    1.1366   -8.7759    4.3516 C   0  0  1  0  0  0  0  0  0  0  0  0
    1.1096   -7.2370    3.8957 C   0  0  1  0  0  0  0  0  0  0  0  0
   -0.0325   -6.5658    4.7015 C   0  0  0  0  0  0  0  0  0  0  0  0
    0.6094   -5.7901    5.8576 C   0  0  0  0  0  0  0  0  0  0  0  0
    2.1193   -5.7889    5.5740 C   0  0  0  0  0  0  0  0  0  0  0  0
    2.2734   -6.1593    4.0833 C   0  0  2  0  0  0  0  0  0  0  0  0
    1.8332   -4.9230    3.5231 O   0  0  0  0  0  0  0  0  0  0  0  0
    2.0164   -5.0230    2.0131 O   0  0  0  0  0  0  0  0  0  0  0  0
    3.3895   -4.7595    1.7948 C   0  0  0  0  0  0  0  0  0  0  0  0
    3.6223   -4.8795    0.2732 C   0  0  0  0  0  0  0  0  0  0  0  0
    3.0087   -3.7258   -0.5385 C   0  0  0  0  0  0  0  0  0  0  0  0
    3.5204   -2.3694   -0.0467 C   0  0  0  0  0  0  0  0  0  0  0  0
    3.2550   -2.2027    1.4590 C   0  0  0  0  0  0  0  0  0  0  0  0
    3.8654   -3.3574    2.2748 C   0  0  0  0  0  0  0  0  0  0  0  0
    4.1730   -5.7907    2.3332 O   0  0  0  0  0  0  0  0  0  0  0  0
    3.7952   -6.3498    3.5788 C   0  0  1  0  0  0  0  0  0  0  0  0
    4.8051   -5.7194    4.5674 C   0  0  0  0  0  0  0  0  0  0  0  0
    4.0493   -7.8514    3.3309 C   0  0  1  0  0  0  0  0  0  0  0  0
    3.2799   -8.3080    2.0552 C   0  0  0  0  0  0  0  0  0  0  0  0
    2.4450   -9.5761    2.1810 C   0  0  0  0  0  0  0  0  0  0  0  0
    1.8807   -9.9296    3.5760 C   0  0  1  0  0  0  0  0  0  0  0  0
    0.8354  -11.0401    3.2956 C   0  0  0  0  0  0  0  0  0  0  0  0
    5.2209  -10.3127    1.3327 H   0  0  0  0  0  0  0  0  0  0  0  0
    6.7884  -10.7409    2.0119 H   0  0  0  0  0  0  0  0  0  0  0  0
    6.6762   -9.9014    0.4581 H   0  0  0  0  0  0  0  0  0  0  0  0
    6.0860   -7.7621    4.0263 H   0  0  0  0  0  0  0  0  0  0  0  0
    6.4510  -10.1969    4.2957 H   0  0  0  0  0  0  0  0  0  0  0  0
    5.4639   -9.3958    5.4290 H   0  0  0  0  0  0  0  0  0  0  0  0
    4.4296  -11.2265    3.1663 H   0  0  0  0  0  0  0  0  0  0  0  0
    4.7233  -11.6614    4.7780 H   0  0  0  0  0  0  0  0  0  0  0  0
    2.5501  -11.5704    4.7821 H   0  0  0  0  0  0  0  0  0  0  0  0
    2.7088  -10.5627    6.7676 H   0  0  0  0  0  0  0  0  0  0  0  0
    3.4817   -9.1230    6.1621 H   0  0  0  0  0  0  0  0  0  0  0  0
    0.5923   -9.7963    6.1581 H   0  0  0  0  0  0  0  0  0  0  0  0
    1.3233   -8.2690    6.5235 H   0  0  0  0  0  0  0  0  0  0  0  0
    0.0837   -9.0177    4.2064 H   0  0  0  0  0  0  0  0  0  0  0  0
    0.7902   -7.2234    2.8582 H   0  0  0  0  0  0  0  0  0  0  0  0
   -0.5647   -5.8544    4.0694 H   0  0  0  0  0  0  0  0  0  0  0  0
   -0.7899   -7.2612    5.0656 H   0  0  0  0  0  0  0  0  0  0  0  0
    0.2049   -4.7770    5.8859 H   0  0  0  0  0  0  0  0  0  0  0  0
    0.3871   -6.2432    6.8253 H   0  0  0  0  0  0  0  0  0  0  0  0
    2.5344   -4.8104    5.8226 H   0  0  0  0  0  0  0  0  0  0  0  0
    2.6190   -6.5171    6.2117 H   0  0  0  0  0  0  0  0  0  0  0  0
    4.6991   -4.8934    0.0786 H   0  0  0  0  0  0  0  0  0  0  0  0
    3.2415   -5.8355   -0.0958 H   0  0  0  0  0  0  0  0  0  0  0  0
    3.2533   -3.8449   -1.5959 H   0  0  0  0  0  0  0  0  0  0  0  0
    1.9225   -3.7602   -0.4695 H   0  0  0  0  0  0  0  0  0  0  0  0
    4.5904   -2.2754   -0.2494 H   0  0  0  0  0  0  0  0  0  0  0  0
    3.0395   -1.5631   -0.5987 H   0  0  0  0  0  0  0  0  0  0  0  0
    3.6632   -1.2505    1.7985 H   0  0  0  0  0  0  0  0  0  0  0  0
    2.1796   -2.1612    1.6364 H   0  0  0  0  0  0  0  0  0  0  0  0
    3.6618   -3.1965    3.3313 H   0  0  0  0  0  0  0  0  0  0  0  0
    4.9521   -3.3134    2.1709 H   0  0  0  0  0  0  0  0  0  0  0  0
    4.8651   -6.2635    5.5136 H   0  0  0  0  0  0  0  0  0  0  0  0
    4.5495   -4.6849    4.7976 H   0  0  0  0  0  0  0  0  0  0  0  0
    5.8074   -5.6802    4.1362 H   0  0  0  0  0  0  0  0  0  0  0  0
    3.5721   -8.2101    4.2168 H   0  0  0  0  0  0  0  0  0  0  0  0
    2.5859   -7.5356    1.7411 H   0  0  0  0  0  0  0  0  0  0  0  0
    3.9104   -8.3758    1.1726 H   0  0  0  0  0  0  0  0  0  0  0  0
    1.6143   -9.4665    1.4808 H   0  0  0  0  0  0  0  0  0  0  0  0
    2.9975  -10.4262    1.7840 H   0  0  0  0  0  0  0  0  0  0  0  0
    0.0495  -10.7025    2.6192 H   0  0  0  0  0  0  0  0  0  0  0  0
    0.3429  -11.3843    4.2085 H   0  0  0  0  0  0  0  0  0  0  0  0
    1.2978  -11.9201    2.8486 H   0  0  0  0  0  0  0  0  0  0  0  0
  1  2  1  0
  1 32  1  0
  1 33  1  0
  1 34  1  0
  2  3  2  0
  2  4  1  0
  4 27  1  0
  4  5  1  0
  4 35  1  1
  5  6  1  0
  5 36  1  0
  5 37  1  0
  6  7  1  0
  6 38  1  0
  6 39  1  0
  7 30  1  0
  7  8  1  0
  7 40  1  1
  8  9  1  0
  8 41  1  0
  8 42  1  0
  9 10  1  0
  9 43  1  0
  9 44  1  0
 10 30  1  0
 10 11  1  0
 10 45  1  1
 11 15  1  0
 11 12  1  0
 11 46  1  6
 12 13  1  0
 12 47  1  0
 12 48  1  0
 13 14  1  0
 13 49  1  0
 13 50  1  0
 14 15  1  0
 14 51  1  0
 14 52  1  0
 15 25  1  0
 15 16  1  6
 16 17  1  0
 17 18  1  0
 18 23  1  0
 18 19  1  0
 18 24  1  0
 19 20  1  0
 19 53  1  0
 19 54  1  0
 20 21  1  0
 20 55  1  0
 20 56  1  0
 21 22  1  0
 21 57  1  0
 21 58  1  0
 22 23  1  0
 22 59  1  0
 22 60  1  0
 23 61  1  0
 23 62  1  0
 24 25  1  0
 25 26  1  1
 25 27  1  0
 26 63  1  0
 26 64  1  0
 26 65  1  0
 27 28  1  0
 27 66  1  1
 28 29  1  0
 28 67  1  0
 28 68  1  0
 29 30  1  0
 29 69  1  0
 29 70  1  0
 30 31  1  6
 31 71  1  0
 31 72  1  0
 31 73  1  0
M  END
>  <i_m_ct_stereo_status>  (77) 
1

>  <s_m_source_file>  (77) 
/var/tmp/pbs.5076255.sched01/tmp7v4tqmxt/0pyfftbwv.sdf

>  <i_m_source_file_index>  (77) 
31

>  <i_lp_mmshare_version>  (77) 
48012

>  <i_f3d_flags>  (77) 
0

>  <s_epik_input>  (77) 
W0NIMl0xW0NIMl1bQ0gyXVtDSDJdW0NIMl1DMShPTzIpT1tDQF0zKFtDSDNdKVtDQEBIXShbQ0gyXVtDSDJdNClbQ0BIXShDKD1PKVtDSDNdKVtDSDJdW0NIMl1bQ0BASF0oW0NIMl1bQ0gyXTUpW0NAQF00KFtDSDNdKVtDQEBIXTVbQ0BIXShbQ0BdMjM2KVtDSDJdW0NIMl1bQ0gyXTY=

>  <s_epik_cmdline>  (77) 
J2VwaWtfcHl0aG9uJywgJy1waHQnLCAnMi4wJywgJy1waCcsICc3LjAnLCAnLXRuJywgJzgnLCAnLW1hJywgJzIwMCcsICctaW1hZScsICc8aW5maWxlLm1hZT4nLCAnLW9tYWUnLCAnPG91dGZpbGUubWFlPic=

>  <r_lp_tautomer_probability>  (77) 
1

>  <r_epik_Ionization_Penalty>  (77) 
2.7864e-13

>  <r_epik_Ionization_Penalty_Charging>  (77) 
0

>  <r_epik_Ionization_Penalty_Neutral>  (77) 
2.7864e-13

>  <r_epik_State_Penalty>  (77) 
-0

>  <r_epik_Charging_Adjusted_Penalty>  (77) 
0

>  <i_epik_Tot_Q>  (77) 
0

>  <i_epik_Tot_abs_Q>  (77) 
0

>  <s_lp_Force_Field>  (77) 
OPLS3e

>  <r_lp_Energy>  (77) 
102.748

>  <b_lp_Chiralities_Consistent>  (77) 
1

>  <s_lp_Variant>  (77) 
24:0-1

>  <s_i_glide_gridfile>  (77) 
pfpi4k_grid

>  <i_i_glide_lignum>  (77) 
31

>  <i_i_glide_rotatable_bonds>  (77) 
1

>  <r_i_docking_score>  (77) 
-2.28883

>  <r_i_glide_ligand_efficiency>  (77) 
-0.0738331

>  <r_i_glide_ligand_efficiency_sa>  (77) 
-0.231938

>  <r_i_glide_ligand_efficiency_ln>  (77) 
-0.516201

>  <r_i_glide_gscore>  (77) 
-2.28883

>  <r_i_glide_lipo>  (77) 
-0.160773

>  <r_i_glide_hbond>  (77) 
0

>  <r_i_glide_metal>  (77) 
-0

>  <r_i_glide_rewards>  (77) 
-0.543922

>  <r_i_glide_evdw>  (77) 
-29.6483

>  <r_i_glide_ecoul>  (77) 
-0.678128

>  <r_i_glide_erotb>  (77) 
0

>  <r_i_glide_esite>  (77) 
0

>  <r_i_glide_emodel>  (77) 
-33.8991

>  <r_i_glide_energy>  (77) 
-30.3264

>  <r_i_glide_einternal>  (77) 
1.71868

>  <r_i_glide_intrahb_reward>  (77) 
-0

>  <i_i_glide_confnum>  (77) 
2

>  <i_i_glide_posenum>  (77) 
35

>  <r_i_glide_eff_state_penalty>  (77) 
0

>  <ligand_id>  (77) 
24

>  <original_smiles>  (77) 
CC(=O)C1CCC2CCC3C4CCCC45OOC4(CCCCC4)OC5(C)C1CCC23C

>  <smiles>  (77) 
[H]C([H])([H])C(=O)C1([H])C([H])([H])C([H])([H])C2([H])C([H])([H])C([H])([H])C3([H])C4([H])C([H])([H])C([H])([H])C([H])([H])C45OOC4(OC5(C([H])([H])[H])C1([H])C([H])([H])C([H])([H])C23C([H])([H])[H])C([H])([H])C([H])([H])C([H])([H])C([H])([H])C4([H])[H]

$$$$
24:0:2
     RDKit          3D

 73 78  0  0  1  0  0  0  0  0999 V2000
    8.1377   -8.3504    3.3365 C   0  0  0  0  0  0  0  0  0  0  0  0
    7.4138   -7.0739    3.7602 C   0  0  0  0  0  0  0  0  0  0  0  0
    7.8307   -5.9733    3.4085 O   0  0  0  0  0  0  0  0  0  0  0  0
    6.1334   -7.1830    4.6054 C   0  0  2  0  0  0  0  0  0  0  0  0
    6.1765   -8.3159    5.6629 C   0  0  0  0  0  0  0  0  0  0  0  0
    5.7104   -9.7430    5.2577 C   0  0  0  0  0  0  0  0  0  0  0  0
    4.1916  -10.0440    5.0421 C   0  0  1  0  0  0  0  0  0  0  0  0
    3.2279   -9.4291    6.0714 C   0  0  0  0  0  0  0  0  0  0  0  0
    1.8957   -9.2434    5.3507 C   0  0  0  0  0  0  0  0  0  0  0  0
    2.1964   -9.0625    3.8447 C   0  0  1  0  0  0  0  0  0  0  0  0
    1.8478   -7.6614    3.1449 C   0  0  1  0  0  0  0  0  0  0  0  0
    0.3235   -7.4434    3.3324 C   0  0  0  0  0  0  0  0  0  0  0  0
    0.1429   -6.4550    4.4940 C   0  0  0  0  0  0  0  0  0  0  0  0
    1.5397   -5.8955    4.7948 C   0  0  0  0  0  0  0  0  0  0  0  0
    2.3982   -6.2143    3.5609 C   0  0  2  0  0  0  0  0  0  0  0  0
    1.8614   -5.2519    2.6561 O   0  0  0  0  0  0  0  0  0  0  0  0
    2.6421   -5.3062    1.3875 O   0  0  0  0  0  0  0  0  0  0  0  0
    3.8281   -4.5704    1.6234 C   0  0  0  0  0  0  0  0  0  0  0  0
    4.6978   -4.6401    0.3602 C   0  0  0  0  0  0  0  0  0  0  0  0
    4.1258   -3.8199   -0.8100 C   0  0  0  0  0  0  0  0  0  0  0  0
    3.9063   -2.3555   -0.4155 C   0  0  0  0  0  0  0  0  0  0  0  0
    3.0145   -2.2608    0.8346 C   0  0  0  0  0  0  0  0  0  0  0  0
    3.5792   -3.0821    2.0055 C   0  0  0  0  0  0  0  0  0  0  0  0
    4.6162   -5.2196    2.5984 O   0  0  0  0  0  0  0  0  0  0  0  0
    3.9654   -5.8489    3.7057 C   0  0  1  0  0  0  0  0  0  0  0  0
    4.2128   -4.8510    4.8590 C   0  0  0  0  0  0  0  0  0  0  0  0
    4.7822   -7.1471    3.8296 C   0  0  1  0  0  0  0  0  0  0  0  0
    4.8040   -7.8976    2.4635 C   0  0  0  0  0  0  0  0  0  0  0  0
    4.4632   -9.3815    2.4927 C   0  0  0  0  0  0  0  0  0  0  0  0
    3.5300   -9.8769    3.6227 C   0  0  1  0  0  0  0  0  0  0  0  0
    3.1343  -11.3091    3.1813 C   0  0  0  0  0  0  0  0  0  0  0  0
    7.4372   -9.0635    2.9127 H   0  0  0  0  0  0  0  0  0  0  0  0
    8.6282   -8.8153    4.1891 H   0  0  0  0  0  0  0  0  0  0  0  0
    8.8898   -8.1461    2.5744 H   0  0  0  0  0  0  0  0  0  0  0  0
    6.1965   -6.2834    5.2071 H   0  0  0  0  0  0  0  0  0  0  0  0
    7.2021   -8.3933    6.0240 H   0  0  0  0  0  0  0  0  0  0  0  0
    5.6329   -7.9886    6.5477 H   0  0  0  0  0  0  0  0  0  0  0  0
    6.2887  -10.1328    4.4255 H   0  0  0  0  0  0  0  0  0  0  0  0
    6.0234  -10.3840    6.0823 H   0  0  0  0  0  0  0  0  0  0  0  0
    4.1467  -11.1110    5.2625 H   0  0  0  0  0  0  0  0  0  0  0  0
    3.1231  -10.0675    6.9501 H   0  0  0  0  0  0  0  0  0  0  0  0
    3.5558   -8.4593    6.4316 H   0  0  0  0  0  0  0  0  0  0  0  0
    1.3235  -10.1620    5.4709 H   0  0  0  0  0  0  0  0  0  0  0  0
    1.2926   -8.4637    5.8036 H   0  0  0  0  0  0  0  0  0  0  0  0
    1.4435   -9.6868    3.3606 H   0  0  0  0  0  0  0  0  0  0  0  0
    1.9982   -7.7961    2.0757 H   0  0  0  0  0  0  0  0  0  0  0  0
   -0.1002   -7.0121    2.4243 H   0  0  0  0  0  0  0  0  0  0  0  0
   -0.2355   -8.3624    3.5119 H   0  0  0  0  0  0  0  0  0  0  0  0
   -0.5432   -5.6620    4.1956 H   0  0  0  0  0  0  0  0  0  0  0  0
   -0.2937   -6.9331    5.3698 H   0  0  0  0  0  0  0  0  0  0  0  0
    1.4664   -4.8262    5.0032 H   0  0  0  0  0  0  0  0  0  0  0  0
    1.9467   -6.3662    5.6888 H   0  0  0  0  0  0  0  0  0  0  0  0
    5.6924   -4.2569    0.5893 H   0  0  0  0  0  0  0  0  0  0  0  0
    4.8340   -5.6767    0.0464 H   0  0  0  0  0  0  0  0  0  0  0  0
    4.8006   -3.8796   -1.6668 H   0  0  0  0  0  0  0  0  0  0  0  0
    3.1784   -4.2530   -1.1253 H   0  0  0  0  0  0  0  0  0  0  0  0
    4.8662   -1.8641   -0.2284 H   0  0  0  0  0  0  0  0  0  0  0  0
    3.4372   -1.8153   -1.2375 H   0  0  0  0  0  0  0  0  0  0  0  0
    2.9005   -1.2155    1.1231 H   0  0  0  0  0  0  0  0  0  0  0  0
    2.0180   -2.6252    0.5922 H   0  0  0  0  0  0  0  0  0  0  0  0
    2.9163   -2.9777    2.8641 H   0  0  0  0  0  0  0  0  0  0  0  0
    4.5303   -2.6382    2.3088 H   0  0  0  0  0  0  0  0  0  0  0  0
    4.0548   -5.3093    5.8416 H   0  0  0  0  0  0  0  0  0  0  0  0
    3.5586   -3.9834    4.7935 H   0  0  0  0  0  0  0  0  0  0  0  0
    5.2269   -4.4553    4.8325 H   0  0  0  0  0  0  0  0  0  0  0  0
    4.1288   -7.6326    4.5262 H   0  0  0  0  0  0  0  0  0  0  0  0
    4.0887   -7.4480    1.7825 H   0  0  0  0  0  0  0  0  0  0  0  0
    5.7263   -7.7458    1.9083 H   0  0  0  0  0  0  0  0  0  0  0  0
    4.0053   -9.6140    1.5273 H   0  0  0  0  0  0  0  0  0  0  0  0
    5.3744   -9.9772    2.4845 H   0  0  0  0  0  0  0  0  0  0  0  0
    2.6411  -11.2951    2.2137 H   0  0  0  0  0  0  0  0  0  0  0  0
    2.4556  -11.7960    3.8839 H   0  0  0  0  0  0  0  0  0  0  0  0
    4.0051  -11.9538    3.0718 H   0  0  0  0  0  0  0  0  0  0  0  0
  1  2  1  0
  1 32  1  0
  1 33  1  0
  1 34  1  0
  2  3  2  0
  2  4  1  0
  4 27  1  0
  4  5  1  0
  4 35  1  1
  5  6  1  0
  5 36  1  0
  5 37  1  0
  6  7  1  0
  6 38  1  0
  6 39  1  0
  7 30  1  0
  7  8  1  0
  7 40  1  1
  8  9  1  0
  8 41  1  0
  8 42  1  0
  9 10  1  0
  9 43  1  0
  9 44  1  0
 10 30  1  0
 10 11  1  0
 10 45  1  6
 11 15  1  0
 11 12  1  0
 11 46  1  6
 12 13  1  0
 12 47  1  0
 12 48  1  0
 13 14  1  0
 13 49  1  0
 13 50  1  0
 14 15  1  0
 14 51  1  0
 14 52  1  0
 15 25  1  0
 15 16  1  6
 16 17  1  0
 17 18  1  0
 18 23  1  0
 18 19  1  0
 18 24  1  0
 19 20  1  0
 19 53  1  0
 19 54  1  0
 20 21  1  0
 20 55  1  0
 20 56  1  0
 21 22  1  0
 21 57  1  0
 21 58  1  0
 22 23  1  0
 22 59  1  0
 22 60  1  0
 23 61  1  0
 23 62  1  0
 24 25  1  0
 25 26  1  1
 25 27  1  0
 26 63  1  0
 26 64  1  0
 26 65  1  0
 27 28  1  0
 27 66  1  1
 28 29  1  0
 28 67  1  0
 28 68  1  0
 29 30  1  0
 29 69  1  0
 29 70  1  0
 30 31  1  6
 31 71  1  0
 31 72  1  0
 31 73  1  0
M  END
>  <i_m_ct_stereo_status>  (78) 
1

>  <s_m_source_file>  (78) 
/var/tmp/pbs.5076255.sched01/tmp7v4tqmxt/0pyfftbwv.sdf

>  <i_m_source_file_index>  (78) 
31

>  <i_lp_mmshare_version>  (78) 
48012

>  <i_f3d_flags>  (78) 
0

>  <s_epik_input>  (78) 
W0NIMl0xW0NIMl1bQ0gyXVtDSDJdW0NIMl1DMShPTzIpT1tDQF0zKFtDSDNdKVtDQEBIXShbQ0gyXVtDSDJdNClbQ0BIXShDKD1PKVtDSDNdKVtDSDJdW0NIMl1bQ0BASF0oW0NIMl1bQ0gyXTUpW0NAQF00KFtDSDNdKVtDQEBIXTVbQ0BIXShbQ0BdMjM2KVtDSDJdW0NIMl1bQ0gyXTY=

>  <s_epik_cmdline>  (78) 
J2VwaWtfcHl0aG9uJywgJy1waHQnLCAnMi4wJywgJy1waCcsICc3LjAnLCAnLXRuJywgJzgnLCAnLW1hJywgJzIwMCcsICctaW1hZScsICc8aW5maWxlLm1hZT4nLCAnLW9tYWUnLCAnPG91dGZpbGUubWFlPic=

>  <r_lp_tautomer_probability>  (78) 
1

>  <r_epik_Ionization_Penalty>  (78) 
2.7864e-13

>  <r_epik_Ionization_Penalty_Charging>  (78) 
0

>  <r_epik_Ionization_Penalty_Neutral>  (78) 
2.7864e-13

>  <r_epik_State_Penalty>  (78) 
-0

>  <r_epik_Charging_Adjusted_Penalty>  (78) 
0

>  <i_epik_Tot_Q>  (78) 
0

>  <i_epik_Tot_abs_Q>  (78) 
0

>  <s_lp_Force_Field>  (78) 
OPLS3e

>  <r_lp_Energy>  (78) 
102.748

>  <b_lp_Chiralities_Consistent>  (78) 
1

>  <s_lp_Variant>  (78) 
24:0-1

>  <s_i_glide_gridfile>  (78) 
pfpi4k_grid

>  <i_i_glide_lignum>  (78) 
31

>  <i_i_glide_rotatable_bonds>  (78) 
1

>  <r_i_docking_score>  (78) 
-1.80372

>  <r_i_glide_ligand_efficiency>  (78) 
-0.0581846

>  <r_i_glide_ligand_efficiency_sa>  (78) 
-0.18278

>  <r_i_glide_ligand_efficiency_ln>  (78) 
-0.406795

>  <r_i_glide_gscore>  (78) 
-1.80372

>  <r_i_glide_lipo>  (78) 
-0.0501312

>  <r_i_glide_hbond>  (78) 
0

>  <r_i_glide_metal>  (78) 
-0

>  <r_i_glide_rewards>  (78) 
-0.48713

>  <r_i_glide_evdw>  (78) 
-24.0191

>  <r_i_glide_ecoul>  (78) 
-0.430566

>  <r_i_glide_erotb>  (78) 
0

>  <r_i_glide_esite>  (78) 
-0.000919018

>  <r_i_glide_emodel>  (78) 
-27.0528

>  <r_i_glide_energy>  (78) 
-24.4497

>  <r_i_glide_einternal>  (78) 
1.73521

>  <r_i_glide_intrahb_reward>  (78) 
-0

>  <i_i_glide_confnum>  (78) 
2

>  <i_i_glide_posenum>  (78) 
4

>  <r_i_glide_eff_state_penalty>  (78) 
0

>  <ligand_id>  (78) 
24

>  <original_smiles>  (78) 
CC(=O)C1CCC2CCC3C4CCCC45OOC4(CCCCC4)OC5(C)C1CCC23C

>  <smiles>  (78) 
[H]C([H])([H])C(=O)C1([H])C([H])([H])C([H])([H])C2([H])C([H])([H])C([H])([H])C3([H])C4([H])C([H])([H])C([H])([H])C([H])([H])C45OOC4(OC5(C([H])([H])[H])C1([H])C([H])([H])C([H])([H])C23C([H])([H])[H])C([H])([H])C([H])([H])C([H])([H])C([H])([H])C4([H])[H]

$$$$
25:0:0
     RDKit          3D

 36 44  0  0  1  0  0  0  0  0999 V2000
    4.1572   -1.7646   -3.4148 C   0  0  0  0  0  0  0  0  0  0  0  0
    3.7120   -3.0083   -2.7175 C   0  0  1  0  0  0  0  0  0  0  0  0
    5.1437   -2.6292   -2.6350 C   0  0  2  0  0  0  0  0  0  0  0  0
    5.6411   -2.1709   -1.2888 C   0  0  2  0  0  0  0  0  0  0  0  0
    7.0371   -2.6774   -0.9399 C   0  0  0  0  0  0  0  0  0  0  0  0
    6.8825   -3.4298    0.3465 C   0  0  1  0  0  0  0  0  0  0  0  0
    6.2239   -2.4945    1.4485 C   0  0  1  0  0  0  0  0  0  0  0  0
    5.6297   -1.0204    1.2413 C   0  0  0  0  0  0  0  0  0  0  0  0
    4.3106   -0.9925    0.3560 C   0  0  1  0  0  0  0  0  0  0  0  0
    3.1860   -2.0467   -0.2912 C   0  0  1  0  0  0  0  0  0  0  0  0
    2.6958   -3.1798    0.4487 O   0  0  0  0  0  0  0  0  0  0  0  0
    3.0381   -4.2490   -0.5267 C   0  0  2  0  0  0  0  0  0  0  0  0
    4.4143   -5.0013   -0.2161 C   0  0  1  0  0  0  0  0  0  0  0  0
    5.9861   -4.7062    0.1195 C   0  0  1  0  0  0  0  0  0  0  0  0
    4.9371   -4.5097    1.0658 C   0  0  1  0  0  0  0  0  0  0  0  0
    4.9291   -3.0426    1.2286 C   0  0  2  0  0  0  0  0  0  0  0  0
    4.6022   -2.2582   -0.0972 C   0  0  1  0  0  0  0  0  0  0  0  0
    2.9338   -3.0336   -1.4328 C   0  0  2  0  0  0  0  0  0  0  0  0
    3.8019   -0.8219   -2.9921 H   0  0  0  0  0  0  0  0  0  0  0  0
    4.1954   -1.8172   -4.4980 H   0  0  0  0  0  0  0  0  0  0  0  0
    3.4878   -3.8504   -3.3692 H   0  0  0  0  0  0  0  0  0  0  0  0
    5.8401   -3.1982   -3.2512 H   0  0  0  0  0  0  0  0  0  0  0  0
    5.7948   -1.1098   -1.4813 H   0  0  0  0  0  0  0  0  0  0  0  0
    7.4584   -3.3071   -1.7250 H   0  0  0  0  0  0  0  0  0  0  0  0
    7.7282   -1.8530   -0.7833 H   0  0  0  0  0  0  0  0  0  0  0  0
    7.8702   -3.7503    0.6844 H   0  0  0  0  0  0  0  0  0  0  0  0
    6.5799   -2.7014    2.4529 H   0  0  0  0  0  0  0  0  0  0  0  0
    5.4017   -0.5805    2.2159 H   0  0  0  0  0  0  0  0  0  0  0  0
    6.3847   -0.3771    0.7917 H   0  0  0  0  0  0  0  0  0  0  0  0
    4.3005   -0.1005   -0.2618 H   0  0  0  0  0  0  0  0  0  0  0  0
    2.2015   -4.9202   -0.6909 H   0  0  0  0  0  0  0  0  0  0  0  0
    4.3077   -6.0663   -0.3998 H   0  0  0  0  0  0  0  0  0  0  0  0
    6.5620   -5.6172    0.2467 H   0  0  0  0  0  0  0  0  0  0  0  0
    4.8630   -5.1311    1.9488 H   0  0  0  0  0  0  0  0  0  0  0  0
    4.2655   -2.7830    2.0592 H   0  0  0  0  0  0  0  0  0  0  0  0
    1.8782   -2.9656   -1.6978 H   0  0  0  0  0  0  0  0  0  0  0  0
  1  3  1  0
  1  2  1  0
  1 19  1  0
  1 20  1  0
  2 18  1  0
  2  3  1  0
  2 21  1  6
  3  4  1  0
  3 22  1  6
  4 17  1  0
  4  5  1  0
  4 23  1  6
  5  6  1  0
  5 24  1  0
  5 25  1  0
  6 14  1  0
  6  7  1  0
  6 26  1  1
  7 16  1  0
  7  8  1  0
  7 27  1  1
  8  9  1  0
  8 28  1  0
  8 29  1  0
  9 17  1  0
  9 10  1  0
  9 30  1  6
 17 10  1  6
 10 18  1  0
 10 11  1  1
 11 12  1  0
 12 13  1  0
 12 18  1  0
 12 31  1  6
 13 15  1  0
 13 14  1  0
 13 32  1  1
 14 15  1  0
 14 33  1  1
 15 16  1  0
 15 34  1  1
 16 17  1  0
 16 35  1  1
 18 36  1  6
M  END
>  <i_m_ct_stereo_status>  (79) 
1

>  <s_m_source_file>  (79) 
/var/tmp/pbs.5076255.sched01/tmp7v4tqmxt/0pyfftbwv.sdf

>  <i_m_source_file_index>  (79) 
32

>  <i_lp_mmshare_version>  (79) 
48012

>  <i_f3d_flags>  (79) 
0

>  <s_epik_input>  (79) 
W0NAQF0xMjNbQ0BAXTQ1W0NAQEhdNltDQEhdN1tDQEhdKFtDSDJdNylbQ0BIXTNbQ0BIXShPMilbQ0BIXThbQ0BIXTlbQ0BASF0oW0NIMl02KVtDQEBIXShbQ0gyXVtDQEhdMTQpW0NAQEhdNVtDQEBIXTg5

>  <s_epik_cmdline>  (79) 
J2VwaWtfcHl0aG9uJywgJy1waHQnLCAnMi4wJywgJy1waCcsICc3LjAnLCAnLXRuJywgJzgnLCAnLW1hJywgJzIwMCcsICctaW1hZScsICc8aW5maWxlLm1hZT4nLCAnLW9tYWUnLCAnPG91dGZpbGUubWFlPic=

>  <r_lp_tautomer_probability>  (79) 
1

>  <r_epik_Ionization_Penalty>  (79) 
3.96378e-10

>  <r_epik_Ionization_Penalty_Charging>  (79) 
0

>  <r_epik_Ionization_Penalty_Neutral>  (79) 
3.96378e-10

>  <r_epik_State_Penalty>  (79) 
-0

>  <r_epik_Charging_Adjusted_Penalty>  (79) 
0

>  <i_epik_Tot_Q>  (79) 
0

>  <i_epik_Tot_abs_Q>  (79) 
0

>  <s_lp_Force_Field>  (79) 
OPLS3e

>  <r_lp_Energy>  (79) 
214.722

>  <b_lp_Chiralities_Consistent>  (79) 
1

>  <s_lp_Variant>  (79) 
25:0-1

>  <s_i_glide_gridfile>  (79) 
pfpi4k_grid

>  <i_i_glide_lignum>  (79) 
32

>  <i_i_glide_rotatable_bonds>  (79) 
0

>  <r_i_docking_score>  (79) 
-3.69036

>  <r_i_glide_ligand_efficiency>  (79) 
-0.20502

>  <r_i_glide_ligand_efficiency_sa>  (79) 
-0.537304

>  <r_i_glide_ligand_efficiency_ln>  (79) 
-0.948587

>  <r_i_glide_gscore>  (79) 
-3.69036

>  <r_i_glide_lipo>  (79) 
-0.864298

>  <r_i_glide_hbond>  (79) 
0

>  <r_i_glide_metal>  (79) 
-0

>  <r_i_glide_rewards>  (79) 
-1.78415

>  <r_i_glide_evdw>  (79) 
-20.8614

>  <r_i_glide_ecoul>  (79) 
0.00775703

>  <r_i_glide_erotb>  (79) 
0

>  <r_i_glide_esite>  (79) 
0

>  <r_i_glide_emodel>  (79) 
-26.0496

>  <r_i_glide_energy>  (79) 
-20.8536

>  <r_i_glide_einternal>  (79) 
0

>  <r_i_glide_intrahb_reward>  (79) 
-0

>  <i_i_glide_confnum>  (79) 
1

>  <i_i_glide_posenum>  (79) 
19

>  <r_i_glide_eff_state_penalty>  (79) 
0

>  <ligand_id>  (79) 
25

>  <original_smiles>  (79) 
C1C2C1C1CC3C4CC5C67OC(C8C3C8C4C156)C27

>  <smiles>  (79) 
[H]C1([H])C2([H])C1([H])C1([H])C([H])([H])C3([H])C4([H])C([H])([H])C5([H])C67OC([H])(C8([H])C3([H])C8([H])C4([H])C156)C27[H]

$$$$
25:0:1
     RDKit          3D

 36 44  0  0  1  0  0  0  0  0999 V2000
    3.0314   -1.6567   -2.7058 C   0  0  0  0  0  0  0  0  0  0  0  0
    4.4613   -2.0763   -2.5937 C   0  0  1  0  0  0  0  0  0  0  0  0
    3.9553   -1.0499   -1.6345 C   0  0  2  0  0  0  0  0  0  0  0  0
    3.8191   -1.4943   -0.1954 C   0  0  2  0  0  0  0  0  0  0  0  0
    4.2044   -0.4230    0.8251 C   0  0  0  0  0  0  0  0  0  0  0  0
    5.3001   -1.0331    1.6471 C   0  0  1  0  0  0  0  0  0  0  0  0
    4.7959   -2.3886    2.2984 C   0  0  1  0  0  0  0  0  0  0  0  0
    3.4066   -3.1410    2.0054 C   0  0  0  0  0  0  0  0  0  0  0  0
    3.2987   -3.7392    0.5320 C   0  0  1  0  0  0  0  0  0  0  0  0
    4.2714   -4.0355   -0.8061 C   0  0  1  0  0  0  0  0  0  0  0  0
    5.6258   -4.5028   -0.6762 O   0  0  0  0  0  0  0  0  0  0  0  0
    6.3203   -3.4249   -1.4349 C   0  0  2  0  0  0  0  0  0  0  0  0
    6.9531   -2.2984   -0.4989 C   0  0  1  0  0  0  0  0  0  0  0  0
    6.5676   -1.3034    0.7399 C   0  0  1  0  0  0  0  0  0  0  0  0
    6.7615   -2.7065    0.9017 C   0  0  1  0  0  0  0  0  0  0  0  0
    5.4170   -3.1768    1.2768 C   0  0  2  0  0  0  0  0  0  0  0  0
    4.3508   -2.9393    0.1437 C   0  0  1  0  0  0  0  0  0  0  0  0
    4.9225   -3.3766   -2.0233 C   0  0  2  0  0  0  0  0  0  0  0  0
    2.2887   -2.3963   -2.4182 H   0  0  0  0  0  0  0  0  0  0  0  0
    2.7844   -1.0178   -3.5447 H   0  0  0  0  0  0  0  0  0  0  0  0
    5.1082   -1.6902   -3.3710 H   0  0  0  0  0  0  0  0  0  0  0  0
    4.2920   -0.0419   -1.8180 H   0  0  0  0  0  0  0  0  0  0  0  0
    2.7363   -1.5314   -0.0873 H   0  0  0  0  0  0  0  0  0  0  0  0
    4.5341    0.4984    0.3540 H   0  0  0  0  0  0  0  0  0  0  0  0
    3.3458   -0.1758    1.4513 H   0  0  0  0  0  0  0  0  0  0  0  0
    5.5768   -0.3303    2.4366 H   0  0  0  0  0  0  0  0  0  0  0  0
    5.2211   -2.5746    3.2848 H   0  0  0  0  0  0  0  0  0  0  0  0
    3.2778   -3.9581    2.7216 H   0  0  0  0  0  0  0  0  0  0  0  0
    2.5738   -2.4580    2.1848 H   0  0  0  0  0  0  0  0  0  0  0  0
    2.2833   -3.6389    0.1679 H   0  0  0  0  0  0  0  0  0  0  0  0
    7.0294   -3.8196   -2.1627 H   0  0  0  0  0  0  0  0  0  0  0  0
    7.9478   -2.0399   -0.8417 H   0  0  0  0  0  0  0  0  0  0  0  0
    7.4008   -0.6776    1.0382 H   0  0  0  0  0  0  0  0  0  0  0  0
    7.6036   -3.1008    1.4510 H   0  0  0  0  0  0  0  0  0  0  0  0
    5.4817   -4.2198    1.5963 H   0  0  0  0  0  0  0  0  0  0  0  0
    4.9169   -4.1096   -2.8299 H   0  0  0  0  0  0  0  0  0  0  0  0
  1  3  1  0
  1  2  1  0
  1 19  1  0
  1 20  1  0
  2 18  1  0
  2  3  1  0
  2 21  1  6
  3  4  1  0
  3 22  1  1
  4 17  1  0
  4  5  1  0
  4 23  1  1
  5  6  1  0
  5 24  1  0
  5 25  1  0
  6 14  1  0
  6  7  1  0
  6 26  1  1
  7 16  1  0
  7  8  1  0
  7 27  1  1
  8  9  1  0
  8 28  1  0
  8 29  1  0
  9 17  1  0
  9 10  1  0
  9 30  1  6
 17 10  1  6
 10 18  1  0
 10 11  1  1
 11 12  1  0
 12 13  1  0
 12 18  1  0
 12 31  1  6
 13 15  1  0
 13 14  1  0
 13 32  1  6
 14 15  1  0
 14 33  1  1
 15 16  1  0
 15 34  1  1
 16 17  1  0
 16 35  1  1
 18 36  1  6
M  END
>  <i_m_ct_stereo_status>  (80) 
1

>  <s_m_source_file>  (80) 
/var/tmp/pbs.5076255.sched01/tmp7v4tqmxt/0pyfftbwv.sdf

>  <i_m_source_file_index>  (80) 
32

>  <i_lp_mmshare_version>  (80) 
48012

>  <i_f3d_flags>  (80) 
0

>  <s_epik_input>  (80) 
W0NAQF0xMjNbQ0BAXTQ1W0NAQEhdNltDQEhdN1tDQEhdKFtDSDJdNylbQ0BIXTNbQ0BIXShPMilbQ0BIXThbQ0BIXTlbQ0BASF0oW0NIMl02KVtDQEBIXShbQ0gyXVtDQEhdMTQpW0NAQEhdNVtDQEBIXTg5

>  <s_epik_cmdline>  (80) 
J2VwaWtfcHl0aG9uJywgJy1waHQnLCAnMi4wJywgJy1waCcsICc3LjAnLCAnLXRuJywgJzgnLCAnLW1hJywgJzIwMCcsICctaW1hZScsICc8aW5maWxlLm1hZT4nLCAnLW9tYWUnLCAnPG91dGZpbGUubWFlPic=

>  <r_lp_tautomer_probability>  (80) 
1

>  <r_epik_Ionization_Penalty>  (80) 
3.96378e-10

>  <r_epik_Ionization_Penalty_Charging>  (80) 
0

>  <r_epik_Ionization_Penalty_Neutral>  (80) 
3.96378e-10

>  <r_epik_State_Penalty>  (80) 
-0

>  <r_epik_Charging_Adjusted_Penalty>  (80) 
0

>  <i_epik_Tot_Q>  (80) 
0

>  <i_epik_Tot_abs_Q>  (80) 
0

>  <s_lp_Force_Field>  (80) 
OPLS3e

>  <r_lp_Energy>  (80) 
214.722

>  <b_lp_Chiralities_Consistent>  (80) 
1

>  <s_lp_Variant>  (80) 
25:0-1

>  <s_i_glide_gridfile>  (80) 
pfpi4k_grid

>  <i_i_glide_lignum>  (80) 
32

>  <i_i_glide_rotatable_bonds>  (80) 
0

>  <r_i_docking_score>  (80) 
-3.63717

>  <r_i_glide_ligand_efficiency>  (80) 
-0.202065

>  <r_i_glide_ligand_efficiency_sa>  (80) 
-0.529561

>  <r_i_glide_ligand_efficiency_ln>  (80) 
-0.934917

>  <r_i_glide_gscore>  (80) 
-3.63717

>  <r_i_glide_lipo>  (80) 
-0.736979

>  <r_i_glide_hbond>  (80) 
0

>  <r_i_glide_metal>  (80) 
-0

>  <r_i_glide_rewards>  (80) 
-1.78415

>  <r_i_glide_evdw>  (80) 
-20.1347

>  <r_i_glide_ecoul>  (80) 
-0.728706

>  <r_i_glide_erotb>  (80) 
0

>  <r_i_glide_esite>  (80) 
0

>  <r_i_glide_emodel>  (80) 
-25.9474

>  <r_i_glide_energy>  (80) 
-20.8634

>  <r_i_glide_einternal>  (80) 
0

>  <r_i_glide_intrahb_reward>  (80) 
-0

>  <i_i_glide_confnum>  (80) 
2

>  <i_i_glide_posenum>  (80) 
39

>  <r_i_glide_eff_state_penalty>  (80) 
0

>  <ligand_id>  (80) 
25

>  <original_smiles>  (80) 
C1C2C1C1CC3C4CC5C67OC(C8C3C8C4C156)C27

>  <smiles>  (80) 
[H]C1([H])C2([H])C1([H])C1([H])C([H])([H])C3([H])C4([H])C([H])([H])C5([H])C67OC([H])(C8([H])C3([H])C8([H])C4([H])C156)C27[H]

$$$$
25:0:2
     RDKit          3D

 36 44  0  0  1  0  0  0  0  0999 V2000
    4.0588   -2.8407   -3.1855 C   0  0  0  0  0  0  0  0  0  0  0  0
    3.8010   -1.8560   -2.0914 C   0  0  1  0  0  0  0  0  0  0  0  0
    3.5838   -3.2946   -1.8063 C   0  0  2  0  0  0  0  0  0  0  0  0
    4.5557   -3.9609   -0.8630 C   0  0  2  0  0  0  0  0  0  0  0  0
    3.9043   -4.9449    0.1012 C   0  0  0  0  0  0  0  0  0  0  0  0
    4.2328   -4.4550    1.4840 C   0  0  1  0  0  0  0  0  0  0  0  0
    5.8058   -4.3230    1.6538 C   0  0  1  0  0  0  0  0  0  0  0  0
    6.9178   -4.5057    0.5126 C   0  0  0  0  0  0  0  0  0  0  0  0
    6.8815   -3.3587   -0.6007 C   0  0  1  0  0  0  0  0  0  0  0  0
    6.1691   -1.8624   -0.8632 C   0  0  1  0  0  0  0  0  0  0  0  0
    6.0277   -0.8699    0.1781 O   0  0  0  0  0  0  0  0  0  0  0  0
    4.5515   -0.6767    0.0910 C   0  0  2  0  0  0  0  0  0  0  0  0
    3.7116   -1.5315    1.1558 C   0  0  1  0  0  0  0  0  0  0  0  0
    3.5470   -3.0524    1.7397 C   0  0  1  0  0  0  0  0  0  0  0  0
    4.6629   -2.2187    2.0531 C   0  0  1  0  0  0  0  0  0  0  0  0
    5.7780   -2.9203    1.3831 C   0  0  2  0  0  0  0  0  0  0  0  0
    5.6206   -3.0088   -0.1811 C   0  0  1  0  0  0  0  0  0  0  0  0
    4.8802   -1.1605   -1.3135 C   0  0  2  0  0  0  0  0  0  0  0  0
    5.0985   -2.9950   -3.4738 H   0  0  0  0  0  0  0  0  0  0  0  0
    3.3304   -2.8655   -3.9911 H   0  0  0  0  0  0  0  0  0  0  0  0
    2.8953   -1.2581   -2.1916 H   0  0  0  0  0  0  0  0  0  0  0  0
    2.5523   -3.6464   -1.7779 H   0  0  0  0  0  0  0  0  0  0  0  0
    5.0955   -4.6152   -1.5478 H   0  0  0  0  0  0  0  0  0  0  0  0
    2.8268   -5.0205   -0.0469 H   0  0  0  0  0  0  0  0  0  0  0  0
    4.3166   -5.9471   -0.0524 H   0  0  0  0  0  0  0  0  0  0  0  0
    3.8476   -5.1714    2.2108 H   0  0  0  0  0  0  0  0  0  0  0  0
    6.1504   -4.5555    2.6628 H   0  0  0  0  0  0  0  0  0  0  0  0
    7.9101   -4.5163    0.9657 H   0  0  0  0  0  0  0  0  0  0  0  0
    6.7950   -5.4911    0.0613 H   0  0  0  0  0  0  0  0  0  0  0  0
    7.1132   -3.7805   -1.5778 H   0  0  0  0  0  0  0  0  0  0  0  0
    4.2785    0.3719    0.0884 H   0  0  0  0  0  0  0  0  0  0  0  0
    2.9064   -0.9277    1.5656 H   0  0  0  0  0  0  0  0  0  0  0  0
    2.7806   -3.1273    2.5092 H   0  0  0  0  0  0  0  0  0  0  0  0
    4.8146   -1.8581    3.0664 H   0  0  0  0  0  0  0  0  0  0  0  0
    6.7199   -2.4570    1.6938 H   0  0  0  0  0  0  0  0  0  0  0  0
    5.1632   -0.2713   -1.8789 H   0  0  0  0  0  0  0  0  0  0  0  0
  1  3  1  0
  1  2  1  0
  1 19  1  0
  1 20  1  0
  2 18  1  0
  2  3  1  0
  2 21  1  6
  3  4  1  0
  3 22  1  6
  4 17  1  0
  4  5  1  0
  4 23  1  6
  5  6  1  0
  5 24  1  0
  5 25  1  0
  6 14  1  0
  6  7  1  0
  6 26  1  1
  7 16  1  0
  7  8  1  0
  7 27  1  1
  8  9  1  0
  8 28  1  0
  8 29  1  0
  9 17  1  0
  9 10  1  0
  9 30  1  6
 17 10  1  6
 10 18  1  0
 10 11  1  1
 11 12  1  0
 12 13  1  0
 12 18  1  0
 12 31  1  6
 13 15  1  0
 13 14  1  0
 13 32  1  1
 14 15  1  0
 14 33  1  1
 15 16  1  0
 15 34  1  1
 16 17  1  0
 16 35  1  6
 18 36  1  6
M  END
>  <i_m_ct_stereo_status>  (81) 
1

>  <s_m_source_file>  (81) 
/var/tmp/pbs.5076255.sched01/tmp7v4tqmxt/0pyfftbwv.sdf

>  <i_m_source_file_index>  (81) 
32

>  <i_lp_mmshare_version>  (81) 
48012

>  <i_f3d_flags>  (81) 
0

>  <s_epik_input>  (81) 
W0NAQF0xMjNbQ0BAXTQ1W0NAQEhdNltDQEhdN1tDQEhdKFtDSDJdNylbQ0BIXTNbQ0BIXShPMilbQ0BIXThbQ0BIXTlbQ0BASF0oW0NIMl02KVtDQEBIXShbQ0gyXVtDQEhdMTQpW0NAQEhdNVtDQEBIXTg5

>  <s_epik_cmdline>  (81) 
J2VwaWtfcHl0aG9uJywgJy1waHQnLCAnMi4wJywgJy1waCcsICc3LjAnLCAnLXRuJywgJzgnLCAnLW1hJywgJzIwMCcsICctaW1hZScsICc8aW5maWxlLm1hZT4nLCAnLW9tYWUnLCAnPG91dGZpbGUubWFlPic=

>  <r_lp_tautomer_probability>  (81) 
1

>  <r_epik_Ionization_Penalty>  (81) 
3.96378e-10

>  <r_epik_Ionization_Penalty_Charging>  (81) 
0

>  <r_epik_Ionization_Penalty_Neutral>  (81) 
3.96378e-10

>  <r_epik_State_Penalty>  (81) 
-0

>  <r_epik_Charging_Adjusted_Penalty>  (81) 
0

>  <i_epik_Tot_Q>  (81) 
0

>  <i_epik_Tot_abs_Q>  (81) 
0

>  <s_lp_Force_Field>  (81) 
OPLS3e

>  <r_lp_Energy>  (81) 
214.722

>  <b_lp_Chiralities_Consistent>  (81) 
1

>  <s_lp_Variant>  (81) 
25:0-1

>  <s_i_glide_gridfile>  (81) 
pfpi4k_grid

>  <i_i_glide_lignum>  (81) 
32

>  <i_i_glide_rotatable_bonds>  (81) 
0

>  <r_i_docking_score>  (81) 
-3.5655

>  <r_i_glide_ligand_efficiency>  (81) 
-0.198083

>  <r_i_glide_ligand_efficiency_sa>  (81) 
-0.519125

>  <r_i_glide_ligand_efficiency_ln>  (81) 
-0.916494

>  <r_i_glide_gscore>  (81) 
-3.5655

>  <r_i_glide_lipo>  (81) 
-0.663437

>  <r_i_glide_hbond>  (81) 
0

>  <r_i_glide_metal>  (81) 
-0

>  <r_i_glide_rewards>  (81) 
-1.78415

>  <r_i_glide_evdw>  (81) 
-22.4372

>  <r_i_glide_ecoul>  (81) 
0.0263287

>  <r_i_glide_erotb>  (81) 
0

>  <r_i_glide_esite>  (81) 
0

>  <r_i_glide_emodel>  (81) 
-27.4707

>  <r_i_glide_energy>  (81) 
-22.4109

>  <r_i_glide_einternal>  (81) 
0

>  <r_i_glide_intrahb_reward>  (81) 
-0

>  <i_i_glide_confnum>  (81) 
1

>  <i_i_glide_posenum>  (81) 
1

>  <r_i_glide_eff_state_penalty>  (81) 
0

>  <ligand_id>  (81) 
25

>  <original_smiles>  (81) 
C1C2C1C1CC3C4CC5C67OC(C8C3C8C4C156)C27

>  <smiles>  (81) 
[H]C1([H])C2([H])C1([H])C1([H])C([H])([H])C3([H])C4([H])C([H])([H])C5([H])C67OC([H])(C8([H])C3([H])C8([H])C4([H])C156)C27[H]

$$$$
26:0:0
     RDKit          3D

 19 21  0  0  1  0  0  0  0  0999 V2000
   -1.2960   -8.4235    2.9141 C   0  0  0  0  0  0  0  0  0  0  0  0
   -0.5585   -7.7445    1.9867 C   0  0  0  0  0  0  0  0  0  0  0  0
    0.5681   -6.6522    2.7264 S   0  0  0  0  0  0  0  0  0  0  0  0
   -0.0206   -7.0678    4.3170 C   0  0  0  0  0  0  0  0  0  0  0  0
    0.5773   -6.4479    5.5451 C   0  0  0  0  0  0  0  0  0  0  0  0
   -0.0543   -5.1966    5.9426 N   0  0  0  0  0  0  0  0  0  0  0  0
   -0.9802   -5.0548    6.9464 N   0  0  0  0  0  0  0  0  0  0  0  0
   -1.3037   -3.7726    7.0321 N   0  0  0  0  0  0  0  0  0  0  0  0
   -0.5631   -3.0909    6.0697 C   0  0  0  0  0  0  0  0  0  0  0  0
   -0.5025   -1.8409    5.6938 N   0  0  0  0  0  0  0  0  0  0  0  0
    0.6299   -1.9092    4.4324 S   0  0  0  0  0  0  0  0  0  0  0  0
    0.9801   -3.5631    4.4281 N   0  0  0  0  0  0  0  0  0  0  0  0
    0.2156   -4.0029    5.3938 C   0  0  0  0  0  0  0  0  0  0  0  0
   -0.9847   -8.0428    4.2479 C   0  0  0  0  0  0  0  0  0  0  0  0
   -2.0218   -9.1875    2.6940 H   0  0  0  0  0  0  0  0  0  0  0  0
   -0.5777   -7.8612    0.9138 H   0  0  0  0  0  0  0  0  0  0  0  0
    0.4648   -7.1449    6.3756 H   0  0  0  0  0  0  0  0  0  0  0  0
    1.6511   -6.2947    5.4133 H   0  0  0  0  0  0  0  0  0  0  0  0
   -1.4563   -8.5267    5.0935 H   0  0  0  0  0  0  0  0  0  0  0  0
  1 14  1  0
  1  2  2  0
  1 15  1  0
  2  3  1  0
  2 16  1  0
  3  4  1  0
  4  5  1  0
  4 14  2  0
  5  6  1  0
  5 17  1  0
  5 18  1  0
  6 13  1  0
  6  7  1  0
  7  8  2  0
  8  9  1  0
  9 13  1  0
  9 10  2  0
 10 11  1  0
 11 12  1  0
 12 13  2  0
 14 19  1  0
M  END
>  <i_m_ct_stereo_status>  (82) 
1

>  <s_m_source_file>  (82) 
/var/tmp/pbs.5076255.sched01/tmp7v4tqmxt/0pyfftbwv.sdf

>  <i_m_source_file_index>  (82) 
33

>  <i_lp_mmshare_version>  (82) 
48012

>  <i_f3d_flags>  (82) 
0

>  <s_epik_input>  (82) 
W2NIXTFbY0hdW2NIXXNjMVtDSDJdbihubjIpYyhjMjMpbnNuMw==

>  <s_epik_cmdline>  (82) 
J2VwaWtfcHl0aG9uJywgJy1waHQnLCAnMi4wJywgJy1waCcsICc3LjAnLCAnLXRuJywgJzgnLCAnLW1hJywgJzIwMCcsICctaW1hZScsICc8aW5maWxlLm1hZT4nLCAnLW9tYWUnLCAnPG91dGZpbGUubWFlPic=

>  <r_lp_tautomer_probability>  (82) 
1

>  <r_epik_Ionization_Penalty>  (82) 
5.06047e-10

>  <r_epik_Ionization_Penalty_Charging>  (82) 
0

>  <r_epik_Ionization_Penalty_Neutral>  (82) 
5.06047e-10

>  <r_epik_State_Penalty>  (82) 
-0

>  <r_epik_Charging_Adjusted_Penalty>  (82) 
0

>  <i_epik_Tot_Q>  (82) 
0

>  <i_epik_Tot_abs_Q>  (82) 
0

>  <s_lp_Force_Field>  (82) 
OPLS3e

>  <r_lp_Energy>  (82) 
5.11258

>  <b_lp_Chiralities_Consistent>  (82) 
1

>  <s_lp_Variant>  (82) 
26:0-1

>  <s_i_glide_gridfile>  (82) 
pfpi4k_grid

>  <i_i_glide_lignum>  (82) 
33

>  <i_i_glide_rotatable_bonds>  (82) 
2

>  <r_i_docking_score>  (82) 
-2.62925

>  <r_i_glide_ligand_efficiency>  (82) 
-0.187803

>  <r_i_glide_ligand_efficiency_sa>  (82) 
-0.452632

>  <r_i_glide_ligand_efficiency_ln>  (82) 
-0.722507

>  <r_i_glide_gscore>  (82) 
-2.62925

>  <r_i_glide_lipo>  (82) 
-0.0140868

>  <r_i_glide_hbond>  (82) 
0

>  <r_i_glide_metal>  (82) 
-0

>  <r_i_glide_rewards>  (82) 
-1.88673

>  <r_i_glide_evdw>  (82) 
-19.5772

>  <r_i_glide_ecoul>  (82) 
-2.42822

>  <r_i_glide_erotb>  (82) 
0.678839

>  <r_i_glide_esite>  (82) 
-0.0641782

>  <r_i_glide_emodel>  (82) 
-25.9305

>  <r_i_glide_energy>  (82) 
-22.0054

>  <r_i_glide_einternal>  (82) 
0.130198

>  <r_i_glide_intrahb_reward>  (82) 
-0

>  <i_i_glide_confnum>  (82) 
4

>  <i_i_glide_posenum>  (82) 
27

>  <r_i_glide_eff_state_penalty>  (82) 
0

>  <ligand_id>  (82) 
26

>  <original_smiles>  (82) 
c1csc(Cn2nnc3nsnc32)c1

>  <smiles>  (82) 
[H]c1sc(C([H])([H])n2nnc3nsnc32)c([H])c1[H]

$$$$
26:0:1
     RDKit          3D

 19 21  0  0  1  0  0  0  0  0999 V2000
   -1.6087   -8.5834    3.3861 C   0  0  0  0  0  0  0  0  0  0  0  0
   -1.3719   -7.4179    4.0531 C   0  0  0  0  0  0  0  0  0  0  0  0
    0.2716   -6.8880    3.8319 S   0  0  0  0  0  0  0  0  0  0  0  0
    0.5963   -8.2245    2.7461 C   0  0  0  0  0  0  0  0  0  0  0  0
    1.9269   -8.3442    2.0603 C   0  0  0  0  0  0  0  0  0  0  0  0
    2.3196   -7.0974    1.4079 N   0  0  0  0  0  0  0  0  0  0  0  0
    1.4775   -6.2263    0.7621 N   0  0  0  0  0  0  0  0  0  0  0  0
    2.1878   -5.1937    0.3351 N   0  0  0  0  0  0  0  0  0  0  0  0
    3.5225   -5.4696    0.6226 C   0  0  0  0  0  0  0  0  0  0  0  0
    4.6457   -4.8486    0.4019 N   0  0  0  0  0  0  0  0  0  0  0  0
    5.7846   -5.9243    1.0457 S   0  0  0  0  0  0  0  0  0  0  0  0
    4.7566   -7.1475    1.5918 N   0  0  0  0  0  0  0  0  0  0  0  0
    3.5825   -6.6844    1.2790 C   0  0  0  0  0  0  0  0  0  0  0  0
   -0.4904   -9.0491    2.6451 C   0  0  0  0  0  0  0  0  0  0  0  0
   -2.5358   -9.1372    3.4320 H   0  0  0  0  0  0  0  0  0  0  0  0
   -2.0308   -6.8744    4.7099 H   0  0  0  0  0  0  0  0  0  0  0  0
    2.6912   -8.6564    2.7743 H   0  0  0  0  0  0  0  0  0  0  0  0
    1.8854   -9.1044    1.2843 H   0  0  0  0  0  0  0  0  0  0  0  0
   -0.5335   -9.9728    2.0714 H   0  0  0  0  0  0  0  0  0  0  0  0
  1 14  1  0
  1  2  2  0
  1 15  1  0
  2  3  1  0
  2 16  1  0
  3  4  1  0
  4  5  1  0
  4 14  2  0
  5  6  1  0
  5 17  1  0
  5 18  1  0
  6 13  1  0
  6  7  1  0
  7  8  2  0
  8  9  1  0
  9 13  1  0
  9 10  2  0
 10 11  1  0
 11 12  1  0
 12 13  2  0
 14 19  1  0
M  END
>  <i_m_ct_stereo_status>  (83) 
1

>  <s_m_source_file>  (83) 
/var/tmp/pbs.5076255.sched01/tmp7v4tqmxt/0pyfftbwv.sdf

>  <i_m_source_file_index>  (83) 
33

>  <i_lp_mmshare_version>  (83) 
48012

>  <i_f3d_flags>  (83) 
0

>  <s_epik_input>  (83) 
W2NIXTFbY0hdW2NIXXNjMVtDSDJdbihubjIpYyhjMjMpbnNuMw==

>  <s_epik_cmdline>  (83) 
J2VwaWtfcHl0aG9uJywgJy1waHQnLCAnMi4wJywgJy1waCcsICc3LjAnLCAnLXRuJywgJzgnLCAnLW1hJywgJzIwMCcsICctaW1hZScsICc8aW5maWxlLm1hZT4nLCAnLW9tYWUnLCAnPG91dGZpbGUubWFlPic=

>  <r_lp_tautomer_probability>  (83) 
1

>  <r_epik_Ionization_Penalty>  (83) 
5.06047e-10

>  <r_epik_Ionization_Penalty_Charging>  (83) 
0

>  <r_epik_Ionization_Penalty_Neutral>  (83) 
5.06047e-10

>  <r_epik_State_Penalty>  (83) 
-0

>  <r_epik_Charging_Adjusted_Penalty>  (83) 
0

>  <i_epik_Tot_Q>  (83) 
0

>  <i_epik_Tot_abs_Q>  (83) 
0

>  <s_lp_Force_Field>  (83) 
OPLS3e

>  <r_lp_Energy>  (83) 
5.11258

>  <b_lp_Chiralities_Consistent>  (83) 
1

>  <s_lp_Variant>  (83) 
26:0-1

>  <s_i_glide_gridfile>  (83) 
pfpi4k_grid

>  <i_i_glide_lignum>  (83) 
33

>  <i_i_glide_rotatable_bonds>  (83) 
2

>  <r_i_docking_score>  (83) 
-2.59636

>  <r_i_glide_ligand_efficiency>  (83) 
-0.185454

>  <r_i_glide_ligand_efficiency_sa>  (83) 
-0.446971

>  <r_i_glide_ligand_efficiency_ln>  (83) 
-0.713471

>  <r_i_glide_gscore>  (83) 
-2.59636

>  <r_i_glide_lipo>  (83) 
-0.084406

>  <r_i_glide_hbond>  (83) 
0

>  <r_i_glide_metal>  (83) 
-0

>  <r_i_glide_rewards>  (83) 
-1.97566

>  <r_i_glide_evdw>  (83) 
-20.7524

>  <r_i_glide_ecoul>  (83) 
-0.13687

>  <r_i_glide_erotb>  (83) 
0.678839

>  <r_i_glide_esite>  (83) 
-0.156981

>  <r_i_glide_emodel>  (83) 
-23.9013

>  <r_i_glide_energy>  (83) 
-20.8892

>  <r_i_glide_einternal>  (83) 
1.48524

>  <r_i_glide_intrahb_reward>  (83) 
-0

>  <i_i_glide_confnum>  (83) 
6

>  <i_i_glide_posenum>  (83) 
4

>  <r_i_glide_eff_state_penalty>  (83) 
0

>  <ligand_id>  (83) 
26

>  <original_smiles>  (83) 
c1csc(Cn2nnc3nsnc32)c1

>  <smiles>  (83) 
[H]c1sc(C([H])([H])n2nnc3nsnc32)c([H])c1[H]

$$$$
26:0:2
     RDKit          3D

 19 21  0  0  1  0  0  0  0  0999 V2000
   -1.0695   -7.0678    4.4043 C   0  0  0  0  0  0  0  0  0  0  0  0
   -1.8551   -7.8615    3.6200 C   0  0  0  0  0  0  0  0  0  0  0  0
   -0.9076   -8.7750    2.4798 S   0  0  0  0  0  0  0  0  0  0  0  0
    0.5659   -8.0388    3.0686 C   0  0  0  0  0  0  0  0  0  0  0  0
    1.8900   -8.3382    2.4391 C   0  0  0  0  0  0  0  0  0  0  0  0
    2.3969   -7.1914    1.6949 N   0  0  0  0  0  0  0  0  0  0  0  0
    1.6392   -6.2880    0.9884 N   0  0  0  0  0  0  0  0  0  0  0  0
    2.4532   -5.3854    0.4614 N   0  0  0  0  0  0  0  0  0  0  0  0
    3.7535   -5.7653    0.7843 C   0  0  0  0  0  0  0  0  0  0  0  0
    4.9363   -5.2635    0.5399 N   0  0  0  0  0  0  0  0  0  0  0  0
    5.9602   -6.3594    1.3264 S   0  0  0  0  0  0  0  0  0  0  0  0
    4.8193   -7.4408    1.9473 N   0  0  0  0  0  0  0  0  0  0  0  0
    3.6946   -6.9097    1.5483 C   0  0  0  0  0  0  0  0  0  0  0  0
    0.3131   -7.1679    4.0914 C   0  0  0  0  0  0  0  0  0  0  0  0
   -1.4289   -6.4302    5.1980 H   0  0  0  0  0  0  0  0  0  0  0  0
   -2.9258   -7.9964    3.6674 H   0  0  0  0  0  0  0  0  0  0  0  0
    2.6112   -8.6526    3.2005 H   0  0  0  0  0  0  0  0  0  0  0  0
    1.7908   -9.1658    1.7433 H   0  0  0  0  0  0  0  0  0  0  0  0
    1.0736   -6.5982    4.6094 H   0  0  0  0  0  0  0  0  0  0  0  0
  1 14  1  0
  1  2  2  0
  1 15  1  0
  2  3  1  0
  2 16  1  0
  3  4  1  0
  4  5  1  0
  4 14  2  0
  5  6  1  0
  5 17  1  0
  5 18  1  0
  6 13  1  0
  6  7  1  0
  7  8  2  0
  8  9  1  0
  9 13  1  0
  9 10  2  0
 10 11  1  0
 11 12  1  0
 12 13  2  0
 14 19  1  0
M  END
>  <i_m_ct_stereo_status>  (84) 
1

>  <s_m_source_file>  (84) 
/var/tmp/pbs.5076255.sched01/tmp7v4tqmxt/0pyfftbwv.sdf

>  <i_m_source_file_index>  (84) 
33

>  <i_lp_mmshare_version>  (84) 
48012

>  <i_f3d_flags>  (84) 
0

>  <s_epik_input>  (84) 
W2NIXTFbY0hdW2NIXXNjMVtDSDJdbihubjIpYyhjMjMpbnNuMw==

>  <s_epik_cmdline>  (84) 
J2VwaWtfcHl0aG9uJywgJy1waHQnLCAnMi4wJywgJy1waCcsICc3LjAnLCAnLXRuJywgJzgnLCAnLW1hJywgJzIwMCcsICctaW1hZScsICc8aW5maWxlLm1hZT4nLCAnLW9tYWUnLCAnPG91dGZpbGUubWFlPic=

>  <r_lp_tautomer_probability>  (84) 
1

>  <r_epik_Ionization_Penalty>  (84) 
5.06047e-10

>  <r_epik_Ionization_Penalty_Charging>  (84) 
0

>  <r_epik_Ionization_Penalty_Neutral>  (84) 
5.06047e-10

>  <r_epik_State_Penalty>  (84) 
-0

>  <r_epik_Charging_Adjusted_Penalty>  (84) 
0

>  <i_epik_Tot_Q>  (84) 
0

>  <i_epik_Tot_abs_Q>  (84) 
0

>  <s_lp_Force_Field>  (84) 
OPLS3e

>  <r_lp_Energy>  (84) 
5.11258

>  <b_lp_Chiralities_Consistent>  (84) 
1

>  <s_lp_Variant>  (84) 
26:0-1

>  <s_i_glide_gridfile>  (84) 
pfpi4k_grid

>  <i_i_glide_lignum>  (84) 
33

>  <i_i_glide_rotatable_bonds>  (84) 
2

>  <r_i_docking_score>  (84) 
-2.5095

>  <r_i_glide_ligand_efficiency>  (84) 
-0.17925

>  <r_i_glide_ligand_efficiency_sa>  (84) 
-0.432018

>  <r_i_glide_ligand_efficiency_ln>  (84) 
-0.689601

>  <r_i_glide_gscore>  (84) 
-2.5095

>  <r_i_glide_lipo>  (84) 
-0.094746

>  <r_i_glide_hbond>  (84) 
0

>  <r_i_glide_metal>  (84) 
-0

>  <r_i_glide_rewards>  (84) 
-2.0104

>  <r_i_glide_evdw>  (84) 
-21.5785

>  <r_i_glide_ecoul>  (84) 
0.756679

>  <r_i_glide_erotb>  (84) 
0.678839

>  <r_i_glide_esite>  (84) 
-0.117772

>  <r_i_glide_emodel>  (84) 
-24.0019

>  <r_i_glide_energy>  (84) 
-20.8218

>  <r_i_glide_einternal>  (84) 
1.21476

>  <r_i_glide_intrahb_reward>  (84) 
-0

>  <i_i_glide_confnum>  (84) 
5

>  <i_i_glide_posenum>  (84) 
32

>  <r_i_glide_eff_state_penalty>  (84) 
0

>  <ligand_id>  (84) 
26

>  <original_smiles>  (84) 
c1csc(Cn2nnc3nsnc32)c1

>  <smiles>  (84) 
[H]c1sc(C([H])([H])n2nnc3nsnc32)c([H])c1[H]

$$$$
28:0:0
     RDKit          3D

 58 62  0  0  1  0  0  0  0  0999 V2000
    5.1876   -4.7389    2.8129 C   0  0  0  0  0  0  0  0  0  0  0  0
    4.6433   -3.7905    1.7222 C   0  0  1  0  0  0  0  0  0  0  0  0
    5.6667   -3.6297    0.5589 C   0  0  0  0  0  0  0  0  0  0  0  0
    5.0771   -2.6723   -0.5234 C   0  0  1  0  0  0  0  0  0  0  0  0
    4.7383   -3.3697   -1.7094 O   0  0  0  0  0  0  0  0  0  0  0  0
    3.8357   -1.9467    0.0771 C   0  0  1  0  0  0  0  0  0  0  0  0
    2.7643   -2.9886    0.6367 C   0  0  1  0  0  0  0  0  0  0  0  0
    3.4430   -4.2985    0.9361 C   0  0  0  0  0  0  0  0  0  0  0  0
    2.6623   -5.2950    1.3639 C   0  0  0  0  0  0  0  0  0  0  0  0
    2.0987   -5.0900    2.5907 O   0  0  0  0  0  0  0  0  0  0  0  0
    1.8717   -3.7579    3.0133 C   0  0  1  0  0  0  0  0  0  0  0  0
    2.2482   -3.5670    4.3431 O   0  0  0  0  0  0  0  0  0  0  0  0
    1.3972   -4.1872    5.2888 C   0  0  2  0  0  0  0  0  0  0  0  0
    0.1043   -3.6147    5.3314 O   0  0  0  0  0  0  0  0  0  0  0  0
    0.0918   -2.2160    5.6660 C   0  0  1  0  0  0  0  0  0  0  0  0
   -1.3583   -1.7112    5.5154 C   0  0  0  0  0  0  0  0  0  0  0  0
   -1.5355   -0.3842    6.0014 O   0  0  0  0  0  0  0  0  0  0  0  0
    0.6695   -2.0560    7.0921 C   0  0  1  0  0  0  0  0  0  0  0  0
   -0.1965   -2.6558    8.0507 O   0  0  0  0  0  0  0  0  0  0  0  0
    2.0690   -2.6903    7.1800 C   0  0  1  0  0  0  0  0  0  0  0  0
    2.6159   -2.5518    8.4943 O   0  0  0  0  0  0  0  0  0  0  0  0
    2.0423   -4.1562    6.6914 C   0  0  1  0  0  0  0  0  0  0  0  0
    1.2869   -5.0058    7.5643 O   0  0  0  0  0  0  0  0  0  0  0  0
    2.5453   -2.6376    2.1164 C   0  0  1  0  0  0  0  0  0  0  0  0
    4.0500   -2.4356    2.3351 C   0  0  2  0  0  0  0  0  0  0  0  0
    4.2945   -1.2206    1.3804 C   0  0  0  0  0  0  0  0  0  0  0  0
    5.7401   -0.6597    1.4837 C   0  0  0  0  0  0  0  0  0  0  0  0
    3.4125    0.0460    1.6131 C   0  0  0  0  0  0  0  0  0  0  0  0
    6.0835   -4.3072    3.2570 H   0  0  0  0  0  0  0  0  0  0  0  0
    5.4583   -5.7159    2.4047 H   0  0  0  0  0  0  0  0  0  0  0  0
    4.4716   -4.8928    3.6225 H   0  0  0  0  0  0  0  0  0  0  0  0
    6.6388   -3.3035    0.9242 H   0  0  0  0  0  0  0  0  0  0  0  0
    5.8710   -4.6078    0.1115 H   0  0  0  0  0  0  0  0  0  0  0  0
    5.8398   -1.9492   -0.8126 H   0  0  0  0  0  0  0  0  0  0  0  0
    4.0611   -4.0017   -1.5164 H   0  0  0  0  0  0  0  0  0  0  0  0
    3.3955   -1.2471   -0.6360 H   0  0  0  0  0  0  0  0  0  0  0  0
    1.8690   -3.0941    0.0309 H   0  0  0  0  0  0  0  0  0  0  0  0
    1.8074   -5.4943    0.7326 H   0  0  0  0  0  0  0  0  0  0  0  0
    0.7944   -3.6157    2.9480 H   0  0  0  0  0  0  0  0  0  0  0  0
    1.2644   -5.2193    4.9507 H   0  0  0  0  0  0  0  0  0  0  0  0
    0.7180   -1.6792    4.9475 H   0  0  0  0  0  0  0  0  0  0  0  0
   -1.6645   -1.7456    4.4701 H   0  0  0  0  0  0  0  0  0  0  0  0
   -2.0469   -2.3680    6.0519 H   0  0  0  0  0  0  0  0  0  0  0  0
   -0.9392    0.2052    5.5139 H   0  0  0  0  0  0  0  0  0  0  0  0
    0.7490   -0.9920    7.3165 H   0  0  0  0  0  0  0  0  0  0  0  0
   -0.0762   -3.6147    7.9642 H   0  0  0  0  0  0  0  0  0  0  0  0
    2.7167   -2.1281    6.4993 H   0  0  0  0  0  0  0  0  0  0  0  0
    3.4891   -2.9660    8.5377 H   0  0  0  0  0  0  0  0  0  0  0  0
    3.0584   -4.5447    6.6289 H   0  0  0  0  0  0  0  0  0  0  0  0
    1.4562   -5.9284    7.3226 H   0  0  0  0  0  0  0  0  0  0  0  0
    1.9289   -1.7603    2.2799 H   0  0  0  0  0  0  0  0  0  0  0  0
    4.3298   -2.2431    3.3733 H   0  0  0  0  0  0  0  0  0  0  0  0
    5.8144    0.0221    2.3303 H   0  0  0  0  0  0  0  0  0  0  0  0
    6.0085   -0.0976    0.5910 H   0  0  0  0  0  0  0  0  0  0  0  0
    6.5099   -1.4010    1.6674 H   0  0  0  0  0  0  0  0  0  0  0  0
    3.3291    0.2860    2.6760 H   0  0  0  0  0  0  0  0  0  0  0  0
    2.4079   -0.0428    1.1962 H   0  0  0  0  0  0  0  0  0  0  0  0
    3.8352    0.9170    1.1083 H   0  0  0  0  0  0  0  0  0  0  0  0
  2  1  1  1
  1 29  1  0
  1 30  1  0
  1 31  1  0
  2  8  1  0
  2 25  1  0
  2  3  1  0
  3  4  1  0
  3 32  1  0
  3 33  1  0
  4  5  1  0
  4  6  1  0
  4 34  1  6
  5 35  1  0
  6 26  1  0
  6  7  1  0
  6 36  1  6
  7 24  1  0
  7  8  1  0
  7 37  1  6
  8  9  2  0
  9 10  1  0
  9 38  1  0
 10 11  1  0
 11 12  1  0
 11 24  1  0
 11 39  1  1
 12 13  1  0
 13 22  1  0
 13 14  1  0
 13 40  1  6
 14 15  1  0
 15 16  1  0
 15 18  1  0
 15 41  1  6
 16 17  1  0
 16 42  1  0
 16 43  1  0
 17 44  1  0
 18 19  1  0
 18 20  1  0
 18 45  1  1
 19 46  1  0
 20 21  1  0
 20 22  1  0
 20 47  1  6
 21 48  1  0
 22 23  1  0
 22 49  1  6
 23 50  1  0
 24 25  1  0
 24 51  1  6
 25 26  1  0
 25 52  1  1
 26 27  1  0
 26 28  1  0
 27 53  1  0
 27 54  1  0
 27 55  1  0
 28 56  1  0
 28 57  1  0
 28 58  1  0
M  END
>  <i_m_ct_stereo_status>  (85) 
1

>  <s_m_source_file>  (85) 
/var/tmp/pbs.5076255.sched01/tmp7v4tqmxt/0pyfftbwv.sdf

>  <i_m_source_file_index>  (85) 
35

>  <i_lp_mmshare_version>  (85) 
48012

>  <i_f3d_flags>  (85) 
0

>  <s_epik_input>  (85) 
W0NIM11bQ0BdMTJDPTNbQ0BASF00W0NASF0oW0NAQEhdKFtDSDJdMSlbT0hdKUMoW0NIM10pKFtDSDNdKVtDQEhdMltDQEBIXTRbQ0BASF0oT1tDSF0zKU9bQ0BASF01T1tDQEBIXShbQ0gyXVtPSF0pW0NAQEhdKFtPSF0pW0NAQEhdKFtPSF0pW0NASF01W09IXQ==

>  <s_epik_cmdline>  (85) 
J2VwaWtfcHl0aG9uJywgJy1waHQnLCAnMi4wJywgJy1waCcsICc3LjAnLCAnLXRuJywgJzgnLCAnLW1hJywgJzIwMCcsICctaW1hZScsICc8aW5maWxlLm1hZT4nLCAnLW9tYWUnLCAnPG91dGZpbGUubWFlPic=

>  <r_lp_tautomer_probability>  (85) 
1

>  <r_epik_Ionization_Penalty>  (85) 
3.96094e-06

>  <r_epik_Ionization_Penalty_Charging>  (85) 
0

>  <r_epik_Ionization_Penalty_Neutral>  (85) 
3.96094e-06

>  <r_epik_State_Penalty>  (85) 
-0

>  <r_epik_Charging_Adjusted_Penalty>  (85) 
0

>  <i_epik_Tot_Q>  (85) 
0

>  <i_epik_Tot_abs_Q>  (85) 
0

>  <s_epik_Chemistry_Notes>  (85) 
This compound contains an acetal/aminal-like group ( X-CH(R)-Y where X, Y are N, S, or O) that may be acid/base labile, releasing an aldehyde.

>  <s_lp_Force_Field>  (85) 
OPLS3e

>  <r_lp_Energy>  (85) 
129.924

>  <b_lp_Chiralities_Consistent>  (85) 
1

>  <s_lp_Variant>  (85) 
28:0-1

>  <s_i_glide_gridfile>  (85) 
pfpi4k_grid

>  <i_i_glide_lignum>  (85) 
35

>  <i_i_glide_rotatable_bonds>  (85) 
8

>  <r_i_docking_score>  (85) 
-3.20012

>  <r_i_glide_ligand_efficiency>  (85) 
-0.11429

>  <r_i_glide_ligand_efficiency_sa>  (85) 
-0.347052

>  <r_i_glide_ligand_efficiency_ln>  (85) 
-0.738682

>  <r_i_glide_gscore>  (85) 
-3.20012

>  <r_i_glide_lipo>  (85) 
-0.216996

>  <r_i_glide_hbond>  (85) 
0

>  <r_i_glide_metal>  (85) 
-0

>  <r_i_glide_rewards>  (85) 
-1.19322

>  <r_i_glide_evdw>  (85) 
-19.0299

>  <r_i_glide_ecoul>  (85) 
-8.04811

>  <r_i_glide_erotb>  (85) 
0.370081

>  <r_i_glide_esite>  (85) 
-0.00127035

>  <r_i_glide_emodel>  (85) 
-37.577

>  <r_i_glide_energy>  (85) 
-27.0781

>  <r_i_glide_einternal>  (85) 
0.770112

>  <r_i_glide_intrahb_reward>  (85) 
-0.5

>  <i_i_glide_confnum>  (85) 
2

>  <i_i_glide_posenum>  (85) 
36

>  <r_i_glide_eff_state_penalty>  (85) 
0

>  <ligand_id>  (85) 
28

>  <original_smiles>  (85) 
CC12CC(O)C3C4C1=COC(OC1OC(CO)C(O)C(O)C1O)C4C2C3(C)C

>  <smiles>  (85) 
[H]OC([H])([H])C1([H])OC([H])(OC2([H])OC([H])=C3C4([H])C2([H])C2([H])C3(C([H])([H])[H])C([H])([H])C([H])(O[H])C4([H])C2(C([H])([H])[H])C([H])([H])[H])C([H])(O[H])C([H])(O[H])C1([H])O[H]

$$$$
28:0:1
     RDKit          3D

 58 62  0  0  1  0  0  0  0  0999 V2000
    5.2591   -0.3051    1.3983 C   0  0  0  0  0  0  0  0  0  0  0  0
    5.0336   -1.7687    0.9847 C   0  0  1  0  0  0  0  0  0  0  0  0
    6.2103   -2.2587    0.0963 C   0  0  0  0  0  0  0  0  0  0  0  0
    5.9550   -3.7397   -0.3018 C   0  0  1  0  0  0  0  0  0  0  0  0
    6.8449   -4.6027    0.3850 O   0  0  0  0  0  0  0  0  0  0  0  0
    4.4711   -4.0962    0.0195 C   0  0  1  0  0  0  0  0  0  0  0  0
    4.1227   -3.8011    1.5484 C   0  0  1  0  0  0  0  0  0  0  0  0
    5.0981   -2.8088    2.0892 C   0  0  0  0  0  0  0  0  0  0  0  0
    4.9983   -2.5136    3.3719 C   0  0  0  0  0  0  0  0  0  0  0  0
    3.8462   -1.8542    3.6750 O   0  0  0  0  0  0  0  0  0  0  0  0
    2.6942   -2.0057    2.8707 C   0  0  1  0  0  0  0  0  0  0  0  0
    2.0997   -0.7913    2.5428 O   0  0  0  0  0  0  0  0  0  0  0  0
    1.9425    0.1164    3.6244 C   0  0  2  0  0  0  0  0  0  0  0  0
    1.1938   -0.3745    4.7166 O   0  0  0  0  0  0  0  0  0  0  0  0
   -0.1763   -0.6791    4.4516 C   0  0  1  0  0  0  0  0  0  0  0  0
   -0.7836   -1.3017    5.7286 C   0  0  0  0  0  0  0  0  0  0  0  0
   -2.1823   -1.4683    5.5892 O   0  0  0  0  0  0  0  0  0  0  0  0
   -0.8786    0.6227    3.9901 C   0  0  1  0  0  0  0  0  0  0  0  0
   -1.1514    1.5129    5.0803 O   0  0  0  0  0  0  0  0  0  0  0  0
   -0.1140    1.3123    2.8448 C   0  0  1  0  0  0  0  0  0  0  0  0
   -0.7367    2.5507    2.5162 O   0  0  0  0  0  0  0  0  0  0  0  0
    1.3928    1.4445    3.0920 C   0  0  1  0  0  0  0  0  0  0  0  0
    1.7080    2.4763    4.0414 O   0  0  0  0  0  0  0  0  0  0  0  0
    2.9339   -2.8241    1.5374 C   0  0  1  0  0  0  0  0  0  0  0  0
    3.5652   -2.0029    0.3998 C   0  0  2  0  0  0  0  0  0  0  0  0
    3.5663   -3.0711   -0.7293 C   0  0  0  0  0  0  0  0  0  0  0  0
    4.0248   -2.5013   -2.0953 C   0  0  0  0  0  0  0  0  0  0  0  0
    2.2119   -3.7604   -1.0635 C   0  0  0  0  0  0  0  0  0  0  0  0
    5.2783    0.3311    0.5085 H   0  0  0  0  0  0  0  0  0  0  0  0
    6.2091   -0.1824    1.9217 H   0  0  0  0  0  0  0  0  0  0  0  0
    4.4686    0.0905    2.0380 H   0  0  0  0  0  0  0  0  0  0  0  0
    6.3654   -1.6138   -0.7668 H   0  0  0  0  0  0  0  0  0  0  0  0
    7.1509   -2.1867    0.6542 H   0  0  0  0  0  0  0  0  0  0  0  0
    6.1577   -3.8574   -1.3664 H   0  0  0  0  0  0  0  0  0  0  0  0
    6.6288   -4.5895    1.3058 H   0  0  0  0  0  0  0  0  0  0  0  0
    4.2344   -5.1242   -0.2668 H   0  0  0  0  0  0  0  0  0  0  0  0
    4.0259   -4.6685    2.1917 H   0  0  0  0  0  0  0  0  0  0  0  0
    5.0117   -3.3554    4.0578 H   0  0  0  0  0  0  0  0  0  0  0  0
    1.9793   -2.5451    3.4918 H   0  0  0  0  0  0  0  0  0  0  0  0
    2.9288    0.3088    4.0436 H   0  0  0  0  0  0  0  0  0  0  0  0
   -0.2092   -1.4188    3.6464 H   0  0  0  0  0  0  0  0  0  0  0  0
   -0.3115   -2.2536    5.9742 H   0  0  0  0  0  0  0  0  0  0  0  0
   -0.6091   -0.6374    6.5770 H   0  0  0  0  0  0  0  0  0  0  0  0
   -2.5270   -0.6488    5.2167 H   0  0  0  0  0  0  0  0  0  0  0  0
   -1.8355    0.3333    3.5628 H   0  0  0  0  0  0  0  0  0  0  0  0
   -1.3491    2.3781    4.6846 H   0  0  0  0  0  0  0  0  0  0  0  0
   -0.1968    0.6265    2.0009 H   0  0  0  0  0  0  0  0  0  0  0  0
   -0.3133    2.9794    1.7484 H   0  0  0  0  0  0  0  0  0  0  0  0
    1.9143    1.6704    2.1504 H   0  0  0  0  0  0  0  0  0  0  0  0
    1.2245    3.2760    3.7686 H   0  0  0  0  0  0  0  0  0  0  0  0
    1.9747   -3.2832    1.2932 H   0  0  0  0  0  0  0  0  0  0  0  0
    3.0269   -1.0806    0.1466 H   0  0  0  0  0  0  0  0  0  0  0  0
    3.1815   -2.0186   -2.5916 H   0  0  0  0  0  0  0  0  0  0  0  0
    4.3738   -3.2936   -2.7545 H   0  0  0  0  0  0  0  0  0  0  0  0
    4.7852   -1.7303   -2.0464 H   0  0  0  0  0  0  0  0  0  0  0  0
    1.3881   -3.0601   -1.1066 H   0  0  0  0  0  0  0  0  0  0  0  0
    1.9550   -4.5702   -0.3809 H   0  0  0  0  0  0  0  0  0  0  0  0
    2.2410   -4.2255   -2.0519 H   0  0  0  0  0  0  0  0  0  0  0  0
  2  1  1  1
  1 29  1  0
  1 30  1  0
  1 31  1  0
  2  8  1  0
  2 25  1  0
  2  3  1  0
  3  4  1  0
  3 32  1  0
  3 33  1  0
  4  5  1  0
  4  6  1  0
  4 34  1  6
  5 35  1  0
  6 26  1  0
  6  7  1  0
  6 36  1  6
  7 24  1  0
  7  8  1  0
  7 37  1  1
  8  9  2  0
  9 10  1  0
  9 38  1  0
 10 11  1  0
 11 12  1  0
 11 24  1  0
 11 39  1  1
 12 13  1  0
 13 22  1  0
 13 14  1  0
 13 40  1  1
 14 15  1  0
 15 16  1  0
 15 18  1  0
 15 41  1  6
 16 17  1  0
 16 42  1  0
 16 43  1  0
 17 44  1  0
 18 19  1  0
 18 20  1  0
 18 45  1  6
 19 46  1  0
 20 21  1  0
 20 22  1  0
 20 47  1  6
 21 48  1  0
 22 23  1  0
 22 49  1  6
 23 50  1  0
 24 25  1  0
 24 51  1  6
 25 26  1  0
 25 52  1  6
 26 27  1  0
 26 28  1  0
 27 53  1  0
 27 54  1  0
 27 55  1  0
 28 56  1  0
 28 57  1  0
 28 58  1  0
M  END
>  <i_m_ct_stereo_status>  (86) 
1

>  <s_m_source_file>  (86) 
/var/tmp/pbs.5076255.sched01/tmp7v4tqmxt/0pyfftbwv.sdf

>  <i_m_source_file_index>  (86) 
35

>  <i_lp_mmshare_version>  (86) 
48012

>  <i_f3d_flags>  (86) 
0

>  <s_epik_input>  (86) 
W0NIM11bQ0BdMTJDPTNbQ0BASF00W0NASF0oW0NAQEhdKFtDSDJdMSlbT0hdKUMoW0NIM10pKFtDSDNdKVtDQEhdMltDQEBIXTRbQ0BASF0oT1tDSF0zKU9bQ0BASF01T1tDQEBIXShbQ0gyXVtPSF0pW0NAQEhdKFtPSF0pW0NAQEhdKFtPSF0pW0NASF01W09IXQ==

>  <s_epik_cmdline>  (86) 
J2VwaWtfcHl0aG9uJywgJy1waHQnLCAnMi4wJywgJy1waCcsICc3LjAnLCAnLXRuJywgJzgnLCAnLW1hJywgJzIwMCcsICctaW1hZScsICc8aW5maWxlLm1hZT4nLCAnLW9tYWUnLCAnPG91dGZpbGUubWFlPic=

>  <r_lp_tautomer_probability>  (86) 
1

>  <r_epik_Ionization_Penalty>  (86) 
3.96094e-06

>  <r_epik_Ionization_Penalty_Charging>  (86) 
0

>  <r_epik_Ionization_Penalty_Neutral>  (86) 
3.96094e-06

>  <r_epik_State_Penalty>  (86) 
-0

>  <r_epik_Charging_Adjusted_Penalty>  (86) 
0

>  <i_epik_Tot_Q>  (86) 
0

>  <i_epik_Tot_abs_Q>  (86) 
0

>  <s_epik_Chemistry_Notes>  (86) 
This compound contains an acetal/aminal-like group ( X-CH(R)-Y where X, Y are N, S, or O) that may be acid/base labile, releasing an aldehyde.

>  <s_lp_Force_Field>  (86) 
OPLS3e

>  <r_lp_Energy>  (86) 
129.924

>  <b_lp_Chiralities_Consistent>  (86) 
1

>  <s_lp_Variant>  (86) 
28:0-1

>  <s_i_glide_gridfile>  (86) 
pfpi4k_grid

>  <i_i_glide_lignum>  (86) 
35

>  <i_i_glide_rotatable_bonds>  (86) 
8

>  <r_i_docking_score>  (86) 
-3.01153

>  <r_i_glide_ligand_efficiency>  (86) 
-0.107555

>  <r_i_glide_ligand_efficiency_sa>  (86) 
-0.326599

>  <r_i_glide_ligand_efficiency_ln>  (86) 
-0.695149

>  <r_i_glide_gscore>  (86) 
-3.01153

>  <r_i_glide_lipo>  (86) 
-0.411506

>  <r_i_glide_hbond>  (86) 
0

>  <r_i_glide_metal>  (86) 
-0

>  <r_i_glide_rewards>  (86) 
-0.692404

>  <r_i_glide_evdw>  (86) 
-20.9658

>  <r_i_glide_ecoul>  (86) 
-8.14909

>  <r_i_glide_erotb>  (86) 
0.370081

>  <r_i_glide_esite>  (86) 
-0.00704599

>  <r_i_glide_emodel>  (86) 
-30.827

>  <r_i_glide_energy>  (86) 
-29.1149

>  <r_i_glide_einternal>  (86) 
4.89571

>  <r_i_glide_intrahb_reward>  (86) 
-0

>  <i_i_glide_confnum>  (86) 
5

>  <i_i_glide_posenum>  (86) 
35

>  <r_i_glide_eff_state_penalty>  (86) 
0

>  <ligand_id>  (86) 
28

>  <original_smiles>  (86) 
CC12CC(O)C3C4C1=COC(OC1OC(CO)C(O)C(O)C1O)C4C2C3(C)C

>  <smiles>  (86) 
[H]OC([H])([H])C1([H])OC([H])(OC2([H])OC([H])=C3C4([H])C2([H])C2([H])C3(C([H])([H])[H])C([H])([H])C([H])(O[H])C4([H])C2(C([H])([H])[H])C([H])([H])[H])C([H])(O[H])C([H])(O[H])C1([H])O[H]

$$$$
28:0:2
     RDKit          3D

 58 62  0  0  1  0  0  0  0  0999 V2000
    4.8146   -0.0918    1.4934 C   0  0  0  0  0  0  0  0  0  0  0  0
    4.8820   -1.3961    0.7069 C   0  0  1  0  0  0  0  0  0  0  0  0
    6.0967   -1.3426   -0.2295 C   0  0  0  0  0  0  0  0  0  0  0  0
    6.1448   -2.6582   -1.0539 C   0  0  1  0  0  0  0  0  0  0  0  0
    7.2243   -3.4551   -0.6011 O   0  0  0  0  0  0  0  0  0  0  0  0
    4.7815   -3.4057   -0.8931 C   0  0  1  0  0  0  0  0  0  0  0  0
    4.4199   -3.6468    0.6422 C   0  0  1  0  0  0  0  0  0  0  0  0
    5.1895   -2.6649    1.4700 C   0  0  0  0  0  0  0  0  0  0  0  0
    5.0290   -2.7689    2.7978 C   0  0  0  0  0  0  0  0  0  0  0  0
    3.7753   -2.4421    3.2063 O   0  0  0  0  0  0  0  0  0  0  0  0
    2.6642   -2.7423    2.3788 C   0  0  1  0  0  0  0  0  0  0  0  0
    1.7090   -1.7310    2.4435 O   0  0  0  0  0  0  0  0  0  0  0  0
    0.9396   -1.5624    3.6402 C   0  0  2  0  0  0  0  0  0  0  0  0
   -0.0907   -0.6161    3.4614 O   0  0  0  0  0  0  0  0  0  0  0  0
    0.3488    0.7128    3.1310 C   0  0  1  0  0  0  0  0  0  0  0  0
   -0.8966    1.5721    2.7999 C   0  0  0  0  0  0  0  0  0  0  0  0
   -0.6481    2.9736    2.8825 O   0  0  0  0  0  0  0  0  0  0  0  0
    1.1581    1.2541    4.3376 C   0  0  1  0  0  0  0  0  0  0  0  0
    0.3285    1.5674    5.4488 O   0  0  0  0  0  0  0  0  0  0  0  0
    2.2654    0.2716    4.7428 C   0  0  1  0  0  0  0  0  0  0  0  0
    3.0364    0.7214    5.8704 O   0  0  0  0  0  0  0  0  0  0  0  0
    1.7821   -1.1807    4.9094 C   0  0  1  0  0  0  0  0  0  0  0  0
    0.9928   -1.3369    6.0750 O   0  0  0  0  0  0  0  0  0  0  0  0
    3.0522   -2.9949    0.8693 C   0  0  1  0  0  0  0  0  0  0  0  0
    3.4633   -1.7532    0.0663 C   0  0  2  0  0  0  0  0  0  0  0  0
    3.6555   -2.4165   -1.3350 C   0  0  0  0  0  0  0  0  0  0  0  0
    3.9375   -1.3823   -2.4609 C   0  0  0  0  0  0  0  0  0  0  0  0
    2.4606   -3.2401   -1.9134 C   0  0  0  0  0  0  0  0  0  0  0  0
    4.6663    0.7666    0.8298 H   0  0  0  0  0  0  0  0  0  0  0  0
    5.6956    0.1042    2.1203 H   0  0  0  0  0  0  0  0  0  0  0  0
    3.9271   -0.1238    2.1135 H   0  0  0  0  0  0  0  0  0  0  0  0
    6.0615   -0.4480   -0.8388 H   0  0  0  0  0  0  0  0  0  0  0  0
    7.0075   -1.2369    0.3707 H   0  0  0  0  0  0  0  0  0  0  0  0
    6.3359   -2.4334   -2.1051 H   0  0  0  0  0  0  0  0  0  0  0  0
    8.0341   -3.0757   -0.9007 H   0  0  0  0  0  0  0  0  0  0  0  0
    4.7576   -4.3337   -1.4652 H   0  0  0  0  0  0  0  0  0  0  0  0
    4.5268   -4.6681    1.0006 H   0  0  0  0  0  0  0  0  0  0  0  0
    5.2010   -3.7605    3.2047 H   0  0  0  0  0  0  0  0  0  0  0  0
    2.2080   -3.6480    2.7761 H   0  0  0  0  0  0  0  0  0  0  0  0
    0.3988   -2.5052    3.7822 H   0  0  0  0  0  0  0  0  0  0  0  0
    0.9790    0.6564    2.2357 H   0  0  0  0  0  0  0  0  0  0  0  0
   -1.3255    1.3086    1.8184 H   0  0  0  0  0  0  0  0  0  0  0  0
   -1.6733    1.3429    3.5364 H   0  0  0  0  0  0  0  0  0  0  0  0
   -0.2239    3.2995    2.0480 H   0  0  0  0  0  0  0  0  0  0  0  0
    1.6518    2.1691    4.0077 H   0  0  0  0  0  0  0  0  0  0  0  0
    0.9188    1.8431    6.1681 H   0  0  0  0  0  0  0  0  0  0  0  0
    2.9441    0.2761    3.8960 H   0  0  0  0  0  0  0  0  0  0  0  0
    3.8421    0.1881    5.9212 H   0  0  0  0  0  0  0  0  0  0  0  0
    2.6340   -1.8326    5.0654 H   0  0  0  0  0  0  0  0  0  0  0  0
    1.5216   -0.9735    6.8111 H   0  0  0  0  0  0  0  0  0  0  0  0
    2.2206   -3.5530    0.4678 H   0  0  0  0  0  0  0  0  0  0  0  0
    2.7348   -0.9395    0.0926 H   0  0  0  0  0  0  0  0  0  0  0  0
    2.9978   -0.9654   -2.8233 H   0  0  0  0  0  0  0  0  0  0  0  0
    4.4321   -1.8522   -3.3098 H   0  0  0  0  0  0  0  0  0  0  0  0
    4.5133   -0.5195   -2.1541 H   0  0  0  0  0  0  0  0  0  0  0  0
    1.5107   -2.7185   -1.8157 H   0  0  0  0  0  0  0  0  0  0  0  0
    2.3519   -4.2304   -1.4662 H   0  0  0  0  0  0  0  0  0  0  0  0
    2.5881   -3.4330   -2.9782 H   0  0  0  0  0  0  0  0  0  0  0  0
  2  1  1  1
  1 29  1  0
  1 30  1  0
  1 31  1  0
  2  8  1  0
  2 25  1  0
  2  3  1  0
  3  4  1  0
  3 32  1  0
  3 33  1  0
  4  5  1  0
  4  6  1  0
  4 34  1  6
  5 35  1  0
  6 26  1  0
  6  7  1  0
  6 36  1  6
  7 24  1  0
  7  8  1  0
  7 37  1  1
  8  9  2  0
  9 10  1  0
  9 38  1  0
 10 11  1  0
 11 12  1  0
 11 24  1  0
 11 39  1  1
 12 13  1  0
 13 22  1  0
 13 14  1  0
 13 40  1  1
 14 15  1  0
 15 16  1  0
 15 18  1  0
 15 41  1  6
 16 17  1  0
 16 42  1  0
 16 43  1  0
 17 44  1  0
 18 19  1  0
 18 20  1  0
 18 45  1  6
 19 46  1  0
 20 21  1  0
 20 22  1  0
 20 47  1  6
 21 48  1  0
 22 23  1  0
 22 49  1  1
 23 50  1  0
 24 25  1  0
 24 51  1  6
 25 26  1  0
 25 52  1  6
 26 27  1  0
 26 28  1  0
 27 53  1  0
 27 54  1  0
 27 55  1  0
 28 56  1  0
 28 57  1  0
 28 58  1  0
M  END
>  <i_m_ct_stereo_status>  (87) 
1

>  <s_m_source_file>  (87) 
/var/tmp/pbs.5076255.sched01/tmp7v4tqmxt/0pyfftbwv.sdf

>  <i_m_source_file_index>  (87) 
35

>  <i_lp_mmshare_version>  (87) 
48012

>  <i_f3d_flags>  (87) 
0

>  <s_epik_input>  (87) 
W0NIM11bQ0BdMTJDPTNbQ0BASF00W0NASF0oW0NAQEhdKFtDSDJdMSlbT0hdKUMoW0NIM10pKFtDSDNdKVtDQEhdMltDQEBIXTRbQ0BASF0oT1tDSF0zKU9bQ0BASF01T1tDQEBIXShbQ0gyXVtPSF0pW0NAQEhdKFtPSF0pW0NAQEhdKFtPSF0pW0NASF01W09IXQ==

>  <s_epik_cmdline>  (87) 
J2VwaWtfcHl0aG9uJywgJy1waHQnLCAnMi4wJywgJy1waCcsICc3LjAnLCAnLXRuJywgJzgnLCAnLW1hJywgJzIwMCcsICctaW1hZScsICc8aW5maWxlLm1hZT4nLCAnLW9tYWUnLCAnPG91dGZpbGUubWFlPic=

>  <r_lp_tautomer_probability>  (87) 
1

>  <r_epik_Ionization_Penalty>  (87) 
3.96094e-06

>  <r_epik_Ionization_Penalty_Charging>  (87) 
0

>  <r_epik_Ionization_Penalty_Neutral>  (87) 
3.96094e-06

>  <r_epik_State_Penalty>  (87) 
-0

>  <r_epik_Charging_Adjusted_Penalty>  (87) 
0

>  <i_epik_Tot_Q>  (87) 
0

>  <i_epik_Tot_abs_Q>  (87) 
0

>  <s_epik_Chemistry_Notes>  (87) 
This compound contains an acetal/aminal-like group ( X-CH(R)-Y where X, Y are N, S, or O) that may be acid/base labile, releasing an aldehyde.

>  <s_lp_Force_Field>  (87) 
OPLS3e

>  <r_lp_Energy>  (87) 
129.924

>  <b_lp_Chiralities_Consistent>  (87) 
1

>  <s_lp_Variant>  (87) 
28:0-1

>  <s_i_glide_gridfile>  (87) 
pfpi4k_grid

>  <i_i_glide_lignum>  (87) 
35

>  <i_i_glide_rotatable_bonds>  (87) 
8

>  <r_i_docking_score>  (87) 
-2.5801

>  <r_i_glide_ligand_efficiency>  (87) 
-0.0921464

>  <r_i_glide_ligand_efficiency_sa>  (87) 
-0.279811

>  <r_i_glide_ligand_efficiency_ln>  (87) 
-0.595563

>  <r_i_glide_gscore>  (87) 
-2.5801

>  <r_i_glide_lipo>  (87) 
-0.424086

>  <r_i_glide_hbond>  (87) 
0

>  <r_i_glide_metal>  (87) 
-0

>  <r_i_glide_rewards>  (87) 
-0.692404

>  <r_i_glide_evdw>  (87) 
-20.9552

>  <r_i_glide_ecoul>  (87) 
-5.19767

>  <r_i_glide_erotb>  (87) 
0.370081

>  <r_i_glide_esite>  (87) 
-0.00628161

>  <r_i_glide_emodel>  (87) 
-26.0006

>  <r_i_glide_energy>  (87) 
-26.1528

>  <r_i_glide_einternal>  (87) 
7.76206

>  <r_i_glide_intrahb_reward>  (87) 
-0

>  <i_i_glide_confnum>  (87) 
5

>  <i_i_glide_posenum>  (87) 
4

>  <r_i_glide_eff_state_penalty>  (87) 
0

>  <ligand_id>  (87) 
28

>  <original_smiles>  (87) 
CC12CC(O)C3C4C1=COC(OC1OC(CO)C(O)C(O)C1O)C4C2C3(C)C

>  <smiles>  (87) 
[H]OC([H])([H])C1([H])OC([H])(OC2([H])OC([H])=C3C4([H])C2([H])C2([H])C3(C([H])([H])[H])C([H])([H])C([H])(O[H])C4([H])C2(C([H])([H])[H])C([H])([H])[H])C([H])(O[H])C([H])(O[H])C1([H])O[H]

$$$$
30:0:0
     RDKit          3D

 58 62  0  0  1  0  0  0  0  0999 V2000
    3.8213   -0.1276   -2.9973 C   0  0  0  0  0  0  0  0  0  0  0  0
    4.4674   -1.4588   -2.6641 C   0  0  2  0  0  0  0  0  0  0  0  0
    3.5892   -2.4922   -3.3719 C   0  0  0  0  0  0  0  0  0  0  0  0
    2.7594   -3.3951   -2.4223 C   0  0  0  0  0  0  0  0  0  0  0  0
    3.4655   -3.8367   -1.0487 C   0  0  2  0  0  0  0  0  0  0  0  0
    2.6083   -3.6355    0.2600 C   0  0  1  0  0  0  0  0  0  0  0  0
    1.9645   -5.0426    0.5138 C   0  0  1  0  0  0  0  0  0  0  0  0
    0.9770   -5.4753   -0.6090 C   0  0  0  0  0  0  0  0  0  0  0  0
    2.9325   -6.1258    0.9231 C   0  0  0  0  0  0  0  0  0  0  0  0
    3.9380   -5.5496    1.9308 C   0  0  0  0  0  0  0  0  0  0  0  0
    4.4852   -4.0976    1.6618 C   0  0  1  0  0  0  0  0  0  0  0  0
    5.2493   -3.8805    2.8268 O   0  0  0  0  0  0  0  0  0  0  0  0
    5.4855   -3.8694    0.4793 C   0  0  1  0  0  0  0  0  0  0  0  0
    6.3752   -5.1309    0.3175 C   0  0  0  0  0  0  0  0  0  0  0  0
    4.8673   -3.2952   -0.8656 C   0  0  1  0  0  0  0  0  0  0  0  0
    5.7143   -3.7643   -1.9102 O   0  0  0  0  0  0  0  0  0  0  0  0
    4.6050   -1.7858   -1.1314 C   0  0  1  0  0  0  0  0  0  0  0  0
    5.2561   -0.8228   -0.1404 C   0  0  0  0  0  0  0  0  0  0  0  0
    4.1981   -0.4379    0.9052 C   0  0  0  0  0  0  0  0  0  0  0  0
    3.7495   -1.5652    1.8349 C   0  0  1  0  0  0  0  0  0  0  0  0
    2.4552   -1.3602    2.5860 C   0  0  0  0  0  0  0  0  0  0  0  0
    2.5177   -2.8419    2.8875 C   0  0  1  0  0  0  0  0  0  0  0  0
    1.2625   -3.4226    3.1311 O   0  0  0  0  0  0  0  0  0  0  0  0
    3.3457   -3.0924    1.5610 C   0  0  1  0  0  0  0  0  0  0  0  0
    2.8125   -0.1789   -2.5887 H   0  0  0  0  0  0  0  0  0  0  0  0
    3.7252    0.1363   -4.0542 H   0  0  0  0  0  0  0  0  0  0  0  0
    4.4207    0.6546   -2.5483 H   0  0  0  0  0  0  0  0  0  0  0  0
    5.4075   -1.4440   -3.1125 H   0  0  0  0  0  0  0  0  0  0  0  0
    2.9126   -2.0087   -4.0701 H   0  0  0  0  0  0  0  0  0  0  0  0
    4.2771   -3.0919   -3.9683 H   0  0  0  0  0  0  0  0  0  0  0  0
    1.7754   -2.9330   -2.2656 H   0  0  0  0  0  0  0  0  0  0  0  0
    2.5692   -4.2433   -3.0638 H   0  0  0  0  0  0  0  0  0  0  0  0
    3.7188   -4.8619   -1.1502 H   0  0  0  0  0  0  0  0  0  0  0  0
    1.8296   -2.8992    0.0230 H   0  0  0  0  0  0  0  0  0  0  0  0
    1.3879   -5.0674    1.4295 H   0  0  0  0  0  0  0  0  0  0  0  0
    1.4089   -5.8989   -1.4872 H   0  0  0  0  0  0  0  0  0  0  0  0
    0.4077   -4.7150   -1.1383 H   0  0  0  0  0  0  0  0  0  0  0  0
    0.3536   -6.2603   -0.2728 H   0  0  0  0  0  0  0  0  0  0  0  0
    2.3339   -6.9024    1.4141 H   0  0  0  0  0  0  0  0  0  0  0  0
    3.4113   -6.5839    0.0646 H   0  0  0  0  0  0  0  0  0  0  0  0
    3.4303   -5.5074    2.8996 H   0  0  0  0  0  0  0  0  0  0  0  0
    4.7226   -6.2837    2.0805 H   0  0  0  0  0  0  0  0  0  0  0  0
    5.8877   -4.5633    2.8590 H   0  0  0  0  0  0  0  0  0  0  0  0
    6.2155   -3.1363    0.8058 H   0  0  0  0  0  0  0  0  0  0  0  0
    5.8293   -5.9690   -0.1330 H   0  0  0  0  0  0  0  0  0  0  0  0
    6.7663   -5.4894    1.2815 H   0  0  0  0  0  0  0  0  0  0  0  0
    7.2289   -4.9111   -0.2954 H   0  0  0  0  0  0  0  0  0  0  0  0
    5.5398   -4.6870   -2.0155 H   0  0  0  0  0  0  0  0  0  0  0  0
    3.5687   -1.5959   -0.8711 H   0  0  0  0  0  0  0  0  0  0  0  0
    6.1818   -1.1770    0.3079 H   0  0  0  0  0  0  0  0  0  0  0  0
    5.5514    0.0676   -0.6598 H   0  0  0  0  0  0  0  0  0  0  0  0
    4.6064    0.3829    1.4851 H   0  0  0  0  0  0  0  0  0  0  0  0
    3.3190    0.0103    0.4382 H   0  0  0  0  0  0  0  0  0  0  0  0
    4.5151   -1.6099    2.6056 H   0  0  0  0  0  0  0  0  0  0  0  0
    2.5615   -0.7262    3.4683 H   0  0  0  0  0  0  0  0  0  0  0  0
    1.6460   -1.0607    1.9145 H   0  0  0  0  0  0  0  0  0  0  0  0
    3.1487   -3.0077    3.7662 H   0  0  0  0  0  0  0  0  0  0  0  0
    0.7215   -3.1548    2.4069 H   0  0  0  0  0  0  0  0  0  0  0  0
  1  2  1  0
  1 25  1  0
  1 26  1  0
  1 27  1  0
  2 17  1  0
  2  3  1  0
  2 28  1  6
  3  4  1  0
  3 29  1  0
  3 30  1  0
  4  5  1  0
  4 31  1  0
  4 32  1  0
  5 15  1  0
  5  6  1  0
  5 33  1  6
  6 24  1  0
  6  7  1  0
  6 34  1  6
  7  8  1  0
  7  9  1  0
  7 35  1  1
  8 36  1  0
  8 37  1  0
  8 38  1  0
  9 10  1  0
  9 39  1  0
  9 40  1  0
 10 11  1  0
 10 41  1  0
 10 42  1  0
 24 11  1  1
 11 12  1  1
 11 13  1  0
 12 43  1  0
 13 14  1  0
 13 15  1  0
 13 44  1  1
 14 45  1  0
 14 46  1  0
 14 47  1  0
 15 16  1  6
 15 17  1  0
 16 48  1  0
 17 18  1  0
 17 49  1  1
 18 19  1  0
 18 50  1  0
 18 51  1  0
 19 20  1  0
 19 52  1  0
 19 53  1  0
 20 24  1  0
 20 21  1  0
 20 54  1  1
 21 22  1  0
 21 55  1  0
 21 56  1  0
 22 23  1  0
 22 24  1  0
 22 57  1  1
 23 58  1  0
M  END
>  <i_m_ct_stereo_status>  (88) 
1

>  <s_m_source_file>  (88) 
/var/tmp/pbs.5076255.sched01/tmp7v4tqmxt/0pyfftbwv.sdf

>  <i_m_source_file_index>  (88) 
37

>  <i_lp_mmshare_version>  (88) 
48012

>  <i_f3d_flags>  (88) 
0

>  <s_epik_input>  (88) 
W09IXVtDQEBIXTFbQ0gyXVtDQEBIXTJbQ0gyXVtDSDJdW0NAQEhdKFtDQEhdKFtDSDNdKVtDSDJdW0NIMl0zKVtDQF0oW09IXSkoW0NASF0zW0NAQEhdNFtDQF0xMjUpW0NASF0oW0NIM10pW0NAXTUoW09IXSlbQ0gyXVtDSDJdW0NAQEhdNFtDSDNd

>  <s_epik_cmdline>  (88) 
J2VwaWtfcHl0aG9uJywgJy1waHQnLCAnMi4wJywgJy1waCcsICc3LjAnLCAnLXRuJywgJzgnLCAnLW1hJywgJzIwMCcsICctaW1hZScsICc8aW5maWxlLm1hZT4nLCAnLW9tYWUnLCAnPG91dGZpbGUubWFlPic=

>  <r_lp_tautomer_probability>  (88) 
1

>  <r_epik_Ionization_Penalty>  (88) 
2.31074e-05

>  <r_epik_Ionization_Penalty_Charging>  (88) 
0

>  <r_epik_Ionization_Penalty_Neutral>  (88) 
2.31074e-05

>  <r_epik_State_Penalty>  (88) 
-0

>  <r_epik_Charging_Adjusted_Penalty>  (88) 
0

>  <i_epik_Tot_Q>  (88) 
0

>  <i_epik_Tot_abs_Q>  (88) 
0

>  <s_lp_Force_Field>  (88) 
OPLS3e

>  <r_lp_Energy>  (88) 
108.344

>  <b_lp_Chiralities_Consistent>  (88) 
1

>  <s_lp_Variant>  (88) 
30:0-1

>  <s_i_glide_gridfile>  (88) 
pfpi4k_grid

>  <i_i_glide_lignum>  (88) 
37

>  <i_i_glide_rotatable_bonds>  (88) 
3

>  <r_i_docking_score>  (88) 
-2.60726

>  <r_i_glide_ligand_efficiency>  (88) 
-0.108636

>  <r_i_glide_ligand_efficiency_sa>  (88) 
-0.31336

>  <r_i_glide_ligand_efficiency_ln>  (88) 
-0.624037

>  <r_i_glide_gscore>  (88) 
-2.60726

>  <r_i_glide_lipo>  (88) 
-0.685106

>  <r_i_glide_hbond>  (88) 
0

>  <r_i_glide_metal>  (88) 
-0

>  <r_i_glide_rewards>  (88) 
-1.12846

>  <r_i_glide_evdw>  (88) 
-0.117361

>  <r_i_glide_ecoul>  (88) 
-5.25218

>  <r_i_glide_erotb>  (88) 
0

>  <r_i_glide_esite>  (88) 
0

>  <r_i_glide_emodel>  (88) 
-9.23835

>  <r_i_glide_energy>  (88) 
-5.36954

>  <r_i_glide_einternal>  (88) 
0.162718

>  <r_i_glide_intrahb_reward>  (88) 
-0

>  <i_i_glide_confnum>  (88) 
1

>  <i_i_glide_posenum>  (88) 
34

>  <r_i_glide_eff_state_penalty>  (88) 
0

>  <ligand_id>  (88) 
30

>  <original_smiles>  (88) 
CC1CCC2C3C(C)CCC4(O)C(C)C2(O)C1CCC1CC(O)C134

>  <smiles>  (88) 
[H]OC1([H])C([H])([H])C2([H])C([H])([H])C([H])([H])C3([H])C([H])(C([H])([H])[H])C([H])([H])C([H])([H])C4([H])C5([H])C([H])(C([H])([H])[H])C([H])([H])C([H])([H])C(O[H])(C([H])(C([H])([H])[H])C34O[H])C125

$$$$
30:0:1
     RDKit          3D

 58 62  0  0  1  0  0  0  0  0999 V2000
    3.0014   -0.2229   -3.1318 C   0  0  0  0  0  0  0  0  0  0  0  0
    3.7513   -1.5363   -2.8800 C   0  0  2  0  0  0  0  0  0  0  0  0
    2.8665   -2.6859   -3.3916 C   0  0  0  0  0  0  0  0  0  0  0  0
    2.2163   -3.4954   -2.2520 C   0  0  0  0  0  0  0  0  0  0  0  0
    3.1801   -3.8896   -1.0195 C   0  0  2  0  0  0  0  0  0  0  0  0
    2.5204   -3.6847    0.4007 C   0  0  1  0  0  0  0  0  0  0  0  0
    2.0119   -5.1110    0.8401 C   0  0  1  0  0  0  0  0  0  0  0  0
    1.0126   -5.8526   -0.1074 C   0  0  0  0  0  0  0  0  0  0  0  0
    3.1804   -6.0236    1.2166 C   0  0  0  0  0  0  0  0  0  0  0  0
    4.2809   -5.3045    2.0131 C   0  0  0  0  0  0  0  0  0  0  0  0
    4.6374   -3.8472    1.5590 C   0  0  1  0  0  0  0  0  0  0  0  0
    5.5512   -3.4377    2.5714 O   0  0  0  0  0  0  0  0  0  0  0  0
    5.4173   -3.6300    0.2329 C   0  0  1  0  0  0  0  0  0  0  0  0
    6.4361   -4.7650    0.0796 C   0  0  0  0  0  0  0  0  0  0  0  0
    4.5570   -3.2415   -1.0641 C   0  0  1  0  0  0  0  0  0  0  0  0
    5.3050   -3.7234   -2.1814 O   0  0  0  0  0  0  0  0  0  0  0  0
    4.1105   -1.7880   -1.3788 C   0  0  1  0  0  0  0  0  0  0  0  0
    4.7542   -0.6726   -0.5795 C   0  0  0  0  0  0  0  0  0  0  0  0
    3.8344   -0.3256    0.6124 C   0  0  0  0  0  0  0  0  0  0  0  0
    3.6744   -1.3984    1.6783 C   0  0  1  0  0  0  0  0  0  0  0  0
    2.4691   -1.2677    2.5982 C   0  0  0  0  0  0  0  0  0  0  0  0
    2.7116   -2.7161    2.9707 C   0  0  1  0  0  0  0  0  0  0  0  0
    1.5535   -3.4069    3.4161 O   0  0  0  0  0  0  0  0  0  0  0  0
    3.3840   -2.9751    1.5610 C   0  0  1  0  0  0  0  0  0  0  0  0
    2.1651   -0.2390   -2.4363 H   0  0  0  0  0  0  0  0  0  0  0  0
    2.5977   -0.1463   -4.1466 H   0  0  0  0  0  0  0  0  0  0  0  0
    3.6375    0.6018   -2.9240 H   0  0  0  0  0  0  0  0  0  0  0  0
    4.6537   -1.4775   -3.4766 H   0  0  0  0  0  0  0  0  0  0  0  0
    2.0658   -2.3504   -4.0513 H   0  0  0  0  0  0  0  0  0  0  0  0
    3.4925   -3.3280   -4.0158 H   0  0  0  0  0  0  0  0  0  0  0  0
    1.2181   -3.1848   -1.9312 H   0  0  0  0  0  0  0  0  0  0  0  0
    1.8903   -4.3243   -2.8595 H   0  0  0  0  0  0  0  0  0  0  0  0
    3.4650   -4.9260   -1.1106 H   0  0  0  0  0  0  0  0  0  0  0  0
    1.6966   -3.0092    0.2193 H   0  0  0  0  0  0  0  0  0  0  0  0
    1.4312   -4.9936    1.7403 H   0  0  0  0  0  0  0  0  0  0  0  0
    1.5004   -6.2212   -1.0069 H   0  0  0  0  0  0  0  0  0  0  0  0
    0.2344   -5.2515   -0.5450 H   0  0  0  0  0  0  0  0  0  0  0  0
    0.5701   -6.7231    0.3887 H   0  0  0  0  0  0  0  0  0  0  0  0
    2.7924   -6.8560    1.8089 H   0  0  0  0  0  0  0  0  0  0  0  0
    3.6134   -6.4784    0.3259 H   0  0  0  0  0  0  0  0  0  0  0  0
    3.9340   -5.2603    3.0473 H   0  0  0  0  0  0  0  0  0  0  0  0
    5.1602   -5.9452    2.0454 H   0  0  0  0  0  0  0  0  0  0  0  0
    5.1246   -3.4940    3.3925 H   0  0  0  0  0  0  0  0  0  0  0  0
    6.0852   -2.7888    0.3840 H   0  0  0  0  0  0  0  0  0  0  0  0
    5.9642   -5.6795   -0.2830 H   0  0  0  0  0  0  0  0  0  0  0  0
    6.9933   -5.0020    0.9880 H   0  0  0  0  0  0  0  0  0  0  0  0
    7.1672   -4.4538   -0.6585 H   0  0  0  0  0  0  0  0  0  0  0  0
    5.1111   -4.6348   -2.3057 H   0  0  0  0  0  0  0  0  0  0  0  0
    3.0986   -1.6735   -0.9926 H   0  0  0  0  0  0  0  0  0  0  0  0
    5.7714   -0.8794   -0.2478 H   0  0  0  0  0  0  0  0  0  0  0  0
    4.8259    0.1381   -1.2505 H   0  0  0  0  0  0  0  0  0  0  0  0
    4.2110    0.5878    1.0702 H   0  0  0  0  0  0  0  0  0  0  0  0
    2.8328   -0.0496    0.2797 H   0  0  0  0  0  0  0  0  0  0  0  0
    4.5481   -1.2769    2.3205 H   0  0  0  0  0  0  0  0  0  0  0  0
    2.6078   -0.5481    3.4127 H   0  0  0  0  0  0  0  0  0  0  0  0
    1.5411   -1.0951    2.0484 H   0  0  0  0  0  0  0  0  0  0  0  0
    3.4457   -2.7548    3.7731 H   0  0  0  0  0  0  0  0  0  0  0  0
    0.8816   -3.2074    2.8089 H   0  0  0  0  0  0  0  0  0  0  0  0
  1  2  1  0
  1 25  1  0
  1 26  1  0
  1 27  1  0
  2 17  1  0
  2  3  1  0
  2 28  1  6
  3  4  1  0
  3 29  1  0
  3 30  1  0
  4  5  1  0
  4 31  1  0
  4 32  1  0
  5 15  1  0
  5  6  1  0
  5 33  1  6
  6 24  1  0
  6  7  1  0
  6 34  1  6
  7  8  1  0
  7  9  1  0
  7 35  1  1
  8 36  1  0
  8 37  1  0
  8 38  1  0
  9 10  1  0
  9 39  1  0
  9 40  1  0
 10 11  1  0
 10 41  1  0
 10 42  1  0
 24 11  1  1
 11 12  1  1
 11 13  1  0
 12 43  1  0
 13 14  1  0
 13 15  1  0
 13 44  1  1
 14 45  1  0
 14 46  1  0
 14 47  1  0
 15 16  1  6
 15 17  1  0
 16 48  1  0
 17 18  1  0
 17 49  1  1
 18 19  1  0
 18 50  1  0
 18 51  1  0
 19 20  1  0
 19 52  1  0
 19 53  1  0
 20 24  1  0
 20 21  1  0
 20 54  1  1
 21 22  1  0
 21 55  1  0
 21 56  1  0
 22 23  1  0
 22 24  1  0
 22 57  1  1
 23 58  1  0
M  END
>  <i_m_ct_stereo_status>  (89) 
1

>  <s_m_source_file>  (89) 
/var/tmp/pbs.5076255.sched01/tmp7v4tqmxt/0pyfftbwv.sdf

>  <i_m_source_file_index>  (89) 
37

>  <i_lp_mmshare_version>  (89) 
48012

>  <i_f3d_flags>  (89) 
0

>  <s_epik_input>  (89) 
W09IXVtDQEBIXTFbQ0gyXVtDQEBIXTJbQ0gyXVtDSDJdW0NAQEhdKFtDQEhdKFtDSDNdKVtDSDJdW0NIMl0zKVtDQF0oW09IXSkoW0NASF0zW0NAQEhdNFtDQF0xMjUpW0NASF0oW0NIM10pW0NAXTUoW09IXSlbQ0gyXVtDSDJdW0NAQEhdNFtDSDNd

>  <s_epik_cmdline>  (89) 
J2VwaWtfcHl0aG9uJywgJy1waHQnLCAnMi4wJywgJy1waCcsICc3LjAnLCAnLXRuJywgJzgnLCAnLW1hJywgJzIwMCcsICctaW1hZScsICc8aW5maWxlLm1hZT4nLCAnLW9tYWUnLCAnPG91dGZpbGUubWFlPic=

>  <r_lp_tautomer_probability>  (89) 
1

>  <r_epik_Ionization_Penalty>  (89) 
2.31074e-05

>  <r_epik_Ionization_Penalty_Charging>  (89) 
0

>  <r_epik_Ionization_Penalty_Neutral>  (89) 
2.31074e-05

>  <r_epik_State_Penalty>  (89) 
-0

>  <r_epik_Charging_Adjusted_Penalty>  (89) 
0

>  <i_epik_Tot_Q>  (89) 
0

>  <i_epik_Tot_abs_Q>  (89) 
0

>  <s_lp_Force_Field>  (89) 
OPLS3e

>  <r_lp_Energy>  (89) 
108.344

>  <b_lp_Chiralities_Consistent>  (89) 
1

>  <s_lp_Variant>  (89) 
30:0-1

>  <s_i_glide_gridfile>  (89) 
pfpi4k_grid

>  <i_i_glide_lignum>  (89) 
37

>  <i_i_glide_rotatable_bonds>  (89) 
3

>  <r_i_docking_score>  (89) 
-2.53289

>  <r_i_glide_ligand_efficiency>  (89) 
-0.105537

>  <r_i_glide_ligand_efficiency_sa>  (89) 
-0.304421

>  <r_i_glide_ligand_efficiency_ln>  (89) 
-0.606236

>  <r_i_glide_gscore>  (89) 
-2.53289

>  <r_i_glide_lipo>  (89) 
-0.613152

>  <r_i_glide_hbond>  (89) 
0

>  <r_i_glide_metal>  (89) 
-0

>  <r_i_glide_rewards>  (89) 
-1.12846

>  <r_i_glide_evdw>  (89) 
-1.10246

>  <r_i_glide_ecoul>  (89) 
-4.9077

>  <r_i_glide_erotb>  (89) 
0

>  <r_i_glide_esite>  (89) 
0

>  <r_i_glide_emodel>  (89) 
-10.5983

>  <r_i_glide_energy>  (89) 
-6.01016

>  <r_i_glide_einternal>  (89) 
0.460859

>  <r_i_glide_intrahb_reward>  (89) 
-0

>  <i_i_glide_confnum>  (89) 
1

>  <i_i_glide_posenum>  (89) 
32

>  <r_i_glide_eff_state_penalty>  (89) 
0

>  <ligand_id>  (89) 
30

>  <original_smiles>  (89) 
CC1CCC2C3C(C)CCC4(O)C(C)C2(O)C1CCC1CC(O)C134

>  <smiles>  (89) 
[H]OC1([H])C([H])([H])C2([H])C([H])([H])C([H])([H])C3([H])C([H])(C([H])([H])[H])C([H])([H])C([H])([H])C4([H])C5([H])C([H])(C([H])([H])[H])C([H])([H])C([H])([H])C(O[H])(C([H])(C([H])([H])[H])C34O[H])C125

$$$$
30:0:2
     RDKit          3D

 58 62  0  0  1  0  0  0  0  0999 V2000
    3.8195   -0.1100   -3.0114 C   0  0  0  0  0  0  0  0  0  0  0  0
    4.4440   -1.4434   -2.6596 C   0  0  2  0  0  0  0  0  0  0  0  0
    3.5712   -2.4868   -3.3793 C   0  0  0  0  0  0  0  0  0  0  0  0
    2.7441   -3.3811   -2.4215 C   0  0  0  0  0  0  0  0  0  0  0  0
    3.4503   -3.8266   -1.0655 C   0  0  2  0  0  0  0  0  0  0  0  0
    2.6058   -3.6250    0.2629 C   0  0  1  0  0  0  0  0  0  0  0  0
    1.9633   -5.0328    0.5028 C   0  0  1  0  0  0  0  0  0  0  0  0
    0.9863   -5.4680   -0.6188 C   0  0  0  0  0  0  0  0  0  0  0  0
    2.9401   -6.1181    0.9245 C   0  0  0  0  0  0  0  0  0  0  0  0
    3.9612   -5.5476    1.9219 C   0  0  0  0  0  0  0  0  0  0  0  0
    4.5057   -4.0985    1.6411 C   0  0  1  0  0  0  0  0  0  0  0  0
    5.2892   -3.8973    2.8020 O   0  0  0  0  0  0  0  0  0  0  0  0
    5.4954   -3.8735    0.4562 C   0  0  1  0  0  0  0  0  0  0  0  0
    6.3858   -5.1301    0.3231 C   0  0  0  0  0  0  0  0  0  0  0  0
    4.8668   -3.2963   -0.8872 C   0  0  1  0  0  0  0  0  0  0  0  0
    5.7023   -3.7752   -1.9301 O   0  0  0  0  0  0  0  0  0  0  0  0
    4.6046   -1.7719   -1.1460 C   0  0  1  0  0  0  0  0  0  0  0  0
    5.2663   -0.8194   -0.1623 C   0  0  0  0  0  0  0  0  0  0  0  0
    4.2189   -0.4353    0.8884 C   0  0  0  0  0  0  0  0  0  0  0  0
    3.7826   -1.5632    1.8290 C   0  0  1  0  0  0  0  0  0  0  0  0
    2.4934   -1.3604    2.5896 C   0  0  0  0  0  0  0  0  0  0  0  0
    2.5542   -2.8406    2.8941 C   0  0  1  0  0  0  0  0  0  0  0  0
    1.3038   -3.4236    3.1578 O   0  0  0  0  0  0  0  0  0  0  0  0
    3.3683   -3.0875    1.5593 C   0  0  1  0  0  0  0  0  0  0  0  0
    2.8123   -0.1666   -2.5929 H   0  0  0  0  0  0  0  0  0  0  0  0
    3.7262    0.1416   -4.0701 H   0  0  0  0  0  0  0  0  0  0  0  0
    4.3987    0.6839   -2.5623 H   0  0  0  0  0  0  0  0  0  0  0  0
    5.4127   -1.4388   -3.1126 H   0  0  0  0  0  0  0  0  0  0  0  0
    2.9029   -1.9840   -4.0713 H   0  0  0  0  0  0  0  0  0  0  0  0
    4.2502   -3.0777   -3.9829 H   0  0  0  0  0  0  0  0  0  0  0  0
    1.7635   -2.9096   -2.2551 H   0  0  0  0  0  0  0  0  0  0  0  0
    2.5389   -4.2092   -3.0719 H   0  0  0  0  0  0  0  0  0  0  0  0
    3.6999   -4.8605   -1.1207 H   0  0  0  0  0  0  0  0  0  0  0  0
    1.8243   -2.8992    0.0404 H   0  0  0  0  0  0  0  0  0  0  0  0
    1.3933   -5.0350    1.4334 H   0  0  0  0  0  0  0  0  0  0  0  0
    1.3749   -5.8874   -1.5025 H   0  0  0  0  0  0  0  0  0  0  0  0
    0.3755   -4.7048   -1.1162 H   0  0  0  0  0  0  0  0  0  0  0  0
    0.3722   -6.2522   -0.2471 H   0  0  0  0  0  0  0  0  0  0  0  0
    2.3546   -6.9030    1.4173 H   0  0  0  0  0  0  0  0  0  0  0  0
    3.4178   -6.5846    0.0662 H   0  0  0  0  0  0  0  0  0  0  0  0
    3.4716   -5.5101    2.8937 H   0  0  0  0  0  0  0  0  0  0  0  0
    4.7526   -6.2724    2.0543 H   0  0  0  0  0  0  0  0  0  0  0  0
    5.6604   -3.0401    2.7265 H   0  0  0  0  0  0  0  0  0  0  0  0
    6.2301   -3.1378    0.7657 H   0  0  0  0  0  0  0  0  0  0  0  0
    5.8647   -5.9494   -0.1775 H   0  0  0  0  0  0  0  0  0  0  0  0
    6.7187   -5.5052    1.3000 H   0  0  0  0  0  0  0  0  0  0  0  0
    7.2835   -4.8811   -0.2628 H   0  0  0  0  0  0  0  0  0  0  0  0
    5.4992   -4.6869   -2.0680 H   0  0  0  0  0  0  0  0  0  0  0  0
    3.5684   -1.5854   -0.8907 H   0  0  0  0  0  0  0  0  0  0  0  0
    6.1890   -1.1818    0.2707 H   0  0  0  0  0  0  0  0  0  0  0  0
    5.5591    0.0805   -0.6894 H   0  0  0  0  0  0  0  0  0  0  0  0
    4.6296    0.3829    1.4660 H   0  0  0  0  0  0  0  0  0  0  0  0
    3.3314    0.0075    0.4301 H   0  0  0  0  0  0  0  0  0  0  0  0
    4.5492   -1.5947    2.5952 H   0  0  0  0  0  0  0  0  0  0  0  0
    2.5997   -0.7277    3.4717 H   0  0  0  0  0  0  0  0  0  0  0  0
    1.6679   -1.0754    1.9319 H   0  0  0  0  0  0  0  0  0  0  0  0
    3.1921   -3.0027    3.7704 H   0  0  0  0  0  0  0  0  0  0  0  0
    1.4581   -4.1901    3.6814 H   0  0  0  0  0  0  0  0  0  0  0  0
  1  2  1  0
  1 25  1  0
  1 26  1  0
  1 27  1  0
  2 17  1  0
  2  3  1  0
  2 28  1  6
  3  4  1  0
  3 29  1  0
  3 30  1  0
  4  5  1  0
  4 31  1  0
  4 32  1  0
  5 15  1  0
  5  6  1  0
  5 33  1  6
  6 24  1  0
  6  7  1  0
  6 34  1  6
  7  8  1  0
  7  9  1  0
  7 35  1  1
  8 36  1  0
  8 37  1  0
  8 38  1  0
  9 10  1  0
  9 39  1  0
  9 40  1  0
 10 11  1  0
 10 41  1  0
 10 42  1  0
 24 11  1  1
 11 12  1  1
 11 13  1  0
 12 43  1  0
 13 14  1  0
 13 15  1  0
 13 44  1  1
 14 45  1  0
 14 46  1  0
 14 47  1  0
 15 16  1  6
 15 17  1  0
 16 48  1  0
 17 18  1  0
 17 49  1  1
 18 19  1  0
 18 50  1  0
 18 51  1  0
 19 20  1  0
 19 52  1  0
 19 53  1  0
 20 24  1  0
 20 21  1  0
 20 54  1  1
 21 22  1  0
 21 55  1  0
 21 56  1  0
 22 23  1  0
 22 24  1  0
 22 57  1  1
 23 58  1  0
M  END
>  <i_m_ct_stereo_status>  (90) 
1

>  <s_m_source_file>  (90) 
/var/tmp/pbs.5076255.sched01/tmp7v4tqmxt/0pyfftbwv.sdf

>  <i_m_source_file_index>  (90) 
37

>  <i_lp_mmshare_version>  (90) 
48012

>  <i_f3d_flags>  (90) 
0

>  <s_epik_input>  (90) 
W09IXVtDQEBIXTFbQ0gyXVtDQEBIXTJbQ0gyXVtDSDJdW0NAQEhdKFtDQEhdKFtDSDNdKVtDSDJdW0NIMl0zKVtDQF0oW09IXSkoW0NASF0zW0NAQEhdNFtDQF0xMjUpW0NASF0oW0NIM10pW0NAXTUoW09IXSlbQ0gyXVtDSDJdW0NAQEhdNFtDSDNd

>  <s_epik_cmdline>  (90) 
J2VwaWtfcHl0aG9uJywgJy1waHQnLCAnMi4wJywgJy1waCcsICc3LjAnLCAnLXRuJywgJzgnLCAnLW1hJywgJzIwMCcsICctaW1hZScsICc8aW5maWxlLm1hZT4nLCAnLW9tYWUnLCAnPG91dGZpbGUubWFlPic=

>  <r_lp_tautomer_probability>  (90) 
1

>  <r_epik_Ionization_Penalty>  (90) 
2.31074e-05

>  <r_epik_Ionization_Penalty_Charging>  (90) 
0

>  <r_epik_Ionization_Penalty_Neutral>  (90) 
2.31074e-05

>  <r_epik_State_Penalty>  (90) 
-0

>  <r_epik_Charging_Adjusted_Penalty>  (90) 
0

>  <i_epik_Tot_Q>  (90) 
0

>  <i_epik_Tot_abs_Q>  (90) 
0

>  <s_lp_Force_Field>  (90) 
OPLS3e

>  <r_lp_Energy>  (90) 
108.344

>  <b_lp_Chiralities_Consistent>  (90) 
1

>  <s_lp_Variant>  (90) 
30:0-1

>  <s_i_glide_gridfile>  (90) 
pfpi4k_grid

>  <i_i_glide_lignum>  (90) 
37

>  <i_i_glide_rotatable_bonds>  (90) 
3

>  <r_i_docking_score>  (90) 
-1.85527

>  <r_i_glide_ligand_efficiency>  (90) 
-0.0773029

>  <r_i_glide_ligand_efficiency_sa>  (90) 
-0.22298

>  <r_i_glide_ligand_efficiency_ln>  (90) 
-0.444051

>  <r_i_glide_gscore>  (90) 
-1.85527

>  <r_i_glide_lipo>  (90) 
-0.693775

>  <r_i_glide_hbond>  (90) 
0

>  <r_i_glide_metal>  (90) 
-0

>  <r_i_glide_rewards>  (90) 
-1.12846

>  <r_i_glide_evdw>  (90) 
-1.24012

>  <r_i_glide_ecoul>  (90) 
0.19312

>  <r_i_glide_erotb>  (90) 
0

>  <r_i_glide_esite>  (90) 
0

>  <r_i_glide_emodel>  (90) 
-3.26815

>  <r_i_glide_energy>  (90) 
-1.047

>  <r_i_glide_einternal>  (90) 
1.4804

>  <r_i_glide_intrahb_reward>  (90) 
-0

>  <i_i_glide_confnum>  (90) 
1

>  <i_i_glide_posenum>  (90) 
13

>  <r_i_glide_eff_state_penalty>  (90) 
0

>  <ligand_id>  (90) 
30

>  <original_smiles>  (90) 
CC1CCC2C3C(C)CCC4(O)C(C)C2(O)C1CCC1CC(O)C134

>  <smiles>  (90) 
[H]OC1([H])C([H])([H])C2([H])C([H])([H])C([H])([H])C3([H])C([H])(C([H])([H])[H])C([H])([H])C([H])([H])C4([H])C5([H])C([H])(C([H])([H])[H])C([H])([H])C([H])([H])C(O[H])(C([H])(C([H])([H])[H])C34O[H])C125

$$$$
31:0:0
     RDKit          3D

 60 66  0  0  1  0  0  0  0  0999 V2000
   -4.5046    3.7152    2.0122 C   0  0  0  0  0  0  0  0  0  0  0  0
   -3.1633    3.7330    2.4723 O   0  0  0  0  0  0  0  0  0  0  0  0
   -2.9422    3.0493    3.7035 C   0  0  0  0  0  0  0  0  0  0  0  0
   -1.4469    2.7166    3.9134 C   0  0  1  0  0  0  0  0  0  0  0  0
   -1.0128    1.5357    3.0906 C   0  0  0  0  0  0  0  0  0  0  0  0
    0.2666    1.2064    3.2248 C   0  0  0  0  0  0  0  0  0  0  0  0
    1.3334    2.1928    2.7872 C   0  0  2  0  0  0  0  0  0  0  0  0
    2.6711    1.4105    2.9769 C   0  0  0  0  0  0  0  0  0  0  0  0
    2.1816   -0.0011    3.3315 C   0  0  1  0  0  0  0  0  0  0  0  0
    1.8835   -0.7189    1.9608 C   0  0  0  0  0  0  0  0  0  0  0  0
    3.0078   -1.0135    4.1245 C   0  0  0  0  0  0  0  0  0  0  0  0
    1.9052   -1.8495    4.8195 C   0  0  0  0  0  0  0  0  0  0  0  0
    0.5295   -1.1712    4.5071 C   0  0  0  0  0  0  0  0  0  0  0  0
    0.9403    0.2956    4.2365 C   0  0  2  0  0  0  0  0  0  0  0  0
    1.1398    1.0010    5.6824 C   0  0  1  0  0  0  0  0  0  0  0  0
    2.4791    1.1066    6.1251 O   0  0  0  0  0  0  0  0  0  0  0  0
    0.3221    2.2871    6.2299 C   0  0  1  0  0  0  0  0  0  0  0  0
    0.7317    3.3975    5.9175 C   0  0  1  0  0  0  0  0  0  0  0  0
    1.7760    3.8661    4.8161 C   0  0  1  0  0  0  0  0  0  0  0  0
    3.1352    3.5343    5.0554 O   0  0  0  0  0  0  0  0  0  0  0  0
    3.6533    4.0784    6.2630 C   0  0  0  0  0  0  0  0  0  0  0  0
    1.0975    3.6001    3.4543 C   0  0  2  0  0  0  0  0  0  0  0  0
   -0.4244    3.8590    3.8344 C   0  0  1  0  0  0  0  0  0  0  0  0
   -0.8339    5.0969    3.2818 O   0  0  0  0  0  0  0  0  0  0  0  0
   -0.6077    3.6969    5.4353 C   0  0  2  0  0  0  0  0  0  0  0  0
   -0.8806    2.5545    5.3741 C   0  0  2  0  0  0  0  0  0  0  0  0
   -2.0492    2.1711    6.2255 O   0  0  0  0  0  0  0  0  0  0  0  0
   -2.2589    2.6730    7.5550 C   0  0  0  0  0  0  0  0  0  0  0  0
   -4.5908    4.3042    1.0955 H   0  0  0  0  0  0  0  0  0  0  0  0
   -5.1988    4.1381    2.7387 H   0  0  0  0  0  0  0  0  0  0  0  0
   -4.8228    2.7007    1.7686 H   0  0  0  0  0  0  0  0  0  0  0  0
   -3.3379    3.6340    4.5327 H   0  0  0  0  0  0  0  0  0  0  0  0
   -3.5370    2.1428    3.6782 H   0  0  0  0  0  0  0  0  0  0  0  0
   -1.1807    2.0003    2.1261 H   0  0  0  0  0  0  0  0  0  0  0  0
    1.1736    2.3319    1.7147 H   0  0  0  0  0  0  0  0  0  0  0  0
    3.2743    1.4248    2.0724 H   0  0  0  0  0  0  0  0  0  0  0  0
    3.3228    1.7594    3.7591 H   0  0  0  0  0  0  0  0  0  0  0  0
    1.4874   -1.7298    2.0760 H   0  0  0  0  0  0  0  0  0  0  0  0
    2.8017   -0.8294    1.3830 H   0  0  0  0  0  0  0  0  0  0  0  0
    1.1863   -0.1804    1.3157 H   0  0  0  0  0  0  0  0  0  0  0  0
    3.6322   -1.6338    3.4841 H   0  0  0  0  0  0  0  0  0  0  0  0
    3.6822   -0.5452    4.8358 H   0  0  0  0  0  0  0  0  0  0  0  0
    1.9176   -2.8890    4.4888 H   0  0  0  0  0  0  0  0  0  0  0  0
    2.1054   -1.8566    5.8921 H   0  0  0  0  0  0  0  0  0  0  0  0
    0.0336   -1.6376    3.6565 H   0  0  0  0  0  0  0  0  0  0  0  0
   -0.1652   -1.2859    5.3386 H   0  0  0  0  0  0  0  0  0  0  0  0
    0.8154    0.2366    6.3866 H   0  0  0  0  0  0  0  0  0  0  0  0
    2.8984    1.7854    5.6108 H   0  0  0  0  0  0  0  0  0  0  0  0
    0.2818    2.2287    7.3242 H   0  0  0  0  0  0  0  0  0  0  0  0
    0.9115    3.9531    6.8822 H   0  0  0  0  0  0  0  0  0  0  0  0
    1.7757    4.9593    4.8684 H   0  0  0  0  0  0  0  0  0  0  0  0
    4.7024    3.8062    6.3561 H   0  0  0  0  0  0  0  0  0  0  0  0
    3.1360    3.6954    7.1436 H   0  0  0  0  0  0  0  0  0  0  0  0
    3.5774    5.1656    6.2605 H   0  0  0  0  0  0  0  0  0  0  0  0
    1.4652    4.3597    2.7535 H   0  0  0  0  0  0  0  0  0  0  0  0
   -0.6292    5.0433    2.3355 H   0  0  0  0  0  0  0  0  0  0  0  0
   -1.3817    4.3001    5.9133 H   0  0  0  0  0  0  0  0  0  0  0  0
   -3.0914    2.1253    7.9944 H   0  0  0  0  0  0  0  0  0  0  0  0
   -2.5870    3.7157    7.5667 H   0  0  0  0  0  0  0  0  0  0  0  0
   -1.3997    2.5486    8.2145 H   0  0  0  0  0  0  0  0  0  0  0  0
  1  2  1  0
  1 29  1  0
  1 30  1  0
  1 31  1  0
  2  3  1  0
  4  3  1  1
  3 32  1  0
  3 33  1  0
  4 23  1  0
  4 26  1  0
  4  5  1  0
  5  6  2  0
  5 34  1  0
  6 14  1  0
  6  7  1  0
  7 22  1  0
  7  8  1  0
  7 35  1  6
  8  9  1  0
  8 36  1  0
  8 37  1  0
  9 14  1  0
  9 10  1  6
  9 11  1  0
 10 38  1  0
 10 39  1  0
 10 40  1  0
 11 12  1  0
 11 41  1  0
 11 42  1  0
 12 13  1  0
 12 43  1  0
 12 44  1  0
 14 13  1  1
 13 45  1  0
 13 46  1  0
 14 15  1  0
 15 16  1  0
 15 17  1  0
 15 47  1  1
 16 48  1  0
 17 25  1  0
 17 18  1  0
 17 49  1  1
 18 26  1  0
 18 19  1  0
 18 50  1  1
 19 20  1  0
 19 22  1  0
 19 51  1  1
 20 21  1  0
 21 52  1  0
 21 53  1  0
 21 54  1  0
 22 23  1  0
 22 55  1  6
 23 24  1  6
 23 25  1  0
 24 56  1  0
 25 26  1  0
 25 57  1  1
 26 27  1  1
 27 28  1  0
 28 58  1  0
 28 59  1  0
 28 60  1  0
M  END
>  <i_m_ct_stereo_status>  (91) 
1

>  <s_m_source_file>  (91) 
/var/tmp/pbs.5076255.sched01/tmp7v4tqmxt/0pyfftbwv.sdf

>  <i_m_source_file_index>  (91) 
38

>  <i_lp_mmshare_version>  (91) 
48012

>  <i_f3d_flags>  (91) 
0

>  <s_epik_input>  (91) 
W09IXVtDQEhdMVtDQEhdKFtDQEBIXTIzKVtDQEBIXShbQ0BIXTRPW0NIM10pW0NAXTMoT1tDSDNdKVtDQEBdKFtDSF09NSkoW0NIMl1PW0NIM10pW0NAXTIoW09IXSlbQ0BASF00W0NASF0oQzVbQ0BdMTY3KVtDSDJdW0NAQF02KFtDSDNdKVtDSDJdW0NIMl1bQ0gyXTc=

>  <s_epik_cmdline>  (91) 
J2VwaWtfcHl0aG9uJywgJy1waHQnLCAnMi4wJywgJy1waCcsICc3LjAnLCAnLXRuJywgJzgnLCAnLW1hJywgJzIwMCcsICctaW1hZScsICc8aW5maWxlLm1hZT4nLCAnLW9tYWUnLCAnPG91dGZpbGUubWFlPic=

>  <r_lp_tautomer_probability>  (91) 
1

>  <r_epik_Ionization_Penalty>  (91) 
5.45124e-07

>  <r_epik_Ionization_Penalty_Charging>  (91) 
0

>  <r_epik_Ionization_Penalty_Neutral>  (91) 
5.45124e-07

>  <r_epik_State_Penalty>  (91) 
-0

>  <r_epik_Charging_Adjusted_Penalty>  (91) 
0

>  <i_epik_Tot_Q>  (91) 
0

>  <i_epik_Tot_abs_Q>  (91) 
0

>  <s_lp_Force_Field>  (91) 
OPLS3e

>  <r_lp_Energy>  (91) 
496.869

>  <b_lp_Chiralities_Consistent>  (91) 
1

>  <s_lp_Variant>  (91) 
31:0-1

>  <s_i_glide_gridfile>  (91) 
pfpi4k_grid

>  <i_i_glide_lignum>  (91) 
38

>  <i_i_glide_rotatable_bonds>  (91) 
6

>  <r_i_docking_score>  (91) 
-3.6149

>  <r_i_glide_ligand_efficiency>  (91) 
-0.129103

>  <r_i_glide_ligand_efficiency_sa>  (91) 
-0.392034

>  <r_i_glide_ligand_efficiency_ln>  (91) 
-0.834424

>  <r_i_glide_gscore>  (91) 
-3.6149

>  <r_i_glide_lipo>  (91) 
-0.358664

>  <r_i_glide_hbond>  (91) 
0

>  <r_i_glide_metal>  (91) 
-0

>  <r_i_glide_rewards>  (91) 
-1.26025

>  <r_i_glide_evdw>  (91) 
-21.3404

>  <r_i_glide_ecoul>  (91) 
-7.05377

>  <r_i_glide_erotb>  (91) 
0.129097

>  <r_i_glide_esite>  (91) 
0

>  <r_i_glide_emodel>  (91) 
-35.2824

>  <r_i_glide_energy>  (91) 
-28.3941

>  <r_i_glide_einternal>  (91) 
9.52979

>  <r_i_glide_intrahb_reward>  (91) 
-0.5

>  <i_i_glide_confnum>  (91) 
4

>  <i_i_glide_posenum>  (91) 
3

>  <r_i_glide_eff_state_penalty>  (91) 
0

>  <ligand_id>  (91) 
31

>  <original_smiles>  (91) 
COCC12C=C3C4CC5(C)CCCC35C(O)C3C5C(OC)C4C1(O)C3C52OC

>  <smiles>  (91) 
[H]OC1([H])C2([H])C3([H])C([H])(OC([H])([H])[H])C4([H])C5([H])C(=C([H])C6(C([H])([H])OC([H])([H])[H])C4(O[H])C2([H])C36OC([H])([H])[H])C12C([H])([H])C([H])([H])C([H])([H])C2(C([H])([H])[H])C5([H])[H]

$$$$
31:0:1
     RDKit          3D

 60 66  0  0  1  0  0  0  0  0999 V2000
   -4.4497    3.5874    2.1223 C   0  0  0  0  0  0  0  0  0  0  0  0
   -3.0755    3.6354    2.4814 O   0  0  0  0  0  0  0  0  0  0  0  0
   -2.7702    3.0652    3.7387 C   0  0  0  0  0  0  0  0  0  0  0  0
   -1.2608    2.7639    3.8404 C   0  0  1  0  0  0  0  0  0  0  0  0
   -0.8297    1.6056    2.9803 C   0  0  0  0  0  0  0  0  0  0  0  0
    0.4717    1.3122    3.0915 C   0  0  0  0  0  0  0  0  0  0  0  0
    1.4785    2.3384    2.6391 C   0  0  2  0  0  0  0  0  0  0  0  0
    2.8400    1.5911    2.7497 C   0  0  0  0  0  0  0  0  0  0  0  0
    2.4078    0.1626    3.1039 C   0  0  1  0  0  0  0  0  0  0  0  0
    2.0813   -0.5282    1.7294 C   0  0  0  0  0  0  0  0  0  0  0  0
    3.3046   -0.8398    3.8225 C   0  0  0  0  0  0  0  0  0  0  0  0
    2.2585   -1.7286    4.5373 C   0  0  0  0  0  0  0  0  0  0  0  0
    0.8527   -1.0870    4.3069 C   0  0  0  0  0  0  0  0  0  0  0  0
    1.2045    0.3980    4.0740 C   0  0  2  0  0  0  0  0  0  0  0  0
    1.4429    1.0584    5.5479 C   0  0  1  0  0  0  0  0  0  0  0  0
    2.8002    1.2242    5.9149 O   0  0  0  0  0  0  0  0  0  0  0  0
    0.6000    2.3220    6.1534 C   0  0  1  0  0  0  0  0  0  0  0  0
    0.9679    3.4455    5.7814 C   0  0  1  0  0  0  0  0  0  0  0  0
    1.9539    3.9694    4.6760 C   0  0  1  0  0  0  0  0  0  0  0  0
    3.3344    3.6722    4.8416 O   0  0  0  0  0  0  0  0  0  0  0  0
    3.9000    4.2001    6.0367 C   0  0  0  0  0  0  0  0  0  0  0  0
    1.2185    3.7269    3.3428 C   0  0  2  0  0  0  0  0  0  0  0  0
   -0.2865    3.9349    3.8094 C   0  0  1  0  0  0  0  0  0  0  0  0
   -0.7484    5.1704    3.2825 O   0  0  0  0  0  0  0  0  0  0  0  0
   -0.4155    3.6925    5.4326 C   0  0  2  0  0  0  0  0  0  0  0  0
   -0.5890    2.5241    5.2286 C   0  0  2  0  0  0  0  0  0  0  0  0
   -1.7343    2.1174    6.0920 O   0  0  0  0  0  0  0  0  0  0  0  0
   -2.0183    0.7329    6.0634 C   0  0  0  0  0  0  0  0  0  0  0  0
   -4.5887    4.0809    1.1628 H   0  0  0  0  0  0  0  0  0  0  0  0
   -5.0764    4.0960    2.8557 H   0  0  0  0  0  0  0  0  0  0  0  0
   -4.7923    2.5586    2.0127 H   0  0  0  0  0  0  0  0  0  0  0  0
   -3.0956    3.7313    4.5359 H   0  0  0  0  0  0  0  0  0  0  0  0
   -3.3508    2.1646    3.8642 H   0  0  0  0  0  0  0  0  0  0  0  0
   -1.0455    2.0899    2.0354 H   0  0  0  0  0  0  0  0  0  0  0  0
    1.2698    2.4967    1.5840 H   0  0  0  0  0  0  0  0  0  0  0  0
    3.3748    1.6307    1.8028 H   0  0  0  0  0  0  0  0  0  0  0  0
    3.5320    1.9509    3.4882 H   0  0  0  0  0  0  0  0  0  0  0  0
    1.7084   -1.5454    1.8244 H   0  0  0  0  0  0  0  0  0  0  0  0
    2.9739   -0.6046    1.1056 H   0  0  0  0  0  0  0  0  0  0  0  0
    1.3564    0.0332    1.1462 H   0  0  0  0  0  0  0  0  0  0  0  0
    3.9087   -1.4318    3.1384 H   0  0  0  0  0  0  0  0  0  0  0  0
    4.0013   -0.3747    4.5198 H   0  0  0  0  0  0  0  0  0  0  0  0
    2.2781   -2.7542    4.1829 H   0  0  0  0  0  0  0  0  0  0  0  0
    2.4998   -1.7488    5.6030 H   0  0  0  0  0  0  0  0  0  0  0  0
    0.3293   -1.5247    3.4597 H   0  0  0  0  0  0  0  0  0  0  0  0
    0.1939   -1.2406    5.1613 H   0  0  0  0  0  0  0  0  0  0  0  0
    1.1818    0.2719    6.2516 H   0  0  0  0  0  0  0  0  0  0  0  0
    3.1624    1.9122    5.3729 H   0  0  0  0  0  0  0  0  0  0  0  0
    0.5049    2.2395    7.2499 H   0  0  0  0  0  0  0  0  0  0  0  0
    1.1857    3.9813    6.7579 H   0  0  0  0  0  0  0  0  0  0  0  0
    1.9272    5.0609    4.7512 H   0  0  0  0  0  0  0  0  0  0  0  0
    4.9608    3.9568    6.0708 H   0  0  0  0  0  0  0  0  0  0  0  0
    3.4381    3.7748    6.9319 H   0  0  0  0  0  0  0  0  0  0  0  0
    3.7948    5.2856    6.0730 H   0  0  0  0  0  0  0  0  0  0  0  0
    1.5471    4.5049    2.6476 H   0  0  0  0  0  0  0  0  0  0  0  0
   -0.5747    5.1136    2.3408 H   0  0  0  0  0  0  0  0  0  0  0  0
   -1.2495    4.1512    5.9914 H   0  0  0  0  0  0  0  0  0  0  0  0
   -2.9401    0.5813    6.6188 H   0  0  0  0  0  0  0  0  0  0  0  0
   -1.2221    0.1539    6.5359 H   0  0  0  0  0  0  0  0  0  0  0  0
   -2.1653    0.3930    5.0377 H   0  0  0  0  0  0  0  0  0  0  0  0
  1  2  1  0
  1 29  1  0
  1 30  1  0
  1 31  1  0
  2  3  1  0
  4  3  1  1
  3 32  1  0
  3 33  1  0
  4 23  1  0
  4 26  1  0
  4  5  1  0
  5  6  2  0
  5 34  1  0
  6 14  1  0
  6  7  1  0
  7 22  1  0
  7  8  1  0
  7 35  1  6
  8  9  1  0
  8 36  1  0
  8 37  1  0
  9 14  1  0
  9 10  1  6
  9 11  1  0
 10 38  1  0
 10 39  1  0
 10 40  1  0
 11 12  1  0
 11 41  1  0
 11 42  1  0
 12 13  1  0
 12 43  1  0
 12 44  1  0
 14 13  1  1
 13 45  1  0
 13 46  1  0
 14 15  1  0
 15 16  1  0
 15 17  1  0
 15 47  1  1
 16 48  1  0
 17 25  1  0
 17 18  1  0
 17 49  1  1
 18 26  1  0
 18 19  1  0
 18 50  1  1
 19 20  1  0
 19 22  1  0
 19 51  1  1
 20 21  1  0
 21 52  1  0
 21 53  1  0
 21 54  1  0
 22 23  1  0
 22 55  1  6
 23 24  1  1
 23 25  1  0
 24 56  1  0
 25 26  1  0
 25 57  1  1
 26 27  1  1
 27 28  1  0
 28 58  1  0
 28 59  1  0
 28 60  1  0
M  END
>  <i_m_ct_stereo_status>  (92) 
1

>  <s_m_source_file>  (92) 
/var/tmp/pbs.5076255.sched01/tmp7v4tqmxt/0pyfftbwv.sdf

>  <i_m_source_file_index>  (92) 
38

>  <i_lp_mmshare_version>  (92) 
48012

>  <i_f3d_flags>  (92) 
0

>  <s_epik_input>  (92) 
W09IXVtDQEhdMVtDQEhdKFtDQEBIXTIzKVtDQEBIXShbQ0BIXTRPW0NIM10pW0NAXTMoT1tDSDNdKVtDQEBdKFtDSF09NSkoW0NIMl1PW0NIM10pW0NAXTIoW09IXSlbQ0BASF00W0NASF0oQzVbQ0BdMTY3KVtDSDJdW0NAQF02KFtDSDNdKVtDSDJdW0NIMl1bQ0gyXTc=

>  <s_epik_cmdline>  (92) 
J2VwaWtfcHl0aG9uJywgJy1waHQnLCAnMi4wJywgJy1waCcsICc3LjAnLCAnLXRuJywgJzgnLCAnLW1hJywgJzIwMCcsICctaW1hZScsICc8aW5maWxlLm1hZT4nLCAnLW9tYWUnLCAnPG91dGZpbGUubWFlPic=

>  <r_lp_tautomer_probability>  (92) 
1

>  <r_epik_Ionization_Penalty>  (92) 
5.45124e-07

>  <r_epik_Ionization_Penalty_Charging>  (92) 
0

>  <r_epik_Ionization_Penalty_Neutral>  (92) 
5.45124e-07

>  <r_epik_State_Penalty>  (92) 
-0

>  <r_epik_Charging_Adjusted_Penalty>  (92) 
0

>  <i_epik_Tot_Q>  (92) 
0

>  <i_epik_Tot_abs_Q>  (92) 
0

>  <s_lp_Force_Field>  (92) 
OPLS3e

>  <r_lp_Energy>  (92) 
496.869

>  <b_lp_Chiralities_Consistent>  (92) 
1

>  <s_lp_Variant>  (92) 
31:0-1

>  <s_i_glide_gridfile>  (92) 
pfpi4k_grid

>  <i_i_glide_lignum>  (92) 
38

>  <i_i_glide_rotatable_bonds>  (92) 
6

>  <r_i_docking_score>  (92) 
-3.41771

>  <r_i_glide_ligand_efficiency>  (92) 
-0.122061

>  <r_i_glide_ligand_efficiency_sa>  (92) 
-0.37065

>  <r_i_glide_ligand_efficiency_ln>  (92) 
-0.788909

>  <r_i_glide_gscore>  (92) 
-3.41771

>  <r_i_glide_lipo>  (92) 
-0.288512

>  <r_i_glide_hbond>  (92) 
0

>  <r_i_glide_metal>  (92) 
-0

>  <r_i_glide_rewards>  (92) 
-1.26025

>  <r_i_glide_evdw>  (92) 
-21.5315

>  <r_i_glide_ecoul>  (92) 
-6.14318

>  <r_i_glide_erotb>  (92) 
0.129097

>  <r_i_glide_esite>  (92) 
0

>  <r_i_glide_emodel>  (92) 
-37.8646

>  <r_i_glide_energy>  (92) 
-27.6747

>  <r_i_glide_einternal>  (92) 
2.34093

>  <r_i_glide_intrahb_reward>  (92) 
-0.5

>  <i_i_glide_confnum>  (92) 
4

>  <i_i_glide_posenum>  (92) 
1

>  <r_i_glide_eff_state_penalty>  (92) 
0

>  <ligand_id>  (92) 
31

>  <original_smiles>  (92) 
COCC12C=C3C4CC5(C)CCCC35C(O)C3C5C(OC)C4C1(O)C3C52OC

>  <smiles>  (92) 
[H]OC1([H])C2([H])C3([H])C([H])(OC([H])([H])[H])C4([H])C5([H])C(=C([H])C6(C([H])([H])OC([H])([H])[H])C4(O[H])C2([H])C36OC([H])([H])[H])C12C([H])([H])C([H])([H])C([H])([H])C2(C([H])([H])[H])C5([H])[H]

$$$$
31:0:2
     RDKit          3D

 60 66  0  0  1  0  0  0  0  0999 V2000
    0.2927   -0.6086    3.6764 C   0  0  0  0  0  0  0  0  0  0  0  0
    1.0946   -1.2738    2.7121 O   0  0  0  0  0  0  0  0  0  0  0  0
    2.4673   -1.3239    3.0750 C   0  0  0  0  0  0  0  0  0  0  0  0
    3.3391   -1.8296    1.8972 C   0  0  1  0  0  0  0  0  0  0  0  0
    3.0380   -1.0723    0.6515 C   0  0  0  0  0  0  0  0  0  0  0  0
    3.7679   -1.4174   -0.4160 C   0  0  0  0  0  0  0  0  0  0  0  0
    5.2538   -1.1887   -0.3708 C   0  0  2  0  0  0  0  0  0  0  0  0
    5.7146   -1.5988   -1.8097 C   0  0  0  0  0  0  0  0  0  0  0  0
    4.4196   -1.8683   -2.5477 C   0  0  1  0  0  0  0  0  0  0  0  0
    3.9327   -0.4748   -3.0879 C   0  0  0  0  0  0  0  0  0  0  0  0
    4.3074   -2.7641   -3.7724 C   0  0  0  0  0  0  0  0  0  0  0  0
    2.8370   -3.1999   -3.6674 C   0  0  0  0  0  0  0  0  0  0  0  0
    2.3122   -2.7356   -2.2787 C   0  0  0  0  0  0  0  0  0  0  0  0
    3.5757   -2.5364   -1.4287 C   0  0  2  0  0  0  0  0  0  0  0  0
    3.9965   -3.9781   -0.8449 C   0  0  1  0  0  0  0  0  0  0  0  0
    5.0047   -4.6473   -1.5668 O   0  0  0  0  0  0  0  0  0  0  0  0
    4.1403   -4.3700    0.6976 C   0  0  1  0  0  0  0  0  0  0  0  0
    5.2012   -4.1389    1.2580 C   0  0  1  0  0  0  0  0  0  0  0  0
    6.4257   -3.2328    0.8510 C   0  0  1  0  0  0  0  0  0  0  0  0
    7.2052   -3.7123   -0.2271 O   0  0  0  0  0  0  0  0  0  0  0  0
    8.4576   -3.0710   -0.3951 C   0  0  0  0  0  0  0  0  0  0  0  0
    5.9055   -1.7755    0.9328 C   0  0  2  0  0  0  0  0  0  0  0  0
    4.8541   -1.9033    2.1215 C   0  0  1  0  0  0  0  0  0  0  0  0
    5.3631   -1.2672    3.2779 O   0  0  0  0  0  0  0  0  0  0  0  0
    4.4368   -3.4554    2.2770 C   0  0  2  0  0  0  0  0  0  0  0  0
    3.5010   -3.3565    1.5674 C   0  0  2  0  0  0  0  0  0  0  0  0
    2.2733   -4.0153    2.0945 O   0  0  0  0  0  0  0  0  0  0  0  0
    2.1920   -5.2618    2.8035 C   0  0  0  0  0  0  0  0  0  0  0  0
   -0.7458   -0.6012    3.3526 H   0  0  0  0  0  0  0  0  0  0  0  0
    0.5969    0.4300    3.7981 H   0  0  0  0  0  0  0  0  0  0  0  0
    0.3372   -1.1033    4.6453 H   0  0  0  0  0  0  0  0  0  0  0  0
    2.7888   -0.3217    3.3714 H   0  0  0  0  0  0  0  0  0  0  0  0
    2.5769   -1.9472    3.9618 H   0  0  0  0  0  0  0  0  0  0  0  0
    3.3418   -0.0955    1.0123 H   0  0  0  0  0  0  0  0  0  0  0  0
    5.3706   -0.1124   -0.2847 H   0  0  0  0  0  0  0  0  0  0  0  0
    6.1583   -0.7520   -2.2888 H   0  0  0  0  0  0  0  0  0  0  0  0
    6.3440   -2.4752   -1.8926 H   0  0  0  0  0  0  0  0  0  0  0  0
    2.9596   -0.4886   -3.5807 H   0  0  0  0  0  0  0  0  0  0  0  0
    4.5827   -0.1062   -3.8597 H   0  0  0  0  0  0  0  0  0  0  0  0
    3.9025    0.2806   -2.3102 H   0  0  0  0  0  0  0  0  0  0  0  0
    4.4721   -2.2166   -4.6932 H   0  0  0  0  0  0  0  0  0  0  0  0
    5.0046   -3.5961   -3.7566 H   0  0  0  0  0  0  0  0  0  0  0  0
    2.2070   -2.8115   -4.4683 H   0  0  0  0  0  0  0  0  0  0  0  0
    2.8121   -4.2678   -3.7700 H   0  0  0  0  0  0  0  0  0  0  0  0
    1.8233   -1.7876   -2.4200 H   0  0  0  0  0  0  0  0  0  0  0  0
    1.5619   -3.4071   -1.8475 H   0  0  0  0  0  0  0  0  0  0  0  0
    3.1455   -4.5905   -1.1081 H   0  0  0  0  0  0  0  0  0  0  0  0
    4.5465   -5.2370   -2.1511 H   0  0  0  0  0  0  0  0  0  0  0  0
    3.9656   -5.4627    0.7470 H   0  0  0  0  0  0  0  0  0  0  0  0
    5.5761   -5.1258    1.6479 H   0  0  0  0  0  0  0  0  0  0  0  0
    7.1190   -3.3283    1.6862 H   0  0  0  0  0  0  0  0  0  0  0  0
    8.9404   -3.5094   -1.2705 H   0  0  0  0  0  0  0  0  0  0  0  0
    9.0837   -3.2302    0.4837 H   0  0  0  0  0  0  0  0  0  0  0  0
    8.3285   -2.0010   -0.5664 H   0  0  0  0  0  0  0  0  0  0  0  0
    6.7542   -1.1268    1.2106 H   0  0  0  0  0  0  0  0  0  0  0  0
    6.1746   -1.7025    3.5012 H   0  0  0  0  0  0  0  0  0  0  0  0
    4.1510   -3.7805    3.2748 H   0  0  0  0  0  0  0  0  0  0  0  0
    1.1364   -5.4818    2.9335 H   0  0  0  0  0  0  0  0  0  0  0  0
    2.5926   -5.2192    3.8143 H   0  0  0  0  0  0  0  0  0  0  0  0
    2.6439   -6.1191    2.2688 H   0  0  0  0  0  0  0  0  0  0  0  0
  1  2  1  0
  1 29  1  0
  1 30  1  0
  1 31  1  0
  2  3  1  0
  4  3  1  1
  3 32  1  0
  3 33  1  0
  4 23  1  0
  4 26  1  0
  4  5  1  0
  5  6  2  0
  5 34  1  0
  6 14  1  0
  6  7  1  0
  7 22  1  0
  7  8  1  0
  7 35  1  1
  8  9  1  0
  8 36  1  0
  8 37  1  0
  9 14  1  0
  9 10  1  6
  9 11  1  0
 10 38  1  0
 10 39  1  0
 10 40  1  0
 11 12  1  0
 11 41  1  0
 11 42  1  0
 12 13  1  0
 12 43  1  0
 12 44  1  0
 14 13  1  6
 13 45  1  0
 13 46  1  0
 14 15  1  0
 15 16  1  0
 15 17  1  0
 15 47  1  6
 16 48  1  0
 17 25  1  0
 17 18  1  0
 17 49  1  1
 18 26  1  0
 18 19  1  0
 18 50  1  1
 19 20  1  0
 19 22  1  0
 19 51  1  1
 20 21  1  0
 21 52  1  0
 21 53  1  0
 21 54  1  0
 22 23  1  0
 22 55  1  1
 23 24  1  1
 23 25  1  0
 24 56  1  0
 25 26  1  0
 25 57  1  1
 26 27  1  1
 27 28  1  0
 28 58  1  0
 28 59  1  0
 28 60  1  0
M  END
>  <i_m_ct_stereo_status>  (93) 
1

>  <s_m_source_file>  (93) 
/var/tmp/pbs.5076255.sched01/tmp7v4tqmxt/0pyfftbwv.sdf

>  <i_m_source_file_index>  (93) 
38

>  <i_lp_mmshare_version>  (93) 
48012

>  <i_f3d_flags>  (93) 
0

>  <s_epik_input>  (93) 
W09IXVtDQEhdMVtDQEhdKFtDQEBIXTIzKVtDQEBIXShbQ0BIXTRPW0NIM10pW0NAXTMoT1tDSDNdKVtDQEBdKFtDSF09NSkoW0NIMl1PW0NIM10pW0NAXTIoW09IXSlbQ0BASF00W0NASF0oQzVbQ0BdMTY3KVtDSDJdW0NAQF02KFtDSDNdKVtDSDJdW0NIMl1bQ0gyXTc=

>  <s_epik_cmdline>  (93) 
J2VwaWtfcHl0aG9uJywgJy1waHQnLCAnMi4wJywgJy1waCcsICc3LjAnLCAnLXRuJywgJzgnLCAnLW1hJywgJzIwMCcsICctaW1hZScsICc8aW5maWxlLm1hZT4nLCAnLW9tYWUnLCAnPG91dGZpbGUubWFlPic=

>  <r_lp_tautomer_probability>  (93) 
1

>  <r_epik_Ionization_Penalty>  (93) 
5.45124e-07

>  <r_epik_Ionization_Penalty_Charging>  (93) 
0

>  <r_epik_Ionization_Penalty_Neutral>  (93) 
5.45124e-07

>  <r_epik_State_Penalty>  (93) 
-0

>  <r_epik_Charging_Adjusted_Penalty>  (93) 
0

>  <i_epik_Tot_Q>  (93) 
0

>  <i_epik_Tot_abs_Q>  (93) 
0

>  <s_lp_Force_Field>  (93) 
OPLS3e

>  <r_lp_Energy>  (93) 
496.869

>  <b_lp_Chiralities_Consistent>  (93) 
1

>  <s_lp_Variant>  (93) 
31:0-1

>  <s_i_glide_gridfile>  (93) 
pfpi4k_grid

>  <i_i_glide_lignum>  (93) 
38

>  <i_i_glide_rotatable_bonds>  (93) 
6

>  <r_i_docking_score>  (93) 
-2.66761

>  <r_i_glide_ligand_efficiency>  (93) 
-0.0952718

>  <r_i_glide_ligand_efficiency_sa>  (93) 
-0.289301

>  <r_i_glide_ligand_efficiency_ln>  (93) 
-0.615763

>  <r_i_glide_gscore>  (93) 
-2.66761

>  <r_i_glide_lipo>  (93) 
-0.866549

>  <r_i_glide_hbond>  (93) 
0

>  <r_i_glide_metal>  (93) 
-0

>  <r_i_glide_rewards>  (93) 
-0.760246

>  <r_i_glide_evdw>  (93) 
-19.023

>  <r_i_glide_ecoul>  (93) 
-1.45843

>  <r_i_glide_erotb>  (93) 
0.129097

>  <r_i_glide_esite>  (93) 
0

>  <r_i_glide_emodel>  (93) 
-20.9781

>  <r_i_glide_energy>  (93) 
-20.4814

>  <r_i_glide_einternal>  (93) 
8.10619

>  <r_i_glide_intrahb_reward>  (93) 
-0

>  <i_i_glide_confnum>  (93) 
1

>  <i_i_glide_posenum>  (93) 
29

>  <r_i_glide_eff_state_penalty>  (93) 
0

>  <ligand_id>  (93) 
31

>  <original_smiles>  (93) 
COCC12C=C3C4CC5(C)CCCC35C(O)C3C5C(OC)C4C1(O)C3C52OC

>  <smiles>  (93) 
[H]OC1([H])C2([H])C3([H])C([H])(OC([H])([H])[H])C4([H])C5([H])C(=C([H])C6(C([H])([H])OC([H])([H])[H])C4(O[H])C2([H])C36OC([H])([H])[H])C12C([H])([H])C([H])([H])C([H])([H])C2(C([H])([H])[H])C5([H])[H]

$$$$
33:0:0
     RDKit          3D

 27 29  0  0  1  0  0  0  0  0999 V2000
    3.3618   -0.6504   -4.4705 C   0  0  0  0  0  0  0  0  0  0  0  0
    4.2028   -1.7889   -4.3184 O   0  0  0  0  0  0  0  0  0  0  0  0
    4.2874   -2.3359   -2.9973 C   0  0  1  0  0  0  0  0  0  0  0  0
    5.2502   -3.5471   -2.9409 C   0  0  0  0  0  0  0  0  0  0  0  0
    5.6321   -3.5601   -1.4535 C   0  0  2  0  0  0  0  0  0  0  0  0
    4.3744   -3.8314   -0.5731 C   0  0  0  0  0  0  0  0  0  0  0  0
    3.2409   -2.8202   -0.9265 C   0  0  1  0  0  0  0  0  0  0  0  0
    3.7803   -1.3863   -0.8111 C   0  0  0  0  0  0  0  0  0  0  0  0
    4.8594   -1.3713   -1.9041 C   0  0  1  0  0  0  0  0  0  0  0  0
    6.0753   -2.1040   -1.3129 C   0  0  0  0  0  0  0  0  0  0  0  0
    2.9421   -2.8548   -2.4278 C   0  0  0  0  0  0  0  0  0  0  0  0
    3.4415   -0.2645   -5.4888 H   0  0  0  0  0  0  0  0  0  0  0  0
    3.6547    0.1582   -3.8024 H   0  0  0  0  0  0  0  0  0  0  0  0
    2.3101   -0.8833   -4.2915 H   0  0  0  0  0  0  0  0  0  0  0  0
    4.7983   -4.4840   -3.2665 H   0  0  0  0  0  0  0  0  0  0  0  0
    6.1373   -3.3872   -3.5486 H   0  0  0  0  0  0  0  0  0  0  0  0
    6.4362   -4.2447   -1.1974 H   0  0  0  0  0  0  0  0  0  0  0  0
    4.0300   -4.8542   -0.7231 H   0  0  0  0  0  0  0  0  0  0  0  0
    4.6345   -3.7393    0.4824 H   0  0  0  0  0  0  0  0  0  0  0  0
    2.3477   -2.9853   -0.3258 H   0  0  0  0  0  0  0  0  0  0  0  0
    3.0168   -0.6529   -1.0623 H   0  0  0  0  0  0  0  0  0  0  0  0
    4.1561   -1.1461    0.1842 H   0  0  0  0  0  0  0  0  0  0  0  0
    5.1153   -0.3638   -2.2333 H   0  0  0  0  0  0  0  0  0  0  0  0
    6.2936   -1.8126   -0.2827 H   0  0  0  0  0  0  0  0  0  0  0  0
    6.9685   -1.9173   -1.9092 H   0  0  0  0  0  0  0  0  0  0  0  0
    2.0875   -2.2092   -2.6370 H   0  0  0  0  0  0  0  0  0  0  0  0
    2.6829   -3.8516   -2.7953 H   0  0  0  0  0  0  0  0  0  0  0  0
  1  2  1  0
  1 12  1  0
  1 13  1  0
  1 14  1  0
  3  2  1  6
  3  9  1  0
  3 11  1  0
  3  4  1  0
  4  5  1  0
  4 15  1  0
  4 16  1  0
  5 10  1  0
  5  6  1  0
  5 17  1  6
  6  7  1  0
  6 18  1  0
  6 19  1  0
  7  8  1  0
  7 11  1  0
  7 20  1  1
  8  9  1  0
  8 21  1  0
  8 22  1  0
  9 10  1  0
  9 23  1  6
 10 24  1  0
 10 25  1  0
 11 26  1  0
 11 27  1  0
M  END
>  <i_m_ct_stereo_status>  (94) 
1

>  <s_m_source_file>  (94) 
/var/tmp/pbs.5076255.sched01/tmp7v4tqmxt/0pyfftbwv.sdf

>  <i_m_source_file_index>  (94) 
40

>  <i_lp_mmshare_version>  (94) 
48012

>  <i_f3d_flags>  (94) 
0

>  <s_epik_input>  (94) 
W0NIM11PW0NAXTEyW0NASF0zW0NIMl1bQ0BASF0oW0NIMl0yKVtDSDJdW0NAQEhdKFtDSDJdMSlbQ0gyXTM=

>  <s_epik_cmdline>  (94) 
J2VwaWtfcHl0aG9uJywgJy1waHQnLCAnMi4wJywgJy1waCcsICc3LjAnLCAnLXRuJywgJzgnLCAnLW1hJywgJzIwMCcsICctaW1hZScsICc8aW5maWxlLm1hZT4nLCAnLW9tYWUnLCAnPG91dGZpbGUubWFlPic=

>  <r_lp_tautomer_probability>  (94) 
1

>  <r_epik_Ionization_Penalty>  (94) 
8.81878e-11

>  <r_epik_Ionization_Penalty_Charging>  (94) 
0

>  <r_epik_Ionization_Penalty_Neutral>  (94) 
8.81878e-11

>  <r_epik_State_Penalty>  (94) 
-0

>  <r_epik_Charging_Adjusted_Penalty>  (94) 
0

>  <i_epik_Tot_Q>  (94) 
0

>  <i_epik_Tot_abs_Q>  (94) 
0

>  <s_lp_Force_Field>  (94) 
OPLS3e

>  <r_lp_Energy>  (94) 
37.7837

>  <b_lp_Chiralities_Consistent>  (94) 
1

>  <s_lp_Variant>  (94) 
33:0-1

>  <s_i_glide_gridfile>  (94) 
pfpi4k_grid

>  <i_i_glide_lignum>  (94) 
40

>  <i_i_glide_rotatable_bonds>  (94) 
1

>  <r_i_docking_score>  (94) 
-4.38591

>  <r_i_glide_ligand_efficiency>  (94) 
-0.398719

>  <r_i_glide_ligand_efficiency_sa>  (94) 
-0.886744

>  <r_i_glide_ligand_efficiency_ln>  (94) 
-1.29077

>  <r_i_glide_gscore>  (94) 
-4.38591

>  <r_i_glide_lipo>  (94) 
-0.600489

>  <r_i_glide_hbond>  (94) 
-0.32

>  <r_i_glide_metal>  (94) 
-0

>  <r_i_glide_rewards>  (94) 
-2.25

>  <r_i_glide_evdw>  (94) 
-15.5789

>  <r_i_glide_ecoul>  (94) 
-2.90986

>  <r_i_glide_erotb>  (94) 
0

>  <r_i_glide_esite>  (94) 
0

>  <r_i_glide_emodel>  (94) 
-22.2026

>  <r_i_glide_energy>  (94) 
-18.4888

>  <r_i_glide_einternal>  (94) 
2.13581

>  <r_i_glide_intrahb_reward>  (94) 
-0

>  <i_i_glide_confnum>  (94) 
1

>  <i_i_glide_posenum>  (94) 
15

>  <r_i_glide_eff_state_penalty>  (94) 
0

>  <ligand_id>  (94) 
33

>  <original_smiles>  (94) 
COC12CC3CC(CC1C3)C2

>  <smiles>  (94) 
[H]C([H])([H])OC12C([H])([H])C3([H])C([H])([H])C([H])(C([H])([H])C1([H])C3([H])[H])C2([H])[H]

$$$$
33:0:1
     RDKit          3D

 27 29  0  0  1  0  0  0  0  0999 V2000
    7.5968   -3.3339   -1.3817 C   0  0  0  0  0  0  0  0  0  0  0  0
    6.7524   -2.2055   -1.5474 O   0  0  0  0  0  0  0  0  0  0  0  0
    5.4103   -2.4697   -1.9488 C   0  0  1  0  0  0  0  0  0  0  0  0
    4.5190   -3.0402   -0.8293 C   0  0  0  0  0  0  0  0  0  0  0  0
    3.1397   -2.5622   -1.2940 C   0  0  2  0  0  0  0  0  0  0  0  0
    2.7412   -3.1513   -2.6839 C   0  0  0  0  0  0  0  0  0  0  0  0
    3.8989   -2.9175   -3.7222 C   0  0  1  0  0  0  0  0  0  0  0  0
    4.1964   -1.4154   -3.8065 C   0  0  0  0  0  0  0  0  0  0  0  0
    4.6939   -1.1494   -2.3827 C   0  0  1  0  0  0  0  0  0  0  0  0
    3.4581   -1.1017   -1.4947 C   0  0  0  0  0  0  0  0  0  0  0  0
    5.2263   -3.4198   -3.1519 C   0  0  0  0  0  0  0  0  0  0  0  0
    8.5819   -3.0134   -1.0434 H   0  0  0  0  0  0  0  0  0  0  0  0
    7.7377   -3.8449   -2.3244 H   0  0  0  0  0  0  0  0  0  0  0  0
    7.1825   -4.0212   -0.6453 H   0  0  0  0  0  0  0  0  0  0  0  0
    4.5723   -4.1246   -0.7212 H   0  0  0  0  0  0  0  0  0  0  0  0
    4.7621   -2.5986    0.1412 H   0  0  0  0  0  0  0  0  0  0  0  0
    2.3540   -2.7063   -0.5483 H   0  0  0  0  0  0  0  0  0  0  0  0
    2.4933   -4.2015   -2.5469 H   0  0  0  0  0  0  0  0  0  0  0  0
    1.8214   -2.6720   -3.0422 H   0  0  0  0  0  0  0  0  0  0  0  0
    3.6612   -3.3636   -4.6879 H   0  0  0  0  0  0  0  0  0  0  0  0
    4.9674   -1.1899   -4.5398 H   0  0  0  0  0  0  0  0  0  0  0  0
    3.3212   -0.8287   -4.0769 H   0  0  0  0  0  0  0  0  0  0  0  0
    5.3060   -0.2469   -2.3034 H   0  0  0  0  0  0  0  0  0  0  0  0
    2.6234   -0.6265   -1.9999 H   0  0  0  0  0  0  0  0  0  0  0  0
    3.6415   -0.6150   -0.5454 H   0  0  0  0  0  0  0  0  0  0  0  0
    6.0306   -3.2977   -3.8715 H   0  0  0  0  0  0  0  0  0  0  0  0
    5.1882   -4.4687   -2.8653 H   0  0  0  0  0  0  0  0  0  0  0  0
  1  2  1  0
  1 12  1  0
  1 13  1  0
  1 14  1  0
  3  2  1  1
  3  9  1  0
  3 11  1  0
  3  4  1  0
  4  5  1  0
  4 15  1  0
  4 16  1  0
  5 10  1  0
  5  6  1  0
  5 17  1  1
  6  7  1  0
  6 18  1  0
  6 19  1  0
  7  8  1  0
  7 11  1  0
  7 20  1  6
  8  9  1  0
  8 21  1  0
  8 22  1  0
  9 10  1  0
  9 23  1  6
 10 24  1  0
 10 25  1  0
 11 26  1  0
 11 27  1  0
M  END
>  <i_m_ct_stereo_status>  (95) 
1

>  <s_m_source_file>  (95) 
/var/tmp/pbs.5076255.sched01/tmp7v4tqmxt/0pyfftbwv.sdf

>  <i_m_source_file_index>  (95) 
40

>  <i_lp_mmshare_version>  (95) 
48012

>  <i_f3d_flags>  (95) 
0

>  <s_epik_input>  (95) 
W0NIM11PW0NAXTEyW0NASF0zW0NIMl1bQ0BASF0oW0NIMl0yKVtDSDJdW0NAQEhdKFtDSDJdMSlbQ0gyXTM=

>  <s_epik_cmdline>  (95) 
J2VwaWtfcHl0aG9uJywgJy1waHQnLCAnMi4wJywgJy1waCcsICc3LjAnLCAnLXRuJywgJzgnLCAnLW1hJywgJzIwMCcsICctaW1hZScsICc8aW5maWxlLm1hZT4nLCAnLW9tYWUnLCAnPG91dGZpbGUubWFlPic=

>  <r_lp_tautomer_probability>  (95) 
1

>  <r_epik_Ionization_Penalty>  (95) 
8.81878e-11

>  <r_epik_Ionization_Penalty_Charging>  (95) 
0

>  <r_epik_Ionization_Penalty_Neutral>  (95) 
8.81878e-11

>  <r_epik_State_Penalty>  (95) 
-0

>  <r_epik_Charging_Adjusted_Penalty>  (95) 
0

>  <i_epik_Tot_Q>  (95) 
0

>  <i_epik_Tot_abs_Q>  (95) 
0

>  <s_lp_Force_Field>  (95) 
OPLS3e

>  <r_lp_Energy>  (95) 
37.7837

>  <b_lp_Chiralities_Consistent>  (95) 
1

>  <s_lp_Variant>  (95) 
33:0-1

>  <s_i_glide_gridfile>  (95) 
pfpi4k_grid

>  <i_i_glide_lignum>  (95) 
40

>  <i_i_glide_rotatable_bonds>  (95) 
1

>  <r_i_docking_score>  (95) 
-3.9155

>  <r_i_glide_ligand_efficiency>  (95) 
-0.355955

>  <r_i_glide_ligand_efficiency_sa>  (95) 
-0.791636

>  <r_i_glide_ligand_efficiency_ln>  (95) 
-1.15233

>  <r_i_glide_gscore>  (95) 
-3.9155

>  <r_i_glide_lipo>  (95) 
-0.538205

>  <r_i_glide_hbond>  (95) 
-0.16

>  <r_i_glide_metal>  (95) 
-0

>  <r_i_glide_rewards>  (95) 
-2.25

>  <r_i_glide_evdw>  (95) 
-12.4154

>  <r_i_glide_ecoul>  (95) 
-2.31017

>  <r_i_glide_erotb>  (95) 
0

>  <r_i_glide_esite>  (95) 
0

>  <r_i_glide_emodel>  (95) 
-18.3392

>  <r_i_glide_energy>  (95) 
-14.7256

>  <r_i_glide_einternal>  (95) 
0.624184

>  <r_i_glide_intrahb_reward>  (95) 
-0

>  <i_i_glide_confnum>  (95) 
1

>  <i_i_glide_posenum>  (95) 
22

>  <r_i_glide_eff_state_penalty>  (95) 
0

>  <ligand_id>  (95) 
33

>  <original_smiles>  (95) 
COC12CC3CC(CC1C3)C2

>  <smiles>  (95) 
[H]C([H])([H])OC12C([H])([H])C3([H])C([H])([H])C([H])(C([H])([H])C1([H])C3([H])[H])C2([H])[H]

$$$$
33:0:2
     RDKit          3D

 27 29  0  0  1  0  0  0  0  0999 V2000
    3.5867   -3.4350   -3.9300 C   0  0  0  0  0  0  0  0  0  0  0  0
    4.1311   -2.2639   -3.3367 O   0  0  0  0  0  0  0  0  0  0  0  0
    4.6216   -2.4076   -2.0041 C   0  0  1  0  0  0  0  0  0  0  0  0
    3.5562   -2.7992   -0.9545 C   0  0  0  0  0  0  0  0  0  0  0  0
    4.4400   -3.4028    0.1337 C   0  0  2  0  0  0  0  0  0  0  0  0
    5.3681   -2.3008    0.7304 C   0  0  0  0  0  0  0  0  0  0  0  0
    6.1780   -1.5864   -0.3976 C   0  0  1  0  0  0  0  0  0  0  0  0
    6.9494   -2.6315   -1.2098 C   0  0  0  0  0  0  0  0  0  0  0  0
    5.7913   -3.4396   -1.8210 C   0  0  1  0  0  0  0  0  0  0  0  0
    5.2659   -4.3751   -0.7232 C   0  0  0  0  0  0  0  0  0  0  0  0
    5.2253   -1.0888   -1.4945 C   0  0  0  0  0  0  0  0  0  0  0  0
    3.3149   -3.2037   -4.9552 H   0  0  0  0  0  0  0  0  0  0  0  0
    2.6806   -3.7845   -3.4344 H   0  0  0  0  0  0  0  0  0  0  0  0
    4.3004   -4.2551   -3.9694 H   0  0  0  0  0  0  0  0  0  0  0  0
    2.9780   -1.9439   -0.5976 H   0  0  0  0  0  0  0  0  0  0  0  0
    2.8438   -3.5399   -1.2978 H   0  0  0  0  0  0  0  0  0  0  0  0
    3.8594   -3.9128    0.9006 H   0  0  0  0  0  0  0  0  0  0  0  0
    4.7680   -1.5714    1.2735 H   0  0  0  0  0  0  0  0  0  0  0  0
    6.0465   -2.7486    1.4572 H   0  0  0  0  0  0  0  0  0  0  0  0
    6.8170   -0.8138    0.0185 H   0  0  0  0  0  0  0  0  0  0  0  0
    7.5466   -2.1939   -2.0073 H   0  0  0  0  0  0  0  0  0  0  0  0
    7.6238   -3.2423   -0.6074 H   0  0  0  0  0  0  0  0  0  0  0  0
    6.1134   -3.9438   -2.7249 H   0  0  0  0  0  0  0  0  0  0  0  0
    6.0615   -4.8701   -0.1622 H   0  0  0  0  0  0  0  0  0  0  0  0
    4.6360   -5.1502   -1.1545 H   0  0  0  0  0  0  0  0  0  0  0  0
    5.7642   -0.5704   -2.2799 H   0  0  0  0  0  0  0  0  0  0  0  0
    4.4838   -0.3808   -1.1066 H   0  0  0  0  0  0  0  0  0  0  0  0
  1  2  1  0
  1 12  1  0
  1 13  1  0
  1 14  1  0
  3  2  1  6
  3  9  1  0
  3 11  1  0
  3  4  1  0
  4  5  1  0
  4 15  1  0
  4 16  1  0
  5 10  1  0
  5  6  1  0
  5 17  1  1
  6  7  1  0
  6 18  1  0
  6 19  1  0
  7  8  1  0
  7 11  1  0
  7 20  1  1
  8  9  1  0
  8 21  1  0
  8 22  1  0
  9 10  1  0
  9 23  1  6
 10 24  1  0
 10 25  1  0
 11 26  1  0
 11 27  1  0
M  END
>  <i_m_ct_stereo_status>  (96) 
1

>  <s_m_source_file>  (96) 
/var/tmp/pbs.5076255.sched01/tmp7v4tqmxt/0pyfftbwv.sdf

>  <i_m_source_file_index>  (96) 
40

>  <i_lp_mmshare_version>  (96) 
48012

>  <i_f3d_flags>  (96) 
0

>  <s_epik_input>  (96) 
W0NIM11PW0NAXTEyW0NASF0zW0NIMl1bQ0BASF0oW0NIMl0yKVtDSDJdW0NAQEhdKFtDSDJdMSlbQ0gyXTM=

>  <s_epik_cmdline>  (96) 
J2VwaWtfcHl0aG9uJywgJy1waHQnLCAnMi4wJywgJy1waCcsICc3LjAnLCAnLXRuJywgJzgnLCAnLW1hJywgJzIwMCcsICctaW1hZScsICc8aW5maWxlLm1hZT4nLCAnLW9tYWUnLCAnPG91dGZpbGUubWFlPic=

>  <r_lp_tautomer_probability>  (96) 
1

>  <r_epik_Ionization_Penalty>  (96) 
8.81878e-11

>  <r_epik_Ionization_Penalty_Charging>  (96) 
0

>  <r_epik_Ionization_Penalty_Neutral>  (96) 
8.81878e-11

>  <r_epik_State_Penalty>  (96) 
-0

>  <r_epik_Charging_Adjusted_Penalty>  (96) 
0

>  <i_epik_Tot_Q>  (96) 
0

>  <i_epik_Tot_abs_Q>  (96) 
0

>  <s_lp_Force_Field>  (96) 
OPLS3e

>  <r_lp_Energy>  (96) 
37.7837

>  <b_lp_Chiralities_Consistent>  (96) 
1

>  <s_lp_Variant>  (96) 
33:0-1

>  <s_i_glide_gridfile>  (96) 
pfpi4k_grid

>  <i_i_glide_lignum>  (96) 
40

>  <i_i_glide_rotatable_bonds>  (96) 
1

>  <r_i_docking_score>  (96) 
-3.47769

>  <r_i_glide_ligand_efficiency>  (96) 
-0.316153

>  <r_i_glide_ligand_efficiency_sa>  (96) 
-0.703119

>  <r_i_glide_ligand_efficiency_ln>  (96) 
-1.02348

>  <r_i_glide_gscore>  (96) 
-3.47769

>  <r_i_glide_lipo>  (96) 
-0.355157

>  <r_i_glide_hbond>  (96) 
0

>  <r_i_glide_metal>  (96) 
-0

>  <r_i_glide_rewards>  (96) 
-2.25

>  <r_i_glide_evdw>  (96) 
-14.1933

>  <r_i_glide_ecoul>  (96) 
-1.08576

>  <r_i_glide_erotb>  (96) 
0

>  <r_i_glide_esite>  (96) 
0

>  <r_i_glide_emodel>  (96) 
-17.9766

>  <r_i_glide_energy>  (96) 
-15.2791

>  <r_i_glide_einternal>  (96) 
2.13222

>  <r_i_glide_intrahb_reward>  (96) 
-0

>  <i_i_glide_confnum>  (96) 
1

>  <i_i_glide_posenum>  (96) 
5

>  <r_i_glide_eff_state_penalty>  (96) 
0

>  <ligand_id>  (96) 
33

>  <original_smiles>  (96) 
COC12CC3CC(CC1C3)C2

>  <smiles>  (96) 
[H]C([H])([H])OC12C([H])([H])C3([H])C([H])([H])C([H])(C([H])([H])C1([H])C3([H])[H])C2([H])[H]

$$$$
34:0:0
     RDKit          3D

 54 59  0  0  1  0  0  0  0  0999 V2000
    2.4300   -3.4277   -2.3181 C   0  0  0  0  0  0  0  0  0  0  0  0
    3.7040   -3.2024   -1.7393 O   0  0  0  0  0  0  0  0  0  0  0  0
    3.5000   -2.8498   -0.2955 O   0  0  0  0  0  0  0  0  0  0  0  0
    4.2502   -3.7520    0.5131 C   0  0  2  0  0  0  0  0  0  0  0  0
    5.7416   -3.5660    0.2518 C   0  0  1  0  0  0  0  0  0  0  0  0
    6.4751   -2.3058    0.6671 C   0  0  0  0  0  0  0  0  0  0  0  0
    6.4572   -3.5245    1.5683 C   0  0  1  0  0  0  0  0  0  0  0  0
    5.4216   -3.7330    2.6577 C   0  0  2  0  0  0  0  0  0  0  0  0
    5.5244   -5.1328    3.3608 C   0  0  0  0  0  0  0  0  0  0  0  0
    5.4414   -6.5256    2.6205 C   0  0  2  0  0  0  0  0  0  0  0  0
    6.3740   -7.4872    3.3807 C   0  0  0  0  0  0  0  0  0  0  0  0
    5.8037   -6.5898    1.1249 C   0  0  0  0  0  0  0  0  0  0  0  0
    4.6231   -6.3440    0.1717 C   0  0  0  0  0  0  0  0  0  0  0  0
    3.6510   -5.1987    0.5095 C   0  0  1  0  0  0  0  0  0  0  0  0
    2.7553   -5.3425    1.7961 C   0  0  1  0  0  0  0  0  0  0  0  0
    1.4199   -5.5758    1.3851 O   0  0  0  0  0  0  0  0  0  0  0  0
    1.2953   -7.0476    1.2533 O   0  0  0  0  0  0  0  0  0  0  0  0
    1.8221   -7.5566    2.4565 C   0  0  0  0  0  0  0  0  0  0  0  0
    0.7126   -7.5259    3.5278 C   0  0  0  0  0  0  0  0  0  0  0  0
    2.2543   -9.0053    2.1786 C   0  0  0  0  0  0  0  0  0  0  0  0
    2.9666   -6.5518    2.7626 C   0  0  1  0  0  0  0  0  0  0  0  0
    4.2097   -7.2321    2.7143 O   0  0  0  0  0  0  0  0  0  0  0  0
    2.7787   -3.9321    2.4197 C   0  0  1  0  0  0  0  0  0  0  0  0
    2.4072   -3.7284    3.8933 C   0  0  0  0  0  0  0  0  0  0  0  0
    2.9396   -2.8492    4.5680 O   0  0  0  0  0  0  0  0  0  0  0  0
    4.0946   -3.3258    1.9672 C   0  0  2  0  0  0  0  0  0  0  0  0
    2.5437   -3.7285   -3.3584 H   0  0  0  0  0  0  0  0  0  0  0  0
    1.8316   -2.5210   -2.2986 H   0  0  0  0  0  0  0  0  0  0  0  0
    1.8732   -4.2076   -1.8059 H   0  0  0  0  0  0  0  0  0  0  0  0
    6.1765   -4.1085   -0.5840 H   0  0  0  0  0  0  0  0  0  0  0  0
    7.4180   -2.0921    0.1762 H   0  0  0  0  0  0  0  0  0  0  0  0
    5.9024   -1.4241    0.9612 H   0  0  0  0  0  0  0  0  0  0  0  0
    7.4129   -4.0363    1.6785 H   0  0  0  0  0  0  0  0  0  0  0  0
    5.6150   -2.9952    3.4393 H   0  0  0  0  0  0  0  0  0  0  0  0
    6.5042   -5.0989    3.8412 H   0  0  0  0  0  0  0  0  0  0  0  0
    4.8450   -5.1532    4.2134 H   0  0  0  0  0  0  0  0  0  0  0  0
    7.4156   -7.1722    3.3122 H   0  0  0  0  0  0  0  0  0  0  0  0
    6.3095   -8.5016    2.9884 H   0  0  0  0  0  0  0  0  0  0  0  0
    6.1047   -7.5341    4.4368 H   0  0  0  0  0  0  0  0  0  0  0  0
    6.6685   -5.9753    0.8930 H   0  0  0  0  0  0  0  0  0  0  0  0
    6.1491   -7.5978    0.8947 H   0  0  0  0  0  0  0  0  0  0  0  0
    5.0150   -6.1882   -0.8308 H   0  0  0  0  0  0  0  0  0  0  0  0
    4.0411   -7.2616    0.1065 H   0  0  0  0  0  0  0  0  0  0  0  0
    2.9551   -5.2421   -0.3233 H   0  0  0  0  0  0  0  0  0  0  0  0
    1.0872   -7.8936    4.4868 H   0  0  0  0  0  0  0  0  0  0  0  0
   -0.1235   -8.1688    3.2419 H   0  0  0  0  0  0  0  0  0  0  0  0
    0.3214   -6.5200    3.6874 H   0  0  0  0  0  0  0  0  0  0  0  0
    2.7120   -9.4624    3.0587 H   0  0  0  0  0  0  0  0  0  0  0  0
    2.9715   -9.0593    1.3583 H   0  0  0  0  0  0  0  0  0  0  0  0
    1.3959   -9.6183    1.8969 H   0  0  0  0  0  0  0  0  0  0  0  0
    2.8562   -6.2577    3.8025 H   0  0  0  0  0  0  0  0  0  0  0  0
    2.0204   -3.3661    1.8769 H   0  0  0  0  0  0  0  0  0  0  0  0
    1.6315   -4.3901    4.2834 H   0  0  0  0  0  0  0  0  0  0  0  0
    4.0088   -2.2398    2.0088 H   0  0  0  0  0  0  0  0  0  0  0  0
  1  2  1  0
  1 27  1  0
  1 28  1  0
  1 29  1  0
  2  3  1  0
  4  3  1  6
  4 14  1  0
  4 26  1  0
  4  5  1  0
  5  7  1  0
  5  6  1  0
  5 30  1  6
  6  7  1  0
  6 31  1  0
  6 32  1  0
  7  8  1  0
  7 33  1  6
  8 26  1  0
  8  9  1  0
  8 34  1  1
  9 10  1  0
  9 35  1  0
  9 36  1  0
 10 22  1  0
 10 11  1  1
 10 12  1  0
 11 37  1  0
 11 38  1  0
 11 39  1  0
 12 13  1  0
 12 40  1  0
 12 41  1  0
 13 14  1  0
 13 42  1  0
 13 43  1  0
 14 15  1  0
 14 44  1  6
 15 21  1  0
 15 16  1  6
 15 23  1  0
 16 17  1  0
 17 18  1  0
 18 19  1  0
 18 20  1  0
 18 21  1  0
 19 45  1  0
 19 46  1  0
 19 47  1  0
 20 48  1  0
 20 49  1  0
 20 50  1  0
 21 22  1  0
 21 51  1  1
 23 24  1  0
 23 26  1  0
 23 52  1  6
 24 25  2  0
 24 53  1  0
 26 54  1  6
M  END
>  <i_m_ct_stereo_status>  (97) 
1

>  <s_m_source_file>  (97) 
/var/tmp/pbs.5076255.sched01/tmp7v4tqmxt/0pyfftbwv.sdf

>  <i_m_source_file_index>  (97) 
41

>  <i_lp_mmshare_version>  (97) 
48012

>  <i_f3d_flags>  (97) 
0

>  <s_epik_input>  (97) 
W0NIM11PT1tDQEBdMShbQ0BASF0yW0NAQF0zNDUpW0NAQEhdNltDQEBIXShbQ0gyXTYpW0NAQEhdKFtDQEBIXTFbQ0BASF01W0NIXT1PKVtDSDJdW0NAXShbQ0gzXSkoW0NIMl1bQ0gyXTIpT1tDQEBIXTRDKE9PMykoW0NIM10pW0NIM10=

>  <s_epik_cmdline>  (97) 
J2VwaWtfcHl0aG9uJywgJy1waHQnLCAnMi4wJywgJy1waCcsICc3LjAnLCAnLXRuJywgJzgnLCAnLW1hJywgJzIwMCcsICctaW1hZScsICc8aW5maWxlLm1hZT4nLCAnLW9tYWUnLCAnPG91dGZpbGUubWFlPic=

>  <r_lp_tautomer_probability>  (97) 
1

>  <r_epik_Ionization_Penalty>  (97) 
2.34249e-05

>  <r_epik_Ionization_Penalty_Charging>  (97) 
0

>  <r_epik_Ionization_Penalty_Neutral>  (97) 
2.34249e-05

>  <r_epik_State_Penalty>  (97) 
-0

>  <r_epik_Charging_Adjusted_Penalty>  (97) 
0

>  <i_epik_Tot_Q>  (97) 
0

>  <i_epik_Tot_abs_Q>  (97) 
0

>  <s_lp_Force_Field>  (97) 
OPLS3e

>  <r_lp_Energy>  (97) 
56.8974

>  <b_lp_Chiralities_Consistent>  (97) 
1

>  <s_lp_Variant>  (97) 
34:0-1

>  <s_i_glide_gridfile>  (97) 
pfpi4k_grid

>  <i_i_glide_lignum>  (97) 
41

>  <i_i_glide_rotatable_bonds>  (97) 
3

>  <r_i_docking_score>  (97) 
-2.84611

>  <r_i_glide_ligand_efficiency>  (97) 
-0.109466

>  <r_i_glide_ligand_efficiency_sa>  (97) 
-0.324292

>  <r_i_glide_ligand_efficiency_ln>  (97) 
-0.668399

>  <r_i_glide_gscore>  (97) 
-2.84611

>  <r_i_glide_lipo>  (97) 
-0.633792

>  <r_i_glide_hbond>  (97) 
-0.117492

>  <r_i_glide_metal>  (97) 
-0

>  <r_i_glide_rewards>  (97) 
-0.925556

>  <r_i_glide_evdw>  (97) 
-18.5435

>  <r_i_glide_ecoul>  (97) 
-2.57896

>  <r_i_glide_erotb>  (97) 
0.144752

>  <r_i_glide_esite>  (97) 
0

>  <r_i_glide_emodel>  (97) 
-24.6559

>  <r_i_glide_energy>  (97) 
-21.1225

>  <r_i_glide_einternal>  (97) 
1.1021

>  <r_i_glide_intrahb_reward>  (97) 
-0

>  <i_i_glide_confnum>  (97) 
1

>  <i_i_glide_posenum>  (97) 
2

>  <r_i_glide_eff_state_penalty>  (97) 
0

>  <ligand_id>  (97) 
34

>  <original_smiles>  (97) 
COOC12C3CC3C3CC4(C)CCC1C1(OOC(C)(C)C1O4)C(C=O)C32

>  <smiles>  (97) 
[H]C(=O)C1([H])C2([H])C3([H])C([H])([H])C4(C([H])([H])[H])OC5([H])C(C([H])([H])[H])(C([H])([H])[H])OOC51C([H])(C([H])([H])C4([H])[H])C2(OOC([H])([H])[H])C1([H])C([H])([H])C31[H]

$$$$
34:0:1
     RDKit          3D

 54 59  0  0  1  0  0  0  0  0999 V2000
    2.3174   -3.3794   -2.5508 C   0  0  0  0  0  0  0  0  0  0  0  0
    3.5905   -3.0966   -1.9915 O   0  0  0  0  0  0  0  0  0  0  0  0
    3.4009   -2.6583   -0.5645 O   0  0  0  0  0  0  0  0  0  0  0  0
    4.1731   -3.4874    0.2917 C   0  0  2  0  0  0  0  0  0  0  0  0
    5.6590   -3.1905    0.1148 C   0  0  1  0  0  0  0  0  0  0  0  0
    6.2886   -1.8913    0.5632 C   0  0  0  0  0  0  0  0  0  0  0  0
    6.2927   -3.1031    1.4700 C   0  0  1  0  0  0  0  0  0  0  0  0
    5.2168   -3.3811    2.5036 C   0  0  2  0  0  0  0  0  0  0  0  0
    5.3575   -4.7751    3.2098 C   0  0  0  0  0  0  0  0  0  0  0  0
    5.4135   -6.1703    2.4710 C   0  0  2  0  0  0  0  0  0  0  0  0
    6.3582   -7.0690    3.2867 C   0  0  0  0  0  0  0  0  0  0  0  0
    5.8809   -6.2129    1.0098 C   0  0  0  0  0  0  0  0  0  0  0  0
    4.7434   -6.0490   -0.0057 C   0  0  0  0  0  0  0  0  0  0  0  0
    3.6926   -4.9729    0.2864 C   0  0  1  0  0  0  0  0  0  0  0  0
    2.7180   -5.1636    1.4962 C   0  0  1  0  0  0  0  0  0  0  0  0
    1.4243   -5.4731    0.9949 O   0  0  0  0  0  0  0  0  0  0  0  0
    1.3857   -6.9530    0.8814 O   0  0  0  0  0  0  0  0  0  0  0  0
    1.8820   -7.4185    2.1135 C   0  0  0  0  0  0  0  0  0  0  0  0
    0.7089   -7.4635    3.1112 C   0  0  0  0  0  0  0  0  0  0  0  0
    2.4160   -8.8399    1.8594 C   0  0  0  0  0  0  0  0  0  0  0  0
    2.9479   -6.3502    2.4785 C   0  0  1  0  0  0  0  0  0  0  0  0
    4.2291   -6.9579    2.4957 O   0  0  0  0  0  0  0  0  0  0  0  0
    2.6200   -3.7544    2.1041 C   0  0  1  0  0  0  0  0  0  0  0  0
    2.1564   -3.5487    3.5525 C   0  0  0  0  0  0  0  0  0  0  0  0
    1.1173   -4.0511    3.9604 O   0  0  0  0  0  0  0  0  0  0  0  0
    3.9121   -3.0606    1.7317 C   0  0  2  0  0  0  0  0  0  0  0  0
    2.4456   -3.7333   -3.5707 H   0  0  0  0  0  0  0  0  0  0  0  0
    1.7040   -2.4865   -2.5732 H   0  0  0  0  0  0  0  0  0  0  0  0
    1.7588   -4.1393   -2.0120 H   0  0  0  0  0  0  0  0  0  0  0  0
    6.1762   -3.7019   -0.6902 H   0  0  0  0  0  0  0  0  0  0  0  0
    7.2519   -1.6258    0.1214 H   0  0  0  0  0  0  0  0  0  0  0  0
    5.6497   -1.0512    0.8141 H   0  0  0  0  0  0  0  0  0  0  0  0
    7.2667   -3.5510    1.6370 H   0  0  0  0  0  0  0  0  0  0  0  0
    5.3289   -2.6324    3.2875 H   0  0  0  0  0  0  0  0  0  0  0  0
    6.2933   -4.6901    3.7582 H   0  0  0  0  0  0  0  0  0  0  0  0
    4.6264   -4.8392    4.0183 H   0  0  0  0  0  0  0  0  0  0  0  0
    7.3810   -6.6898    3.2712 H   0  0  0  0  0  0  0  0  0  0  0  0
    6.3794   -8.0863    2.8924 H   0  0  0  0  0  0  0  0  0  0  0  0
    6.0336   -7.1343    4.3260 H   0  0  0  0  0  0  0  0  0  0  0  0
    6.7138   -5.5424    0.8205 H   0  0  0  0  0  0  0  0  0  0  0  0
    6.2996   -7.2017    0.8297 H   0  0  0  0  0  0  0  0  0  0  0  0
    5.1623   -5.8482   -0.9895 H   0  0  0  0  0  0  0  0  0  0  0  0
    4.2274   -7.0011   -0.1128 H   0  0  0  0  0  0  0  0  0  0  0  0
    3.0650   -5.0953   -0.5797 H   0  0  0  0  0  0  0  0  0  0  0  0
    1.0499   -7.8049    4.0934 H   0  0  0  0  0  0  0  0  0  0  0  0
   -0.0647   -8.1580    2.7784 H   0  0  0  0  0  0  0  0  0  0  0  0
    0.2462   -6.4848    3.2409 H   0  0  0  0  0  0  0  0  0  0  0  0
    2.8541   -9.2694    2.7637 H   0  0  0  0  0  0  0  0  0  0  0  0
    3.1771   -8.8480    1.0787 H   0  0  0  0  0  0  0  0  0  0  0  0
    1.6159   -9.5057    1.5360 H   0  0  0  0  0  0  0  0  0  0  0  0
    2.7520   -6.0627    3.5110 H   0  0  0  0  0  0  0  0  0  0  0  0
    1.8655   -3.2372    1.5150 H   0  0  0  0  0  0  0  0  0  0  0  0
    2.8044   -2.9095    4.1532 H   0  0  0  0  0  0  0  0  0  0  0  0
    3.7535   -1.9817    1.7575 H   0  0  0  0  0  0  0  0  0  0  0  0
  1  2  1  0
  1 27  1  0
  1 28  1  0
  1 29  1  0
  2  3  1  0
  4  3  1  6
  4 14  1  0
  4 26  1  0
  4  5  1  0
  5  7  1  0
  5  6  1  0
  5 30  1  6
  6  7  1  0
  6 31  1  0
  6 32  1  0
  7  8  1  0
  7 33  1  6
  8 26  1  0
  8  9  1  0
  8 34  1  1
  9 10  1  0
  9 35  1  0
  9 36  1  0
 10 22  1  0
 10 11  1  1
 10 12  1  0
 11 37  1  0
 11 38  1  0
 11 39  1  0
 12 13  1  0
 12 40  1  0
 12 41  1  0
 13 14  1  0
 13 42  1  0
 13 43  1  0
 14 15  1  0
 14 44  1  6
 15 21  1  0
 15 16  1  6
 15 23  1  0
 16 17  1  0
 17 18  1  0
 18 19  1  0
 18 20  1  0
 18 21  1  0
 19 45  1  0
 19 46  1  0
 19 47  1  0
 20 48  1  0
 20 49  1  0
 20 50  1  0
 21 22  1  0
 21 51  1  1
 23 24  1  0
 23 26  1  0
 23 52  1  6
 24 25  2  0
 24 53  1  0
 26 54  1  6
M  END
>  <i_m_ct_stereo_status>  (98) 
1

>  <s_m_source_file>  (98) 
/var/tmp/pbs.5076255.sched01/tmp7v4tqmxt/0pyfftbwv.sdf

>  <i_m_source_file_index>  (98) 
41

>  <i_lp_mmshare_version>  (98) 
48012

>  <i_f3d_flags>  (98) 
0

>  <s_epik_input>  (98) 
W0NIM11PT1tDQEBdMShbQ0BASF0yW0NAQF0zNDUpW0NAQEhdNltDQEBIXShbQ0gyXTYpW0NAQEhdKFtDQEBIXTFbQ0BASF01W0NIXT1PKVtDSDJdW0NAXShbQ0gzXSkoW0NIMl1bQ0gyXTIpT1tDQEBIXTRDKE9PMykoW0NIM10pW0NIM10=

>  <s_epik_cmdline>  (98) 
J2VwaWtfcHl0aG9uJywgJy1waHQnLCAnMi4wJywgJy1waCcsICc3LjAnLCAnLXRuJywgJzgnLCAnLW1hJywgJzIwMCcsICctaW1hZScsICc8aW5maWxlLm1hZT4nLCAnLW9tYWUnLCAnPG91dGZpbGUubWFlPic=

>  <r_lp_tautomer_probability>  (98) 
1

>  <r_epik_Ionization_Penalty>  (98) 
2.34249e-05

>  <r_epik_Ionization_Penalty_Charging>  (98) 
0

>  <r_epik_Ionization_Penalty_Neutral>  (98) 
2.34249e-05

>  <r_epik_State_Penalty>  (98) 
-0

>  <r_epik_Charging_Adjusted_Penalty>  (98) 
0

>  <i_epik_Tot_Q>  (98) 
0

>  <i_epik_Tot_abs_Q>  (98) 
0

>  <s_lp_Force_Field>  (98) 
OPLS3e

>  <r_lp_Energy>  (98) 
56.8974

>  <b_lp_Chiralities_Consistent>  (98) 
1

>  <s_lp_Variant>  (98) 
34:0-1

>  <s_i_glide_gridfile>  (98) 
pfpi4k_grid

>  <i_i_glide_lignum>  (98) 
41

>  <i_i_glide_rotatable_bonds>  (98) 
3

>  <r_i_docking_score>  (98) 
-2.80385

>  <r_i_glide_ligand_efficiency>  (98) 
-0.10784

>  <r_i_glide_ligand_efficiency_sa>  (98) 
-0.319477

>  <r_i_glide_ligand_efficiency_ln>  (98) 
-0.658475

>  <r_i_glide_gscore>  (98) 
-2.80385

>  <r_i_glide_lipo>  (98) 
-0.632735

>  <r_i_glide_hbond>  (98) 
-0.121196

>  <r_i_glide_metal>  (98) 
-0

>  <r_i_glide_rewards>  (98) 
-0.927979

>  <r_i_glide_evdw>  (98) 
-18.5997

>  <r_i_glide_ecoul>  (98) 
-2.24474

>  <r_i_glide_erotb>  (98) 
0.144752

>  <r_i_glide_esite>  (98) 
0

>  <r_i_glide_emodel>  (98) 
-24.2453

>  <r_i_glide_energy>  (98) 
-20.8444

>  <r_i_glide_einternal>  (98) 
0.899644

>  <r_i_glide_intrahb_reward>  (98) 
-0

>  <i_i_glide_confnum>  (98) 
1

>  <i_i_glide_posenum>  (98) 
5

>  <r_i_glide_eff_state_penalty>  (98) 
0

>  <ligand_id>  (98) 
34

>  <original_smiles>  (98) 
COOC12C3CC3C3CC4(C)CCC1C1(OOC(C)(C)C1O4)C(C=O)C32

>  <smiles>  (98) 
[H]C(=O)C1([H])C2([H])C3([H])C([H])([H])C4(C([H])([H])[H])OC5([H])C(C([H])([H])[H])(C([H])([H])[H])OOC51C([H])(C([H])([H])C4([H])[H])C2(OOC([H])([H])[H])C1([H])C([H])([H])C31[H]

$$$$
34:0:2
     RDKit          3D

 54 59  0  0  1  0  0  0  0  0999 V2000
    8.6552   -2.9208   -0.3553 C   0  0  0  0  0  0  0  0  0  0  0  0
    7.5629   -2.3362   -1.0175 O   0  0  0  0  0  0  0  0  0  0  0  0
    6.4222   -3.3172   -1.0112 O   0  0  0  0  0  0  0  0  0  0  0  0
    5.4075   -2.8476   -0.1165 C   0  0  2  0  0  0  0  0  0  0  0  0
    4.9895   -1.4167   -0.4956 C   0  0  1  0  0  0  0  0  0  0  0  0
    4.1986   -1.1294   -1.7626 C   0  0  0  0  0  0  0  0  0  0  0  0
    3.4994   -1.3240   -0.4366 C   0  0  1  0  0  0  0  0  0  0  0  0
    2.9824   -2.6704    0.0501 C   0  0  2  0  0  0  0  0  0  0  0  0
    2.4256   -2.6185    1.5232 C   0  0  0  0  0  0  0  0  0  0  0  0
    3.2520   -2.1878    2.7940 C   0  0  2  0  0  0  0  0  0  0  0  0
    2.2497   -1.5208    3.7512 C   0  0  0  0  0  0  0  0  0  0  0  0
    4.4517   -1.2355    2.6031 C   0  0  0  0  0  0  0  0  0  0  0  0
    5.7818   -1.9694    2.3295 C   0  0  0  0  0  0  0  0  0  0  0  0
    5.8047   -3.1727    1.3607 C   0  0  1  0  0  0  0  0  0  0  0  0
    4.9970   -4.4706    1.7802 C   0  0  1  0  0  0  0  0  0  0  0  0
    5.9488   -5.4707    2.0734 O   0  0  0  0  0  0  0  0  0  0  0  0
    6.2629   -5.3129    3.5071 O   0  0  0  0  0  0  0  0  0  0  0  0
    5.0091   -5.2480    4.1480 C   0  0  0  0  0  0  0  0  0  0  0  0
    4.5211   -6.6878    4.3881 C   0  0  0  0  0  0  0  0  0  0  0  0
    5.2187   -4.5155    5.4890 C   0  0  0  0  0  0  0  0  0  0  0  0
    4.1546   -4.5004    3.0884 C   0  0  1  0  0  0  0  0  0  0  0  0
    3.7525   -3.2381    3.6207 O   0  0  0  0  0  0  0  0  0  0  0  0
    4.3155   -4.9232    0.4781 C   0  0  1  0  0  0  0  0  0  0  0  0
    3.1354   -5.9199    0.4959 C   0  0  0  0  0  0  0  0  0  0  0  0
    1.9639   -5.5612    0.4438 O   0  0  0  0  0  0  0  0  0  0  0  0
    4.1207   -3.6510   -0.3177 C   0  0  2  0  0  0  0  0  0  0  0  0
    9.5058   -2.2563   -0.4539 H   0  0  0  0  0  0  0  0  0  0  0  0
    8.9434   -3.8463   -0.8445 H   0  0  0  0  0  0  0  0  0  0  0  0
    8.4493   -3.0704    0.6836 H   0  0  0  0  0  0  0  0  0  0  0  0
    5.5953   -0.5927   -0.1398 H   0  0  0  0  0  0  0  0  0  0  0  0
    4.2277   -0.1091   -2.1544 H   0  0  0  0  0  0  0  0  0  0  0  0
    4.1054   -1.9120   -2.5206 H   0  0  0  0  0  0  0  0  0  0  0  0
    3.0464   -0.4473    0.0101 H   0  0  0  0  0  0  0  0  0  0  0  0
    2.1412   -2.9219   -0.5911 H   0  0  0  0  0  0  0  0  0  0  0  0
    1.5939   -1.9164    1.4405 H   0  0  0  0  0  0  0  0  0  0  0  0
    1.9366   -3.5571    1.7758 H   0  0  0  0  0  0  0  0  0  0  0  0
    1.8401   -0.6111    3.3160 H   0  0  0  0  0  0  0  0  0  0  0  0
    2.7176   -1.2642    4.7025 H   0  0  0  0  0  0  0  0  0  0  0  0
    1.4208   -2.1987    3.9684 H   0  0  0  0  0  0  0  0  0  0  0  0
    4.2300   -0.4654    1.8639 H   0  0  0  0  0  0  0  0  0  0  0  0
    4.6033   -0.6725    3.5299 H   0  0  0  0  0  0  0  0  0  0  0  0
    6.5028   -1.2329    1.9880 H   0  0  0  0  0  0  0  0  0  0  0  0
    6.1552   -2.3223    3.2865 H   0  0  0  0  0  0  0  0  0  0  0  0
    6.8246   -3.4920    1.3491 H   0  0  0  0  0  0  0  0  0  0  0  0
    3.5336   -6.6963    4.8476 H   0  0  0  0  0  0  0  0  0  0  0  0
    5.1915   -7.2209    5.0650 H   0  0  0  0  0  0  0  0  0  0  0  0
    4.4691   -7.2576    3.4644 H   0  0  0  0  0  0  0  0  0  0  0  0
    4.2775   -4.3872    6.0246 H   0  0  0  0  0  0  0  0  0  0  0  0
    5.6622   -3.5329    5.3392 H   0  0  0  0  0  0  0  0  0  0  0  0
    5.8911   -5.0774    6.1351 H   0  0  0  0  0  0  0  0  0  0  0  0
    3.2377   -5.0701    2.9497 H   0  0  0  0  0  0  0  0  0  0  0  0
    5.0862   -5.4521   -0.0771 H   0  0  0  0  0  0  0  0  0  0  0  0
    3.4628   -6.9695    0.5529 H   0  0  0  0  0  0  0  0  0  0  0  0
    4.0311   -3.8970   -1.3782 H   0  0  0  0  0  0  0  0  0  0  0  0
  1  2  1  0
  1 27  1  0
  1 28  1  0
  1 29  1  0
  2  3  1  0
  4  3  1  6
  4 14  1  0
  4 26  1  0
  4  5  1  0
  5  7  1  0
  5  6  1  0
  5 30  1  1
  6  7  1  0
  6 31  1  0
  6 32  1  0
  7  8  1  0
  7 33  1  1
  8 26  1  0
  8  9  1  0
  8 34  1  6
  9 10  1  0
  9 35  1  0
  9 36  1  0
 10 22  1  0
 10 11  1  1
 10 12  1  0
 11 37  1  0
 11 38  1  0
 11 39  1  0
 12 13  1  0
 12 40  1  0
 12 41  1  0
 13 14  1  0
 13 42  1  0
 13 43  1  0
 14 15  1  0
 14 44  1  6
 15 21  1  0
 15 16  1  1
 15 23  1  0
 16 17  1  0
 17 18  1  0
 18 19  1  0
 18 20  1  0
 18 21  1  0
 19 45  1  0
 19 46  1  0
 19 47  1  0
 20 48  1  0
 20 49  1  0
 20 50  1  0
 21 22  1  0
 21 51  1  6
 23 24  1  0
 23 26  1  0
 23 52  1  6
 24 25  2  0
 24 53  1  0
 26 54  1  6
M  END
>  <i_m_ct_stereo_status>  (99) 
1

>  <s_m_source_file>  (99) 
/var/tmp/pbs.5076255.sched01/tmp7v4tqmxt/0pyfftbwv.sdf

>  <i_m_source_file_index>  (99) 
41

>  <i_lp_mmshare_version>  (99) 
48012

>  <i_f3d_flags>  (99) 
0

>  <s_epik_input>  (99) 
W0NIM11PT1tDQEBdMShbQ0BASF0yW0NAQF0zNDUpW0NAQEhdNltDQEBIXShbQ0gyXTYpW0NAQEhdKFtDQEBIXTFbQ0BASF01W0NIXT1PKVtDSDJdW0NAXShbQ0gzXSkoW0NIMl1bQ0gyXTIpT1tDQEBIXTRDKE9PMykoW0NIM10pW0NIM10=

>  <s_epik_cmdline>  (99) 
J2VwaWtfcHl0aG9uJywgJy1waHQnLCAnMi4wJywgJy1waCcsICc3LjAnLCAnLXRuJywgJzgnLCAnLW1hJywgJzIwMCcsICctaW1hZScsICc8aW5maWxlLm1hZT4nLCAnLW9tYWUnLCAnPG91dGZpbGUubWFlPic=

>  <r_lp_tautomer_probability>  (99) 
1

>  <r_epik_Ionization_Penalty>  (99) 
2.34249e-05

>  <r_epik_Ionization_Penalty_Charging>  (99) 
0

>  <r_epik_Ionization_Penalty_Neutral>  (99) 
2.34249e-05

>  <r_epik_State_Penalty>  (99) 
-0

>  <r_epik_Charging_Adjusted_Penalty>  (99) 
0

>  <i_epik_Tot_Q>  (99) 
0

>  <i_epik_Tot_abs_Q>  (99) 
0

>  <s_lp_Force_Field>  (99) 
OPLS3e

>  <r_lp_Energy>  (99) 
56.8974

>  <b_lp_Chiralities_Consistent>  (99) 
1

>  <s_lp_Variant>  (99) 
34:0-1

>  <s_i_glide_gridfile>  (99) 
pfpi4k_grid

>  <i_i_glide_lignum>  (99) 
41

>  <i_i_glide_rotatable_bonds>  (99) 
3

>  <r_i_docking_score>  (99) 
-2.72095

>  <r_i_glide_ligand_efficiency>  (99) 
-0.104652

>  <r_i_glide_ligand_efficiency_sa>  (99) 
-0.31003

>  <r_i_glide_ligand_efficiency_ln>  (99) 
-0.639005

>  <r_i_glide_gscore>  (99) 
-2.72095

>  <r_i_glide_lipo>  (99) 
-0.296914

>  <r_i_glide_hbond>  (99) 
-0.212836

>  <r_i_glide_metal>  (99) 
-0

>  <r_i_glide_rewards>  (99) 
-0.924322

>  <r_i_glide_evdw>  (99) 
-17.8028

>  <r_i_glide_ecoul>  (99) 
-3.49438

>  <r_i_glide_erotb>  (99) 
0.144752

>  <r_i_glide_esite>  (99) 
-0.0173285

>  <r_i_glide_emodel>  (99) 
-23.7818

>  <r_i_glide_energy>  (99) 
-21.2972

>  <r_i_glide_einternal>  (99) 
0.65224

>  <r_i_glide_intrahb_reward>  (99) 
-0

>  <i_i_glide_confnum>  (99) 
4

>  <i_i_glide_posenum>  (99) 
11

>  <r_i_glide_eff_state_penalty>  (99) 
0

>  <ligand_id>  (99) 
34

>  <original_smiles>  (99) 
COOC12C3CC3C3CC4(C)CCC1C1(OOC(C)(C)C1O4)C(C=O)C32

>  <smiles>  (99) 
[H]C(=O)C1([H])C2([H])C3([H])C([H])([H])C4(C([H])([H])[H])OC5([H])C(C([H])([H])[H])(C([H])([H])[H])OOC51C([H])(C([H])([H])C4([H])[H])C2(OOC([H])([H])[H])C1([H])C([H])([H])C31[H]

$$$$
35:0:0
     RDKit          3D

 31 34  0  0  1  0  0  0  0  0999 V2000
   -0.9745   -8.8974    3.2448 C   0  0  0  0  0  0  0  0  0  0  0  0
   -0.9264   -7.8709    2.2877 C   0  0  0  0  0  0  0  0  0  0  0  0
   -0.3559   -6.6733    2.5506 N   0  0  0  0  0  0  0  0  0  0  0  0
    0.1992   -6.5353    3.7623 C   0  0  0  0  0  0  0  0  0  0  0  0
    0.8701   -5.2040    4.0507 C   0  0  0  0  0  0  0  0  0  0  0  0
    1.8839   -4.8717    3.0605 N   0  0  0  0  0  0  0  0  0  0  0  0
    2.2607   -3.5512    2.8074 C   0  0  0  0  0  0  0  0  0  0  0  0
    1.8278   -2.5299    3.5778 N   0  0  0  0  0  0  0  0  0  0  0  0
    2.2535   -1.3005    3.2550 C   0  0  0  0  0  0  0  0  0  0  0  0
    3.0718   -0.9250    2.2625 N   0  0  0  0  0  0  0  0  0  0  0  0
    3.4877   -1.9252    1.4779 C   0  0  0  0  0  0  0  0  0  0  0  0
    3.1002   -3.2669    1.7247 C   0  0  0  0  0  0  0  0  0  0  0  0
    3.6545   -4.1142    0.7880 O   0  0  0  0  0  0  0  0  0  0  0  0
    4.4125   -3.3488   -0.0742 C   0  0  0  0  0  0  0  0  0  0  0  0
    5.1699   -3.7706   -1.1733 C   0  0  0  0  0  0  0  0  0  0  0  0
    5.8603   -2.7762   -1.8818 C   0  0  0  0  0  0  0  0  0  0  0  0
    5.8167   -1.4700   -1.5340 N   0  0  0  0  0  0  0  0  0  0  0  0
    5.0728   -1.0590   -0.4789 C   0  0  0  0  0  0  0  0  0  0  0  0
    4.3441   -1.9807    0.3070 C   0  0  0  0  0  0  0  0  0  0  0  0
    0.2170   -7.4399    4.7392 N   0  0  0  0  0  0  0  0  0  0  0  0
   -0.3712   -8.6282    4.4848 C   0  0  0  0  0  0  0  0  0  0  0  0
   -1.4518   -9.8475    3.0539 H   0  0  0  0  0  0  0  0  0  0  0  0
   -1.3618   -8.0045    1.3094 H   0  0  0  0  0  0  0  0  0  0  0  0
    0.0946   -4.4376    4.0796 H   0  0  0  0  0  0  0  0  0  0  0  0
    1.3461   -5.2281    5.0320 H   0  0  0  0  0  0  0  0  0  0  0  0
    1.9158   -0.4923    3.8886 H   0  0  0  0  0  0  0  0  0  0  0  0
    5.2152   -4.8115   -1.4623 H   0  0  0  0  0  0  0  0  0  0  0  0
    6.4712   -3.0280   -2.7377 H   0  0  0  0  0  0  0  0  0  0  0  0
    5.0756   -0.0115   -0.2306 H   0  0  0  0  0  0  0  0  0  0  0  0
   -0.3656   -9.3653    5.2744 H   0  0  0  0  0  0  0  0  0  0  0  0
    2.2054   -5.5970    2.4360 H   0  0  0  0  0  0  0  0  0  0  0  0
  1 21  2  0
  1  2  1  0
  1 22  1  0
  2  3  2  0
  2 23  1  0
  3  4  1  0
  4  5  1  0
  4 20  2  0
  5  6  1  0
  5 24  1  0
  5 25  1  0
  6  7  1  0
  6 31  1  0
  7 12  1  0
  7  8  2  0
  8  9  1  0
  9 10  2  0
  9 26  1  0
 10 11  1  0
 11 19  1  0
 11 12  2  0
 12 13  1  0
 13 14  1  0
 14 19  2  0
 14 15  1  0
 15 16  2  0
 15 27  1  0
 16 17  1  0
 16 28  1  0
 17 18  2  0
 18 19  1  0
 18 29  1  0
 20 21  1  0
 21 30  1  0
M  END
>  <i_m_ct_stereo_status>  (100) 
1

>  <s_m_source_file>  (100) 
/var/tmp/pbs.5076255.sched01/tmpl63by5lx/41imve8rrw.sdf

>  <i_m_source_file_index>  (100) 
1

>  <i_lp_mmshare_version>  (100) 
48012

>  <i_f3d_flags>  (100) 
0

>  <s_epik_input>  (100) 
bjFbY0hdW2NIXVtjSF1uYzFbQ0gyXS9OPWMoL1tuSF1bY0hdbjIpYyhjMjMpb2M0YzNbY0hdbltjSF1bY0hdNA==

>  <s_epik_cmdline>  (100) 
J2VwaWtfcHl0aG9uJywgJy1waHQnLCAnMi4wJywgJy1waCcsICc3LjAnLCAnLXRuJywgJzgnLCAnLW1hJywgJzIwMCcsICctaW1hZScsICc8aW5maWxlLm1hZT4nLCAnLW9tYWUnLCAnPG91dGZpbGUubWFlPic=

>  <r_lp_tautomer_probability>  (100) 
1

>  <r_epik_Ionization_Penalty>  (100) 
4.50071e-05

>  <r_epik_Ionization_Penalty_Charging>  (100) 
0

>  <r_epik_Ionization_Penalty_Neutral>  (100) 
4.50071e-05

>  <r_epik_State_Penalty>  (100) 
-0

>  <r_epik_Charging_Adjusted_Penalty>  (100) 
0

>  <i_epik_Tot_Q>  (100) 
0

>  <i_epik_Tot_abs_Q>  (100) 
0

>  <s_epik_Chemistry_Notes>  (100) 
This compound contains an electron-poor aromatic ring that is susceptible to covalent hydrolysis at low pH, typically resulting in measured values for nitrogen ring protonation that are around two units higher than predicted values.

>  <s_lp_Force_Field>  (100) 
OPLS3e

>  <r_lp_Energy>  (100) 
36.1823

>  <b_lp_Chiralities_Consistent>  (100) 
1

>  <s_lp_Variant>  (100) 
35:0-1

>  <s_i_glide_gridfile>  (100) 
pfpi4k_grid

>  <i_i_glide_lignum>  (100) 
1

>  <i_i_glide_rotatable_bonds>  (100) 
3

>  <r_i_docking_score>  (100) 
-3.42255

>  <r_i_glide_ligand_efficiency>  (100) 
-0.162979

>  <r_i_glide_ligand_efficiency_sa>  (100) 
-0.449645

>  <r_i_glide_ligand_efficiency_ln>  (100) 
-0.846218

>  <r_i_glide_gscore>  (100) 
-3.42255

>  <r_i_glide_lipo>  (100) 
-0.0912876

>  <r_i_glide_hbond>  (100) 
-0.236828

>  <r_i_glide_metal>  (100) 
-0

>  <r_i_glide_rewards>  (100) 
-1.5118

>  <r_i_glide_evdw>  (100) 
-22.5573

>  <r_i_glide_ecoul>  (100) 
-7.30285

>  <r_i_glide_erotb>  (100) 
0.698268

>  <r_i_glide_esite>  (100) 
-0.0576033

>  <r_i_glide_emodel>  (100) 
-36.5712

>  <r_i_glide_energy>  (100) 
-29.8602

>  <r_i_glide_einternal>  (100) 
0.866007

>  <r_i_glide_intrahb_reward>  (100) 
-0

>  <i_i_glide_confnum>  (100) 
3

>  <i_i_glide_posenum>  (100) 
26

>  <r_i_glide_eff_state_penalty>  (100) 
0

>  <ligand_id>  (100) 
35

>  <original_smiles>  (100) 
c1cnc(CN=c2[nH]cnc3c2oc2ccncc23)nc1

>  <smiles>  (100) 
[H]c1nc(N([H])C([H])([H])c2nc([H])c([H])c([H])n2)c2oc3c([H])c([H])nc([H])c3c2n1

$$$$
35:0:1
     RDKit          3D

 31 34  0  0  1  0  0  0  0  0999 V2000
   -1.0250   -9.3701    2.5825 C   0  0  0  0  0  0  0  0  0  0  0  0
   -1.5751   -8.0856    2.4866 C   0  0  0  0  0  0  0  0  0  0  0  0
   -0.8870   -6.9836    2.8478 N   0  0  0  0  0  0  0  0  0  0  0  0
    0.3437   -7.1801    3.3253 C   0  0  0  0  0  0  0  0  0  0  0  0
    1.1150   -5.9376    3.7204 C   0  0  0  0  0  0  0  0  0  0  0  0
    1.9602   -5.4604    2.6362 N   0  0  0  0  0  0  0  0  0  0  0  0
    2.3018   -4.1128    2.5007 C   0  0  0  0  0  0  0  0  0  0  0  0
    1.8794   -3.1871    3.3868 N   0  0  0  0  0  0  0  0  0  0  0  0
    2.2141   -1.9120    3.1463 C   0  0  0  0  0  0  0  0  0  0  0  0
    2.9301   -1.4063    2.1316 N   0  0  0  0  0  0  0  0  0  0  0  0
    3.3456   -2.3117    1.2393 C   0  0  0  0  0  0  0  0  0  0  0  0
    3.0515   -3.6907    1.3969 C   0  0  0  0  0  0  0  0  0  0  0  0
    3.5784   -4.4233    0.3517 O   0  0  0  0  0  0  0  0  0  0  0  0
    4.2337   -3.5453   -0.4886 C   0  0  0  0  0  0  0  0  0  0  0  0
    4.9372   -3.8335   -1.6623 C   0  0  0  0  0  0  0  0  0  0  0  0
    5.5201   -2.7467   -2.3304 C   0  0  0  0  0  0  0  0  0  0  0  0
    5.4249   -1.4753   -1.8868 N   0  0  0  0  0  0  0  0  0  0  0  0
    4.7380   -1.1966   -0.7480 C   0  0  0  0  0  0  0  0  0  0  0  0
    4.1184   -2.2189    0.0105 C   0  0  0  0  0  0  0  0  0  0  0  0
    0.9695   -8.3501    3.4563 N   0  0  0  0  0  0  0  0  0  0  0  0
    0.2832   -9.4544    3.0887 C   0  0  0  0  0  0  0  0  0  0  0  0
   -1.5823  -10.2487    2.2952 H   0  0  0  0  0  0  0  0  0  0  0  0
   -2.5765   -7.9305    2.1153 H   0  0  0  0  0  0  0  0  0  0  0  0
    0.4033   -5.1708    4.0317 H   0  0  0  0  0  0  0  0  0  0  0  0
    1.7415   -6.1682    4.5818 H   0  0  0  0  0  0  0  0  0  0  0  0
    1.8725   -1.1823    3.8650 H   0  0  0  0  0  0  0  0  0  0  0  0
    5.0110   -4.8418   -2.0400 H   0  0  0  0  0  0  0  0  0  0  0  0
    6.0711   -2.8981   -3.2471 H   0  0  0  0  0  0  0  0  0  0  0  0
    4.6991   -0.1693   -0.4190 H   0  0  0  0  0  0  0  0  0  0  0  0
    0.7773  -10.4085    3.1991 H   0  0  0  0  0  0  0  0  0  0  0  0
    2.3169   -6.1315    1.9689 H   0  0  0  0  0  0  0  0  0  0  0  0
  1 21  2  0
  1  2  1  0
  1 22  1  0
  2  3  2  0
  2 23  1  0
  3  4  1  0
  4  5  1  0
  4 20  2  0
  5  6  1  0
  5 24  1  0
  5 25  1  0
  6  7  1  0
  6 31  1  0
  7 12  1  0
  7  8  2  0
  8  9  1  0
  9 10  2  0
  9 26  1  0
 10 11  1  0
 11 19  1  0
 11 12  2  0
 12 13  1  0
 13 14  1  0
 14 19  2  0
 14 15  1  0
 15 16  2  0
 15 27  1  0
 16 17  1  0
 16 28  1  0
 17 18  2  0
 18 19  1  0
 18 29  1  0
 20 21  1  0
 21 30  1  0
M  END
>  <i_m_ct_stereo_status>  (101) 
1

>  <s_m_source_file>  (101) 
/var/tmp/pbs.5076255.sched01/tmpl63by5lx/41imve8rrw.sdf

>  <i_m_source_file_index>  (101) 
1

>  <i_lp_mmshare_version>  (101) 
48012

>  <i_f3d_flags>  (101) 
0

>  <s_epik_input>  (101) 
bjFbY0hdW2NIXVtjSF1uYzFbQ0gyXS9OPWMoL1tuSF1bY0hdbjIpYyhjMjMpb2M0YzNbY0hdbltjSF1bY0hdNA==

>  <s_epik_cmdline>  (101) 
J2VwaWtfcHl0aG9uJywgJy1waHQnLCAnMi4wJywgJy1waCcsICc3LjAnLCAnLXRuJywgJzgnLCAnLW1hJywgJzIwMCcsICctaW1hZScsICc8aW5maWxlLm1hZT4nLCAnLW9tYWUnLCAnPG91dGZpbGUubWFlPic=

>  <r_lp_tautomer_probability>  (101) 
1

>  <r_epik_Ionization_Penalty>  (101) 
4.50071e-05

>  <r_epik_Ionization_Penalty_Charging>  (101) 
0

>  <r_epik_Ionization_Penalty_Neutral>  (101) 
4.50071e-05

>  <r_epik_State_Penalty>  (101) 
-0

>  <r_epik_Charging_Adjusted_Penalty>  (101) 
0

>  <i_epik_Tot_Q>  (101) 
0

>  <i_epik_Tot_abs_Q>  (101) 
0

>  <s_epik_Chemistry_Notes>  (101) 
This compound contains an electron-poor aromatic ring that is susceptible to covalent hydrolysis at low pH, typically resulting in measured values for nitrogen ring protonation that are around two units higher than predicted values.

>  <s_lp_Force_Field>  (101) 
OPLS3e

>  <r_lp_Energy>  (101) 
36.1823

>  <b_lp_Chiralities_Consistent>  (101) 
1

>  <s_lp_Variant>  (101) 
35:0-1

>  <s_i_glide_gridfile>  (101) 
pfpi4k_grid

>  <i_i_glide_lignum>  (101) 
1

>  <i_i_glide_rotatable_bonds>  (101) 
3

>  <r_i_docking_score>  (101) 
-3.23912

>  <r_i_glide_ligand_efficiency>  (101) 
-0.154244

>  <r_i_glide_ligand_efficiency_sa>  (101) 
-0.425547

>  <r_i_glide_ligand_efficiency_ln>  (101) 
-0.800866

>  <r_i_glide_gscore>  (101) 
-3.23912

>  <r_i_glide_lipo>  (101) 
-0.28836

>  <r_i_glide_hbond>  (101) 
-0.16

>  <r_i_glide_metal>  (101) 
-0

>  <r_i_glide_rewards>  (101) 
-1.5118

>  <r_i_glide_evdw>  (101) 
-25.0892

>  <r_i_glide_ecoul>  (101) 
-4.40322

>  <r_i_glide_erotb>  (101) 
0.698268

>  <r_i_glide_esite>  (101) 
-0.0622844

>  <r_i_glide_emodel>  (101) 
-35.9808

>  <r_i_glide_energy>  (101) 
-29.4924

>  <r_i_glide_einternal>  (101) 
0.71902

>  <r_i_glide_intrahb_reward>  (101) 
-0

>  <i_i_glide_confnum>  (101) 
3

>  <i_i_glide_posenum>  (101) 
20

>  <r_i_glide_eff_state_penalty>  (101) 
0

>  <ligand_id>  (101) 
35

>  <original_smiles>  (101) 
c1cnc(CN=c2[nH]cnc3c2oc2ccncc23)nc1

>  <smiles>  (101) 
[H]c1nc(N([H])C([H])([H])c2nc([H])c([H])c([H])n2)c2oc3c([H])c([H])nc([H])c3c2n1

$$$$
35:0:2
     RDKit          3D

 31 34  0  0  1  0  0  0  0  0999 V2000
   -0.8921   -9.0505    2.7186 C   0  0  0  0  0  0  0  0  0  0  0  0
   -1.2043   -7.6884    2.5988 C   0  0  0  0  0  0  0  0  0  0  0  0
   -0.2589   -6.7216    2.6295 N   0  0  0  0  0  0  0  0  0  0  0  0
    0.9994   -7.1381    2.8232 C   0  0  0  0  0  0  0  0  0  0  0  0
    2.0770   -6.0711    2.8836 C   0  0  0  0  0  0  0  0  0  0  0  0
    2.4017   -5.5486    1.5655 N   0  0  0  0  0  0  0  0  0  0  0  0
    3.3664   -4.5535    1.3907 C   0  0  0  0  0  0  0  0  0  0  0  0
    4.2953   -4.2972    2.3345 N   0  0  0  0  0  0  0  0  0  0  0  0
    5.2051   -3.3541    2.0531 C   0  0  0  0  0  0  0  0  0  0  0  0
    5.3311   -2.6012    0.9486 N   0  0  0  0  0  0  0  0  0  0  0  0
    4.3972   -2.8271    0.0174 C   0  0  0  0  0  0  0  0  0  0  0  0
    3.3883   -3.8066    0.2089 C   0  0  0  0  0  0  0  0  0  0  0  0
    2.5450   -3.8583   -0.8811 O   0  0  0  0  0  0  0  0  0  0  0  0
    3.0021   -2.9403   -1.8062 C   0  0  0  0  0  0  0  0  0  0  0  0
    2.4799   -2.6529   -3.0709 C   0  0  0  0  0  0  0  0  0  0  0  0
    3.1162   -1.6354   -3.7993 C   0  0  0  0  0  0  0  0  0  0  0  0
    4.2011   -0.9761   -3.3490 N   0  0  0  0  0  0  0  0  0  0  0  0
    4.7068   -1.2561   -2.1222 C   0  0  0  0  0  0  0  0  0  0  0  0
    4.1395   -2.2555   -1.2944 C   0  0  0  0  0  0  0  0  0  0  0  0
    1.4087   -8.4004    2.9461 N   0  0  0  0  0  0  0  0  0  0  0  0
    0.4672   -9.3643    2.8833 C   0  0  0  0  0  0  0  0  0  0  0  0
   -1.6490   -9.8211    2.6909 H   0  0  0  0  0  0  0  0  0  0  0  0
   -2.2268   -7.3620    2.4816 H   0  0  0  0  0  0  0  0  0  0  0  0
    1.7281   -5.2560    3.5206 H   0  0  0  0  0  0  0  0  0  0  0  0
    2.9766   -6.4829    3.3464 H   0  0  0  0  0  0  0  0  0  0  0  0
    5.9574   -3.1717    2.8057 H   0  0  0  0  0  0  0  0  0  0  0  0
    1.6004   -3.1516   -3.4469 H   0  0  0  0  0  0  0  0  0  0  0  0
    2.7327   -1.3134   -4.7521 H   0  0  0  0  0  0  0  0  0  0  0  0
    5.5726   -0.6953   -1.8033 H   0  0  0  0  0  0  0  0  0  0  0  0
    0.7994  -10.3881    2.9727 H   0  0  0  0  0  0  0  0  0  0  0  0
    1.8127   -5.7985    0.7867 H   0  0  0  0  0  0  0  0  0  0  0  0
  1 21  2  0
  1  2  1  0
  1 22  1  0
  2  3  2  0
  2 23  1  0
  3  4  1  0
  4  5  1  0
  4 20  2  0
  5  6  1  0
  5 24  1  0
  5 25  1  0
  6  7  1  0
  6 31  1  0
  7 12  1  0
  7  8  2  0
  8  9  1  0
  9 10  2  0
  9 26  1  0
 10 11  1  0
 11 19  1  0
 11 12  2  0
 12 13  1  0
 13 14  1  0
 14 19  2  0
 14 15  1  0
 15 16  2  0
 15 27  1  0
 16 17  1  0
 16 28  1  0
 17 18  2  0
 18 19  1  0
 18 29  1  0
 20 21  1  0
 21 30  1  0
M  END
>  <i_m_ct_stereo_status>  (102) 
1

>  <s_m_source_file>  (102) 
/var/tmp/pbs.5076255.sched01/tmpl63by5lx/41imve8rrw.sdf

>  <i_m_source_file_index>  (102) 
1

>  <i_lp_mmshare_version>  (102) 
48012

>  <i_f3d_flags>  (102) 
0

>  <s_epik_input>  (102) 
bjFbY0hdW2NIXVtjSF1uYzFbQ0gyXS9OPWMoL1tuSF1bY0hdbjIpYyhjMjMpb2M0YzNbY0hdbltjSF1bY0hdNA==

>  <s_epik_cmdline>  (102) 
J2VwaWtfcHl0aG9uJywgJy1waHQnLCAnMi4wJywgJy1waCcsICc3LjAnLCAnLXRuJywgJzgnLCAnLW1hJywgJzIwMCcsICctaW1hZScsICc8aW5maWxlLm1hZT4nLCAnLW9tYWUnLCAnPG91dGZpbGUubWFlPic=

>  <r_lp_tautomer_probability>  (102) 
1

>  <r_epik_Ionization_Penalty>  (102) 
4.50071e-05

>  <r_epik_Ionization_Penalty_Charging>  (102) 
0

>  <r_epik_Ionization_Penalty_Neutral>  (102) 
4.50071e-05

>  <r_epik_State_Penalty>  (102) 
-0

>  <r_epik_Charging_Adjusted_Penalty>  (102) 
0

>  <i_epik_Tot_Q>  (102) 
0

>  <i_epik_Tot_abs_Q>  (102) 
0

>  <s_epik_Chemistry_Notes>  (102) 
This compound contains an electron-poor aromatic ring that is susceptible to covalent hydrolysis at low pH, typically resulting in measured values for nitrogen ring protonation that are around two units higher than predicted values.

>  <s_lp_Force_Field>  (102) 
OPLS3e

>  <r_lp_Energy>  (102) 
36.1823

>  <b_lp_Chiralities_Consistent>  (102) 
1

>  <s_lp_Variant>  (102) 
35:0-1

>  <s_i_glide_gridfile>  (102) 
pfpi4k_grid

>  <i_i_glide_lignum>  (102) 
1

>  <i_i_glide_rotatable_bonds>  (102) 
3

>  <r_i_docking_score>  (102) 
-3.22495

>  <r_i_glide_ligand_efficiency>  (102) 
-0.153569

>  <r_i_glide_ligand_efficiency_sa>  (102) 
-0.423685

>  <r_i_glide_ligand_efficiency_ln>  (102) 
-0.797361

>  <r_i_glide_gscore>  (102) 
-3.22495

>  <r_i_glide_lipo>  (102) 
-0.246311

>  <r_i_glide_hbond>  (102) 
-0.16

>  <r_i_glide_metal>  (102) 
-0

>  <r_i_glide_rewards>  (102) 
-1.57077

>  <r_i_glide_evdw>  (102) 
-28.9988

>  <r_i_glide_ecoul>  (102) 
-2.94183

>  <r_i_glide_erotb>  (102) 
0.698268

>  <r_i_glide_esite>  (102) 
-0.0549218

>  <r_i_glide_emodel>  (102) 
-38.368

>  <r_i_glide_energy>  (102) 
-31.9406

>  <r_i_glide_einternal>  (102) 
0.601181

>  <r_i_glide_intrahb_reward>  (102) 
-0

>  <i_i_glide_confnum>  (102) 
6

>  <i_i_glide_posenum>  (102) 
9

>  <r_i_glide_eff_state_penalty>  (102) 
0

>  <ligand_id>  (102) 
35

>  <original_smiles>  (102) 
c1cnc(CN=c2[nH]cnc3c2oc2ccncc23)nc1

>  <smiles>  (102) 
[H]c1nc(N([H])C([H])([H])c2nc([H])c([H])c([H])n2)c2oc3c([H])c([H])nc([H])c3c2n1

$$$$
36:0:0
     RDKit          3D

 13 14  0  0  1  0  0  0  0  0999 V2000
    0.0025   -9.7831    3.2691 C   0  0  0  0  0  0  0  0  0  0  0  0
   -1.0996   -8.9251    3.0338 C   0  0  0  0  0  0  0  0  0  0  0  0
   -1.0188   -7.7452    2.4232 N   0  0  0  0  0  0  0  0  0  0  0  0
    0.2000   -7.3848    1.9853 C   0  0  0  0  0  0  0  0  0  0  0  0
    0.5837   -6.2791    1.3467 N   0  0  0  0  0  0  0  0  0  0  0  0
    1.9290   -6.4604    1.1977 C   0  0  0  0  0  0  0  0  0  0  0  0
    2.4319   -7.5879    1.6821 N   0  0  0  0  0  0  0  0  0  0  0  0
    1.3282   -8.1949    2.1907 N   0  0  0  0  0  0  0  0  0  0  0  0
    1.2474   -9.3945    2.8298 C   0  0  0  0  0  0  0  0  0  0  0  0
   -0.1404  -10.7270    3.7895 H   0  0  0  0  0  0  0  0  0  0  0  0
   -2.0859   -9.2236    3.3743 H   0  0  0  0  0  0  0  0  0  0  0  0
    2.5586   -5.7372    0.6986 H   0  0  0  0  0  0  0  0  0  0  0  0
    2.1572   -9.9737    2.9565 H   0  0  0  0  0  0  0  0  0  0  0  0
  1  9  2  0
  1  2  1  0
  1 10  1  0
  2  3  2  0
  2 11  1  0
  3  4  1  0
  4  8  1  0
  4  5  2  0
  5  6  1  0
  6  7  2  0
  6 12  1  0
  7  8  1  0
  8  9  1  0
  9 13  1  0
M  END
>  <i_m_ct_stereo_status>  (103) 
1

>  <s_m_source_file>  (103) 
/var/tmp/pbs.5076255.sched01/tmpl63by5lx/41imve8rrw.sdf

>  <i_m_source_file_index>  (103) 
2

>  <i_lp_mmshare_version>  (103) 
48012

>  <i_f3d_flags>  (103) 
0

>  <s_epik_input>  (103) 
bjFbY0hdW2NIXVtjSF1uKGMxMiluW2NIXW4y

>  <s_epik_cmdline>  (103) 
J2VwaWtfcHl0aG9uJywgJy1waHQnLCAnMi4wJywgJy1waCcsICc3LjAnLCAnLXRuJywgJzgnLCAnLW1hJywgJzIwMCcsICctaW1hZScsICc8aW5maWxlLm1hZT4nLCAnLW9tYWUnLCAnPG91dGZpbGUubWFlPic=

>  <r_lp_tautomer_probability>  (103) 
1

>  <r_epik_Ionization_Penalty>  (103) 
1.66986e-07

>  <r_epik_Ionization_Penalty_Charging>  (103) 
0

>  <r_epik_Ionization_Penalty_Neutral>  (103) 
1.66986e-07

>  <r_epik_State_Penalty>  (103) 
-0

>  <r_epik_Charging_Adjusted_Penalty>  (103) 
0

>  <i_epik_Tot_Q>  (103) 
0

>  <i_epik_Tot_abs_Q>  (103) 
0

>  <s_lp_Force_Field>  (103) 
OPLS3e

>  <r_lp_Energy>  (103) 
14.6748

>  <b_lp_Chiralities_Consistent>  (103) 
1

>  <s_lp_Variant>  (103) 
36:0-1

>  <s_i_glide_gridfile>  (103) 
pfpi4k_grid

>  <i_i_glide_lignum>  (103) 
2

>  <i_i_glide_rotatable_bonds>  (103) 
0

>  <r_i_docking_score>  (103) 
-4.2457

>  <r_i_glide_ligand_efficiency>  (103) 
-0.471744

>  <r_i_glide_ligand_efficiency_sa>  (103) 
-0.981268

>  <r_i_glide_ligand_efficiency_ln>  (103) 
-1.32793

>  <r_i_glide_gscore>  (103) 
-4.2457

>  <r_i_glide_lipo>  (103) 
-0.0335694

>  <r_i_glide_hbond>  (103) 
-0.16

>  <r_i_glide_metal>  (103) 
-0

>  <r_i_glide_rewards>  (103) 
-2.25

>  <r_i_glide_evdw>  (103) 
-13.9361

>  <r_i_glide_ecoul>  (103) 
-6.47193

>  <r_i_glide_erotb>  (103) 
0

>  <r_i_glide_esite>  (103) 
-0.134534

>  <r_i_glide_emodel>  (103) 
-27.1664

>  <r_i_glide_energy>  (103) 
-20.4081

>  <r_i_glide_einternal>  (103) 
0

>  <r_i_glide_intrahb_reward>  (103) 
-0

>  <i_i_glide_confnum>  (103) 
1

>  <i_i_glide_posenum>  (103) 
1

>  <r_i_glide_eff_state_penalty>  (103) 
0

>  <ligand_id>  (103) 
36

>  <original_smiles>  (103) 
c1cnc2ncnn2c1

>  <smiles>  (103) 
[H]c1nc2nc([H])c([H])c([H])n2n1

$$$$
36:0:1
     RDKit          3D

 13 14  0  0  1  0  0  0  0  0999 V2000
   -0.4155   -9.0801    2.7929 C   0  0  0  0  0  0  0  0  0  0  0  0
   -0.4283   -7.8555    2.0831 C   0  0  0  0  0  0  0  0  0  0  0  0
   -0.2420   -6.6587    2.6354 N   0  0  0  0  0  0  0  0  0  0  0  0
   -0.0091   -6.6498    3.9626 C   0  0  0  0  0  0  0  0  0  0  0  0
    0.2055   -5.6248    4.7817 N   0  0  0  0  0  0  0  0  0  0  0  0
    0.3608   -6.2201    5.9991 C   0  0  0  0  0  0  0  0  0  0  0  0
    0.2479   -7.5417    6.0266 N   0  0  0  0  0  0  0  0  0  0  0  0
    0.0132   -7.8328    4.7194 N   0  0  0  0  0  0  0  0  0  0  0  0
   -0.1860   -9.0531    4.1504 C   0  0  0  0  0  0  0  0  0  0  0  0
   -0.5784  -10.0219    2.2734 H   0  0  0  0  0  0  0  0  0  0  0  0
   -0.6059   -7.8619    1.0134 H   0  0  0  0  0  0  0  0  0  0  0  0
    0.5561   -5.6539    6.8974 H   0  0  0  0  0  0  0  0  0  0  0  0
   -0.1590   -9.9295    4.7918 H   0  0  0  0  0  0  0  0  0  0  0  0
  1  9  2  0
  1  2  1  0
  1 10  1  0
  2  3  2  0
  2 11  1  0
  3  4  1  0
  4  8  1  0
  4  5  2  0
  5  6  1  0
  6  7  2  0
  6 12  1  0
  7  8  1  0
  8  9  1  0
  9 13  1  0
M  END
>  <i_m_ct_stereo_status>  (104) 
1

>  <s_m_source_file>  (104) 
/var/tmp/pbs.5076255.sched01/tmpl63by5lx/41imve8rrw.sdf

>  <i_m_source_file_index>  (104) 
2

>  <i_lp_mmshare_version>  (104) 
48012

>  <i_f3d_flags>  (104) 
0

>  <s_epik_input>  (104) 
bjFbY0hdW2NIXVtjSF1uKGMxMiluW2NIXW4y

>  <s_epik_cmdline>  (104) 
J2VwaWtfcHl0aG9uJywgJy1waHQnLCAnMi4wJywgJy1waCcsICc3LjAnLCAnLXRuJywgJzgnLCAnLW1hJywgJzIwMCcsICctaW1hZScsICc8aW5maWxlLm1hZT4nLCAnLW9tYWUnLCAnPG91dGZpbGUubWFlPic=

>  <r_lp_tautomer_probability>  (104) 
1

>  <r_epik_Ionization_Penalty>  (104) 
1.66986e-07

>  <r_epik_Ionization_Penalty_Charging>  (104) 
0

>  <r_epik_Ionization_Penalty_Neutral>  (104) 
1.66986e-07

>  <r_epik_State_Penalty>  (104) 
-0

>  <r_epik_Charging_Adjusted_Penalty>  (104) 
0

>  <i_epik_Tot_Q>  (104) 
0

>  <i_epik_Tot_abs_Q>  (104) 
0

>  <s_lp_Force_Field>  (104) 
OPLS3e

>  <r_lp_Energy>  (104) 
14.6748

>  <b_lp_Chiralities_Consistent>  (104) 
1

>  <s_lp_Variant>  (104) 
36:0-1

>  <s_i_glide_gridfile>  (104) 
pfpi4k_grid

>  <i_i_glide_lignum>  (104) 
2

>  <i_i_glide_rotatable_bonds>  (104) 
0

>  <r_i_docking_score>  (104) 
-3.62809

>  <r_i_glide_ligand_efficiency>  (104) 
-0.403121

>  <r_i_glide_ligand_efficiency_sa>  (104) 
-0.838526

>  <r_i_glide_ligand_efficiency_ln>  (104) 
-1.13476

>  <r_i_glide_gscore>  (104) 
-3.62809

>  <r_i_glide_lipo>  (104) 
0

>  <r_i_glide_hbond>  (104) 
-0.16

>  <r_i_glide_metal>  (104) 
-0

>  <r_i_glide_rewards>  (104) 
-2.25

>  <r_i_glide_evdw>  (104) 
-11.0514

>  <r_i_glide_ecoul>  (104) 
-3.88131

>  <r_i_glide_erotb>  (104) 
0

>  <r_i_glide_esite>  (104) 
-0.0833245

>  <r_i_glide_emodel>  (104) 
-20.708

>  <r_i_glide_energy>  (104) 
-14.9327

>  <r_i_glide_einternal>  (104) 
0

>  <r_i_glide_intrahb_reward>  (104) 
-0

>  <i_i_glide_confnum>  (104) 
1

>  <i_i_glide_posenum>  (104) 
3

>  <r_i_glide_eff_state_penalty>  (104) 
0

>  <ligand_id>  (104) 
36

>  <original_smiles>  (104) 
c1cnc2ncnn2c1

>  <smiles>  (104) 
[H]c1nc2nc([H])c([H])c([H])n2n1

$$$$
36:0:2
     RDKit          3D

 13 14  0  0  1  0  0  0  0  0999 V2000
   -0.5268    1.9461    2.8817 C   0  0  0  0  0  0  0  0  0  0  0  0
   -1.3521    2.5193    3.8779 C   0  0  0  0  0  0  0  0  0  0  0  0
   -1.7836    1.8790    4.9610 N   0  0  0  0  0  0  0  0  0  0  0  0
   -1.4029    0.5968    5.0862 C   0  0  0  0  0  0  0  0  0  0  0  0
   -1.6780   -0.2914    6.0425 N   0  0  0  0  0  0  0  0  0  0  0  0
   -1.0109   -1.4096    5.6292 C   0  0  0  0  0  0  0  0  0  0  0  0
   -0.3470   -1.3156    4.4851 N   0  0  0  0  0  0  0  0  0  0  0  0
   -0.5861   -0.0272    4.1276 N   0  0  0  0  0  0  0  0  0  0  0  0
   -0.1398    0.6340    3.0230 C   0  0  0  0  0  0  0  0  0  0  0  0
   -0.2067    2.5362    2.0240 H   0  0  0  0  0  0  0  0  0  0  0  0
   -1.6632    3.5527    3.7807 H   0  0  0  0  0  0  0  0  0  0  0  0
   -1.0278   -2.3328    6.1903 H   0  0  0  0  0  0  0  0  0  0  0  0
    0.4878    0.0980    2.3180 H   0  0  0  0  0  0  0  0  0  0  0  0
  1  9  2  0
  1  2  1  0
  1 10  1  0
  2  3  2  0
  2 11  1  0
  3  4  1  0
  4  8  1  0
  4  5  2  0
  5  6  1  0
  6  7  2  0
  6 12  1  0
  7  8  1  0
  8  9  1  0
  9 13  1  0
M  END
>  <i_m_ct_stereo_status>  (105) 
1

>  <s_m_source_file>  (105) 
/var/tmp/pbs.5076255.sched01/tmpl63by5lx/41imve8rrw.sdf

>  <i_m_source_file_index>  (105) 
2

>  <i_lp_mmshare_version>  (105) 
48012

>  <i_f3d_flags>  (105) 
0

>  <s_epik_input>  (105) 
bjFbY0hdW2NIXVtjSF1uKGMxMiluW2NIXW4y

>  <s_epik_cmdline>  (105) 
J2VwaWtfcHl0aG9uJywgJy1waHQnLCAnMi4wJywgJy1waCcsICc3LjAnLCAnLXRuJywgJzgnLCAnLW1hJywgJzIwMCcsICctaW1hZScsICc8aW5maWxlLm1hZT4nLCAnLW9tYWUnLCAnPG91dGZpbGUubWFlPic=

>  <r_lp_tautomer_probability>  (105) 
1

>  <r_epik_Ionization_Penalty>  (105) 
1.66986e-07

>  <r_epik_Ionization_Penalty_Charging>  (105) 
0

>  <r_epik_Ionization_Penalty_Neutral>  (105) 
1.66986e-07

>  <r_epik_State_Penalty>  (105) 
-0

>  <r_epik_Charging_Adjusted_Penalty>  (105) 
0

>  <i_epik_Tot_Q>  (105) 
0

>  <i_epik_Tot_abs_Q>  (105) 
0

>  <s_lp_Force_Field>  (105) 
OPLS3e

>  <r_lp_Energy>  (105) 
14.6748

>  <b_lp_Chiralities_Consistent>  (105) 
1

>  <s_lp_Variant>  (105) 
36:0-1

>  <s_i_glide_gridfile>  (105) 
pfpi4k_grid

>  <i_i_glide_lignum>  (105) 
2

>  <i_i_glide_rotatable_bonds>  (105) 
0

>  <r_i_docking_score>  (105) 
-3.61166

>  <r_i_glide_ligand_efficiency>  (105) 
-0.401295

>  <r_i_glide_ligand_efficiency_sa>  (105) 
-0.834728

>  <r_i_glide_ligand_efficiency_ln>  (105) 
-1.12962

>  <r_i_glide_gscore>  (105) 
-3.61166

>  <r_i_glide_lipo>  (105) 
0

>  <r_i_glide_hbond>  (105) 
-0.136992

>  <r_i_glide_metal>  (105) 
-0

>  <r_i_glide_rewards>  (105) 
-2.25

>  <r_i_glide_evdw>  (105) 
-11.621

>  <r_i_glide_ecoul>  (105) 
-3.60831

>  <r_i_glide_erotb>  (105) 
0

>  <r_i_glide_esite>  (105) 
-0.10237

>  <r_i_glide_emodel>  (105) 
-20.9787

>  <r_i_glide_energy>  (105) 
-15.2293

>  <r_i_glide_einternal>  (105) 
0

>  <r_i_glide_intrahb_reward>  (105) 
-0

>  <i_i_glide_confnum>  (105) 
1

>  <i_i_glide_posenum>  (105) 
2

>  <r_i_glide_eff_state_penalty>  (105) 
0

>  <ligand_id>  (105) 
36

>  <original_smiles>  (105) 
c1cnc2ncnn2c1

>  <smiles>  (105) 
[H]c1nc2nc([H])c([H])c([H])n2n1

$$$$
37:0:0
     RDKit          3D

 46 48  0  0  1  0  0  0  0  0999 V2000
    6.3110   -6.5097    5.5780 C   0  0  0  0  0  0  0  0  0  0  0  0
    5.0245   -5.7323    5.8788 C   0  0  0  0  0  0  0  0  0  0  0  0
    5.0250   -4.3191    5.2742 C   0  0  0  0  0  0  0  0  0  0  0  0
    5.0315   -4.3769    3.8527 O   0  0  0  0  0  0  0  0  0  0  0  0
    3.8735   -4.4873    3.1698 C   0  0  0  0  0  0  0  0  0  0  0  0
    2.7555   -4.5121    3.6876 O   0  0  0  0  0  0  0  0  0  0  0  0
    4.1073   -4.5402    1.6426 C   0  0  1  0  0  0  0  0  0  0  0  0
    2.8963   -5.0249    0.7999 C   0  0  0  0  0  0  0  0  0  0  0  0
    2.1301   -6.2490    1.2792 C   0  0  0  0  0  0  0  0  0  0  0  0
    2.5612   -4.5243   -0.3192 N   0  0  0  0  0  0  0  0  0  0  0  0
    3.3220   -3.5369   -0.9521 C   0  0  0  0  0  0  0  0  0  0  0  0
    2.7454   -2.8540   -1.9605 C   0  0  0  0  0  0  0  0  0  0  0  0
    3.3942   -1.6757   -2.6601 C   0  0  0  0  0  0  0  0  0  0  0  0
    4.4667   -0.9993   -1.7880 C   0  0  0  0  0  0  0  0  0  0  0  0
    5.3901   -2.0224   -1.1236 C   0  0  0  0  0  0  0  0  0  0  0  0
    6.6095   -1.8597   -1.1144 O   0  0  0  0  0  0  0  0  0  0  0  0
    4.7379   -3.2482   -0.4526 C   0  0  1  0  0  0  0  0  0  0  0  0
    4.7679   -3.2364    1.0885 C   0  0  1  0  0  0  0  0  0  0  0  0
    4.2464   -1.9366    1.7269 C   0  0  0  0  0  0  0  0  0  0  0  0
    5.0167   -1.2566    2.6928 C   0  0  0  0  0  0  0  0  0  0  0  0
    4.5097   -0.0707    3.2570 C   0  0  0  0  0  0  0  0  0  0  0  0
    3.3223    0.4680    2.9132 N   0  0  0  0  0  0  0  0  0  0  0  0
    2.5853   -0.1794    1.9892 C   0  0  0  0  0  0  0  0  0  0  0  0
    2.9909   -1.3831    1.3904 C   0  0  0  0  0  0  0  0  0  0  0  0
    6.2582   -7.5175    5.9902 H   0  0  0  0  0  0  0  0  0  0  0  0
    7.1818   -6.0167    6.0114 H   0  0  0  0  0  0  0  0  0  0  0  0
    6.4778   -6.6008    4.5045 H   0  0  0  0  0  0  0  0  0  0  0  0
    4.1611   -6.2953    5.5220 H   0  0  0  0  0  0  0  0  0  0  0  0
    4.9064   -5.6569    6.9589 H   0  0  0  0  0  0  0  0  0  0  0  0
    4.1661   -3.7510    5.6319 H   0  0  0  0  0  0  0  0  0  0  0  0
    5.9042   -3.7691    5.6093 H   0  0  0  0  0  0  0  0  0  0  0  0
    2.8022   -7.0862    1.4540 H   0  0  0  0  0  0  0  0  0  0  0  0
    1.4214   -6.5613    0.5144 H   0  0  0  0  0  0  0  0  0  0  0  0
    1.5550   -6.0527    2.1777 H   0  0  0  0  0  0  0  0  0  0  0  0
    1.7404   -3.0958   -2.2805 H   0  0  0  0  0  0  0  0  0  0  0  0
    4.8485   -5.3276    1.5011 H   0  0  0  0  0  0  0  0  0  0  0  0
    2.6149   -0.9435   -2.8781 H   0  0  0  0  0  0  0  0  0  0  0  0
    3.8042   -2.0221   -3.6113 H   0  0  0  0  0  0  0  0  0  0  0  0
    5.0426   -0.2911   -2.3839 H   0  0  0  0  0  0  0  0  0  0  0  0
    3.9877   -0.4196   -0.9964 H   0  0  0  0  0  0  0  0  0  0  0  0
    5.3269   -4.1077   -0.7806 H   0  0  0  0  0  0  0  0  0  0  0  0
    5.8221   -3.3005    1.3620 H   0  0  0  0  0  0  0  0  0  0  0  0
    5.9844   -1.6258    3.0018 H   0  0  0  0  0  0  0  0  0  0  0  0
    5.0755    0.4843    3.9902 H   0  0  0  0  0  0  0  0  0  0  0  0
    1.6487    0.2803    1.7083 H   0  0  0  0  0  0  0  0  0  0  0  0
    2.3219   -1.8335    0.6726 H   0  0  0  0  0  0  0  0  0  0  0  0
  1  2  1  0
  1 25  1  0
  1 26  1  0
  1 27  1  0
  2  3  1  0
  2 28  1  0
  2 29  1  0
  3  4  1  0
  3 30  1  0
  3 31  1  0
  4  5  1  0
  5  6  2  0
  5  7  1  0
  7 18  1  0
  7 36  1  1
  7  8  1  0
  8  9  1  0
  8 10  2  0
  9 32  1  0
  9 33  1  0
  9 34  1  0
 10 11  1  0
 11 17  1  0
 11 12  2  0
 12 13  1  0
 12 35  1  0
 13 14  1  0
 13 37  1  0
 13 38  1  0
 14 15  1  0
 14 39  1  0
 14 40  1  0
 15 16  2  0
 15 17  1  0
 17 18  1  0
 17 41  1  6
 18 19  1  0
 18 42  1  6
 19 24  1  0
 19 20  2  0
 20 21  1  0
 20 43  1  0
 21 22  2  0
 21 44  1  0
 22 23  1  0
 23 24  2  0
 23 45  1  0
 24 46  1  0
M  END
>  <i_m_ct_stereo_status>  (106) 
1

>  <s_m_source_file>  (106) 
/var/tmp/pbs.5076255.sched01/tmpl63by5lx/41imve8rrw.sdf

>  <i_m_source_file_index>  (106) 
3

>  <i_lp_mmshare_version>  (106) 
48012

>  <i_f3d_flags>  (106) 
0

>  <s_epik_input>  (106) 
W0NIM11bQ0gyXVtDSDJdT0MoPU8pQyg9QyhOPTEpW0NIM10pW0NAQEhdKFtDQEBIXShDMTIpQyg9TylbQ0gyXVtDSDJdW0NIMl0yKWMzW2NIXVtjSF1uW2NIXVtjSF0z

>  <s_epik_cmdline>  (106) 
J2VwaWtfcHl0aG9uJywgJy1waHQnLCAnMi4wJywgJy1waCcsICc3LjAnLCAnLXRuJywgJzgnLCAnLW1hJywgJzIwMCcsICctaW1hZScsICc8aW5maWxlLm1hZT4nLCAnLW9tYWUnLCAnPG91dGZpbGUubWFlPic=

>  <r_lp_tautomer_probability>  (106) 
0.499981

>  <r_epik_Ionization_Penalty>  (106) 
0.0145155

>  <r_epik_Ionization_Penalty_Charging>  (106) 
0

>  <r_epik_Ionization_Penalty_Neutral>  (106) 
0.0145155

>  <r_epik_State_Penalty>  (106) 
0.753757

>  <r_epik_Charging_Adjusted_Penalty>  (106) 
0.753757

>  <i_epik_Tot_Q>  (106) 
0

>  <i_epik_Tot_abs_Q>  (106) 
0

>  <s_epik_Chemistry_Notes>  (106) 
This compound has an ester and may undergo hydrolysis at high or low pH. This compound has an imine and may undergo hydrolysis.

>  <s_lp_Force_Field>  (106) 
OPLS3e

>  <r_lp_Energy>  (106) 
21.0334

>  <b_lp_Chiralities_Consistent>  (106) 
1

>  <s_lp_Variant>  (106) 
37:0-1

>  <s_i_glide_gridfile>  (106) 
pfpi4k_grid

>  <i_i_glide_lignum>  (106) 
3

>  <i_i_glide_rotatable_bonds>  (106) 
5

>  <r_i_docking_score>  (106) 
-2.2291

>  <r_i_glide_ligand_efficiency>  (106) 
-0.0928792

>  <r_i_glide_ligand_efficiency_sa>  (106) 
-0.26791

>  <r_i_glide_ligand_efficiency_ln>  (106) 
-0.533526

>  <r_i_glide_gscore>  (106) 
-2.2291

>  <r_i_glide_lipo>  (106) 
-0.266823

>  <r_i_glide_hbond>  (106) 
-0.16

>  <r_i_glide_metal>  (106) 
-0

>  <r_i_glide_rewards>  (106) 
-1.18371

>  <r_i_glide_evdw>  (106) 
-21.5575

>  <r_i_glide_ecoul>  (106) 
-1.2675

>  <r_i_glide_erotb>  (106) 
0.704179

>  <r_i_glide_esite>  (106) 
-0.0547517

>  <r_i_glide_emodel>  (106) 
-25.5423

>  <r_i_glide_energy>  (106) 
-22.825

>  <r_i_glide_einternal>  (106) 
1.28062

>  <r_i_glide_intrahb_reward>  (106) 
-0

>  <i_i_glide_confnum>  (106) 
1

>  <i_i_glide_posenum>  (106) 
36

>  <r_i_glide_eff_state_penalty>  (106) 
0

>  <ligand_id>  (106) 
37

>  <original_smiles>  (106) 
CCCOC(=O)C1=C(C)N=C2CCCC(=O)C2C1c1ccncc1

>  <smiles>  (106) 
[H]C1=C2N=C(C([H])([H])[H])C([H])(C(=O)OC([H])([H])C([H])([H])C([H])([H])[H])C([H])(c3c([H])c([H])nc([H])c3[H])C2([H])C(=O)C([H])([H])C1([H])[H]

$$$$
37:0:1
     RDKit          3D

 46 48  0  0  1  0  0  0  0  0999 V2000
    6.9281   -5.4306    6.1522 C   0  0  0  0  0  0  0  0  0  0  0  0
    5.4341   -5.1887    6.4003 C   0  0  0  0  0  0  0  0  0  0  0  0
    4.9128   -3.9211    5.7113 C   0  0  0  0  0  0  0  0  0  0  0  0
    4.9645   -4.0768    4.2992 O   0  0  0  0  0  0  0  0  0  0  0  0
    3.8542   -4.3903    3.6028 C   0  0  0  0  0  0  0  0  0  0  0  0
    2.7364   -4.5352    4.0984 O   0  0  0  0  0  0  0  0  0  0  0  0
    4.1377   -4.5099    2.0864 C   0  0  1  0  0  0  0  0  0  0  0  0
    2.9807   -5.0982    1.2298 C   0  0  0  0  0  0  0  0  0  0  0  0
    2.2410   -6.3247    1.7384 C   0  0  0  0  0  0  0  0  0  0  0  0
    2.6659   -4.6707    0.0736 N   0  0  0  0  0  0  0  0  0  0  0  0
    3.3885   -3.6724   -0.5814 C   0  0  0  0  0  0  0  0  0  0  0  0
    2.8022   -3.0558   -1.6261 C   0  0  0  0  0  0  0  0  0  0  0  0
    3.4211   -1.8889   -2.3710 C   0  0  0  0  0  0  0  0  0  0  0  0
    4.4400   -1.1229   -1.5102 C   0  0  0  0  0  0  0  0  0  0  0  0
    5.3875   -2.0723   -0.7730 C   0  0  0  0  0  0  0  0  0  0  0  0
    6.5980   -1.8532   -0.7415 O   0  0  0  0  0  0  0  0  0  0  0  0
    4.7722   -3.2934   -0.0591 C   0  0  1  0  0  0  0  0  0  0  0  0
    4.7514   -3.2026    1.4826 C   0  0  1  0  0  0  0  0  0  0  0  0
    4.1361   -1.9016    2.0235 C   0  0  0  0  0  0  0  0  0  0  0  0
    2.8153   -1.5123    1.7028 C   0  0  0  0  0  0  0  0  0  0  0  0
    2.3096   -0.3075    2.2159 C   0  0  0  0  0  0  0  0  0  0  0  0
    3.0124    0.4978    3.0348 N   0  0  0  0  0  0  0  0  0  0  0  0
    4.2663    0.1221    3.3598 C   0  0  0  0  0  0  0  0  0  0  0  0
    4.8737   -1.0559    2.8803 C   0  0  0  0  0  0  0  0  0  0  0  0
    7.2542   -6.3523    6.6346 H   0  0  0  0  0  0  0  0  0  0  0  0
    7.5324   -4.6150    6.5498 H   0  0  0  0  0  0  0  0  0  0  0  0
    7.1451   -5.5199    5.0872 H   0  0  0  0  0  0  0  0  0  0  0  0
    4.8564   -6.0539    6.0737 H   0  0  0  0  0  0  0  0  0  0  0  0
    5.2676   -5.1007    7.4734 H   0  0  0  0  0  0  0  0  0  0  0  0
    3.9025   -3.7004    6.0557 H   0  0  0  0  0  0  0  0  0  0  0  0
    5.5143   -3.0584    5.9943 H   0  0  0  0  0  0  0  0  0  0  0  0
    2.9371   -7.1267    1.9796 H   0  0  0  0  0  0  0  0  0  0  0  0
    1.5681   -6.7019    0.9677 H   0  0  0  0  0  0  0  0  0  0  0  0
    1.6211   -6.1080    2.6033 H   0  0  0  0  0  0  0  0  0  0  0  0
    1.8235   -3.3622   -1.9686 H   0  0  0  0  0  0  0  0  0  0  0  0
    4.9199   -5.2669    2.0069 H   0  0  0  0  0  0  0  0  0  0  0  0
    2.6142   -1.2110   -2.6564 H   0  0  0  0  0  0  0  0  0  0  0  0
    3.8733   -2.2654   -3.2919 H   0  0  0  0  0  0  0  0  0  0  0  0
    5.0042   -0.4240   -2.1232 H   0  0  0  0  0  0  0  0  0  0  0  0
    3.9108   -0.5326   -0.7604 H   0  0  0  0  0  0  0  0  0  0  0  0
    5.4124   -4.1371   -0.3260 H   0  0  0  0  0  0  0  0  0  0  0  0
    5.7976   -3.1934    1.7943 H   0  0  0  0  0  0  0  0  0  0  0  0
    2.1752   -2.0947    1.0613 H   0  0  0  0  0  0  0  0  0  0  0  0
    1.3135    0.0185    1.9563 H   0  0  0  0  0  0  0  0  0  0  0  0
    4.8008    0.7945    4.0165 H   0  0  0  0  0  0  0  0  0  0  0  0
    5.8867   -1.2961    3.1729 H   0  0  0  0  0  0  0  0  0  0  0  0
  1  2  1  0
  1 25  1  0
  1 26  1  0
  1 27  1  0
  2  3  1  0
  2 28  1  0
  2 29  1  0
  3  4  1  0
  3 30  1  0
  3 31  1  0
  4  5  1  0
  5  6  2  0
  5  7  1  0
  7 18  1  0
  7 36  1  1
  7  8  1  0
  8  9  1  0
  8 10  2  0
  9 32  1  0
  9 33  1  0
  9 34  1  0
 10 11  1  0
 11 17  1  0
 11 12  2  0
 12 13  1  0
 12 35  1  0
 13 14  1  0
 13 37  1  0
 13 38  1  0
 14 15  1  0
 14 39  1  0
 14 40  1  0
 15 16  2  0
 15 17  1  0
 17 18  1  0
 17 41  1  1
 18 19  1  0
 18 42  1  1
 19 24  1  0
 19 20  2  0
 20 21  1  0
 20 43  1  0
 21 22  2  0
 21 44  1  0
 22 23  1  0
 23 24  2  0
 23 45  1  0
 24 46  1  0
M  END
>  <i_m_ct_stereo_status>  (107) 
1

>  <s_m_source_file>  (107) 
/var/tmp/pbs.5076255.sched01/tmpl63by5lx/41imve8rrw.sdf

>  <i_m_source_file_index>  (107) 
3

>  <i_lp_mmshare_version>  (107) 
48012

>  <i_f3d_flags>  (107) 
0

>  <s_epik_input>  (107) 
W0NIM11bQ0gyXVtDSDJdT0MoPU8pQyg9QyhOPTEpW0NIM10pW0NAQEhdKFtDQEBIXShDMTIpQyg9TylbQ0gyXVtDSDJdW0NIMl0yKWMzW2NIXVtjSF1uW2NIXVtjSF0z

>  <s_epik_cmdline>  (107) 
J2VwaWtfcHl0aG9uJywgJy1waHQnLCAnMi4wJywgJy1waCcsICc3LjAnLCAnLXRuJywgJzgnLCAnLW1hJywgJzIwMCcsICctaW1hZScsICc8aW5maWxlLm1hZT4nLCAnLW9tYWUnLCAnPG91dGZpbGUubWFlPic=

>  <r_lp_tautomer_probability>  (107) 
0.499981

>  <r_epik_Ionization_Penalty>  (107) 
0.0145155

>  <r_epik_Ionization_Penalty_Charging>  (107) 
0

>  <r_epik_Ionization_Penalty_Neutral>  (107) 
0.0145155

>  <r_epik_State_Penalty>  (107) 
0.753757

>  <r_epik_Charging_Adjusted_Penalty>  (107) 
0.753757

>  <i_epik_Tot_Q>  (107) 
0

>  <i_epik_Tot_abs_Q>  (107) 
0

>  <s_epik_Chemistry_Notes>  (107) 
This compound has an ester and may undergo hydrolysis at high or low pH. This compound has an imine and may undergo hydrolysis.

>  <s_lp_Force_Field>  (107) 
OPLS3e

>  <r_lp_Energy>  (107) 
21.0334

>  <b_lp_Chiralities_Consistent>  (107) 
1

>  <s_lp_Variant>  (107) 
37:0-1

>  <s_i_glide_gridfile>  (107) 
pfpi4k_grid

>  <i_i_glide_lignum>  (107) 
3

>  <i_i_glide_rotatable_bonds>  (107) 
5

>  <r_i_docking_score>  (107) 
-2.19949

>  <r_i_glide_ligand_efficiency>  (107) 
-0.0916455

>  <r_i_glide_ligand_efficiency_sa>  (107) 
-0.264351

>  <r_i_glide_ligand_efficiency_ln>  (107) 
-0.526439

>  <r_i_glide_gscore>  (107) 
-2.19949

>  <r_i_glide_lipo>  (107) 
-0.195835

>  <r_i_glide_hbond>  (107) 
-0.16

>  <r_i_glide_metal>  (107) 
-0

>  <r_i_glide_rewards>  (107) 
-1.18371

>  <r_i_glide_evdw>  (107) 
-22.3538

>  <r_i_glide_ecoul>  (107) 
-1.41665

>  <r_i_glide_erotb>  (107) 
0.704179

>  <r_i_glide_esite>  (107) 
-0.0339395

>  <r_i_glide_emodel>  (107) 
-26.3637

>  <r_i_glide_energy>  (107) 
-23.7705

>  <r_i_glide_einternal>  (107) 
1.44655

>  <r_i_glide_intrahb_reward>  (107) 
-0

>  <i_i_glide_confnum>  (107) 
3

>  <i_i_glide_posenum>  (107) 
28

>  <r_i_glide_eff_state_penalty>  (107) 
0

>  <ligand_id>  (107) 
37

>  <original_smiles>  (107) 
CCCOC(=O)C1=C(C)N=C2CCCC(=O)C2C1c1ccncc1

>  <smiles>  (107) 
[H]C1=C2N=C(C([H])([H])[H])C([H])(C(=O)OC([H])([H])C([H])([H])C([H])([H])[H])C([H])(c3c([H])c([H])nc([H])c3[H])C2([H])C(=O)C([H])([H])C1([H])[H]

$$$$
37:0:2
     RDKit          3D

 46 48  0  0  1  0  0  0  0  0999 V2000
    4.2546   -5.7094    7.6120 C   0  0  0  0  0  0  0  0  0  0  0  0
    4.3911   -5.7213    6.0859 C   0  0  0  0  0  0  0  0  0  0  0  0
    4.5673   -4.3179    5.4830 C   0  0  0  0  0  0  0  0  0  0  0  0
    4.7122   -4.3955    4.0694 O   0  0  0  0  0  0  0  0  0  0  0  0
    3.6236   -4.4401    3.2752 C   0  0  0  0  0  0  0  0  0  0  0  0
    2.4585   -4.4072    3.6767 O   0  0  0  0  0  0  0  0  0  0  0  0
    4.0037   -4.4928    1.7784 C   0  0  1  0  0  0  0  0  0  0  0  0
    2.8623   -4.9364    0.8257 C   0  0  0  0  0  0  0  0  0  0  0  0
    2.0153   -6.1365    1.2155 C   0  0  0  0  0  0  0  0  0  0  0  0
    2.6430   -4.4147   -0.3166 N   0  0  0  0  0  0  0  0  0  0  0  0
    3.4829   -3.4537   -0.8730 C   0  0  0  0  0  0  0  0  0  0  0  0
    3.0175   -2.7427   -1.9173 C   0  0  0  0  0  0  0  0  0  0  0  0
    3.7529   -1.5812   -2.5499 C   0  0  0  0  0  0  0  0  0  0  0  0
    4.7591   -0.9381   -1.5806 C   0  0  0  0  0  0  0  0  0  0  0  0
    5.5873   -1.9904   -0.8397 C   0  0  0  0  0  0  0  0  0  0  0  0
    6.8039   -1.8546   -0.7159 O   0  0  0  0  0  0  0  0  0  0  0  0
    4.8546   -3.2059   -0.2449 C   0  0  1  0  0  0  0  0  0  0  0  0
    4.7430   -3.2042    1.2958 C   0  0  1  0  0  0  0  0  0  0  0  0
    4.1989   -1.8910    1.8893 C   0  0  0  0  0  0  0  0  0  0  0  0
    4.9028   -1.2317    2.9187 C   0  0  0  0  0  0  0  0  0  0  0  0
    4.3801   -0.0286    3.4376 C   0  0  0  0  0  0  0  0  0  0  0  0
    3.2398    0.5354    2.9988 N   0  0  0  0  0  0  0  0  0  0  0  0
    2.5653   -0.0929    2.0177 C   0  0  0  0  0  0  0  0  0  0  0  0
    2.9922   -1.3070    1.4479 C   0  0  0  0  0  0  0  0  0  0  0  0
    4.1541   -6.7262    7.9946 H   0  0  0  0  0  0  0  0  0  0  0  0
    3.3726   -5.1505    7.9261 H   0  0  0  0  0  0  0  0  0  0  0  0
    5.1271   -5.2615    8.0886 H   0  0  0  0  0  0  0  0  0  0  0  0
    5.2418   -6.3436    5.8074 H   0  0  0  0  0  0  0  0  0  0  0  0
    3.5066   -6.1982    5.6633 H   0  0  0  0  0  0  0  0  0  0  0  0
    3.7381   -3.6643    5.7572 H   0  0  0  0  0  0  0  0  0  0  0  0
    5.4639   -3.8544    5.8939 H   0  0  0  0  0  0  0  0  0  0  0  0
    2.6403   -6.9993    1.4407 H   0  0  0  0  0  0  0  0  0  0  0  0
    1.3669   -6.4195    0.3861 H   0  0  0  0  0  0  0  0  0  0  0  0
    1.3682   -5.9276    2.0620 H   0  0  0  0  0  0  0  0  0  0  0  0
    2.0391   -2.9476   -2.3261 H   0  0  0  0  0  0  0  0  0  0  0  0
    4.7316   -5.2999    1.6958 H   0  0  0  0  0  0  0  0  0  0  0  0
    3.0128   -0.8299   -2.8391 H   0  0  0  0  0  0  0  0  0  0  0  0
    4.2462   -1.9314   -3.4597 H   0  0  0  0  0  0  0  0  0  0  0  0
    5.4130   -0.2570   -2.1223 H   0  0  0  0  0  0  0  0  0  0  0  0
    4.2301   -0.3395   -0.8352 H   0  0  0  0  0  0  0  0  0  0  0  0
    5.4536   -4.0763   -0.5234 H   0  0  0  0  0  0  0  0  0  0  0  0
    5.7659   -3.2957    1.6652 H   0  0  0  0  0  0  0  0  0  0  0  0
    5.8226   -1.6314    3.3150 H   0  0  0  0  0  0  0  0  0  0  0  0
    4.8971    0.5059    4.2194 H   0  0  0  0  0  0  0  0  0  0  0  0
    1.6660    0.3865    1.6628 H   0  0  0  0  0  0  0  0  0  0  0  0
    2.3775   -1.7401    0.6742 H   0  0  0  0  0  0  0  0  0  0  0  0
  1  2  1  0
  1 25  1  0
  1 26  1  0
  1 27  1  0
  2  3  1  0
  2 28  1  0
  2 29  1  0
  3  4  1  0
  3 30  1  0
  3 31  1  0
  4  5  1  0
  5  6  2  0
  5  7  1  0
  7 18  1  0
  7 36  1  1
  7  8  1  0
  8  9  1  0
  8 10  2  0
  9 32  1  0
  9 33  1  0
  9 34  1  0
 10 11  1  0
 11 17  1  0
 11 12  2  0
 12 13  1  0
 12 35  1  0
 13 14  1  0
 13 37  1  0
 13 38  1  0
 14 15  1  0
 14 39  1  0
 14 40  1  0
 15 16  2  0
 15 17  1  0
 17 18  1  0
 17 41  1  1
 18 19  1  0
 18 42  1  1
 19 24  1  0
 19 20  2  0
 20 21  1  0
 20 43  1  0
 21 22  2  0
 21 44  1  0
 22 23  1  0
 23 24  2  0
 23 45  1  0
 24 46  1  0
M  END
>  <i_m_ct_stereo_status>  (108) 
1

>  <s_m_source_file>  (108) 
/var/tmp/pbs.5076255.sched01/tmpl63by5lx/41imve8rrw.sdf

>  <i_m_source_file_index>  (108) 
3

>  <i_lp_mmshare_version>  (108) 
48012

>  <i_f3d_flags>  (108) 
0

>  <s_epik_input>  (108) 
W0NIM11bQ0gyXVtDSDJdT0MoPU8pQyg9QyhOPTEpW0NIM10pW0NAQEhdKFtDQEBIXShDMTIpQyg9TylbQ0gyXVtDSDJdW0NIMl0yKWMzW2NIXVtjSF1uW2NIXVtjSF0z

>  <s_epik_cmdline>  (108) 
J2VwaWtfcHl0aG9uJywgJy1waHQnLCAnMi4wJywgJy1waCcsICc3LjAnLCAnLXRuJywgJzgnLCAnLW1hJywgJzIwMCcsICctaW1hZScsICc8aW5maWxlLm1hZT4nLCAnLW9tYWUnLCAnPG91dGZpbGUubWFlPic=

>  <r_lp_tautomer_probability>  (108) 
0.499981

>  <r_epik_Ionization_Penalty>  (108) 
0.0145155

>  <r_epik_Ionization_Penalty_Charging>  (108) 
0

>  <r_epik_Ionization_Penalty_Neutral>  (108) 
0.0145155

>  <r_epik_State_Penalty>  (108) 
0.753757

>  <r_epik_Charging_Adjusted_Penalty>  (108) 
0.753757

>  <i_epik_Tot_Q>  (108) 
0

>  <i_epik_Tot_abs_Q>  (108) 
0

>  <s_epik_Chemistry_Notes>  (108) 
This compound has an ester and may undergo hydrolysis at high or low pH. This compound has an imine and may undergo hydrolysis.

>  <s_lp_Force_Field>  (108) 
OPLS3e

>  <r_lp_Energy>  (108) 
21.0334

>  <b_lp_Chiralities_Consistent>  (108) 
1

>  <s_lp_Variant>  (108) 
37:0-1

>  <s_i_glide_gridfile>  (108) 
pfpi4k_grid

>  <i_i_glide_lignum>  (108) 
3

>  <i_i_glide_rotatable_bonds>  (108) 
5

>  <r_i_docking_score>  (108) 
-2.13121

>  <r_i_glide_ligand_efficiency>  (108) 
-0.0888006

>  <r_i_glide_ligand_efficiency_sa>  (108) 
-0.256145

>  <r_i_glide_ligand_efficiency_ln>  (108) 
-0.510097

>  <r_i_glide_gscore>  (108) 
-2.13121

>  <r_i_glide_lipo>  (108) 
-0.231704

>  <r_i_glide_hbond>  (108) 
-0.16

>  <r_i_glide_metal>  (108) 
-0

>  <r_i_glide_rewards>  (108) 
-1.18371

>  <r_i_glide_evdw>  (108) 
-22.2023

>  <r_i_glide_ecoul>  (108) 
-0.623718

>  <r_i_glide_erotb>  (108) 
0.704179

>  <r_i_glide_esite>  (108) 
-0.056306

>  <r_i_glide_emodel>  (108) 
-25.7074

>  <r_i_glide_energy>  (108) 
-22.8261

>  <r_i_glide_einternal>  (108) 
0.627335

>  <r_i_glide_intrahb_reward>  (108) 
-0

>  <i_i_glide_confnum>  (108) 
1

>  <i_i_glide_posenum>  (108) 
24

>  <r_i_glide_eff_state_penalty>  (108) 
0

>  <ligand_id>  (108) 
37

>  <original_smiles>  (108) 
CCCOC(=O)C1=C(C)N=C2CCCC(=O)C2C1c1ccncc1

>  <smiles>  (108) 
[H]C1=C2N=C(C([H])([H])[H])C([H])(C(=O)OC([H])([H])C([H])([H])C([H])([H])[H])C([H])(c3c([H])c([H])nc([H])c3[H])C2([H])C(=O)C([H])([H])C1([H])[H]

$$$$
37:1:0
     RDKit          3D

 46 48  0  0  1  0  0  0  0  0999 V2000
    1.6127   -7.2592    3.5988 C   0  0  0  0  0  0  0  0  0  0  0  0
    2.0783   -5.9928    4.3379 C   0  0  0  0  0  0  0  0  0  0  0  0
    1.8519   -4.6836    3.5678 C   0  0  0  0  0  0  0  0  0  0  0  0
    2.7204   -4.5831    2.4421 O   0  0  0  0  0  0  0  0  0  0  0  0
    2.4135   -5.1232    1.2453 C   0  0  0  0  0  0  0  0  0  0  0  0
    1.4073   -5.7890    1.0011 O   0  0  0  0  0  0  0  0  0  0  0  0
    3.4405   -4.8478    0.1582 C   0  0  2  0  0  0  0  0  0  0  0  0
    4.7805   -5.5122    0.5478 C   0  0  0  0  0  0  0  0  0  0  0  0
    4.8184   -7.0209    0.4980 C   0  0  0  0  0  0  0  0  0  0  0  0
    5.8277   -4.8724    0.8636 N   0  0  0  0  0  0  0  0  0  0  0  0
    5.8549   -3.4691    0.8636 C   0  0  0  0  0  0  0  0  0  0  0  0
    7.0539   -2.8852    0.8458 C   0  0  0  0  0  0  0  0  0  0  0  0
    7.2351   -1.3788    0.8240 C   0  0  0  0  0  0  0  0  0  0  0  0
    6.0515   -0.6512    0.1760 C   0  0  0  0  0  0  0  0  0  0  0  0
    4.7229   -1.1640    0.7122 C   0  0  0  0  0  0  0  0  0  0  0  0
    3.8086   -0.3854    1.0001 O   0  0  0  0  0  0  0  0  0  0  0  0
    4.5531   -2.6817    0.8636 C   0  0  1  0  0  0  0  0  0  0  0  0
    3.5495   -3.3178   -0.1176 C   0  0  1  0  0  0  0  0  0  0  0  0
    3.8069   -2.9779   -1.5796 C   0  0  0  0  0  0  0  0  0  0  0  0
    3.2549   -1.8003   -2.1256 C   0  0  0  0  0  0  0  0  0  0  0  0
    3.4315   -1.5334   -3.4958 C   0  0  0  0  0  0  0  0  0  0  0  0
    4.1093   -2.3672   -4.3142 N   0  0  0  0  0  0  0  0  0  0  0  0
    4.6520   -3.4858   -3.7816 C   0  0  0  0  0  0  0  0  0  0  0  0
    4.5586   -3.8366   -2.4219 C   0  0  0  0  0  0  0  0  0  0  0  0
    1.6641   -8.1389    4.2521 H   0  0  0  0  0  0  0  0  0  0  0  0
    2.1820   -7.4108    2.6806 H   0  0  0  0  0  0  0  0  0  0  0  0
    0.5767   -7.1459    3.2966 H   0  0  0  0  0  0  0  0  0  0  0  0
    1.5741   -5.9228    5.3015 H   0  0  0  0  0  0  0  0  0  0  0  0
    3.1385   -6.0806    4.5738 H   0  0  0  0  0  0  0  0  0  0  0  0
    0.8024   -4.5068    3.3118 H   0  0  0  0  0  0  0  0  0  0  0  0
    2.1180   -3.8536    4.2195 H   0  0  0  0  0  0  0  0  0  0  0  0
    4.5966   -7.3882   -0.5045 H   0  0  0  0  0  0  0  0  0  0  0  0
    4.1369   -7.4792    1.2199 H   0  0  0  0  0  0  0  0  0  0  0  0
    5.8145   -7.3677    0.7408 H   0  0  0  0  0  0  0  0  0  0  0  0
    7.9610   -3.4763    0.8844 H   0  0  0  0  0  0  0  0  0  0  0  0
    3.0441   -5.3411   -0.7266 H   0  0  0  0  0  0  0  0  0  0  0  0
    8.1635   -1.1547    0.3017 H   0  0  0  0  0  0  0  0  0  0  0  0
    7.3522   -1.0525    1.8530 H   0  0  0  0  0  0  0  0  0  0  0  0
    6.1290    0.4116    0.3806 H   0  0  0  0  0  0  0  0  0  0  0  0
    6.0496   -0.8095   -0.9064 H   0  0  0  0  0  0  0  0  0  0  0  0
    4.1753   -2.7905    1.8738 H   0  0  0  0  0  0  0  0  0  0  0  0
    2.5692   -2.8884    0.0950 H   0  0  0  0  0  0  0  0  0  0  0  0
    2.6461   -1.1313   -1.5320 H   0  0  0  0  0  0  0  0  0  0  0  0
    3.0141   -0.6576   -3.9385 H   0  0  0  0  0  0  0  0  0  0  0  0
    5.1983   -4.1286   -4.4757 H   0  0  0  0  0  0  0  0  0  0  0  0
    5.0010   -4.7503   -2.0889 H   0  0  0  0  0  0  0  0  0  0  0  0
  1  2  1  0
  1 25  1  0
  1 26  1  0
  1 27  1  0
  2  3  1  0
  2 28  1  0
  2 29  1  0
  3  4  1  0
  3 30  1  0
  3 31  1  0
  4  5  1  0
  5  6  2  0
  5  7  1  0
  7 18  1  0
  7 36  1  6
  7  8  1  0
  8  9  1  0
  8 10  2  0
  9 32  1  0
  9 33  1  0
  9 34  1  0
 10 11  1  0
 11 17  1  0
 11 12  2  0
 12 13  1  0
 12 35  1  0
 13 14  1  0
 13 37  1  0
 13 38  1  0
 14 15  1  0
 14 39  1  0
 14 40  1  0
 15 16  2  0
 15 17  1  0
 17 18  1  0
 17 41  1  1
 18 19  1  0
 18 42  1  1
 19 24  1  0
 19 20  2  0
 20 21  1  0
 20 43  1  0
 21 22  2  0
 21 44  1  0
 22 23  1  0
 23 24  2  0
 23 45  1  0
 24 46  1  0
M  END
>  <i_m_ct_stereo_status>  (109) 
1

>  <s_m_source_file>  (109) 
/var/tmp/pbs.5076255.sched01/tmpl63by5lx/41imve8rrw.sdf

>  <i_m_source_file_index>  (109) 
4

>  <i_lp_mmshare_version>  (109) 
48012

>  <i_f3d_flags>  (109) 
0

>  <s_epik_input>  (109) 
W0NIM11bQ0gyXVtDSDJdT0MoPU8pQyg9QyhOPTEpW0NIM10pW0NAQEhdKFtDQEBIXShDMTIpQyg9TylbQ0gyXVtDSDJdW0NIMl0yKWMzW2NIXVtjSF1uW2NIXVtjSF0z

>  <s_epik_cmdline>  (109) 
J2VwaWtfcHl0aG9uJywgJy1waHQnLCAnMi4wJywgJy1waCcsICc3LjAnLCAnLXRuJywgJzgnLCAnLW1hJywgJzIwMCcsICctaW1hZScsICc8aW5maWxlLm1hZT4nLCAnLW9tYWUnLCAnPG91dGZpbGUubWFlPic=

>  <r_lp_tautomer_probability>  (109) 
0.499981

>  <r_epik_Ionization_Penalty>  (109) 
0.0145155

>  <r_epik_Ionization_Penalty_Charging>  (109) 
0

>  <r_epik_Ionization_Penalty_Neutral>  (109) 
0.0145155

>  <r_epik_State_Penalty>  (109) 
0.753757

>  <r_epik_Charging_Adjusted_Penalty>  (109) 
0.753757

>  <i_epik_Tot_Q>  (109) 
0

>  <i_epik_Tot_abs_Q>  (109) 
0

>  <s_epik_Chemistry_Notes>  (109) 
This compound has an ester and may undergo hydrolysis at high or low pH. This compound has an imine and may undergo hydrolysis.

>  <s_lp_Force_Field>  (109) 
OPLS3e

>  <r_lp_Energy>  (109) 
18.1564

>  <b_lp_Chiralities_Consistent>  (109) 
1

>  <s_lp_Variant>  (109) 
37:0-2

>  <s_i_glide_gridfile>  (109) 
pfpi4k_grid

>  <i_i_glide_lignum>  (109) 
4

>  <i_i_glide_rotatable_bonds>  (109) 
5

>  <r_i_docking_score>  (109) 
-4.04708

>  <r_i_glide_ligand_efficiency>  (109) 
-0.168628

>  <r_i_glide_ligand_efficiency_sa>  (109) 
-0.486408

>  <r_i_glide_ligand_efficiency_ln>  (109) 
-0.968652

>  <r_i_glide_gscore>  (109) 
-4.04708

>  <r_i_glide_lipo>  (109) 
-0.663998

>  <r_i_glide_hbond>  (109) 
-0.467372

>  <r_i_glide_metal>  (109) 
-0

>  <r_i_glide_rewards>  (109) 
-1.3649

>  <r_i_glide_evdw>  (109) 
-23.7386

>  <r_i_glide_ecoul>  (109) 
-6.91163

>  <r_i_glide_erotb>  (109) 
0.704179

>  <r_i_glide_esite>  (109) 
-0.0313203

>  <r_i_glide_emodel>  (109) 
-37.8123

>  <r_i_glide_energy>  (109) 
-30.6502

>  <r_i_glide_einternal>  (109) 
1.17866

>  <r_i_glide_intrahb_reward>  (109) 
-0

>  <i_i_glide_confnum>  (109) 
4

>  <i_i_glide_posenum>  (109) 
3

>  <r_i_glide_eff_state_penalty>  (109) 
0

>  <ligand_id>  (109) 
37

>  <original_smiles>  (109) 
CCCOC(=O)C1=C(C)N=C2CCCC(=O)C2C1c1ccncc1

>  <smiles>  (109) 
[H]C1=C2N=C(C([H])([H])[H])C([H])(C(=O)OC([H])([H])C([H])([H])C([H])([H])[H])C([H])(c3c([H])c([H])nc([H])c3[H])C2([H])C(=O)C([H])([H])C1([H])[H]

$$$$
37:1:1
     RDKit          3D

 46 48  0  0  1  0  0  0  0  0999 V2000
    4.3625   -3.4680   -3.8126 C   0  0  0  0  0  0  0  0  0  0  0  0
    2.8253   -3.3807   -3.7518 C   0  0  0  0  0  0  0  0  0  0  0  0
    2.2672   -2.8144   -2.4315 C   0  0  0  0  0  0  0  0  0  0  0  0
    2.8730   -3.4144   -1.2902 O   0  0  0  0  0  0  0  0  0  0  0  0
    3.8897   -2.8290   -0.6195 C   0  0  0  0  0  0  0  0  0  0  0  0
    4.4752   -1.8030   -0.9679 O   0  0  0  0  0  0  0  0  0  0  0  0
    4.2941   -3.5750    0.6667 C   0  0  2  0  0  0  0  0  0  0  0  0
    5.5152   -4.4849    0.3990 C   0  0  0  0  0  0  0  0  0  0  0  0
    6.8374   -3.7783    0.1812 C   0  0  0  0  0  0  0  0  0  0  0  0
    5.4944   -5.7566    0.4198 N   0  0  0  0  0  0  0  0  0  0  0  0
    4.3269   -6.4737    0.6934 C   0  0  0  0  0  0  0  0  0  0  0  0
    4.4426   -7.7807    1.0131 C   0  0  0  0  0  0  0  0  0  0  0  0
    3.2580   -8.6501    1.3809 C   0  0  0  0  0  0  0  0  0  0  0  0
    2.0751   -7.8439    1.9547 C   0  0  0  0  0  0  0  0  0  0  0  0
    1.7777   -6.5923    1.1414 C   0  0  0  0  0  0  0  0  0  0  0  0
    0.6174   -6.2700    0.8652 O   0  0  0  0  0  0  0  0  0  0  0  0
    2.9833   -5.7571    0.6533 C   0  0  1  0  0  0  0  0  0  0  0  0
    3.0839   -4.3455    1.2622 C   0  0  1  0  0  0  0  0  0  0  0  0
    3.0270   -4.2901    2.7814 C   0  0  0  0  0  0  0  0  0  0  0  0
    1.9714   -3.6168    3.4230 C   0  0  0  0  0  0  0  0  0  0  0  0
    1.9264   -3.6088    4.8237 C   0  0  0  0  0  0  0  0  0  0  0  0
    2.8589   -4.2126    5.5909 N   0  0  0  0  0  0  0  0  0  0  0  0
    3.8790   -4.8465    4.9716 C   0  0  0  0  0  0  0  0  0  0  0  0
    4.0095   -4.9049    3.5769 C   0  0  0  0  0  0  0  0  0  0  0  0
    4.7302   -3.8487   -4.7612 H   0  0  0  0  0  0  0  0  0  0  0  0
    4.7453   -4.1507   -3.0514 H   0  0  0  0  0  0  0  0  0  0  0  0
    4.8066   -2.4898   -3.6328 H   0  0  0  0  0  0  0  0  0  0  0  0
    2.4685   -2.7671   -4.5772 H   0  0  0  0  0  0  0  0  0  0  0  0
    2.4026   -4.3668   -3.9275 H   0  0  0  0  0  0  0  0  0  0  0  0
    2.3220   -1.7227   -2.4061 H   0  0  0  0  0  0  0  0  0  0  0  0
    1.2009   -3.0590   -2.4005 H   0  0  0  0  0  0  0  0  0  0  0  0
    7.0848   -3.1306    1.0166 H   0  0  0  0  0  0  0  0  0  0  0  0
    6.8396   -3.1855   -0.7284 H   0  0  0  0  0  0  0  0  0  0  0  0
    7.6429   -4.5066    0.0891 H   0  0  0  0  0  0  0  0  0  0  0  0
    5.4155   -8.2580    1.0325 H   0  0  0  0  0  0  0  0  0  0  0  0
    4.5917   -2.7861    1.3484 H   0  0  0  0  0  0  0  0  0  0  0  0
    3.6016   -9.3693    2.1322 H   0  0  0  0  0  0  0  0  0  0  0  0
    2.9724   -9.2324    0.4972 H   0  0  0  0  0  0  0  0  0  0  0  0
    1.1818   -8.4632    2.0003 H   0  0  0  0  0  0  0  0  0  0  0  0
    2.3087   -7.5276    2.9715 H   0  0  0  0  0  0  0  0  0  0  0  0
    2.7950   -5.6415   -0.4096 H   0  0  0  0  0  0  0  0  0  0  0  0
    2.1780   -3.8093    0.9819 H   0  0  0  0  0  0  0  0  0  0  0  0
    1.1883   -3.1206    2.8612 H   0  0  0  0  0  0  0  0  0  0  0  0
    1.1283   -3.1066    5.3500 H   0  0  0  0  0  0  0  0  0  0  0  0
    4.6084   -5.3219    5.6122 H   0  0  0  0  0  0  0  0  0  0  0  0
    4.8465   -5.4332    3.1360 H   0  0  0  0  0  0  0  0  0  0  0  0
  1  2  1  0
  1 25  1  0
  1 26  1  0
  1 27  1  0
  2  3  1  0
  2 28  1  0
  2 29  1  0
  3  4  1  0
  3 30  1  0
  3 31  1  0
  4  5  1  0
  5  6  2  0
  5  7  1  0
  7 18  1  0
  7 36  1  1
  7  8  1  0
  8  9  1  0
  8 10  2  0
  9 32  1  0
  9 33  1  0
  9 34  1  0
 10 11  1  0
 11 17  1  0
 11 12  2  0
 12 13  1  0
 12 35  1  0
 13 14  1  0
 13 37  1  0
 13 38  1  0
 14 15  1  0
 14 39  1  0
 14 40  1  0
 15 16  2  0
 15 17  1  0
 17 18  1  0
 17 41  1  6
 18 19  1  0
 18 42  1  6
 19 24  1  0
 19 20  2  0
 20 21  1  0
 20 43  1  0
 21 22  2  0
 21 44  1  0
 22 23  1  0
 23 24  2  0
 23 45  1  0
 24 46  1  0
M  END
>  <i_m_ct_stereo_status>  (110) 
1

>  <s_m_source_file>  (110) 
/var/tmp/pbs.5076255.sched01/tmpl63by5lx/41imve8rrw.sdf

>  <i_m_source_file_index>  (110) 
4

>  <i_lp_mmshare_version>  (110) 
48012

>  <i_f3d_flags>  (110) 
0

>  <s_epik_input>  (110) 
W0NIM11bQ0gyXVtDSDJdT0MoPU8pQyg9QyhOPTEpW0NIM10pW0NAQEhdKFtDQEBIXShDMTIpQyg9TylbQ0gyXVtDSDJdW0NIMl0yKWMzW2NIXVtjSF1uW2NIXVtjSF0z

>  <s_epik_cmdline>  (110) 
J2VwaWtfcHl0aG9uJywgJy1waHQnLCAnMi4wJywgJy1waCcsICc3LjAnLCAnLXRuJywgJzgnLCAnLW1hJywgJzIwMCcsICctaW1hZScsICc8aW5maWxlLm1hZT4nLCAnLW9tYWUnLCAnPG91dGZpbGUubWFlPic=

>  <r_lp_tautomer_probability>  (110) 
0.499981

>  <r_epik_Ionization_Penalty>  (110) 
0.0145155

>  <r_epik_Ionization_Penalty_Charging>  (110) 
0

>  <r_epik_Ionization_Penalty_Neutral>  (110) 
0.0145155

>  <r_epik_State_Penalty>  (110) 
0.753757

>  <r_epik_Charging_Adjusted_Penalty>  (110) 
0.753757

>  <i_epik_Tot_Q>  (110) 
0

>  <i_epik_Tot_abs_Q>  (110) 
0

>  <s_epik_Chemistry_Notes>  (110) 
This compound has an ester and may undergo hydrolysis at high or low pH. This compound has an imine and may undergo hydrolysis.

>  <s_lp_Force_Field>  (110) 
OPLS3e

>  <r_lp_Energy>  (110) 
18.1564

>  <b_lp_Chiralities_Consistent>  (110) 
1

>  <s_lp_Variant>  (110) 
37:0-2

>  <s_i_glide_gridfile>  (110) 
pfpi4k_grid

>  <i_i_glide_lignum>  (110) 
4

>  <i_i_glide_rotatable_bonds>  (110) 
5

>  <r_i_docking_score>  (110) 
-3.5444

>  <r_i_glide_ligand_efficiency>  (110) 
-0.147683

>  <r_i_glide_ligand_efficiency_sa>  (110) 
-0.425992

>  <r_i_glide_ligand_efficiency_ln>  (110) 
-0.848336

>  <r_i_glide_gscore>  (110) 
-3.5444

>  <r_i_glide_lipo>  (110) 
-0.604186

>  <r_i_glide_hbond>  (110) 
-0.16

>  <r_i_glide_metal>  (110) 
-0

>  <r_i_glide_rewards>  (110) 
-1.28797

>  <r_i_glide_evdw>  (110) 
-25.8714

>  <r_i_glide_ecoul>  (110) 
-5.67673

>  <r_i_glide_erotb>  (110) 
0.704179

>  <r_i_glide_esite>  (110) 
-0.0513388

>  <r_i_glide_emodel>  (110) 
-35.5076

>  <r_i_glide_energy>  (110) 
-31.5482

>  <r_i_glide_einternal>  (110) 
4.82428

>  <r_i_glide_intrahb_reward>  (110) 
-0

>  <i_i_glide_confnum>  (110) 
4

>  <i_i_glide_posenum>  (110) 
31

>  <r_i_glide_eff_state_penalty>  (110) 
0

>  <ligand_id>  (110) 
37

>  <original_smiles>  (110) 
CCCOC(=O)C1=C(C)N=C2CCCC(=O)C2C1c1ccncc1

>  <smiles>  (110) 
[H]C1=C2N=C(C([H])([H])[H])C([H])(C(=O)OC([H])([H])C([H])([H])C([H])([H])[H])C([H])(c3c([H])c([H])nc([H])c3[H])C2([H])C(=O)C([H])([H])C1([H])[H]

$$$$
37:1:2
     RDKit          3D

 46 48  0  0  1  0  0  0  0  0999 V2000
    3.6515   -0.5466   -4.3902 C   0  0  0  0  0  0  0  0  0  0  0  0
    4.2076   -1.4062   -3.2618 C   0  0  0  0  0  0  0  0  0  0  0  0
    3.1031   -2.1379   -2.4811 C   0  0  0  0  0  0  0  0  0  0  0  0
    3.6244   -2.6945   -1.2767 O   0  0  0  0  0  0  0  0  0  0  0  0
    3.9175   -1.9315   -0.2030 C   0  0  0  0  0  0  0  0  0  0  0  0
    3.9032   -0.7038   -0.1651 O   0  0  0  0  0  0  0  0  0  0  0  0
    4.3069   -2.7468    1.0382 C   0  0  2  0  0  0  0  0  0  0  0  0
    5.6667   -3.4363    0.7951 C   0  0  0  0  0  0  0  0  0  0  0  0
    6.8714   -2.5203    0.7687 C   0  0  0  0  0  0  0  0  0  0  0  0
    5.8273   -4.6895    0.6542 N   0  0  0  0  0  0  0  0  0  0  0  0
    4.7583   -5.5826    0.7297 C   0  0  0  0  0  0  0  0  0  0  0  0
    5.0466   -6.8808    0.9280 C   0  0  0  0  0  0  0  0  0  0  0  0
    3.9896   -7.9558    1.0828 C   0  0  0  0  0  0  0  0  0  0  0  0
    2.6533   -7.3974    1.6188 C   0  0  0  0  0  0  0  0  0  0  0  0
    2.2305   -6.1100    0.9093 C   0  0  0  0  0  0  0  0  0  0  0  0
    1.0578   -5.9105    0.5741 O   0  0  0  0  0  0  0  0  0  0  0  0
    3.3236   -5.0654    0.6289 C   0  0  1  0  0  0  0  0  0  0  0  0
    3.1630   -3.7357    1.4032 C   0  0  1  0  0  0  0  0  0  0  0  0
    2.9822   -3.8914    2.9145 C   0  0  0  0  0  0  0  0  0  0  0  0
    1.7699   -3.5273    3.5321 C   0  0  0  0  0  0  0  0  0  0  0  0
    1.6305   -3.7047    4.9195 C   0  0  0  0  0  0  0  0  0  0  0  0
    2.6107   -4.1999    5.7056 N   0  0  0  0  0  0  0  0  0  0  0  0
    3.7786   -4.5350    5.1152 C   0  0  0  0  0  0  0  0  0  0  0  0
    4.0123   -4.3943    3.7362 C   0  0  0  0  0  0  0  0  0  0  0  0
    4.4495   -0.0046   -4.8978 H   0  0  0  0  0  0  0  0  0  0  0  0
    2.9531    0.1896   -3.9961 H   0  0  0  0  0  0  0  0  0  0  0  0
    3.1085   -1.1451   -5.1174 H   0  0  0  0  0  0  0  0  0  0  0  0
    4.9288   -2.1298   -3.6430 H   0  0  0  0  0  0  0  0  0  0  0  0
    4.7568   -0.7319   -2.6076 H   0  0  0  0  0  0  0  0  0  0  0  0
    2.2390   -1.4943   -2.3099 H   0  0  0  0  0  0  0  0  0  0  0  0
    2.7220   -2.9569   -3.0956 H   0  0  0  0  0  0  0  0  0  0  0  0
    6.9434   -1.9340    1.6813 H   0  0  0  0  0  0  0  0  0  0  0  0
    6.8288   -1.8269   -0.0687 H   0  0  0  0  0  0  0  0  0  0  0  0
    7.7847   -3.1042    0.6731 H   0  0  0  0  0  0  0  0  0  0  0  0
    6.0806   -7.2071    0.9892 H   0  0  0  0  0  0  0  0  0  0  0  0
    4.4148   -2.0181    1.8378 H   0  0  0  0  0  0  0  0  0  0  0  0
    4.3719   -8.7078    1.7779 H   0  0  0  0  0  0  0  0  0  0  0  0
    3.8701   -8.4519    0.1172 H   0  0  0  0  0  0  0  0  0  0  0  0
    1.8675   -8.1412    1.5216 H   0  0  0  0  0  0  0  0  0  0  0  0
    2.7592   -7.1707    2.6827 H   0  0  0  0  0  0  0  0  0  0  0  0
    3.2002   -4.8580   -0.4316 H   0  0  0  0  0  0  0  0  0  0  0  0
    2.2272   -3.2833    1.0593 H   0  0  0  0  0  0  0  0  0  0  0  0
    0.9454   -3.1290    2.9578 H   0  0  0  0  0  0  0  0  0  0  0  0
    0.7105   -3.4455    5.4243 H   0  0  0  0  0  0  0  0  0  0  0  0
    4.5449   -4.9315    5.7695 H   0  0  0  0  0  0  0  0  0  0  0  0
    4.9700   -4.6896    3.3313 H   0  0  0  0  0  0  0  0  0  0  0  0
  1  2  1  0
  1 25  1  0
  1 26  1  0
  1 27  1  0
  2  3  1  0
  2 28  1  0
  2 29  1  0
  3  4  1  0
  3 30  1  0
  3 31  1  0
  4  5  1  0
  5  6  2  0
  5  7  1  0
  7 18  1  0
  7 36  1  1
  7  8  1  0
  8  9  1  0
  8 10  2  0
  9 32  1  0
  9 33  1  0
  9 34  1  0
 10 11  1  0
 11 17  1  0
 11 12  2  0
 12 13  1  0
 12 35  1  0
 13 14  1  0
 13 37  1  0
 13 38  1  0
 14 15  1  0
 14 39  1  0
 14 40  1  0
 15 16  2  0
 15 17  1  0
 17 18  1  0
 17 41  1  6
 18 19  1  0
 18 42  1  6
 19 24  1  0
 19 20  2  0
 20 21  1  0
 20 43  1  0
 21 22  2  0
 21 44  1  0
 22 23  1  0
 23 24  2  0
 23 45  1  0
 24 46  1  0
M  END
>  <i_m_ct_stereo_status>  (111) 
1

>  <s_m_source_file>  (111) 
/var/tmp/pbs.5076255.sched01/tmpl63by5lx/41imve8rrw.sdf

>  <i_m_source_file_index>  (111) 
4

>  <i_lp_mmshare_version>  (111) 
48012

>  <i_f3d_flags>  (111) 
0

>  <s_epik_input>  (111) 
W0NIM11bQ0gyXVtDSDJdT0MoPU8pQyg9QyhOPTEpW0NIM10pW0NAQEhdKFtDQEBIXShDMTIpQyg9TylbQ0gyXVtDSDJdW0NIMl0yKWMzW2NIXVtjSF1uW2NIXVtjSF0z

>  <s_epik_cmdline>  (111) 
J2VwaWtfcHl0aG9uJywgJy1waHQnLCAnMi4wJywgJy1waCcsICc3LjAnLCAnLXRuJywgJzgnLCAnLW1hJywgJzIwMCcsICctaW1hZScsICc8aW5maWxlLm1hZT4nLCAnLW9tYWUnLCAnPG91dGZpbGUubWFlPic=

>  <r_lp_tautomer_probability>  (111) 
0.499981

>  <r_epik_Ionization_Penalty>  (111) 
0.0145155

>  <r_epik_Ionization_Penalty_Charging>  (111) 
0

>  <r_epik_Ionization_Penalty_Neutral>  (111) 
0.0145155

>  <r_epik_State_Penalty>  (111) 
0.753757

>  <r_epik_Charging_Adjusted_Penalty>  (111) 
0.753757

>  <i_epik_Tot_Q>  (111) 
0

>  <i_epik_Tot_abs_Q>  (111) 
0

>  <s_epik_Chemistry_Notes>  (111) 
This compound has an ester and may undergo hydrolysis at high or low pH. This compound has an imine and may undergo hydrolysis.

>  <s_lp_Force_Field>  (111) 
OPLS3e

>  <r_lp_Energy>  (111) 
18.1564

>  <b_lp_Chiralities_Consistent>  (111) 
1

>  <s_lp_Variant>  (111) 
37:0-2

>  <s_i_glide_gridfile>  (111) 
pfpi4k_grid

>  <i_i_glide_lignum>  (111) 
4

>  <i_i_glide_rotatable_bonds>  (111) 
5

>  <r_i_docking_score>  (111) 
-3.38645

>  <r_i_glide_ligand_efficiency>  (111) 
-0.141102

>  <r_i_glide_ligand_efficiency_sa>  (111) 
-0.407009

>  <r_i_glide_ligand_efficiency_ln>  (111) 
-0.810534

>  <r_i_glide_gscore>  (111) 
-3.38645

>  <r_i_glide_lipo>  (111) 
-0.622813

>  <r_i_glide_hbond>  (111) 
-0.16

>  <r_i_glide_metal>  (111) 
-0

>  <r_i_glide_rewards>  (111) 
-1.26695

>  <r_i_glide_evdw>  (111) 
-23.3879

>  <r_i_glide_ecoul>  (111) 
-5.34444

>  <r_i_glide_erotb>  (111) 
0.704179

>  <r_i_glide_esite>  (111) 
-0.0698111

>  <r_i_glide_emodel>  (111) 
-34.7351

>  <r_i_glide_energy>  (111) 
-28.7323

>  <r_i_glide_einternal>  (111) 
1.12044

>  <r_i_glide_intrahb_reward>  (111) 
-0

>  <i_i_glide_confnum>  (111) 
4

>  <i_i_glide_posenum>  (111) 
11

>  <r_i_glide_eff_state_penalty>  (111) 
0

>  <ligand_id>  (111) 
37

>  <original_smiles>  (111) 
CCCOC(=O)C1=C(C)N=C2CCCC(=O)C2C1c1ccncc1

>  <smiles>  (111) 
[H]C1=C2N=C(C([H])([H])[H])C([H])(C(=O)OC([H])([H])C([H])([H])C([H])([H])[H])C([H])(c3c([H])c([H])nc([H])c3[H])C2([H])C(=O)C([H])([H])C1([H])[H]

$$$$
37:2:0
     RDKit          3D

 46 48  0  0  1  0  0  0  0  0999 V2000
   -4.9858    5.3408    0.9545 C   0  0  0  0  0  0  0  0  0  0  0  0
   -4.3117    4.2246    1.7618 C   0  0  0  0  0  0  0  0  0  0  0  0
   -3.0672    4.7250    2.4736 C   0  0  0  0  0  0  0  0  0  0  0  0
   -2.3404    3.6109    2.9831 O   0  0  0  0  0  0  0  0  0  0  0  0
   -1.2086    3.8500    3.6698 C   0  0  0  0  0  0  0  0  0  0  0  0
   -0.9578    4.9549    4.1554 O   0  0  0  0  0  0  0  0  0  0  0  0
   -0.4121    2.6392    3.8887 C   0  0  0  0  0  0  0  0  0  0  0  0
    0.9174    2.5526    3.6237 C   0  0  0  0  0  0  0  0  0  0  0  0
    1.8003    3.6980    3.1232 C   0  0  0  0  0  0  0  0  0  0  0  0
    1.6211    1.3705    3.8706 N   0  0  0  0  0  0  0  0  0  0  0  0
    1.0569    0.2596    4.1776 C   0  0  0  0  0  0  0  0  0  0  0  0
    1.9005   -1.0040    4.3615 C   0  0  0  0  0  0  0  0  0  0  0  0
    1.4102   -1.9095    5.4945 C   0  0  0  0  0  0  0  0  0  0  0  0
   -0.0547   -2.3103    5.2985 C   0  0  0  0  0  0  0  0  0  0  0  0
   -0.9342   -1.0678    5.1849 C   0  0  0  0  0  0  0  0  0  0  0  0
   -2.0608   -1.0797    5.6755 O   0  0  0  0  0  0  0  0  0  0  0  0
   -0.4758    0.1041    4.2824 C   0  0  1  0  0  0  0  0  0  0  0  0
   -1.1488    1.4842    4.5479 C   0  0  1  0  0  0  0  0  0  0  0  0
   -1.3476    1.7987    6.0444 C   0  0  0  0  0  0  0  0  0  0  0  0
   -0.3364    1.5768    7.0068 C   0  0  0  0  0  0  0  0  0  0  0  0
   -0.6065    1.8260    8.3639 C   0  0  0  0  0  0  0  0  0  0  0  0
   -1.7934    2.2912    8.8107 N   0  0  0  0  0  0  0  0  0  0  0  0
   -2.7299    2.6104    7.8957 C   0  0  0  0  0  0  0  0  0  0  0  0
   -2.5365    2.3976    6.5148 C   0  0  0  0  0  0  0  0  0  0  0  0
   -5.8634    4.9456    0.4453 H   0  0  0  0  0  0  0  0  0  0  0  0
   -4.3206    5.7513    0.1915 H   0  0  0  0  0  0  0  0  0  0  0  0
   -5.3007    6.1733    1.5941 H   0  0  0  0  0  0  0  0  0  0  0  0
   -5.0005    3.8387    2.5138 H   0  0  0  0  0  0  0  0  0  0  0  0
   -4.0806    3.3704    1.1188 H   0  0  0  0  0  0  0  0  0  0  0  0
   -2.4050    5.3107    1.8464 H   0  0  0  0  0  0  0  0  0  0  0  0
   -3.3712    5.3694    3.2758 H   0  0  0  0  0  0  0  0  0  0  0  0
    1.2775    4.5054    2.6005 H   0  0  0  0  0  0  0  0  0  0  0  0
    2.5768    3.3162    2.4323 H   0  0  0  0  0  0  0  0  0  0  0  0
    2.3450    4.1762    3.9540 H   0  0  0  0  0  0  0  0  0  0  0  0
    1.9218   -1.5665    3.4271 H   0  0  0  0  0  0  0  0  0  0  0  0
    2.9282   -0.7068    4.5567 H   0  0  0  0  0  0  0  0  0  0  0  0
    2.0243   -2.8093    5.5415 H   0  0  0  0  0  0  0  0  0  0  0  0
    1.5388   -1.4120    6.4579 H   0  0  0  0  0  0  0  0  0  0  0  0
   -0.1756   -2.9356    4.4028 H   0  0  0  0  0  0  0  0  0  0  0  0
   -0.3832   -2.9125    6.1467 H   0  0  0  0  0  0  0  0  0  0  0  0
   -0.7885   -0.1872    3.2791 H   0  0  0  0  0  0  0  0  0  0  0  0
   -2.1341    1.3695    4.0967 H   0  0  0  0  0  0  0  0  0  0  0  0
    0.6315    1.2081    6.7333 H   0  0  0  0  0  0  0  0  0  0  0  0
    0.1265    1.5456    9.1090 H   0  0  0  0  0  0  0  0  0  0  0  0
   -3.6692    2.9733    8.2846 H   0  0  0  0  0  0  0  0  0  0  0  0
   -3.3423    2.6365    5.8302 H   0  0  0  0  0  0  0  0  0  0  0  0
  1  2  1  0
  1 25  1  0
  1 26  1  0
  1 27  1  0
  2  3  1  0
  2 28  1  0
  2 29  1  0
  3  4  1  0
  3 30  1  0
  3 31  1  0
  4  5  1  0
  5  6  2  0
  5  7  1  0
  7 18  1  0
  7  8  2  0
  8  9  1  0
  8 10  1  0
  9 32  1  0
  9 33  1  0
  9 34  1  0
 10 11  2  0
 11 17  1  0
 11 12  1  0
 12 13  1  0
 12 35  1  0
 12 36  1  0
 13 14  1  0
 13 37  1  0
 13 38  1  0
 14 15  1  0
 14 39  1  0
 14 40  1  0
 15 16  2  0
 15 17  1  0
 17 18  1  0
 17 41  1  6
 18 19  1  0
 18 42  1  6
 19 24  1  0
 19 20  2  0
 20 21  1  0
 20 43  1  0
 21 22  2  0
 21 44  1  0
 22 23  1  0
 23 24  2  0
 23 45  1  0
 24 46  1  0
M  END
>  <i_m_ct_stereo_status>  (112) 
1

>  <s_m_source_file>  (112) 
/var/tmp/pbs.5076255.sched01/tmpl63by5lx/41imve8rrw.sdf

>  <i_m_source_file_index>  (112) 
5

>  <i_lp_mmshare_version>  (112) 
48012

>  <i_f3d_flags>  (112) 
0

>  <s_epik_input>  (112) 
W0NIM11bQ0gyXVtDSDJdT0MoPU8pQyg9QyhOPTEpW0NIM10pW0NAQEhdKFtDQEBIXShDMTIpQyg9TylbQ0gyXVtDSDJdW0NIMl0yKWMzW2NIXVtjSF1uW2NIXVtjSF0z

>  <s_epik_cmdline>  (112) 
J2VwaWtfcHl0aG9uJywgJy1waHQnLCAnMi4wJywgJy1waCcsICc3LjAnLCAnLXRuJywgJzgnLCAnLW1hJywgJzIwMCcsICctaW1hZScsICc8aW5maWxlLm1hZT4nLCAnLW9tYWUnLCAnPG91dGZpbGUubWFlPic=

>  <r_lp_tautomer_probability>  (112) 
0.499981

>  <r_epik_Ionization_Penalty>  (112) 
0.00181311

>  <r_epik_Ionization_Penalty_Charging>  (112) 
0

>  <r_epik_Ionization_Penalty_Neutral>  (112) 
0.00181311

>  <r_epik_State_Penalty>  (112) 
0.753757

>  <r_epik_Charging_Adjusted_Penalty>  (112) 
0.753757

>  <i_epik_Tot_Q>  (112) 
0

>  <i_epik_Tot_abs_Q>  (112) 
0

>  <s_epik_Chemistry_Notes>  (112) 
This compound has an ester and may undergo hydrolysis at high or low pH. This compound has an imine and may undergo hydrolysis.

>  <s_lp_Force_Field>  (112) 
OPLS3e

>  <r_lp_Energy>  (112) 
33.5257

>  <b_lp_Chiralities_Consistent>  (112) 
1

>  <s_lp_Variant>  (112) 
37:0-3

>  <s_i_glide_gridfile>  (112) 
pfpi4k_grid

>  <i_i_glide_lignum>  (112) 
5

>  <i_i_glide_rotatable_bonds>  (112) 
5

>  <r_i_docking_score>  (112) 
-3.19446

>  <r_i_glide_ligand_efficiency>  (112) 
-0.133103

>  <r_i_glide_ligand_efficiency_sa>  (112) 
-0.383934

>  <r_i_glide_ligand_efficiency_ln>  (112) 
-0.764581

>  <r_i_glide_gscore>  (112) 
-3.19446

>  <r_i_glide_lipo>  (112) 
-0.581545

>  <r_i_glide_hbond>  (112) 
-0.143406

>  <r_i_glide_metal>  (112) 
-0

>  <r_i_glide_rewards>  (112) 
-1.18371

>  <r_i_glide_evdw>  (112) 
-23.804

>  <r_i_glide_ecoul>  (112) 
-4.46961

>  <r_i_glide_erotb>  (112) 
0.704179

>  <r_i_glide_esite>  (112) 
-0.129341

>  <r_i_glide_emodel>  (112) 
-31.4012

>  <r_i_glide_energy>  (112) 
-28.2736

>  <r_i_glide_einternal>  (112) 
3.80198

>  <r_i_glide_intrahb_reward>  (112) 
-0

>  <i_i_glide_confnum>  (112) 
4

>  <i_i_glide_posenum>  (112) 
40

>  <r_i_glide_eff_state_penalty>  (112) 
0

>  <ligand_id>  (112) 
37

>  <original_smiles>  (112) 
CCCOC(=O)C1=C(C)N=C2CCCC(=O)C2C1c1ccncc1

>  <smiles>  (112) 
[H]c1nc([H])c([H])c(C2([H])C(C(=O)OC([H])([H])C([H])([H])C([H])([H])[H])=C(C([H])([H])[H])N=C3C([H])([H])C([H])([H])C([H])([H])C(=O)C32[H])c1[H]

$$$$
37:2:1
     RDKit          3D

 46 48  0  0  1  0  0  0  0  0999 V2000
    5.7311   -2.6271   -2.3590 C   0  0  0  0  0  0  0  0  0  0  0  0
    4.9467   -3.7534   -1.7140 C   0  0  0  0  0  0  0  0  0  0  0  0
    5.5020   -4.1741   -0.3611 C   0  0  0  0  0  0  0  0  0  0  0  0
    4.6917   -5.2271    0.1166 O   0  0  0  0  0  0  0  0  0  0  0  0
    3.9525   -5.0805    1.1898 C   0  0  0  0  0  0  0  0  0  0  0  0
    3.7781   -4.0019    1.7551 O   0  0  0  0  0  0  0  0  0  0  0  0
    3.3415   -6.3583    1.6122 C   0  0  0  0  0  0  0  0  0  0  0  0
    4.0076   -7.5467    1.6188 C   0  0  0  0  0  0  0  0  0  0  0  0
    5.4984   -7.7758    1.3543 C   0  0  0  0  0  0  0  0  0  0  0  0
    3.3390   -8.7116    2.0067 N   0  0  0  0  0  0  0  0  0  0  0  0
    2.0825   -8.7990    2.2174 C   0  0  0  0  0  0  0  0  0  0  0  0
    1.4345  -10.1318    2.5968 C   0  0  0  0  0  0  0  0  0  0  0  0
    0.2799  -10.0280    3.6054 C   0  0  0  0  0  0  0  0  0  0  0  0
   -0.8050   -9.0703    3.1045 C   0  0  0  0  0  0  0  0  0  0  0  0
   -0.2159   -7.7045    2.8122 C   0  0  0  0  0  0  0  0  0  0  0  0
   -0.8443   -6.6865    3.1316 O   0  0  0  0  0  0  0  0  0  0  0  0
    1.1168   -7.6223    2.0107 C   0  0  1  0  0  0  0  0  0  0  0  0
    1.8927   -6.2633    2.0956 C   0  0  1  0  0  0  0  0  0  0  0  0
    1.8443   -5.6514    3.5029 C   0  0  0  0  0  0  0  0  0  0  0  0
    2.3333   -6.3732    4.6117 C   0  0  0  0  0  0  0  0  0  0  0  0
    2.2476   -5.7922    5.8921 C   0  0  0  0  0  0  0  0  0  0  0  0
    1.7234   -4.5705    6.1035 N   0  0  0  0  0  0  0  0  0  0  0  0
    1.3110   -3.8544    5.0398 C   0  0  0  0  0  0  0  0  0  0  0  0
    1.3486   -4.3564    3.7194 C   0  0  0  0  0  0  0  0  0  0  0  0
    5.2541   -2.3416   -3.2992 H   0  0  0  0  0  0  0  0  0  0  0  0
    6.7594   -2.9304   -2.5730 H   0  0  0  0  0  0  0  0  0  0  0  0
    5.7527   -1.7529   -1.7056 H   0  0  0  0  0  0  0  0  0  0  0  0
    3.9129   -3.4513   -1.5775 H   0  0  0  0  0  0  0  0  0  0  0  0
    4.9512   -4.6255   -2.3654 H   0  0  0  0  0  0  0  0  0  0  0  0
    6.5036   -4.6012   -0.4596 H   0  0  0  0  0  0  0  0  0  0  0  0
    5.6143   -3.3061    0.3193 H   0  0  0  0  0  0  0  0  0  0  0  0
    6.0330   -7.0034    0.7710 H   0  0  0  0  0  0  0  0  0  0  0  0
    5.6398   -8.7597    0.8971 H   0  0  0  0  0  0  0  0  0  0  0  0
    6.0116   -7.8881    2.3110 H   0  0  0  0  0  0  0  0  0  0  0  0
    1.0097  -10.5817    1.6996 H   0  0  0  0  0  0  0  0  0  0  0  0
    2.1911  -10.8171    2.9774 H   0  0  0  0  0  0  0  0  0  0  0  0
   -0.1666  -11.0151    3.7587 H   0  0  0  0  0  0  0  0  0  0  0  0
    0.6544   -9.7125    4.5819 H   0  0  0  0  0  0  0  0  0  0  0  0
   -1.2708   -9.4454    2.1898 H   0  0  0  0  0  0  0  0  0  0  0  0
   -1.5867   -8.9825    3.8561 H   0  0  0  0  0  0  0  0  0  0  0  0
    0.7991   -7.7144    0.9729 H   0  0  0  0  0  0  0  0  0  0  0  0
    1.3786   -5.5848    1.4061 H   0  0  0  0  0  0  0  0  0  0  0  0
    2.7390   -7.3610    4.5026 H   0  0  0  0  0  0  0  0  0  0  0  0
    2.5564   -6.3669    6.7542 H   0  0  0  0  0  0  0  0  0  0  0  0
    0.8989   -2.8793    5.2396 H   0  0  0  0  0  0  0  0  0  0  0  0
    0.9846   -3.7465    2.9103 H   0  0  0  0  0  0  0  0  0  0  0  0
  1  2  1  0
  1 25  1  0
  1 26  1  0
  1 27  1  0
  2  3  1  0
  2 28  1  0
  2 29  1  0
  3  4  1  0
  3 30  1  0
  3 31  1  0
  4  5  1  0
  5  6  2  0
  5  7  1  0
  7 18  1  0
  7  8  2  0
  8  9  1  0
  8 10  1  0
  9 32  1  0
  9 33  1  0
  9 34  1  0
 10 11  2  0
 11 17  1  0
 11 12  1  0
 12 13  1  0
 12 35  1  0
 12 36  1  0
 13 14  1  0
 13 37  1  0
 13 38  1  0
 14 15  1  0
 14 39  1  0
 14 40  1  0
 15 16  2  0
 15 17  1  0
 17 18  1  0
 17 41  1  6
 18 19  1  0
 18 42  1  6
 19 24  1  0
 19 20  2  0
 20 21  1  0
 20 43  1  0
 21 22  2  0
 21 44  1  0
 22 23  1  0
 23 24  2  0
 23 45  1  0
 24 46  1  0
M  END
>  <i_m_ct_stereo_status>  (113) 
1

>  <s_m_source_file>  (113) 
/var/tmp/pbs.5076255.sched01/tmpl63by5lx/41imve8rrw.sdf

>  <i_m_source_file_index>  (113) 
5

>  <i_lp_mmshare_version>  (113) 
48012

>  <i_f3d_flags>  (113) 
0

>  <s_epik_input>  (113) 
W0NIM11bQ0gyXVtDSDJdT0MoPU8pQyg9QyhOPTEpW0NIM10pW0NAQEhdKFtDQEBIXShDMTIpQyg9TylbQ0gyXVtDSDJdW0NIMl0yKWMzW2NIXVtjSF1uW2NIXVtjSF0z

>  <s_epik_cmdline>  (113) 
J2VwaWtfcHl0aG9uJywgJy1waHQnLCAnMi4wJywgJy1waCcsICc3LjAnLCAnLXRuJywgJzgnLCAnLW1hJywgJzIwMCcsICctaW1hZScsICc8aW5maWxlLm1hZT4nLCAnLW9tYWUnLCAnPG91dGZpbGUubWFlPic=

>  <r_lp_tautomer_probability>  (113) 
0.499981

>  <r_epik_Ionization_Penalty>  (113) 
0.00181311

>  <r_epik_Ionization_Penalty_Charging>  (113) 
0

>  <r_epik_Ionization_Penalty_Neutral>  (113) 
0.00181311

>  <r_epik_State_Penalty>  (113) 
0.753757

>  <r_epik_Charging_Adjusted_Penalty>  (113) 
0.753757

>  <i_epik_Tot_Q>  (113) 
0

>  <i_epik_Tot_abs_Q>  (113) 
0

>  <s_epik_Chemistry_Notes>  (113) 
This compound has an ester and may undergo hydrolysis at high or low pH. This compound has an imine and may undergo hydrolysis.

>  <s_lp_Force_Field>  (113) 
OPLS3e

>  <r_lp_Energy>  (113) 
33.5257

>  <b_lp_Chiralities_Consistent>  (113) 
1

>  <s_lp_Variant>  (113) 
37:0-3

>  <s_i_glide_gridfile>  (113) 
pfpi4k_grid

>  <i_i_glide_lignum>  (113) 
5

>  <i_i_glide_rotatable_bonds>  (113) 
5

>  <r_i_docking_score>  (113) 
-2.89345

>  <r_i_glide_ligand_efficiency>  (113) 
-0.12056

>  <r_i_glide_ligand_efficiency_sa>  (113) 
-0.347756

>  <r_i_glide_ligand_efficiency_ln>  (113) 
-0.692535

>  <r_i_glide_gscore>  (113) 
-2.89345

>  <r_i_glide_lipo>  (113) 
-0.427382

>  <r_i_glide_hbond>  (113) 
-0.16

>  <r_i_glide_metal>  (113) 
-0

>  <r_i_glide_rewards>  (113) 
-1.21987

>  <r_i_glide_evdw>  (113) 
-23.6314

>  <r_i_glide_ecoul>  (113) 
-3.68608

>  <r_i_glide_erotb>  (113) 
0.704179

>  <r_i_glide_esite>  (113) 
-0.0558982

>  <r_i_glide_emodel>  (113) 
-31.671

>  <r_i_glide_energy>  (113) 
-27.3175

>  <r_i_glide_einternal>  (113) 
0.399845

>  <r_i_glide_intrahb_reward>  (113) 
-0

>  <i_i_glide_confnum>  (113) 
2

>  <i_i_glide_posenum>  (113) 
2

>  <r_i_glide_eff_state_penalty>  (113) 
0

>  <ligand_id>  (113) 
37

>  <original_smiles>  (113) 
CCCOC(=O)C1=C(C)N=C2CCCC(=O)C2C1c1ccncc1

>  <smiles>  (113) 
[H]c1nc([H])c([H])c(C2([H])C(C(=O)OC([H])([H])C([H])([H])C([H])([H])[H])=C(C([H])([H])[H])N=C3C([H])([H])C([H])([H])C([H])([H])C(=O)C32[H])c1[H]

$$$$
37:2:2
     RDKit          3D

 46 48  0  0  1  0  0  0  0  0999 V2000
    4.1223   -1.0982   -0.6055 C   0  0  0  0  0  0  0  0  0  0  0  0
    3.5464   -2.2721    0.1816 C   0  0  0  0  0  0  0  0  0  0  0  0
    3.2421   -3.4777   -0.7271 C   0  0  0  0  0  0  0  0  0  0  0  0
    2.7988   -4.5944    0.0524 O   0  0  0  0  0  0  0  0  0  0  0  0
    3.6887   -5.3841    0.7107 C   0  0  0  0  0  0  0  0  0  0  0  0
    4.8819   -5.1072    0.8456 O   0  0  0  0  0  0  0  0  0  0  0  0
    3.0660   -6.5999    1.2797 C   0  0  0  0  0  0  0  0  0  0  0  0
    3.7289   -7.7759    1.3640 C   0  0  0  0  0  0  0  0  0  0  0  0
    5.1352   -8.0125    0.8766 C   0  0  0  0  0  0  0  0  0  0  0  0
    3.1512   -8.9040    1.9516 N   0  0  0  0  0  0  0  0  0  0  0  0
    1.9164   -8.9544    2.2879 C   0  0  0  0  0  0  0  0  0  0  0  0
    1.3323  -10.2284    2.8860 C   0  0  0  0  0  0  0  0  0  0  0  0
    0.3089   -9.9902    3.9970 C   0  0  0  0  0  0  0  0  0  0  0  0
   -0.8306   -9.0817    3.5227 C   0  0  0  0  0  0  0  0  0  0  0  0
   -0.2938   -7.7677    3.0041 C   0  0  0  0  0  0  0  0  0  0  0  0
   -0.8763   -6.7102    3.2625 O   0  0  0  0  0  0  0  0  0  0  0  0
    0.9300   -7.7847    2.0588 C   0  0  1  0  0  0  0  0  0  0  0  0
    1.6942   -6.4319    1.9115 C   0  0  1  0  0  0  0  0  0  0  0  0
    1.8350   -5.6749    3.2370 C   0  0  0  0  0  0  0  0  0  0  0  0
    1.4546   -4.3152    3.3625 C   0  0  0  0  0  0  0  0  0  0  0  0
    1.5766   -3.6865    4.6117 C   0  0  0  0  0  0  0  0  0  0  0  0
    2.0283   -4.3187    5.7034 N   0  0  0  0  0  0  0  0  0  0  0  0
    2.4343   -5.5955    5.5869 C   0  0  0  0  0  0  0  0  0  0  0  0
    2.3698   -6.3111    4.3859 C   0  0  0  0  0  0  0  0  0  0  0  0
    4.3334   -0.2559    0.0513 H   0  0  0  0  0  0  0  0  0  0  0  0
    3.4167   -0.7726   -1.3693 H   0  0  0  0  0  0  0  0  0  0  0  0
    5.0521   -1.3786   -1.1025 H   0  0  0  0  0  0  0  0  0  0  0  0
    4.2656   -2.5267    0.9674 H   0  0  0  0  0  0  0  0  0  0  0  0
    2.6340   -1.9694    0.6985 H   0  0  0  0  0  0  0  0  0  0  0  0
    2.4725   -3.2209   -1.4630 H   0  0  0  0  0  0  0  0  0  0  0  0
    4.1266   -3.7732   -1.2891 H   0  0  0  0  0  0  0  0  0  0  0  0
    5.3648   -7.2743    0.0986 H   0  0  0  0  0  0  0  0  0  0  0  0
    5.2695   -9.0575    0.5316 H   0  0  0  0  0  0  0  0  0  0  0  0
    5.8730   -7.9000    1.6793 H   0  0  0  0  0  0  0  0  0  0  0  0
    0.8405  -10.7934    2.0922 H   0  0  0  0  0  0  0  0  0  0  0  0
    2.1455  -10.8576    3.2520 H   0  0  0  0  0  0  0  0  0  0  0  0
   -0.0965  -10.9528    4.3077 H   0  0  0  0  0  0  0  0  0  0  0  0
    0.7969   -9.5683    4.8717 H   0  0  0  0  0  0  0  0  0  0  0  0
   -1.4079   -9.5686    2.7302 H   0  0  0  0  0  0  0  0  0  0  0  0
   -1.5197   -8.9113    4.3501 H   0  0  0  0  0  0  0  0  0  0  0  0
    0.5065   -7.9859    1.0838 H   0  0  0  0  0  0  0  0  0  0  0  0
    1.0505   -5.8637    1.2380 H   0  0  0  0  0  0  0  0  0  0  0  0
    1.0710   -3.7620    2.5194 H   0  0  0  0  0  0  0  0  0  0  0  0
    1.2597   -2.6701    4.7310 H   0  0  0  0  0  0  0  0  0  0  0  0
    2.7677   -6.1002    6.4791 H   0  0  0  0  0  0  0  0  0  0  0  0
    2.7078   -7.3307    4.3563 H   0  0  0  0  0  0  0  0  0  0  0  0
  1  2  1  0
  1 25  1  0
  1 26  1  0
  1 27  1  0
  2  3  1  0
  2 28  1  0
  2 29  1  0
  3  4  1  0
  3 30  1  0
  3 31  1  0
  4  5  1  0
  5  6  2  0
  5  7  1  0
  7 18  1  0
  7  8  2  0
  8  9  1  0
  8 10  1  0
  9 32  1  0
  9 33  1  0
  9 34  1  0
 10 11  2  0
 11 17  1  0
 11 12  1  0
 12 13  1  0
 12 35  1  0
 12 36  1  0
 13 14  1  0
 13 37  1  0
 13 38  1  0
 14 15  1  0
 14 39  1  0
 14 40  1  0
 15 16  2  0
 15 17  1  0
 17 18  1  0
 17 41  1  6
 18 19  1  0
 18 42  1  6
 19 24  1  0
 19 20  2  0
 20 21  1  0
 20 43  1  0
 21 22  2  0
 21 44  1  0
 22 23  1  0
 23 24  2  0
 23 45  1  0
 24 46  1  0
M  END
>  <i_m_ct_stereo_status>  (114) 
1

>  <s_m_source_file>  (114) 
/var/tmp/pbs.5076255.sched01/tmpl63by5lx/41imve8rrw.sdf

>  <i_m_source_file_index>  (114) 
5

>  <i_lp_mmshare_version>  (114) 
48012

>  <i_f3d_flags>  (114) 
0

>  <s_epik_input>  (114) 
W0NIM11bQ0gyXVtDSDJdT0MoPU8pQyg9QyhOPTEpW0NIM10pW0NAQEhdKFtDQEBIXShDMTIpQyg9TylbQ0gyXVtDSDJdW0NIMl0yKWMzW2NIXVtjSF1uW2NIXVtjSF0z

>  <s_epik_cmdline>  (114) 
J2VwaWtfcHl0aG9uJywgJy1waHQnLCAnMi4wJywgJy1waCcsICc3LjAnLCAnLXRuJywgJzgnLCAnLW1hJywgJzIwMCcsICctaW1hZScsICc8aW5maWxlLm1hZT4nLCAnLW9tYWUnLCAnPG91dGZpbGUubWFlPic=

>  <r_lp_tautomer_probability>  (114) 
0.499981

>  <r_epik_Ionization_Penalty>  (114) 
0.00181311

>  <r_epik_Ionization_Penalty_Charging>  (114) 
0

>  <r_epik_Ionization_Penalty_Neutral>  (114) 
0.00181311

>  <r_epik_State_Penalty>  (114) 
0.753757

>  <r_epik_Charging_Adjusted_Penalty>  (114) 
0.753757

>  <i_epik_Tot_Q>  (114) 
0

>  <i_epik_Tot_abs_Q>  (114) 
0

>  <s_epik_Chemistry_Notes>  (114) 
This compound has an ester and may undergo hydrolysis at high or low pH. This compound has an imine and may undergo hydrolysis.

>  <s_lp_Force_Field>  (114) 
OPLS3e

>  <r_lp_Energy>  (114) 
33.5257

>  <b_lp_Chiralities_Consistent>  (114) 
1

>  <s_lp_Variant>  (114) 
37:0-3

>  <s_i_glide_gridfile>  (114) 
pfpi4k_grid

>  <i_i_glide_lignum>  (114) 
5

>  <i_i_glide_rotatable_bonds>  (114) 
5

>  <r_i_docking_score>  (114) 
-2.83711

>  <r_i_glide_ligand_efficiency>  (114) 
-0.118213

>  <r_i_glide_ligand_efficiency_sa>  (114) 
-0.340986

>  <r_i_glide_ligand_efficiency_ln>  (114) 
-0.679052

>  <r_i_glide_gscore>  (114) 
-2.83711

>  <r_i_glide_lipo>  (114) 
-0.284813

>  <r_i_glide_hbond>  (114) 
-0.153579

>  <r_i_glide_metal>  (114) 
-0

>  <r_i_glide_rewards>  (114) 
-1.21427

>  <r_i_glide_evdw>  (114) 
-23.7475

>  <r_i_glide_ecoul>  (114) 
-4.3132

>  <r_i_glide_erotb>  (114) 
0.704179

>  <r_i_glide_esite>  (114) 
-0.0542796

>  <r_i_glide_emodel>  (114) 
-31.7879

>  <r_i_glide_energy>  (114) 
-28.0607

>  <r_i_glide_einternal>  (114) 
1.26159

>  <r_i_glide_intrahb_reward>  (114) 
-0

>  <i_i_glide_confnum>  (114) 
2

>  <i_i_glide_posenum>  (114) 
38

>  <r_i_glide_eff_state_penalty>  (114) 
0

>  <ligand_id>  (114) 
37

>  <original_smiles>  (114) 
CCCOC(=O)C1=C(C)N=C2CCCC(=O)C2C1c1ccncc1

>  <smiles>  (114) 
[H]c1nc([H])c([H])c(C2([H])C(C(=O)OC([H])([H])C([H])([H])C([H])([H])[H])=C(C([H])([H])[H])N=C3C([H])([H])C([H])([H])C([H])([H])C(=O)C32[H])c1[H]

$$$$
37:3:0
     RDKit          3D

 46 48  0  0  1  0  0  0  0  0999 V2000
    3.5076    0.2031   -4.6814 C   0  0  0  0  0  0  0  0  0  0  0  0
    3.8275   -1.1346   -4.0135 C   0  0  0  0  0  0  0  0  0  0  0  0
    3.7996   -1.0413   -2.4881 C   0  0  0  0  0  0  0  0  0  0  0  0
    4.0522   -2.3399   -1.9639 O   0  0  0  0  0  0  0  0  0  0  0  0
    5.1746   -2.5952   -1.2809 C   0  0  0  0  0  0  0  0  0  0  0  0
    6.0788   -1.7753   -1.1443 O   0  0  0  0  0  0  0  0  0  0  0  0
    5.2168   -4.0352   -0.7076 C   0  0  1  0  0  0  0  0  0  0  0  0
    6.4597   -4.4629    0.1256 C   0  0  0  0  0  0  0  0  0  0  0  0
    7.6701   -3.8680    0.1316 C   0  0  0  0  0  0  0  0  0  0  0  0
    6.3915   -5.6065    0.9138 N   0  0  0  0  0  0  0  0  0  0  0  0
    5.3305   -6.2927    1.0832 C   0  0  0  0  0  0  0  0  0  0  0  0
    5.3984   -7.5576    1.9310 C   0  0  0  0  0  0  0  0  0  0  0  0
    4.1395   -8.4330    1.8482 C   0  0  0  0  0  0  0  0  0  0  0  0
    2.8780   -7.6318    2.1818 C   0  0  0  0  0  0  0  0  0  0  0  0
    2.7379   -6.3947    1.2778 C   0  0  0  0  0  0  0  0  0  0  0  0
    1.6436   -5.8572    1.1546 O   0  0  0  0  0  0  0  0  0  0  0  0
    3.9715   -5.9206    0.4731 C   0  0  1  0  0  0  0  0  0  0  0  0
    3.9180   -4.4289    0.0459 C   0  0  1  0  0  0  0  0  0  0  0  0
    3.5466   -3.4415    1.1660 C   0  0  0  0  0  0  0  0  0  0  0  0
    2.6515   -2.3870    0.8987 C   0  0  0  0  0  0  0  0  0  0  0  0
    2.3058   -1.4818    1.9097 C   0  0  0  0  0  0  0  0  0  0  0  0
    2.7885   -1.5638    3.1701 N   0  0  0  0  0  0  0  0  0  0  0  0
    3.6577   -2.5684    3.4307 C   0  0  0  0  0  0  0  0  0  0  0  0
    4.0618   -3.5160    2.4772 C   0  0  0  0  0  0  0  0  0  0  0  0
    3.5471    0.1080   -5.7653 H   0  0  0  0  0  0  0  0  0  0  0  0
    4.2134    0.9759   -4.3763 H   0  0  0  0  0  0  0  0  0  0  0  0
    2.5069    0.5363   -4.4076 H   0  0  0  0  0  0  0  0  0  0  0  0
    3.1060   -1.8867   -4.3325 H   0  0  0  0  0  0  0  0  0  0  0  0
    4.8132   -1.4789   -4.3242 H   0  0  0  0  0  0  0  0  0  0  0  0
    4.5255   -0.2998   -2.1543 H   0  0  0  0  0  0  0  0  0  0  0  0
    2.8301   -0.6970   -2.1249 H   0  0  0  0  0  0  0  0  0  0  0  0
    8.4595   -4.2678    0.7614 H   0  0  0  0  0  0  0  0  0  0  0  0
    5.5780   -7.2654    2.9683 H   0  0  0  0  0  0  0  0  0  0  0  0
    7.9472   -3.0079   -0.4524 H   0  0  0  0  0  0  0  0  0  0  0  0
    6.2621   -8.1477    1.6193 H   0  0  0  0  0  0  0  0  0  0  0  0
    5.2593   -4.6750   -1.5887 H   0  0  0  0  0  0  0  0  0  0  0  0
    4.2330   -9.2763    2.5382 H   0  0  0  0  0  0  0  0  0  0  0  0
    4.0522   -8.8701    0.8515 H   0  0  0  0  0  0  0  0  0  0  0  0
    1.9940   -8.2602    2.0747 H   0  0  0  0  0  0  0  0  0  0  0  0
    2.9089   -7.2990    3.2201 H   0  0  0  0  0  0  0  0  0  0  0  0
    3.9215   -6.4944   -0.4534 H   0  0  0  0  0  0  0  0  0  0  0  0
    3.0981   -4.3832   -0.6746 H   0  0  0  0  0  0  0  0  0  0  0  0
    2.2560   -2.2597   -0.0991 H   0  0  0  0  0  0  0  0  0  0  0  0
    1.6235   -0.6645    1.7114 H   0  0  0  0  0  0  0  0  0  0  0  0
    4.0319   -2.6088    4.4441 H   0  0  0  0  0  0  0  0  0  0  0  0
    4.7648   -4.2876    2.7726 H   0  0  0  0  0  0  0  0  0  0  0  0
  1  2  1  0
  1 25  1  0
  1 26  1  0
  1 27  1  0
  2  3  1  0
  2 28  1  0
  2 29  1  0
  3  4  1  0
  3 30  1  0
  3 31  1  0
  4  5  1  0
  5  6  2  0
  5  7  1  0
  7 18  1  0
  7 36  1  6
  7  8  1  0
  8 10  1  0
  8  9  2  0
  9 32  1  0
  9 34  1  0
 10 11  2  0
 11 12  1  0
 11 17  1  0
 12 13  1  0
 12 35  1  0
 12 33  1  0
 13 14  1  0
 13 37  1  0
 13 38  1  0
 14 15  1  0
 14 39  1  0
 14 40  1  0
 15 16  2  0
 15 17  1  0
 17 18  1  0
 17 41  1  6
 18 19  1  0
 18 42  1  6
 19 24  1  0
 19 20  2  0
 20 21  1  0
 20 43  1  0
 21 22  2  0
 21 44  1  0
 22 23  1  0
 23 24  2  0
 23 45  1  0
 24 46  1  0
M  END
>  <i_m_ct_stereo_status>  (115) 
1

>  <s_m_source_file>  (115) 
/var/tmp/pbs.5076255.sched01/tmpl63by5lx/41imve8rrw.sdf

>  <i_m_source_file_index>  (115) 
6

>  <i_lp_mmshare_version>  (115) 
48012

>  <i_f3d_flags>  (115) 
0

>  <s_epik_input>  (115) 
W0NIM11bQ0gyXVtDSDJdT0MoPU8pQyg9QyhOPTEpW0NIM10pW0NAQEhdKFtDQEBIXShDMTIpQyg9TylbQ0gyXVtDSDJdW0NIMl0yKWMzW2NIXVtjSF1uW2NIXVtjSF0z

>  <s_epik_cmdline>  (115) 
J2VwaWtfcHl0aG9uJywgJy1waHQnLCAnMi4wJywgJy1waCcsICc3LjAnLCAnLXRuJywgJzgnLCAnLW1hJywgJzIwMCcsICctaW1hZScsICc8aW5maWxlLm1hZT4nLCAnLW9tYWUnLCAnPG91dGZpbGUubWFlPic=

>  <r_epik_Ionization_Penalty>  (115) 
0.0186406

>  <r_epik_Ionization_Penalty_Charging>  (115) 
0

>  <r_epik_Ionization_Penalty_Neutral>  (115) 
0.0186406

>  <r_epik_State_Penalty>  (115) 
0.914105

>  <r_epik_Charging_Adjusted_Penalty>  (115) 
0.914105

>  <i_epik_Tot_Q>  (115) 
0

>  <i_epik_Tot_abs_Q>  (115) 
0

>  <s_epik_Chemistry_Notes>  (115) 
This compound has an ester and may undergo hydrolysis at high or low pH. This compound has an imine and may undergo hydrolysis.

>  <s_lp_Force_Field>  (115) 
OPLS3e

>  <r_lp_Energy>  (115) 
28.6146

>  <b_lp_Chiralities_Consistent>  (115) 
1

>  <s_lp_Variant>  (115) 
37:0-4

>  <s_i_glide_gridfile>  (115) 
pfpi4k_grid

>  <i_i_glide_lignum>  (115) 
6

>  <i_i_glide_rotatable_bonds>  (115) 
5

>  <r_i_docking_score>  (115) 
-3.55621

>  <r_i_glide_ligand_efficiency>  (115) 
-0.148175

>  <r_i_glide_ligand_efficiency_sa>  (115) 
-0.427412

>  <r_i_glide_ligand_efficiency_ln>  (115) 
-0.851164

>  <r_i_glide_gscore>  (115) 
-3.55621

>  <r_i_glide_lipo>  (115) 
-0.671696

>  <r_i_glide_hbond>  (115) 
-0.208461

>  <r_i_glide_metal>  (115) 
-0

>  <r_i_glide_rewards>  (115) 
-1.31644

>  <r_i_glide_evdw>  (115) 
-27.8406

>  <r_i_glide_ecoul>  (115) 
-4.40997

>  <r_i_glide_erotb>  (115) 
0.704179

>  <r_i_glide_esite>  (115) 
-0.01027

>  <r_i_glide_emodel>  (115) 
-38.9419

>  <r_i_glide_energy>  (115) 
-32.2505

>  <r_i_glide_einternal>  (115) 
1.46306

>  <r_i_glide_intrahb_reward>  (115) 
-0

>  <i_i_glide_confnum>  (115) 
5

>  <i_i_glide_posenum>  (115) 
30

>  <r_i_glide_eff_state_penalty>  (115) 
0

>  <ligand_id>  (115) 
37

>  <original_smiles>  (115) 
CCCOC(=O)C1=C(C)N=C2CCCC(=O)C2C1c1ccncc1

>  <smiles>  (115) 
[H]C([H])=C1N=C2C([H])([H])C([H])([H])C([H])([H])C(=O)C2([H])C([H])(c2c([H])c([H])nc([H])c2[H])C1([H])C(=O)OC([H])([H])C([H])([H])C([H])([H])[H]

$$$$
37:3:1
     RDKit          3D

 46 48  0  0  1  0  0  0  0  0999 V2000
   -5.3403    5.6630    1.2219 C   0  0  0  0  0  0  0  0  0  0  0  0
   -4.5899    4.4228    1.7266 C   0  0  0  0  0  0  0  0  0  0  0  0
   -3.2378    4.7618    2.3689 C   0  0  0  0  0  0  0  0  0  0  0  0
   -2.5172    3.5726    2.6386 O   0  0  0  0  0  0  0  0  0  0  0  0
   -1.4292    3.6228    3.4218 C   0  0  0  0  0  0  0  0  0  0  0  0
   -1.1137    4.5905    4.1160 O   0  0  0  0  0  0  0  0  0  0  0  0
   -0.6439    2.2929    3.4139 C   0  0  1  0  0  0  0  0  0  0  0  0
    0.8861    2.3859    3.5339 C   0  0  0  0  0  0  0  0  0  0  0  0
    1.6171    3.4973    3.3313 C   0  0  0  0  0  0  0  0  0  0  0  0
    1.6290    1.2354    3.8306 N   0  0  0  0  0  0  0  0  0  0  0  0
    1.0907    0.1178    4.1074 C   0  0  0  0  0  0  0  0  0  0  0  0
    1.9914   -1.0841    4.3633 C   0  0  0  0  0  0  0  0  0  0  0  0
    1.2436   -2.4231    4.4244 C   0  0  0  0  0  0  0  0  0  0  0  0
    0.1071   -2.3802    5.4499 C   0  0  0  0  0  0  0  0  0  0  0  0
   -0.8674   -1.2376    5.1588 C   0  0  0  0  0  0  0  0  0  0  0  0
   -1.9925   -1.2596    5.6607 O   0  0  0  0  0  0  0  0  0  0  0  0
   -0.4342   -0.0984    4.2054 C   0  0  1  0  0  0  0  0  0  0  0  0
   -1.2070    1.2383    4.3998 C   0  0  1  0  0  0  0  0  0  0  0  0
   -1.3202    1.7480    5.8496 C   0  0  0  0  0  0  0  0  0  0  0  0
   -2.4338    2.5257    6.2442 C   0  0  0  0  0  0  0  0  0  0  0  0
   -2.5298    2.9682    7.5752 C   0  0  0  0  0  0  0  0  0  0  0  0
   -1.6132    2.6789    8.5172 N   0  0  0  0  0  0  0  0  0  0  0  0
   -0.5405    1.9537    8.1476 C   0  0  0  0  0  0  0  0  0  0  0  0
   -0.3486    1.4690    6.8413 C   0  0  0  0  0  0  0  0  0  0  0  0
   -6.2801    5.3728    0.7528 H   0  0  0  0  0  0  0  0  0  0  0  0
   -4.7589    6.2062    0.4758 H   0  0  0  0  0  0  0  0  0  0  0  0
   -5.5775    6.3505    2.0342 H   0  0  0  0  0  0  0  0  0  0  0  0
   -5.2097    3.8919    2.4481 H   0  0  0  0  0  0  0  0  0  0  0  0
   -4.4456    3.7358    0.8917 H   0  0  0  0  0  0  0  0  0  0  0  0
   -2.6476    5.3974    1.7074 H   0  0  0  0  0  0  0  0  0  0  0  0
   -3.3735    5.3443    3.2672 H   0  0  0  0  0  0  0  0  0  0  0  0
    2.6960    3.4796    3.4212 H   0  0  0  0  0  0  0  0  0  0  0  0
    2.5290   -0.9139    5.2983 H   0  0  0  0  0  0  0  0  0  0  0  0
    1.1677    4.4446    3.0642 H   0  0  0  0  0  0  0  0  0  0  0  0
    2.7398   -1.1352    3.5717 H   0  0  0  0  0  0  0  0  0  0  0  0
   -0.7926    1.8983    2.4065 H   0  0  0  0  0  0  0  0  0  0  0  0
    1.9418   -3.2208    4.6860 H   0  0  0  0  0  0  0  0  0  0  0  0
    0.8414   -2.6732    3.4406 H   0  0  0  0  0  0  0  0  0  0  0  0
   -0.4366   -3.3249    5.4532 H   0  0  0  0  0  0  0  0  0  0  0  0
    0.5134   -2.2428    6.4540 H   0  0  0  0  0  0  0  0  0  0  0  0
   -0.7177   -0.4552    3.2167 H   0  0  0  0  0  0  0  0  0  0  0  0
   -2.2305    1.0385    4.0829 H   0  0  0  0  0  0  0  0  0  0  0  0
   -3.2025    2.7946    5.5350 H   0  0  0  0  0  0  0  0  0  0  0  0
   -3.3661    3.5744    7.8926 H   0  0  0  0  0  0  0  0  0  0  0  0
    0.1806    1.7358    8.9226 H   0  0  0  0  0  0  0  0  0  0  0  0
    0.5370    0.8885    6.6349 H   0  0  0  0  0  0  0  0  0  0  0  0
  1  2  1  0
  1 25  1  0
  1 26  1  0
  1 27  1  0
  2  3  1  0
  2 28  1  0
  2 29  1  0
  3  4  1  0
  3 30  1  0
  3 31  1  0
  4  5  1  0
  5  6  2  0
  5  7  1  0
  7 18  1  0
  7 36  1  6
  7  8  1  0
  8 10  1  0
  8  9  2  0
  9 32  1  0
  9 34  1  0
 10 11  2  0
 11 12  1  0
 11 17  1  0
 12 13  1  0
 12 35  1  0
 12 33  1  0
 13 14  1  0
 13 37  1  0
 13 38  1  0
 14 15  1  0
 14 39  1  0
 14 40  1  0
 15 16  2  0
 15 17  1  0
 17 18  1  0
 17 41  1  6
 18 19  1  0
 18 42  1  6
 19 24  1  0
 19 20  2  0
 20 21  1  0
 20 43  1  0
 21 22  2  0
 21 44  1  0
 22 23  1  0
 23 24  2  0
 23 45  1  0
 24 46  1  0
M  END
>  <i_m_ct_stereo_status>  (116) 
1

>  <s_m_source_file>  (116) 
/var/tmp/pbs.5076255.sched01/tmpl63by5lx/41imve8rrw.sdf

>  <i_m_source_file_index>  (116) 
6

>  <i_lp_mmshare_version>  (116) 
48012

>  <i_f3d_flags>  (116) 
0

>  <s_epik_input>  (116) 
W0NIM11bQ0gyXVtDSDJdT0MoPU8pQyg9QyhOPTEpW0NIM10pW0NAQEhdKFtDQEBIXShDMTIpQyg9TylbQ0gyXVtDSDJdW0NIMl0yKWMzW2NIXVtjSF1uW2NIXVtjSF0z

>  <s_epik_cmdline>  (116) 
J2VwaWtfcHl0aG9uJywgJy1waHQnLCAnMi4wJywgJy1waCcsICc3LjAnLCAnLXRuJywgJzgnLCAnLW1hJywgJzIwMCcsICctaW1hZScsICc8aW5maWxlLm1hZT4nLCAnLW9tYWUnLCAnPG91dGZpbGUubWFlPic=

>  <r_epik_Ionization_Penalty>  (116) 
0.0186406

>  <r_epik_Ionization_Penalty_Charging>  (116) 
0

>  <r_epik_Ionization_Penalty_Neutral>  (116) 
0.0186406

>  <r_epik_State_Penalty>  (116) 
0.914105

>  <r_epik_Charging_Adjusted_Penalty>  (116) 
0.914105

>  <i_epik_Tot_Q>  (116) 
0

>  <i_epik_Tot_abs_Q>  (116) 
0

>  <s_epik_Chemistry_Notes>  (116) 
This compound has an ester and may undergo hydrolysis at high or low pH. This compound has an imine and may undergo hydrolysis.

>  <s_lp_Force_Field>  (116) 
OPLS3e

>  <r_lp_Energy>  (116) 
28.6146

>  <b_lp_Chiralities_Consistent>  (116) 
1

>  <s_lp_Variant>  (116) 
37:0-4

>  <s_i_glide_gridfile>  (116) 
pfpi4k_grid

>  <i_i_glide_lignum>  (116) 
6

>  <i_i_glide_rotatable_bonds>  (116) 
5

>  <r_i_docking_score>  (116) 
-3.16405

>  <r_i_glide_ligand_efficiency>  (116) 
-0.131835

>  <r_i_glide_ligand_efficiency_sa>  (116) 
-0.380279

>  <r_i_glide_ligand_efficiency_ln>  (116) 
-0.757302

>  <r_i_glide_gscore>  (116) 
-3.16405

>  <r_i_glide_lipo>  (116) 
-0.610954

>  <r_i_glide_hbond>  (116) 
-0.0928775

>  <r_i_glide_metal>  (116) 
-0

>  <r_i_glide_rewards>  (116) 
-1.18371

>  <r_i_glide_evdw>  (116) 
-23.7652

>  <r_i_glide_ecoul>  (116) 
-4.46662

>  <r_i_glide_erotb>  (116) 
0.704179

>  <r_i_glide_esite>  (116) 
-0.122435

>  <r_i_glide_emodel>  (116) 
-33.7672

>  <r_i_glide_energy>  (116) 
-28.2318

>  <r_i_glide_einternal>  (116) 
2.58852

>  <r_i_glide_intrahb_reward>  (116) 
-0

>  <i_i_glide_confnum>  (116) 
2

>  <i_i_glide_posenum>  (116) 
5

>  <r_i_glide_eff_state_penalty>  (116) 
0

>  <ligand_id>  (116) 
37

>  <original_smiles>  (116) 
CCCOC(=O)C1=C(C)N=C2CCCC(=O)C2C1c1ccncc1

>  <smiles>  (116) 
[H]C([H])=C1N=C2C([H])([H])C([H])([H])C([H])([H])C(=O)C2([H])C([H])(c2c([H])c([H])nc([H])c2[H])C1([H])C(=O)OC([H])([H])C([H])([H])C([H])([H])[H]

$$$$
37:3:2
     RDKit          3D

 46 48  0  0  1  0  0  0  0  0999 V2000
    3.2382    0.1907   -5.0258 C   0  0  0  0  0  0  0  0  0  0  0  0
    3.5983   -1.0934   -4.2723 C   0  0  0  0  0  0  0  0  0  0  0  0
    3.3539   -0.9801   -2.7614 C   0  0  0  0  0  0  0  0  0  0  0  0
    3.7894   -2.1729   -2.1242 O   0  0  0  0  0  0  0  0  0  0  0  0
    4.9739   -2.2050   -1.4848 C   0  0  0  0  0  0  0  0  0  0  0  0
    5.7392   -1.2499   -1.3916 O   0  0  0  0  0  0  0  0  0  0  0  0
    5.2721   -3.5849   -0.8536 C   0  0  1  0  0  0  0  0  0  0  0  0
    6.6968   -3.8319   -0.3044 C   0  0  0  0  0  0  0  0  0  0  0  0
    7.8126   -3.1481   -0.6269 C   0  0  0  0  0  0  0  0  0  0  0  0
    6.9168   -4.9003    0.5667 N   0  0  0  0  0  0  0  0  0  0  0  0
    5.9875   -5.6439    1.0165 C   0  0  0  0  0  0  0  0  0  0  0  0
    6.3563   -6.8234    1.9141 C   0  0  0  0  0  0  0  0  0  0  0  0
    5.1925   -7.7900    2.1830 C   0  0  0  0  0  0  0  0  0  0  0  0
    3.9693   -7.0502    2.7393 C   0  0  0  0  0  0  0  0  0  0  0  0
    3.5209   -5.9232    1.8022 C   0  0  0  0  0  0  0  0  0  0  0  0
    2.3811   -5.4642    1.8981 O   0  0  0  0  0  0  0  0  0  0  0  0
    4.4929   -5.4293    0.7064 C   0  0  1  0  0  0  0  0  0  0  0  0
    4.2086   -3.9894    0.2021 C   0  0  1  0  0  0  0  0  0  0  0  0
    4.0016   -2.9294    1.2990 C   0  0  0  0  0  0  0  0  0  0  0  0
    2.9125   -2.0406    1.2221 C   0  0  0  0  0  0  0  0  0  0  0  0
    2.7363   -1.0685    2.2215 C   0  0  0  0  0  0  0  0  0  0  0  0
    3.5624   -0.9442    3.2816 N   0  0  0  0  0  0  0  0  0  0  0  0
    4.6080   -1.7926    3.3598 C   0  0  0  0  0  0  0  0  0  0  0  0
    4.8730   -2.7893    2.4028 C   0  0  0  0  0  0  0  0  0  0  0  0
    3.4322    0.0791   -6.0921 H   0  0  0  0  0  0  0  0  0  0  0  0
    3.8206    1.0371   -4.6605 H   0  0  0  0  0  0  0  0  0  0  0  0
    2.1832    0.4339   -4.9034 H   0  0  0  0  0  0  0  0  0  0  0  0
    3.0155   -1.9278   -4.6614 H   0  0  0  0  0  0  0  0  0  0  0  0
    4.6453   -1.3324   -4.4551 H   0  0  0  0  0  0  0  0  0  0  0  0
    3.8664   -0.1026   -2.3668 H   0  0  0  0  0  0  0  0  0  0  0  0
    2.2956   -0.8327   -2.5456 H   0  0  0  0  0  0  0  0  0  0  0  0
    8.7656   -3.4119   -0.1818 H   0  0  0  0  0  0  0  0  0  0  0  0
    6.7326   -6.4281    2.8602 H   0  0  0  0  0  0  0  0  0  0  0  0
    7.8211   -2.3253   -1.3270 H   0  0  0  0  0  0  0  0  0  0  0  0
    7.1755   -7.3773    1.4527 H   0  0  0  0  0  0  0  0  0  0  0  0
    5.1762   -4.2954   -1.6754 H   0  0  0  0  0  0  0  0  0  0  0  0
    5.5089   -8.5580    2.8914 H   0  0  0  0  0  0  0  0  0  0  0  0
    4.9198   -8.3153    1.2653 H   0  0  0  0  0  0  0  0  0  0  0  0
    3.1417   -7.7456    2.8823 H   0  0  0  0  0  0  0  0  0  0  0  0
    4.2006   -6.6248    3.7186 H   0  0  0  0  0  0  0  0  0  0  0  0
    4.2864   -6.0817   -0.1434 H   0  0  0  0  0  0  0  0  0  0  0  0
    3.2543   -4.0581   -0.3245 H   0  0  0  0  0  0  0  0  0  0  0  0
    2.2171   -2.0847    0.3976 H   0  0  0  0  0  0  0  0  0  0  0  0
    1.9086   -0.3749    2.1758 H   0  0  0  0  0  0  0  0  0  0  0  0
    5.2488   -1.6730    4.2218 H   0  0  0  0  0  0  0  0  0  0  0  0
    5.7347   -3.4240    2.5394 H   0  0  0  0  0  0  0  0  0  0  0  0
  1  2  1  0
  1 25  1  0
  1 26  1  0
  1 27  1  0
  2  3  1  0
  2 28  1  0
  2 29  1  0
  3  4  1  0
  3 30  1  0
  3 31  1  0
  4  5  1  0
  5  6  2  0
  5  7  1  0
  7 18  1  0
  7 36  1  6
  7  8  1  0
  8 10  1  0
  8  9  2  0
  9 32  1  0
  9 34  1  0
 10 11  2  0
 11 12  1  0
 11 17  1  0
 12 13  1  0
 12 35  1  0
 12 33  1  0
 13 14  1  0
 13 37  1  0
 13 38  1  0
 14 15  1  0
 14 39  1  0
 14 40  1  0
 15 16  2  0
 15 17  1  0
 17 18  1  0
 17 41  1  6
 18 19  1  0
 18 42  1  6
 19 24  1  0
 19 20  2  0
 20 21  1  0
 20 43  1  0
 21 22  2  0
 21 44  1  0
 22 23  1  0
 23 24  2  0
 23 45  1  0
 24 46  1  0
M  END
>  <i_m_ct_stereo_status>  (117) 
1

>  <s_m_source_file>  (117) 
/var/tmp/pbs.5076255.sched01/tmpl63by5lx/41imve8rrw.sdf

>  <i_m_source_file_index>  (117) 
6

>  <i_lp_mmshare_version>  (117) 
48012

>  <i_f3d_flags>  (117) 
0

>  <s_epik_input>  (117) 
W0NIM11bQ0gyXVtDSDJdT0MoPU8pQyg9QyhOPTEpW0NIM10pW0NAQEhdKFtDQEBIXShDMTIpQyg9TylbQ0gyXVtDSDJdW0NIMl0yKWMzW2NIXVtjSF1uW2NIXVtjSF0z

>  <s_epik_cmdline>  (117) 
J2VwaWtfcHl0aG9uJywgJy1waHQnLCAnMi4wJywgJy1waCcsICc3LjAnLCAnLXRuJywgJzgnLCAnLW1hJywgJzIwMCcsICctaW1hZScsICc8aW5maWxlLm1hZT4nLCAnLW9tYWUnLCAnPG91dGZpbGUubWFlPic=

>  <r_epik_Ionization_Penalty>  (117) 
0.0186406

>  <r_epik_Ionization_Penalty_Charging>  (117) 
0

>  <r_epik_Ionization_Penalty_Neutral>  (117) 
0.0186406

>  <r_epik_State_Penalty>  (117) 
0.914105

>  <r_epik_Charging_Adjusted_Penalty>  (117) 
0.914105

>  <i_epik_Tot_Q>  (117) 
0

>  <i_epik_Tot_abs_Q>  (117) 
0

>  <s_epik_Chemistry_Notes>  (117) 
This compound has an ester and may undergo hydrolysis at high or low pH. This compound has an imine and may undergo hydrolysis.

>  <s_lp_Force_Field>  (117) 
OPLS3e

>  <r_lp_Energy>  (117) 
28.6146

>  <b_lp_Chiralities_Consistent>  (117) 
1

>  <s_lp_Variant>  (117) 
37:0-4

>  <s_i_glide_gridfile>  (117) 
pfpi4k_grid

>  <i_i_glide_lignum>  (117) 
6

>  <i_i_glide_rotatable_bonds>  (117) 
5

>  <r_i_docking_score>  (117) 
-3.07741

>  <r_i_glide_ligand_efficiency>  (117) 
-0.128225

>  <r_i_glide_ligand_efficiency_sa>  (117) 
-0.369866

>  <r_i_glide_ligand_efficiency_ln>  (117) 
-0.736565

>  <r_i_glide_gscore>  (117) 
-3.07741

>  <r_i_glide_lipo>  (117) 
-0.659542

>  <r_i_glide_hbond>  (117) 
-0.0620478

>  <r_i_glide_metal>  (117) 
-0

>  <r_i_glide_rewards>  (117) 
-1.33593

>  <r_i_glide_evdw>  (117) 
-28.2241

>  <r_i_glide_ecoul>  (117) 
-1.91775

>  <r_i_glide_erotb>  (117) 
0.704179

>  <r_i_glide_esite>  (117) 
-0.0252025

>  <r_i_glide_emodel>  (117) 
-36.4618

>  <r_i_glide_energy>  (117) 
-30.1419

>  <r_i_glide_einternal>  (117) 
0.587699

>  <r_i_glide_intrahb_reward>  (117) 
-0

>  <i_i_glide_confnum>  (117) 
5

>  <i_i_glide_posenum>  (117) 
35

>  <r_i_glide_eff_state_penalty>  (117) 
0

>  <ligand_id>  (117) 
37

>  <original_smiles>  (117) 
CCCOC(=O)C1=C(C)N=C2CCCC(=O)C2C1c1ccncc1

>  <smiles>  (117) 
[H]C([H])=C1N=C2C([H])([H])C([H])([H])C([H])([H])C(=O)C2([H])C([H])(c2c([H])c([H])nc([H])c2[H])C1([H])C(=O)OC([H])([H])C([H])([H])C([H])([H])[H]

$$$$
37:4:0
     RDKit          3D

 46 48  0  0  1  0  0  0  0  0999 V2000
   -0.8487   -8.1148    2.5616 C   0  0  0  0  0  0  0  0  0  0  0  0
    0.4973   -7.3831    2.5769 C   0  0  0  0  0  0  0  0  0  0  0  0
    1.3625   -7.7342    1.3551 C   0  0  0  0  0  0  0  0  0  0  0  0
    2.6422   -7.1174    1.4547 O   0  0  0  0  0  0  0  0  0  0  0  0
    2.8619   -5.9205    0.8774 C   0  0  0  0  0  0  0  0  0  0  0  0
    2.0309   -5.3128    0.2051 O   0  0  0  0  0  0  0  0  0  0  0  0
    4.2808   -5.3713    1.1522 C   0  0  2  0  0  0  0  0  0  0  0  0
    4.3704   -5.0541    2.6440 C   0  0  0  0  0  0  0  0  0  0  0  0
    4.9449   -5.9030    3.5119 C   0  0  0  0  0  0  0  0  0  0  0  0
    3.9736   -3.8140    3.1247 N   0  0  0  0  0  0  0  0  0  0  0  0
    3.7520   -2.8231    2.3502 C   0  0  0  0  0  0  0  0  0  0  0  0
    3.1926   -1.5351    2.9304 C   0  0  0  0  0  0  0  0  0  0  0  0
    3.9118   -0.2884    2.3986 C   0  0  0  0  0  0  0  0  0  0  0  0
    3.8059   -0.2066    0.8746 C   0  0  0  0  0  0  0  0  0  0  0  0
    4.3113   -1.4781    0.1933 C   0  0  0  0  0  0  0  0  0  0  0  0
    4.8910   -1.3616   -0.8766 O   0  0  0  0  0  0  0  0  0  0  0  0
    3.9235   -2.8504    0.8188 C   0  0  1  0  0  0  0  0  0  0  0  0
    4.6893   -4.1206    0.3167 C   0  0  1  0  0  0  0  0  0  0  0  0
    6.2250   -3.9723    0.1985 C   0  0  0  0  0  0  0  0  0  0  0  0
    6.8149   -3.4509   -0.9800 C   0  0  0  0  0  0  0  0  0  0  0  0
    8.2134   -3.3346   -1.0556 C   0  0  0  0  0  0  0  0  0  0  0  0
    9.0420   -3.7366   -0.0700 N   0  0  0  0  0  0  0  0  0  0  0  0
    8.4929   -4.2560    1.0441 C   0  0  0  0  0  0  0  0  0  0  0  0
    7.1107   -4.3738    1.2304 C   0  0  0  0  0  0  0  0  0  0  0  0
   -1.4426   -7.8615    3.4384 H   0  0  0  0  0  0  0  0  0  0  0  0
   -0.7086   -9.1962    2.5614 H   0  0  0  0  0  0  0  0  0  0  0  0
   -1.4285   -7.8588    1.6773 H   0  0  0  0  0  0  0  0  0  0  0  0
    0.3332   -6.3051    2.6193 H   0  0  0  0  0  0  0  0  0  0  0  0
    1.0388   -7.6516    3.4843 H   0  0  0  0  0  0  0  0  0  0  0  0
    1.5220   -8.8111    1.3003 H   0  0  0  0  0  0  0  0  0  0  0  0
    0.8487   -7.4509    0.4335 H   0  0  0  0  0  0  0  0  0  0  0  0
    5.0842   -5.6349    4.5561 H   0  0  0  0  0  0  0  0  0  0  0  0
    3.2674   -1.5630    4.0176 H   0  0  0  0  0  0  0  0  0  0  0  0
    5.3271   -6.8645    3.1895 H   0  0  0  0  0  0  0  0  0  0  0  0
    2.1325   -1.4924    2.6694 H   0  0  0  0  0  0  0  0  0  0  0  0
    4.9655   -6.1882    0.9249 H   0  0  0  0  0  0  0  0  0  0  0  0
    4.9629   -0.3135    2.6974 H   0  0  0  0  0  0  0  0  0  0  0  0
    3.4752    0.6148    2.8371 H   0  0  0  0  0  0  0  0  0  0  0  0
    2.7728   -0.0536    0.5540 H   0  0  0  0  0  0  0  0  0  0  0  0
    4.3984    0.6329    0.5054 H   0  0  0  0  0  0  0  0  0  0  0  0
    2.9078   -2.9783    0.4548 H   0  0  0  0  0  0  0  0  0  0  0  0
    4.3486   -4.3233   -0.6998 H   0  0  0  0  0  0  0  0  0  0  0  0
    6.2198   -3.1858   -1.8421 H   0  0  0  0  0  0  0  0  0  0  0  0
    8.6895   -2.9329   -1.9373 H   0  0  0  0  0  0  0  0  0  0  0  0
    9.1724   -4.5669    1.8261 H   0  0  0  0  0  0  0  0  0  0  0  0
    6.7940   -4.7903    2.1744 H   0  0  0  0  0  0  0  0  0  0  0  0
  1  2  1  0
  1 25  1  0
  1 26  1  0
  1 27  1  0
  2  3  1  0
  2 28  1  0
  2 29  1  0
  3  4  1  0
  3 30  1  0
  3 31  1  0
  4  5  1  0
  5  6  2  0
  5  7  1  0
  7 18  1  0
  7 36  1  1
  7  8  1  0
  8 10  1  0
  8  9  2  0
  9 32  1  0
  9 34  1  0
 10 11  2  0
 11 12  1  0
 11 17  1  0
 12 13  1  0
 12 35  1  0
 12 33  1  0
 13 14  1  0
 13 37  1  0
 13 38  1  0
 14 15  1  0
 14 39  1  0
 14 40  1  0
 15 16  2  0
 15 17  1  0
 17 18  1  0
 17 41  1  6
 18 19  1  0
 18 42  1  6
 19 24  1  0
 19 20  2  0
 20 21  1  0
 20 43  1  0
 21 22  2  0
 21 44  1  0
 22 23  1  0
 23 24  2  0
 23 45  1  0
 24 46  1  0
M  END
>  <i_m_ct_stereo_status>  (118) 
1

>  <s_m_source_file>  (118) 
/var/tmp/pbs.5076255.sched01/tmpl63by5lx/41imve8rrw.sdf

>  <i_m_source_file_index>  (118) 
7

>  <i_lp_mmshare_version>  (118) 
48012

>  <i_f3d_flags>  (118) 
0

>  <s_epik_input>  (118) 
W0NIM11bQ0gyXVtDSDJdT0MoPU8pQyg9QyhOPTEpW0NIM10pW0NAQEhdKFtDQEBIXShDMTIpQyg9TylbQ0gyXVtDSDJdW0NIMl0yKWMzW2NIXVtjSF1uW2NIXVtjSF0z

>  <s_epik_cmdline>  (118) 
J2VwaWtfcHl0aG9uJywgJy1waHQnLCAnMi4wJywgJy1waCcsICc3LjAnLCAnLXRuJywgJzgnLCAnLW1hJywgJzIwMCcsICctaW1hZScsICc8aW5maWxlLm1hZT4nLCAnLW9tYWUnLCAnPG91dGZpbGUubWFlPic=

>  <r_epik_Ionization_Penalty>  (118) 
0.0186406

>  <r_epik_Ionization_Penalty_Charging>  (118) 
0

>  <r_epik_Ionization_Penalty_Neutral>  (118) 
0.0186406

>  <r_epik_State_Penalty>  (118) 
0.914105

>  <r_epik_Charging_Adjusted_Penalty>  (118) 
0.914105

>  <i_epik_Tot_Q>  (118) 
0

>  <i_epik_Tot_abs_Q>  (118) 
0

>  <s_epik_Chemistry_Notes>  (118) 
This compound has an ester and may undergo hydrolysis at high or low pH. This compound has an imine and may undergo hydrolysis.

>  <s_lp_Force_Field>  (118) 
OPLS3e

>  <r_lp_Energy>  (118) 
23.0673

>  <b_lp_Chiralities_Consistent>  (118) 
1

>  <s_lp_Variant>  (118) 
37:0-5

>  <s_i_glide_gridfile>  (118) 
pfpi4k_grid

>  <i_i_glide_lignum>  (118) 
7

>  <i_i_glide_rotatable_bonds>  (118) 
5

>  <r_i_docking_score>  (118) 
-3.09334

>  <r_i_glide_ligand_efficiency>  (118) 
-0.128889

>  <r_i_glide_ligand_efficiency_sa>  (118) 
-0.371781

>  <r_i_glide_ligand_efficiency_ln>  (118) 
-0.740379

>  <r_i_glide_gscore>  (118) 
-3.09334

>  <r_i_glide_lipo>  (118) 
-0.507414

>  <r_i_glide_hbond>  (118) 
-0.15518

>  <r_i_glide_metal>  (118) 
-0

>  <r_i_glide_rewards>  (118) 
-1.18454

>  <r_i_glide_evdw>  (118) 
-25.0945

>  <r_i_glide_ecoul>  (118) 
-4.40572

>  <r_i_glide_erotb>  (118) 
0.704179

>  <r_i_glide_esite>  (118) 
-0.0348079

>  <r_i_glide_emodel>  (118) 
-32.5053

>  <r_i_glide_energy>  (118) 
-29.5002

>  <r_i_glide_einternal>  (118) 
4.65523

>  <r_i_glide_intrahb_reward>  (118) 
-0

>  <i_i_glide_confnum>  (118) 
3

>  <i_i_glide_posenum>  (118) 
31

>  <r_i_glide_eff_state_penalty>  (118) 
0

>  <ligand_id>  (118) 
37

>  <original_smiles>  (118) 
CCCOC(=O)C1=C(C)N=C2CCCC(=O)C2C1c1ccncc1

>  <smiles>  (118) 
[H]C([H])=C1N=C2C([H])([H])C([H])([H])C([H])([H])C(=O)C2([H])C([H])(c2c([H])c([H])nc([H])c2[H])C1([H])C(=O)OC([H])([H])C([H])([H])C([H])([H])[H]

$$$$
37:4:1
     RDKit          3D

 46 48  0  0  1  0  0  0  0  0999 V2000
    5.8854   -3.0434   -1.8989 C   0  0  0  0  0  0  0  0  0  0  0  0
    5.5102   -3.5511   -0.5003 C   0  0  0  0  0  0  0  0  0  0  0  0
    4.3561   -4.5632   -0.5206 C   0  0  0  0  0  0  0  0  0  0  0  0
    4.0022   -4.8883    0.8178 O   0  0  0  0  0  0  0  0  0  0  0  0
    2.7528   -5.3058    1.1093 C   0  0  0  0  0  0  0  0  0  0  0  0
    1.8385   -5.4567    0.2927 O   0  0  0  0  0  0  0  0  0  0  0  0
    2.5426   -5.5820    2.6151 C   0  0  2  0  0  0  0  0  0  0  0  0
    3.5032   -6.6707    3.0688 C   0  0  0  0  0  0  0  0  0  0  0  0
    4.6608   -6.3799    3.6794 C   0  0  0  0  0  0  0  0  0  0  0  0
    3.1714   -8.0192    2.9270 N   0  0  0  0  0  0  0  0  0  0  0  0
    1.9878   -8.3918    2.6434 C   0  0  0  0  0  0  0  0  0  0  0  0
    1.6948   -9.8536    2.3699 C   0  0  0  0  0  0  0  0  0  0  0  0
    0.4564  -10.3486    3.1299 C   0  0  0  0  0  0  0  0  0  0  0  0
   -0.7934   -9.5308    2.7665 C   0  0  0  0  0  0  0  0  0  0  0  0
   -0.5604   -8.0275    2.9523 C   0  0  0  0  0  0  0  0  0  0  0  0
   -1.4632   -7.3049    3.3737 O   0  0  0  0  0  0  0  0  0  0  0  0
    0.7876   -7.4375    2.4858 C   0  0  1  0  0  0  0  0  0  0  0  0
    1.1045   -5.9944    2.9941 C   0  0  1  0  0  0  0  0  0  0  0  0
    0.8403   -5.7017    4.4755 C   0  0  0  0  0  0  0  0  0  0  0  0
    0.4711   -4.3991    4.8771 C   0  0  0  0  0  0  0  0  0  0  0  0
    0.2169   -4.1508    6.2389 C   0  0  0  0  0  0  0  0  0  0  0  0
    0.3033   -5.0969    7.1954 N   0  0  0  0  0  0  0  0  0  0  0  0
    0.6772   -6.3366    6.8159 C   0  0  0  0  0  0  0  0  0  0  0  0
    0.9635   -6.6831    5.4834 C   0  0  0  0  0  0  0  0  0  0  0  0
    6.7018   -2.3231   -1.8435 H   0  0  0  0  0  0  0  0  0  0  0  0
    5.0379   -2.5493   -2.3771 H   0  0  0  0  0  0  0  0  0  0  0  0
    6.2074   -3.8558   -2.5472 H   0  0  0  0  0  0  0  0  0  0  0  0
    6.3823   -4.0041   -0.0274 H   0  0  0  0  0  0  0  0  0  0  0  0
    5.2266   -2.7003    0.1213 H   0  0  0  0  0  0  0  0  0  0  0  0
    3.5080   -4.1310   -1.0555 H   0  0  0  0  0  0  0  0  0  0  0  0
    4.6465   -5.4699   -1.0546 H   0  0  0  0  0  0  0  0  0  0  0  0
    5.3137   -7.1684    4.0332 H   0  0  0  0  0  0  0  0  0  0  0  0
    2.5610  -10.4552    2.6446 H   0  0  0  0  0  0  0  0  0  0  0  0
    4.9632   -5.3548    3.8516 H   0  0  0  0  0  0  0  0  0  0  0  0
    1.5564   -9.9581    1.2923 H   0  0  0  0  0  0  0  0  0  0  0  0
    2.7887   -4.6509    3.1287 H   0  0  0  0  0  0  0  0  0  0  0  0
    0.6351  -10.2909    4.2060 H   0  0  0  0  0  0  0  0  0  0  0  0
    0.2860  -11.4044    2.9068 H   0  0  0  0  0  0  0  0  0  0  0  0
   -1.0692   -9.7011    1.7264 H   0  0  0  0  0  0  0  0  0  0  0  0
   -1.6423   -9.8482    3.3696 H   0  0  0  0  0  0  0  0  0  0  0  0
    0.6482   -7.3544    1.4087 H   0  0  0  0  0  0  0  0  0  0  0  0
    0.4238   -5.3276    2.4730 H   0  0  0  0  0  0  0  0  0  0  0  0
    0.3696   -3.6008    4.1554 H   0  0  0  0  0  0  0  0  0  0  0  0
   -0.0692   -3.1644    6.5758 H   0  0  0  0  0  0  0  0  0  0  0  0
    0.7474   -7.0758    7.6010 H   0  0  0  0  0  0  0  0  0  0  0  0
    1.2525   -7.6990    5.2583 H   0  0  0  0  0  0  0  0  0  0  0  0
  1  2  1  0
  1 25  1  0
  1 26  1  0
  1 27  1  0
  2  3  1  0
  2 28  1  0
  2 29  1  0
  3  4  1  0
  3 30  1  0
  3 31  1  0
  4  5  1  0
  5  6  2  0
  5  7  1  0
  7 18  1  0
  7 36  1  1
  7  8  1  0
  8 10  1  0
  8  9  2  0
  9 32  1  0
  9 34  1  0
 10 11  2  0
 11 12  1  0
 11 17  1  0
 12 13  1  0
 12 35  1  0
 12 33  1  0
 13 14  1  0
 13 37  1  0
 13 38  1  0
 14 15  1  0
 14 39  1  0
 14 40  1  0
 15 16  2  0
 15 17  1  0
 17 18  1  0
 17 41  1  6
 18 19  1  0
 18 42  1  6
 19 24  1  0
 19 20  2  0
 20 21  1  0
 20 43  1  0
 21 22  2  0
 21 44  1  0
 22 23  1  0
 23 24  2  0
 23 45  1  0
 24 46  1  0
M  END
>  <i_m_ct_stereo_status>  (119) 
1

>  <s_m_source_file>  (119) 
/var/tmp/pbs.5076255.sched01/tmpl63by5lx/41imve8rrw.sdf

>  <i_m_source_file_index>  (119) 
7

>  <i_lp_mmshare_version>  (119) 
48012

>  <i_f3d_flags>  (119) 
0

>  <s_epik_input>  (119) 
W0NIM11bQ0gyXVtDSDJdT0MoPU8pQyg9QyhOPTEpW0NIM10pW0NAQEhdKFtDQEBIXShDMTIpQyg9TylbQ0gyXVtDSDJdW0NIMl0yKWMzW2NIXVtjSF1uW2NIXVtjSF0z

>  <s_epik_cmdline>  (119) 
J2VwaWtfcHl0aG9uJywgJy1waHQnLCAnMi4wJywgJy1waCcsICc3LjAnLCAnLXRuJywgJzgnLCAnLW1hJywgJzIwMCcsICctaW1hZScsICc8aW5maWxlLm1hZT4nLCAnLW9tYWUnLCAnPG91dGZpbGUubWFlPic=

>  <r_epik_Ionization_Penalty>  (119) 
0.0186406

>  <r_epik_Ionization_Penalty_Charging>  (119) 
0

>  <r_epik_Ionization_Penalty_Neutral>  (119) 
0.0186406

>  <r_epik_State_Penalty>  (119) 
0.914105

>  <r_epik_Charging_Adjusted_Penalty>  (119) 
0.914105

>  <i_epik_Tot_Q>  (119) 
0

>  <i_epik_Tot_abs_Q>  (119) 
0

>  <s_epik_Chemistry_Notes>  (119) 
This compound has an ester and may undergo hydrolysis at high or low pH. This compound has an imine and may undergo hydrolysis.

>  <s_lp_Force_Field>  (119) 
OPLS3e

>  <r_lp_Energy>  (119) 
23.0673

>  <b_lp_Chiralities_Consistent>  (119) 
1

>  <s_lp_Variant>  (119) 
37:0-5

>  <s_i_glide_gridfile>  (119) 
pfpi4k_grid

>  <i_i_glide_lignum>  (119) 
7

>  <i_i_glide_rotatable_bonds>  (119) 
5

>  <r_i_docking_score>  (119) 
-2.9183

>  <r_i_glide_ligand_efficiency>  (119) 
-0.121596

>  <r_i_glide_ligand_efficiency_sa>  (119) 
-0.350743

>  <r_i_glide_ligand_efficiency_ln>  (119) 
-0.698483

>  <r_i_glide_gscore>  (119) 
-2.9183

>  <r_i_glide_lipo>  (119) 
-0.322173

>  <r_i_glide_hbond>  (119) 
-0.125822

>  <r_i_glide_metal>  (119) 
-0

>  <r_i_glide_rewards>  (119) 
-1.18371

>  <r_i_glide_evdw>  (119) 
-24.7723

>  <r_i_glide_ecoul>  (119) 
-4.41872

>  <r_i_glide_erotb>  (119) 
0.704179

>  <r_i_glide_esite>  (119) 
-0.0893541

>  <r_i_glide_emodel>  (119) 
-34.4761

>  <r_i_glide_energy>  (119) 
-29.191

>  <r_i_glide_einternal>  (119) 
1.01386

>  <r_i_glide_intrahb_reward>  (119) 
-0

>  <i_i_glide_confnum>  (119) 
3

>  <i_i_glide_posenum>  (119) 
1

>  <r_i_glide_eff_state_penalty>  (119) 
0

>  <ligand_id>  (119) 
37

>  <original_smiles>  (119) 
CCCOC(=O)C1=C(C)N=C2CCCC(=O)C2C1c1ccncc1

>  <smiles>  (119) 
[H]C([H])=C1N=C2C([H])([H])C([H])([H])C([H])([H])C(=O)C2([H])C([H])(c2c([H])c([H])nc([H])c2[H])C1([H])C(=O)OC([H])([H])C([H])([H])C([H])([H])[H]

$$$$
37:4:2
     RDKit          3D

 46 48  0  0  1  0  0  0  0  0999 V2000
   -1.5796   -7.9758    4.5189 C   0  0  0  0  0  0  0  0  0  0  0  0
   -1.5465   -8.6416    3.1441 C   0  0  0  0  0  0  0  0  0  0  0  0
   -0.9327   -7.7275    2.0896 C   0  0  0  0  0  0  0  0  0  0  0  0
    0.4138   -7.4402    2.4269 O   0  0  0  0  0  0  0  0  0  0  0  0
    1.1664   -6.7317    1.5756 C   0  0  0  0  0  0  0  0  0  0  0  0
    0.7648   -6.2607    0.5061 O   0  0  0  0  0  0  0  0  0  0  0  0
    2.6064   -6.5139    2.0932 C   0  0  2  0  0  0  0  0  0  0  0  0
    2.5815   -5.5087    3.2367 C   0  0  0  0  0  0  0  0  0  0  0  0
    2.5753   -5.8945    4.5227 C   0  0  0  0  0  0  0  0  0  0  0  0
    2.6429   -4.1391    2.9811 N   0  0  0  0  0  0  0  0  0  0  0  0
    2.9594   -3.6806    1.8359 C   0  0  0  0  0  0  0  0  0  0  0  0
    2.8923   -2.1877    1.5638 C   0  0  0  0  0  0  0  0  0  0  0  0
    4.1530   -1.6613    0.8684 C   0  0  0  0  0  0  0  0  0  0  0  0
    4.3930   -2.3822   -0.4663 C   0  0  0  0  0  0  0  0  0  0  0  0
    4.4200   -3.8999   -0.2825 C   0  0  0  0  0  0  0  0  0  0  0  0
    5.2471   -4.5696   -0.8971 O   0  0  0  0  0  0  0  0  0  0  0  0
    3.3574   -4.5535    0.6270 C   0  0  1  0  0  0  0  0  0  0  0  0
    3.6187   -6.0408    1.0239 C   0  0  1  0  0  0  0  0  0  0  0  0
    5.0441   -6.4008    1.4662 C   0  0  0  0  0  0  0  0  0  0  0  0
    5.5203   -7.7163    1.2847 C   0  0  0  0  0  0  0  0  0  0  0  0
    6.8362   -8.0297    1.6789 C   0  0  0  0  0  0  0  0  0  0  0  0
    7.6731   -7.1356    2.2363 N   0  0  0  0  0  0  0  0  0  0  0  0
    7.2197   -5.8838    2.4272 C   0  0  0  0  0  0  0  0  0  0  0  0
    5.9187   -5.4739    2.0837 C   0  0  0  0  0  0  0  0  0  0  0  0
   -2.0047   -8.6624    5.2490 H   0  0  0  0  0  0  0  0  0  0  0  0
   -2.1767   -7.0636    4.5116 H   0  0  0  0  0  0  0  0  0  0  0  0
   -0.5771   -7.7267    4.8656 H   0  0  0  0  0  0  0  0  0  0  0  0
   -0.9869   -9.5760    3.1917 H   0  0  0  0  0  0  0  0  0  0  0  0
   -2.5599   -8.9065    2.8434 H   0  0  0  0  0  0  0  0  0  0  0  0
   -0.9778   -8.2052    1.1103 H   0  0  0  0  0  0  0  0  0  0  0  0
   -1.5012   -6.7991    2.0413 H   0  0  0  0  0  0  0  0  0  0  0  0
    2.6099   -5.1652    5.3209 H   0  0  0  0  0  0  0  0  0  0  0  0
    2.7462   -1.6549    2.5029 H   0  0  0  0  0  0  0  0  0  0  0  0
    2.5697   -6.9393    4.7983 H   0  0  0  0  0  0  0  0  0  0  0  0
    2.0163   -1.9945    0.9392 H   0  0  0  0  0  0  0  0  0  0  0  0
    2.9385   -7.4770    2.4856 H   0  0  0  0  0  0  0  0  0  0  0  0
    5.0174   -1.7985    1.5218 H   0  0  0  0  0  0  0  0  0  0  0  0
    4.0590   -0.5876    0.6882 H   0  0  0  0  0  0  0  0  0  0  0  0
    3.6072   -2.1397   -1.1834 H   0  0  0  0  0  0  0  0  0  0  0  0
    5.3403   -2.0636   -0.9002 H   0  0  0  0  0  0  0  0  0  0  0  0
    2.4718   -4.5670   -0.0059 H   0  0  0  0  0  0  0  0  0  0  0  0
    3.4496   -6.6351    0.1241 H   0  0  0  0  0  0  0  0  0  0  0  0
    4.8969   -8.4825    0.8391 H   0  0  0  0  0  0  0  0  0  0  0  0
    7.2342   -9.0261    1.5470 H   0  0  0  0  0  0  0  0  0  0  0  0
    7.9278   -5.1891    2.8567 H   0  0  0  0  0  0  0  0  0  0  0  0
    5.6329   -4.4505    2.2723 H   0  0  0  0  0  0  0  0  0  0  0  0
  1  2  1  0
  1 25  1  0
  1 26  1  0
  1 27  1  0
  2  3  1  0
  2 28  1  0
  2 29  1  0
  3  4  1  0
  3 30  1  0
  3 31  1  0
  4  5  1  0
  5  6  2  0
  5  7  1  0
  7 18  1  0
  7 36  1  1
  7  8  1  0
  8 10  1  0
  8  9  2  0
  9 32  1  0
  9 34  1  0
 10 11  2  0
 11 12  1  0
 11 17  1  0
 12 13  1  0
 12 35  1  0
 12 33  1  0
 13 14  1  0
 13 37  1  0
 13 38  1  0
 14 15  1  0
 14 39  1  0
 14 40  1  0
 15 16  2  0
 15 17  1  0
 17 18  1  0
 17 41  1  6
 18 19  1  0
 18 42  1  6
 19 24  1  0
 19 20  2  0
 20 21  1  0
 20 43  1  0
 21 22  2  0
 21 44  1  0
 22 23  1  0
 23 24  2  0
 23 45  1  0
 24 46  1  0
M  END
>  <i_m_ct_stereo_status>  (120) 
1

>  <s_m_source_file>  (120) 
/var/tmp/pbs.5076255.sched01/tmpl63by5lx/41imve8rrw.sdf

>  <i_m_source_file_index>  (120) 
7

>  <i_lp_mmshare_version>  (120) 
48012

>  <i_f3d_flags>  (120) 
0

>  <s_epik_input>  (120) 
W0NIM11bQ0gyXVtDSDJdT0MoPU8pQyg9QyhOPTEpW0NIM10pW0NAQEhdKFtDQEBIXShDMTIpQyg9TylbQ0gyXVtDSDJdW0NIMl0yKWMzW2NIXVtjSF1uW2NIXVtjSF0z

>  <s_epik_cmdline>  (120) 
J2VwaWtfcHl0aG9uJywgJy1waHQnLCAnMi4wJywgJy1waCcsICc3LjAnLCAnLXRuJywgJzgnLCAnLW1hJywgJzIwMCcsICctaW1hZScsICc8aW5maWxlLm1hZT4nLCAnLW9tYWUnLCAnPG91dGZpbGUubWFlPic=

>  <r_epik_Ionization_Penalty>  (120) 
0.0186406

>  <r_epik_Ionization_Penalty_Charging>  (120) 
0

>  <r_epik_Ionization_Penalty_Neutral>  (120) 
0.0186406

>  <r_epik_State_Penalty>  (120) 
0.914105

>  <r_epik_Charging_Adjusted_Penalty>  (120) 
0.914105

>  <i_epik_Tot_Q>  (120) 
0

>  <i_epik_Tot_abs_Q>  (120) 
0

>  <s_epik_Chemistry_Notes>  (120) 
This compound has an ester and may undergo hydrolysis at high or low pH. This compound has an imine and may undergo hydrolysis.

>  <s_lp_Force_Field>  (120) 
OPLS3e

>  <r_lp_Energy>  (120) 
23.0673

>  <b_lp_Chiralities_Consistent>  (120) 
1

>  <s_lp_Variant>  (120) 
37:0-5

>  <s_i_glide_gridfile>  (120) 
pfpi4k_grid

>  <i_i_glide_lignum>  (120) 
7

>  <i_i_glide_rotatable_bonds>  (120) 
5

>  <r_i_docking_score>  (120) 
-2.79283

>  <r_i_glide_ligand_efficiency>  (120) 
-0.116368

>  <r_i_glide_ligand_efficiency_sa>  (120) 
-0.335663

>  <r_i_glide_ligand_efficiency_ln>  (120) 
-0.668453

>  <r_i_glide_gscore>  (120) 
-2.79283

>  <r_i_glide_lipo>  (120) 
-0.383496

>  <r_i_glide_hbond>  (120) 
-0.214479

>  <r_i_glide_metal>  (120) 
-0

>  <r_i_glide_rewards>  (120) 
-1.19371

>  <r_i_glide_evdw>  (120) 
-24.8981

>  <r_i_glide_ecoul>  (120) 
-2.63865

>  <r_i_glide_erotb>  (120) 
0.704179

>  <r_i_glide_esite>  (120) 
-0.0646258

>  <r_i_glide_emodel>  (120) 
-32.0351

>  <r_i_glide_energy>  (120) 
-27.5368

>  <r_i_glide_einternal>  (120) 
1.88656

>  <r_i_glide_intrahb_reward>  (120) 
-0

>  <i_i_glide_confnum>  (120) 
3

>  <i_i_glide_posenum>  (120) 
4

>  <r_i_glide_eff_state_penalty>  (120) 
0

>  <ligand_id>  (120) 
37

>  <original_smiles>  (120) 
CCCOC(=O)C1=C(C)N=C2CCCC(=O)C2C1c1ccncc1

>  <smiles>  (120) 
[H]C([H])=C1N=C2C([H])([H])C([H])([H])C([H])([H])C(=O)C2([H])C([H])(c2c([H])c([H])nc([H])c2[H])C1([H])C(=O)OC([H])([H])C([H])([H])C([H])([H])[H]

$$$$
37:5:0
     RDKit          3D

 46 48  0  0  1  0  0  0  0  0999 V2000
    1.9901   -2.9937   -3.8468 C   0  0  0  0  0  0  0  0  0  0  0  0
    3.1887   -2.1052   -3.5550 C   0  0  0  0  0  0  0  0  0  0  0  0
    4.2965   -2.9351   -2.9220 C   0  0  0  0  0  0  0  0  0  0  0  0
    5.1870   -2.0274   -2.3026 O   0  0  0  0  0  0  0  0  0  0  0  0
    5.7670   -2.2822   -1.0943 C   0  0  0  0  0  0  0  0  0  0  0  0
    6.3481   -1.4238   -0.4252 O   0  0  0  0  0  0  0  0  0  0  0  0
    5.6401   -3.7241   -0.5687 C   0  0  1  0  0  0  0  0  0  0  0  0
    6.8540   -4.2325    0.2296 C   0  0  0  0  0  0  0  0  0  0  0  0
    8.2003   -3.5454    0.0389 C   0  0  0  0  0  0  0  0  0  0  0  0
    6.7461   -5.2443    0.9954 N   0  0  0  0  0  0  0  0  0  0  0  0
    5.5156   -5.8819    1.2540 C   0  0  0  0  0  0  0  0  0  0  0  0
    5.5712   -7.1794    2.0535 C   0  0  0  0  0  0  0  0  0  0  0  0
    4.2219   -7.5276    2.7193 C   0  0  0  0  0  0  0  0  0  0  0  0
    3.0562   -7.3923    1.7338 C   0  0  0  0  0  0  0  0  0  0  0  0
    3.0361   -5.9893    1.1458 C   0  0  0  0  0  0  0  0  0  0  0  0
    1.9419   -5.4873    0.8896 O   0  0  0  0  0  0  0  0  0  0  0  0
    4.3345   -5.3132    0.8806 C   0  0  0  0  0  0  0  0  0  0  0  0
    4.3135   -3.9617    0.2002 C   0  0  1  0  0  0  0  0  0  0  0  0
    4.0953   -2.8534    1.2314 C   0  0  0  0  0  0  0  0  0  0  0  0
    4.8657   -2.8124    2.4151 C   0  0  0  0  0  0  0  0  0  0  0  0
    4.6980   -1.7229    3.2926 C   0  0  0  0  0  0  0  0  0  0  0  0
    3.8248   -0.7198    3.0583 N   0  0  0  0  0  0  0  0  0  0  0  0
    3.0855   -0.7650    1.9269 C   0  0  0  0  0  0  0  0  0  0  0  0
    3.2036   -1.8114    0.9824 C   0  0  0  0  0  0  0  0  0  0  0  0
    1.1895   -2.4318   -4.3132 H   0  0  0  0  0  0  0  0  0  0  0  0
    1.5847   -3.4322   -2.9270 H   0  0  0  0  0  0  0  0  0  0  0  0
    2.2634   -3.8233   -4.4999 H   0  0  0  0  0  0  0  0  0  0  0  0
    3.5419   -1.5857   -4.4561 H   0  0  0  0  0  0  0  0  0  0  0  0
    2.8695   -1.3257   -2.8583 H   0  0  0  0  0  0  0  0  0  0  0  0
    3.8297   -3.5749   -2.2081 H   0  0  0  0  0  0  0  0  0  0  0  0
    4.8655   -3.5176   -3.6685 H   0  0  0  0  0  0  0  0  0  0  0  0
    8.4694   -3.5023   -1.0128 H   0  0  0  0  0  0  0  0  0  0  0  0
    6.3386   -7.0898    2.8241 H   0  0  0  0  0  0  0  0  0  0  0  0
    9.0033   -4.0878    0.5462 H   0  0  0  0  0  0  0  0  0  0  0  0
    5.8680   -7.9774    1.3704 H   0  0  0  0  0  0  0  0  0  0  0  0
    5.6327   -4.3809   -1.4356 H   0  0  0  0  0  0  0  0  0  0  0  0
    4.0384   -6.8774    3.5783 H   0  0  0  0  0  0  0  0  0  0  0  0
    4.2538   -8.5453    3.1078 H   0  0  0  0  0  0  0  0  0  0  0  0
    3.1650   -8.1035    0.9121 H   0  0  0  0  0  0  0  0  0  0  0  0
    2.0988   -7.6020    2.2212 H   0  0  0  0  0  0  0  0  0  0  0  0
    8.1316   -2.5277    0.4104 H   0  0  0  0  0  0  0  0  0  0  0  0
    3.4711   -3.9642   -0.4877 H   0  0  0  0  0  0  0  0  0  0  0  0
    5.6103   -3.5573    2.6470 H   0  0  0  0  0  0  0  0  0  0  0  0
    5.3052   -1.6863    4.1843 H   0  0  0  0  0  0  0  0  0  0  0  0
    2.4023    0.0513    1.7544 H   0  0  0  0  0  0  0  0  0  0  0  0
    2.6444   -1.7750    0.0555 H   0  0  0  0  0  0  0  0  0  0  0  0
  1  2  1  0
  1 25  1  0
  1 26  1  0
  1 27  1  0
  2  3  1  0
  2 28  1  0
  2 29  1  0
  3  4  1  0
  3 30  1  0
  3 31  1  0
  4  5  1  0
  5  6  2  0
  5  7  1  0
  7 18  1  0
  7 36  1  6
  7  8  1  0
  8  9  1  0
  8 10  2  0
  9 32  1  0
  9 34  1  0
  9 41  1  0
 10 11  1  0
 11 12  1  0
 11 17  2  0
 12 13  1  0
 12 35  1  0
 12 33  1  0
 13 14  1  0
 13 37  1  0
 13 38  1  0
 14 15  1  0
 14 39  1  0
 14 40  1  0
 15 16  2  0
 15 17  1  0
 17 18  1  0
 18 19  1  0
 18 42  1  6
 19 24  1  0
 19 20  2  0
 20 21  1  0
 20 43  1  0
 21 22  2  0
 21 44  1  0
 22 23  1  0
 23 24  2  0
 23 45  1  0
 24 46  1  0
M  END
>  <i_m_ct_stereo_status>  (121) 
1

>  <s_m_source_file>  (121) 
/var/tmp/pbs.5076255.sched01/tmpl63by5lx/41imve8rrw.sdf

>  <i_m_source_file_index>  (121) 
8

>  <i_lp_mmshare_version>  (121) 
48012

>  <i_f3d_flags>  (121) 
0

>  <s_epik_input>  (121) 
W0NIM11bQ0gyXVtDSDJdT0MoPU8pQyg9QyhOPTEpW0NIM10pW0NAQEhdKFtDQEBIXShDMTIpQyg9TylbQ0gyXVtDSDJdW0NIMl0yKWMzW2NIXVtjSF1uW2NIXVtjSF0z

>  <s_epik_cmdline>  (121) 
J2VwaWtfcHl0aG9uJywgJy1waHQnLCAnMi4wJywgJy1waCcsICc3LjAnLCAnLXRuJywgJzgnLCAnLW1hJywgJzIwMCcsICctaW1hZScsICc8aW5maWxlLm1hZT4nLCAnLW9tYWUnLCAnPG91dGZpbGUubWFlPic=

>  <r_epik_Ionization_Penalty>  (121) 
0.00235777

>  <r_epik_Ionization_Penalty_Charging>  (121) 
0

>  <r_epik_Ionization_Penalty_Neutral>  (121) 
0.00235777

>  <r_epik_State_Penalty>  (121) 
0.914105

>  <r_epik_Charging_Adjusted_Penalty>  (121) 
0.914105

>  <i_epik_Tot_Q>  (121) 
0

>  <i_epik_Tot_abs_Q>  (121) 
0

>  <s_epik_Chemistry_Notes>  (121) 
This compound has an ester and may undergo hydrolysis at high or low pH. This compound has an imine and may undergo hydrolysis.

>  <s_lp_Force_Field>  (121) 
OPLS3e

>  <r_lp_Energy>  (121) 
29.2826

>  <b_lp_Chiralities_Consistent>  (121) 
1

>  <s_lp_Variant>  (121) 
37:0-6

>  <s_i_glide_gridfile>  (121) 
pfpi4k_grid

>  <i_i_glide_lignum>  (121) 
8

>  <i_i_glide_rotatable_bonds>  (121) 
5

>  <r_i_docking_score>  (121) 
-3.75926

>  <r_i_glide_ligand_efficiency>  (121) 
-0.156636

>  <r_i_glide_ligand_efficiency_sa>  (121) 
-0.451816

>  <r_i_glide_ligand_efficiency_ln>  (121) 
-0.899763

>  <r_i_glide_gscore>  (121) 
-3.75926

>  <r_i_glide_lipo>  (121) 
-1.03126

>  <r_i_glide_hbond>  (121) 
-0.169065

>  <r_i_glide_metal>  (121) 
-0

>  <r_i_glide_rewards>  (121) 
-1.34137

>  <r_i_glide_evdw>  (121) 
-27.5645

>  <r_i_glide_ecoul>  (121) 
-3.41427

>  <r_i_glide_erotb>  (121) 
0.704179

>  <r_i_glide_esite>  (121) 
-0.0313791

>  <r_i_glide_emodel>  (121) 
-33.5326

>  <r_i_glide_energy>  (121) 
-30.9788

>  <r_i_glide_einternal>  (121) 
7.90105

>  <r_i_glide_intrahb_reward>  (121) 
-0

>  <i_i_glide_confnum>  (121) 
3

>  <i_i_glide_posenum>  (121) 
28

>  <r_i_glide_eff_state_penalty>  (121) 
0

>  <ligand_id>  (121) 
37

>  <original_smiles>  (121) 
CCCOC(=O)C1=C(C)N=C2CCCC(=O)C2C1c1ccncc1

>  <smiles>  (121) 
[H]c1nc([H])c([H])c(C2([H])C3=C(N=C(C([H])([H])[H])C2([H])C(=O)OC([H])([H])C([H])([H])C([H])([H])[H])C([H])([H])C([H])([H])C([H])([H])C3=O)c1[H]

$$$$
37:5:1
     RDKit          3D

 46 48  0  0  1  0  0  0  0  0999 V2000
    3.0772    0.4636   -4.9905 C   0  0  0  0  0  0  0  0  0  0  0  0
    3.6919   -0.8334   -4.4627 C   0  0  0  0  0  0  0  0  0  0  0  0
    4.0257   -0.7529   -2.9764 C   0  0  0  0  0  0  0  0  0  0  0  0
    4.6060   -1.9747   -2.5609 O   0  0  0  0  0  0  0  0  0  0  0  0
    5.2855   -2.0032   -1.4128 C   0  0  0  0  0  0  0  0  0  0  0  0
    5.5447   -1.0313   -0.7114 O   0  0  0  0  0  0  0  0  0  0  0  0
    5.6776   -3.4174   -0.9531 C   0  0  1  0  0  0  0  0  0  0  0  0
    7.0899   -3.5198   -0.3234 C   0  0  0  0  0  0  0  0  0  0  0  0
    8.1206   -2.4576   -0.6636 C   0  0  0  0  0  0  0  0  0  0  0  0
    7.3974   -4.4787    0.4683 N   0  0  0  0  0  0  0  0  0  0  0  0
    6.4671   -5.4702    0.8412 C   0  0  0  0  0  0  0  0  0  0  0  0
    7.0332   -6.6655    1.6051 C   0  0  0  0  0  0  0  0  0  0  0  0
    5.9641   -7.3959    2.4387 C   0  0  0  0  0  0  0  0  0  0  0  0
    4.6935   -7.6483    1.6270 C   0  0  0  0  0  0  0  0  0  0  0  0
    4.1454   -6.3316    1.0627 C   0  0  0  0  0  0  0  0  0  0  0  0
    2.9501   -6.1630    0.9893 O   0  0  0  0  0  0  0  0  0  0  0  0
    5.1482   -5.3128    0.6243 C   0  0  0  0  0  0  0  0  0  0  0  0
    4.5999   -4.0367   -0.0163 C   0  0  1  0  0  0  0  0  0  0  0  0
    4.1912   -3.0458    1.0783 C   0  0  0  0  0  0  0  0  0  0  0  0
    5.0220   -2.7691    2.1684 C   0  0  0  0  0  0  0  0  0  0  0  0
    4.6638   -1.7856    3.0829 C   0  0  0  0  0  0  0  0  0  0  0  0
    3.5217   -1.0624    2.9748 N   0  0  0  0  0  0  0  0  0  0  0  0
    2.7036   -1.3378    1.9301 C   0  0  0  0  0  0  0  0  0  0  0  0
    2.9937   -2.3005    0.9722 C   0  0  0  0  0  0  0  0  0  0  0  0
    2.8536    0.3607   -6.0525 H   0  0  0  0  0  0  0  0  0  0  0  0
    3.7596    1.3066   -4.8537 H   0  0  0  0  0  0  0  0  0  0  0  0
    2.1495    0.6816   -4.4566 H   0  0  0  0  0  0  0  0  0  0  0  0
    3.0051   -1.6679   -4.6179 H   0  0  0  0  0  0  0  0  0  0  0  0
    4.6000   -1.0525   -5.0200 H   0  0  0  0  0  0  0  0  0  0  0  0
    4.7153    0.0709   -2.8159 H   0  0  0  0  0  0  0  0  0  0  0  0
    3.1326   -0.5466   -2.3840 H   0  0  0  0  0  0  0  0  0  0  0  0
    8.2282   -2.3499   -1.7435 H   0  0  0  0  0  0  0  0  0  0  0  0
    7.8304   -6.3196    2.2611 H   0  0  0  0  0  0  0  0  0  0  0  0
    9.1039   -2.7465   -0.3138 H   0  0  0  0  0  0  0  0  0  0  0  0
    7.4813   -7.3518    0.8871 H   0  0  0  0  0  0  0  0  0  0  0  0
    5.7194   -4.0294   -1.8459 H   0  0  0  0  0  0  0  0  0  0  0  0
    5.7167   -6.8220    3.3350 H   0  0  0  0  0  0  0  0  0  0  0  0
    6.3669   -8.3397    2.8019 H   0  0  0  0  0  0  0  0  0  0  0  0
    4.9019   -8.3235    0.7990 H   0  0  0  0  0  0  0  0  0  0  0  0
    3.9276   -8.1287    2.2414 H   0  0  0  0  0  0  0  0  0  0  0  0
    7.8177   -1.5007   -0.2403 H   0  0  0  0  0  0  0  0  0  0  0  0
    3.7388   -4.3061   -0.6367 H   0  0  0  0  0  0  0  0  0  0  0  0
    5.9805   -3.2807    2.2937 H   0  0  0  0  0  0  0  0  0  0  0  0
    5.3212   -1.5422    3.9014 H   0  0  0  0  0  0  0  0  0  0  0  0
    1.8095   -0.7246    1.8663 H   0  0  0  0  0  0  0  0  0  0  0  0
    2.3257   -2.4393    0.1277 H   0  0  0  0  0  0  0  0  0  0  0  0
  1  2  1  0
  1 25  1  0
  1 26  1  0
  1 27  1  0
  2  3  1  0
  2 28  1  0
  2 29  1  0
  3  4  1  0
  3 30  1  0
  3 31  1  0
  4  5  1  0
  5  6  2  0
  5  7  1  0
  7 18  1  0
  7 36  1  6
  7  8  1  0
  8  9  1  0
  8 10  2  0
  9 32  1  0
  9 34  1  0
  9 41  1  0
 10 11  1  0
 11 12  1  0
 11 17  2  0
 12 13  1  0
 12 35  1  0
 12 33  1  0
 13 14  1  0
 13 37  1  0
 13 38  1  0
 14 15  1  0
 14 39  1  0
 14 40  1  0
 15 16  2  0
 15 17  1  0
 17 18  1  0
 18 19  1  0
 18 42  1  6
 19 24  1  0
 19 20  2  0
 20 21  1  0
 20 43  1  0
 21 22  2  0
 21 44  1  0
 22 23  1  0
 23 24  2  0
 23 45  1  0
 24 46  1  0
M  END
>  <i_m_ct_stereo_status>  (122) 
1

>  <s_m_source_file>  (122) 
/var/tmp/pbs.5076255.sched01/tmpl63by5lx/41imve8rrw.sdf

>  <i_m_source_file_index>  (122) 
8

>  <i_lp_mmshare_version>  (122) 
48012

>  <i_f3d_flags>  (122) 
0

>  <s_epik_input>  (122) 
W0NIM11bQ0gyXVtDSDJdT0MoPU8pQyg9QyhOPTEpW0NIM10pW0NAQEhdKFtDQEBIXShDMTIpQyg9TylbQ0gyXVtDSDJdW0NIMl0yKWMzW2NIXVtjSF1uW2NIXVtjSF0z

>  <s_epik_cmdline>  (122) 
J2VwaWtfcHl0aG9uJywgJy1waHQnLCAnMi4wJywgJy1waCcsICc3LjAnLCAnLXRuJywgJzgnLCAnLW1hJywgJzIwMCcsICctaW1hZScsICc8aW5maWxlLm1hZT4nLCAnLW9tYWUnLCAnPG91dGZpbGUubWFlPic=

>  <r_epik_Ionization_Penalty>  (122) 
0.00235777

>  <r_epik_Ionization_Penalty_Charging>  (122) 
0

>  <r_epik_Ionization_Penalty_Neutral>  (122) 
0.00235777

>  <r_epik_State_Penalty>  (122) 
0.914105

>  <r_epik_Charging_Adjusted_Penalty>  (122) 
0.914105

>  <i_epik_Tot_Q>  (122) 
0

>  <i_epik_Tot_abs_Q>  (122) 
0

>  <s_epik_Chemistry_Notes>  (122) 
This compound has an ester and may undergo hydrolysis at high or low pH. This compound has an imine and may undergo hydrolysis.

>  <s_lp_Force_Field>  (122) 
OPLS3e

>  <r_lp_Energy>  (122) 
29.2826

>  <b_lp_Chiralities_Consistent>  (122) 
1

>  <s_lp_Variant>  (122) 
37:0-6

>  <s_i_glide_gridfile>  (122) 
pfpi4k_grid

>  <i_i_glide_lignum>  (122) 
8

>  <i_i_glide_rotatable_bonds>  (122) 
5

>  <r_i_docking_score>  (122) 
-3.35776

>  <r_i_glide_ligand_efficiency>  (122) 
-0.139907

>  <r_i_glide_ligand_efficiency_sa>  (122) 
-0.403561

>  <r_i_glide_ligand_efficiency_ln>  (122) 
-0.803666

>  <r_i_glide_gscore>  (122) 
-3.35776

>  <r_i_glide_lipo>  (122) 
-0.832613

>  <r_i_glide_hbond>  (122) 
0

>  <r_i_glide_metal>  (122) 
-0

>  <r_i_glide_rewards>  (122) 
-1.5003

>  <r_i_glide_evdw>  (122) 
-31.505

>  <r_i_glide_ecoul>  (122) 
-0.79435

>  <r_i_glide_erotb>  (122) 
0.704179

>  <r_i_glide_esite>  (122) 
-0.0346183

>  <r_i_glide_emodel>  (122) 
-37.8962

>  <r_i_glide_energy>  (122) 
-32.2994

>  <r_i_glide_einternal>  (122) 
1.12483

>  <r_i_glide_intrahb_reward>  (122) 
-0

>  <i_i_glide_confnum>  (122) 
3

>  <i_i_glide_posenum>  (122) 
14

>  <r_i_glide_eff_state_penalty>  (122) 
0

>  <ligand_id>  (122) 
37

>  <original_smiles>  (122) 
CCCOC(=O)C1=C(C)N=C2CCCC(=O)C2C1c1ccncc1

>  <smiles>  (122) 
[H]c1nc([H])c([H])c(C2([H])C3=C(N=C(C([H])([H])[H])C2([H])C(=O)OC([H])([H])C([H])([H])C([H])([H])[H])C([H])([H])C([H])([H])C([H])([H])C3=O)c1[H]

$$$$
37:5:2
     RDKit          3D

 46 48  0  0  1  0  0  0  0  0999 V2000
    3.1407    0.6816   -5.1177 C   0  0  0  0  0  0  0  0  0  0  0  0
    3.6187   -0.6399   -4.5078 C   0  0  0  0  0  0  0  0  0  0  0  0
    3.6732   -0.5661   -2.9914 C   0  0  0  0  0  0  0  0  0  0  0  0
    4.0142   -1.8482   -2.4809 O   0  0  0  0  0  0  0  0  0  0  0  0
    4.8260   -1.9489   -1.4287 C   0  0  0  0  0  0  0  0  0  0  0  0
    5.4263   -0.9942   -0.9046 O   0  0  0  0  0  0  0  0  0  0  0  0
    4.9333   -3.3597   -0.8306 C   0  0  1  0  0  0  0  0  0  0  0  0
    6.3526   -3.7633   -0.4095 C   0  0  0  0  0  0  0  0  0  0  0  0
    7.5375   -3.0460   -1.0525 C   0  0  0  0  0  0  0  0  0  0  0  0
    6.5662   -4.6921    0.4392 N   0  0  0  0  0  0  0  0  0  0  0  0
    5.5014   -5.3614    1.0835 C   0  0  0  0  0  0  0  0  0  0  0  0
    5.8953   -6.5751    1.9314 C   0  0  0  0  0  0  0  0  0  0  0  0
    4.8564   -6.9114    3.0142 C   0  0  0  0  0  0  0  0  0  0  0  0
    3.4310   -6.8996    2.4483 C   0  0  0  0  0  0  0  0  0  0  0  0
    3.1426   -5.5609    1.7778 C   0  0  0  0  0  0  0  0  0  0  0  0
    1.9957   -5.0921    1.8686 O   0  0  0  0  0  0  0  0  0  0  0  0
    4.2381   -4.8868    1.0525 C   0  0  0  0  0  0  0  0  0  0  0  0
    3.9270   -3.5700    0.3329 C   0  0  1  0  0  0  0  0  0  0  0  0
    3.9706   -2.4135    1.3298 C   0  0  0  0  0  0  0  0  0  0  0  0
    5.0319   -2.2776    2.2502 C   0  0  0  0  0  0  0  0  0  0  0  0
    5.0803   -1.1307    3.0632 C   0  0  0  0  0  0  0  0  0  0  0  0
    4.1648   -0.1491    3.0052 N   0  0  0  0  0  0  0  0  0  0  0  0
    3.1496   -0.2760    2.1385 C   0  0  0  0  0  0  0  0  0  0  0  0
    3.0070   -1.3795    1.2811 C   0  0  0  0  0  0  0  0  0  0  0  0
    3.0860    0.6057   -6.2034 H   0  0  0  0  0  0  0  0  0  0  0  0
    3.8137    1.4995   -4.8574 H   0  0  0  0  0  0  0  0  0  0  0  0
    2.1486    0.9381   -4.7427 H   0  0  0  0  0  0  0  0  0  0  0  0
    2.9363   -1.4503   -4.7698 H   0  0  0  0  0  0  0  0  0  0  0  0
    4.6059   -0.9002   -4.8955 H   0  0  0  0  0  0  0  0  0  0  0  0
    4.4034    0.1935   -2.7241 H   0  0  0  0  0  0  0  0  0  0  0  0
    2.7151   -0.2667   -2.5692 H   0  0  0  0  0  0  0  0  0  0  0  0
    7.4665   -3.0746   -2.1421 H   0  0  0  0  0  0  0  0  0  0  0  0
    6.8599   -6.3860    2.4031 H   0  0  0  0  0  0  0  0  0  0  0  0
    8.4794   -3.5289   -0.7961 H   0  0  0  0  0  0  0  0  0  0  0  0
    6.0239   -7.4220    1.2600 H   0  0  0  0  0  0  0  0  0  0  0  0
    4.6610   -4.0478   -1.6263 H   0  0  0  0  0  0  0  0  0  0  0  0
    4.9214   -6.2091    3.8470 H   0  0  0  0  0  0  0  0  0  0  0  0
    5.0759   -7.8899    3.4410 H   0  0  0  0  0  0  0  0  0  0  0  0
    3.3237   -7.6843    1.7001 H   0  0  0  0  0  0  0  0  0  0  0  0
    2.7028   -7.1024    3.2318 H   0  0  0  0  0  0  0  0  0  0  0  0
    7.5585   -1.9997   -0.7346 H   0  0  0  0  0  0  0  0  0  0  0  0
    2.9227   -3.6573   -0.1011 H   0  0  0  0  0  0  0  0  0  0  0  0
    5.8242   -3.0000    2.3132 H   0  0  0  0  0  0  0  0  0  0  0  0
    5.9048   -1.0059    3.7404 H   0  0  0  0  0  0  0  0  0  0  0  0
    2.4424    0.5432    2.0975 H   0  0  0  0  0  0  0  0  0  0  0  0
    2.2143   -1.4166    0.5596 H   0  0  0  0  0  0  0  0  0  0  0  0
  1  2  1  0
  1 25  1  0
  1 26  1  0
  1 27  1  0
  2  3  1  0
  2 28  1  0
  2 29  1  0
  3  4  1  0
  3 30  1  0
  3 31  1  0
  4  5  1  0
  5  6  2  0
  5  7  1  0
  7 18  1  0
  7 36  1  6
  7  8  1  0
  8  9  1  0
  8 10  2  0
  9 32  1  0
  9 34  1  0
  9 41  1  0
 10 11  1  0
 11 12  1  0
 11 17  2  0
 12 13  1  0
 12 35  1  0
 12 33  1  0
 13 14  1  0
 13 37  1  0
 13 38  1  0
 14 15  1  0
 14 39  1  0
 14 40  1  0
 15 16  2  0
 15 17  1  0
 17 18  1  0
 18 19  1  0
 18 42  1  6
 19 24  1  0
 19 20  2  0
 20 21  1  0
 20 43  1  0
 21 22  2  0
 21 44  1  0
 22 23  1  0
 23 24  2  0
 23 45  1  0
 24 46  1  0
M  END
>  <i_m_ct_stereo_status>  (123) 
1

>  <s_m_source_file>  (123) 
/var/tmp/pbs.5076255.sched01/tmpl63by5lx/41imve8rrw.sdf

>  <i_m_source_file_index>  (123) 
8

>  <i_lp_mmshare_version>  (123) 
48012

>  <i_f3d_flags>  (123) 
0

>  <s_epik_input>  (123) 
W0NIM11bQ0gyXVtDSDJdT0MoPU8pQyg9QyhOPTEpW0NIM10pW0NAQEhdKFtDQEBIXShDMTIpQyg9TylbQ0gyXVtDSDJdW0NIMl0yKWMzW2NIXVtjSF1uW2NIXVtjSF0z

>  <s_epik_cmdline>  (123) 
J2VwaWtfcHl0aG9uJywgJy1waHQnLCAnMi4wJywgJy1waCcsICc3LjAnLCAnLXRuJywgJzgnLCAnLW1hJywgJzIwMCcsICctaW1hZScsICc8aW5maWxlLm1hZT4nLCAnLW9tYWUnLCAnPG91dGZpbGUubWFlPic=

>  <r_epik_Ionization_Penalty>  (123) 
0.00235777

>  <r_epik_Ionization_Penalty_Charging>  (123) 
0

>  <r_epik_Ionization_Penalty_Neutral>  (123) 
0.00235777

>  <r_epik_State_Penalty>  (123) 
0.914105

>  <r_epik_Charging_Adjusted_Penalty>  (123) 
0.914105

>  <i_epik_Tot_Q>  (123) 
0

>  <i_epik_Tot_abs_Q>  (123) 
0

>  <s_epik_Chemistry_Notes>  (123) 
This compound has an ester and may undergo hydrolysis at high or low pH. This compound has an imine and may undergo hydrolysis.

>  <s_lp_Force_Field>  (123) 
OPLS3e

>  <r_lp_Energy>  (123) 
29.2826

>  <b_lp_Chiralities_Consistent>  (123) 
1

>  <s_lp_Variant>  (123) 
37:0-6

>  <s_i_glide_gridfile>  (123) 
pfpi4k_grid

>  <i_i_glide_lignum>  (123) 
8

>  <i_i_glide_rotatable_bonds>  (123) 
5

>  <r_i_docking_score>  (123) 
-3.09124

>  <r_i_glide_ligand_efficiency>  (123) 
-0.128802

>  <r_i_glide_ligand_efficiency_sa>  (123) 
-0.371529

>  <r_i_glide_ligand_efficiency_ln>  (123) 
-0.739877

>  <r_i_glide_gscore>  (123) 
-3.09124

>  <r_i_glide_lipo>  (123) 
-0.793506

>  <r_i_glide_hbond>  (123) 
-0.00623719

>  <r_i_glide_metal>  (123) 
-0

>  <r_i_glide_rewards>  (123) 
-1.29346

>  <r_i_glide_evdw>  (123) 
-29.0589

>  <r_i_glide_ecoul>  (123) 
-1.45314

>  <r_i_glide_erotb>  (123) 
0.704179

>  <r_i_glide_esite>  (123) 
-0.0313001

>  <r_i_glide_emodel>  (123) 
-35.5471

>  <r_i_glide_energy>  (123) 
-30.512

>  <r_i_glide_einternal>  (123) 
1.22662

>  <r_i_glide_intrahb_reward>  (123) 
-0

>  <i_i_glide_confnum>  (123) 
6

>  <i_i_glide_posenum>  (123) 
1

>  <r_i_glide_eff_state_penalty>  (123) 
0

>  <ligand_id>  (123) 
37

>  <original_smiles>  (123) 
CCCOC(=O)C1=C(C)N=C2CCCC(=O)C2C1c1ccncc1

>  <smiles>  (123) 
[H]c1nc([H])c([H])c(C2([H])C3=C(N=C(C([H])([H])[H])C2([H])C(=O)OC([H])([H])C([H])([H])C([H])([H])[H])C([H])([H])C([H])([H])C([H])([H])C3=O)c1[H]

$$$$
37:6:0
     RDKit          3D

 46 48  0  0  1  0  0  0  0  0999 V2000
    3.2158    0.0796    1.1631 C   0  0  0  0  0  0  0  0  0  0  0  0
    3.3387   -0.2165    2.6633 C   0  0  0  0  0  0  0  0  0  0  0  0
    2.4673   -1.3941    3.1074 C   0  0  0  0  0  0  0  0  0  0  0  0
    2.9742   -2.5792    2.5188 O   0  0  0  0  0  0  0  0  0  0  0  0
    2.6537   -3.7691    3.0372 C   0  0  0  0  0  0  0  0  0  0  0  0
    1.9457   -3.9407    4.0318 O   0  0  0  0  0  0  0  0  0  0  0  0
    3.2654   -4.9372    2.2408 C   0  0  2  0  0  0  0  0  0  0  0  0
    2.4344   -5.1122    0.9650 C   0  0  0  0  0  0  0  0  0  0  0  0
    2.8983   -4.3230   -0.2403 C   0  0  0  0  0  0  0  0  0  0  0  0
    1.4092   -5.8744    0.9166 N   0  0  0  0  0  0  0  0  0  0  0  0
    1.0386   -6.6775    2.0126 C   0  0  0  0  0  0  0  0  0  0  0  0
   -0.3190   -7.3407    1.9317 C   0  0  0  0  0  0  0  0  0  0  0  0
   -0.8651   -7.7214    3.3150 C   0  0  0  0  0  0  0  0  0  0  0  0
    0.1773   -8.4941    4.1372 C   0  0  0  0  0  0  0  0  0  0  0  0
    1.5054   -7.7370    4.2033 C   0  0  0  0  0  0  0  0  0  0  0  0
    2.2284   -7.8934    5.1885 O   0  0  0  0  0  0  0  0  0  0  0  0
    1.8820   -6.8775    3.0576 C   0  0  0  0  0  0  0  0  0  0  0  0
    3.2787   -6.2666    3.0390 C   0  0  1  0  0  0  0  0  0  0  0  0
    4.2923   -7.2378    2.4325 C   0  0  0  0  0  0  0  0  0  0  0  0
    3.8931   -8.2518    1.5325 C   0  0  0  0  0  0  0  0  0  0  0  0
    4.8590   -9.1075    0.9982 C   0  0  0  0  0  0  0  0  0  0  0  0
    6.1738   -9.0231    1.2843 N   0  0  0  0  0  0  0  0  0  0  0  0
    6.5642   -8.0556    2.1382 C   0  0  0  0  0  0  0  0  0  0  0  0
    5.6671   -7.1449    2.7332 C   0  0  0  0  0  0  0  0  0  0  0  0
    3.8466    0.9225    0.8795 H   0  0  0  0  0  0  0  0  0  0  0  0
    2.1874    0.3260    0.8956 H   0  0  0  0  0  0  0  0  0  0  0  0
    3.5158   -0.7777    0.5592 H   0  0  0  0  0  0  0  0  0  0  0  0
    4.3812   -0.4166    2.9180 H   0  0  0  0  0  0  0  0  0  0  0  0
    3.0498    0.6719    3.2254 H   0  0  0  0  0  0  0  0  0  0  0  0
    2.4920   -1.4703    4.1944 H   0  0  0  0  0  0  0  0  0  0  0  0
    1.4273   -1.2490    2.8147 H   0  0  0  0  0  0  0  0  0  0  0  0
    3.9201   -4.5889   -0.5114 H   0  0  0  0  0  0  0  0  0  0  0  0
   -0.2095   -8.2352    1.3198 H   0  0  0  0  0  0  0  0  0  0  0  0
    2.8646   -3.2563   -0.0316 H   0  0  0  0  0  0  0  0  0  0  0  0
   -0.9876   -6.6783    1.3989 H   0  0  0  0  0  0  0  0  0  0  0  0
    4.2897   -4.6639    1.9821 H   0  0  0  0  0  0  0  0  0  0  0  0
   -1.7728   -8.3171    3.2061 H   0  0  0  0  0  0  0  0  0  0  0  0
   -1.1419   -6.8173    3.8550 H   0  0  0  0  0  0  0  0  0  0  0  0
   -0.1966   -8.6871    5.1431 H   0  0  0  0  0  0  0  0  0  0  0  0
    0.3625   -9.4688    3.6865 H   0  0  0  0  0  0  0  0  0  0  0  0
    2.2566   -4.5110   -1.1006 H   0  0  0  0  0  0  0  0  0  0  0  0
    3.5913   -6.0658    4.0683 H   0  0  0  0  0  0  0  0  0  0  0  0
    2.8691   -8.3961    1.2269 H   0  0  0  0  0  0  0  0  0  0  0  0
    4.5327   -9.8568    0.3007 H   0  0  0  0  0  0  0  0  0  0  0  0
    7.6216   -8.0136    2.3443 H   0  0  0  0  0  0  0  0  0  0  0  0
    6.0358   -6.3875    3.4074 H   0  0  0  0  0  0  0  0  0  0  0  0
  1  2  1  0
  1 25  1  0
  1 26  1  0
  1 27  1  0
  2  3  1  0
  2 28  1  0
  2 29  1  0
  3  4  1  0
  3 30  1  0
  3 31  1  0
  4  5  1  0
  5  6  2  0
  5  7  1  0
  7 18  1  0
  7 36  1  6
  7  8  1  0
  8  9  1  0
  8 10  2  0
  9 32  1  0
  9 34  1  0
  9 41  1  0
 10 11  1  0
 11 12  1  0
 11 17  2  0
 12 13  1  0
 12 35  1  0
 12 33  1  0
 13 14  1  0
 13 37  1  0
 13 38  1  0
 14 15  1  0
 14 39  1  0
 14 40  1  0
 15 16  2  0
 15 17  1  0
 17 18  1  0
 18 19  1  0
 18 42  1  1
 19 24  1  0
 19 20  2  0
 20 21  1  0
 20 43  1  0
 21 22  2  0
 21 44  1  0
 22 23  1  0
 23 24  2  0
 23 45  1  0
 24 46  1  0
M  END
>  <i_m_ct_stereo_status>  (124) 
1

>  <s_m_source_file>  (124) 
/var/tmp/pbs.5076255.sched01/tmpl63by5lx/41imve8rrw.sdf

>  <i_m_source_file_index>  (124) 
9

>  <i_lp_mmshare_version>  (124) 
48012

>  <i_f3d_flags>  (124) 
0

>  <s_epik_input>  (124) 
W0NIM11bQ0gyXVtDSDJdT0MoPU8pQyg9QyhOPTEpW0NIM10pW0NAQEhdKFtDQEBIXShDMTIpQyg9TylbQ0gyXVtDSDJdW0NIMl0yKWMzW2NIXVtjSF1uW2NIXVtjSF0z

>  <s_epik_cmdline>  (124) 
J2VwaWtfcHl0aG9uJywgJy1waHQnLCAnMi4wJywgJy1waCcsICc3LjAnLCAnLXRuJywgJzgnLCAnLW1hJywgJzIwMCcsICctaW1hZScsICc8aW5maWxlLm1hZT4nLCAnLW9tYWUnLCAnPG91dGZpbGUubWFlPic=

>  <r_epik_Ionization_Penalty>  (124) 
0.00235777

>  <r_epik_Ionization_Penalty_Charging>  (124) 
0

>  <r_epik_Ionization_Penalty_Neutral>  (124) 
0.00235777

>  <r_epik_State_Penalty>  (124) 
0.914105

>  <r_epik_Charging_Adjusted_Penalty>  (124) 
0.914105

>  <i_epik_Tot_Q>  (124) 
0

>  <i_epik_Tot_abs_Q>  (124) 
0

>  <s_epik_Chemistry_Notes>  (124) 
This compound has an ester and may undergo hydrolysis at high or low pH. This compound has an imine and may undergo hydrolysis.

>  <s_lp_Force_Field>  (124) 
OPLS3e

>  <r_lp_Energy>  (124) 
25.7121

>  <b_lp_Chiralities_Consistent>  (124) 
1

>  <s_lp_Variant>  (124) 
37:0-7

>  <s_i_glide_gridfile>  (124) 
pfpi4k_grid

>  <i_i_glide_lignum>  (124) 
9

>  <i_i_glide_rotatable_bonds>  (124) 
5

>  <r_i_docking_score>  (124) 
-2.49861

>  <r_i_glide_ligand_efficiency>  (124) 
-0.104109

>  <r_i_glide_ligand_efficiency_sa>  (124) 
-0.300302

>  <r_i_glide_ligand_efficiency_ln>  (124) 
-0.598032

>  <r_i_glide_gscore>  (124) 
-2.49861

>  <r_i_glide_lipo>  (124) 
-0.0845708

>  <r_i_glide_hbond>  (124) 
-0.155363

>  <r_i_glide_metal>  (124) 
-0

>  <r_i_glide_rewards>  (124) 
-1.18371

>  <r_i_glide_evdw>  (124) 
-21.8802

>  <r_i_glide_ecoul>  (124) 
-4.2538

>  <r_i_glide_erotb>  (124) 
0.704179

>  <r_i_glide_esite>  (124) 
-0.0470661

>  <r_i_glide_emodel>  (124) 
-29.2042

>  <r_i_glide_energy>  (124) 
-26.134

>  <r_i_glide_einternal>  (124) 
1.96537

>  <r_i_glide_intrahb_reward>  (124) 
-0

>  <i_i_glide_confnum>  (124) 
3

>  <i_i_glide_posenum>  (124) 
15

>  <r_i_glide_eff_state_penalty>  (124) 
0

>  <ligand_id>  (124) 
37

>  <original_smiles>  (124) 
CCCOC(=O)C1=C(C)N=C2CCCC(=O)C2C1c1ccncc1

>  <smiles>  (124) 
[H]c1nc([H])c([H])c(C2([H])C3=C(N=C(C([H])([H])[H])C2([H])C(=O)OC([H])([H])C([H])([H])C([H])([H])[H])C([H])([H])C([H])([H])C([H])([H])C3=O)c1[H]

$$$$
37:6:1
     RDKit          3D

 46 48  0  0  1  0  0  0  0  0999 V2000
    1.0841    0.6262    2.5641 C   0  0  0  0  0  0  0  0  0  0  0  0
    1.6807   -0.6884    2.0545 C   0  0  0  0  0  0  0  0  0  0  0  0
    2.6321   -1.3293    3.0684 C   0  0  0  0  0  0  0  0  0  0  0  0
    3.1428   -2.5381    2.5262 O   0  0  0  0  0  0  0  0  0  0  0  0
    2.6977   -3.7213    2.9759 C   0  0  0  0  0  0  0  0  0  0  0  0
    1.8885   -3.8734    3.8938 O   0  0  0  0  0  0  0  0  0  0  0  0
    3.2938   -4.9095    2.1990 C   0  0  2  0  0  0  0  0  0  0  0  0
    2.4382   -5.1072    0.9492 C   0  0  0  0  0  0  0  0  0  0  0  0
    2.8781   -4.3492   -0.2796 C   0  0  0  0  0  0  0  0  0  0  0  0
    1.4087   -5.8700    0.9354 N   0  0  0  0  0  0  0  0  0  0  0  0
    1.0522   -6.6431    2.0567 C   0  0  0  0  0  0  0  0  0  0  0  0
   -0.3118   -7.3025    2.0164 C   0  0  0  0  0  0  0  0  0  0  0  0
   -0.8357   -7.6401    3.4200 C   0  0  0  0  0  0  0  0  0  0  0  0
    0.2169   -8.3959    4.2445 C   0  0  0  0  0  0  0  0  0  0  0  0
    1.5507   -7.6466    4.2662 C   0  0  0  0  0  0  0  0  0  0  0  0
    2.2906   -7.7798    5.2408 O   0  0  0  0  0  0  0  0  0  0  0  0
    1.9108   -6.8192    3.0923 C   0  0  0  0  0  0  0  0  0  0  0  0
    3.3104   -6.2155    3.0332 C   0  0  1  0  0  0  0  0  0  0  0  0
    4.3095   -7.2064    2.4367 C   0  0  0  0  0  0  0  0  0  0  0  0
    3.8928   -8.2257    1.5543 C   0  0  0  0  0  0  0  0  0  0  0  0
    4.8435   -9.0967    1.0209 C   0  0  0  0  0  0  0  0  0  0  0  0
    6.1627   -9.0200    1.2950 N   0  0  0  0  0  0  0  0  0  0  0  0
    6.5685   -8.0492    2.1352 C   0  0  0  0  0  0  0  0  0  0  0  0
    5.6866   -7.1208    2.7262 C   0  0  0  0  0  0  0  0  0  0  0  0
    0.4065    1.0572    1.8243 H   0  0  0  0  0  0  0  0  0  0  0  0
    1.8660    1.3602    2.7657 H   0  0  0  0  0  0  0  0  0  0  0  0
    0.5212    0.4710    3.4858 H   0  0  0  0  0  0  0  0  0  0  0  0
    0.8735   -1.3809    1.8108 H   0  0  0  0  0  0  0  0  0  0  0  0
    2.2139   -0.5022    1.1207 H   0  0  0  0  0  0  0  0  0  0  0  0
    3.4717   -0.6679    3.2728 H   0  0  0  0  0  0  0  0  0  0  0  0
    2.1193   -1.4812    4.0187 H   0  0  0  0  0  0  0  0  0  0  0  0
    3.8907   -4.6324   -0.5718 H   0  0  0  0  0  0  0  0  0  0  0  0
   -0.2176   -8.2159    1.4294 H   0  0  0  0  0  0  0  0  0  0  0  0
    2.8559   -3.2768   -0.0947 H   0  0  0  0  0  0  0  0  0  0  0  0
   -0.9898   -6.6541    1.4772 H   0  0  0  0  0  0  0  0  0  0  0  0
    4.3144   -4.6479    1.9114 H   0  0  0  0  0  0  0  0  0  0  0  0
   -1.7482   -8.2338    3.3446 H   0  0  0  0  0  0  0  0  0  0  0  0
   -1.0989   -6.7188    3.9387 H   0  0  0  0  0  0  0  0  0  0  0  0
   -0.1382   -8.5562    5.2624 H   0  0  0  0  0  0  0  0  0  0  0  0
    0.3899   -9.3831    3.8173 H   0  0  0  0  0  0  0  0  0  0  0  0
    2.2078   -4.5582   -1.1126 H   0  0  0  0  0  0  0  0  0  0  0  0
    3.6364   -5.9823    4.0493 H   0  0  0  0  0  0  0  0  0  0  0  0
    2.8639   -8.3639    1.2566 H   0  0  0  0  0  0  0  0  0  0  0  0
    4.5024   -9.8544    0.3359 H   0  0  0  0  0  0  0  0  0  0  0  0
    7.6266   -8.0175    2.3376 H   0  0  0  0  0  0  0  0  0  0  0  0
    6.0669   -6.3581    3.3875 H   0  0  0  0  0  0  0  0  0  0  0  0
  1  2  1  0
  1 25  1  0
  1 26  1  0
  1 27  1  0
  2  3  1  0
  2 28  1  0
  2 29  1  0
  3  4  1  0
  3 30  1  0
  3 31  1  0
  4  5  1  0
  5  6  2  0
  5  7  1  0
  7 18  1  0
  7 36  1  6
  7  8  1  0
  8  9  1  0
  8 10  2  0
  9 32  1  0
  9 34  1  0
  9 41  1  0
 10 11  1  0
 11 12  1  0
 11 17  2  0
 12 13  1  0
 12 35  1  0
 12 33  1  0
 13 14  1  0
 13 37  1  0
 13 38  1  0
 14 15  1  0
 14 39  1  0
 14 40  1  0
 15 16  2  0
 15 17  1  0
 17 18  1  0
 18 19  1  0
 18 42  1  1
 19 24  1  0
 19 20  2  0
 20 21  1  0
 20 43  1  0
 21 22  2  0
 21 44  1  0
 22 23  1  0
 23 24  2  0
 23 45  1  0
 24 46  1  0
M  END
>  <i_m_ct_stereo_status>  (125) 
1

>  <s_m_source_file>  (125) 
/var/tmp/pbs.5076255.sched01/tmpl63by5lx/41imve8rrw.sdf

>  <i_m_source_file_index>  (125) 
9

>  <i_lp_mmshare_version>  (125) 
48012

>  <i_f3d_flags>  (125) 
0

>  <s_epik_input>  (125) 
W0NIM11bQ0gyXVtDSDJdT0MoPU8pQyg9QyhOPTEpW0NIM10pW0NAQEhdKFtDQEBIXShDMTIpQyg9TylbQ0gyXVtDSDJdW0NIMl0yKWMzW2NIXVtjSF1uW2NIXVtjSF0z

>  <s_epik_cmdline>  (125) 
J2VwaWtfcHl0aG9uJywgJy1waHQnLCAnMi4wJywgJy1waCcsICc3LjAnLCAnLXRuJywgJzgnLCAnLW1hJywgJzIwMCcsICctaW1hZScsICc8aW5maWxlLm1hZT4nLCAnLW9tYWUnLCAnPG91dGZpbGUubWFlPic=

>  <r_epik_Ionization_Penalty>  (125) 
0.00235777

>  <r_epik_Ionization_Penalty_Charging>  (125) 
0

>  <r_epik_Ionization_Penalty_Neutral>  (125) 
0.00235777

>  <r_epik_State_Penalty>  (125) 
0.914105

>  <r_epik_Charging_Adjusted_Penalty>  (125) 
0.914105

>  <i_epik_Tot_Q>  (125) 
0

>  <i_epik_Tot_abs_Q>  (125) 
0

>  <s_epik_Chemistry_Notes>  (125) 
This compound has an ester and may undergo hydrolysis at high or low pH. This compound has an imine and may undergo hydrolysis.

>  <s_lp_Force_Field>  (125) 
OPLS3e

>  <r_lp_Energy>  (125) 
25.7121

>  <b_lp_Chiralities_Consistent>  (125) 
1

>  <s_lp_Variant>  (125) 
37:0-7

>  <s_i_glide_gridfile>  (125) 
pfpi4k_grid

>  <i_i_glide_lignum>  (125) 
9

>  <i_i_glide_rotatable_bonds>  (125) 
5

>  <r_i_docking_score>  (125) 
-2.49135

>  <r_i_glide_ligand_efficiency>  (125) 
-0.103806

>  <r_i_glide_ligand_efficiency_sa>  (125) 
-0.299429

>  <r_i_glide_ligand_efficiency_ln>  (125) 
-0.596294

>  <r_i_glide_gscore>  (125) 
-2.49135

>  <r_i_glide_lipo>  (125) 
-0.080013

>  <r_i_glide_hbond>  (125) 
-0.154676

>  <r_i_glide_metal>  (125) 
-0

>  <r_i_glide_rewards>  (125) 
-1.18371

>  <r_i_glide_evdw>  (125) 
-21.6054

>  <r_i_glide_ecoul>  (125) 
-4.33757

>  <r_i_glide_erotb>  (125) 
0.704179

>  <r_i_glide_esite>  (125) 
-0.0462231

>  <r_i_glide_emodel>  (125) 
-29.3737

>  <r_i_glide_energy>  (125) 
-25.943

>  <r_i_glide_einternal>  (125) 
1.22095

>  <r_i_glide_intrahb_reward>  (125) 
-0

>  <i_i_glide_confnum>  (125) 
3

>  <i_i_glide_posenum>  (125) 
34

>  <r_i_glide_eff_state_penalty>  (125) 
0

>  <ligand_id>  (125) 
37

>  <original_smiles>  (125) 
CCCOC(=O)C1=C(C)N=C2CCCC(=O)C2C1c1ccncc1

>  <smiles>  (125) 
[H]c1nc([H])c([H])c(C2([H])C3=C(N=C(C([H])([H])[H])C2([H])C(=O)OC([H])([H])C([H])([H])C([H])([H])[H])C([H])([H])C([H])([H])C([H])([H])C3=O)c1[H]

$$$$
37:6:2
     RDKit          3D

 46 48  0  0  1  0  0  0  0  0999 V2000
    4.1041   -3.0738   -2.1804 C   0  0  0  0  0  0  0  0  0  0  0  0
    4.3739   -4.0706   -1.0482 C   0  0  0  0  0  0  0  0  0  0  0  0
    3.1077   -4.3879   -0.2481 C   0  0  0  0  0  0  0  0  0  0  0  0
    3.4305   -5.3214    0.7718 O   0  0  0  0  0  0  0  0  0  0  0  0
    2.4722   -6.1062    1.2798 C   0  0  0  0  0  0  0  0  0  0  0  0
    1.3081   -6.1626    0.8673 O   0  0  0  0  0  0  0  0  0  0  0  0
    2.9733   -6.9407    2.4738 C   0  0  2  0  0  0  0  0  0  0  0  0
    3.0773   -8.4008    2.0226 C   0  0  0  0  0  0  0  0  0  0  0  0
    4.4273   -8.8207    1.4959 C   0  0  0  0  0  0  0  0  0  0  0  0
    2.1065   -9.2246    2.1325 N   0  0  0  0  0  0  0  0  0  0  0  0
    0.9050   -8.8600    2.7721 C   0  0  0  0  0  0  0  0  0  0  0  0
   -0.2573   -9.8232    2.6326 C   0  0  0  0  0  0  0  0  0  0  0  0
   -1.6052   -9.1142    2.8027 C   0  0  0  0  0  0  0  0  0  0  0  0
   -1.6422   -8.2601    4.0764 C   0  0  0  0  0  0  0  0  0  0  0  0
   -0.4499   -7.3150    4.1536 C   0  0  0  0  0  0  0  0  0  0  0  0
   -0.5819   -6.2542    4.7651 O   0  0  0  0  0  0  0  0  0  0  0  0
    0.8151   -7.7200    3.5049 C   0  0  0  0  0  0  0  0  0  0  0  0
    2.0295   -6.8213    3.6948 C   0  0  1  0  0  0  0  0  0  0  0  0
    2.7665   -7.1783    4.9883 C   0  0  0  0  0  0  0  0  0  0  0  0
    2.9306   -8.5236    5.3909 C   0  0  0  0  0  0  0  0  0  0  0  0
    3.6153   -8.8126    6.5775 C   0  0  0  0  0  0  0  0  0  0  0  0
    4.1304   -7.8541    7.3779 N   0  0  0  0  0  0  0  0  0  0  0  0
    3.9768   -6.5691    7.0100 C   0  0  0  0  0  0  0  0  0  0  0  0
    3.3056   -6.1835    5.8317 C   0  0  0  0  0  0  0  0  0  0  0  0
    5.0139   -2.8694   -2.7469 H   0  0  0  0  0  0  0  0  0  0  0  0
    3.7287   -2.1260   -1.7902 H   0  0  0  0  0  0  0  0  0  0  0  0
    3.3588   -3.4653   -2.8753 H   0  0  0  0  0  0  0  0  0  0  0  0
    4.7863   -4.9899   -1.4706 H   0  0  0  0  0  0  0  0  0  0  0  0
    5.1372   -3.6675   -0.3818 H   0  0  0  0  0  0  0  0  0  0  0  0
    2.7119   -3.4865    0.2185 H   0  0  0  0  0  0  0  0  0  0  0  0
    2.3323   -4.7688   -0.9119 H   0  0  0  0  0  0  0  0  0  0  0  0
    5.1984   -8.6441    2.2415 H   0  0  0  0  0  0  0  0  0  0  0  0
   -0.1385  -10.5751    3.4112 H   0  0  0  0  0  0  0  0  0  0  0  0
    4.6824   -8.2643    0.5993 H   0  0  0  0  0  0  0  0  0  0  0  0
   -0.2093  -10.3511    1.6812 H   0  0  0  0  0  0  0  0  0  0  0  0
    3.9631   -6.5739    2.7517 H   0  0  0  0  0  0  0  0  0  0  0  0
   -2.4033   -9.8552    2.8288 H   0  0  0  0  0  0  0  0  0  0  0  0
   -1.7918   -8.4752    1.9410 H   0  0  0  0  0  0  0  0  0  0  0  0
   -2.5723   -7.6960    4.1160 H   0  0  0  0  0  0  0  0  0  0  0  0
   -1.6125   -8.9000    4.9571 H   0  0  0  0  0  0  0  0  0  0  0  0
    4.4378   -9.8819    1.2582 H   0  0  0  0  0  0  0  0  0  0  0  0
    1.6868   -5.7841    3.7625 H   0  0  0  0  0  0  0  0  0  0  0  0
    2.5511   -9.3471    4.8038 H   0  0  0  0  0  0  0  0  0  0  0  0
    3.7439   -9.8436    6.8750 H   0  0  0  0  0  0  0  0  0  0  0  0
    4.3986   -5.8383    7.6846 H   0  0  0  0  0  0  0  0  0  0  0  0
    3.2179   -5.1368    5.5902 H   0  0  0  0  0  0  0  0  0  0  0  0
  1  2  1  0
  1 25  1  0
  1 26  1  0
  1 27  1  0
  2  3  1  0
  2 28  1  0
  2 29  1  0
  3  4  1  0
  3 30  1  0
  3 31  1  0
  4  5  1  0
  5  6  2  0
  5  7  1  0
  7 18  1  0
  7 36  1  1
  7  8  1  0
  8  9  1  0
  8 10  2  0
  9 32  1  0
  9 34  1  0
  9 41  1  0
 10 11  1  0
 11 12  1  0
 11 17  2  0
 12 13  1  0
 12 35  1  0
 12 33  1  0
 13 14  1  0
 13 37  1  0
 13 38  1  0
 14 15  1  0
 14 39  1  0
 14 40  1  0
 15 16  2  0
 15 17  1  0
 17 18  1  0
 18 19  1  0
 18 42  1  1
 19 24  1  0
 19 20  2  0
 20 21  1  0
 20 43  1  0
 21 22  2  0
 21 44  1  0
 22 23  1  0
 23 24  2  0
 23 45  1  0
 24 46  1  0
M  END
>  <i_m_ct_stereo_status>  (126) 
1

>  <s_m_source_file>  (126) 
/var/tmp/pbs.5076255.sched01/tmpl63by5lx/41imve8rrw.sdf

>  <i_m_source_file_index>  (126) 
9

>  <i_lp_mmshare_version>  (126) 
48012

>  <i_f3d_flags>  (126) 
0

>  <s_epik_input>  (126) 
W0NIM11bQ0gyXVtDSDJdT0MoPU8pQyg9QyhOPTEpW0NIM10pW0NAQEhdKFtDQEBIXShDMTIpQyg9TylbQ0gyXVtDSDJdW0NIMl0yKWMzW2NIXVtjSF1uW2NIXVtjSF0z

>  <s_epik_cmdline>  (126) 
J2VwaWtfcHl0aG9uJywgJy1waHQnLCAnMi4wJywgJy1waCcsICc3LjAnLCAnLXRuJywgJzgnLCAnLW1hJywgJzIwMCcsICctaW1hZScsICc8aW5maWxlLm1hZT4nLCAnLW9tYWUnLCAnPG91dGZpbGUubWFlPic=

>  <r_epik_Ionization_Penalty>  (126) 
0.00235777

>  <r_epik_Ionization_Penalty_Charging>  (126) 
0

>  <r_epik_Ionization_Penalty_Neutral>  (126) 
0.00235777

>  <r_epik_State_Penalty>  (126) 
0.914105

>  <r_epik_Charging_Adjusted_Penalty>  (126) 
0.914105

>  <i_epik_Tot_Q>  (126) 
0

>  <i_epik_Tot_abs_Q>  (126) 
0

>  <s_epik_Chemistry_Notes>  (126) 
This compound has an ester and may undergo hydrolysis at high or low pH. This compound has an imine and may undergo hydrolysis.

>  <s_lp_Force_Field>  (126) 
OPLS3e

>  <r_lp_Energy>  (126) 
25.7121

>  <b_lp_Chiralities_Consistent>  (126) 
1

>  <s_lp_Variant>  (126) 
37:0-7

>  <s_i_glide_gridfile>  (126) 
pfpi4k_grid

>  <i_i_glide_lignum>  (126) 
9

>  <i_i_glide_rotatable_bonds>  (126) 
5

>  <r_i_docking_score>  (126) 
-2.38015

>  <r_i_glide_ligand_efficiency>  (126) 
-0.0991731

>  <r_i_glide_ligand_efficiency_sa>  (126) 
-0.286065

>  <r_i_glide_ligand_efficiency_ln>  (126) 
-0.56968

>  <r_i_glide_gscore>  (126) 
-2.38015

>  <r_i_glide_lipo>  (126) 
-0.0263458

>  <r_i_glide_hbond>  (126) 
-0.151036

>  <r_i_glide_metal>  (126) 
-0

>  <r_i_glide_rewards>  (126) 
-1.18371

>  <r_i_glide_evdw>  (126) 
-24.2323

>  <r_i_glide_ecoul>  (126) 
-2.92554

>  <r_i_glide_erotb>  (126) 
0.704179

>  <r_i_glide_esite>  (126) 
-0.0728001

>  <r_i_glide_emodel>  (126) 
-30.0223

>  <r_i_glide_energy>  (126) 
-27.1578

>  <r_i_glide_einternal>  (126) 
1.81407

>  <r_i_glide_intrahb_reward>  (126) 
-0

>  <i_i_glide_confnum>  (126) 
3

>  <i_i_glide_posenum>  (126) 
30

>  <r_i_glide_eff_state_penalty>  (126) 
0

>  <ligand_id>  (126) 
37

>  <original_smiles>  (126) 
CCCOC(=O)C1=C(C)N=C2CCCC(=O)C2C1c1ccncc1

>  <smiles>  (126) 
[H]c1nc([H])c([H])c(C2([H])C3=C(N=C(C([H])([H])[H])C2([H])C(=O)OC([H])([H])C([H])([H])C([H])([H])[H])C([H])([H])C([H])([H])C([H])([H])C3=O)c1[H]

$$$$
38:0:0
     RDKit          3D

 33 37  0  0  1  0  0  0  0  0999 V2000
    3.3331   -0.9683   -2.7072 C   0  0  0  0  0  0  0  0  0  0  0  0
    4.7049   -1.3406   -2.6046 O   0  0  0  0  0  0  0  0  0  0  0  0
    4.9659   -2.2976   -1.5615 C   0  0  2  0  0  0  0  0  0  0  0  0
    3.7896   -3.5590   -1.3109 C   0  0  2  0  0  0  0  0  0  0  0  0
    2.3115   -3.5634   -0.9366 C   0  0  0  0  0  0  0  0  0  0  0  0
    2.1751   -4.8234   -0.2074 O   0  0  0  0  0  0  0  0  0  0  0  0
    3.4156   -5.3605    0.3181 C   0  0  0  0  0  0  0  0  0  0  0  0
    4.2968   -4.1321    0.2164 C   0  0  1  0  0  0  0  0  0  0  0  0
    5.9494   -3.9644    0.6711 C   0  0  1  0  0  0  0  0  0  0  0  0
    7.0955   -2.7897    0.4788 C   0  0  2  0  0  0  0  0  0  0  0  0
    6.9173   -1.4607    1.2670 C   0  0  0  0  0  0  0  0  0  0  0  0
    5.8197   -0.6675    0.4988 C   0  0  0  0  0  0  0  0  0  0  0  0
    4.9827   -1.7608   -0.2338 C   0  0  2  0  0  0  0  0  0  0  0  0
    5.8204   -3.2496   -0.4522 C   0  0  1  0  0  0  0  0  0  0  0  0
    6.6679   -2.4817   -1.0677 C   0  0  2  0  0  0  0  0  0  0  0  0
    3.2037   -0.1136   -3.3780 H   0  0  0  0  0  0  0  0  0  0  0  0
    2.9560   -0.6542   -1.7285 H   0  0  0  0  0  0  0  0  0  0  0  0
    2.7219   -1.7993   -3.0893 H   0  0  0  0  0  0  0  0  0  0  0  0
    3.9784   -4.2587   -2.0985 H   0  0  0  0  0  0  0  0  0  0  0  0
    2.1022   -2.7328   -0.2723 H   0  0  0  0  0  0  0  0  0  0  0  0
    1.6863   -3.5482   -1.8300 H   0  0  0  0  0  0  0  0  0  0  0  0
    3.2628   -5.7399    1.3324 H   0  0  0  0  0  0  0  0  0  0  0  0
    3.7877   -6.1559   -0.3233 H   0  0  0  0  0  0  0  0  0  0  0  0
    3.7929   -3.5449    0.9945 H   0  0  0  0  0  0  0  0  0  0  0  0
    6.5101   -4.8830    0.5115 H   0  0  0  0  0  0  0  0  0  0  0  0
    8.0984   -3.2235    0.5381 H   0  0  0  0  0  0  0  0  0  0  0  0
    6.6126   -1.6299    2.3067 H   0  0  0  0  0  0  0  0  0  0  0  0
    7.8715   -0.9290    1.2873 H   0  0  0  0  0  0  0  0  0  0  0  0
    5.1838   -0.0848    1.1812 H   0  0  0  0  0  0  0  0  0  0  0  0
    6.2665    0.0385   -0.2061 H   0  0  0  0  0  0  0  0  0  0  0  0
    3.9410   -1.6705    0.1191 H   0  0  0  0  0  0  0  0  0  0  0  0
    5.9673   -4.0829   -1.2205 H   0  0  0  0  0  0  0  0  0  0  0  0
    7.3267   -3.0005   -1.7839 H   0  0  0  0  0  0  0  0  0  0  0  0
  1  2  1  0
  1 16  1  0
  1 17  1  0
  1 18  1  0
  3  2  1  6
  3 13  1  0
  3 15  1  0
  3  4  1  0
  4  8  1  0
  4  5  1  0
  4 19  1  6
  5  6  1  0
  5 20  1  0
  5 21  1  0
  6  7  1  0
  7  8  1  0
  7 22  1  0
  7 23  1  0
  8  9  1  0
  8 24  1  1
  9 14  1  0
  9 10  1  0
  9 25  1  6
 10 15  1  0
 10 11  1  0
 10 26  1  6
 11 12  1  0
 11 27  1  0
 11 28  1  0
 12 13  1  0
 12 29  1  0
 12 30  1  0
 13 14  1  0
 13 31  1  1
 14 15  1  0
 14 32  1  6
 15 33  1  6
M  END
>  <i_m_ct_stereo_status>  (127) 
1

>  <s_m_source_file>  (127) 
/var/tmp/pbs.5076255.sched01/tmpl63by5lx/41imve8rrw.sdf

>  <i_m_source_file_index>  (127) 
10

>  <i_lp_mmshare_version>  (127) 
48012

>  <i_f3d_flags>  (127) 
0

>  <s_epik_input>  (127) 
W0NIM11PW0NAXTEyW0NASF0zW0NAQEhdKFtDSDJdT1tDSDJdMylbQ0BASF00W0NASF01W0NASF0yW0NAQEhdNFtDQEhdMVtDSDJdW0NIMl01

>  <s_epik_cmdline>  (127) 
J2VwaWtfcHl0aG9uJywgJy1waHQnLCAnMi4wJywgJy1waCcsICc3LjAnLCAnLXRuJywgJzgnLCAnLW1hJywgJzIwMCcsICctaW1hZScsICc8aW5maWxlLm1hZT4nLCAnLW9tYWUnLCAnPG91dGZpbGUubWFlPic=

>  <r_lp_tautomer_probability>  (127) 
1

>  <r_epik_Ionization_Penalty>  (127) 
5.59115e-11

>  <r_epik_Ionization_Penalty_Charging>  (127) 
0

>  <r_epik_Ionization_Penalty_Neutral>  (127) 
5.59115e-11

>  <r_epik_State_Penalty>  (127) 
-0

>  <r_epik_Charging_Adjusted_Penalty>  (127) 
0

>  <i_epik_Tot_Q>  (127) 
0

>  <i_epik_Tot_abs_Q>  (127) 
0

>  <s_lp_Force_Field>  (127) 
OPLS3e

>  <r_lp_Energy>  (127) 
414.959

>  <b_lp_Chiralities_Consistent>  (127) 
1

>  <s_lp_Variant>  (127) 
38:0-1

>  <s_i_glide_gridfile>  (127) 
pfpi4k_grid

>  <i_i_glide_lignum>  (127) 
10

>  <i_i_glide_rotatable_bonds>  (127) 
1

>  <r_i_docking_score>  (127) 
-3.58975

>  <r_i_glide_ligand_efficiency>  (127) 
-0.239317

>  <r_i_glide_ligand_efficiency_sa>  (127) 
-0.590205

>  <r_i_glide_ligand_efficiency_ln>  (127) 
-0.968096

>  <r_i_glide_gscore>  (127) 
-3.58975

>  <r_i_glide_lipo>  (127) 
-0.409995

>  <r_i_glide_hbond>  (127) 
-0.00249518

>  <r_i_glide_metal>  (127) 
-0

>  <r_i_glide_rewards>  (127) 
-2.00263

>  <r_i_glide_evdw>  (127) 
-14.6467

>  <r_i_glide_ecoul>  (127) 
-2.9486

>  <r_i_glide_erotb>  (127) 
0

>  <r_i_glide_esite>  (127) 
0

>  <r_i_glide_emodel>  (127) 
-19.8219

>  <r_i_glide_energy>  (127) 
-17.5953

>  <r_i_glide_einternal>  (127) 
3.59575

>  <r_i_glide_intrahb_reward>  (127) 
-0

>  <i_i_glide_confnum>  (127) 
1

>  <i_i_glide_posenum>  (127) 
38

>  <r_i_glide_eff_state_penalty>  (127) 
0

>  <ligand_id>  (127) 
38

>  <original_smiles>  (127) 
COC12C3COCC3C3C4CCC1C3C42

>  <smiles>  (127) 
[H]C([H])([H])OC12C3([H])C([H])([H])OC([H])([H])C3([H])C3([H])C4([H])C([H])([H])C([H])([H])C1([H])C3([H])C42[H]

$$$$
38:0:1
     RDKit          3D

 33 37  0  0  1  0  0  0  0  0999 V2000
    4.6062   -4.9613   -4.3376 C   0  0  0  0  0  0  0  0  0  0  0  0
    3.5921   -4.0682   -4.0155 O   0  0  0  0  0  0  0  0  0  0  0  0
    3.9011   -3.3452   -2.8461 C   0  0  2  0  0  0  0  0  0  0  0  0
    3.3907   -3.9089   -1.2681 C   0  0  2  0  0  0  0  0  0  0  0  0
    2.0362   -4.2537   -0.6926 C   0  0  0  0  0  0  0  0  0  0  0  0
    2.2494   -3.9294    0.7187 O   0  0  0  0  0  0  0  0  0  0  0  0
    3.3040   -2.9544    0.9771 C   0  0  0  0  0  0  0  0  0  0  0  0
    3.5347   -2.4432   -0.4219 C   0  0  1  0  0  0  0  0  0  0  0  0
    4.6032   -1.2319   -0.9467 C   0  0  1  0  0  0  0  0  0  0  0  0
    5.1243   -0.6902   -2.4165 C   0  0  2  0  0  0  0  0  0  0  0  0
    4.1454    0.0921   -3.3486 C   0  0  0  0  0  0  0  0  0  0  0  0
    3.1701   -0.9573   -3.9266 C   0  0  0  0  0  0  0  0  0  0  0  0
    3.2175   -2.1177   -2.8871 C   0  0  2  0  0  0  0  0  0  0  0  0
    4.6409   -2.1799   -1.8902 C   0  0  1  0  0  0  0  0  0  0  0  0
    5.1988   -2.1833   -3.0640 C   0  0  2  0  0  0  0  0  0  0  0  0
    4.2598   -5.6749   -5.0683 H   0  0  0  0  0  0  0  0  0  0  0  0
    5.0029   -5.5120   -3.4619 H   0  0  0  0  0  0  0  0  0  0  0  0
    5.4442   -4.3880   -4.7810 H   0  0  0  0  0  0  0  0  0  0  0  0
    4.1174   -4.6294   -0.8717 H   0  0  0  0  0  0  0  0  0  0  0  0
    1.2364   -3.6597   -1.1523 H   0  0  0  0  0  0  0  0  0  0  0  0
    1.8141   -5.3134   -0.7887 H   0  0  0  0  0  0  0  0  0  0  0  0
    2.9755   -2.1863    1.6840 H   0  0  0  0  0  0  0  0  0  0  0  0
    4.1967   -3.4569    1.3606 H   0  0  0  0  0  0  0  0  0  0  0  0
    2.6289   -1.8678   -0.4836 H   0  0  0  0  0  0  0  0  0  0  0  0
    5.4893   -1.1854   -0.3233 H   0  0  0  0  0  0  0  0  0  0  0  0
    6.0730   -0.1988   -2.2123 H   0  0  0  0  0  0  0  0  0  0  0  0
    3.6660    0.8339   -2.7278 H   0  0  0  0  0  0  0  0  0  0  0  0
    4.5833    0.6415   -4.1752 H   0  0  0  0  0  0  0  0  0  0  0  0
    2.2000   -0.4833   -4.0324 H   0  0  0  0  0  0  0  0  0  0  0  0
    3.4974   -1.2844   -4.9142 H   0  0  0  0  0  0  0  0  0  0  0  0
    2.2156   -2.2560   -2.4808 H   0  0  0  0  0  0  0  0  0  0  0  0
    5.4203   -2.9282   -1.4633 H   0  0  0  0  0  0  0  0  0  0  0  0
    6.1889   -2.6557   -3.1016 H   0  0  0  0  0  0  0  0  0  0  0  0
  1  2  1  0
  1 16  1  0
  1 17  1  0
  1 18  1  0
  3  2  1  6
  3 13  1  0
  3 15  1  0
  3  4  1  0
  4  8  1  0
  4  5  1  0
  4 19  1  1
  5  6  1  0
  5 20  1  0
  5 21  1  0
  6  7  1  0
  7  8  1  0
  7 22  1  0
  7 23  1  0
  8  9  1  0
  8 24  1  6
  9 14  1  0
  9 10  1  0
  9 25  1  1
 10 15  1  0
 10 11  1  0
 10 26  1  1
 11 12  1  0
 11 27  1  0
 11 28  1  0
 12 13  1  0
 12 29  1  0
 12 30  1  0
 13 14  1  0
 13 31  1  1
 14 15  1  0
 14 32  1  1
 15 33  1  1
M  END
>  <i_m_ct_stereo_status>  (128) 
1

>  <s_m_source_file>  (128) 
/var/tmp/pbs.5076255.sched01/tmpl63by5lx/41imve8rrw.sdf

>  <i_m_source_file_index>  (128) 
10

>  <i_lp_mmshare_version>  (128) 
48012

>  <i_f3d_flags>  (128) 
0

>  <s_epik_input>  (128) 
W0NIM11PW0NAXTEyW0NASF0zW0NAQEhdKFtDSDJdT1tDSDJdMylbQ0BASF00W0NASF01W0NASF0yW0NAQEhdNFtDQEhdMVtDSDJdW0NIMl01

>  <s_epik_cmdline>  (128) 
J2VwaWtfcHl0aG9uJywgJy1waHQnLCAnMi4wJywgJy1waCcsICc3LjAnLCAnLXRuJywgJzgnLCAnLW1hJywgJzIwMCcsICctaW1hZScsICc8aW5maWxlLm1hZT4nLCAnLW9tYWUnLCAnPG91dGZpbGUubWFlPic=

>  <r_lp_tautomer_probability>  (128) 
1

>  <r_epik_Ionization_Penalty>  (128) 
5.59115e-11

>  <r_epik_Ionization_Penalty_Charging>  (128) 
0

>  <r_epik_Ionization_Penalty_Neutral>  (128) 
5.59115e-11

>  <r_epik_State_Penalty>  (128) 
-0

>  <r_epik_Charging_Adjusted_Penalty>  (128) 
0

>  <i_epik_Tot_Q>  (128) 
0

>  <i_epik_Tot_abs_Q>  (128) 
0

>  <s_lp_Force_Field>  (128) 
OPLS3e

>  <r_lp_Energy>  (128) 
414.959

>  <b_lp_Chiralities_Consistent>  (128) 
1

>  <s_lp_Variant>  (128) 
38:0-1

>  <s_i_glide_gridfile>  (128) 
pfpi4k_grid

>  <i_i_glide_lignum>  (128) 
10

>  <i_i_glide_rotatable_bonds>  (128) 
1

>  <r_i_docking_score>  (128) 
-2.28907

>  <r_i_glide_ligand_efficiency>  (128) 
-0.152604

>  <r_i_glide_ligand_efficiency_sa>  (128) 
-0.376355

>  <r_i_glide_ligand_efficiency_ln>  (128) 
-0.617323

>  <r_i_glide_gscore>  (128) 
-2.28907

>  <r_i_glide_lipo>  (128) 
-0.263433

>  <r_i_glide_hbond>  (128) 
0

>  <r_i_glide_metal>  (128) 
-0

>  <r_i_glide_rewards>  (128) 
-2.00263

>  <r_i_glide_evdw>  (128) 
-1.00581

>  <r_i_glide_ecoul>  (128) 
0.181925

>  <r_i_glide_erotb>  (128) 
0

>  <r_i_glide_esite>  (128) 
0

>  <r_i_glide_emodel>  (128) 
-2.92677

>  <r_i_glide_energy>  (128) 
-0.82389

>  <r_i_glide_einternal>  (128) 
0.588808

>  <r_i_glide_intrahb_reward>  (128) 
-0

>  <i_i_glide_confnum>  (128) 
1

>  <i_i_glide_posenum>  (128) 
32

>  <r_i_glide_eff_state_penalty>  (128) 
0

>  <ligand_id>  (128) 
38

>  <original_smiles>  (128) 
COC12C3COCC3C3C4CCC1C3C42

>  <smiles>  (128) 
[H]C([H])([H])OC12C3([H])C([H])([H])OC([H])([H])C3([H])C3([H])C4([H])C([H])([H])C([H])([H])C1([H])C3([H])C42[H]

$$$$
39:1:0
     RDKit          3D

 45 49  0  0  1  0  0  0  0  0999 V2000
    2.9797   -6.5581    1.4383 C   0  0  0  0  0  0  0  0  0  0  0  0
    3.7829   -5.2470    1.3826 C   0  0  2  0  0  0  0  0  0  0  0  0
    4.5114   -5.0184    2.7411 C   0  0  0  0  0  0  0  0  0  0  0  0
    4.8974   -3.5522    3.0794 C   0  0  0  0  0  0  0  0  0  0  0  0
    5.0031   -2.6595    1.8324 C   0  0  2  0  0  0  0  0  0  0  0  0
    6.0290   -3.2936    1.0725 O   0  0  0  0  0  0  0  0  0  0  0  0
    5.4454   -1.1598    1.9267 C   0  0  1  0  0  0  0  0  0  0  0  0
    5.5958   -0.5410    0.5025 C   0  0  0  0  0  0  0  0  0  0  0  0
    4.6920   -1.0920   -0.6110 C   0  0  0  0  0  0  0  0  0  0  0  0
    4.7446   -0.7838   -1.9866 C   0  0  0  0  0  0  0  0  0  0  0  0
    3.9946   -1.5528   -2.9087 C   0  0  0  0  0  0  0  0  0  0  0  0
    3.2534   -2.6785   -2.4771 C   0  0  0  0  0  0  0  0  0  0  0  0
    2.6449   -3.4543   -3.4148 O   0  0  0  0  0  0  0  0  0  0  0  0
    3.1777   -3.0108   -1.1054 C   0  0  0  0  0  0  0  0  0  0  0  0
    3.8447   -2.1524   -0.2522 C   0  0  0  0  0  0  0  0  0  0  0  0
    3.6254   -2.6497    1.1414 C   0  0  2  0  0  0  0  0  0  0  0  0
    2.6389   -1.7335    1.9392 C   0  0  0  0  0  0  0  0  0  0  0  0
    3.1749   -0.3166    2.1894 C   0  0  0  0  0  0  0  0  0  0  0  0
    4.5459   -0.2936    2.6945 N   0  0  0  0  0  0  0  0  0  0  0  0
    4.6770   -0.3558    4.1407 C   0  0  0  0  0  0  0  0  0  0  0  0
    2.9255   -4.0370    0.9220 C   0  0  1  0  0  0  0  0  0  0  0  0
    2.5919   -4.0866   -0.4851 O   0  0  0  0  0  0  0  0  0  0  0  0
    2.1939   -6.5374    2.1965 H   0  0  0  0  0  0  0  0  0  0  0  0
    3.6299   -7.4023    1.6788 H   0  0  0  0  0  0  0  0  0  0  0  0
    2.5083   -6.7694    0.4800 H   0  0  0  0  0  0  0  0  0  0  0  0
    4.5484   -5.3993    0.6192 H   0  0  0  0  0  0  0  0  0  0  0  0
    3.9322   -5.4272    3.5749 H   0  0  0  0  0  0  0  0  0  0  0  0
    5.4279   -5.6073    2.7237 H   0  0  0  0  0  0  0  0  0  0  0  0
    4.1347   -3.1753    3.7472 H   0  0  0  0  0  0  0  0  0  0  0  0
    5.8118   -3.5262    3.6603 H   0  0  0  0  0  0  0  0  0  0  0  0
    5.7446   -4.1754    0.8935 H   0  0  0  0  0  0  0  0  0  0  0  0
    6.4273   -1.1115    2.3933 H   0  0  0  0  0  0  0  0  0  0  0  0
    5.4969    0.5437    0.5503 H   0  0  0  0  0  0  0  0  0  0  0  0
    6.6136   -0.7295    0.1796 H   0  0  0  0  0  0  0  0  0  0  0  0
    5.3853    0.0059   -2.3336 H   0  0  0  0  0  0  0  0  0  0  0  0
    4.0383   -1.3185   -3.9568 H   0  0  0  0  0  0  0  0  0  0  0  0
    2.4503   -4.3237   -3.0736 H   0  0  0  0  0  0  0  0  0  0  0  0
    1.6738   -1.6642    1.4341 H   0  0  0  0  0  0  0  0  0  0  0  0
    2.4165   -2.1826    2.9043 H   0  0  0  0  0  0  0  0  0  0  0  0
    3.1247    0.2325    1.2486 H   0  0  0  0  0  0  0  0  0  0  0  0
    2.5167    0.2207    2.8736 H   0  0  0  0  0  0  0  0  0  0  0  0
    4.1571    0.4839    4.6060 H   0  0  0  0  0  0  0  0  0  0  0  0
    5.7247   -0.2888    4.4371 H   0  0  0  0  0  0  0  0  0  0  0  0
    4.2596   -1.2685    4.5569 H   0  0  0  0  0  0  0  0  0  0  0  0
    1.9833   -4.0678    1.4716 H   0  0  0  0  0  0  0  0  0  0  0  0
  1  2  1  0
  1 23  1  0
  1 24  1  0
  1 25  1  0
  2 21  1  0
  2  3  1  0
  2 26  1  6
  3  4  1  0
  3 27  1  0
  3 28  1  0
  4  5  1  0
  4 29  1  0
  4 30  1  0
  5 16  1  0
  5  6  1  6
  5  7  1  0
  6 31  1  0
  7 19  1  0
  7  8  1  0
  7 32  1  1
  8  9  1  0
  8 33  1  0
  8 34  1  0
  9 15  2  0
  9 10  1  0
 10 11  2  0
 10 35  1  0
 11 12  1  0
 11 36  1  0
 12 13  1  0
 12 14  2  0
 13 37  1  0
 14 22  1  0
 14 15  1  0
 15 16  1  0
 16 17  1  1
 16 21  1  0
 17 18  1  0
 17 38  1  0
 17 39  1  0
 18 19  1  0
 18 40  1  0
 18 41  1  0
 19 20  1  0
 20 42  1  0
 20 43  1  0
 20 44  1  0
 21 22  1  0
 21 45  1  1
M  END
>  <i_m_ct_stereo_status>  (129) 
1

>  <s_m_source_file>  (129) 
/var/tmp/pbs.5076255.sched01/tmpl63by5lx/41imve8rrw.sdf

>  <i_m_source_file_index>  (129) 
12

>  <i_lp_mmshare_version>  (129) 
48012

>  <i_f3d_flags>  (129) 
0

>  <s_epik_input>  (129) 
W0NIMl0xW0NIMl1bQ0BASF0oW0NIM10pW0NAQEhdMk9jKGMoW09IXSlbY0hdW2NIXTMpYzRjM1tDSDJdW0NASF0oW0NAQF0xKFtDQF0yNDUpW09IXSlOKFtDSDNdKVtDSDJdW0NIMl01

>  <s_epik_cmdline>  (129) 
J2VwaWtfcHl0aG9uJywgJy1waHQnLCAnMi4wJywgJy1waCcsICc3LjAnLCAnLXRuJywgJzgnLCAnLW1hJywgJzIwMCcsICctaW1hZScsICc8aW5maWxlLm1hZT4nLCAnLW9tYWUnLCAnPG91dGZpbGUubWFlPic=

>  <r_lp_tautomer_probability>  (129) 
1

>  <r_epik_Ionization_Penalty>  (129) 
1.35193

>  <r_epik_Ionization_Penalty_Charging>  (129) 
0

>  <r_epik_Ionization_Penalty_Neutral>  (129) 
1.35193

>  <r_epik_State_Penalty>  (129) 
1.43724

>  <r_epik_Charging_Adjusted_Penalty>  (129) 
1.43724

>  <i_epik_Tot_Q>  (129) 
0

>  <i_epik_Tot_abs_Q>  (129) 
0

>  <s_lp_Force_Field>  (129) 
OPLS3e

>  <r_lp_Energy>  (129) 
70.4673

>  <b_lp_Chiralities_Consistent>  (129) 
1

>  <s_lp_Variant>  (129) 
39:0-2

>  <s_i_glide_gridfile>  (129) 
pfpi4k_grid

>  <i_i_glide_lignum>  (129) 
12

>  <i_i_glide_rotatable_bonds>  (129) 
2

>  <r_i_docking_score>  (129) 
-3.46458

>  <r_i_glide_ligand_efficiency>  (129) 
-0.157481

>  <r_i_glide_ligand_efficiency_sa>  (129) 
-0.441268

>  <r_i_glide_ligand_efficiency_ln>  (129) 
-0.84687

>  <r_i_glide_gscore>  (129) 
-3.46458

>  <r_i_glide_lipo>  (129) 
-0.456266

>  <r_i_glide_hbond>  (129) 
0

>  <r_i_glide_metal>  (129) 
-0

>  <r_i_glide_rewards>  (129) 
-1.35423

>  <r_i_glide_evdw>  (129) 
-22.2822

>  <r_i_glide_ecoul>  (129) 
-3.59985

>  <r_i_glide_erotb>  (129) 
0

>  <r_i_glide_esite>  (129) 
0

>  <r_i_glide_emodel>  (129) 
-30.447

>  <r_i_glide_energy>  (129) 
-25.882

>  <r_i_glide_einternal>  (129) 
0.624767

>  <r_i_glide_intrahb_reward>  (129) 
-0

>  <i_i_glide_confnum>  (129) 
2

>  <i_i_glide_posenum>  (129) 
18

>  <r_i_glide_eff_state_penalty>  (129) 
0

>  <ligand_id>  (129) 
39

>  <original_smiles>  (129) 
CC1CCC2(O)C3Cc4ccc(O)c5c4C2(CCN3C)C1O5

>  <smiles>  (129) 
[H]Oc1c([H])c([H])c2c3c1OC1([H])C([H])(C([H])([H])[H])C([H])([H])C([H])([H])C4(O[H])C([H])(N(C([H])([H])[H])C([H])([H])C([H])([H])C314)C2([H])[H]

$$$$
39:1:1
     RDKit          3D

 45 49  0  0  1  0  0  0  0  0999 V2000
    2.0680   -3.3570    3.6515 C   0  0  0  0  0  0  0  0  0  0  0  0
    3.1989   -2.8485    2.7363 C   0  0  2  0  0  0  0  0  0  0  0  0
    2.8359   -1.4417    2.1665 C   0  0  0  0  0  0  0  0  0  0  0  0
    3.5510   -1.0125    0.8551 C   0  0  0  0  0  0  0  0  0  0  0  0
    4.8634   -1.7789    0.6214 C   0  0  2  0  0  0  0  0  0  0  0  0
    5.6457   -1.4166    1.7549 O   0  0  0  0  0  0  0  0  0  0  0  0
    5.7858   -1.4728   -0.6073 C   0  0  1  0  0  0  0  0  0  0  0  0
    7.1202   -2.2791   -0.5155 C   0  0  0  0  0  0  0  0  0  0  0  0
    7.0730   -3.6474    0.1771 C   0  0  0  0  0  0  0  0  0  0  0  0
    8.1601   -4.4791    0.5024 C   0  0  0  0  0  0  0  0  0  0  0  0
    7.9648   -5.5956    1.3582 C   0  0  0  0  0  0  0  0  0  0  0  0
    6.7018   -5.8399    1.9516 C   0  0  0  0  0  0  0  0  0  0  0  0
    6.5498   -6.8705    2.8317 O   0  0  0  0  0  0  0  0  0  0  0  0
    5.5974   -5.0147    1.6465 C   0  0  0  0  0  0  0  0  0  0  0  0
    5.8294   -4.0132    0.7262 C   0  0  0  0  0  0  0  0  0  0  0  0
    4.5416   -3.2827    0.5324 C   0  0  2  0  0  0  0  0  0  0  0  0
    3.8947   -3.5999   -0.8537 C   0  0  0  0  0  0  0  0  0  0  0  0
    4.7280   -3.1247   -2.0513 C   0  0  0  0  0  0  0  0  0  0  0  0
    5.1923   -1.7447   -1.9209 N   0  0  0  0  0  0  0  0  0  0  0  0
    4.2683   -0.7420   -2.4288 C   0  0  0  0  0  0  0  0  0  0  0  0
    3.6125   -3.8817    1.6483 C   0  0  1  0  0  0  0  0  0  0  0  0
    4.3346   -5.0150    2.1887 O   0  0  0  0  0  0  0  0  0  0  0  0
    1.1340   -3.4930    3.1067 H   0  0  0  0  0  0  0  0  0  0  0  0
    1.8716   -2.6406    4.4512 H   0  0  0  0  0  0  0  0  0  0  0  0
    2.3245   -4.3068    4.1216 H   0  0  0  0  0  0  0  0  0  0  0  0
    4.0665   -2.7171    3.3814 H   0  0  0  0  0  0  0  0  0  0  0  0
    1.7559   -1.3511    2.0159 H   0  0  0  0  0  0  0  0  0  0  0  0
    3.0753   -0.7034    2.9316 H   0  0  0  0  0  0  0  0  0  0  0  0
    2.8581   -1.2191    0.0487 H   0  0  0  0  0  0  0  0  0  0  0  0
    3.7160    0.0649    0.8383 H   0  0  0  0  0  0  0  0  0  0  0  0
    5.1551   -1.6615    2.5242 H   0  0  0  0  0  0  0  0  0  0  0  0
    6.0449   -0.4165   -0.5710 H   0  0  0  0  0  0  0  0  0  0  0  0
    7.5660   -2.4082   -1.5045 H   0  0  0  0  0  0  0  0  0  0  0  0
    7.8274   -1.6921    0.0609 H   0  0  0  0  0  0  0  0  0  0  0  0
    9.1460   -4.2414    0.1389 H   0  0  0  0  0  0  0  0  0  0  0  0
    8.7975   -6.2319    1.6072 H   0  0  0  0  0  0  0  0  0  0  0  0
    5.6633   -6.9294    3.1522 H   0  0  0  0  0  0  0  0  0  0  0  0
    3.7132   -4.6696   -0.9545 H   0  0  0  0  0  0  0  0  0  0  0  0
    2.9092   -3.1409   -0.9236 H   0  0  0  0  0  0  0  0  0  0  0  0
    5.5875   -3.7879   -2.1543 H   0  0  0  0  0  0  0  0  0  0  0  0
    4.1578   -3.2428   -2.9732 H   0  0  0  0  0  0  0  0  0  0  0  0
    4.0736   -0.9049   -3.4885 H   0  0  0  0  0  0  0  0  0  0  0  0
    4.6961    0.2538   -2.3400 H   0  0  0  0  0  0  0  0  0  0  0  0
    3.3107   -0.7513   -1.9169 H   0  0  0  0  0  0  0  0  0  0  0  0
    2.6962   -4.2743    1.2009 H   0  0  0  0  0  0  0  0  0  0  0  0
  1  2  1  0
  1 23  1  0
  1 24  1  0
  1 25  1  0
  2 21  1  0
  2  3  1  0
  2 26  1  1
  3  4  1  0
  3 27  1  0
  3 28  1  0
  4  5  1  0
  4 29  1  0
  4 30  1  0
  5 16  1  0
  5  6  1  1
  5  7  1  0
  6 31  1  0
  7 19  1  0
  7  8  1  0
  7 32  1  6
  8  9  1  0
  8 33  1  0
  8 34  1  0
  9 15  2  0
  9 10  1  0
 10 11  2  0
 10 35  1  0
 11 12  1  0
 11 36  1  0
 12 13  1  0
 12 14  2  0
 13 37  1  0
 14 22  1  0
 14 15  1  0
 15 16  1  0
 16 17  1  6
 16 21  1  0
 17 18  1  0
 17 38  1  0
 17 39  1  0
 18 19  1  0
 18 40  1  0
 18 41  1  0
 19 20  1  0
 20 42  1  0
 20 43  1  0
 20 44  1  0
 21 22  1  0
 21 45  1  6
M  END
>  <i_m_ct_stereo_status>  (130) 
1

>  <s_m_source_file>  (130) 
/var/tmp/pbs.5076255.sched01/tmpl63by5lx/41imve8rrw.sdf

>  <i_m_source_file_index>  (130) 
12

>  <i_lp_mmshare_version>  (130) 
48012

>  <i_f3d_flags>  (130) 
0

>  <s_epik_input>  (130) 
W0NIMl0xW0NIMl1bQ0BASF0oW0NIM10pW0NAQEhdMk9jKGMoW09IXSlbY0hdW2NIXTMpYzRjM1tDSDJdW0NASF0oW0NAQF0xKFtDQF0yNDUpW09IXSlOKFtDSDNdKVtDSDJdW0NIMl01

>  <s_epik_cmdline>  (130) 
J2VwaWtfcHl0aG9uJywgJy1waHQnLCAnMi4wJywgJy1waCcsICc3LjAnLCAnLXRuJywgJzgnLCAnLW1hJywgJzIwMCcsICctaW1hZScsICc8aW5maWxlLm1hZT4nLCAnLW9tYWUnLCAnPG91dGZpbGUubWFlPic=

>  <r_lp_tautomer_probability>  (130) 
1

>  <r_epik_Ionization_Penalty>  (130) 
1.35193

>  <r_epik_Ionization_Penalty_Charging>  (130) 
0

>  <r_epik_Ionization_Penalty_Neutral>  (130) 
1.35193

>  <r_epik_State_Penalty>  (130) 
1.43724

>  <r_epik_Charging_Adjusted_Penalty>  (130) 
1.43724

>  <i_epik_Tot_Q>  (130) 
0

>  <i_epik_Tot_abs_Q>  (130) 
0

>  <s_lp_Force_Field>  (130) 
OPLS3e

>  <r_lp_Energy>  (130) 
70.4673

>  <b_lp_Chiralities_Consistent>  (130) 
1

>  <s_lp_Variant>  (130) 
39:0-2

>  <s_i_glide_gridfile>  (130) 
pfpi4k_grid

>  <i_i_glide_lignum>  (130) 
12

>  <i_i_glide_rotatable_bonds>  (130) 
2

>  <r_i_docking_score>  (130) 
-3.34833

>  <r_i_glide_ligand_efficiency>  (130) 
-0.152197

>  <r_i_glide_ligand_efficiency_sa>  (130) 
-0.426461

>  <r_i_glide_ligand_efficiency_ln>  (130) 
-0.818454

>  <r_i_glide_gscore>  (130) 
-3.34833

>  <r_i_glide_lipo>  (130) 
-0.657562

>  <r_i_glide_hbond>  (130) 
0

>  <r_i_glide_metal>  (130) 
-0

>  <r_i_glide_rewards>  (130) 
-1.35423

>  <r_i_glide_evdw>  (130) 
-21.7967

>  <r_i_glide_ecoul>  (130) 
-1.64472

>  <r_i_glide_erotb>  (130) 
0

>  <r_i_glide_esite>  (130) 
0

>  <r_i_glide_emodel>  (130) 
-28.2684

>  <r_i_glide_energy>  (130) 
-23.4414

>  <r_i_glide_einternal>  (130) 
0.0118921

>  <r_i_glide_intrahb_reward>  (130) 
-0

>  <i_i_glide_confnum>  (130) 
1

>  <i_i_glide_posenum>  (130) 
2

>  <r_i_glide_eff_state_penalty>  (130) 
0

>  <ligand_id>  (130) 
39

>  <original_smiles>  (130) 
CC1CCC2(O)C3Cc4ccc(O)c5c4C2(CCN3C)C1O5

>  <smiles>  (130) 
[H]Oc1c([H])c([H])c2c3c1OC1([H])C([H])(C([H])([H])[H])C([H])([H])C([H])([H])C4(O[H])C([H])(N(C([H])([H])[H])C([H])([H])C([H])([H])C314)C2([H])[H]

$$$$
39:1:2
     RDKit          3D

 45 49  0  0  1  0  0  0  0  0999 V2000
    2.7225   -6.4884    1.4713 C   0  0  0  0  0  0  0  0  0  0  0  0
    3.5926   -5.2214    1.4220 C   0  0  2  0  0  0  0  0  0  0  0  0
    4.2929   -5.0062    2.7969 C   0  0  0  0  0  0  0  0  0  0  0  0
    4.7560   -3.5581    3.1245 C   0  0  0  0  0  0  0  0  0  0  0  0
    4.9315   -2.6981    1.8576 C   0  0  2  0  0  0  0  0  0  0  0  0
    5.9328   -3.3949    1.1178 O   0  0  0  0  0  0  0  0  0  0  0  0
    5.4445   -1.2161    1.9424 C   0  0  1  0  0  0  0  0  0  0  0  0
    5.6603   -0.6310    0.5112 C   0  0  0  0  0  0  0  0  0  0  0  0
    4.7597   -1.1585   -0.6126 C   0  0  0  0  0  0  0  0  0  0  0  0
    4.8559   -0.8815   -1.9900 C   0  0  0  0  0  0  0  0  0  0  0  0
    4.0957   -1.6258   -2.9203 C   0  0  0  0  0  0  0  0  0  0  0  0
    3.2857   -2.7040   -2.4929 C   0  0  0  0  0  0  0  0  0  0  0  0
    2.6381   -3.4514   -3.4250 O   0  0  0  0  0  0  0  0  0  0  0  0
    3.1623   -3.0015   -1.1155 C   0  0  0  0  0  0  0  0  0  0  0  0
    3.8469   -2.1709   -0.2614 C   0  0  0  0  0  0  0  0  0  0  0  0
    3.5727   -2.6275    1.1340 C   0  0  2  0  0  0  0  0  0  0  0  0
    2.6142   -1.6461    1.8875 C   0  0  0  0  0  0  0  0  0  0  0  0
    3.2141   -0.2539    2.1295 C   0  0  0  0  0  0  0  0  0  0  0  0
    4.5712   -0.2924    2.6708 N   0  0  0  0  0  0  0  0  0  0  0  0
    4.6597   -0.3367    4.1213 C   0  0  0  0  0  0  0  0  0  0  0  0
    2.8103   -3.9806    0.9192 C   0  0  1  0  0  0  0  0  0  0  0  0
    2.5018   -4.0374   -0.4945 O   0  0  0  0  0  0  0  0  0  0  0  0
    1.9208   -6.4155    2.2103 H   0  0  0  0  0  0  0  0  0  0  0  0
    3.3204   -7.3615    1.7417 H   0  0  0  0  0  0  0  0  0  0  0  0
    2.2621   -6.6911    0.5043 H   0  0  0  0  0  0  0  0  0  0  0  0
    4.3789   -5.4155    0.6905 H   0  0  0  0  0  0  0  0  0  0  0  0
    3.6699   -5.3745    3.6199 H   0  0  0  0  0  0  0  0  0  0  0  0
    5.1777   -5.6382    2.8087 H   0  0  0  0  0  0  0  0  0  0  0  0
    3.9888   -3.1276    3.7614 H   0  0  0  0  0  0  0  0  0  0  0  0
    5.6697   -3.5709    3.7219 H   0  0  0  0  0  0  0  0  0  0  0  0
    6.7213   -3.4197    1.6344 H   0  0  0  0  0  0  0  0  0  0  0  0
    6.4151   -1.2015    2.4348 H   0  0  0  0  0  0  0  0  0  0  0  0
    5.6166    0.4602    0.5369 H   0  0  0  0  0  0  0  0  0  0  0  0
    6.6750   -0.8767    0.2200 H   0  0  0  0  0  0  0  0  0  0  0  0
    5.5379   -0.1228   -2.3179 H   0  0  0  0  0  0  0  0  0  0  0  0
    4.1778   -1.4095   -3.9713 H   0  0  0  0  0  0  0  0  0  0  0  0
    2.3622   -4.2914   -3.0701 H   0  0  0  0  0  0  0  0  0  0  0  0
    1.6675   -1.5397    1.3533 H   0  0  0  0  0  0  0  0  0  0  0  0
    2.3446   -2.0687    2.8526 H   0  0  0  0  0  0  0  0  0  0  0  0
    3.2179    0.2797    1.1797 H   0  0  0  0  0  0  0  0  0  0  0  0
    2.5652    0.3250    2.7861 H   0  0  0  0  0  0  0  0  0  0  0  0
    4.1724    0.5365    4.5594 H   0  0  0  0  0  0  0  0  0  0  0  0
    5.7013   -0.3138    4.4463 H   0  0  0  0  0  0  0  0  0  0  0  0
    4.1864   -1.2196    4.5432 H   0  0  0  0  0  0  0  0  0  0  0  0
    1.8572   -3.9556    1.4537 H   0  0  0  0  0  0  0  0  0  0  0  0
  1  2  1  0
  1 23  1  0
  1 24  1  0
  1 25  1  0
  2 21  1  0
  2  3  1  0
  2 26  1  6
  3  4  1  0
  3 27  1  0
  3 28  1  0
  4  5  1  0
  4 29  1  0
  4 30  1  0
  5 16  1  0
  5  6  1  6
  5  7  1  0
  6 31  1  0
  7 19  1  0
  7  8  1  0
  7 32  1  1
  8  9  1  0
  8 33  1  0
  8 34  1  0
  9 15  2  0
  9 10  1  0
 10 11  2  0
 10 35  1  0
 11 12  1  0
 11 36  1  0
 12 13  1  0
 12 14  2  0
 13 37  1  0
 14 22  1  0
 14 15  1  0
 15 16  1  0
 16 17  1  1
 16 21  1  0
 17 18  1  0
 17 38  1  0
 17 39  1  0
 18 19  1  0
 18 40  1  0
 18 41  1  0
 19 20  1  0
 20 42  1  0
 20 43  1  0
 20 44  1  0
 21 22  1  0
 21 45  1  1
M  END
>  <i_m_ct_stereo_status>  (131) 
1

>  <s_m_source_file>  (131) 
/var/tmp/pbs.5076255.sched01/tmpl63by5lx/41imve8rrw.sdf

>  <i_m_source_file_index>  (131) 
12

>  <i_lp_mmshare_version>  (131) 
48012

>  <i_f3d_flags>  (131) 
0

>  <s_epik_input>  (131) 
W0NIMl0xW0NIMl1bQ0BASF0oW0NIM10pW0NAQEhdMk9jKGMoW09IXSlbY0hdW2NIXTMpYzRjM1tDSDJdW0NASF0oW0NAQF0xKFtDQF0yNDUpW09IXSlOKFtDSDNdKVtDSDJdW0NIMl01

>  <s_epik_cmdline>  (131) 
J2VwaWtfcHl0aG9uJywgJy1waHQnLCAnMi4wJywgJy1waCcsICc3LjAnLCAnLXRuJywgJzgnLCAnLW1hJywgJzIwMCcsICctaW1hZScsICc8aW5maWxlLm1hZT4nLCAnLW9tYWUnLCAnPG91dGZpbGUubWFlPic=

>  <r_lp_tautomer_probability>  (131) 
1

>  <r_epik_Ionization_Penalty>  (131) 
1.35193

>  <r_epik_Ionization_Penalty_Charging>  (131) 
0

>  <r_epik_Ionization_Penalty_Neutral>  (131) 
1.35193

>  <r_epik_State_Penalty>  (131) 
1.43724

>  <r_epik_Charging_Adjusted_Penalty>  (131) 
1.43724

>  <i_epik_Tot_Q>  (131) 
0

>  <i_epik_Tot_abs_Q>  (131) 
0

>  <s_lp_Force_Field>  (131) 
OPLS3e

>  <r_lp_Energy>  (131) 
70.4673

>  <b_lp_Chiralities_Consistent>  (131) 
1

>  <s_lp_Variant>  (131) 
39:0-2

>  <s_i_glide_gridfile>  (131) 
pfpi4k_grid

>  <i_i_glide_lignum>  (131) 
12

>  <i_i_glide_rotatable_bonds>  (131) 
2

>  <r_i_docking_score>  (131) 
-3.32354

>  <r_i_glide_ligand_efficiency>  (131) 
-0.15107

>  <r_i_glide_ligand_efficiency_sa>  (131) 
-0.423304

>  <r_i_glide_ligand_efficiency_ln>  (131) 
-0.812393

>  <r_i_glide_gscore>  (131) 
-3.32354

>  <r_i_glide_lipo>  (131) 
-0.415636

>  <r_i_glide_hbond>  (131) 
0

>  <r_i_glide_metal>  (131) 
-0

>  <r_i_glide_rewards>  (131) 
-1.35423

>  <r_i_glide_evdw>  (131) 
-22.4092

>  <r_i_glide_ecoul>  (131) 
-2.88808

>  <r_i_glide_erotb>  (131) 
0

>  <r_i_glide_esite>  (131) 
0

>  <r_i_glide_emodel>  (131) 
-29.8165

>  <r_i_glide_energy>  (131) 
-25.2973

>  <r_i_glide_einternal>  (131) 
0.375823

>  <r_i_glide_intrahb_reward>  (131) 
-0

>  <i_i_glide_confnum>  (131) 
1

>  <i_i_glide_posenum>  (131) 
17

>  <r_i_glide_eff_state_penalty>  (131) 
0

>  <ligand_id>  (131) 
39

>  <original_smiles>  (131) 
CC1CCC2(O)C3Cc4ccc(O)c5c4C2(CCN3C)C1O5

>  <smiles>  (131) 
[H]Oc1c([H])c([H])c2c3c1OC1([H])C([H])(C([H])([H])[H])C([H])([H])C([H])([H])C4(O[H])C([H])(N(C([H])([H])[H])C([H])([H])C([H])([H])C314)C2([H])[H]

$$$$
39:2:0
     RDKit          3D

 45 49  0  0  1  0  0  0  0  0999 V2000
    4.1021   -0.1534   -3.1103 C   0  0  0  0  0  0  0  0  0  0  0  0
    4.1583   -1.5284   -2.4288 C   0  0  2  0  0  0  0  0  0  0  0  0
    2.8252   -2.2958   -2.6813 C   0  0  0  0  0  0  0  0  0  0  0  0
    2.4771   -3.4541   -1.7016 C   0  0  0  0  0  0  0  0  0  0  0  0
    3.7008   -3.9131   -0.8952 C   0  0  2  0  0  0  0  0  0  0  0  0
    4.6084   -4.2937   -1.8846 O   0  0  0  0  0  0  0  0  0  0  0  0
    3.5446   -5.0953    0.1215 C   0  0  1  0  0  0  0  0  0  0  0  0
    4.8935   -5.5248    0.7511 C   0  0  0  0  0  0  0  0  0  0  0  0
    5.9795   -4.4620    0.8437 C   0  0  0  0  0  0  0  0  0  0  0  0
    7.3348   -4.6941    1.1466 C   0  0  0  0  0  0  0  0  0  0  0  0
    8.2477   -3.6443    0.8806 C   0  0  0  0  0  0  0  0  0  0  0  0
    7.8126   -2.4354    0.2991 C   0  0  0  0  0  0  0  0  0  0  0  0
    8.7065   -1.4535    0.1063 O   0  0  0  0  0  0  0  0  0  0  0  0
    6.4771   -2.1807   -0.0380 C   0  0  0  0  0  0  0  0  0  0  0  0
    5.6297   -3.1982    0.3317 C   0  0  0  0  0  0  0  0  0  0  0  0
    4.2765   -2.7484   -0.1058 C   0  0  2  0  0  0  0  0  0  0  0  0
    3.3726   -2.4040    1.1060 C   0  0  0  0  0  0  0  0  0  0  0  0
    3.0352   -3.5962    1.9941 C   0  0  0  0  0  0  0  0  0  0  0  0
    2.5801   -4.7325    1.1806 N   0  0  2  0  0  0  0  0  0  0  0  0
    2.0763   -5.8685    1.9904 C   0  0  0  0  0  0  0  0  0  0  0  0
    4.5195   -1.4277   -0.9132 C   0  0  1  0  0  0  0  0  0  0  0  0
    5.9065   -1.1244   -0.7019 O   0  0  0  0  0  0  0  0  0  0  0  0
    3.3060    0.4643   -2.7325 H   0  0  0  0  0  0  0  0  0  0  0  0
    3.9189   -0.2250   -4.1828 H   0  0  0  0  0  0  0  0  0  0  0  0
    5.0065    0.4126   -2.9225 H   0  0  0  0  0  0  0  0  0  0  0  0
    4.9679   -2.0672   -2.9347 H   0  0  0  0  0  0  0  0  0  0  0  0
    1.9816   -1.6148   -2.7367 H   0  0  0  0  0  0  0  0  0  0  0  0
    2.8956   -2.7189   -3.6792 H   0  0  0  0  0  0  0  0  0  0  0  0
    1.7384   -3.0658   -0.9998 H   0  0  0  0  0  0  0  0  0  0  0  0
    1.9675   -4.2503   -2.2366 H   0  0  0  0  0  0  0  0  0  0  0  0
    4.1969   -5.0329   -2.3241 H   0  0  0  0  0  0  0  0  0  0  0  0
    3.1147   -5.9819   -0.3328 H   0  0  0  0  0  0  0  0  0  0  0  0
    4.7799   -5.9772    1.7313 H   0  0  0  0  0  0  0  0  0  0  0  0
    5.3143   -6.3028    0.1237 H   0  0  0  0  0  0  0  0  0  0  0  0
    7.6858   -5.6306    1.5686 H   0  0  0  0  0  0  0  0  0  0  0  0
    9.2841   -3.7492    1.1610 H   0  0  0  0  0  0  0  0  0  0  0  0
    3.8337   -1.6325    1.7136 H   0  0  0  0  0  0  0  0  0  0  0  0
    2.4467   -1.9568    0.7536 H   0  0  0  0  0  0  0  0  0  0  0  0
    3.8882   -3.8795    2.6010 H   0  0  0  0  0  0  0  0  0  0  0  0
    2.2575   -3.3184    2.6953 H   0  0  0  0  0  0  0  0  0  0  0  0
    2.8286   -6.2529    2.6709 H   0  0  0  0  0  0  0  0  0  0  0  0
    1.7352   -6.7000    1.3775 H   0  0  0  0  0  0  0  0  0  0  0  0
    1.2384   -5.5632    2.6082 H   0  0  0  0  0  0  0  0  0  0  0  0
    3.9855   -0.5921   -0.4557 H   0  0  0  0  0  0  0  0  0  0  0  0
    1.7905   -4.3811    0.6684 H   0  0  0  0  0  0  0  0  0  0  0  0
  1  2  1  0
  1 23  1  0
  1 24  1  0
  1 25  1  0
  2 21  1  0
  2  3  1  0
  2 26  1  6
  3  4  1  0
  3 27  1  0
  3 28  1  0
  4  5  1  0
  4 29  1  0
  4 30  1  0
  5 16  1  0
  5  6  1  6
  5  7  1  0
  6 31  1  0
  7 19  1  0
  7  8  1  0
  7 32  1  6
  8  9  1  0
  8 33  1  0
  8 34  1  0
  9 15  2  0
  9 10  1  0
 10 11  2  0
 10 35  1  0
 11 12  1  0
 11 36  1  0
 12 13  1  0
 12 14  2  0
 14 22  1  0
 14 15  1  0
 15 16  1  0
 16 17  1  1
 16 21  1  0
 17 18  1  0
 17 37  1  0
 17 38  1  0
 18 19  1  0
 18 39  1  0
 18 40  1  0
 19 20  1  0
 19 45  1  6
 20 41  1  0
 20 42  1  0
 20 43  1  0
 21 22  1  0
 21 44  1  1
M  CHG  2  13  -1  19   1
M  END
>  <i_m_ct_stereo_status>  (132) 
1

>  <s_m_source_file>  (132) 
/var/tmp/pbs.5076255.sched01/tmpl63by5lx/41imve8rrw.sdf

>  <i_m_source_file_index>  (132) 
13

>  <i_lp_mmshare_version>  (132) 
48012

>  <i_f3d_flags>  (132) 
0

>  <s_epik_input>  (132) 
W0NIMl0xW0NIMl1bQ0BASF0oW0NIM10pW0NAQEhdMk9jKGMoW09IXSlbY0hdW2NIXTMpYzRjM1tDSDJdW0NASF0oW0NAQF0xKFtDQF0yNDUpW09IXSlOKFtDSDNdKVtDSDJdW0NIMl01

>  <s_epik_cmdline>  (132) 
J2VwaWtfcHl0aG9uJywgJy1waHQnLCAnMi4wJywgJy1waCcsICc3LjAnLCAnLXRuJywgJzgnLCAnLW1hJywgJzIwMCcsICctaW1hZScsICc8aW5maWxlLm1hZT4nLCAnLW9tYWUnLCAnPG91dGZpbGUubWFlPic=

>  <r_epik_Ionization_Penalty>  (132) 
2.4109

>  <r_epik_Ionization_Penalty_Charging>  (132) 
2.4109

>  <r_epik_Ionization_Penalty_Neutral>  (132) 
6.49195e-08

>  <r_epik_State_Penalty>  (132) 
2.56161

>  <r_epik_Charging_Adjusted_Penalty>  (132) 
4.97252

>  <i_epik_Tot_Q>  (132) 
0

>  <i_epik_Tot_abs_Q>  (132) 
2

>  <s_lp_Force_Field>  (132) 
OPLS3e

>  <r_lp_Energy>  (132) 
69.4143

>  <b_lp_Chiralities_Consistent>  (132) 
1

>  <s_lp_Variant>  (132) 
39:0-3

>  <s_i_glide_gridfile>  (132) 
pfpi4k_grid

>  <i_i_glide_lignum>  (132) 
13

>  <i_i_glide_rotatable_bonds>  (132) 
1

>  <r_i_docking_score>  (132) 
-5.00219

>  <r_i_glide_ligand_efficiency>  (132) 
-0.227372

>  <r_i_glide_ligand_efficiency_sa>  (132) 
-0.637106

>  <r_i_glide_ligand_efficiency_ln>  (132) 
-1.22272

>  <r_i_glide_gscore>  (132) 
-5.00219

>  <r_i_glide_lipo>  (132) 
-0.940556

>  <r_i_glide_hbond>  (132) 
-0.421556

>  <r_i_glide_metal>  (132) 
-0

>  <r_i_glide_rewards>  (132) 
-1.65423

>  <r_i_glide_evdw>  (132) 
-13.4033

>  <r_i_glide_ecoul>  (132) 
-8.61053

>  <r_i_glide_erotb>  (132) 
0

>  <r_i_glide_esite>  (132) 
-0.0241092

>  <r_i_glide_emodel>  (132) 
-29.278

>  <r_i_glide_energy>  (132) 
-22.0138

>  <r_i_glide_einternal>  (132) 
0.000310962

>  <r_i_glide_intrahb_reward>  (132) 
-0

>  <i_i_glide_confnum>  (132) 
1

>  <i_i_glide_posenum>  (132) 
35

>  <r_i_glide_eff_state_penalty>  (132) 
0

>  <ligand_id>  (132) 
39

>  <original_smiles>  (132) 
CC1CCC2(O)C3Cc4ccc(O)c5c4C2(CCN3C)C1O5

>  <smiles>  (132) 
[H]OC12C([H])([H])C([H])([H])C([H])(C([H])([H])[H])C3([H])Oc4c([O-])c([H])c([H])c5c4C31C([H])([H])C([H])([H])[N+]([H])(C([H])([H])[H])C2([H])C5([H])[H]

$$$$
39:2:1
     RDKit          3D

 45 49  0  0  1  0  0  0  0  0999 V2000
    4.6546   -1.4859   -2.1597 C   0  0  0  0  0  0  0  0  0  0  0  0
    4.5827   -2.8175   -1.3833 C   0  0  2  0  0  0  0  0  0  0  0  0
    3.1197   -3.3614   -1.4024 C   0  0  0  0  0  0  0  0  0  0  0  0
    2.7317   -4.3701   -0.2861 C   0  0  0  0  0  0  0  0  0  0  0  0
    3.9537   -5.0223    0.3757 C   0  0  2  0  0  0  0  0  0  0  0  0
    4.6151   -5.7096   -0.6731 O   0  0  0  0  0  0  0  0  0  0  0  0
    3.7347   -6.0780    1.5088 C   0  0  1  0  0  0  0  0  0  0  0  0
    5.0937   -6.6887    2.0004 C   0  0  0  0  0  0  0  0  0  0  0  0
    6.3507   -5.8214    1.8624 C   0  0  0  0  0  0  0  0  0  0  0  0
    7.6830   -6.2272    2.0364 C   0  0  0  0  0  0  0  0  0  0  0  0
    8.7230   -5.3744    1.5923 C   0  0  0  0  0  0  0  0  0  0  0  0
    8.4348   -4.1600    0.9139 C   0  0  0  0  0  0  0  0  0  0  0  0
    9.4356   -3.3691    0.4645 O   0  0  0  0  0  0  0  0  0  0  0  0
    7.1059   -3.7367    0.7239 C   0  0  0  0  0  0  0  0  0  0  0  0
    6.1521   -4.5533    1.2762 C   0  0  0  0  0  0  0  0  0  0  0  0
    4.8355   -3.9187    0.9827 C   0  0  2  0  0  0  0  0  0  0  0  0
    4.1828   -3.3331    2.2747 C   0  0  0  0  0  0  0  0  0  0  0  0
    3.7714   -4.3891    3.3067 C   0  0  0  0  0  0  0  0  0  0  0  0
    2.9968   -5.4694    2.6533 N   0  0  2  0  0  0  0  0  0  0  0  0
    2.4539   -6.4498    3.6309 C   0  0  0  0  0  0  0  0  0  0  0  0
    5.1918   -2.7153    0.0419 C   0  0  1  0  0  0  0  0  0  0  0  0
    6.6288   -2.6539    0.0259 O   0  0  0  0  0  0  0  0  0  0  0  0
    4.0398   -0.7039   -1.7082 H   0  0  0  0  0  0  0  0  0  0  0  0
    4.2996   -1.6128   -3.1839 H   0  0  0  0  0  0  0  0  0  0  0  0
    5.6736   -1.1067   -2.2188 H   0  0  0  0  0  0  0  0  0  0  0  0
    5.2019   -3.5271   -1.9393 H   0  0  0  0  0  0  0  0  0  0  0  0
    2.3958   -2.5451   -1.4002 H   0  0  0  0  0  0  0  0  0  0  0  0
    2.9725   -3.8532   -2.3626 H   0  0  0  0  0  0  0  0  0  0  0  0
    2.1778   -3.8159    0.4673 H   0  0  0  0  0  0  0  0  0  0  0  0
    2.0382   -5.1205   -0.6756 H   0  0  0  0  0  0  0  0  0  0  0  0
    4.0019   -5.8570   -1.3962 H   0  0  0  0  0  0  0  0  0  0  0  0
    3.1101   -6.8879    1.1266 H   0  0  0  0  0  0  0  0  0  0  0  0
    5.0418   -7.0501    3.0264 H   0  0  0  0  0  0  0  0  0  0  0  0
    5.2855   -7.5779    1.4012 H   0  0  0  0  0  0  0  0  0  0  0  0
    7.9174   -7.1968    2.4575 H   0  0  0  0  0  0  0  0  0  0  0  0
    9.7417   -5.6851    1.7432 H   0  0  0  0  0  0  0  0  0  0  0  0
    4.8546   -2.6168    2.7521 H   0  0  0  0  0  0  0  0  0  0  0  0
    3.2965   -2.7527    2.0094 H   0  0  0  0  0  0  0  0  0  0  0  0
    4.6507   -4.7858    3.8150 H   0  0  0  0  0  0  0  0  0  0  0  0
    3.1629   -3.9237    4.0803 H   0  0  0  0  0  0  0  0  0  0  0  0
    3.2381   -6.9116    4.2350 H   0  0  0  0  0  0  0  0  0  0  0  0
    1.8971   -7.2438    3.1327 H   0  0  0  0  0  0  0  0  0  0  0  0
    1.7729   -5.9523    4.3214 H   0  0  0  0  0  0  0  0  0  0  0  0
    4.8662   -1.7761    0.4916 H   0  0  0  0  0  0  0  0  0  0  0  0
    2.1900   -5.0213    2.2445 H   0  0  0  0  0  0  0  0  0  0  0  0
  1  2  1  0
  1 23  1  0
  1 24  1  0
  1 25  1  0
  2 21  1  0
  2  3  1  0
  2 26  1  6
  3  4  1  0
  3 27  1  0
  3 28  1  0
  4  5  1  0
  4 29  1  0
  4 30  1  0
  5 16  1  0
  5  6  1  6
  5  7  1  0
  6 31  1  0
  7 19  1  0
  7  8  1  0
  7 32  1  6
  8  9  1  0
  8 33  1  0
  8 34  1  0
  9 15  2  0
  9 10  1  0
 10 11  2  0
 10 35  1  0
 11 12  1  0
 11 36  1  0
 12 13  1  0
 12 14  2  0
 14 22  1  0
 14 15  1  0
 15 16  1  0
 16 17  1  1
 16 21  1  0
 17 18  1  0
 17 37  1  0
 17 38  1  0
 18 19  1  0
 18 39  1  0
 18 40  1  0
 19 20  1  0
 19 45  1  6
 20 41  1  0
 20 42  1  0
 20 43  1  0
 21 22  1  0
 21 44  1  1
M  CHG  2  13  -1  19   1
M  END
>  <i_m_ct_stereo_status>  (133) 
1

>  <s_m_source_file>  (133) 
/var/tmp/pbs.5076255.sched01/tmpl63by5lx/41imve8rrw.sdf

>  <i_m_source_file_index>  (133) 
13

>  <i_lp_mmshare_version>  (133) 
48012

>  <i_f3d_flags>  (133) 
0

>  <s_epik_input>  (133) 
W0NIMl0xW0NIMl1bQ0BASF0oW0NIM10pW0NAQEhdMk9jKGMoW09IXSlbY0hdW2NIXTMpYzRjM1tDSDJdW0NASF0oW0NAQF0xKFtDQF0yNDUpW09IXSlOKFtDSDNdKVtDSDJdW0NIMl01

>  <s_epik_cmdline>  (133) 
J2VwaWtfcHl0aG9uJywgJy1waHQnLCAnMi4wJywgJy1waCcsICc3LjAnLCAnLXRuJywgJzgnLCAnLW1hJywgJzIwMCcsICctaW1hZScsICc8aW5maWxlLm1hZT4nLCAnLW9tYWUnLCAnPG91dGZpbGUubWFlPic=

>  <r_epik_Ionization_Penalty>  (133) 
2.4109

>  <r_epik_Ionization_Penalty_Charging>  (133) 
2.4109

>  <r_epik_Ionization_Penalty_Neutral>  (133) 
6.49195e-08

>  <r_epik_State_Penalty>  (133) 
2.56161

>  <r_epik_Charging_Adjusted_Penalty>  (133) 
4.97252

>  <i_epik_Tot_Q>  (133) 
0

>  <i_epik_Tot_abs_Q>  (133) 
2

>  <s_lp_Force_Field>  (133) 
OPLS3e

>  <r_lp_Energy>  (133) 
69.4143

>  <b_lp_Chiralities_Consistent>  (133) 
1

>  <s_lp_Variant>  (133) 
39:0-3

>  <s_i_glide_gridfile>  (133) 
pfpi4k_grid

>  <i_i_glide_lignum>  (133) 
13

>  <i_i_glide_rotatable_bonds>  (133) 
1

>  <r_i_docking_score>  (133) 
-4.32596

>  <r_i_glide_ligand_efficiency>  (133) 
-0.196635

>  <r_i_glide_ligand_efficiency_sa>  (133) 
-0.550978

>  <r_i_glide_ligand_efficiency_ln>  (133) 
-1.05742

>  <r_i_glide_gscore>  (133) 
-4.32596

>  <r_i_glide_lipo>  (133) 
-0.5856

>  <r_i_glide_hbond>  (133) 
-0.464074

>  <r_i_glide_metal>  (133) 
-0

>  <r_i_glide_rewards>  (133) 
-1.35423

>  <r_i_glide_evdw>  (133) 
-14.6735

>  <r_i_glide_ecoul>  (133) 
-7.91367

>  <r_i_glide_erotb>  (133) 
0

>  <r_i_glide_esite>  (133) 
-0.00133996

>  <r_i_glide_emodel>  (133) 
-28.8987

>  <r_i_glide_energy>  (133) 
-22.5872

>  <r_i_glide_einternal>  (133) 
1.04562

>  <r_i_glide_intrahb_reward>  (133) 
-0

>  <i_i_glide_confnum>  (133) 
2

>  <i_i_glide_posenum>  (133) 
10

>  <r_i_glide_eff_state_penalty>  (133) 
0

>  <ligand_id>  (133) 
39

>  <original_smiles>  (133) 
CC1CCC2(O)C3Cc4ccc(O)c5c4C2(CCN3C)C1O5

>  <smiles>  (133) 
[H]OC12C([H])([H])C([H])([H])C([H])(C([H])([H])[H])C3([H])Oc4c([O-])c([H])c([H])c5c4C31C([H])([H])C([H])([H])[N+]([H])(C([H])([H])[H])C2([H])C5([H])[H]

$$$$
39:2:2
     RDKit          3D

 45 49  0  0  1  0  0  0  0  0999 V2000
    4.0134   -7.1876    1.3207 C   0  0  0  0  0  0  0  0  0  0  0  0
    4.1105   -5.6761    1.0088 C   0  0  2  0  0  0  0  0  0  0  0  0
    2.7008   -5.1212    0.6400 C   0  0  0  0  0  0  0  0  0  0  0  0
    2.6590   -3.7971   -0.1783 C   0  0  0  0  0  0  0  0  0  0  0  0
    3.9809   -3.0183   -0.1280 C   0  0  2  0  0  0  0  0  0  0  0  0
    4.1459   -2.6959    1.2464 O   0  0  0  0  0  0  0  0  0  0  0  0
    4.0841   -1.6683   -0.9003 C   0  0  1  0  0  0  0  0  0  0  0  0
    5.4872   -1.0081   -0.6593 C   0  0  0  0  0  0  0  0  0  0  0  0
    6.6774   -1.9152   -0.3357 C   0  0  0  0  0  0  0  0  0  0  0  0
    7.9657   -1.5609    0.0845 C   0  0  0  0  0  0  0  0  0  0  0  0
    8.8821   -2.5631    0.4772 C   0  0  0  0  0  0  0  0  0  0  0  0
    8.4655   -3.9105    0.6538 C   0  0  0  0  0  0  0  0  0  0  0  0
    9.3123   -4.7934    1.2744 O   0  0  0  0  0  0  0  0  0  0  0  0
    7.1586   -4.2939    0.2969 C   0  0  0  0  0  0  0  0  0  0  0  0
    6.3943   -3.3015   -0.2491 C   0  0  0  0  0  0  0  0  0  0  0  0
    5.1080   -3.9098   -0.6542 C   0  0  2  0  0  0  0  0  0  0  0  0
    5.0502   -4.0141   -2.2018 C   0  0  0  0  0  0  0  0  0  0  0  0
    4.8701   -2.7212   -2.9665 C   0  0  0  0  0  0  0  0  0  0  0  0
    3.8430   -1.8689   -2.3544 N   0  0  2  0  0  0  0  0  0  0  0  0
    3.6120   -0.6386   -3.1421 C   0  0  0  0  0  0  0  0  0  0  0  0
    5.1794   -5.3660   -0.0673 C   0  0  1  0  0  0  0  0  0  0  0  0
    6.5109   -5.4963    0.4661 O   0  0  0  0  0  0  0  0  0  0  0  0
    3.6636   -7.7859    0.4765 H   0  0  0  0  0  0  0  0  0  0  0  0
    3.3145   -7.3719    2.1348 H   0  0  0  0  0  0  0  0  0  0  0  0
    4.9700   -7.6119    1.6220 H   0  0  0  0  0  0  0  0  0  0  0  0
    4.4465   -5.1953    1.9348 H   0  0  0  0  0  0  0  0  0  0  0  0
    2.0849   -5.8802    0.1458 H   0  0  0  0  0  0  0  0  0  0  0  0
    2.2081   -4.9311    1.5880 H   0  0  0  0  0  0  0  0  0  0  0  0
    2.4376   -4.0737   -1.2064 H   0  0  0  0  0  0  0  0  0  0  0  0
    1.8556   -3.1502    0.1643 H   0  0  0  0  0  0  0  0  0  0  0  0
    3.4584   -2.1227    1.5355 H   0  0  0  0  0  0  0  0  0  0  0  0
    3.3102   -0.9898   -0.5462 H   0  0  0  0  0  0  0  0  0  0  0  0
    5.7595   -0.3501   -1.4790 H   0  0  0  0  0  0  0  0  0  0  0  0
    5.3882   -0.3449    0.1947 H   0  0  0  0  0  0  0  0  0  0  0  0
    8.2719   -0.5198    0.1473 H   0  0  0  0  0  0  0  0  0  0  0  0
    9.8538   -2.2475    0.8166 H   0  0  0  0  0  0  0  0  0  0  0  0
    5.8434   -4.5824   -2.6360 H   0  0  0  0  0  0  0  0  0  0  0  0
    4.2386   -4.6489   -2.4919 H   0  0  0  0  0  0  0  0  0  0  0  0
    5.8355   -2.2453   -2.9997 H   0  0  0  0  0  0  0  0  0  0  0  0
    4.6080   -2.9289   -4.0010 H   0  0  0  0  0  0  0  0  0  0  0  0
    4.5100   -0.0271   -3.2354 H   0  0  0  0  0  0  0  0  0  0  0  0
    2.8202   -0.0161   -2.7441 H   0  0  0  0  0  0  0  0  0  0  0  0
    3.2773   -0.8761   -4.1458 H   0  0  0  0  0  0  0  0  0  0  0  0
    5.0858   -6.1083   -0.8632 H   0  0  0  0  0  0  0  0  0  0  0  0
    2.9612   -2.3775   -2.4019 H   0  0  0  0  0  0  0  0  0  0  0  0
  1  2  1  0
  1 23  1  0
  1 24  1  0
  1 25  1  0
  2 21  1  0
  2  3  1  0
  2 26  1  1
  3  4  1  0
  3 27  1  0
  3 28  1  0
  4  5  1  0
  4 29  1  0
  4 30  1  0
  5 16  1  0
  5  6  1  1
  5  7  1  0
  6 31  1  0
  7 19  1  0
  7  8  1  0
  7 32  1  1
  8  9  1  0
  8 33  1  0
  8 34  1  0
  9 15  2  0
  9 10  1  0
 10 11  2  0
 10 35  1  0
 11 12  1  0
 11 36  1  0
 12 13  1  0
 12 14  2  0
 14 22  1  0
 14 15  1  0
 15 16  1  0
 16 17  1  6
 16 21  1  0
 17 18  1  0
 17 37  1  0
 17 38  1  0
 18 19  1  0
 18 39  1  0
 18 40  1  0
 19 20  1  0
 19 45  1  1
 20 41  1  0
 20 42  1  0
 20 43  1  0
 21 22  1  0
 21 44  1  6
M  CHG  2  13  -1  19   1
M  END
>  <i_m_ct_stereo_status>  (134) 
1

>  <s_m_source_file>  (134) 
/var/tmp/pbs.5076255.sched01/tmpl63by5lx/41imve8rrw.sdf

>  <i_m_source_file_index>  (134) 
13

>  <i_lp_mmshare_version>  (134) 
48012

>  <i_f3d_flags>  (134) 
0

>  <s_epik_input>  (134) 
W0NIMl0xW0NIMl1bQ0BASF0oW0NIM10pW0NAQEhdMk9jKGMoW09IXSlbY0hdW2NIXTMpYzRjM1tDSDJdW0NASF0oW0NAQF0xKFtDQF0yNDUpW09IXSlOKFtDSDNdKVtDSDJdW0NIMl01

>  <s_epik_cmdline>  (134) 
J2VwaWtfcHl0aG9uJywgJy1waHQnLCAnMi4wJywgJy1waCcsICc3LjAnLCAnLXRuJywgJzgnLCAnLW1hJywgJzIwMCcsICctaW1hZScsICc8aW5maWxlLm1hZT4nLCAnLW9tYWUnLCAnPG91dGZpbGUubWFlPic=

>  <r_epik_Ionization_Penalty>  (134) 
2.4109

>  <r_epik_Ionization_Penalty_Charging>  (134) 
2.4109

>  <r_epik_Ionization_Penalty_Neutral>  (134) 
6.49195e-08

>  <r_epik_State_Penalty>  (134) 
2.56161

>  <r_epik_Charging_Adjusted_Penalty>  (134) 
4.97252

>  <i_epik_Tot_Q>  (134) 
0

>  <i_epik_Tot_abs_Q>  (134) 
2

>  <s_lp_Force_Field>  (134) 
OPLS3e

>  <r_lp_Energy>  (134) 
69.4143

>  <b_lp_Chiralities_Consistent>  (134) 
1

>  <s_lp_Variant>  (134) 
39:0-3

>  <s_i_glide_gridfile>  (134) 
pfpi4k_grid

>  <i_i_glide_lignum>  (134) 
13

>  <i_i_glide_rotatable_bonds>  (134) 
1

>  <r_i_docking_score>  (134) 
-3.60335

>  <r_i_glide_ligand_efficiency>  (134) 
-0.163789

>  <r_i_glide_ligand_efficiency_sa>  (134) 
-0.458943

>  <r_i_glide_ligand_efficiency_ln>  (134) 
-0.880791

>  <r_i_glide_gscore>  (134) 
-3.60335

>  <r_i_glide_lipo>  (134) 
-0.791115

>  <r_i_glide_hbond>  (134) 
-0.0073389

>  <r_i_glide_metal>  (134) 
-0

>  <r_i_glide_rewards>  (134) 
-1.35423

>  <r_i_glide_evdw>  (134) 
-14.8701

>  <r_i_glide_ecoul>  (134) 
-4.53741

>  <r_i_glide_erotb>  (134) 
0

>  <r_i_glide_esite>  (134) 
-0.026559

>  <r_i_glide_emodel>  (134) 
-24.7838

>  <r_i_glide_energy>  (134) 
-19.4075

>  <r_i_glide_einternal>  (134) 
0.00825017

>  <r_i_glide_intrahb_reward>  (134) 
-0

>  <i_i_glide_confnum>  (134) 
2

>  <i_i_glide_posenum>  (134) 
8

>  <r_i_glide_eff_state_penalty>  (134) 
0

>  <ligand_id>  (134) 
39

>  <original_smiles>  (134) 
CC1CCC2(O)C3Cc4ccc(O)c5c4C2(CCN3C)C1O5

>  <smiles>  (134) 
[H]OC12C([H])([H])C([H])([H])C([H])(C([H])([H])[H])C3([H])Oc4c([O-])c([H])c([H])c5c4C31C([H])([H])C([H])([H])[N+]([H])(C([H])([H])[H])C2([H])C5([H])[H]

$$$$
40:0:0
     RDKit          3D

 49 53  0  0  1  0  0  0  0  0999 V2000
    4.8157   -0.7657    2.6961 O   0  0  0  0  0  0  0  0  0  0  0  0
    3.7942   -1.1895    1.8082 C   0  0  1  0  0  0  0  0  0  0  0  0
    2.4297   -0.7033    2.3795 C   0  0  0  0  0  0  0  0  0  0  0  0
    2.3479    0.8253    2.5169 C   0  0  0  0  0  0  0  0  0  0  0  0
    1.4081    1.1003    3.6875 C   0  0  0  0  0  0  0  0  0  0  0  0
    1.1158   -0.2474    4.3641 C   0  0  0  0  0  0  0  0  0  0  0  0
    2.0933   -1.2579    3.7699 C   0  0  0  0  0  0  0  0  0  0  0  0
    4.0842   -0.5109    0.4576 C   0  0  0  0  0  0  0  0  0  0  0  0
    5.0732   -1.2656   -0.4149 C   0  0  1  0  0  0  0  0  0  0  0  0
    5.8235   -2.4627    0.1836 C   0  0  1  0  0  0  0  0  0  0  0  0
    5.2413   -3.1755    1.4049 C   0  0  0  0  0  0  0  0  0  0  0  0
    3.8996   -2.6705    1.7385 N   0  0  0  0  0  0  0  0  0  0  0  0
    2.8168   -3.4362    1.1108 C   0  0  0  0  0  0  0  0  0  0  0  0
    2.9177   -3.8108   -0.3932 C   0  0  0  0  0  0  0  0  0  0  0  0
    3.1398   -2.6556   -1.3146 N   0  0  2  0  0  0  0  0  0  0  0  0
    2.5408   -2.8418   -2.6496 C   0  0  0  0  0  0  0  0  0  0  0  0
    3.1254   -1.7060   -3.4790 C   0  0  0  0  0  0  0  0  0  0  0  0
    4.5577   -1.6351   -2.9795 C   0  0  0  0  0  0  0  0  0  0  0  0
    4.5481   -2.1721   -1.5470 C   0  0  1  0  0  0  0  0  0  0  0  0
    5.6958   -3.1376   -1.1771 C   0  0  0  0  0  0  0  0  0  0  0  0
    5.3635   -1.5183    2.8813 H   0  0  0  0  0  0  0  0  0  0  0  0
    1.6194   -0.9732    1.7037 H   0  0  0  0  0  0  0  0  0  0  0  0
    3.3254    1.2557    2.7455 H   0  0  0  0  0  0  0  0  0  0  0  0
    2.0016    1.2940    1.5922 H   0  0  0  0  0  0  0  0  0  0  0  0
    1.8978    1.7892    4.3747 H   0  0  0  0  0  0  0  0  0  0  0  0
    0.4861    1.5720    3.3492 H   0  0  0  0  0  0  0  0  0  0  0  0
    1.2334   -0.1918    5.4467 H   0  0  0  0  0  0  0  0  0  0  0  0
    0.0919   -0.5515    4.1504 H   0  0  0  0  0  0  0  0  0  0  0  0
    1.6749   -2.2657    3.7269 H   0  0  0  0  0  0  0  0  0  0  0  0
    2.9910   -1.3077    4.3900 H   0  0  0  0  0  0  0  0  0  0  0  0
    3.1508   -0.3573   -0.0767 H   0  0  0  0  0  0  0  0  0  0  0  0
    4.4518    0.4987    0.6304 H   0  0  0  0  0  0  0  0  0  0  0  0
    5.8081   -0.5799   -0.8400 H   0  0  0  0  0  0  0  0  0  0  0  0
    6.8662   -2.1906    0.3601 H   0  0  0  0  0  0  0  0  0  0  0  0
    5.2363   -4.2597    1.2821 H   0  0  0  0  0  0  0  0  0  0  0  0
    5.8895   -3.0057    2.2670 H   0  0  0  0  0  0  0  0  0  0  0  0
    2.7957   -4.3926    1.6380 H   0  0  0  0  0  0  0  0  0  0  0  0
    1.8408   -2.9972    1.3216 H   0  0  0  0  0  0  0  0  0  0  0  0
    3.5775   -4.6573   -0.5813 H   0  0  0  0  0  0  0  0  0  0  0  0
    1.9288   -4.2030   -0.6483 H   0  0  0  0  0  0  0  0  0  0  0  0
    2.8462   -3.8041   -3.0692 H   0  0  0  0  0  0  0  0  0  0  0  0
    1.4504   -2.7989   -2.6190 H   0  0  0  0  0  0  0  0  0  0  0  0
    3.0603   -1.8800   -4.5541 H   0  0  0  0  0  0  0  0  0  0  0  0
    2.6179   -0.7685   -3.2469 H   0  0  0  0  0  0  0  0  0  0  0  0
    5.1897   -2.2777   -3.5955 H   0  0  0  0  0  0  0  0  0  0  0  0
    4.9595   -0.6250   -3.0368 H   0  0  0  0  0  0  0  0  0  0  0  0
    6.5890   -2.9510   -1.7727 H   0  0  0  0  0  0  0  0  0  0  0  0
    5.4991   -4.2077   -1.1561 H   0  0  0  0  0  0  0  0  0  0  0  0
    2.6069   -1.8855   -0.9295 H   0  0  0  0  0  0  0  0  0  0  0  0
  2  1  1  1
  1 21  1  0
  2 12  1  0
  2  3  1  0
  2  8  1  0
  3  7  1  0
  3  4  1  0
  3 22  1  0
  4  5  1  0
  4 23  1  0
  4 24  1  0
  5  6  1  0
  5 25  1  0
  5 26  1  0
  6  7  1  0
  6 27  1  0
  6 28  1  0
  7 29  1  0
  7 30  1  0
  8  9  1  0
  8 31  1  0
  8 32  1  0
  9 19  1  0
  9 10  1  0
  9 33  1  6
 10 20  1  0
 10 11  1  0
 10 34  1  1
 11 12  1  0
 11 35  1  0
 11 36  1  0
 12 13  1  0
 13 14  1  0
 13 37  1  0
 13 38  1  0
 14 15  1  0
 14 39  1  0
 14 40  1  0
 15 19  1  0
 15 16  1  0
 15 49  1  1
 16 17  1  0
 16 41  1  0
 16 42  1  0
 17 18  1  0
 17 43  1  0
 17 44  1  0
 19 18  1  6
 18 45  1  0
 18 46  1  0
 19 20  1  0
 20 47  1  0
 20 48  1  0
M  CHG  1  15   1
M  END
>  <i_m_ct_stereo_status>  (135) 
1

>  <s_m_source_file>  (135) 
/var/tmp/pbs.5076255.sched01/tmpl63by5lx/41imve8rrw.sdf

>  <i_m_source_file_index>  (135) 
14

>  <i_lp_mmshare_version>  (135) 
48012

>  <i_f3d_flags>  (135) 
0

>  <s_epik_input>  (135) 
W0NIMl0xW0NIMl1bQ0gyXVtDSDJdW0NIXTFbQ0BdKFtPSF0pKFtDSDJdMilOKFtDSDJdW0NASF0oW0NASF0yW0NAQF0zNDUpW0NIMl01KVtDSDJdW0NIMl1OM1tDSDJdW0NIMl1bQ0gyXTQ=

>  <s_epik_cmdline>  (135) 
J2VwaWtfcHl0aG9uJywgJy1waHQnLCAnMi4wJywgJy1waCcsICc3LjAnLCAnLXRuJywgJzgnLCAnLW1hJywgJzIwMCcsICctaW1hZScsICc8aW5maWxlLm1hZT4nLCAnLW9tYWUnLCAnPG91dGZpbGUubWFlPic=

>  <r_lp_tautomer_probability>  (135) 
1

>  <r_epik_Ionization_Penalty>  (135) 
0.00634333

>  <r_epik_Ionization_Penalty_Charging>  (135) 
0.000374054

>  <r_epik_Ionization_Penalty_Neutral>  (135) 
0.00596928

>  <r_epik_State_Penalty>  (135) 
-0

>  <r_epik_Charging_Adjusted_Penalty>  (135) 
0.000374054

>  <i_epik_Tot_Q>  (135) 
1

>  <i_epik_Tot_abs_Q>  (135) 
1

>  <s_lp_Force_Field>  (135) 
OPLS3e

>  <r_lp_Energy>  (135) 
51.4334

>  <b_lp_Chiralities_Consistent>  (135) 
1

>  <s_lp_Variant>  (135) 
40:0-1

>  <s_i_glide_gridfile>  (135) 
pfpi4k_grid

>  <i_i_glide_lignum>  (135) 
14

>  <i_i_glide_rotatable_bonds>  (135) 
2

>  <r_i_docking_score>  (135) 
-4.02007

>  <r_i_glide_ligand_efficiency>  (135) 
-0.201004

>  <r_i_glide_ligand_efficiency_sa>  (135) 
-0.545608

>  <r_i_glide_ligand_efficiency_ln>  (135) 
-1.00609

>  <r_i_glide_gscore>  (135) 
-4.02007

>  <r_i_glide_lipo>  (135) 
-0.424072

>  <r_i_glide_hbond>  (135) 
-0.157084

>  <r_i_glide_metal>  (135) 
-0

>  <r_i_glide_rewards>  (135) 
-1.51756

>  <r_i_glide_evdw>  (135) 
-25.7876

>  <r_i_glide_ecoul>  (135) 
-5.46794

>  <r_i_glide_erotb>  (135) 
0.233986

>  <r_i_glide_esite>  (135) 
-0.0457763

>  <r_i_glide_emodel>  (135) 
-39.3788

>  <r_i_glide_energy>  (135) 
-31.2555

>  <r_i_glide_einternal>  (135) 
0.84471

>  <r_i_glide_intrahb_reward>  (135) 
-0

>  <i_i_glide_confnum>  (135) 
6

>  <i_i_glide_posenum>  (135) 
18

>  <r_i_glide_eff_state_penalty>  (135) 
0

>  <ligand_id>  (135) 
40

>  <original_smiles>  (135) 
OC1(C2CCCC2)CC2C3CN1CCN1CCCC21C3

>  <smiles>  (135) 
[H]OC1(C2([H])C([H])([H])C([H])([H])C([H])([H])C2([H])[H])N2C([H])([H])C3([H])C([H])([H])C4(C([H])([H])C([H])([H])C([H])([H])[N+]4([H])C([H])([H])C2([H])[H])C3([H])C1([H])[H]

$$$$
40:0:1
     RDKit          3D

 49 53  0  0  1  0  0  0  0  0999 V2000
    4.6429   -0.6368    2.7076 O   0  0  0  0  0  0  0  0  0  0  0  0
    3.6692   -1.1344    1.8119 C   0  0  1  0  0  0  0  0  0  0  0  0
    2.2708   -0.6997    2.3562 C   0  0  0  0  0  0  0  0  0  0  0  0
    2.1032    0.8250    2.4717 C   0  0  0  0  0  0  0  0  0  0  0  0
    1.1142    1.0582    3.6134 C   0  0  0  0  0  0  0  0  0  0  0  0
    0.8779   -0.2967    4.2993 C   0  0  0  0  0  0  0  0  0  0  0  0
    1.9338   -1.2572    3.7499 C   0  0  0  0  0  0  0  0  0  0  0  0
    3.9547   -0.4425    0.4694 C   0  0  0  0  0  0  0  0  0  0  0  0
    5.0163   -1.1507   -0.3657 C   0  0  1  0  0  0  0  0  0  0  0  0
    5.8160   -2.2968    0.2757 C   0  0  1  0  0  0  0  0  0  0  0  0
    5.2307   -3.0252    1.4935 C   0  0  0  0  0  0  0  0  0  0  0  0
    3.8473   -2.6000    1.7714 N   0  0  0  0  0  0  0  0  0  0  0  0
    2.8312   -3.4278    1.1242 C   0  0  0  0  0  0  0  0  0  0  0  0
    3.0029   -3.8186   -0.3639 C   0  0  0  0  0  0  0  0  0  0  0  0
    3.1891   -2.6413   -1.2902 N   0  0  2  0  0  0  0  0  0  0  0  0
    2.6294   -2.8878   -2.6410 C   0  0  0  0  0  0  0  0  0  0  0  0
    3.1792   -1.7303   -3.4624 C   0  0  0  0  0  0  0  0  0  0  0  0
    4.5923   -1.5772   -2.9379 C   0  0  0  0  0  0  0  0  0  0  0  0
    4.5759   -2.1026   -1.4912 C   0  0  1  0  0  0  0  0  0  0  0  0
    5.7581   -2.9926   -1.0801 C   0  0  0  0  0  0  0  0  0  0  0  0
    4.3226    0.1632    3.0754 H   0  0  0  0  0  0  0  0  0  0  0  0
    1.4908   -1.0201    1.6729 H   0  0  0  0  0  0  0  0  0  0  0  0
    3.0401    1.3315    2.7145 H   0  0  0  0  0  0  0  0  0  0  0  0
    1.7428    1.2547    1.5317 H   0  0  0  0  0  0  0  0  0  0  0  0
    1.5435    1.7790    4.3061 H   0  0  0  0  0  0  0  0  0  0  0  0
    0.1769    1.4729    3.2447 H   0  0  0  0  0  0  0  0  0  0  0  0
    0.9638   -0.2233    5.3825 H   0  0  0  0  0  0  0  0  0  0  0  0
   -0.1193   -0.6612    4.0624 H   0  0  0  0  0  0  0  0  0  0  0  0
    1.5674   -2.2880    3.7013 H   0  0  0  0  0  0  0  0  0  0  0  0
    2.8089   -1.2547    4.3964 H   0  0  0  0  0  0  0  0  0  0  0  0
    3.0334   -0.3503   -0.0860 H   0  0  0  0  0  0  0  0  0  0  0  0
    4.2673    0.5844    0.6397 H   0  0  0  0  0  0  0  0  0  0  0  0
    5.7277   -0.4321   -0.7712 H   0  0  0  0  0  0  0  0  0  0  0  0
    6.8296   -1.9611    0.4771 H   0  0  0  0  0  0  0  0  0  0  0  0
    5.2990   -4.1069    1.3935 H   0  0  0  0  0  0  0  0  0  0  0  0
    5.8424   -2.7951    2.3708 H   0  0  0  0  0  0  0  0  0  0  0  0
    2.8571   -4.3770    1.6715 H   0  0  0  0  0  0  0  0  0  0  0  0
    1.8219   -3.0408    1.3080 H   0  0  0  0  0  0  0  0  0  0  0  0
    3.7187   -4.6221   -0.5145 H   0  0  0  0  0  0  0  0  0  0  0  0
    2.0496   -4.2597   -0.6403 H   0  0  0  0  0  0  0  0  0  0  0  0
    3.0002   -3.8314   -3.0394 H   0  0  0  0  0  0  0  0  0  0  0  0
    1.5413   -2.8982   -2.6341 H   0  0  0  0  0  0  0  0  0  0  0  0
    3.1530   -1.9208   -4.5424 H   0  0  0  0  0  0  0  0  0  0  0  0
    2.6136   -0.8161   -3.2611 H   0  0  0  0  0  0  0  0  0  0  0  0
    5.2719   -2.1932   -3.5255 H   0  0  0  0  0  0  0  0  0  0  0  0
    4.9401   -0.5482   -2.9900 H   0  0  0  0  0  0  0  0  0  0  0  0
    6.6608   -2.7634   -1.6504 H   0  0  0  0  0  0  0  0  0  0  0  0
    5.6244   -4.0738   -1.0511 H   0  0  0  0  0  0  0  0  0  0  0  0
    2.6142   -1.9117   -0.9297 H   0  0  0  0  0  0  0  0  0  0  0  0
  2  1  1  1
  1 21  1  0
  2 12  1  0
  2  3  1  0
  2  8  1  0
  3  7  1  0
  3  4  1  0
  3 22  1  0
  4  5  1  0
  4 23  1  0
  4 24  1  0
  5  6  1  0
  5 25  1  0
  5 26  1  0
  6  7  1  0
  6 27  1  0
  6 28  1  0
  7 29  1  0
  7 30  1  0
  8  9  1  0
  8 31  1  0
  8 32  1  0
  9 19  1  0
  9 10  1  0
  9 33  1  6
 10 20  1  0
 10 11  1  0
 10 34  1  1
 11 12  1  0
 11 35  1  0
 11 36  1  0
 12 13  1  0
 13 14  1  0
 13 37  1  0
 13 38  1  0
 14 15  1  0
 14 39  1  0
 14 40  1  0
 15 19  1  0
 15 16  1  0
 15 49  1  1
 16 17  1  0
 16 41  1  0
 16 42  1  0
 17 18  1  0
 17 43  1  0
 17 44  1  0
 19 18  1  6
 18 45  1  0
 18 46  1  0
 19 20  1  0
 20 47  1  0
 20 48  1  0
M  CHG  1  15   1
M  END
>  <i_m_ct_stereo_status>  (136) 
1

>  <s_m_source_file>  (136) 
/var/tmp/pbs.5076255.sched01/tmpl63by5lx/41imve8rrw.sdf

>  <i_m_source_file_index>  (136) 
14

>  <i_lp_mmshare_version>  (136) 
48012

>  <i_f3d_flags>  (136) 
0

>  <s_epik_input>  (136) 
W0NIMl0xW0NIMl1bQ0gyXVtDSDJdW0NIXTFbQ0BdKFtPSF0pKFtDSDJdMilOKFtDSDJdW0NASF0oW0NASF0yW0NAQF0zNDUpW0NIMl01KVtDSDJdW0NIMl1OM1tDSDJdW0NIMl1bQ0gyXTQ=

>  <s_epik_cmdline>  (136) 
J2VwaWtfcHl0aG9uJywgJy1waHQnLCAnMi4wJywgJy1waCcsICc3LjAnLCAnLXRuJywgJzgnLCAnLW1hJywgJzIwMCcsICctaW1hZScsICc8aW5maWxlLm1hZT4nLCAnLW9tYWUnLCAnPG91dGZpbGUubWFlPic=

>  <r_lp_tautomer_probability>  (136) 
1

>  <r_epik_Ionization_Penalty>  (136) 
0.00634333

>  <r_epik_Ionization_Penalty_Charging>  (136) 
0.000374054

>  <r_epik_Ionization_Penalty_Neutral>  (136) 
0.00596928

>  <r_epik_State_Penalty>  (136) 
-0

>  <r_epik_Charging_Adjusted_Penalty>  (136) 
0.000374054

>  <i_epik_Tot_Q>  (136) 
1

>  <i_epik_Tot_abs_Q>  (136) 
1

>  <s_lp_Force_Field>  (136) 
OPLS3e

>  <r_lp_Energy>  (136) 
51.4334

>  <b_lp_Chiralities_Consistent>  (136) 
1

>  <s_lp_Variant>  (136) 
40:0-1

>  <s_i_glide_gridfile>  (136) 
pfpi4k_grid

>  <i_i_glide_lignum>  (136) 
14

>  <i_i_glide_rotatable_bonds>  (136) 
2

>  <r_i_docking_score>  (136) 
-3.99758

>  <r_i_glide_ligand_efficiency>  (136) 
-0.199879

>  <r_i_glide_ligand_efficiency_sa>  (136) 
-0.542555

>  <r_i_glide_ligand_efficiency_ln>  (136) 
-1.00046

>  <r_i_glide_gscore>  (136) 
-3.99758

>  <r_i_glide_lipo>  (136) 
-0.354526

>  <r_i_glide_hbond>  (136) 
-0.161951

>  <r_i_glide_metal>  (136) 
-0

>  <r_i_glide_rewards>  (136) 
-1.51756

>  <r_i_glide_evdw>  (136) 
-25.7362

>  <r_i_glide_ecoul>  (136) 
-5.74747

>  <r_i_glide_erotb>  (136) 
0.233986

>  <r_i_glide_esite>  (136) 
-0.0486022

>  <r_i_glide_emodel>  (136) 
-39.8554

>  <r_i_glide_energy>  (136) 
-31.4836

>  <r_i_glide_einternal>  (136) 
0.192651

>  <r_i_glide_intrahb_reward>  (136) 
-0

>  <i_i_glide_confnum>  (136) 
6

>  <i_i_glide_posenum>  (136) 
8

>  <r_i_glide_eff_state_penalty>  (136) 
0

>  <ligand_id>  (136) 
40

>  <original_smiles>  (136) 
OC1(C2CCCC2)CC2C3CN1CCN1CCCC21C3

>  <smiles>  (136) 
[H]OC1(C2([H])C([H])([H])C([H])([H])C([H])([H])C2([H])[H])N2C([H])([H])C3([H])C([H])([H])C4(C([H])([H])C([H])([H])C([H])([H])[N+]4([H])C([H])([H])C2([H])[H])C3([H])C1([H])[H]

$$$$
40:0:2
     RDKit          3D

 49 53  0  0  1  0  0  0  0  0999 V2000
    4.7997   -0.7050    2.6781 O   0  0  0  0  0  0  0  0  0  0  0  0
    3.8011   -1.1753    1.7912 C   0  0  1  0  0  0  0  0  0  0  0  0
    2.4096   -0.7476    2.3651 C   0  0  0  0  0  0  0  0  0  0  0  0
    2.3117    0.7525    2.6986 C   0  0  0  0  0  0  0  0  0  0  0  0
    2.6425    0.8812    4.1934 C   0  0  0  0  0  0  0  0  0  0  0  0
    2.6334   -0.5382    4.7786 C   0  0  0  0  0  0  0  0  0  0  0  0
    2.0251   -1.4234    3.6922 C   0  0  0  0  0  0  0  0  0  0  0  0
    4.0859   -0.4835    0.4441 C   0  0  0  0  0  0  0  0  0  0  0  0
    5.1043   -1.2059   -0.4202 C   0  0  1  0  0  0  0  0  0  0  0  0
    5.9004   -2.3712    0.1861 C   0  0  1  0  0  0  0  0  0  0  0  0
    5.3441   -3.0895    1.4180 C   0  0  0  0  0  0  0  0  0  0  0  0
    3.9803   -2.6456    1.7315 N   0  0  0  0  0  0  0  0  0  0  0  0
    2.9242   -3.4599    1.1250 C   0  0  0  0  0  0  0  0  0  0  0  0
    3.0369   -3.8323   -0.3725 C   0  0  0  0  0  0  0  0  0  0  0  0
    3.2196   -2.6754   -1.2962 N   0  0  2  0  0  0  0  0  0  0  0  0
    2.6151   -2.8801   -2.6253 C   0  0  0  0  0  0  0  0  0  0  0  0
    3.1576   -1.7313   -3.4632 C   0  0  0  0  0  0  0  0  0  0  0  0
    4.5926   -1.6141   -2.9704 C   0  0  0  0  0  0  0  0  0  0  0  0
    4.6084   -2.1442   -1.5434 C   0  0  1  0  0  0  0  0  0  0  0  0
    5.7924   -3.0641   -1.1657 C   0  0  0  0  0  0  0  0  0  0  0  0
    4.4213    0.0100    3.1647 H   0  0  0  0  0  0  0  0  0  0  0  0
    1.6519   -0.9673    1.6159 H   0  0  0  0  0  0  0  0  0  0  0  0
    2.9516    1.3874    2.0824 H   0  0  0  0  0  0  0  0  0  0  0  0
    1.2904    1.0929    2.5213 H   0  0  0  0  0  0  0  0  0  0  0  0
    3.6194    1.3436    4.3315 H   0  0  0  0  0  0  0  0  0  0  0  0
    1.9122    1.5185    4.6876 H   0  0  0  0  0  0  0  0  0  0  0  0
    3.6543   -0.8694    4.9798 H   0  0  0  0  0  0  0  0  0  0  0  0
    2.0865   -0.6049    5.7171 H   0  0  0  0  0  0  0  0  0  0  0  0
    0.9394   -1.4217    3.7885 H   0  0  0  0  0  0  0  0  0  0  0  0
    2.3472   -2.4622    3.7736 H   0  0  0  0  0  0  0  0  0  0  0  0
    3.1512   -0.3472   -0.0917 H   0  0  0  0  0  0  0  0  0  0  0  0
    4.4388    0.5319    0.6159 H   0  0  0  0  0  0  0  0  0  0  0  0
    5.8171   -0.4970   -0.8485 H   0  0  0  0  0  0  0  0  0  0  0  0
    6.9343   -2.0642    0.3633 H   0  0  0  0  0  0  0  0  0  0  0  0
    5.3817   -4.1748    1.3133 H   0  0  0  0  0  0  0  0  0  0  0  0
    5.9786   -2.8772    2.2808 H   0  0  0  0  0  0  0  0  0  0  0  0
    2.9460   -4.4035    1.6724 H   0  0  0  0  0  0  0  0  0  0  0  0
    1.9437   -3.0410    1.3389 H   0  0  0  0  0  0  0  0  0  0  0  0
    3.7336   -4.6551   -0.5491 H   0  0  0  0  0  0  0  0  0  0  0  0
    2.0598   -4.2574   -0.6171 H   0  0  0  0  0  0  0  0  0  0  0  0
    2.9504   -3.8345   -3.0408 H   0  0  0  0  0  0  0  0  0  0  0  0
    1.5206   -2.8750   -2.5826 H   0  0  0  0  0  0  0  0  0  0  0  0
    3.0918   -1.9145   -4.5345 H   0  0  0  0  0  0  0  0  0  0  0  0
    2.6148   -0.8090   -3.2317 H   0  0  0  0  0  0  0  0  0  0  0  0
    5.2384   -2.2401   -3.5876 H   0  0  0  0  0  0  0  0  0  0  0  0
    4.9575   -0.5891   -3.0370 H   0  0  0  0  0  0  0  0  0  0  0  0
    6.6737   -2.8494   -1.7668 H   0  0  0  0  0  0  0  0  0  0  0  0
    5.6324   -4.1394   -1.1401 H   0  0  0  0  0  0  0  0  0  0  0  0
    2.6880   -1.9054   -0.8999 H   0  0  0  0  0  0  0  0  0  0  0  0
  2  1  1  1
  1 21  1  0
  2 12  1  0
  2  3  1  0
  2  8  1  0
  3  7  1  0
  3  4  1  0
  3 22  1  0
  4  5  1  0
  4 23  1  0
  4 24  1  0
  5  6  1  0
  5 25  1  0
  5 26  1  0
  6  7  1  0
  6 27  1  0
  6 28  1  0
  7 29  1  0
  7 30  1  0
  8  9  1  0
  8 31  1  0
  8 32  1  0
  9 19  1  0
  9 10  1  0
  9 33  1  6
 10 20  1  0
 10 11  1  0
 10 34  1  1
 11 12  1  0
 11 35  1  0
 11 36  1  0
 12 13  1  0
 13 14  1  0
 13 37  1  0
 13 38  1  0
 14 15  1  0
 14 39  1  0
 14 40  1  0
 15 19  1  0
 15 16  1  0
 15 49  1  1
 16 17  1  0
 16 41  1  0
 16 42  1  0
 17 18  1  0
 17 43  1  0
 17 44  1  0
 19 18  1  6
 18 45  1  0
 18 46  1  0
 19 20  1  0
 20 47  1  0
 20 48  1  0
M  CHG  1  15   1
M  END
>  <i_m_ct_stereo_status>  (137) 
1

>  <s_m_source_file>  (137) 
/var/tmp/pbs.5076255.sched01/tmpl63by5lx/41imve8rrw.sdf

>  <i_m_source_file_index>  (137) 
14

>  <i_lp_mmshare_version>  (137) 
48012

>  <i_f3d_flags>  (137) 
0

>  <s_epik_input>  (137) 
W0NIMl0xW0NIMl1bQ0gyXVtDSDJdW0NIXTFbQ0BdKFtPSF0pKFtDSDJdMilOKFtDSDJdW0NASF0oW0NASF0yW0NAQF0zNDUpW0NIMl01KVtDSDJdW0NIMl1OM1tDSDJdW0NIMl1bQ0gyXTQ=

>  <s_epik_cmdline>  (137) 
J2VwaWtfcHl0aG9uJywgJy1waHQnLCAnMi4wJywgJy1waCcsICc3LjAnLCAnLXRuJywgJzgnLCAnLW1hJywgJzIwMCcsICctaW1hZScsICc8aW5maWxlLm1hZT4nLCAnLW9tYWUnLCAnPG91dGZpbGUubWFlPic=

>  <r_lp_tautomer_probability>  (137) 
1

>  <r_epik_Ionization_Penalty>  (137) 
0.00634333

>  <r_epik_Ionization_Penalty_Charging>  (137) 
0.000374054

>  <r_epik_Ionization_Penalty_Neutral>  (137) 
0.00596928

>  <r_epik_State_Penalty>  (137) 
-0

>  <r_epik_Charging_Adjusted_Penalty>  (137) 
0.000374054

>  <i_epik_Tot_Q>  (137) 
1

>  <i_epik_Tot_abs_Q>  (137) 
1

>  <s_lp_Force_Field>  (137) 
OPLS3e

>  <r_lp_Energy>  (137) 
51.4334

>  <b_lp_Chiralities_Consistent>  (137) 
1

>  <s_lp_Variant>  (137) 
40:0-1

>  <s_i_glide_gridfile>  (137) 
pfpi4k_grid

>  <i_i_glide_lignum>  (137) 
14

>  <i_i_glide_rotatable_bonds>  (137) 
2

>  <r_i_docking_score>  (137) 
-3.98374

>  <r_i_glide_ligand_efficiency>  (137) 
-0.199187

>  <r_i_glide_ligand_efficiency_sa>  (137) 
-0.540676

>  <r_i_glide_ligand_efficiency_ln>  (137) 
-0.996998

>  <r_i_glide_gscore>  (137) 
-3.98374

>  <r_i_glide_lipo>  (137) 
-0.413822

>  <r_i_glide_hbond>  (137) 
-0.117791

>  <r_i_glide_metal>  (137) 
-0

>  <r_i_glide_rewards>  (137) 
-1.51756

>  <r_i_glide_evdw>  (137) 
-25.3963

>  <r_i_glide_ecoul>  (137) 
-5.7104

>  <r_i_glide_erotb>  (137) 
0.233986

>  <r_i_glide_esite>  (137) 
-0.0421769

>  <r_i_glide_emodel>  (137) 
-39.603

>  <r_i_glide_energy>  (137) 
-31.1067

>  <r_i_glide_einternal>  (137) 
0.194168

>  <r_i_glide_intrahb_reward>  (137) 
-0

>  <i_i_glide_confnum>  (137) 
5

>  <i_i_glide_posenum>  (137) 
7

>  <r_i_glide_eff_state_penalty>  (137) 
0

>  <ligand_id>  (137) 
40

>  <original_smiles>  (137) 
OC1(C2CCCC2)CC2C3CN1CCN1CCCC21C3

>  <smiles>  (137) 
[H]OC1(C2([H])C([H])([H])C([H])([H])C([H])([H])C2([H])[H])N2C([H])([H])C3([H])C([H])([H])C4(C([H])([H])C([H])([H])C([H])([H])[N+]4([H])C([H])([H])C2([H])[H])C3([H])C1([H])[H]

$$$$
41:0:0
     RDKit          3D

 50 55  0  0  1  0  0  0  0  0999 V2000
    0.7051   -7.7355    7.7259 C   0  0  0  0  0  0  0  0  0  0  0  0
    0.7069   -6.9144    6.5225 N   0  0  0  0  0  0  0  0  0  0  0  0
    0.3446   -5.6246    6.6887 N   0  0  0  0  0  0  0  0  0  0  0  0
    0.4943   -5.0480    5.5091 C   0  0  0  0  0  0  0  0  0  0  0  0
    0.2456   -3.6110    5.3276 C   0  0  0  0  0  0  0  0  0  0  0  0
   -0.5741   -2.9309    6.1117 N   0  0  0  0  0  0  0  0  0  0  0  0
   -0.5659   -1.6537    5.5304 O   0  0  0  0  0  0  0  0  0  0  0  0
    0.2628   -1.7366    4.4612 C   0  0  0  0  0  0  0  0  0  0  0  0
    0.4984   -0.5372    3.6605 C   0  0  0  0  0  0  0  0  0  0  0  0
   -0.4063    0.5453    3.6819 C   0  0  0  0  0  0  0  0  0  0  0  0
   -0.1357    1.6702    2.8845 C   0  0  0  0  0  0  0  0  0  0  0  0
    1.0366    1.6777    2.1056 C   0  0  0  0  0  0  0  0  0  0  0  0
    1.9182    0.6556    2.0889 N   0  0  0  0  0  0  0  0  0  0  0  0
    1.6430   -0.4273    2.8452 C   0  0  0  0  0  0  0  0  0  0  0  0
    0.7678   -2.9524    4.2694 N   0  0  0  0  0  0  0  0  0  0  0  0
    0.9022   -5.9976    4.5329 C   0  0  0  0  0  0  0  0  0  0  0  0
    1.0156   -7.1969    5.1946 C   0  0  0  0  0  0  0  0  0  0  0  0
    1.4412   -8.5446    4.6306 C   0  0  1  0  0  0  0  0  0  0  0  0
    2.8911   -8.8902    5.0630 C   0  0  0  0  0  0  0  0  0  0  0  0
    3.3288  -10.2503    4.4647 C   0  0  2  0  0  0  0  0  0  0  0  0
    3.2908  -10.1902    2.9274 C   0  0  0  0  0  0  0  0  0  0  0  0
    1.8496   -9.8793    2.4739 C   0  0  1  0  0  0  0  0  0  0  0  0
    0.8754  -10.9751    2.9602 C   0  0  0  0  0  0  0  0  0  0  0  0
    0.9367  -11.0374    4.4917 C   0  0  1  0  0  0  0  0  0  0  0  0
    2.3765  -11.3545    4.9533 C   0  0  0  0  0  0  0  0  0  0  0  0
    0.4793   -9.6877    5.0772 C   0  0  0  0  0  0  0  0  0  0  0  0
    1.4255   -8.5142    3.0673 C   0  0  0  0  0  0  0  0  0  0  0  0
    1.0817   -8.7365    7.5607 H   0  0  0  0  0  0  0  0  0  0  0  0
   -0.3095   -7.7869    8.1188 H   0  0  0  0  0  0  0  0  0  0  0  0
    1.3200   -7.2586    8.4928 H   0  0  0  0  0  0  0  0  0  0  0  0
   -1.3021    0.5134    4.2889 H   0  0  0  0  0  0  0  0  0  0  0  0
   -0.8031    2.5164    2.8530 H   0  0  0  0  0  0  0  0  0  0  0  0
    1.2889    2.5256    1.4889 H   0  0  0  0  0  0  0  0  0  0  0  0
    2.3723   -1.2208    2.7951 H   0  0  0  0  0  0  0  0  0  0  0  0
    1.0934   -5.8043    3.4807 H   0  0  0  0  0  0  0  0  0  0  0  0
    3.5871   -8.1145    4.7381 H   0  0  0  0  0  0  0  0  0  0  0  0
    2.9720   -8.9261    6.1495 H   0  0  0  0  0  0  0  0  0  0  0  0
    4.3436  -10.4823    4.7914 H   0  0  0  0  0  0  0  0  0  0  0  0
    3.9730   -9.4214    2.5655 H   0  0  0  0  0  0  0  0  0  0  0  0
    3.6279  -11.1347    2.4987 H   0  0  0  0  0  0  0  0  0  0  0  0
    1.8198   -9.8331    1.3832 H   0  0  0  0  0  0  0  0  0  0  0  0
   -0.1381  -10.7303    2.6420 H   0  0  0  0  0  0  0  0  0  0  0  0
    1.1183  -11.9516    2.5367 H   0  0  0  0  0  0  0  0  0  0  0  0
    0.2660  -11.8166    4.8482 H   0  0  0  0  0  0  0  0  0  0  0  0
    2.6932  -12.3302    4.5842 H   0  0  0  0  0  0  0  0  0  0  0  0
    2.4354  -11.4110    6.0377 H   0  0  0  0  0  0  0  0  0  0  0  0
    0.4314   -9.8506    6.1477 H   0  0  0  0  0  0  0  0  0  0  0  0
   -0.5392   -9.4671    4.7355 H   0  0  0  0  0  0  0  0  0  0  0  0
    0.4279   -8.2683    2.7039 H   0  0  0  0  0  0  0  0  0  0  0  0
    2.0942   -7.7462    2.6730 H   0  0  0  0  0  0  0  0  0  0  0  0
  1  2  1  0
  1 28  1  0
  1 29  1  0
  1 30  1  0
  2 17  1  0
  2  3  1  0
  3  4  2  0
  4  5  1  0
  4 16  1  0
  5 15  1  0
  5  6  2  0
  6  7  1  0
  7  8  1  0
  8  9  1  0
  8 15  2  0
  9 14  1  0
  9 10  2  0
 10 11  1  0
 10 31  1  0
 11 12  2  0
 11 32  1  0
 12 13  1  0
 12 33  1  0
 13 14  2  0
 14 34  1  0
 16 17  2  0
 16 35  1  0
 18 17  1  1
 18 26  1  0
 18 27  1  0
 18 19  1  0
 19 20  1  0
 19 36  1  0
 19 37  1  0
 20 25  1  0
 20 21  1  0
 20 38  1  6
 21 22  1  0
 21 39  1  0
 21 40  1  0
 22 23  1  0
 22 27  1  0
 22 41  1  6
 23 24  1  0
 23 42  1  0
 23 43  1  0
 24 25  1  0
 24 26  1  0
 24 44  1  1
 25 45  1  0
 25 46  1  0
 26 47  1  0
 26 48  1  0
 27 49  1  0
 27 50  1  0
M  END
>  <i_m_ct_stereo_status>  (138) 
1

>  <s_m_source_file>  (138) 
/var/tmp/pbs.5076255.sched01/tmpl63by5lx/41imve8rrw.sdf

>  <i_m_source_file_index>  (138) 
15

>  <i_lp_mmshare_version>  (138) 
48012

>  <i_f3d_flags>  (138) 
0

>  <s_epik_input>  (138) 
W0NIMl0xW0NASF0oW0NIMl0yKVtDSDJdW0NASF0oW0NIMl0zKVtDSDJdW0NAQEhdMVtDSDJdQzIzYzRbY0hdYyhubjRbQ0gzXSktYzVub2MobjUpLWM2W2NIXVtjSF1bY0hdbltjSF02

>  <s_epik_cmdline>  (138) 
J2VwaWtfcHl0aG9uJywgJy1waHQnLCAnMi4wJywgJy1waCcsICc3LjAnLCAnLXRuJywgJzgnLCAnLW1hJywgJzIwMCcsICctaW1hZScsICc8aW5maWxlLm1hZT4nLCAnLW9tYWUnLCAnPG91dGZpbGUubWFlPic=

>  <r_lp_tautomer_probability>  (138) 
1

>  <r_epik_Ionization_Penalty>  (138) 
0.000417853

>  <r_epik_Ionization_Penalty_Charging>  (138) 
0

>  <r_epik_Ionization_Penalty_Neutral>  (138) 
0.000417853

>  <r_epik_State_Penalty>  (138) 
0.000240072

>  <r_epik_Charging_Adjusted_Penalty>  (138) 
0.000240072

>  <i_epik_Tot_Q>  (138) 
0

>  <i_epik_Tot_abs_Q>  (138) 
0

>  <s_lp_Force_Field>  (138) 
OPLS3e

>  <r_lp_Energy>  (138) 
23.7441

>  <b_lp_Chiralities_Consistent>  (138) 
1

>  <s_lp_Variant>  (138) 
41:0-1

>  <s_i_glide_gridfile>  (138) 
pfpi4k_grid

>  <i_i_glide_lignum>  (138) 
15

>  <i_i_glide_rotatable_bonds>  (138) 
3

>  <r_i_docking_score>  (138) 
-2.46649

>  <r_i_glide_ligand_efficiency>  (138) 
-0.0913515

>  <r_i_glide_ligand_efficiency_sa>  (138) 
-0.274054

>  <r_i_glide_ligand_efficiency_ln>  (138) 
-0.574158

>  <r_i_glide_gscore>  (138) 
-2.46649

>  <r_i_glide_lipo>  (138) 
-0.220511

>  <r_i_glide_hbond>  (138) 
0

>  <r_i_glide_metal>  (138) 
-0

>  <r_i_glide_rewards>  (138) 
-0.944726

>  <r_i_glide_evdw>  (138) 
-25.9499

>  <r_i_glide_ecoul>  (138) 
-2.48805

>  <r_i_glide_erotb>  (138) 
0.440692

>  <r_i_glide_esite>  (138) 
-0.0712454

>  <r_i_glide_emodel>  (138) 
-31.5825

>  <r_i_glide_energy>  (138) 
-28.4379

>  <r_i_glide_einternal>  (138) 
2.20289

>  <r_i_glide_intrahb_reward>  (138) 
-0

>  <i_i_glide_confnum>  (138) 
3

>  <i_i_glide_posenum>  (138) 
26

>  <r_i_glide_eff_state_penalty>  (138) 
0

>  <ligand_id>  (138) 
41

>  <original_smiles>  (138) 
Cn1nc(-c2noc(-c3cccnc3)n2)cc1C12CC3CC(CC(C3)C1)C2

>  <smiles>  (138) 
[H]c1nc([H])c(-c2nc(-c3nn(C([H])([H])[H])c(C45C([H])([H])C6([H])C([H])([H])C([H])(C([H])([H])C([H])(C6([H])[H])C4([H])[H])C5([H])[H])c3[H])no2)c([H])c1[H]

$$$$
41:0:1
     RDKit          3D

 50 55  0  0  1  0  0  0  0  0999 V2000
    6.4103   -4.2442    0.4194 C   0  0  0  0  0  0  0  0  0  0  0  0
    5.1413   -3.9184    1.0552 N   0  0  0  0  0  0  0  0  0  0  0  0
    4.7964   -2.6103    1.0579 N   0  0  0  0  0  0  0  0  0  0  0  0
    3.6291   -2.5450    1.6758 C   0  0  0  0  0  0  0  0  0  0  0  0
    2.9392   -1.2650    1.8781 C   0  0  0  0  0  0  0  0  0  0  0  0
    3.3728   -0.1283    1.3495 N   0  0  0  0  0  0  0  0  0  0  0  0
    2.4053    0.7909    1.7869 O   0  0  0  0  0  0  0  0  0  0  0  0
    1.5166    0.0831    2.5329 C   0  0  0  0  0  0  0  0  0  0  0  0
    0.4001    0.7858    3.1558 C   0  0  0  0  0  0  0  0  0  0  0  0
    0.0986    2.1196    2.8146 C   0  0  0  0  0  0  0  0  0  0  0  0
   -0.9945    2.7522    3.4334 C   0  0  0  0  0  0  0  0  0  0  0  0
   -1.7376    2.0304    4.3849 C   0  0  0  0  0  0  0  0  0  0  0  0
   -1.4479    0.7596    4.7409 N   0  0  0  0  0  0  0  0  0  0  0  0
   -0.4055    0.1575    4.1275 C   0  0  0  0  0  0  0  0  0  0  0  0
    1.8073   -1.2138    2.6271 N   0  0  0  0  0  0  0  0  0  0  0  0
    3.1979   -3.8373    2.0852 C   0  0  0  0  0  0  0  0  0  0  0  0
    4.1822   -4.7058    1.6842 C   0  0  0  0  0  0  0  0  0  0  0  0
    4.2426   -6.2102    1.8621 C   0  0  1  0  0  0  0  0  0  0  0  0
    5.4959   -6.6435    2.6783 C   0  0  0  0  0  0  0  0  0  0  0  0
    5.5397   -8.1777    2.8315 C   0  0  2  0  0  0  0  0  0  0  0  0
    5.5652   -8.8448    1.4388 C   0  0  0  0  0  0  0  0  0  0  0  0
    4.2805   -8.4630    0.6715 C   0  0  1  0  0  0  0  0  0  0  0  0
    3.0358   -8.9277    1.4474 C   0  0  0  0  0  0  0  0  0  0  0  0
    3.0355   -8.2550    2.8314 C   0  0  1  0  0  0  0  0  0  0  0  0
    4.3028   -8.6521    3.6131 C   0  0  0  0  0  0  0  0  0  0  0  0
    2.9951   -6.7223    2.6512 C   0  0  0  0  0  0  0  0  0  0  0  0
    4.2379   -6.9330    0.4857 C   0  0  0  0  0  0  0  0  0  0  0  0
    6.6305   -5.3076    0.4177 H   0  0  0  0  0  0  0  0  0  0  0  0
    7.2217   -3.7336    0.9402 H   0  0  0  0  0  0  0  0  0  0  0  0
    6.3928   -3.9136   -0.6192 H   0  0  0  0  0  0  0  0  0  0  0  0
    0.6875    2.6489    2.0810 H   0  0  0  0  0  0  0  0  0  0  0  0
   -1.2551    3.7653    3.1708 H   0  0  0  0  0  0  0  0  0  0  0  0
   -2.5847    2.4825    4.8790 H   0  0  0  0  0  0  0  0  0  0  0  0
   -0.2144   -0.8591    4.4323 H   0  0  0  0  0  0  0  0  0  0  0  0
    2.2836   -4.0734    2.6097 H   0  0  0  0  0  0  0  0  0  0  0  0
    6.4304   -6.3395    2.2117 H   0  0  0  0  0  0  0  0  0  0  0  0
    5.4844   -6.1621    3.6603 H   0  0  0  0  0  0  0  0  0  0  0  0
    6.4419   -8.4503    3.3781 H   0  0  0  0  0  0  0  0  0  0  0  0
    6.4473   -8.5228    0.8848 H   0  0  0  0  0  0  0  0  0  0  0  0
    5.6451   -9.9278    1.5370 H   0  0  0  0  0  0  0  0  0  0  0  0
    4.2714   -8.9423   -0.3053 H   0  0  0  0  0  0  0  0  0  0  0  0
    2.1319   -8.6594    0.9006 H   0  0  0  0  0  0  0  0  0  0  0  0
    3.0277  -10.0135    1.5429 H   0  0  0  0  0  0  0  0  0  0  0  0
    2.1560   -8.5783    3.3878 H   0  0  0  0  0  0  0  0  0  0  0  0
    4.3392   -9.7315    3.7607 H   0  0  0  0  0  0  0  0  0  0  0  0
    4.2931   -8.1989    4.6046 H   0  0  0  0  0  0  0  0  0  0  0  0
    2.9483   -6.2490    3.6345 H   0  0  0  0  0  0  0  0  0  0  0  0
    2.0710   -6.4509    2.1349 H   0  0  0  0  0  0  0  0  0  0  0  0
    3.3527   -6.6411   -0.0777 H   0  0  0  0  0  0  0  0  0  0  0  0
    5.0779   -6.6410   -0.1402 H   0  0  0  0  0  0  0  0  0  0  0  0
  1  2  1  0
  1 28  1  0
  1 29  1  0
  1 30  1  0
  2 17  1  0
  2  3  1  0
  3  4  2  0
  4  5  1  0
  4 16  1  0
  5 15  1  0
  5  6  2  0
  6  7  1  0
  7  8  1  0
  8  9  1  0
  8 15  2  0
  9 14  1  0
  9 10  2  0
 10 11  1  0
 10 31  1  0
 11 12  2  0
 11 32  1  0
 12 13  1  0
 12 33  1  0
 13 14  2  0
 14 34  1  0
 16 17  2  0
 16 35  1  0
 18 17  1  6
 18 26  1  0
 18 27  1  0
 18 19  1  0
 19 20  1  0
 19 36  1  0
 19 37  1  0
 20 25  1  0
 20 21  1  0
 20 38  1  1
 21 22  1  0
 21 39  1  0
 21 40  1  0
 22 23  1  0
 22 27  1  0
 22 41  1  6
 23 24  1  0
 23 42  1  0
 23 43  1  0
 24 25  1  0
 24 26  1  0
 24 44  1  1
 25 45  1  0
 25 46  1  0
 26 47  1  0
 26 48  1  0
 27 49  1  0
 27 50  1  0
M  END
>  <i_m_ct_stereo_status>  (139) 
1

>  <s_m_source_file>  (139) 
/var/tmp/pbs.5076255.sched01/tmpl63by5lx/41imve8rrw.sdf

>  <i_m_source_file_index>  (139) 
15

>  <i_lp_mmshare_version>  (139) 
48012

>  <i_f3d_flags>  (139) 
0

>  <s_epik_input>  (139) 
W0NIMl0xW0NASF0oW0NIMl0yKVtDSDJdW0NASF0oW0NIMl0zKVtDSDJdW0NAQEhdMVtDSDJdQzIzYzRbY0hdYyhubjRbQ0gzXSktYzVub2MobjUpLWM2W2NIXVtjSF1bY0hdbltjSF02

>  <s_epik_cmdline>  (139) 
J2VwaWtfcHl0aG9uJywgJy1waHQnLCAnMi4wJywgJy1waCcsICc3LjAnLCAnLXRuJywgJzgnLCAnLW1hJywgJzIwMCcsICctaW1hZScsICc8aW5maWxlLm1hZT4nLCAnLW9tYWUnLCAnPG91dGZpbGUubWFlPic=

>  <r_lp_tautomer_probability>  (139) 
1

>  <r_epik_Ionization_Penalty>  (139) 
0.000417853

>  <r_epik_Ionization_Penalty_Charging>  (139) 
0

>  <r_epik_Ionization_Penalty_Neutral>  (139) 
0.000417853

>  <r_epik_State_Penalty>  (139) 
0.000240072

>  <r_epik_Charging_Adjusted_Penalty>  (139) 
0.000240072

>  <i_epik_Tot_Q>  (139) 
0

>  <i_epik_Tot_abs_Q>  (139) 
0

>  <s_lp_Force_Field>  (139) 
OPLS3e

>  <r_lp_Energy>  (139) 
23.7441

>  <b_lp_Chiralities_Consistent>  (139) 
1

>  <s_lp_Variant>  (139) 
41:0-1

>  <s_i_glide_gridfile>  (139) 
pfpi4k_grid

>  <i_i_glide_lignum>  (139) 
15

>  <i_i_glide_rotatable_bonds>  (139) 
3

>  <r_i_docking_score>  (139) 
-2.36385

>  <r_i_glide_ligand_efficiency>  (139) 
-0.08755

>  <r_i_glide_ligand_efficiency_sa>  (139) 
-0.26265

>  <r_i_glide_ligand_efficiency_ln>  (139) 
-0.550265

>  <r_i_glide_gscore>  (139) 
-2.36385

>  <r_i_glide_lipo>  (139) 
-0.348996

>  <r_i_glide_hbond>  (139) 
0

>  <r_i_glide_metal>  (139) 
-0

>  <r_i_glide_rewards>  (139) 
-0.997872

>  <r_i_glide_evdw>  (139) 
-26.0056

>  <r_i_glide_ecoul>  (139) 
-0.746996

>  <r_i_glide_erotb>  (139) 
0.440692

>  <r_i_glide_esite>  (139) 
-0.0453474

>  <r_i_glide_emodel>  (139) 
-31.2006

>  <r_i_glide_energy>  (139) 
-26.7526

>  <r_i_glide_einternal>  (139) 
0.218743

>  <r_i_glide_intrahb_reward>  (139) 
-0

>  <i_i_glide_confnum>  (139) 
5

>  <i_i_glide_posenum>  (139) 
2

>  <r_i_glide_eff_state_penalty>  (139) 
0

>  <ligand_id>  (139) 
41

>  <original_smiles>  (139) 
Cn1nc(-c2noc(-c3cccnc3)n2)cc1C12CC3CC(CC(C3)C1)C2

>  <smiles>  (139) 
[H]c1nc([H])c(-c2nc(-c3nn(C([H])([H])[H])c(C45C([H])([H])C6([H])C([H])([H])C([H])(C([H])([H])C([H])(C6([H])[H])C4([H])[H])C5([H])[H])c3[H])no2)c([H])c1[H]

$$$$
41:0:2
     RDKit          3D

 50 55  0  0  1  0  0  0  0  0999 V2000
    5.1351   -0.6583    1.2349 C   0  0  0  0  0  0  0  0  0  0  0  0
    4.1522   -1.6258    1.6954 N   0  0  0  0  0  0  0  0  0  0  0  0
    4.4237   -2.9219    1.4230 N   0  0  0  0  0  0  0  0  0  0  0  0
    3.4252   -3.6214    1.9366 C   0  0  0  0  0  0  0  0  0  0  0  0
    3.3866   -5.0876    1.8392 C   0  0  0  0  0  0  0  0  0  0  0  0
    4.2773   -5.7814    1.1432 N   0  0  0  0  0  0  0  0  0  0  0  0
    3.8491   -7.1023    1.3407 O   0  0  0  0  0  0  0  0  0  0  0  0
    2.7470   -7.0345    2.1269 C   0  0  0  0  0  0  0  0  0  0  0  0
    2.0875   -8.2663    2.5192 C   0  0  0  0  0  0  0  0  0  0  0  0
    2.7671   -9.5061    2.4817 C   0  0  0  0  0  0  0  0  0  0  0  0
    2.0779  -10.6627    2.8797 C   0  0  0  0  0  0  0  0  0  0  0  0
    0.7332  -10.5466    3.2809 C   0  0  0  0  0  0  0  0  0  0  0  0
    0.0697   -9.3702    3.3011 N   0  0  0  0  0  0  0  0  0  0  0  0
    0.7410   -8.2643    2.9348 C   0  0  0  0  0  0  0  0  0  0  0  0
    2.3886   -5.7859    2.4493 N   0  0  0  0  0  0  0  0  0  0  0  0
    2.4745   -2.7623    2.5642 C   0  0  0  0  0  0  0  0  0  0  0  0
    2.9480   -1.4940    2.3815 C   0  0  0  0  0  0  0  0  0  0  0  0
    2.3274   -0.1894    2.8546 C   0  0  1  0  0  0  0  0  0  0  0  0
    3.1896    0.4653    3.9702 C   0  0  0  0  0  0  0  0  0  0  0  0
    2.5438    1.7820    4.4634 C   0  0  2  0  0  0  0  0  0  0  0  0
    1.1499    1.4913    5.0503 C   0  0  0  0  0  0  0  0  0  0  0  0
    0.2605    0.8725    3.9535 C   0  0  1  0  0  0  0  0  0  0  0  0
    0.1146    1.8407    2.7622 C   0  0  0  0  0  0  0  0  0  0  0  0
    1.5132    2.1288    2.1993 C   0  0  1  0  0  0  0  0  0  0  0  0
    2.4083    2.7623    3.2838 C   0  0  0  0  0  0  0  0  0  0  0  0
    2.1327    0.8191    1.6857 C   0  0  0  0  0  0  0  0  0  0  0  0
    0.9102   -0.4437    3.4678 C   0  0  0  0  0  0  0  0  0  0  0  0
    4.9115    0.3560    1.5426 H   0  0  0  0  0  0  0  0  0  0  0  0
    5.1900   -0.6878    0.1464 H   0  0  0  0  0  0  0  0  0  0  0  0
    6.1162   -0.9118    1.6381 H   0  0  0  0  0  0  0  0  0  0  0  0
    3.7998   -9.5760    2.1689 H   0  0  0  0  0  0  0  0  0  0  0  0
    2.5574  -11.6304    2.8721 H   0  0  0  0  0  0  0  0  0  0  0  0
    0.1813  -11.4196    3.5938 H   0  0  0  0  0  0  0  0  0  0  0  0
    0.1765   -7.3451    2.9793 H   0  0  0  0  0  0  0  0  0  0  0  0
    1.5697   -3.0705    3.0720 H   0  0  0  0  0  0  0  0  0  0  0  0
    3.3108   -0.2200    4.8122 H   0  0  0  0  0  0  0  0  0  0  0  0
    4.1982    0.6791    3.6171 H   0  0  0  0  0  0  0  0  0  0  0  0
    3.1740    2.2297    5.2335 H   0  0  0  0  0  0  0  0  0  0  0  0
    1.2370    0.8060    5.8933 H   0  0  0  0  0  0  0  0  0  0  0  0
    0.7023    2.4073    5.4341 H   0  0  0  0  0  0  0  0  0  0  0  0
   -0.7290    0.6618    4.3626 H   0  0  0  0  0  0  0  0  0  0  0  0
   -0.5034    1.3947    1.9814 H   0  0  0  0  0  0  0  0  0  0  0  0
   -0.3739    2.7682    3.0619 H   0  0  0  0  0  0  0  0  0  0  0  0
    1.4434    2.8139    1.3625 H   0  0  0  0  0  0  0  0  0  0  0  0
    1.9838    3.7085    3.6187 H   0  0  0  0  0  0  0  0  0  0  0  0
    3.3909    3.0015    2.8786 H   0  0  0  0  0  0  0  0  0  0  0  0
    3.0552    1.1110    1.1972 H   0  0  0  0  0  0  0  0  0  0  0  0
    1.4963    0.3838    0.9084 H   0  0  0  0  0  0  0  0  0  0  0  0
    0.2576   -0.9050    2.7258 H   0  0  0  0  0  0  0  0  0  0  0  0
    0.9624   -1.1385    4.3091 H   0  0  0  0  0  0  0  0  0  0  0  0
  1  2  1  0
  1 28  1  0
  1 29  1  0
  1 30  1  0
  2 17  1  0
  2  3  1  0
  3  4  2  0
  4  5  1  0
  4 16  1  0
  5 15  1  0
  5  6  2  0
  6  7  1  0
  7  8  1  0
  8  9  1  0
  8 15  2  0
  9 14  1  0
  9 10  2  0
 10 11  1  0
 10 31  1  0
 11 12  2  0
 11 32  1  0
 12 13  1  0
 12 33  1  0
 13 14  2  0
 14 34  1  0
 16 17  2  0
 16 35  1  0
 18 17  1  6
 18 26  1  0
 18 27  1  0
 18 19  1  0
 19 20  1  0
 19 36  1  0
 19 37  1  0
 20 25  1  0
 20 21  1  0
 20 38  1  1
 21 22  1  0
 21 39  1  0
 21 40  1  0
 22 23  1  0
 22 27  1  0
 22 41  1  1
 23 24  1  0
 23 42  1  0
 23 43  1  0
 24 25  1  0
 24 26  1  0
 24 44  1  6
 25 45  1  0
 25 46  1  0
 26 47  1  0
 26 48  1  0
 27 49  1  0
 27 50  1  0
M  END
>  <i_m_ct_stereo_status>  (140) 
1

>  <s_m_source_file>  (140) 
/var/tmp/pbs.5076255.sched01/tmpl63by5lx/41imve8rrw.sdf

>  <i_m_source_file_index>  (140) 
15

>  <i_lp_mmshare_version>  (140) 
48012

>  <i_f3d_flags>  (140) 
0

>  <s_epik_input>  (140) 
W0NIMl0xW0NASF0oW0NIMl0yKVtDSDJdW0NASF0oW0NIMl0zKVtDSDJdW0NAQEhdMVtDSDJdQzIzYzRbY0hdYyhubjRbQ0gzXSktYzVub2MobjUpLWM2W2NIXVtjSF1bY0hdbltjSF02

>  <s_epik_cmdline>  (140) 
J2VwaWtfcHl0aG9uJywgJy1waHQnLCAnMi4wJywgJy1waCcsICc3LjAnLCAnLXRuJywgJzgnLCAnLW1hJywgJzIwMCcsICctaW1hZScsICc8aW5maWxlLm1hZT4nLCAnLW9tYWUnLCAnPG91dGZpbGUubWFlPic=

>  <r_lp_tautomer_probability>  (140) 
1

>  <r_epik_Ionization_Penalty>  (140) 
0.000417853

>  <r_epik_Ionization_Penalty_Charging>  (140) 
0

>  <r_epik_Ionization_Penalty_Neutral>  (140) 
0.000417853

>  <r_epik_State_Penalty>  (140) 
0.000240072

>  <r_epik_Charging_Adjusted_Penalty>  (140) 
0.000240072

>  <i_epik_Tot_Q>  (140) 
0

>  <i_epik_Tot_abs_Q>  (140) 
0

>  <s_lp_Force_Field>  (140) 
OPLS3e

>  <r_lp_Energy>  (140) 
23.7441

>  <b_lp_Chiralities_Consistent>  (140) 
1

>  <s_lp_Variant>  (140) 
41:0-1

>  <s_i_glide_gridfile>  (140) 
pfpi4k_grid

>  <i_i_glide_lignum>  (140) 
15

>  <i_i_glide_rotatable_bonds>  (140) 
3

>  <r_i_docking_score>  (140) 
-2.20927

>  <r_i_glide_ligand_efficiency>  (140) 
-0.0818248

>  <r_i_glide_ligand_efficiency_sa>  (140) 
-0.245474

>  <r_i_glide_ligand_efficiency_ln>  (140) 
-0.514282

>  <r_i_glide_gscore>  (140) 
-2.20927

>  <r_i_glide_lipo>  (140) 
-0.294549

>  <r_i_glide_hbond>  (140) 
0

>  <r_i_glide_metal>  (140) 
-0

>  <r_i_glide_rewards>  (140) 
-0.950571

>  <r_i_glide_evdw>  (140) 
-25.6272

>  <r_i_glide_ecoul>  (140) 
-0.809086

>  <r_i_glide_erotb>  (140) 
0.440692

>  <r_i_glide_esite>  (140) 
-0.00212084

>  <r_i_glide_emodel>  (140) 
-30.1914

>  <r_i_glide_energy>  (140) 
-26.4362

>  <r_i_glide_einternal>  (140) 
0.736578

>  <r_i_glide_intrahb_reward>  (140) 
-0

>  <i_i_glide_confnum>  (140) 
2

>  <i_i_glide_posenum>  (140) 
3

>  <r_i_glide_eff_state_penalty>  (140) 
0

>  <ligand_id>  (140) 
41

>  <original_smiles>  (140) 
Cn1nc(-c2noc(-c3cccnc3)n2)cc1C12CC3CC(CC(C3)C1)C2

>  <smiles>  (140) 
[H]c1nc([H])c(-c2nc(-c3nn(C([H])([H])[H])c(C45C([H])([H])C6([H])C([H])([H])C([H])(C([H])([H])C([H])(C6([H])[H])C4([H])[H])C5([H])[H])c3[H])no2)c([H])c1[H]

$$$$
43:0:0
     RDKit          3D

 70 76  0  0  1  0  0  0  0  0999 V2000
    2.8667    0.8733    3.8187 C   0  0  0  0  0  0  0  0  0  0  0  0
    3.3115   -0.6041    3.6088 C   0  0  2  0  0  0  0  0  0  0  0  0
    4.5970   -0.7807    4.3960 C   0  0  0  0  0  0  0  0  0  0  0  0
    4.9504   -2.2269    4.3108 C   0  0  0  0  0  0  0  0  0  0  0  0
    5.4017   -2.8233    5.2908 O   0  0  0  0  0  0  0  0  0  0  0  0
    4.7592   -2.9052    2.9491 C   0  0  2  0  0  0  0  0  0  0  0  0
    5.9179   -2.8104    2.2374 O   0  0  0  0  0  0  0  0  0  0  0  0
    5.9408   -3.4239    0.9724 C   0  0  1  0  0  0  0  0  0  0  0  0
    7.1340   -4.3282    1.3785 C   0  0  0  0  0  0  0  0  0  0  0  0
    6.7237   -5.0508    2.6081 O   0  0  0  0  0  0  0  0  0  0  0  0
    5.6725   -6.0223    2.8418 C   0  0  2  0  0  0  0  0  0  0  0  0
    5.9520   -7.2231    2.2060 O   0  0  0  0  0  0  0  0  0  0  0  0
    4.8313   -8.0238    2.2848 C   0  0  1  0  0  0  0  0  0  0  0  0
    4.7167   -8.6160    3.5600 O   0  0  0  0  0  0  0  0  0  0  0  0
    3.6702   -7.0524    1.9346 C   0  0  1  0  0  0  0  0  0  0  0  0
    2.2304   -7.6265    2.1969 C   0  0  0  0  0  0  0  0  0  0  0  0
    1.1841   -6.7670    1.4448 C   0  0  0  0  0  0  0  0  0  0  0  0
    2.0845   -9.0721    1.6822 C   0  0  0  0  0  0  0  0  0  0  0  0
    1.8616   -7.5819    3.6900 C   0  0  0  0  0  0  0  0  0  0  0  0
    2.3329   -6.3229    4.3747 C   0  0  0  0  0  0  0  0  0  0  0  0
    3.2974   -5.5125    3.9058 C   0  0  0  0  0  0  0  0  0  0  0  0
    4.0833   -5.6798    2.5872 C   0  0  1  0  0  0  0  0  0  0  0  0
    3.7883   -4.4294    1.5923 C   0  0  2  0  0  0  0  0  0  0  0  0
    4.9075   -4.4891    0.5562 C   0  0  1  0  0  0  0  0  0  0  0  0
    4.6590   -4.9261   -0.9018 C   0  0  0  0  0  0  0  0  0  0  0  0
    3.3873   -2.8785    2.1408 C   0  0  1  0  0  0  0  0  0  0  0  0
    2.9100   -2.6900    0.6324 C   0  0  0  0  0  0  0  0  0  0  0  0
    3.4136   -2.2829   -0.5727 C   0  0  0  0  0  0  0  0  0  0  0  0
    4.8068   -1.9780   -0.9806 C   0  0  0  0  0  0  0  0  0  0  0  0
    5.0552   -1.5908   -2.1245 O   0  0  0  0  0  0  0  0  0  0  0  0
    5.9653   -2.1314    0.0475 C   0  0  2  0  0  0  0  0  0  0  0  0
    7.1974   -2.1163   -0.6403 O   0  0  0  0  0  0  0  0  0  0  0  0
    5.8425   -0.9706    0.8789 O   0  0  0  0  0  0  0  0  0  0  0  0
    4.5642   -0.3979    1.3164 C   0  0  0  0  0  0  0  0  0  0  0  0
    3.4294   -1.1936    2.1348 C   0  0  2  0  0  0  0  0  0  0  0  0
    2.1712   -0.6061    1.7185 O   0  0  0  0  0  0  0  0  0  0  0  0
    3.5086    1.5884    3.3055 H   0  0  0  0  0  0  0  0  0  0  0  0
    2.8975    1.1237    4.8808 H   0  0  0  0  0  0  0  0  0  0  0  0
    1.8357    1.0513    3.5060 H   0  0  0  0  0  0  0  0  0  0  0  0
    2.5476   -1.1959    4.1134 H   0  0  0  0  0  0  0  0  0  0  0  0
    5.4116   -0.1751    3.9958 H   0  0  0  0  0  0  0  0  0  0  0  0
    4.4661   -0.5029    5.4439 H   0  0  0  0  0  0  0  0  0  0  0  0
    4.9352   -3.8380    3.4090 H   0  0  0  0  0  0  0  0  0  0  0  0
    7.4732   -5.0108    0.5911 H   0  0  0  0  0  0  0  0  0  0  0  0
    7.9951   -3.7105    1.6361 H   0  0  0  0  0  0  0  0  0  0  0  0
    5.7910   -6.2251    3.9076 H   0  0  0  0  0  0  0  0  0  0  0  0
    4.9331   -8.8342    1.5644 H   0  0  0  0  0  0  0  0  0  0  0  0
    5.3696   -9.3001    3.6290 H   0  0  0  0  0  0  0  0  0  0  0  0
    3.7569   -6.9546    0.8532 H   0  0  0  0  0  0  0  0  0  0  0  0
    0.1910   -7.2198    1.4908 H   0  0  0  0  0  0  0  0  0  0  0  0
    1.4371   -6.6478    0.3900 H   0  0  0  0  0  0  0  0  0  0  0  0
    1.0938   -5.7724    1.8878 H   0  0  0  0  0  0  0  0  0  0  0  0
    1.0569   -9.4181    1.7992 H   0  0  0  0  0  0  0  0  0  0  0  0
    2.7084   -9.7768    2.2296 H   0  0  0  0  0  0  0  0  0  0  0  0
    2.3371   -9.1642    0.6239 H   0  0  0  0  0  0  0  0  0  0  0  0
    0.7864   -7.6816    3.8213 H   0  0  0  0  0  0  0  0  0  0  0  0
    2.2912   -8.4254    4.2296 H   0  0  0  0  0  0  0  0  0  0  0  0
    1.8584   -6.0975    5.3195 H   0  0  0  0  0  0  0  0  0  0  0  0
    3.5316   -4.6631    4.5247 H   0  0  0  0  0  0  0  0  0  0  0  0
    2.9150   -4.8436    1.0962 H   0  0  0  0  0  0  0  0  0  0  0  0
    5.3845   -5.4491    0.6514 H   0  0  0  0  0  0  0  0  0  0  0  0
    3.7024   -4.5885   -1.2837 H   0  0  0  0  0  0  0  0  0  0  0  0
    4.6220   -6.0124   -1.0145 H   0  0  0  0  0  0  0  0  0  0  0  0
    5.4395   -4.5976   -1.5895 H   0  0  0  0  0  0  0  0  0  0  0  0
    1.8526   -2.8971    0.5809 H   0  0  0  0  0  0  0  0  0  0  0  0
    2.6954   -2.2486   -1.3795 H   0  0  0  0  0  0  0  0  0  0  0  0
    7.8806   -2.2126    0.0057 H   0  0  0  0  0  0  0  0  0  0  0  0
    4.8733    0.4517    1.9153 H   0  0  0  0  0  0  0  0  0  0  0  0
    4.1134    0.1160    0.4661 H   0  0  0  0  0  0  0  0  0  0  0  0
    2.0281   -0.7698    0.7936 H   0  0  0  0  0  0  0  0  0  0  0  0
  1  2  1  0
  1 37  1  0
  1 38  1  0
  1 39  1  0
  2 35  1  0
  2  3  1  0
  2 40  1  1
  3  4  1  0
  3 41  1  0
  3 42  1  0
  4  5  2  0
  4  6  1  0
  6 26  1  0
  6  7  1  0
  6 43  1  1
  7  8  1  0
  8 24  1  0
  8 31  1  0
  8  9  1  1
  9 10  1  0
  9 44  1  0
  9 45  1  0
 10 11  1  0
 11 22  1  0
 11 12  1  0
 11 46  1  1
 12 13  1  0
 13 14  1  0
 13 15  1  0
 13 47  1  6
 14 48  1  0
 15 22  1  0
 15 16  1  0
 15 49  1  6
 16 17  1  0
 16 18  1  0
 16 19  1  0
 17 50  1  0
 17 51  1  0
 17 52  1  0
 18 53  1  0
 18 54  1  0
 18 55  1  0
 19 20  1  0
 19 56  1  0
 19 57  1  0
 20 21  2  0
 20 58  1  0
 22 21  1  1
 21 59  1  0
 22 23  1  0
 23 24  1  0
 23 26  1  0
 23 60  1  6
 24 25  1  0
 24 61  1  1
 25 62  1  0
 25 63  1  0
 25 64  1  0
 26 35  1  0
 26 27  1  1
 27 28  2  3
 27 65  1  0
 28 29  1  0
 28 66  1  0
 29 30  2  0
 29 31  1  0
 31 32  1  6
 31 33  1  0
 32 67  1  0
 33 34  1  0
 34 35  1  0
 34 68  1  0
 34 69  1  0
 35 36  1  6
 36 70  1  0
M  END
>  <i_m_ct_stereo_status>  (141) 
1

>  <s_m_source_file>  (141) 
/var/tmp/pbs.5076255.sched01/tmpl63by5lx/41imve8rrw.sdf

>  <i_m_source_file_index>  (141) 
17

>  <i_lp_mmshare_version>  (141) 
48012

>  <i_f3d_flags>  (141) 
3

>  <s_epik_input>  (141) 
TzFbQ0gyXVtDQF0yKFtPSF0pW0NASF0oW0NIM10pW0NIMl1DKD1PKVtDQEhdKE8zKUMyKC9bQ0hdPVtDSF1cQyg9TylbQ0BAXTEoW0NAXTM0NSlbT0hdKVtDQEBIXShbQ0BIXTVbQ0gzXSlbQ0BdNjdbQ0BIXShPW0NIMl00KU9bQ0BASF0oW09IXSlbQ0BASF02QyhbQ0gzXSkoW0NIM10pW0NIMl1bQ0hdPVtDSF03

>  <s_epik_cmdline>  (141) 
J2VwaWtfcHl0aG9uJywgJy1waHQnLCAnMi4wJywgJy1waCcsICc3LjAnLCAnLXRuJywgJzgnLCAnLW1hJywgJzIwMCcsICctaW1hZScsICc8aW5maWxlLm1hZT4nLCAnLW9tYWUnLCAnPG91dGZpbGUubWFlPic=

>  <r_lp_tautomer_probability>  (141) 
1

>  <r_epik_Ionization_Penalty>  (141) 
5.9464e-05

>  <r_epik_Ionization_Penalty_Charging>  (141) 
0

>  <r_epik_Ionization_Penalty_Neutral>  (141) 
5.9464e-05

>  <r_epik_State_Penalty>  (141) 
-0

>  <r_epik_Charging_Adjusted_Penalty>  (141) 
0

>  <i_epik_Tot_Q>  (141) 
0

>  <i_epik_Tot_abs_Q>  (141) 
0

>  <s_epik_Chemistry_Notes>  (141) 
This compound contains an acetal/aminal-like group ( X-CH(R)-Y where X, Y are N, S, or O) that may be acid/base labile, releasing an aldehyde.

>  <s_lp_Force_Field>  (141) 
OPLS3e

>  <r_lp_Energy>  (141) 
344.102

>  <b_lp_Chiralities_Consistent>  (141) 
0

>  <s_lp_Variant>  (141) 
43:0-1

>  <s_i_glide_gridfile>  (141) 
pfpi4k_grid

>  <i_i_glide_lignum>  (141) 
17

>  <i_i_glide_rotatable_bonds>  (141) 
3

>  <r_i_docking_score>  (141) 
-2.94984

>  <r_i_glide_ligand_efficiency>  (141) 
-0.0819401

>  <r_i_glide_ligand_efficiency_sa>  (141) 
-0.27056

>  <r_i_glide_ligand_efficiency_ln>  (141) 
-0.643576

>  <r_i_glide_gscore>  (141) 
-2.94984

>  <r_i_glide_lipo>  (141) 
-0.562191

>  <r_i_glide_hbond>  (141) 
-0.144792

>  <r_i_glide_metal>  (141) 
-0

>  <r_i_glide_rewards>  (141) 
-0.0778799

>  <r_i_glide_evdw>  (141) 
-27.0556

>  <r_i_glide_ecoul>  (141) 
-5.23955

>  <r_i_glide_erotb>  (141) 
0

>  <r_i_glide_esite>  (141) 
-0.026265

>  <r_i_glide_emodel>  (141) 
-38.0605

>  <r_i_glide_energy>  (141) 
-32.2952

>  <r_i_glide_einternal>  (141) 
0.448438

>  <r_i_glide_intrahb_reward>  (141) 
-0

>  <i_i_glide_confnum>  (141) 
2

>  <i_i_glide_posenum>  (141) 
7

>  <r_i_glide_eff_state_penalty>  (141) 
0

>  <ligand_id>  (141) 
43

>  <original_smiles>  (141) 
CC1CC(=O)C2OC34COC5OC(O)C6C(C)(C)CC=CC56C(C3C)C23C=CC(=O)C4(O)OCC13O

>  <smiles>  (141) 
[H]OC1([H])OC2([H])OC([H])([H])C34OC5([H])C(=O)C([H])([H])C([H])(C([H])([H])[H])C6(O[H])C([H])([H])OC3(O[H])C(=O)C([H])=C([H])C56C([H])(C4([H])C([H])([H])[H])C23C([H])=C([H])C([H])([H])C(C([H])([H])[H])(C([H])([H])[H])C13[H]

$$$$
43:0:1
     RDKit          3D

 70 76  0  0  1  0  0  0  0  0999 V2000
    2.6933   -3.2348   -1.5392 C   0  0  0  0  0  0  0  0  0  0  0  0
    2.7992   -3.4313    0.0026 C   0  0  2  0  0  0  0  0  0  0  0  0
    3.9419   -2.5534    0.4749 C   0  0  0  0  0  0  0  0  0  0  0  0
    3.9645   -2.6417    1.9652 C   0  0  0  0  0  0  0  0  0  0  0  0
    4.2103   -1.6498    2.6504 O   0  0  0  0  0  0  0  0  0  0  0  0
    3.7140   -4.0303    2.5751 C   0  0  2  0  0  0  0  0  0  0  0  0
    4.9112   -4.6512    2.7682 O   0  0  0  0  0  0  0  0  0  0  0  0
    4.8810   -5.9268    3.3670 C   0  0  1  0  0  0  0  0  0  0  0  0
    5.8106   -5.4083    4.4990 C   0  0  0  0  0  0  0  0  0  0  0  0
    5.1500   -4.2144    5.0851 O   0  0  0  0  0  0  0  0  0  0  0  0
    3.8890   -4.0975    5.8008 C   0  0  2  0  0  0  0  0  0  0  0  0
    3.9393   -4.7262    7.0403 O   0  0  0  0  0  0  0  0  0  0  0  0
    2.6603   -4.7555    7.5648 C   0  0  1  0  0  0  0  0  0  0  0  0
    2.3070   -3.5045    8.1178 O   0  0  0  0  0  0  0  0  0  0  0  0
    1.7762   -5.1789    6.3617 C   0  0  1  0  0  0  0  0  0  0  0  0
    0.2229   -5.0383    6.5883 C   0  0  0  0  0  0  0  0  0  0  0  0
   -0.5310   -5.8559    5.5112 C   0  0  0  0  0  0  0  0  0  0  0  0
   -0.2257   -5.6007    7.9569 C   0  0  0  0  0  0  0  0  0  0  0  0
   -0.2443   -3.5769    6.4579 C   0  0  0  0  0  0  0  0  0  0  0  0
    0.4529   -2.8423    5.3379 C   0  0  0  0  0  0  0  0  0  0  0  0
    1.6085   -3.2228    4.7717 C   0  0  0  0  0  0  0  0  0  0  0  0
    2.4427   -4.4764    5.1174 C   0  0  1  0  0  0  0  0  0  0  0  0
    2.5197   -5.4765    3.8390 C   0  0  2  0  0  0  0  0  0  0  0  0
    3.6553   -6.4505    4.1673 C   0  0  1  0  0  0  0  0  0  0  0  0
    3.3924   -7.9502    4.5502 C   0  0  0  0  0  0  0  0  0  0  0  0
    2.4432   -4.9353    2.2343 C   0  0  1  0  0  0  0  0  0  0  0  0
    2.1261   -6.4690    1.9487 C   0  0  0  0  0  0  0  0  0  0  0  0
    2.7987   -7.6290    1.6780 C   0  0  0  0  0  0  0  0  0  0  0  0
    4.2584   -7.9180    1.7023 C   0  0  0  0  0  0  0  0  0  0  0  0
    4.6722   -9.0313    1.3748 O   0  0  0  0  0  0  0  0  0  0  0  0
    5.2740   -6.8153    2.1105 C   0  0  2  0  0  0  0  0  0  0  0  0
    6.5293   -7.4104    2.3667 O   0  0  0  0  0  0  0  0  0  0  0  0
    5.3678   -5.9632    0.9597 O   0  0  0  0  0  0  0  0  0  0  0  0
    4.2353   -5.6184    0.1004 C   0  0  0  0  0  0  0  0  0  0  0  0
    2.8870   -4.9010    0.6087 C   0  0  2  0  0  0  0  0  0  0  0  0
    1.8327   -5.3965   -0.2541 O   0  0  0  0  0  0  0  0  0  0  0  0
    3.5212   -3.6858   -2.0852 H   0  0  0  0  0  0  0  0  0  0  0  0
    2.6959   -2.1688   -1.7752 H   0  0  0  0  0  0  0  0  0  0  0  0
    1.7564   -3.6105   -1.9550 H   0  0  0  0  0  0  0  0  0  0  0  0
    1.8848   -2.9851    0.3981 H   0  0  0  0  0  0  0  0  0  0  0  0
    4.9000   -2.8860    0.0773 H   0  0  0  0  0  0  0  0  0  0  0  0
    3.7936   -1.5149    0.1741 H   0  0  0  0  0  0  0  0  0  0  0  0
    3.6192   -3.5629    3.5167 H   0  0  0  0  0  0  0  0  0  0  0  0
    6.0340   -6.1585    5.2623 H   0  0  0  0  0  0  0  0  0  0  0  0
    6.7762   -5.0984    4.0928 H   0  0  0  0  0  0  0  0  0  0  0  0
    3.8688   -3.0326    6.0356 H   0  0  0  0  0  0  0  0  0  0  0  0
    2.6276   -5.4789    8.3800 H   0  0  0  0  0  0  0  0  0  0  0  0
    2.8616   -3.3453    8.8700 H   0  0  0  0  0  0  0  0  0  0  0  0
    1.9630   -6.2489    6.2956 H   0  0  0  0  0  0  0  0  0  0  0  0
   -1.6028   -5.8900    5.7083 H   0  0  0  0  0  0  0  0  0  0  0  0
   -0.1798   -6.8896    5.4566 H   0  0  0  0  0  0  0  0  0  0  0  0
   -0.4216   -5.4159    4.5198 H   0  0  0  0  0  0  0  0  0  0  0  0
   -1.3118   -5.5635    8.0554 H   0  0  0  0  0  0  0  0  0  0  0  0
    0.1750   -5.0204    8.7881 H   0  0  0  0  0  0  0  0  0  0  0  0
    0.0811   -6.6382    8.0910 H   0  0  0  0  0  0  0  0  0  0  0  0
   -1.3206   -3.5313    6.3040 H   0  0  0  0  0  0  0  0  0  0  0  0
   -0.0633   -3.0213    7.3760 H   0  0  0  0  0  0  0  0  0  0  0  0
   -0.0254   -1.9328    5.0034 H   0  0  0  0  0  0  0  0  0  0  0  0
    1.9834   -2.5724    4.0004 H   0  0  0  0  0  0  0  0  0  0  0  0
    1.6101   -6.0386    4.0390 H   0  0  0  0  0  0  0  0  0  0  0  0
    3.9054   -6.3235    5.2072 H   0  0  0  0  0  0  0  0  0  0  0  0
    2.5830   -8.4229    4.0011 H   0  0  0  0  0  0  0  0  0  0  0  0
    3.0944   -8.0710    5.5922 H   0  0  0  0  0  0  0  0  0  0  0  0
    4.2894   -8.5599    4.4324 H   0  0  0  0  0  0  0  0  0  0  0  0
    1.0541   -6.6022    1.8985 H   0  0  0  0  0  0  0  0  0  0  0  0
    2.1801   -8.4910    1.4841 H   0  0  0  0  0  0  0  0  0  0  0  0
    7.1510   -6.7179    2.5231 H   0  0  0  0  0  0  0  0  0  0  0  0
    4.6923   -4.9945   -0.6653 H   0  0  0  0  0  0  0  0  0  0  0  0
    3.9880   -6.5086   -0.4778 H   0  0  0  0  0  0  0  0  0  0  0  0
    2.1926   -5.4513   -1.1384 H   0  0  0  0  0  0  0  0  0  0  0  0
  1  2  1  0
  1 37  1  0
  1 38  1  0
  1 39  1  0
  2 35  1  0
  2  3  1  0
  2 40  1  1
  3  4  1  0
  3 41  1  0
  3 42  1  0
  4  5  2  0
  4  6  1  0
  6 26  1  0
  6  7  1  0
  6 43  1  1
  7  8  1  0
  8 24  1  0
  8 31  1  0
  8  9  1  1
  9 10  1  0
  9 44  1  0
  9 45  1  0
 10 11  1  0
 11 22  1  0
 11 12  1  0
 11 46  1  1
 12 13  1  0
 13 14  1  0
 13 15  1  0
 13 47  1  1
 14 48  1  0
 15 22  1  0
 15 16  1  0
 15 49  1  6
 16 17  1  0
 16 18  1  0
 16 19  1  0
 17 50  1  0
 17 51  1  0
 17 52  1  0
 18 53  1  0
 18 54  1  0
 18 55  1  0
 19 20  1  0
 19 56  1  0
 19 57  1  0
 20 21  2  0
 20 58  1  0
 22 21  1  6
 21 59  1  0
 22 23  1  0
 23 24  1  0
 23 26  1  0
 23 60  1  1
 24 25  1  0
 24 61  1  1
 25 62  1  0
 25 63  1  0
 25 64  1  0
 26 35  1  0
 26 27  1  6
 27 28  2  3
 27 65  1  0
 28 29  1  0
 28 66  1  0
 29 30  2  0
 29 31  1  0
 31 32  1  1
 31 33  1  0
 32 67  1  0
 33 34  1  0
 34 35  1  0
 34 68  1  0
 34 69  1  0
 35 36  1  6
 36 70  1  0
M  END
>  <i_m_ct_stereo_status>  (142) 
1

>  <s_m_source_file>  (142) 
/var/tmp/pbs.5076255.sched01/tmpl63by5lx/41imve8rrw.sdf

>  <i_m_source_file_index>  (142) 
17

>  <i_lp_mmshare_version>  (142) 
48012

>  <i_f3d_flags>  (142) 
3

>  <s_epik_input>  (142) 
TzFbQ0gyXVtDQF0yKFtPSF0pW0NASF0oW0NIM10pW0NIMl1DKD1PKVtDQEhdKE8zKUMyKC9bQ0hdPVtDSF1cQyg9TylbQ0BAXTEoW0NAXTM0NSlbT0hdKVtDQEBIXShbQ0BIXTVbQ0gzXSlbQ0BdNjdbQ0BIXShPW0NIMl00KU9bQ0BASF0oW09IXSlbQ0BASF02QyhbQ0gzXSkoW0NIM10pW0NIMl1bQ0hdPVtDSF03

>  <s_epik_cmdline>  (142) 
J2VwaWtfcHl0aG9uJywgJy1waHQnLCAnMi4wJywgJy1waCcsICc3LjAnLCAnLXRuJywgJzgnLCAnLW1hJywgJzIwMCcsICctaW1hZScsICc8aW5maWxlLm1hZT4nLCAnLW9tYWUnLCAnPG91dGZpbGUubWFlPic=

>  <r_lp_tautomer_probability>  (142) 
1

>  <r_epik_Ionization_Penalty>  (142) 
5.9464e-05

>  <r_epik_Ionization_Penalty_Charging>  (142) 
0

>  <r_epik_Ionization_Penalty_Neutral>  (142) 
5.9464e-05

>  <r_epik_State_Penalty>  (142) 
-0

>  <r_epik_Charging_Adjusted_Penalty>  (142) 
0

>  <i_epik_Tot_Q>  (142) 
0

>  <i_epik_Tot_abs_Q>  (142) 
0

>  <s_epik_Chemistry_Notes>  (142) 
This compound contains an acetal/aminal-like group ( X-CH(R)-Y where X, Y are N, S, or O) that may be acid/base labile, releasing an aldehyde.

>  <s_lp_Force_Field>  (142) 
OPLS3e

>  <r_lp_Energy>  (142) 
344.102

>  <b_lp_Chiralities_Consistent>  (142) 
0

>  <s_lp_Variant>  (142) 
43:0-1

>  <s_i_glide_gridfile>  (142) 
pfpi4k_grid

>  <i_i_glide_lignum>  (142) 
17

>  <i_i_glide_rotatable_bonds>  (142) 
3

>  <r_i_docking_score>  (142) 
-2.8515

>  <r_i_glide_ligand_efficiency>  (142) 
-0.0792084

>  <r_i_glide_ligand_efficiency_sa>  (142) 
-0.26154

>  <r_i_glide_ligand_efficiency_ln>  (142) 
-0.622121

>  <r_i_glide_gscore>  (142) 
-2.8515

>  <r_i_glide_lipo>  (142) 
-0.108219

>  <r_i_glide_hbond>  (142) 
-0.36134

>  <r_i_glide_metal>  (142) 
-0

>  <r_i_glide_rewards>  (142) 
-0.0473235

>  <r_i_glide_evdw>  (142) 
-26.1804

>  <r_i_glide_ecoul>  (142) 
-6.83551

>  <r_i_glide_erotb>  (142) 
0

>  <r_i_glide_esite>  (142) 
-0.000274526

>  <r_i_glide_emodel>  (142) 
-38.6101

>  <r_i_glide_energy>  (142) 
-33.0159

>  <r_i_glide_einternal>  (142) 
0.443029

>  <r_i_glide_intrahb_reward>  (142) 
-0

>  <i_i_glide_confnum>  (142) 
1

>  <i_i_glide_posenum>  (142) 
20

>  <r_i_glide_eff_state_penalty>  (142) 
0

>  <ligand_id>  (142) 
43

>  <original_smiles>  (142) 
CC1CC(=O)C2OC34COC5OC(O)C6C(C)(C)CC=CC56C(C3C)C23C=CC(=O)C4(O)OCC13O

>  <smiles>  (142) 
[H]OC1([H])OC2([H])OC([H])([H])C34OC5([H])C(=O)C([H])([H])C([H])(C([H])([H])[H])C6(O[H])C([H])([H])OC3(O[H])C(=O)C([H])=C([H])C56C([H])(C4([H])C([H])([H])[H])C23C([H])=C([H])C([H])([H])C(C([H])([H])[H])(C([H])([H])[H])C13[H]

$$$$
43:0:2
     RDKit          3D

 70 76  0  0  1  0  0  0  0  0999 V2000
    2.7110   -3.2036   -1.5337 C   0  0  0  0  0  0  0  0  0  0  0  0
    2.8206   -3.4057    0.0071 C   0  0  2  0  0  0  0  0  0  0  0  0
    3.9663   -2.5324    0.4799 C   0  0  0  0  0  0  0  0  0  0  0  0
    3.9933   -2.6284    1.9694 C   0  0  0  0  0  0  0  0  0  0  0  0
    4.2428   -1.6378    2.6598 O   0  0  0  0  0  0  0  0  0  0  0  0
    3.7417   -4.0168    2.5737 C   0  0  2  0  0  0  0  0  0  0  0  0
    4.9389   -4.6420    2.7613 O   0  0  0  0  0  0  0  0  0  0  0  0
    4.9150   -5.9220    3.3539 C   0  0  1  0  0  0  0  0  0  0  0  0
    5.8442   -5.4085    4.4832 C   0  0  0  0  0  0  0  0  0  0  0  0
    5.1850   -4.2203    5.0816 O   0  0  0  0  0  0  0  0  0  0  0  0
    3.9270   -4.1052    5.7986 C   0  0  2  0  0  0  0  0  0  0  0  0
    3.9811   -4.7409    7.0340 O   0  0  0  0  0  0  0  0  0  0  0  0
    2.7027   -4.7700    7.5624 C   0  0  1  0  0  0  0  0  0  0  0  0
    2.3520   -3.5216    8.1233 O   0  0  0  0  0  0  0  0  0  0  0  0
    1.8144   -5.1864    6.3614 C   0  0  1  0  0  0  0  0  0  0  0  0
    0.2625   -5.0486    6.5913 C   0  0  0  0  0  0  0  0  0  0  0  0
   -0.4956   -5.8586    5.5115 C   0  0  0  0  0  0  0  0  0  0  0  0
   -0.1843   -5.6156    7.9574 C   0  0  0  0  0  0  0  0  0  0  0  0
   -0.2046   -3.5841    6.4690 C   0  0  0  0  0  0  0  0  0  0  0  0
    0.4901   -2.8436    5.3510 C   0  0  0  0  0  0  0  0  0  0  0  0
    1.6450   -3.2232    4.7801 C   0  0  0  0  0  0  0  0  0  0  0  0
    2.4773   -4.4802    5.1186 C   0  0  1  0  0  0  0  0  0  0  0  0
    2.5516   -5.4724    3.8340 C   0  0  2  0  0  0  0  0  0  0  0  0
    3.6902   -6.4484    4.1550 C   0  0  1  0  0  0  0  0  0  0  0  0
    3.4257   -7.9491    4.5299 C   0  0  0  0  0  0  0  0  0  0  0  0
    2.4686   -4.9200    2.2340 C   0  0  1  0  0  0  0  0  0  0  0  0
    2.1505   -6.4505    1.9396 C   0  0  0  0  0  0  0  0  0  0  0  0
    2.8223   -7.6119    1.6627 C   0  0  0  0  0  0  0  0  0  0  0  0
    4.2832   -7.9022    1.6813 C   0  0  0  0  0  0  0  0  0  0  0  0
    4.6971   -9.0182    1.3705 O   0  0  0  0  0  0  0  0  0  0  0  0
    5.3051   -6.8016    2.0931 C   0  0  2  0  0  0  0  0  0  0  0  0
    6.5674   -7.3955    2.3299 O   0  0  0  0  0  0  0  0  0  0  0  0
    5.3851   -5.9435    0.9471 O   0  0  0  0  0  0  0  0  0  0  0  0
    4.2532   -5.5948    0.0926 C   0  0  0  0  0  0  0  0  0  0  0  0
    2.9065   -4.8785    0.6034 C   0  0  2  0  0  0  0  0  0  0  0  0
    1.8500   -5.3699   -0.2561 O   0  0  0  0  0  0  0  0  0  0  0  0
    3.5384   -3.6533   -2.0836 H   0  0  0  0  0  0  0  0  0  0  0  0
    2.7134   -2.1373   -1.7650 H   0  0  0  0  0  0  0  0  0  0  0  0
    1.7728   -3.5790   -1.9481 H   0  0  0  0  0  0  0  0  0  0  0  0
    1.9082   -2.9619    0.4072 H   0  0  0  0  0  0  0  0  0  0  0  0
    4.9230   -2.8630    0.0787 H   0  0  0  0  0  0  0  0  0  0  0  0
    3.8182   -1.4931    0.1858 H   0  0  0  0  0  0  0  0  0  0  0  0
    3.6530   -3.5558    3.5195 H   0  0  0  0  0  0  0  0  0  0  0  0
    6.0704   -6.1649    5.2402 H   0  0  0  0  0  0  0  0  0  0  0  0
    6.8097   -5.1003    4.0733 H   0  0  0  0  0  0  0  0  0  0  0  0
    3.9090   -3.0418    6.0399 H   0  0  0  0  0  0  0  0  0  0  0  0
    2.6699   -5.4970    8.3741 H   0  0  0  0  0  0  0  0  0  0  0  0
    2.9223   -3.3563    8.8590 H   0  0  0  0  0  0  0  0  0  0  0  0
    1.9989   -6.2576    6.2872 H   0  0  0  0  0  0  0  0  0  0  0  0
   -1.5687   -5.8892    5.7097 H   0  0  0  0  0  0  0  0  0  0  0  0
   -0.1481   -6.8923    5.4509 H   0  0  0  0  0  0  0  0  0  0  0  0
   -0.3872   -5.4116    4.5205 H   0  0  0  0  0  0  0  0  0  0  0  0
   -1.2706   -5.5758    8.0596 H   0  0  0  0  0  0  0  0  0  0  0  0
    0.2196   -5.0422    8.7897 H   0  0  0  0  0  0  0  0  0  0  0  0
    0.1181   -6.6557    8.0834 H   0  0  0  0  0  0  0  0  0  0  0  0
   -1.2815   -3.5350    6.3208 H   0  0  0  0  0  0  0  0  0  0  0  0
   -0.0181   -3.0328    7.3886 H   0  0  0  0  0  0  0  0  0  0  0  0
    0.0114   -1.9330    5.0211 H   0  0  0  0  0  0  0  0  0  0  0  0
    2.0190   -2.5693    4.0096 H   0  0  0  0  0  0  0  0  0  0  0  0
    1.6431   -6.0341    4.0340 H   0  0  0  0  0  0  0  0  0  0  0  0
    3.9416   -6.3269    5.1922 H   0  0  0  0  0  0  0  0  0  0  0  0
    2.6136   -8.4191    3.9809 H   0  0  0  0  0  0  0  0  0  0  0  0
    3.1292   -8.0762    5.5732 H   0  0  0  0  0  0  0  0  0  0  0  0
    4.3210   -8.5618    4.4093 H   0  0  0  0  0  0  0  0  0  0  0  0
    1.0775   -6.5848    1.8959 H   0  0  0  0  0  0  0  0  0  0  0  0
    2.2013   -8.4717    1.4668 H   0  0  0  0  0  0  0  0  0  0  0  0
    6.4709   -8.0244    3.0282 H   0  0  0  0  0  0  0  0  0  0  0  0
    4.7088   -4.9659   -0.6718 H   0  0  0  0  0  0  0  0  0  0  0  0
    4.0043   -6.4805   -0.4934 H   0  0  0  0  0  0  0  0  0  0  0  0
    2.2108   -5.4453   -1.1369 H   0  0  0  0  0  0  0  0  0  0  0  0
  1  2  1  0
  1 37  1  0
  1 38  1  0
  1 39  1  0
  2 35  1  0
  2  3  1  0
  2 40  1  1
  3  4  1  0
  3 41  1  0
  3 42  1  0
  4  5  2  0
  4  6  1  0
  6 26  1  0
  6  7  1  0
  6 43  1  1
  7  8  1  0
  8 24  1  0
  8 31  1  0
  8  9  1  1
  9 10  1  0
  9 44  1  0
  9 45  1  0
 10 11  1  0
 11 22  1  0
 11 12  1  0
 11 46  1  1
 12 13  1  0
 13 14  1  0
 13 15  1  0
 13 47  1  1
 14 48  1  0
 15 22  1  0
 15 16  1  0
 15 49  1  6
 16 17  1  0
 16 18  1  0
 16 19  1  0
 17 50  1  0
 17 51  1  0
 17 52  1  0
 18 53  1  0
 18 54  1  0
 18 55  1  0
 19 20  1  0
 19 56  1  0
 19 57  1  0
 20 21  2  0
 20 58  1  0
 22 21  1  6
 21 59  1  0
 22 23  1  0
 23 24  1  0
 23 26  1  0
 23 60  1  1
 24 25  1  0
 24 61  1  1
 25 62  1  0
 25 63  1  0
 25 64  1  0
 26 35  1  0
 26 27  1  6
 27 28  2  3
 27 65  1  0
 28 29  1  0
 28 66  1  0
 29 30  2  0
 29 31  1  0
 31 32  1  1
 31 33  1  0
 32 67  1  0
 33 34  1  0
 34 35  1  0
 34 68  1  0
 34 69  1  0
 35 36  1  6
 36 70  1  0
M  END
>  <i_m_ct_stereo_status>  (143) 
1

>  <s_m_source_file>  (143) 
/var/tmp/pbs.5076255.sched01/tmpl63by5lx/41imve8rrw.sdf

>  <i_m_source_file_index>  (143) 
17

>  <i_lp_mmshare_version>  (143) 
48012

>  <i_f3d_flags>  (143) 
3

>  <s_epik_input>  (143) 
TzFbQ0gyXVtDQF0yKFtPSF0pW0NASF0oW0NIM10pW0NIMl1DKD1PKVtDQEhdKE8zKUMyKC9bQ0hdPVtDSF1cQyg9TylbQ0BAXTEoW0NAXTM0NSlbT0hdKVtDQEBIXShbQ0BIXTVbQ0gzXSlbQ0BdNjdbQ0BIXShPW0NIMl00KU9bQ0BASF0oW09IXSlbQ0BASF02QyhbQ0gzXSkoW0NIM10pW0NIMl1bQ0hdPVtDSF03

>  <s_epik_cmdline>  (143) 
J2VwaWtfcHl0aG9uJywgJy1waHQnLCAnMi4wJywgJy1waCcsICc3LjAnLCAnLXRuJywgJzgnLCAnLW1hJywgJzIwMCcsICctaW1hZScsICc8aW5maWxlLm1hZT4nLCAnLW9tYWUnLCAnPG91dGZpbGUubWFlPic=

>  <r_lp_tautomer_probability>  (143) 
1

>  <r_epik_Ionization_Penalty>  (143) 
5.9464e-05

>  <r_epik_Ionization_Penalty_Charging>  (143) 
0

>  <r_epik_Ionization_Penalty_Neutral>  (143) 
5.9464e-05

>  <r_epik_State_Penalty>  (143) 
-0

>  <r_epik_Charging_Adjusted_Penalty>  (143) 
0

>  <i_epik_Tot_Q>  (143) 
0

>  <i_epik_Tot_abs_Q>  (143) 
0

>  <s_epik_Chemistry_Notes>  (143) 
This compound contains an acetal/aminal-like group ( X-CH(R)-Y where X, Y are N, S, or O) that may be acid/base labile, releasing an aldehyde.

>  <s_lp_Force_Field>  (143) 
OPLS3e

>  <r_lp_Energy>  (143) 
344.102

>  <b_lp_Chiralities_Consistent>  (143) 
0

>  <s_lp_Variant>  (143) 
43:0-1

>  <s_i_glide_gridfile>  (143) 
pfpi4k_grid

>  <i_i_glide_lignum>  (143) 
17

>  <i_i_glide_rotatable_bonds>  (143) 
3

>  <r_i_docking_score>  (143) 
-2.80917

>  <r_i_glide_ligand_efficiency>  (143) 
-0.0780324

>  <r_i_glide_ligand_efficiency_sa>  (143) 
-0.257657

>  <r_i_glide_ligand_efficiency_ln>  (143) 
-0.612884

>  <r_i_glide_gscore>  (143) 
-2.80917

>  <r_i_glide_lipo>  (143) 
-0.0864742

>  <r_i_glide_hbond>  (143) 
-0.358889

>  <r_i_glide_metal>  (143) 
-0

>  <r_i_glide_rewards>  (143) 
-0.0546607

>  <r_i_glide_evdw>  (143) 
-26.1049

>  <r_i_glide_ecoul>  (143) 
-6.69159

>  <r_i_glide_erotb>  (143) 
0

>  <r_i_glide_esite>  (143) 
-0.000160126

>  <r_i_glide_emodel>  (143) 
-36.5948

>  <r_i_glide_energy>  (143) 
-32.7965

>  <r_i_glide_einternal>  (143) 
3.71666

>  <r_i_glide_intrahb_reward>  (143) 
-0

>  <i_i_glide_confnum>  (143) 
2

>  <i_i_glide_posenum>  (143) 
34

>  <r_i_glide_eff_state_penalty>  (143) 
0

>  <ligand_id>  (143) 
43

>  <original_smiles>  (143) 
CC1CC(=O)C2OC34COC5OC(O)C6C(C)(C)CC=CC56C(C3C)C23C=CC(=O)C4(O)OCC13O

>  <smiles>  (143) 
[H]OC1([H])OC2([H])OC([H])([H])C34OC5([H])C(=O)C([H])([H])C([H])(C([H])([H])[H])C6(O[H])C([H])([H])OC3(O[H])C(=O)C([H])=C([H])C56C([H])(C4([H])C([H])([H])[H])C23C([H])=C([H])C([H])([H])C(C([H])([H])[H])(C([H])([H])[H])C13[H]

$$$$
43:1:0
     RDKit          3D

 70 76  0  0  1  0  0  0  0  0999 V2000
   -2.6445    3.3820   10.8269 C   0  0  0  0  0  0  0  0  0  0  0  0
   -1.8477    3.4665    9.4955 C   0  0  2  0  0  0  0  0  0  0  0  0
   -2.7322    2.8584    8.4237 C   0  0  0  0  0  0  0  0  0  0  0  0
   -2.0306    3.0516    7.1155 C   0  0  0  0  0  0  0  0  0  0  0  0
   -2.6735    3.3448    6.1045 O   0  0  0  0  0  0  0  0  0  0  0  0
   -0.4977    2.8242    7.1188 C   0  0  2  0  0  0  0  0  0  0  0  0
   -0.2449    1.5166    6.7954 O   0  0  0  0  0  0  0  0  0  0  0  0
    1.1020    1.1348    6.6553 C   0  0  1  0  0  0  0  0  0  0  0  0
    0.8489    0.7367    5.1806 C   0  0  0  0  0  0  0  0  0  0  0  0
    0.2759    1.9103    4.4842 O   0  0  0  0  0  0  0  0  0  0  0  0
    0.8406    3.2202    4.2057 C   0  0  2  0  0  0  0  0  0  0  0  0
    1.8904    3.1328    3.3047 O   0  0  0  0  0  0  0  0  0  0  0  0
    2.5313    4.3565    3.2554 C   0  0  1  0  0  0  0  0  0  0  0  0
    1.8111    5.2945    2.4926 O   0  0  0  0  0  0  0  0  0  0  0  0
    2.6495    4.7862    4.7379 C   0  0  1  0  0  0  0  0  0  0  0  0
    3.0855    6.2877    4.9945 C   0  0  0  0  0  0  0  0  0  0  0  0
    3.5394    6.4608    6.4732 C   0  0  0  0  0  0  0  0  0  0  0  0
    4.2701    6.7227    4.0995 C   0  0  0  0  0  0  0  0  0  0  0  0
    1.9170    7.2725    4.7755 C   0  0  0  0  0  0  0  0  0  0  0  0
    0.6092    6.7354    5.3092 C   0  0  0  0  0  0  0  0  0  0  0  0
    0.3545    5.4421    5.5703 C   0  0  0  0  0  0  0  0  0  0  0  0
    1.3223    4.2472    5.4000 C   0  0  1  0  0  0  0  0  0  0  0  0
    1.6111    3.5394    6.8391 C   0  0  2  0  0  0  0  0  0  0  0  0
    2.2557    2.1851    6.4994 C   0  0  1  0  0  0  0  0  0  0  0  0
    3.7819    1.9101    6.7443 C   0  0  0  0  0  0  0  0  0  0  0  0
    0.5224    3.5538    8.1504 C   0  0  1  0  0  0  0  0  0  0  0  0
    1.8312    3.1793    8.9745 C   0  0  0  0  0  0  0  0  0  0  0  0
    2.4972    2.0331    9.3891 C   0  0  0  0  0  0  0  0  0  0  0  0
    2.3849    0.5658    8.9917 C   0  0  0  0  0  0  0  0  0  0  0  0
    3.1241   -0.2808    9.5264 O   0  0  0  0  0  0  0  0  0  0  0  0
    1.2223    0.1967    7.9438 C   0  0  2  0  0  0  0  0  0  0  0  0
    1.4406   -1.1351    7.5239 O   0  0  0  0  0  0  0  0  0  0  0  0
   -0.0148    0.2562    8.7031 O   0  0  0  0  0  0  0  0  0  0  0  0
   -0.4020    1.2851    9.6999 C   0  0  0  0  0  0  0  0  0  0  0  0
   -0.3725    2.8788    9.4289 C   0  0  2  0  0  0  0  0  0  0  0  0
    0.0305    3.4449   10.6968 O   0  0  0  0  0  0  0  0  0  0  0  0
   -2.7266    2.3624   11.1914 H   0  0  0  0  0  0  0  0  0  0  0  0
   -3.6678    3.7400   10.6990 H   0  0  0  0  0  0  0  0  0  0  0  0
   -2.2260    3.9899   11.6300 H   0  0  0  0  0  0  0  0  0  0  0  0
   -1.7858    4.5363    9.2893 H   0  0  0  0  0  0  0  0  0  0  0  0
   -2.8968    1.7932    8.5860 H   0  0  0  0  0  0  0  0  0  0  0  0
   -3.7098    3.3412    8.3905 H   0  0  0  0  0  0  0  0  0  0  0  0
   -0.4852    3.2545    6.1470 H   0  0  0  0  0  0  0  0  0  0  0  0
    1.7403    0.3701    4.6710 H   0  0  0  0  0  0  0  0  0  0  0  0
    0.1188   -0.0737    5.1072 H   0  0  0  0  0  0  0  0  0  0  0  0
    0.0313    3.7057    3.6495 H   0  0  0  0  0  0  0  0  0  0  0  0
    3.4923    4.2262    2.7581 H   0  0  0  0  0  0  0  0  0  0  0  0
    1.2714    4.8297    1.8597 H   0  0  0  0  0  0  0  0  0  0  0  0
    3.4869    4.1878    5.0686 H   0  0  0  0  0  0  0  0  0  0  0  0
    3.9745    7.4461    6.6529 H   0  0  0  0  0  0  0  0  0  0  0  0
    4.2897    5.7235    6.7613 H   0  0  0  0  0  0  0  0  0  0  0  0
    2.7061    6.3734    7.1741 H   0  0  0  0  0  0  0  0  0  0  0  0
    4.6056    7.7333    4.3393 H   0  0  0  0  0  0  0  0  0  0  0  0
    4.0003    6.7329    3.0430 H   0  0  0  0  0  0  0  0  0  0  0  0
    5.1277    6.0650    4.2141 H   0  0  0  0  0  0  0  0  0  0  0  0
    2.1352    8.2474    5.2200 H   0  0  0  0  0  0  0  0  0  0  0  0
    1.7619    7.4761    3.7162 H   0  0  0  0  0  0  0  0  0  0  0  0
   -0.1744    7.4609    5.4660 H   0  0  0  0  0  0  0  0  0  0  0  0
   -0.6392    5.2411    5.9326 H   0  0  0  0  0  0  0  0  0  0  0  0
    2.4451    4.1875    7.1218 H   0  0  0  0  0  0  0  0  0  0  0  0
    2.5125    2.2092    5.4530 H   0  0  0  0  0  0  0  0  0  0  0  0
    4.1831    2.3678    7.6448 H   0  0  0  0  0  0  0  0  0  0  0  0
    4.4298    2.3198    5.9667 H   0  0  0  0  0  0  0  0  0  0  0  0
    3.9955    0.8433    6.7743 H   0  0  0  0  0  0  0  0  0  0  0  0
    2.2564    4.0917    9.3866 H   0  0  0  0  0  0  0  0  0  0  0  0
    1.7040    1.6549    9.2093 H   0  0  0  0  0  0  0  0  0  0  0  0
    2.2585   -1.1470    7.0574 H   0  0  0  0  0  0  0  0  0  0  0  0
   -1.3860    1.0186   10.0340 H   0  0  0  0  0  0  0  0  0  0  0  0
    0.2002    1.0726   10.5903 H   0  0  0  0  0  0  0  0  0  0  0  0
   -0.5545    3.1227   11.3738 H   0  0  0  0  0  0  0  0  0  0  0  0
  1  2  1  0
  1 37  1  0
  1 38  1  0
  1 39  1  0
  2 35  1  0
  2  3  1  0
  2 40  1  6
  3  4  1  0
  3 41  1  0
  3 42  1  0
  4  5  2  0
  4  6  1  0
  6 26  1  0
  6  7  1  0
  6 43  1  6
  7  8  1  0
  8 24  1  0
  8 31  1  0
  8  9  1  6
  9 10  1  0
  9 44  1  0
  9 45  1  0
 10 11  1  0
 11 22  1  0
 11 12  1  0
 11 46  1  6
 12 13  1  0
 13 14  1  0
 13 15  1  0
 13 47  1  6
 14 48  1  0
 15 22  1  0
 15 16  1  0
 15 49  1  1
 16 17  1  0
 16 18  1  0
 16 19  1  0
 17 50  1  0
 17 51  1  0
 17 52  1  0
 18 53  1  0
 18 54  1  0
 18 55  1  0
 19 20  1  0
 19 56  1  0
 19 57  1  0
 20 21  2  0
 20 58  1  0
 22 21  1  1
 21 59  1  0
 22 23  1  0
 23 24  1  0
 23 26  1  0
 23 60  1  1
 24 25  1  0
 24 61  1  6
 25 62  1  0
 25 63  1  0
 25 64  1  0
 26 35  1  0
 26 27  1  1
 27 28  2  3
 27 65  1  0
 28 29  1  0
 28 66  1  0
 29 30  2  0
 29 31  1  0
 31 32  1  6
 31 33  1  0
 32 67  1  0
 33 34  1  0
 34 35  1  0
 34 68  1  0
 34 69  1  0
 35 36  1  1
 36 70  1  0
M  END
>  <i_m_ct_stereo_status>  (144) 
1

>  <s_m_source_file>  (144) 
/var/tmp/pbs.5076255.sched01/tmpl63by5lx/41imve8rrw.sdf

>  <i_m_source_file_index>  (144) 
18

>  <i_lp_mmshare_version>  (144) 
48012

>  <i_f3d_flags>  (144) 
3

>  <s_epik_input>  (144) 
TzFbQ0gyXVtDQF0yKFtPSF0pW0NASF0oW0NIM10pW0NIMl1DKD1PKVtDQEhdKE8zKUMyKC9bQ0hdPVtDSF1cQyg9TylbQ0BAXTEoW0NAXTM0NSlbT0hdKVtDQEBIXShbQ0BIXTVbQ0gzXSlbQ0BdNjdbQ0BIXShPW0NIMl00KU9bQ0BASF0oW09IXSlbQ0BASF02QyhbQ0gzXSkoW0NIM10pW0NIMl1bQ0hdPVtDSF03

>  <s_epik_cmdline>  (144) 
J2VwaWtfcHl0aG9uJywgJy1waHQnLCAnMi4wJywgJy1waCcsICc3LjAnLCAnLXRuJywgJzgnLCAnLW1hJywgJzIwMCcsICctaW1hZScsICc8aW5maWxlLm1hZT4nLCAnLW9tYWUnLCAnPG91dGZpbGUubWFlPic=

>  <r_lp_tautomer_probability>  (144) 
1

>  <r_epik_Ionization_Penalty>  (144) 
5.9464e-05

>  <r_epik_Ionization_Penalty_Charging>  (144) 
0

>  <r_epik_Ionization_Penalty_Neutral>  (144) 
5.9464e-05

>  <r_epik_State_Penalty>  (144) 
-0

>  <r_epik_Charging_Adjusted_Penalty>  (144) 
0

>  <i_epik_Tot_Q>  (144) 
0

>  <i_epik_Tot_abs_Q>  (144) 
0

>  <s_epik_Chemistry_Notes>  (144) 
This compound contains an acetal/aminal-like group ( X-CH(R)-Y where X, Y are N, S, or O) that may be acid/base labile, releasing an aldehyde.

>  <s_lp_Force_Field>  (144) 
OPLS3e

>  <r_lp_Energy>  (144) 
344.102

>  <b_lp_Chiralities_Consistent>  (144) 
0

>  <s_lp_Variant>  (144) 
43:0-2

>  <s_i_glide_gridfile>  (144) 
pfpi4k_grid

>  <i_i_glide_lignum>  (144) 
18

>  <i_i_glide_rotatable_bonds>  (144) 
3

>  <r_i_docking_score>  (144) 
-1.04655

>  <r_i_glide_ligand_efficiency>  (144) 
-0.0290709

>  <r_i_glide_ligand_efficiency_sa>  (144) 
-0.0959899

>  <r_i_glide_ligand_efficiency_ln>  (144) 
-0.228329

>  <r_i_glide_gscore>  (144) 
-1.04655

>  <r_i_glide_lipo>  (144) 
-0.146834

>  <r_i_glide_hbond>  (144) 
0

>  <r_i_glide_metal>  (144) 
-0

>  <r_i_glide_rewards>  (144) 
-0.0938936

>  <r_i_glide_evdw>  (144) 
-21.7964

>  <r_i_glide_ecoul>  (144) 
-6.71514

>  <r_i_glide_erotb>  (144) 
0

>  <r_i_glide_esite>  (144) 
-0.0588847

>  <r_i_glide_emodel>  (144) 
-21.6783

>  <r_i_glide_energy>  (144) 
-28.5115

>  <r_i_glide_einternal>  (144) 
4.90315

>  <r_i_glide_intrahb_reward>  (144) 
-0

>  <i_i_glide_confnum>  (144) 
1

>  <i_i_glide_posenum>  (144) 
16

>  <r_i_glide_eff_state_penalty>  (144) 
0

>  <ligand_id>  (144) 
43

>  <original_smiles>  (144) 
CC1CC(=O)C2OC34COC5OC(O)C6C(C)(C)CC=CC56C(C3C)C23C=CC(=O)C4(O)OCC13O

>  <smiles>  (144) 
[H]OC1([H])OC2([H])OC([H])([H])C34OC5([H])C(=O)C([H])([H])C([H])(C([H])([H])[H])C6(O[H])C([H])([H])OC3(O[H])C(=O)C([H])=C([H])C56C([H])(C4([H])C([H])([H])[H])C23C([H])=C([H])C([H])([H])C(C([H])([H])[H])(C([H])([H])[H])C13[H]

$$$$
43:1:1
     RDKit          3D

 70 76  0  0  1  0  0  0  0  0999 V2000
   -2.2532    5.5625    8.8831 C   0  0  0  0  0  0  0  0  0  0  0  0
   -1.6178    4.3510    8.1459 C   0  0  2  0  0  0  0  0  0  0  0  0
   -2.4117    3.1335    8.5477 C   0  0  0  0  0  0  0  0  0  0  0  0
   -1.8572    1.9953    7.7376 C   0  0  0  0  0  0  0  0  0  0  0  0
   -2.6129    1.1369    7.2664 O   0  0  0  0  0  0  0  0  0  0  0  0
   -0.3172    1.9443    7.5628 C   0  0  2  0  0  0  0  0  0  0  0  0
    0.2004    1.1618    8.5638 O   0  0  0  0  0  0  0  0  0  0  0  0
    1.5788    0.9004    8.5248 C   0  0  1  0  0  0  0  0  0  0  0  0
    1.2964   -0.6306    8.4635 C   0  0  0  0  0  0  0  0  0  0  0  0
    0.3999   -0.8675    7.3049 O   0  0  0  0  0  0  0  0  0  0  0  0
    0.6114   -0.6654    5.8845 C   0  0  2  0  0  0  0  0  0  0  0  0
    1.5733   -1.5335    5.3867 O   0  0  0  0  0  0  0  0  0  0  0  0
    1.8918   -1.1532    4.0923 C   0  0  1  0  0  0  0  0  0  0  0  0
    0.9076   -1.5684    3.1658 O   0  0  0  0  0  0  0  0  0  0  0  0
    2.0161    0.3885    4.1822 C   0  0  1  0  0  0  0  0  0  0  0  0
    2.1001    1.1552    2.7992 C   0  0  0  0  0  0  0  0  0  0  0  0
    2.6091    2.6045    3.0336 C   0  0  0  0  0  0  0  0  0  0  0  0
    3.0728    0.4743    1.8118 C   0  0  0  0  0  0  0  0  0  0  0  0
    0.7151    1.2818    2.1316 C   0  0  0  0  0  0  0  0  0  0  0  0
   -0.3809    1.5804    3.1293 C   0  0  0  0  0  0  0  0  0  0  0  0
   -0.2909    1.3785    4.4573 C   0  0  0  0  0  0  0  0  0  0  0  0
    0.9208    0.8163    5.2351 C   0  0  1  0  0  0  0  0  0  0  0  0
    1.4872    1.9120    6.2967 C   0  0  2  0  0  0  0  0  0  0  0  0
    2.4165    1.1286    7.2388 C   0  0  1  0  0  0  0  0  0  0  0  0
    3.9766    1.2711    7.1762 C   0  0  0  0  0  0  0  0  0  0  0  0
    0.5579    3.1668    6.9814 C   0  0  1  0  0  0  0  0  0  0  0  0
    1.9870    3.7978    7.2669 C   0  0  0  0  0  0  0  0  0  0  0  0
    2.9041    3.7712    8.2999 C   0  0  0  0  0  0  0  0  0  0  0  0
    3.1051    2.8934    9.5274 C   0  0  0  0  0  0  0  0  0  0  0  0
    4.0761    3.0795   10.2731 O   0  0  0  0  0  0  0  0  0  0  0  0
    2.0296    1.7929    9.7906 C   0  0  2  0  0  0  0  0  0  0  0  0
    2.5267    0.9661   10.8002 O   0  0  0  0  0  0  0  0  0  0  0  0
    0.8873    2.5178   10.3005 O   0  0  0  0  0  0  0  0  0  0  0  0
    0.2944    3.7799    9.8355 C   0  0  0  0  0  0  0  0  0  0  0  0
   -0.0678    4.0828    8.2798 C   0  0  2  0  0  0  0  0  0  0  0  0
    0.2965    5.4688    8.0636 O   0  0  0  0  0  0  0  0  0  0  0  0
   -2.0628    5.5571    9.9526 H   0  0  0  0  0  0  0  0  0  0  0  0
   -3.3377    5.5530    8.7595 H   0  0  0  0  0  0  0  0  0  0  0  0
   -1.9232    6.5270    8.4869 H   0  0  0  0  0  0  0  0  0  0  0  0
   -1.8157    4.5314    7.0912 H   0  0  0  0  0  0  0  0  0  0  0  0
   -2.3082    2.8999    9.6057 H   0  0  0  0  0  0  0  0  0  0  0  0
   -3.4773    3.2562    8.3433 H   0  0  0  0  0  0  0  0  0  0  0  0
   -0.5049    1.1849    6.8469 H   0  0  0  0  0  0  0  0  0  0  0  0
    2.2031   -1.2246    8.3872 H   0  0  0  0  0  0  0  0  0  0  0  0
    0.7835   -0.9807    9.3597 H   0  0  0  0  0  0  0  0  0  0  0  0
   -0.3281   -1.0230    5.4503 H   0  0  0  0  0  0  0  0  0  0  0  0
    2.8242   -1.6353    3.8015 H   0  0  0  0  0  0  0  0  0  0  0  0
    1.1000   -1.1552    2.3373 H   0  0  0  0  0  0  0  0  0  0  0  0
    3.0011    0.5126    4.6307 H   0  0  0  0  0  0  0  0  0  0  0  0
    2.8053    3.1191    2.0900 H   0  0  0  0  0  0  0  0  0  0  0  0
    3.5322    2.6207    3.6050 H   0  0  0  0  0  0  0  0  0  0  0  0
    1.8799    3.2274    3.5623 H   0  0  0  0  0  0  0  0  0  0  0  0
    3.1742    1.0483    0.8974 H   0  0  0  0  0  0  0  0  0  0  0  0
    2.7295   -0.5076    1.5039 H   0  0  0  0  0  0  0  0  0  0  0  0
    4.0659    0.3638    2.2334 H   0  0  0  0  0  0  0  0  0  0  0  0
    0.7267    2.0548    1.3584 H   0  0  0  0  0  0  0  0  0  0  0  0
    0.4306    0.3717    1.6067 H   0  0  0  0  0  0  0  0  0  0  0  0
   -1.2987    1.9782    2.7174 H   0  0  0  0  0  0  0  0  0  0  0  0
   -1.1777    1.6366    5.0151 H   0  0  0  0  0  0  0  0  0  0  0  0
    2.1613    2.4052    5.5941 H   0  0  0  0  0  0  0  0  0  0  0  0
    2.5632    0.1629    6.8007 H   0  0  0  0  0  0  0  0  0  0  0  0
    4.3332    2.2756    6.9636 H   0  0  0  0  0  0  0  0  0  0  0  0
    4.4283    0.6864    6.3731 H   0  0  0  0  0  0  0  0  0  0  0  0
    4.4443    0.9265    8.0963 H   0  0  0  0  0  0  0  0  0  0  0  0
    2.2586    4.4881    6.4629 H   0  0  0  0  0  0  0  0  0  0  0  0
    2.1123    3.5620    8.6878 H   0  0  0  0  0  0  0  0  0  0  0  0
    2.7119    1.4829   11.5739 H   0  0  0  0  0  0  0  0  0  0  0  0
   -0.5664    3.9894   10.4625 H   0  0  0  0  0  0  0  0  0  0  0  0
    1.0102    4.5313   10.1665 H   0  0  0  0  0  0  0  0  0  0  0  0
    1.2220    5.5963    8.2011 H   0  0  0  0  0  0  0  0  0  0  0  0
  1  2  1  0
  1 37  1  0
  1 38  1  0
  1 39  1  0
  2 35  1  0
  2  3  1  0
  2 40  1  6
  3  4  1  0
  3 41  1  0
  3 42  1  0
  4  5  2  0
  4  6  1  0
  6 26  1  0
  6  7  1  0
  6 43  1  6
  7  8  1  0
  8 24  1  0
  8 31  1  0
  8  9  1  1
  9 10  1  0
  9 44  1  0
  9 45  1  0
 10 11  1  0
 11 22  1  0
 11 12  1  0
 11 46  1  6
 12 13  1  0
 13 14  1  0
 13 15  1  0
 13 47  1  6
 14 48  1  0
 15 22  1  0
 15 16  1  0
 15 49  1  1
 16 17  1  0
 16 18  1  0
 16 19  1  0
 17 50  1  0
 17 51  1  0
 17 52  1  0
 18 53  1  0
 18 54  1  0
 18 55  1  0
 19 20  1  0
 19 56  1  0
 19 57  1  0
 20 21  2  0
 20 58  1  0
 22 21  1  6
 21 59  1  0
 22 23  1  0
 23 24  1  0
 23 26  1  0
 23 60  1  6
 24 25  1  0
 24 61  1  6
 25 62  1  0
 25 63  1  0
 25 64  1  0
 26 35  1  0
 26 27  1  6
 27 28  2  3
 27 65  1  0
 28 29  1  0
 28 66  1  0
 29 30  2  0
 29 31  1  0
 31 32  1  1
 31 33  1  0
 32 67  1  0
 33 34  1  0
 34 35  1  0
 34 68  1  0
 34 69  1  0
 35 36  1  6
 36 70  1  0
M  END
>  <i_m_ct_stereo_status>  (145) 
1

>  <s_m_source_file>  (145) 
/var/tmp/pbs.5076255.sched01/tmpl63by5lx/41imve8rrw.sdf

>  <i_m_source_file_index>  (145) 
18

>  <i_lp_mmshare_version>  (145) 
48012

>  <i_f3d_flags>  (145) 
3

>  <s_epik_input>  (145) 
TzFbQ0gyXVtDQF0yKFtPSF0pW0NASF0oW0NIM10pW0NIMl1DKD1PKVtDQEhdKE8zKUMyKC9bQ0hdPVtDSF1cQyg9TylbQ0BAXTEoW0NAXTM0NSlbT0hdKVtDQEBIXShbQ0BIXTVbQ0gzXSlbQ0BdNjdbQ0BIXShPW0NIMl00KU9bQ0BASF0oW09IXSlbQ0BASF02QyhbQ0gzXSkoW0NIM10pW0NIMl1bQ0hdPVtDSF03

>  <s_epik_cmdline>  (145) 
J2VwaWtfcHl0aG9uJywgJy1waHQnLCAnMi4wJywgJy1waCcsICc3LjAnLCAnLXRuJywgJzgnLCAnLW1hJywgJzIwMCcsICctaW1hZScsICc8aW5maWxlLm1hZT4nLCAnLW9tYWUnLCAnPG91dGZpbGUubWFlPic=

>  <r_lp_tautomer_probability>  (145) 
1

>  <r_epik_Ionization_Penalty>  (145) 
5.9464e-05

>  <r_epik_Ionization_Penalty_Charging>  (145) 
0

>  <r_epik_Ionization_Penalty_Neutral>  (145) 
5.9464e-05

>  <r_epik_State_Penalty>  (145) 
-0

>  <r_epik_Charging_Adjusted_Penalty>  (145) 
0

>  <i_epik_Tot_Q>  (145) 
0

>  <i_epik_Tot_abs_Q>  (145) 
0

>  <s_epik_Chemistry_Notes>  (145) 
This compound contains an acetal/aminal-like group ( X-CH(R)-Y where X, Y are N, S, or O) that may be acid/base labile, releasing an aldehyde.

>  <s_lp_Force_Field>  (145) 
OPLS3e

>  <r_lp_Energy>  (145) 
344.102

>  <b_lp_Chiralities_Consistent>  (145) 
0

>  <s_lp_Variant>  (145) 
43:0-2

>  <s_i_glide_gridfile>  (145) 
pfpi4k_grid

>  <i_i_glide_lignum>  (145) 
18

>  <i_i_glide_rotatable_bonds>  (145) 
3

>  <r_i_docking_score>  (145) 
0.0076362

>  <r_i_glide_ligand_efficiency>  (145) 
0.000212117

>  <r_i_glide_ligand_efficiency_sa>  (145) 
0.000700394

>  <r_i_glide_ligand_efficiency_ln>  (145) 
0.00166601

>  <r_i_glide_gscore>  (145) 
0.0076362

>  <r_i_glide_lipo>  (145) 
-0.131233

>  <r_i_glide_hbond>  (145) 
-0.16

>  <r_i_glide_metal>  (145) 
-0

>  <r_i_glide_rewards>  (145) 
0

>  <r_i_glide_evdw>  (145) 
-22.2333

>  <r_i_glide_ecoul>  (145) 
-4.27149

>  <r_i_glide_erotb>  (145) 
0

>  <r_i_glide_esite>  (145) 
-0.0433159

>  <r_i_glide_emodel>  (145) 
-16.6051

>  <r_i_glide_energy>  (145) 
-26.5048

>  <r_i_glide_einternal>  (145) 
3.78335

>  <r_i_glide_intrahb_reward>  (145) 
-0

>  <i_i_glide_confnum>  (145) 
2

>  <i_i_glide_posenum>  (145) 
34

>  <r_i_glide_eff_state_penalty>  (145) 
0

>  <ligand_id>  (145) 
43

>  <original_smiles>  (145) 
CC1CC(=O)C2OC34COC5OC(O)C6C(C)(C)CC=CC56C(C3C)C23C=CC(=O)C4(O)OCC13O

>  <smiles>  (145) 
[H]OC1([H])OC2([H])OC([H])([H])C34OC5([H])C(=O)C([H])([H])C([H])(C([H])([H])[H])C6(O[H])C([H])([H])OC3(O[H])C(=O)C([H])=C([H])C56C([H])(C4([H])C([H])([H])[H])C23C([H])=C([H])C([H])([H])C(C([H])([H])[H])(C([H])([H])[H])C13[H]

$$$$
43:1:2
     RDKit          3D

 70 76  0  0  1  0  0  0  0  0999 V2000
   -4.2806    3.3624    9.2713 C   0  0  0  0  0  0  0  0  0  0  0  0
   -2.8774    3.4711    8.6438 C   0  0  2  0  0  0  0  0  0  0  0  0
   -2.3109    2.0874    8.5776 C   0  0  0  0  0  0  0  0  0  0  0  0
   -1.0040    2.1700    7.8603 C   0  0  0  0  0  0  0  0  0  0  0  0
   -0.6948    1.2794    7.0674 O   0  0  0  0  0  0  0  0  0  0  0  0
   -0.1122    3.3909    8.2187 C   0  0  2  0  0  0  0  0  0  0  0  0
    0.7394    3.0225    9.2313 O   0  0  0  0  0  0  0  0  0  0  0  0
    1.7078    3.9565    9.6342 C   0  0  1  0  0  0  0  0  0  0  0  0
    2.8451    2.9526    9.2725 C   0  0  0  0  0  0  0  0  0  0  0  0
    2.6478    2.5666    7.8544 O   0  0  0  0  0  0  0  0  0  0  0  0
    2.6991    3.3487    6.6412 C   0  0  2  0  0  0  0  0  0  0  0  0
    3.9789    3.8126    6.3876 O   0  0  0  0  0  0  0  0  0  0  0  0
    3.9216    4.7250    5.3474 C   0  0  1  0  0  0  0  0  0  0  0  0
    3.7770    4.0788    4.0966 O   0  0  0  0  0  0  0  0  0  0  0  0
    2.7045    5.6053    5.6968 C   0  0  1  0  0  0  0  0  0  0  0  0
    2.2165    6.5784    4.5463 C   0  0  0  0  0  0  0  0  0  0  0  0
    1.2720    7.6588    5.1419 C   0  0  0  0  0  0  0  0  0  0  0  0
    3.3906    7.3277    3.8770 C   0  0  0  0  0  0  0  0  0  0  0  0
    1.4155    5.8240    3.4699 C   0  0  0  0  0  0  0  0  0  0  0  0
    0.4906    4.7803    4.0530 C   0  0  0  0  0  0  0  0  0  0  0  0
    0.6038    4.2594    5.2858 C   0  0  0  0  0  0  0  0  0  0  0  0
    1.6723    4.6079    6.3483 C   0  0  1  0  0  0  0  0  0  0  0  0
    0.9834    5.2279    7.6767 C   0  0  2  0  0  0  0  0  0  0  0  0
    2.0701    5.1864    8.7648 C   0  0  1  0  0  0  0  0  0  0  0  0
    2.8014    6.4778    9.2653 C   0  0  0  0  0  0  0  0  0  0  0  0
   -0.6192    4.9222    8.1603 C   0  0  1  0  0  0  0  0  0  0  0  0
   -0.3966    6.2537    9.0092 C   0  0  0  0  0  0  0  0  0  0  0  0
    0.0378    6.5806   10.2824 C   0  0  0  0  0  0  0  0  0  0  0  0
    0.7848    5.8156   11.3678 C   0  0  0  0  0  0  0  0  0  0  0  0
    1.1157    6.3798   12.4221 O   0  0  0  0  0  0  0  0  0  0  0  0
    1.1078    4.3086   11.0942 C   0  0  2  0  0  0  0  0  0  0  0  0
    1.9913    3.8823   12.0803 O   0  0  0  0  0  0  0  0  0  0  0  0
   -0.1535    3.6255   11.2738 O   0  0  0  0  0  0  0  0  0  0  0  0
   -1.4945    4.0047   10.8098 C   0  0  0  0  0  0  0  0  0  0  0  0
   -1.8169    4.4462    9.2802 C   0  0  2  0  0  0  0  0  0  0  0  0
   -2.7363    5.5390    9.4107 O   0  0  0  0  0  0  0  0  0  0  0  0
   -4.2587    3.0980   10.3366 H   0  0  0  0  0  0  0  0  0  0  0  0
   -4.8561    2.5750    8.7903 H   0  0  0  0  0  0  0  0  0  0  0  0
   -4.8877    4.2533    9.1412 H   0  0  0  0  0  0  0  0  0  0  0  0
   -3.0544    3.7990    7.6213 H   0  0  0  0  0  0  0  0  0  0  0  0
   -2.1414    1.6825    9.5757 H   0  0  0  0  0  0  0  0  0  0  0  0
   -2.9821    1.4087    8.0426 H   0  0  0  0  0  0  0  0  0  0  0  0
    0.4735    3.1042    7.3877 H   0  0  0  0  0  0  0  0  0  0  0  0
    3.8382    3.3579    9.4305 H   0  0  0  0  0  0  0  0  0  0  0  0
    2.7881    2.0447    9.8735 H   0  0  0  0  0  0  0  0  0  0  0  0
    2.5203    2.5924    5.8674 H   0  0  0  0  0  0  0  0  0  0  0  0
    4.8553    5.2797    5.3149 H   0  0  0  0  0  0  0  0  0  0  0  0
    2.8942    3.7828    4.0077 H   0  0  0  0  0  0  0  0  0  0  0  0
    3.1022    6.2622    6.4653 H   0  0  0  0  0  0  0  0  0  0  0  0
    1.0261    8.4295    4.4047 H   0  0  0  0  0  0  0  0  0  0  0  0
    1.7186    8.1694    5.9932 H   0  0  0  0  0  0  0  0  0  0  0  0
    0.3169    7.2362    5.4616 H   0  0  0  0  0  0  0  0  0  0  0  0
    3.0263    8.0647    3.1591 H   0  0  0  0  0  0  0  0  0  0  0  0
    4.0442    6.6533    3.3198 H   0  0  0  0  0  0  0  0  0  0  0  0
    3.9971    7.8719    4.5933 H   0  0  0  0  0  0  0  0  0  0  0  0
    0.8345    6.5229    2.8619 H   0  0  0  0  0  0  0  0  0  0  0  0
    2.0620    5.3149    2.7524 H   0  0  0  0  0  0  0  0  0  0  0  0
   -0.3007    4.4345    3.3993 H   0  0  0  0  0  0  0  0  0  0  0  0
   -0.1311    3.5075    5.5325 H   0  0  0  0  0  0  0  0  0  0  0  0
    0.9885    6.2613    7.3278 H   0  0  0  0  0  0  0  0  0  0  0  0
    2.9918    4.9469    8.2754 H   0  0  0  0  0  0  0  0  0  0  0  0
    2.1702    7.3605    9.3300 H   0  0  0  0  0  0  0  0  0  0  0  0
    3.5999    6.8051    8.5949 H   0  0  0  0  0  0  0  0  0  0  0  0
    3.2718    6.3161   10.2337 H   0  0  0  0  0  0  0  0  0  0  0  0
   -0.7705    7.1298    8.4650 H   0  0  0  0  0  0  0  0  0  0  0  0
   -0.2392    5.7041   10.3324 H   0  0  0  0  0  0  0  0  0  0  0  0
    1.5804    3.9516   12.9293 H   0  0  0  0  0  0  0  0  0  0  0  0
   -2.1903    3.2261   11.1349 H   0  0  0  0  0  0  0  0  0  0  0  0
   -1.7575    4.8315   11.4686 H   0  0  0  0  0  0  0  0  0  0  0  0
   -3.3969    5.3068   10.0443 H   0  0  0  0  0  0  0  0  0  0  0  0
  1  2  1  0
  1 37  1  0
  1 38  1  0
  1 39  1  0
  2 35  1  0
  2  3  1  0
  2 40  1  6
  3  4  1  0
  3 41  1  0
  3 42  1  0
  4  5  2  0
  4  6  1  0
  6 26  1  0
  6  7  1  0
  6 43  1  6
  7  8  1  0
  8 24  1  0
  8 31  1  0
  8  9  1  1
  9 10  1  0
  9 44  1  0
  9 45  1  0
 10 11  1  0
 11 22  1  0
 11 12  1  0
 11 46  1  6
 12 13  1  0
 13 14  1  0
 13 15  1  0
 13 47  1  6
 14 48  1  0
 15 22  1  0
 15 16  1  0
 15 49  1  1
 16 17  1  0
 16 18  1  0
 16 19  1  0
 17 50  1  0
 17 51  1  0
 17 52  1  0
 18 53  1  0
 18 54  1  0
 18 55  1  0
 19 20  1  0
 19 56  1  0
 19 57  1  0
 20 21  2  0
 20 58  1  0
 22 21  1  6
 21 59  1  0
 22 23  1  0
 23 24  1  0
 23 26  1  0
 23 60  1  6
 24 25  1  0
 24 61  1  6
 25 62  1  0
 25 63  1  0
 25 64  1  0
 26 35  1  0
 26 27  1  6
 27 28  2  3
 27 65  1  0
 28 29  1  0
 28 66  1  0
 29 30  2  0
 29 31  1  0
 31 32  1  1
 31 33  1  0
 32 67  1  0
 33 34  1  0
 34 35  1  0
 34 68  1  0
 34 69  1  0
 35 36  1  1
 36 70  1  0
M  END
>  <i_m_ct_stereo_status>  (146) 
1

>  <s_m_source_file>  (146) 
/var/tmp/pbs.5076255.sched01/tmpl63by5lx/41imve8rrw.sdf

>  <i_m_source_file_index>  (146) 
18

>  <i_lp_mmshare_version>  (146) 
48012

>  <i_f3d_flags>  (146) 
3

>  <s_epik_input>  (146) 
TzFbQ0gyXVtDQF0yKFtPSF0pW0NASF0oW0NIM10pW0NIMl1DKD1PKVtDQEhdKE8zKUMyKC9bQ0hdPVtDSF1cQyg9TylbQ0BAXTEoW0NAXTM0NSlbT0hdKVtDQEBIXShbQ0BIXTVbQ0gzXSlbQ0BdNjdbQ0BIXShPW0NIMl00KU9bQ0BASF0oW09IXSlbQ0BASF02QyhbQ0gzXSkoW0NIM10pW0NIMl1bQ0hdPVtDSF03

>  <s_epik_cmdline>  (146) 
J2VwaWtfcHl0aG9uJywgJy1waHQnLCAnMi4wJywgJy1waCcsICc3LjAnLCAnLXRuJywgJzgnLCAnLW1hJywgJzIwMCcsICctaW1hZScsICc8aW5maWxlLm1hZT4nLCAnLW9tYWUnLCAnPG91dGZpbGUubWFlPic=

>  <r_lp_tautomer_probability>  (146) 
1

>  <r_epik_Ionization_Penalty>  (146) 
5.9464e-05

>  <r_epik_Ionization_Penalty_Charging>  (146) 
0

>  <r_epik_Ionization_Penalty_Neutral>  (146) 
5.9464e-05

>  <r_epik_State_Penalty>  (146) 
-0

>  <r_epik_Charging_Adjusted_Penalty>  (146) 
0

>  <i_epik_Tot_Q>  (146) 
0

>  <i_epik_Tot_abs_Q>  (146) 
0

>  <s_epik_Chemistry_Notes>  (146) 
This compound contains an acetal/aminal-like group ( X-CH(R)-Y where X, Y are N, S, or O) that may be acid/base labile, releasing an aldehyde.

>  <s_lp_Force_Field>  (146) 
OPLS3e

>  <r_lp_Energy>  (146) 
344.102

>  <b_lp_Chiralities_Consistent>  (146) 
0

>  <s_lp_Variant>  (146) 
43:0-2

>  <s_i_glide_gridfile>  (146) 
pfpi4k_grid

>  <i_i_glide_lignum>  (146) 
18

>  <i_i_glide_rotatable_bonds>  (146) 
3

>  <r_i_docking_score>  (146) 
1.27882

>  <r_i_glide_ligand_efficiency>  (146) 
0.0355226

>  <r_i_glide_ligand_efficiency_sa>  (146) 
0.117293

>  <r_i_glide_ligand_efficiency_ln>  (146) 
0.279003

>  <r_i_glide_gscore>  (146) 
1.27882

>  <r_i_glide_lipo>  (146) 
-0.121056

>  <r_i_glide_hbond>  (146) 
0

>  <r_i_glide_metal>  (146) 
-0

>  <r_i_glide_rewards>  (146) 
0

>  <r_i_glide_evdw>  (146) 
-17.3588

>  <r_i_glide_ecoul>  (146) 
-1.3564

>  <r_i_glide_erotb>  (146) 
0

>  <r_i_glide_esite>  (146) 
-0.0139224

>  <r_i_glide_emodel>  (146) 
-6.25075

>  <r_i_glide_energy>  (146) 
-18.7152

>  <r_i_glide_einternal>  (146) 
2.09982

>  <r_i_glide_intrahb_reward>  (146) 
-0

>  <i_i_glide_confnum>  (146) 
1

>  <i_i_glide_posenum>  (146) 
3

>  <r_i_glide_eff_state_penalty>  (146) 
0

>  <ligand_id>  (146) 
43

>  <original_smiles>  (146) 
CC1CC(=O)C2OC34COC5OC(O)C6C(C)(C)CC=CC56C(C3C)C23C=CC(=O)C4(O)OCC13O

>  <smiles>  (146) 
[H]OC1([H])OC2([H])OC([H])([H])C34OC5([H])C(=O)C([H])([H])C([H])(C([H])([H])[H])C6(O[H])C([H])([H])OC3(O[H])C(=O)C([H])=C([H])C56C([H])(C4([H])C([H])([H])[H])C23C([H])=C([H])C([H])([H])C(C([H])([H])[H])(C([H])([H])[H])C13[H]

$$$$
44:0:0
     RDKit          3D

 75 82  0  0  1  0  0  0  0  0999 V2000
    2.5753   -2.9688   -2.3852 C   0  0  0  0  0  0  0  0  0  0  0  0
    2.2287   -3.8474   -1.3206 O   0  0  0  0  0  0  0  0  0  0  0  0
    2.8236   -3.6453   -0.0916 C   0  0  0  0  0  0  0  0  0  0  0  0
    3.6444   -2.5348    0.2529 C   0  0  0  0  0  0  0  0  0  0  0  0
    4.2856   -2.4089    1.5207 C   0  0  0  0  0  0  0  0  0  0  0  0
    4.0585   -3.3975    2.5148 C   0  0  0  0  0  0  0  0  0  0  0  0
    3.1675   -4.3786    2.1199 C   0  0  0  0  0  0  0  0  0  0  0  0
    2.5806   -4.6393    0.8947 C   0  0  0  0  0  0  0  0  0  0  0  0
    1.9722   -5.8891    0.8345 O   0  0  0  0  0  0  0  0  0  0  0  0
    1.7769   -6.2691    2.2233 C   0  0  1  0  0  0  0  0  0  0  0  0
    1.9441   -7.5386    3.1698 C   0  0  1  0  0  0  0  0  0  0  0  0
    2.8975   -8.5340    2.6730 N   0  0  0  0  0  0  0  0  0  0  0  0
    2.2798   -9.5949    1.8811 C   0  0  0  0  0  0  0  0  0  0  0  0
    3.9606   -7.9046    1.8993 C   0  0  0  0  0  0  0  0  0  0  0  0
    4.2541   -6.4711    2.3923 C   0  0  0  0  0  0  0  0  0  0  0  0
    2.9608   -5.6033    2.8288 C   0  0  1  0  0  0  0  0  0  0  0  0
    2.3482   -5.4719    4.2495 C   0  0  2  0  0  0  0  0  0  0  0  0
    2.9869   -4.4533    5.1784 C   0  0  0  0  0  0  0  0  0  0  0  0
    2.4671   -3.5668    5.9366 N   0  0  0  0  0  0  0  0  0  0  0  0
    1.1041   -3.5042    5.9783 N   0  0  0  0  0  0  0  0  0  0  0  0
    0.5829   -2.4497    5.4792 C   0  0  0  0  0  0  0  0  0  0  0  0
   -0.9334   -2.3011    5.4276 C   0  0  0  0  0  0  0  0  0  0  0  0
    1.3270   -1.3796    4.9750 O   0  0  0  0  0  0  0  0  0  0  0  0
    0.8140   -0.4047    4.1386 C   0  0  0  0  0  0  0  0  0  0  0  0
   -0.4189    0.2528    4.4219 C   0  0  0  0  0  0  0  0  0  0  0  0
   -0.9533    1.1165    3.4505 C   0  0  0  0  0  0  0  0  0  0  0  0
   -0.2565    1.4365    2.2495 C   0  0  0  0  0  0  0  0  0  0  0  0
    1.0136    0.8522    2.0259 C   0  0  0  0  0  0  0  0  0  0  0  0
    1.5544   -0.0712    2.9526 C   0  0  0  0  0  0  0  0  0  0  0  0
    4.4452   -4.5728    5.0383 C   0  0  2  0  0  0  0  0  0  0  0  0
    4.9384   -3.6982    3.7867 C   0  0  0  0  0  0  0  0  0  0  0  0
    4.8302   -5.9765    5.1789 O   0  0  0  0  0  0  0  0  0  0  0  0
    3.8991   -7.1349    5.1992 C   0  0  1  0  0  0  0  0  0  0  0  0
    3.9200   -7.7787    6.6028 C   0  0  1  0  0  0  0  0  0  0  0  0
    5.2432   -7.9741    7.0692 O   0  0  0  0  0  0  0  0  0  0  0  0
    3.0168   -7.1008    7.6545 C   0  0  1  0  0  0  0  0  0  0  0  0
    3.5883   -5.8901    8.1261 O   0  0  0  0  0  0  0  0  0  0  0  0
    1.5892   -6.8640    7.1164 C   0  0  0  0  0  0  0  0  0  0  0  0
    1.3447   -7.3727    5.6752 C   0  0  0  0  0  0  0  0  0  0  0  0
    2.4039   -6.9394    4.6236 C   0  0  2  0  0  0  0  0  0  0  0  0
    2.0569   -3.2851   -3.2881 H   0  0  0  0  0  0  0  0  0  0  0  0
    3.6481   -2.9780   -2.6032 H   0  0  0  0  0  0  0  0  0  0  0  0
    2.2636   -1.9415   -2.1850 H   0  0  0  0  0  0  0  0  0  0  0  0
    3.8587   -1.7658   -0.4776 H   0  0  0  0  0  0  0  0  0  0  0  0
    4.9977   -1.6089    1.7005 H   0  0  0  0  0  0  0  0  0  0  0  0
    0.8041   -5.8159    2.4157 H   0  0  0  0  0  0  0  0  0  0  0  0
    0.9710   -8.0227    3.2574 H   0  0  0  0  0  0  0  0  0  0  0  0
    3.0251  -10.3296    1.5932 H   0  0  0  0  0  0  0  0  0  0  0  0
    1.8246   -9.2145    0.9696 H   0  0  0  0  0  0  0  0  0  0  0  0
    1.5166  -10.1235    2.4591 H   0  0  0  0  0  0  0  0  0  0  0  0
    4.8468   -8.5269    1.9360 H   0  0  0  0  0  0  0  0  0  0  0  0
    3.6649   -7.8510    0.8480 H   0  0  0  0  0  0  0  0  0  0  0  0
    5.1102   -6.4567    3.0530 H   0  0  0  0  0  0  0  0  0  0  0  0
    4.7179   -6.0239    1.5167 H   0  0  0  0  0  0  0  0  0  0  0  0
    1.3038   -5.1731    4.2331 H   0  0  0  0  0  0  0  0  0  0  0  0
   -1.3900   -3.2699    5.6862 H   0  0  0  0  0  0  0  0  0  0  0  0
   -1.2479   -2.0414    4.4166 H   0  0  0  0  0  0  0  0  0  0  0  0
   -1.2230   -1.5065    6.1035 H   0  0  0  0  0  0  0  0  0  0  0  0
   -0.9478    0.0854    5.3316 H   0  0  0  0  0  0  0  0  0  0  0  0
   -1.9473    1.5227    3.6157 H   0  0  0  0  0  0  0  0  0  0  0  0
   -0.6912    2.1455    1.5399 H   0  0  0  0  0  0  0  0  0  0  0  0
    1.5668    1.1273    1.1270 H   0  0  0  0  0  0  0  0  0  0  0  0
    2.5201   -0.5400    2.7372 H   0  0  0  0  0  0  0  0  0  0  0  0
    4.8921   -4.1051    5.9221 H   0  0  0  0  0  0  0  0  0  0  0  0
    5.9001   -4.0972    3.4609 H   0  0  0  0  0  0  0  0  0  0  0  0
    5.1539   -2.7094    4.1962 H   0  0  0  0  0  0  0  0  0  0  0  0
    4.4097   -7.8845    4.6070 H   0  0  0  0  0  0  0  0  0  0  0  0
    3.5383   -8.7901    6.4892 H   0  0  0  0  0  0  0  0  0  0  0  0
    5.6449   -7.1198    7.1642 H   0  0  0  0  0  0  0  0  0  0  0  0
    2.9576   -7.7627    8.5238 H   0  0  0  0  0  0  0  0  0  0  0  0
    3.6921   -5.2889    7.3993 H   0  0  0  0  0  0  0  0  0  0  0  0
    0.8846   -7.3623    7.7802 H   0  0  0  0  0  0  0  0  0  0  0  0
    1.3239   -5.8158    7.1826 H   0  0  0  0  0  0  0  0  0  0  0  0
    1.3163   -8.4635    5.7057 H   0  0  0  0  0  0  0  0  0  0  0  0
    0.3485   -7.0738    5.3586 H   0  0  0  0  0  0  0  0  0  0  0  0
  1  2  1  0
  1 41  1  0
  1 42  1  0
  1 43  1  0
  2  3  1  0
  3  8  2  0
  3  4  1  0
  4  5  2  0
  4 44  1  0
  5  6  1  0
  5 45  1  0
  6 31  1  0
  6  7  2  0
  7 16  1  0
  7  8  1  0
  8  9  1  0
  9 10  1  0
 10 16  1  0
 10 11  1  0
 10 46  1  1
 11 40  1  0
 11 12  1  0
 11 47  1  1
 12 13  1  0
 12 14  1  0
 13 48  1  0
 13 49  1  0
 13 50  1  0
 14 15  1  0
 14 51  1  0
 14 52  1  0
 16 15  1  1
 15 53  1  0
 15 54  1  0
 16 17  1  0
 17 40  1  0
 17 18  1  0
 17 55  1  6
 18 19  2  3
 18 30  1  0
 19 20  1  0
 20 21  2  3
 21 22  1  0
 21 23  1  0
 22 56  1  0
 22 57  1  0
 22 58  1  0
 23 24  1  0
 24 29  1  0
 24 25  2  0
 25 26  1  0
 25 59  1  0
 26 27  2  0
 26 60  1  0
 27 28  1  0
 27 61  1  0
 28 29  2  0
 28 62  1  0
 29 63  1  0
 30 31  1  0
 30 32  1  0
 30 64  1  1
 31 65  1  0
 31 66  1  0
 32 33  1  0
 33 40  1  0
 33 34  1  0
 33 67  1  6
 34 35  1  0
 34 36  1  0
 34 68  1  6
 35 69  1  0
 36 37  1  0
 36 38  1  0
 36 70  1  1
 37 71  1  0
 38 39  1  0
 38 72  1  0
 38 73  1  0
 40 39  1  1
 39 74  1  0
 39 75  1  0
M  END
>  <i_m_ct_stereo_status>  (147) 
1

>  <s_m_source_file>  (147) 
/var/tmp/pbs.5076255.sched01/tmpl63by5lx/41imve8rrw.sdf

>  <i_m_source_file_index>  (147) 
19

>  <i_lp_mmshare_version>  (147) 
48012

>  <i_f3d_flags>  (147) 
0

>  <s_epik_input>  (147) 
W0NAXTEyM2M0YzVbY0hdW2NIXWMoT1tDSDNdKWM0T1tDQEhdMVtDQEBIXShOKFtDSDNdKVtDSDJdW0NIMl0yKVtDQF02N1tDQEhdMy9DKFtDQEhdKFtDSDJdNSlPW0NASF02W0NAQEhdKFtPSF0pW0NAQEhdKFtPSF0pW0NIMl1bQ0gyXTcpPU4vTj1DKFxbQ0gzXSlPYzhbY0hdW2NIXVtjSF1bY0hdW2NIXTg=

>  <s_epik_cmdline>  (147) 
J2VwaWtfcHl0aG9uJywgJy1waHQnLCAnMi4wJywgJy1waCcsICc3LjAnLCAnLXRuJywgJzgnLCAnLW1hJywgJzIwMCcsICctaW1hZScsICc8aW5maWxlLm1hZT4nLCAnLW9tYWUnLCAnPG91dGZpbGUubWFlPic=

>  <r_lp_tautomer_probability>  (147) 
1

>  <r_epik_Ionization_Penalty>  (147) 
0.278554

>  <r_epik_Ionization_Penalty_Charging>  (147) 
0

>  <r_epik_Ionization_Penalty_Neutral>  (147) 
0.278554

>  <r_epik_State_Penalty>  (147) 
0.271026

>  <r_epik_Charging_Adjusted_Penalty>  (147) 
0.271026

>  <i_epik_Tot_Q>  (147) 
0

>  <i_epik_Tot_abs_Q>  (147) 
0

>  <s_epik_Chemistry_Notes>  (147) 
This compound has an imine and may undergo hydrolysis.

>  <s_lp_Force_Field>  (147) 
OPLS3e

>  <r_lp_Energy>  (147) 
201.757

>  <b_lp_Chiralities_Consistent>  (147) 
1

>  <s_lp_Variant>  (147) 
44:0-1

>  <s_i_glide_gridfile>  (147) 
pfpi4k_grid

>  <i_i_glide_lignum>  (147) 
19

>  <i_i_glide_rotatable_bonds>  (147) 
6

>  <r_i_docking_score>  (147) 
-1.34235

>  <r_i_glide_ligand_efficiency>  (147) 
-0.0335588

>  <r_i_glide_ligand_efficiency_sa>  (147) 
-0.114769

>  <r_i_glide_ligand_efficiency_ln>  (147) 
-0.286284

>  <r_i_glide_gscore>  (147) 
-1.34235

>  <r_i_glide_lipo>  (147) 
-0.0837446

>  <r_i_glide_hbond>  (147) 
-0.0137852

>  <r_i_glide_metal>  (147) 
-0

>  <r_i_glide_rewards>  (147) 
0

>  <r_i_glide_evdw>  (147) 
-27.5131

>  <r_i_glide_ecoul>  (147) 
-0.0152066

>  <r_i_glide_erotb>  (147) 
0.139098

>  <r_i_glide_esite>  (147) 
-0.00598159

>  <r_i_glide_emodel>  (147) 
-26.1104

>  <r_i_glide_energy>  (147) 
-27.5283

>  <r_i_glide_einternal>  (147) 
2.27951

>  <r_i_glide_intrahb_reward>  (147) 
-0

>  <i_i_glide_confnum>  (147) 
2

>  <i_i_glide_posenum>  (147) 
3

>  <r_i_glide_eff_state_penalty>  (147) 
0

>  <ligand_id>  (147) 
44

>  <original_smiles>  (147) 
COc1ccc2c3c1OC1C4N(C)CCC31C1C(=NN=C(C)Oc3ccccc3)C(C2)OC2C(O)C(O)CCC241

>  <smiles>  (147) 
[H]OC1([H])C([H])([H])C([H])([H])C23C([H])(OC4([H])C(=NN=C(Oc5c([H])c([H])c([H])c([H])c5[H])C([H])([H])[H])C2([H])C25c6c(c(OC([H])([H])[H])c([H])c([H])c6C4([H])[H])OC2([H])C3([H])N(C([H])([H])[H])C([H])([H])C5([H])[H])C1([H])O[H]

$$$$
45:0:0
     RDKit          3D

 43 45  0  0  1  0  0  0  0  0999 V2000
    8.2774   -6.2598    3.1133 C   0  0  0  0  0  0  0  0  0  0  0  0
    6.8078   -5.9052    3.3602 C   0  0  0  0  0  0  0  0  0  0  0  0
    6.2164   -5.4802    2.1472 O   0  0  0  0  0  0  0  0  0  0  0  0
    4.9874   -4.9425    2.1690 C   0  0  0  0  0  0  0  0  0  0  0  0
    4.3297   -4.7094    3.1826 O   0  0  0  0  0  0  0  0  0  0  0  0
    4.4917   -4.6005    0.7490 C   0  0  1  0  0  0  0  0  0  0  0  0
    2.9821   -4.7383    0.4863 C   0  0  0  0  0  0  0  0  0  0  0  0
    2.1328   -5.4422    1.2565 C   0  0  0  0  0  0  0  0  0  0  0  0
    2.4126   -4.1708   -0.6551 N   0  0  0  0  0  0  0  0  0  0  0  0
    3.0912   -3.4549   -1.4717 C   0  0  0  0  0  0  0  0  0  0  0  0
    2.5103   -3.0359   -2.8188 C   0  0  0  0  0  0  0  0  0  0  0  0
    2.7498   -1.5534   -3.1224 C   0  0  0  0  0  0  0  0  0  0  0  0
    4.2326   -1.2022   -3.1158 C   0  0  0  0  0  0  0  0  0  0  0  0
    4.9175   -1.6810   -1.8278 C   0  0  0  0  0  0  0  0  0  0  0  0
    5.8153   -1.0338   -1.3299 O   0  0  0  0  0  0  0  0  0  0  0  0
    4.5531   -3.0445   -1.2333 C   0  0  1  0  0  0  0  0  0  0  0  0
    4.9974   -3.2357    0.2450 C   0  0  1  0  0  0  0  0  0  0  0  0
    4.6503   -2.0715    1.1931 C   0  0  0  0  0  0  0  0  0  0  0  0
    5.6582   -1.4508    1.9591 C   0  0  0  0  0  0  0  0  0  0  0  0
    5.3160   -0.3947    2.8190 C   0  0  0  0  0  0  0  0  0  0  0  0
    3.9677    0.0119    2.8816 C   0  0  0  0  0  0  0  0  0  0  0  0
    2.9949   -0.5659    2.1577 N   0  0  0  0  0  0  0  0  0  0  0  0
    3.3326   -1.5795    1.3376 C   0  0  0  0  0  0  0  0  0  0  0  0
    8.7505   -6.6058    4.0327 H   0  0  0  0  0  0  0  0  0  0  0  0
    8.8383   -5.3956    2.7569 H   0  0  0  0  0  0  0  0  0  0  0  0
    8.3719   -7.0530    2.3710 H   0  0  0  0  0  0  0  0  0  0  0  0
    6.2659   -6.7716    3.7411 H   0  0  0  0  0  0  0  0  0  0  0  0
    6.7307   -5.1209    4.1153 H   0  0  0  0  0  0  0  0  0  0  0  0
    1.0946   -5.5196    0.9754 H   0  0  0  0  0  0  0  0  0  0  0  0
    1.4363   -3.2202   -2.8141 H   0  0  0  0  0  0  0  0  0  0  0  0
    2.4337   -5.9377    2.1656 H   0  0  0  0  0  0  0  0  0  0  0  0
    2.9534   -3.6541   -3.6084 H   0  0  0  0  0  0  0  0  0  0  0  0
    4.9363   -5.3583    0.1011 H   0  0  0  0  0  0  0  0  0  0  0  0
    2.2611   -0.9459   -2.3609 H   0  0  0  0  0  0  0  0  0  0  0  0
    2.3039   -1.2842   -4.0875 H   0  0  0  0  0  0  0  0  0  0  0  0
    4.7303   -1.6807   -3.9563 H   0  0  0  0  0  0  0  0  0  0  0  0
    4.3558   -0.1254   -3.2328 H   0  0  0  0  0  0  0  0  0  0  0  0
    5.1483   -3.7440   -1.8215 H   0  0  0  0  0  0  0  0  0  0  0  0
    6.0871   -3.2990    0.2288 H   0  0  0  0  0  0  0  0  0  0  0  0
    6.6855   -1.7815    1.8800 H   0  0  0  0  0  0  0  0  0  0  0  0
    6.0646    0.1093    3.4188 H   0  0  0  0  0  0  0  0  0  0  0  0
    3.6592    0.8263    3.5176 H   0  0  0  0  0  0  0  0  0  0  0  0
    2.5005   -1.9818    0.7904 H   0  0  0  0  0  0  0  0  0  0  0  0
  1  2  1  0
  1 24  1  0
  1 25  1  0
  1 26  1  0
  2  3  1  0
  2 27  1  0
  2 28  1  0
  3  4  1  0
  4  5  2  0
  4  6  1  0
  6 17  1  0
  6 33  1  6
  6  7  1  0
  7  9  1  0
  7  8  2  0
  8 29  1  0
  8 31  1  0
  9 10  2  0
 10 11  1  0
 10 16  1  0
 11 12  1  0
 11 32  1  0
 11 30  1  0
 12 13  1  0
 12 34  1  0
 12 35  1  0
 13 14  1  0
 13 36  1  0
 13 37  1  0
 14 15  2  0
 14 16  1  0
 16 17  1  0
 16 38  1  6
 17 18  1  0
 17 39  1  6
 18 23  1  0
 18 19  2  0
 19 20  1  0
 19 40  1  0
 20 21  2  0
 20 41  1  0
 21 22  1  0
 21 42  1  0
 22 23  2  0
 23 43  1  0
M  END
>  <i_m_ct_stereo_status>  (148) 
1

>  <s_m_source_file>  (148) 
/var/tmp/pbs.5076255.sched01/tmpl63by5lx/41imve8rrw.sdf

>  <i_m_source_file_index>  (148) 
21

>  <i_lp_mmshare_version>  (148) 
48012

>  <i_f3d_flags>  (148) 
0

>  <s_epik_input>  (148) 
W0NIM11bQ0gyXU9DKD1PKUMoPUMoTj0xKVtDSDNdKVtDQEBIXShbQ0BASF0oQzEyKUMoPU8pW0NIMl1bQ0gyXVtDSDJdMiljM1tjSF1bY0hdW2NIXW5bY0hdMw==

>  <s_epik_cmdline>  (148) 
J2VwaWtfcHl0aG9uJywgJy1waHQnLCAnMi4wJywgJy1waCcsICc3LjAnLCAnLXRuJywgJzgnLCAnLW1hJywgJzIwMCcsICctaW1hZScsICc8aW5maWxlLm1hZT4nLCAnLW9tYWUnLCAnPG91dGZpbGUubWFlPic=

>  <r_lp_tautomer_probability>  (148) 
0.499981

>  <r_epik_Ionization_Penalty>  (148) 
0.0086706

>  <r_epik_Ionization_Penalty_Charging>  (148) 
0

>  <r_epik_Ionization_Penalty_Neutral>  (148) 
0.0086706

>  <r_epik_State_Penalty>  (148) 
0.814914

>  <r_epik_Charging_Adjusted_Penalty>  (148) 
0.814914

>  <i_epik_Tot_Q>  (148) 
0

>  <i_epik_Tot_abs_Q>  (148) 
0

>  <s_epik_Chemistry_Notes>  (148) 
This compound has an ester and may undergo hydrolysis at high or low pH. This compound has an imine and may undergo hydrolysis.

>  <s_lp_Force_Field>  (148) 
OPLS3e

>  <r_lp_Energy>  (148) 
25.6911

>  <b_lp_Chiralities_Consistent>  (148) 
1

>  <s_lp_Variant>  (148) 
45:0-1

>  <s_i_glide_gridfile>  (148) 
pfpi4k_grid

>  <i_i_glide_lignum>  (148) 
21

>  <i_i_glide_rotatable_bonds>  (148) 
4

>  <r_i_docking_score>  (148) 
-2.72546

>  <r_i_glide_ligand_efficiency>  (148) 
-0.118498

>  <r_i_glide_ligand_efficiency_sa>  (148) 
-0.336994

>  <r_i_glide_ligand_efficiency_ln>  (148) 
-0.659042

>  <r_i_glide_gscore>  (148) 
-2.72546

>  <r_i_glide_lipo>  (148) 
-0.496099

>  <r_i_glide_hbond>  (148) 
-0.0658977

>  <r_i_glide_metal>  (148) 
-0

>  <r_i_glide_rewards>  (148) 
-1.44098

>  <r_i_glide_evdw>  (148) 
-23.7586

>  <r_i_glide_ecoul>  (148) 
-0.475089

>  <r_i_glide_erotb>  (148) 
0.570621

>  <r_i_glide_esite>  (148) 
-0.0339113

>  <r_i_glide_emodel>  (148) 
-27.8457

>  <r_i_glide_energy>  (148) 
-24.2337

>  <r_i_glide_einternal>  (148) 
0.915441

>  <r_i_glide_intrahb_reward>  (148) 
-0

>  <i_i_glide_confnum>  (148) 
4

>  <i_i_glide_posenum>  (148) 
34

>  <r_i_glide_eff_state_penalty>  (148) 
0

>  <ligand_id>  (148) 
45

>  <original_smiles>  (148) 
CCOC(=O)C1=C(C)N=C2CCCC(=O)C2C1c1cccnc1

>  <smiles>  (148) 
[H]C([H])=C1N=C2C([H])([H])C([H])([H])C([H])([H])C(=O)C2([H])C([H])(c2c([H])nc([H])c([H])c2[H])C1([H])C(=O)OC([H])([H])C([H])([H])[H]

$$$$
45:0:1
     RDKit          3D

 43 45  0  0  1  0  0  0  0  0999 V2000
    8.2556   -6.2568    3.1279 C   0  0  0  0  0  0  0  0  0  0  0  0
    6.7819   -5.9105    3.3648 C   0  0  0  0  0  0  0  0  0  0  0  0
    6.1974   -5.4789    2.1512 O   0  0  0  0  0  0  0  0  0  0  0  0
    4.9663   -4.9494    2.1690 C   0  0  0  0  0  0  0  0  0  0  0  0
    4.3019   -4.7265    3.1814 O   0  0  0  0  0  0  0  0  0  0  0  0
    4.4702   -4.5974    0.7457 C   0  0  1  0  0  0  0  0  0  0  0  0
    2.9685   -4.7293    0.4791 C   0  0  0  0  0  0  0  0  0  0  0  0
    2.1129   -5.4415    1.2359 C   0  0  0  0  0  0  0  0  0  0  0  0
    2.4081   -4.1632   -0.6839 N   0  0  0  0  0  0  0  0  0  0  0  0
    3.0962   -3.4480   -1.4866 C   0  0  0  0  0  0  0  0  0  0  0  0
    2.5199   -3.0198   -2.8309 C   0  0  0  0  0  0  0  0  0  0  0  0
    2.7679   -1.5323   -3.1212 C   0  0  0  0  0  0  0  0  0  0  0  0
    4.2521   -1.1830   -3.0974 C   0  0  0  0  0  0  0  0  0  0  0  0
    4.9296   -1.6704   -1.8153 C   0  0  0  0  0  0  0  0  0  0  0  0
    5.8165   -1.0140   -1.2949 O   0  0  0  0  0  0  0  0  0  0  0  0
    4.5541   -3.0403   -1.2328 C   0  0  1  0  0  0  0  0  0  0  0  0
    4.9860   -3.2317    0.2477 C   0  0  1  0  0  0  0  0  0  0  0  0
    4.6469   -2.0766    1.2064 C   0  0  0  0  0  0  0  0  0  0  0  0
    3.3730   -1.4660    1.2480 C   0  0  0  0  0  0  0  0  0  0  0  0
    3.1373   -0.4230    2.1567 C   0  0  0  0  0  0  0  0  0  0  0  0
    4.1905   -0.0254    3.0065 C   0  0  0  0  0  0  0  0  0  0  0  0
    5.4118   -0.5860    2.9742 N   0  0  0  0  0  0  0  0  0  0  0  0
    5.6274   -1.5824    2.0947 C   0  0  0  0  0  0  0  0  0  0  0  0
    8.7200   -6.6083    4.0498 H   0  0  0  0  0  0  0  0  0  0  0  0
    8.8149   -5.3863    2.7834 H   0  0  0  0  0  0  0  0  0  0  0  0
    8.3578   -7.0432    2.3796 H   0  0  0  0  0  0  0  0  0  0  0  0
    6.2392   -6.7821    3.7352 H   0  0  0  0  0  0  0  0  0  0  0  0
    6.6943   -5.1295    4.1237 H   0  0  0  0  0  0  0  0  0  0  0  0
    1.0822   -5.5317    0.9470 H   0  0  0  0  0  0  0  0  0  0  0  0
    1.4444   -3.2051   -2.8347 H   0  0  0  0  0  0  0  0  0  0  0  0
    2.4207   -5.9602    2.1383 H   0  0  0  0  0  0  0  0  0  0  0  0
    2.9743   -3.6342   -3.6186 H   0  0  0  0  0  0  0  0  0  0  0  0
    4.9223   -5.3509    0.0980 H   0  0  0  0  0  0  0  0  0  0  0  0
    2.2698   -0.9311   -2.3604 H   0  0  0  0  0  0  0  0  0  0  0  0
    2.3263   -1.2578   -4.0833 H   0  0  0  0  0  0  0  0  0  0  0  0
    4.7510   -1.6527   -3.9439 H   0  0  0  0  0  0  0  0  0  0  0  0
    4.3674   -0.1064   -3.2043 H   0  0  0  0  0  0  0  0  0  0  0  0
    5.1519   -3.7382   -1.8156 H   0  0  0  0  0  0  0  0  0  0  0  0
    6.0746   -3.2962    0.2357 H   0  0  0  0  0  0  0  0  0  0  0  0
    2.5781   -1.7722    0.5913 H   0  0  0  0  0  0  0  0  0  0  0  0
    2.1768    0.0732    2.1979 H   0  0  0  0  0  0  0  0  0  0  0  0
    4.0489    0.7721    3.7189 H   0  0  0  0  0  0  0  0  0  0  0  0
    6.6122   -2.0098    2.1040 H   0  0  0  0  0  0  0  0  0  0  0  0
  1  2  1  0
  1 24  1  0
  1 25  1  0
  1 26  1  0
  2  3  1  0
  2 27  1  0
  2 28  1  0
  3  4  1  0
  4  5  2  0
  4  6  1  0
  6 17  1  0
  6 33  1  6
  6  7  1  0
  7  9  1  0
  7  8  2  0
  8 29  1  0
  8 31  1  0
  9 10  2  0
 10 11  1  0
 10 16  1  0
 11 12  1  0
 11 32  1  0
 11 30  1  0
 12 13  1  0
 12 34  1  0
 12 35  1  0
 13 14  1  0
 13 36  1  0
 13 37  1  0
 14 15  2  0
 14 16  1  0
 16 17  1  0
 16 38  1  6
 17 18  1  0
 17 39  1  6
 18 23  1  0
 18 19  2  0
 19 20  1  0
 19 40  1  0
 20 21  2  0
 20 41  1  0
 21 22  1  0
 21 42  1  0
 22 23  2  0
 23 43  1  0
M  END
>  <i_m_ct_stereo_status>  (149) 
1

>  <s_m_source_file>  (149) 
/var/tmp/pbs.5076255.sched01/tmpl63by5lx/41imve8rrw.sdf

>  <i_m_source_file_index>  (149) 
21

>  <i_lp_mmshare_version>  (149) 
48012

>  <i_f3d_flags>  (149) 
0

>  <s_epik_input>  (149) 
W0NIM11bQ0gyXU9DKD1PKUMoPUMoTj0xKVtDSDNdKVtDQEBIXShbQ0BASF0oQzEyKUMoPU8pW0NIMl1bQ0gyXVtDSDJdMiljM1tjSF1bY0hdW2NIXW5bY0hdMw==

>  <s_epik_cmdline>  (149) 
J2VwaWtfcHl0aG9uJywgJy1waHQnLCAnMi4wJywgJy1waCcsICc3LjAnLCAnLXRuJywgJzgnLCAnLW1hJywgJzIwMCcsICctaW1hZScsICc8aW5maWxlLm1hZT4nLCAnLW9tYWUnLCAnPG91dGZpbGUubWFlPic=

>  <r_lp_tautomer_probability>  (149) 
0.499981

>  <r_epik_Ionization_Penalty>  (149) 
0.0086706

>  <r_epik_Ionization_Penalty_Charging>  (149) 
0

>  <r_epik_Ionization_Penalty_Neutral>  (149) 
0.0086706

>  <r_epik_State_Penalty>  (149) 
0.814914

>  <r_epik_Charging_Adjusted_Penalty>  (149) 
0.814914

>  <i_epik_Tot_Q>  (149) 
0

>  <i_epik_Tot_abs_Q>  (149) 
0

>  <s_epik_Chemistry_Notes>  (149) 
This compound has an ester and may undergo hydrolysis at high or low pH. This compound has an imine and may undergo hydrolysis.

>  <s_lp_Force_Field>  (149) 
OPLS3e

>  <r_lp_Energy>  (149) 
25.6911

>  <b_lp_Chiralities_Consistent>  (149) 
1

>  <s_lp_Variant>  (149) 
45:0-1

>  <s_i_glide_gridfile>  (149) 
pfpi4k_grid

>  <i_i_glide_lignum>  (149) 
21

>  <i_i_glide_rotatable_bonds>  (149) 
4

>  <r_i_docking_score>  (149) 
-2.71005

>  <r_i_glide_ligand_efficiency>  (149) 
-0.117828

>  <r_i_glide_ligand_efficiency_sa>  (149) 
-0.335088

>  <r_i_glide_ligand_efficiency_ln>  (149) 
-0.655315

>  <r_i_glide_gscore>  (149) 
-2.71005

>  <r_i_glide_lipo>  (149) 
-0.348978

>  <r_i_glide_hbond>  (149) 
-0.0646709

>  <r_i_glide_metal>  (149) 
-0

>  <r_i_glide_rewards>  (149) 
-1.44377

>  <r_i_glide_evdw>  (149) 
-23.6647

>  <r_i_glide_ecoul>  (149) 
-1.3691

>  <r_i_glide_erotb>  (149) 
0.570621

>  <r_i_glide_esite>  (149) 
-0.0346517

>  <r_i_glide_emodel>  (149) 
-28.6793

>  <r_i_glide_energy>  (149) 
-25.0338

>  <r_i_glide_einternal>  (149) 
0.863094

>  <r_i_glide_intrahb_reward>  (149) 
-0

>  <i_i_glide_confnum>  (149) 
3

>  <i_i_glide_posenum>  (149) 
21

>  <r_i_glide_eff_state_penalty>  (149) 
0

>  <ligand_id>  (149) 
45

>  <original_smiles>  (149) 
CCOC(=O)C1=C(C)N=C2CCCC(=O)C2C1c1cccnc1

>  <smiles>  (149) 
[H]C([H])=C1N=C2C([H])([H])C([H])([H])C([H])([H])C(=O)C2([H])C([H])(c2c([H])nc([H])c([H])c2[H])C1([H])C(=O)OC([H])([H])C([H])([H])[H]

$$$$
45:0:2
     RDKit          3D

 43 45  0  0  1  0  0  0  0  0999 V2000
    5.1690   -3.0243    5.6084 C   0  0  0  0  0  0  0  0  0  0  0  0
    4.1245   -4.0157    5.0747 C   0  0  0  0  0  0  0  0  0  0  0  0
    3.9837   -3.9123    3.6687 O   0  0  0  0  0  0  0  0  0  0  0  0
    4.8332   -4.5488    2.8418 C   0  0  0  0  0  0  0  0  0  0  0  0
    5.7841   -5.2486    3.1946 O   0  0  0  0  0  0  0  0  0  0  0  0
    4.5300   -4.3340    1.3499 C   0  0  1  0  0  0  0  0  0  0  0  0
    3.0856   -4.6293    0.9339 C   0  0  0  0  0  0  0  0  0  0  0  0
    2.2034   -5.3187    1.6808 C   0  0  0  0  0  0  0  0  0  0  0  0
    2.6178   -4.2019   -0.3183 N   0  0  0  0  0  0  0  0  0  0  0  0
    3.3228   -3.4829   -1.1003 C   0  0  0  0  0  0  0  0  0  0  0  0
    2.8498   -3.1982   -2.5207 C   0  0  0  0  0  0  0  0  0  0  0  0
    3.0135   -1.7336   -2.9319 C   0  0  0  0  0  0  0  0  0  0  0  0
    4.4686   -1.2803   -2.7868 C   0  0  0  0  0  0  0  0  0  0  0  0
    5.0357   -1.5835   -1.3976 C   0  0  0  0  0  0  0  0  0  0  0  0
    5.8111   -0.7935   -0.8610 O   0  0  0  0  0  0  0  0  0  0  0  0
    4.7142   -2.9329   -0.7328 C   0  0  1  0  0  0  0  0  0  0  0  0
    4.9937   -2.9716    0.7956 C   0  0  1  0  0  0  0  0  0  0  0  0
    4.4766   -1.7658    1.5976 C   0  0  0  0  0  0  0  0  0  0  0  0
    3.2197   -1.1718    1.3547 C   0  0  0  0  0  0  0  0  0  0  0  0
    2.8109   -0.0821    2.1442 C   0  0  0  0  0  0  0  0  0  0  0  0
    3.6743    0.3674    3.1607 C   0  0  0  0  0  0  0  0  0  0  0  0
    4.8832   -0.1759    3.3941 N   0  0  0  0  0  0  0  0  0  0  0  0
    5.2639   -1.2106    2.6258 C   0  0  0  0  0  0  0  0  0  0  0  0
    5.2629   -3.0947    6.6902 H   0  0  0  0  0  0  0  0  0  0  0  0
    4.8888   -1.9985    5.3783 H   0  0  0  0  0  0  0  0  0  0  0  0
    6.1555   -3.2070    5.1813 H   0  0  0  0  0  0  0  0  0  0  0  0
    4.3701   -5.0381    5.3688 H   0  0  0  0  0  0  0  0  0  0  0  0
    3.1527   -3.7819    5.5116 H   0  0  0  0  0  0  0  0  0  0  0  0
    1.2031   -5.5030    1.3075 H   0  0  0  0  0  0  0  0  0  0  0  0
    1.8037   -3.4975   -2.6146 H   0  0  0  0  0  0  0  0  0  0  0  0
    2.4343   -5.7004    2.6710 H   0  0  0  0  0  0  0  0  0  0  0  0
    3.4300   -3.8357   -3.1985 H   0  0  0  0  0  0  0  0  0  0  0  0
    5.1152   -5.1029    0.8390 H   0  0  0  0  0  0  0  0  0  0  0  0
    2.3847   -1.0989   -2.3167 H   0  0  0  0  0  0  0  0  0  0  0  0
    2.6563   -1.5880   -3.9551 H   0  0  0  0  0  0  0  0  0  0  0  0
    5.0731   -1.8041   -3.5223 H   0  0  0  0  0  0  0  0  0  0  0  0
    4.5355   -0.2130   -2.9907 H   0  0  0  0  0  0  0  0  0  0  0  0
    5.4256   -3.6277   -1.1833 H   0  0  0  0  0  0  0  0  0  0  0  0
    6.0795   -2.9540    0.9079 H   0  0  0  0  0  0  0  0  0  0  0  0
    2.5737   -1.5217    0.5720 H   0  0  0  0  0  0  0  0  0  0  0  0
    1.8619    0.4028    1.9645 H   0  0  0  0  0  0  0  0  0  0  0  0
    3.3937    1.1944    3.7971 H   0  0  0  0  0  0  0  0  0  0  0  0
    6.2163   -1.6428    2.8663 H   0  0  0  0  0  0  0  0  0  0  0  0
  1  2  1  0
  1 24  1  0
  1 25  1  0
  1 26  1  0
  2  3  1  0
  2 27  1  0
  2 28  1  0
  3  4  1  0
  4  5  2  0
  4  6  1  0
  6 17  1  0
  6 33  1  6
  6  7  1  0
  7  9  1  0
  7  8  2  0
  8 29  1  0
  8 31  1  0
  9 10  2  0
 10 11  1  0
 10 16  1  0
 11 12  1  0
 11 32  1  0
 11 30  1  0
 12 13  1  0
 12 34  1  0
 12 35  1  0
 13 14  1  0
 13 36  1  0
 13 37  1  0
 14 15  2  0
 14 16  1  0
 16 17  1  0
 16 38  1  6
 17 18  1  0
 17 39  1  6
 18 23  1  0
 18 19  2  0
 19 20  1  0
 19 40  1  0
 20 21  2  0
 20 41  1  0
 21 22  1  0
 21 42  1  0
 22 23  2  0
 23 43  1  0
M  END
>  <i_m_ct_stereo_status>  (150) 
1

>  <s_m_source_file>  (150) 
/var/tmp/pbs.5076255.sched01/tmpl63by5lx/41imve8rrw.sdf

>  <i_m_source_file_index>  (150) 
21

>  <i_lp_mmshare_version>  (150) 
48012

>  <i_f3d_flags>  (150) 
0

>  <s_epik_input>  (150) 
W0NIM11bQ0gyXU9DKD1PKUMoPUMoTj0xKVtDSDNdKVtDQEBIXShbQ0BASF0oQzEyKUMoPU8pW0NIMl1bQ0gyXVtDSDJdMiljM1tjSF1bY0hdW2NIXW5bY0hdMw==

>  <s_epik_cmdline>  (150) 
J2VwaWtfcHl0aG9uJywgJy1waHQnLCAnMi4wJywgJy1waCcsICc3LjAnLCAnLXRuJywgJzgnLCAnLW1hJywgJzIwMCcsICctaW1hZScsICc8aW5maWxlLm1hZT4nLCAnLW9tYWUnLCAnPG91dGZpbGUubWFlPic=

>  <r_lp_tautomer_probability>  (150) 
0.499981

>  <r_epik_Ionization_Penalty>  (150) 
0.0086706

>  <r_epik_Ionization_Penalty_Charging>  (150) 
0

>  <r_epik_Ionization_Penalty_Neutral>  (150) 
0.0086706

>  <r_epik_State_Penalty>  (150) 
0.814914

>  <r_epik_Charging_Adjusted_Penalty>  (150) 
0.814914

>  <i_epik_Tot_Q>  (150) 
0

>  <i_epik_Tot_abs_Q>  (150) 
0

>  <s_epik_Chemistry_Notes>  (150) 
This compound has an ester and may undergo hydrolysis at high or low pH. This compound has an imine and may undergo hydrolysis.

>  <s_lp_Force_Field>  (150) 
OPLS3e

>  <r_lp_Energy>  (150) 
25.6911

>  <b_lp_Chiralities_Consistent>  (150) 
1

>  <s_lp_Variant>  (150) 
45:0-1

>  <s_i_glide_gridfile>  (150) 
pfpi4k_grid

>  <i_i_glide_lignum>  (150) 
21

>  <i_i_glide_rotatable_bonds>  (150) 
4

>  <r_i_docking_score>  (150) 
-2.41398

>  <r_i_glide_ligand_efficiency>  (150) 
-0.104956

>  <r_i_glide_ligand_efficiency_sa>  (150) 
-0.298481

>  <r_i_glide_ligand_efficiency_ln>  (150) 
-0.583723

>  <r_i_glide_gscore>  (150) 
-2.41398

>  <r_i_glide_lipo>  (150) 
-0.199742

>  <r_i_glide_hbond>  (150) 
-0.04041

>  <r_i_glide_metal>  (150) 
-0

>  <r_i_glide_rewards>  (150) 
-1.37064

>  <r_i_glide_evdw>  (150) 
-23.4341

>  <r_i_glide_ecoul>  (150) 
-1.08678

>  <r_i_glide_erotb>  (150) 
0.570621

>  <r_i_glide_esite>  (150) 
-0.0390989

>  <r_i_glide_emodel>  (150) 
-27.8313

>  <r_i_glide_energy>  (150) 
-24.5208

>  <r_i_glide_einternal>  (150) 
0.488929

>  <r_i_glide_intrahb_reward>  (150) 
-0

>  <i_i_glide_confnum>  (150) 
3

>  <i_i_glide_posenum>  (150) 
23

>  <r_i_glide_eff_state_penalty>  (150) 
0

>  <ligand_id>  (150) 
45

>  <original_smiles>  (150) 
CCOC(=O)C1=C(C)N=C2CCCC(=O)C2C1c1cccnc1

>  <smiles>  (150) 
[H]C([H])=C1N=C2C([H])([H])C([H])([H])C([H])([H])C(=O)C2([H])C([H])(c2c([H])nc([H])c([H])c2[H])C1([H])C(=O)OC([H])([H])C([H])([H])[H]

$$$$
45:1:0
     RDKit          3D

 43 45  0  0  1  0  0  0  0  0999 V2000
    4.2144   -2.0739   -3.2125 C   0  0  0  0  0  0  0  0  0  0  0  0
    4.9593   -3.3337   -2.7578 C   0  0  0  0  0  0  0  0  0  0  0  0
    4.3419   -3.8311   -1.5800 O   0  0  0  0  0  0  0  0  0  0  0  0
    4.9085   -3.6614   -0.3766 C   0  0  0  0  0  0  0  0  0  0  0  0
    6.0079   -3.1384   -0.1781 O   0  0  0  0  0  0  0  0  0  0  0  0
    4.0320   -4.2231    0.7646 C   0  0  2  0  0  0  0  0  0  0  0  0
    4.5735   -3.7857    2.1239 C   0  0  0  0  0  0  0  0  0  0  0  0
    4.1042   -2.6971    2.7533 C   0  0  0  0  0  0  0  0  0  0  0  0
    5.5336   -4.5465    2.7902 N   0  0  0  0  0  0  0  0  0  0  0  0
    5.8874   -5.7024    2.3875 C   0  0  0  0  0  0  0  0  0  0  0  0
    7.0130   -6.4260    3.1131 C   0  0  0  0  0  0  0  0  0  0  0  0
    7.4363   -7.7505    2.4604 C   0  0  0  0  0  0  0  0  0  0  0  0
    6.2304   -8.6587    2.1889 C   0  0  0  0  0  0  0  0  0  0  0  0
    5.2049   -7.9606    1.2952 C   0  0  0  0  0  0  0  0  0  0  0  0
    4.3964   -8.6285    0.6523 O   0  0  0  0  0  0  0  0  0  0  0  0
    5.2505   -6.4201    1.1760 C   0  0  1  0  0  0  0  0  0  0  0  0
    3.9149   -5.7614    0.7250 C   0  0  1  0  0  0  0  0  0  0  0  0
    2.6333   -6.2246    1.4318 C   0  0  0  0  0  0  0  0  0  0  0  0
    2.6101   -6.6294    2.7836 C   0  0  0  0  0  0  0  0  0  0  0  0
    1.3980   -7.0607    3.3488 C   0  0  0  0  0  0  0  0  0  0  0  0
    0.2434   -7.0549    2.5469 C   0  0  0  0  0  0  0  0  0  0  0  0
    0.2369   -6.6325    1.2657 N   0  0  0  0  0  0  0  0  0  0  0  0
    1.4159   -6.2562    0.7231 C   0  0  0  0  0  0  0  0  0  0  0  0
    4.6569   -1.6578   -4.1155 H   0  0  0  0  0  0  0  0  0  0  0  0
    4.2414   -1.3050   -2.4395 H   0  0  0  0  0  0  0  0  0  0  0  0
    3.1680   -2.2966   -3.4253 H   0  0  0  0  0  0  0  0  0  0  0  0
    4.8999   -4.1039   -3.5272 H   0  0  0  0  0  0  0  0  0  0  0  0
    6.0222   -3.1231   -2.6196 H   0  0  0  0  0  0  0  0  0  0  0  0
    4.4733   -2.4169    3.7308 H   0  0  0  0  0  0  0  0  0  0  0  0
    6.6957   -6.6025    4.1422 H   0  0  0  0  0  0  0  0  0  0  0  0
    3.3332   -2.0792    2.3137 H   0  0  0  0  0  0  0  0  0  0  0  0
    7.8772   -5.7627    3.1552 H   0  0  0  0  0  0  0  0  0  0  0  0
    3.0436   -3.7819    0.6253 H   0  0  0  0  0  0  0  0  0  0  0  0
    8.1456   -8.2659    3.1086 H   0  0  0  0  0  0  0  0  0  0  0  0
    7.9661   -7.5558    1.5255 H   0  0  0  0  0  0  0  0  0  0  0  0
    6.5478   -9.5825    1.7057 H   0  0  0  0  0  0  0  0  0  0  0  0
    5.7439   -8.9371    3.1260 H   0  0  0  0  0  0  0  0  0  0  0  0
    5.9477   -6.2390    0.3576 H   0  0  0  0  0  0  0  0  0  0  0  0
    3.7707   -6.0624   -0.3131 H   0  0  0  0  0  0  0  0  0  0  0  0
    3.5028   -6.6317    3.3875 H   0  0  0  0  0  0  0  0  0  0  0  0
    1.3565   -7.3963    4.3750 H   0  0  0  0  0  0  0  0  0  0  0  0
   -0.7050   -7.3783    2.9507 H   0  0  0  0  0  0  0  0  0  0  0  0
    1.3722   -5.9463   -0.3086 H   0  0  0  0  0  0  0  0  0  0  0  0
  1  2  1  0
  1 24  1  0
  1 25  1  0
  1 26  1  0
  2  3  1  0
  2 27  1  0
  2 28  1  0
  3  4  1  0
  4  5  2  0
  4  6  1  0
  6 17  1  0
  6 33  1  6
  6  7  1  0
  7  9  1  0
  7  8  2  0
  8 29  1  0
  8 31  1  0
  9 10  2  0
 10 11  1  0
 10 16  1  0
 11 12  1  0
 11 32  1  0
 11 30  1  0
 12 13  1  0
 12 34  1  0
 12 35  1  0
 13 14  1  0
 13 36  1  0
 13 37  1  0
 14 15  2  0
 14 16  1  0
 16 17  1  0
 16 38  1  6
 17 18  1  0
 17 39  1  6
 18 23  1  0
 18 19  2  0
 19 20  1  0
 19 40  1  0
 20 21  2  0
 20 41  1  0
 21 22  1  0
 21 42  1  0
 22 23  2  0
 23 43  1  0
M  END
>  <i_m_ct_stereo_status>  (151) 
1

>  <s_m_source_file>  (151) 
/var/tmp/pbs.5076255.sched01/tmpl63by5lx/41imve8rrw.sdf

>  <i_m_source_file_index>  (151) 
22

>  <i_lp_mmshare_version>  (151) 
48012

>  <i_f3d_flags>  (151) 
0

>  <s_epik_input>  (151) 
W0NIM11bQ0gyXU9DKD1PKUMoPUMoTj0xKVtDSDNdKVtDQEBIXShbQ0BASF0oQzEyKUMoPU8pW0NIMl1bQ0gyXVtDSDJdMiljM1tjSF1bY0hdW2NIXW5bY0hdMw==

>  <s_epik_cmdline>  (151) 
J2VwaWtfcHl0aG9uJywgJy1waHQnLCAnMi4wJywgJy1waCcsICc3LjAnLCAnLXRuJywgJzgnLCAnLW1hJywgJzIwMCcsICctaW1hZScsICc8aW5maWxlLm1hZT4nLCAnLW9tYWUnLCAnPG91dGZpbGUubWFlPic=

>  <r_lp_tautomer_probability>  (151) 
0.499981

>  <r_epik_Ionization_Penalty>  (151) 
0.0086706

>  <r_epik_Ionization_Penalty_Charging>  (151) 
0

>  <r_epik_Ionization_Penalty_Neutral>  (151) 
0.0086706

>  <r_epik_State_Penalty>  (151) 
0.814914

>  <r_epik_Charging_Adjusted_Penalty>  (151) 
0.814914

>  <i_epik_Tot_Q>  (151) 
0

>  <i_epik_Tot_abs_Q>  (151) 
0

>  <s_epik_Chemistry_Notes>  (151) 
This compound has an ester and may undergo hydrolysis at high or low pH. This compound has an imine and may undergo hydrolysis.

>  <s_lp_Force_Field>  (151) 
OPLS3e

>  <r_lp_Energy>  (151) 
24.8983

>  <b_lp_Chiralities_Consistent>  (151) 
1

>  <s_lp_Variant>  (151) 
45:0-2

>  <s_i_glide_gridfile>  (151) 
pfpi4k_grid

>  <i_i_glide_lignum>  (151) 
22

>  <i_i_glide_rotatable_bonds>  (151) 
4

>  <r_i_docking_score>  (151) 
-3.29225

>  <r_i_glide_ligand_efficiency>  (151) 
-0.143141

>  <r_i_glide_ligand_efficiency_sa>  (151) 
-0.407074

>  <r_i_glide_ligand_efficiency_ln>  (151) 
-0.796095

>  <r_i_glide_gscore>  (151) 
-3.29225

>  <r_i_glide_lipo>  (151) 
-0.542763

>  <r_i_glide_hbond>  (151) 
-0.143719

>  <r_i_glide_metal>  (151) 
-0

>  <r_i_glide_rewards>  (151) 
-1.47047

>  <r_i_glide_evdw>  (151) 
-28.6945

>  <r_i_glide_ecoul>  (151) 
-1.80794

>  <r_i_glide_erotb>  (151) 
0.570621

>  <r_i_glide_esite>  (151) 
0

>  <r_i_glide_emodel>  (151) 
-36.7863

>  <r_i_glide_energy>  (151) 
-30.5024

>  <r_i_glide_einternal>  (151) 
0.559191

>  <r_i_glide_intrahb_reward>  (151) 
-0

>  <i_i_glide_confnum>  (151) 
1

>  <i_i_glide_posenum>  (151) 
34

>  <r_i_glide_eff_state_penalty>  (151) 
0

>  <ligand_id>  (151) 
45

>  <original_smiles>  (151) 
CCOC(=O)C1=C(C)N=C2CCCC(=O)C2C1c1cccnc1

>  <smiles>  (151) 
[H]C([H])=C1N=C2C([H])([H])C([H])([H])C([H])([H])C(=O)C2([H])C([H])(c2c([H])nc([H])c([H])c2[H])C1([H])C(=O)OC([H])([H])C([H])([H])[H]

$$$$
45:1:1
     RDKit          3D

 43 45  0  0  1  0  0  0  0  0999 V2000
    3.5792   -1.3364   -3.4886 C   0  0  0  0  0  0  0  0  0  0  0  0
    3.5445   -2.8628   -3.3264 C   0  0  0  0  0  0  0  0  0  0  0  0
    3.2324   -3.2091   -1.9851 O   0  0  0  0  0  0  0  0  0  0  0  0
    4.2016   -3.2524   -1.0576 C   0  0  0  0  0  0  0  0  0  0  0  0
    5.3962   -3.0244   -1.2696 O   0  0  0  0  0  0  0  0  0  0  0  0
    3.6730   -3.6640    0.3320 C   0  0  2  0  0  0  0  0  0  0  0  0
    4.5296   -3.0306    1.4235 C   0  0  0  0  0  0  0  0  0  0  0  0
    4.1654   -1.8835    2.0222 C   0  0  0  0  0  0  0  0  0  0  0  0
    5.6708   -3.6711    1.9082 N   0  0  0  0  0  0  0  0  0  0  0  0
    5.9572   -4.8739    1.5965 C   0  0  0  0  0  0  0  0  0  0  0  0
    7.2656   -5.4731    2.0931 C   0  0  0  0  0  0  0  0  0  0  0  0
    7.5820   -6.8641    1.5293 C   0  0  0  0  0  0  0  0  0  0  0  0
    6.3972   -7.8241    1.6964 C   0  0  0  0  0  0  0  0  0  0  0  0
    5.1306   -7.2703    1.0394 C   0  0  0  0  0  0  0  0  0  0  0  0
    4.2288   -8.0389    0.7122 O   0  0  0  0  0  0  0  0  0  0  0  0
    5.0681   -5.7655    0.7040 C   0  0  1  0  0  0  0  0  0  0  0  0
    3.6343   -5.1960    0.5148 C   0  0  1  0  0  0  0  0  0  0  0  0
    2.5966   -5.6122    1.5657 C   0  0  0  0  0  0  0  0  0  0  0  0
    2.7771   -5.3526    2.9416 C   0  0  0  0  0  0  0  0  0  0  0  0
    1.7810   -5.7500    3.8486 C   0  0  0  0  0  0  0  0  0  0  0  0
    0.6327   -6.3893    3.3475 C   0  0  0  0  0  0  0  0  0  0  0  0
    0.4309   -6.6182    2.0328 N   0  0  0  0  0  0  0  0  0  0  0  0
    1.4128   -6.2723    1.1751 C   0  0  0  0  0  0  0  0  0  0  0  0
    3.8025   -1.0537   -4.5171 H   0  0  0  0  0  0  0  0  0  0  0  0
    4.3378   -0.8871   -2.8457 H   0  0  0  0  0  0  0  0  0  0  0  0
    2.6186   -0.8993   -3.2185 H   0  0  0  0  0  0  0  0  0  0  0  0
    2.7766   -3.2862   -3.9740 H   0  0  0  0  0  0  0  0  0  0  0  0
    4.4915   -3.3097   -3.6390 H   0  0  0  0  0  0  0  0  0  0  0  0
    4.7446   -1.4713    2.8371 H   0  0  0  0  0  0  0  0  0  0  0  0
    7.2276   -5.5194    3.1825 H   0  0  0  0  0  0  0  0  0  0  0  0
    3.2662   -1.3597    1.7300 H   0  0  0  0  0  0  0  0  0  0  0  0
    8.0753   -4.7915    1.8313 H   0  0  0  0  0  0  0  0  0  0  0  0
    2.6577   -3.2697    0.4031 H   0  0  0  0  0  0  0  0  0  0  0  0
    8.4598   -7.2726    2.0332 H   0  0  0  0  0  0  0  0  0  0  0  0
    7.8530   -6.7862    0.4751 H   0  0  0  0  0  0  0  0  0  0  0  0
    6.6330   -8.7928    1.2560 H   0  0  0  0  0  0  0  0  0  0  0  0
    6.1895   -7.9934    2.7542 H   0  0  0  0  0  0  0  0  0  0  0  0
    5.5284   -5.7014   -0.2821 H   0  0  0  0  0  0  0  0  0  0  0  0
    3.2648   -5.6167   -0.4154 H   0  0  0  0  0  0  0  0  0  0  0  0
    3.6583   -4.8518    3.3104 H   0  0  0  0  0  0  0  0  0  0  0  0
    1.8933   -5.5649    4.9076 H   0  0  0  0  0  0  0  0  0  0  0  0
   -0.1523   -6.7078    4.0181 H   0  0  0  0  0  0  0  0  0  0  0  0
    1.2167   -6.4946    0.1382 H   0  0  0  0  0  0  0  0  0  0  0  0
  1  2  1  0
  1 24  1  0
  1 25  1  0
  1 26  1  0
  2  3  1  0
  2 27  1  0
  2 28  1  0
  3  4  1  0
  4  5  2  0
  4  6  1  0
  6 17  1  0
  6 33  1  1
  6  7  1  0
  7  9  1  0
  7  8  2  0
  8 29  1  0
  8 31  1  0
  9 10  2  0
 10 11  1  0
 10 16  1  0
 11 12  1  0
 11 32  1  0
 11 30  1  0
 12 13  1  0
 12 34  1  0
 12 35  1  0
 13 14  1  0
 13 36  1  0
 13 37  1  0
 14 15  2  0
 14 16  1  0
 16 17  1  0
 16 38  1  6
 17 18  1  0
 17 39  1  6
 18 23  1  0
 18 19  2  0
 19 20  1  0
 19 40  1  0
 20 21  2  0
 20 41  1  0
 21 22  1  0
 21 42  1  0
 22 23  2  0
 23 43  1  0
M  END
>  <i_m_ct_stereo_status>  (152) 
1

>  <s_m_source_file>  (152) 
/var/tmp/pbs.5076255.sched01/tmpl63by5lx/41imve8rrw.sdf

>  <i_m_source_file_index>  (152) 
22

>  <i_lp_mmshare_version>  (152) 
48012

>  <i_f3d_flags>  (152) 
0

>  <s_epik_input>  (152) 
W0NIM11bQ0gyXU9DKD1PKUMoPUMoTj0xKVtDSDNdKVtDQEBIXShbQ0BASF0oQzEyKUMoPU8pW0NIMl1bQ0gyXVtDSDJdMiljM1tjSF1bY0hdW2NIXW5bY0hdMw==

>  <s_epik_cmdline>  (152) 
J2VwaWtfcHl0aG9uJywgJy1waHQnLCAnMi4wJywgJy1waCcsICc3LjAnLCAnLXRuJywgJzgnLCAnLW1hJywgJzIwMCcsICctaW1hZScsICc8aW5maWxlLm1hZT4nLCAnLW9tYWUnLCAnPG91dGZpbGUubWFlPic=

>  <r_lp_tautomer_probability>  (152) 
0.499981

>  <r_epik_Ionization_Penalty>  (152) 
0.0086706

>  <r_epik_Ionization_Penalty_Charging>  (152) 
0

>  <r_epik_Ionization_Penalty_Neutral>  (152) 
0.0086706

>  <r_epik_State_Penalty>  (152) 
0.814914

>  <r_epik_Charging_Adjusted_Penalty>  (152) 
0.814914

>  <i_epik_Tot_Q>  (152) 
0

>  <i_epik_Tot_abs_Q>  (152) 
0

>  <s_epik_Chemistry_Notes>  (152) 
This compound has an ester and may undergo hydrolysis at high or low pH. This compound has an imine and may undergo hydrolysis.

>  <s_lp_Force_Field>  (152) 
OPLS3e

>  <r_lp_Energy>  (152) 
24.8983

>  <b_lp_Chiralities_Consistent>  (152) 
1

>  <s_lp_Variant>  (152) 
45:0-2

>  <s_i_glide_gridfile>  (152) 
pfpi4k_grid

>  <i_i_glide_lignum>  (152) 
22

>  <i_i_glide_rotatable_bonds>  (152) 
4

>  <r_i_docking_score>  (152) 
-3.14312

>  <r_i_glide_ligand_efficiency>  (152) 
-0.136657

>  <r_i_glide_ligand_efficiency_sa>  (152) 
-0.388635

>  <r_i_glide_ligand_efficiency_ln>  (152) 
-0.760034

>  <r_i_glide_gscore>  (152) 
-3.14312

>  <r_i_glide_lipo>  (152) 
-0.591956

>  <r_i_glide_hbond>  (152) 
-0.0216272

>  <r_i_glide_metal>  (152) 
-0

>  <r_i_glide_rewards>  (152) 
-1.45628

>  <r_i_glide_evdw>  (152) 
-29.178

>  <r_i_glide_ecoul>  (152) 
-1.22449

>  <r_i_glide_erotb>  (152) 
0.570621

>  <r_i_glide_esite>  (152) 
-0.00129811

>  <r_i_glide_emodel>  (152) 
-36.3194

>  <r_i_glide_energy>  (152) 
-30.4024

>  <r_i_glide_einternal>  (152) 
0.686799

>  <r_i_glide_intrahb_reward>  (152) 
-0

>  <i_i_glide_confnum>  (152) 
3

>  <i_i_glide_posenum>  (152) 
38

>  <r_i_glide_eff_state_penalty>  (152) 
0

>  <ligand_id>  (152) 
45

>  <original_smiles>  (152) 
CCOC(=O)C1=C(C)N=C2CCCC(=O)C2C1c1cccnc1

>  <smiles>  (152) 
[H]C([H])=C1N=C2C([H])([H])C([H])([H])C([H])([H])C(=O)C2([H])C([H])(c2c([H])nc([H])c([H])c2[H])C1([H])C(=O)OC([H])([H])C([H])([H])[H]

$$$$
45:1:2
     RDKit          3D

 43 45  0  0  1  0  0  0  0  0999 V2000
    3.3681   -1.5884   -3.5242 C   0  0  0  0  0  0  0  0  0  0  0  0
    2.8740   -3.0350   -3.3355 C   0  0  0  0  0  0  0  0  0  0  0  0
    2.5562   -3.3080   -1.9771 O   0  0  0  0  0  0  0  0  0  0  0  0
    3.5404   -3.4557   -1.0746 C   0  0  0  0  0  0  0  0  0  0  0  0
    4.7450   -3.3518   -1.3134 O   0  0  0  0  0  0  0  0  0  0  0  0
    3.0122   -3.8297    0.3236 C   0  0  2  0  0  0  0  0  0  0  0  0
    3.8128   -3.0812    1.3791 C   0  0  0  0  0  0  0  0  0  0  0  0
    3.3605   -1.9389    1.9217 C   0  0  0  0  0  0  0  0  0  0  0  0
    4.9911   -3.6203    1.9094 N   0  0  0  0  0  0  0  0  0  0  0  0
    5.3528   -4.8188    1.6689 C   0  0  0  0  0  0  0  0  0  0  0  0
    6.6840   -5.3106    2.2196 C   0  0  0  0  0  0  0  0  0  0  0  0
    7.1109   -6.6970    1.7178 C   0  0  0  0  0  0  0  0  0  0  0  0
    5.9938   -7.7278    1.9133 C   0  0  0  0  0  0  0  0  0  0  0  0
    4.7072   -7.2936    1.2057 C   0  0  0  0  0  0  0  0  0  0  0  0
    3.8680   -8.1379    0.9013 O   0  0  0  0  0  0  0  0  0  0  0  0
    4.5383   -5.8104    0.8122 C   0  0  1  0  0  0  0  0  0  0  0  0
    3.0693   -5.3498    0.5890 C   0  0  1  0  0  0  0  0  0  0  0  0
    2.0502   -5.7814    1.6524 C   0  0  0  0  0  0  0  0  0  0  0  0
    1.0043   -6.6738    1.3305 C   0  0  0  0  0  0  0  0  0  0  0  0
    0.0827   -7.0336    2.3340 C   0  0  0  0  0  0  0  0  0  0  0  0
    0.2603   -6.5063    3.6283 C   0  0  0  0  0  0  0  0  0  0  0  0
    1.2493   -5.6522    3.9440 N   0  0  0  0  0  0  0  0  0  0  0  0
    2.1256   -5.3125    2.9828 C   0  0  0  0  0  0  0  0  0  0  0  0
    3.5847   -1.3798   -4.5709 H   0  0  0  0  0  0  0  0  0  0  0  0
    4.2798   -1.3900   -2.9592 H   0  0  0  0  0  0  0  0  0  0  0  0
    2.6153   -0.8782   -3.1847 H   0  0  0  0  0  0  0  0  0  0  0  0
    1.9700   -3.1919   -3.9264 H   0  0  0  0  0  0  0  0  0  0  0  0
    3.6110   -3.7541   -3.7010 H   0  0  0  0  0  0  0  0  0  0  0  0
    3.8956   -1.4500    2.7273 H   0  0  0  0  0  0  0  0  0  0  0  0
    6.6234   -5.3128    3.3108 H   0  0  0  0  0  0  0  0  0  0  0  0
    2.4299   -1.4947    1.5925 H   0  0  0  0  0  0  0  0  0  0  0  0
    7.4506   -4.5893    1.9350 H   0  0  0  0  0  0  0  0  0  0  0  0
    1.9755   -3.4924    0.3654 H   0  0  0  0  0  0  0  0  0  0  0  0
    8.0069   -7.0179    2.2529 H   0  0  0  0  0  0  0  0  0  0  0  0
    7.3906   -6.6456    0.6635 H   0  0  0  0  0  0  0  0  0  0  0  0
    6.3030   -8.6976    1.5226 H   0  0  0  0  0  0  0  0  0  0  0  0
    5.7799   -7.8580    2.9769 H   0  0  0  0  0  0  0  0  0  0  0  0
    5.0076   -5.7542   -0.1714 H   0  0  0  0  0  0  0  0  0  0  0  0
    2.7283   -5.8509   -0.3162 H   0  0  0  0  0  0  0  0  0  0  0  0
    0.8985   -7.0777    0.3350 H   0  0  0  0  0  0  0  0  0  0  0  0
   -0.7284   -7.7201    2.1312 H   0  0  0  0  0  0  0  0  0  0  0  0
   -0.4150   -6.7562    4.4351 H   0  0  0  0  0  0  0  0  0  0  0  0
    2.9034   -4.6446    3.3080 H   0  0  0  0  0  0  0  0  0  0  0  0
  1  2  1  0
  1 24  1  0
  1 25  1  0
  1 26  1  0
  2  3  1  0
  2 27  1  0
  2 28  1  0
  3  4  1  0
  4  5  2  0
  4  6  1  0
  6 17  1  0
  6 33  1  6
  6  7  1  0
  7  9  1  0
  7  8  2  0
  8 29  1  0
  8 31  1  0
  9 10  2  0
 10 11  1  0
 10 16  1  0
 11 12  1  0
 11 32  1  0
 11 30  1  0
 12 13  1  0
 12 34  1  0
 12 35  1  0
 13 14  1  0
 13 36  1  0
 13 37  1  0
 14 15  2  0
 14 16  1  0
 16 17  1  0
 16 38  1  6
 17 18  1  0
 17 39  1  6
 18 23  1  0
 18 19  2  0
 19 20  1  0
 19 40  1  0
 20 21  2  0
 20 41  1  0
 21 22  1  0
 21 42  1  0
 22 23  2  0
 23 43  1  0
M  END
>  <i_m_ct_stereo_status>  (153) 
1

>  <s_m_source_file>  (153) 
/var/tmp/pbs.5076255.sched01/tmpl63by5lx/41imve8rrw.sdf

>  <i_m_source_file_index>  (153) 
22

>  <i_lp_mmshare_version>  (153) 
48012

>  <i_f3d_flags>  (153) 
0

>  <s_epik_input>  (153) 
W0NIM11bQ0gyXU9DKD1PKUMoPUMoTj0xKVtDSDNdKVtDQEBIXShbQ0BASF0oQzEyKUMoPU8pW0NIMl1bQ0gyXVtDSDJdMiljM1tjSF1bY0hdW2NIXW5bY0hdMw==

>  <s_epik_cmdline>  (153) 
J2VwaWtfcHl0aG9uJywgJy1waHQnLCAnMi4wJywgJy1waCcsICc3LjAnLCAnLXRuJywgJzgnLCAnLW1hJywgJzIwMCcsICctaW1hZScsICc8aW5maWxlLm1hZT4nLCAnLW9tYWUnLCAnPG91dGZpbGUubWFlPic=

>  <r_lp_tautomer_probability>  (153) 
0.499981

>  <r_epik_Ionization_Penalty>  (153) 
0.0086706

>  <r_epik_Ionization_Penalty_Charging>  (153) 
0

>  <r_epik_Ionization_Penalty_Neutral>  (153) 
0.0086706

>  <r_epik_State_Penalty>  (153) 
0.814914

>  <r_epik_Charging_Adjusted_Penalty>  (153) 
0.814914

>  <i_epik_Tot_Q>  (153) 
0

>  <i_epik_Tot_abs_Q>  (153) 
0

>  <s_epik_Chemistry_Notes>  (153) 
This compound has an ester and may undergo hydrolysis at high or low pH. This compound has an imine and may undergo hydrolysis.

>  <s_lp_Force_Field>  (153) 
OPLS3e

>  <r_lp_Energy>  (153) 
24.8983

>  <b_lp_Chiralities_Consistent>  (153) 
1

>  <s_lp_Variant>  (153) 
45:0-2

>  <s_i_glide_gridfile>  (153) 
pfpi4k_grid

>  <i_i_glide_lignum>  (153) 
22

>  <i_i_glide_rotatable_bonds>  (153) 
4

>  <r_i_docking_score>  (153) 
-3.13955

>  <r_i_glide_ligand_efficiency>  (153) 
-0.136502

>  <r_i_glide_ligand_efficiency_sa>  (153) 
-0.388194

>  <r_i_glide_ligand_efficiency_ln>  (153) 
-0.759172

>  <r_i_glide_gscore>  (153) 
-3.13955

>  <r_i_glide_lipo>  (153) 
-0.614437

>  <r_i_glide_hbond>  (153) 
0

>  <r_i_glide_metal>  (153) 
-0

>  <r_i_glide_rewards>  (153) 
-1.50905

>  <r_i_glide_evdw>  (153) 
-29.7974

>  <r_i_glide_ecoul>  (153) 
-0.645485

>  <r_i_glide_erotb>  (153) 
0.570621

>  <r_i_glide_esite>  (153) 
0

>  <r_i_glide_emodel>  (153) 
-35.6891

>  <r_i_glide_energy>  (153) 
-30.4429

>  <r_i_glide_einternal>  (153) 
1.80789

>  <r_i_glide_intrahb_reward>  (153) 
-0

>  <i_i_glide_confnum>  (153) 
2

>  <i_i_glide_posenum>  (153) 
27

>  <r_i_glide_eff_state_penalty>  (153) 
0

>  <ligand_id>  (153) 
45

>  <original_smiles>  (153) 
CCOC(=O)C1=C(C)N=C2CCCC(=O)C2C1c1cccnc1

>  <smiles>  (153) 
[H]C([H])=C1N=C2C([H])([H])C([H])([H])C([H])([H])C(=O)C2([H])C([H])(c2c([H])nc([H])c([H])c2[H])C1([H])C(=O)OC([H])([H])C([H])([H])[H]

$$$$
45:2:0
     RDKit          3D

 43 45  0  0  1  0  0  0  0  0999 V2000
   -4.4611    3.4386    2.0438 C   0  0  0  0  0  0  0  0  0  0  0  0
   -3.1872    2.9537    2.7209 C   0  0  0  0  0  0  0  0  0  0  0  0
   -2.4911    4.0667    3.2526 O   0  0  0  0  0  0  0  0  0  0  0  0
   -1.3243    3.9657    3.8872 C   0  0  0  0  0  0  0  0  0  0  0  0
   -0.8673    4.8740    4.5868 O   0  0  0  0  0  0  0  0  0  0  0  0
   -0.6064    2.5832    3.7912 C   0  0  1  0  0  0  0  0  0  0  0  0
    0.9150    2.6313    3.8495 C   0  0  0  0  0  0  0  0  0  0  0  0
    1.6327    3.9264    3.5149 C   0  0  0  0  0  0  0  0  0  0  0  0
    1.6036    1.6053    4.1621 N   0  0  0  0  0  0  0  0  0  0  0  0
    1.0066    0.3834    4.5391 C   0  0  0  0  0  0  0  0  0  0  0  0
    1.9213   -0.8174    4.6672 C   0  0  0  0  0  0  0  0  0  0  0  0
    1.1704   -2.1574    4.5341 C   0  0  0  0  0  0  0  0  0  0  0  0
   -0.0543   -2.2102    5.4510 C   0  0  0  0  0  0  0  0  0  0  0  0
   -0.9366   -0.9737    5.2549 C   0  0  0  0  0  0  0  0  0  0  0  0
   -2.1328   -1.0900    5.4879 O   0  0  0  0  0  0  0  0  0  0  0  0
   -0.3102    0.3123    4.8258 C   0  0  0  0  0  0  0  0  0  0  0  0
   -1.1978    1.5540    4.8007 C   0  0  1  0  0  0  0  0  0  0  0  0
   -1.2818    2.1580    6.1941 C   0  0  0  0  0  0  0  0  0  0  0  0
   -0.1194    2.3376    6.9724 C   0  0  0  0  0  0  0  0  0  0  0  0
   -0.2126    2.9812    8.2133 C   0  0  0  0  0  0  0  0  0  0  0  0
   -1.4798    3.4377    8.6374 C   0  0  0  0  0  0  0  0  0  0  0  0
   -2.5928    3.2748    7.8917 N   0  0  0  0  0  0  0  0  0  0  0  0
   -2.4979    2.6547    6.7046 C   0  0  0  0  0  0  0  0  0  0  0  0
   -5.0073    2.5853    1.6356 H   0  0  0  0  0  0  0  0  0  0  0  0
   -4.2516    4.1398    1.2322 H   0  0  0  0  0  0  0  0  0  0  0  0
   -5.1093    3.9471    2.7645 H   0  0  0  0  0  0  0  0  0  0  0  0
   -3.4347    2.2900    3.5513 H   0  0  0  0  0  0  0  0  0  0  0  0
   -2.5566    2.4168    2.0104 H   0  0  0  0  0  0  0  0  0  0  0  0
    1.4349    4.2283    2.4910 H   0  0  0  0  0  0  0  0  0  0  0  0
    2.3936   -0.7726    5.6528 H   0  0  0  0  0  0  0  0  0  0  0  0
    2.7072    3.8183    3.5558 H   0  0  0  0  0  0  0  0  0  0  0  0
    2.7221   -0.7669    3.9251 H   0  0  0  0  0  0  0  0  0  0  0  0
   -0.8198    2.2035    2.7865 H   0  0  0  0  0  0  0  0  0  0  0  0
    1.8295   -2.9914    4.7694 H   0  0  0  0  0  0  0  0  0  0  0  0
    0.8441   -2.2851    3.5029 H   0  0  0  0  0  0  0  0  0  0  0  0
   -0.6396   -3.1160    5.2782 H   0  0  0  0  0  0  0  0  0  0  0  0
    0.2394   -2.2191    6.4989 H   0  0  0  0  0  0  0  0  0  0  0  0
    1.2907    4.7281    4.1757 H   0  0  0  0  0  0  0  0  0  0  0  0
   -2.2004    1.2569    4.4587 H   0  0  0  0  0  0  0  0  0  0  0  0
    0.8496    2.0244    6.6342 H   0  0  0  0  0  0  0  0  0  0  0  0
    0.6718    3.1463    8.8099 H   0  0  0  0  0  0  0  0  0  0  0  0
   -1.5885    3.9411    9.6014 H   0  0  0  0  0  0  0  0  0  0  0  0
   -3.3940    2.6046    6.1205 H   0  0  0  0  0  0  0  0  0  0  0  0
  1  2  1  0
  1 24  1  0
  1 25  1  0
  1 26  1  0
  2  3  1  0
  2 27  1  0
  2 28  1  0
  3  4  1  0
  4  5  2  0
  4  6  1  0
  6 17  1  0
  6 33  1  6
  6  7  1  0
  7  8  1  0
  7  9  2  0
  8 29  1  0
  8 31  1  0
  8 38  1  0
  9 10  1  0
 10 11  1  0
 10 16  2  0
 11 12  1  0
 11 32  1  0
 11 30  1  0
 12 13  1  0
 12 34  1  0
 12 35  1  0
 13 14  1  0
 13 36  1  0
 13 37  1  0
 14 15  2  0
 14 16  1  0
 16 17  1  0
 17 18  1  0
 17 39  1  6
 18 23  1  0
 18 19  2  0
 19 20  1  0
 19 40  1  0
 20 21  2  0
 20 41  1  0
 21 22  1  0
 21 42  1  0
 22 23  2  0
 23 43  1  0
M  END
>  <i_m_ct_stereo_status>  (154) 
1

>  <s_m_source_file>  (154) 
/var/tmp/pbs.5076255.sched01/tmpl63by5lx/41imve8rrw.sdf

>  <i_m_source_file_index>  (154) 
23

>  <i_lp_mmshare_version>  (154) 
48012

>  <i_f3d_flags>  (154) 
0

>  <s_epik_input>  (154) 
W0NIM11bQ0gyXU9DKD1PKUMoPUMoTj0xKVtDSDNdKVtDQEBIXShbQ0BASF0oQzEyKUMoPU8pW0NIMl1bQ0gyXVtDSDJdMiljM1tjSF1bY0hdW2NIXW5bY0hdMw==

>  <s_epik_cmdline>  (154) 
J2VwaWtfcHl0aG9uJywgJy1waHQnLCAnMi4wJywgJy1waCcsICc3LjAnLCAnLXRuJywgJzgnLCAnLW1hJywgJzIwMCcsICctaW1hZScsICc8aW5maWxlLm1hZT4nLCAnLW9tYWUnLCAnPG91dGZpbGUubWFlPic=

>  <r_lp_tautomer_probability>  (154) 
0.499981

>  <r_epik_Ionization_Penalty>  (154) 
0.00197433

>  <r_epik_Ionization_Penalty_Charging>  (154) 
0

>  <r_epik_Ionization_Penalty_Neutral>  (154) 
0.00197433

>  <r_epik_State_Penalty>  (154) 
0.814914

>  <r_epik_Charging_Adjusted_Penalty>  (154) 
0.814914

>  <i_epik_Tot_Q>  (154) 
0

>  <i_epik_Tot_abs_Q>  (154) 
0

>  <s_epik_Chemistry_Notes>  (154) 
This compound has an ester and may undergo hydrolysis at high or low pH. This compound has an imine and may undergo hydrolysis.

>  <s_lp_Force_Field>  (154) 
OPLS3e

>  <r_lp_Energy>  (154) 
32.4029

>  <b_lp_Chiralities_Consistent>  (154) 
1

>  <s_lp_Variant>  (154) 
45:0-3

>  <s_i_glide_gridfile>  (154) 
pfpi4k_grid

>  <i_i_glide_lignum>  (154) 
23

>  <i_i_glide_rotatable_bonds>  (154) 
4

>  <r_i_docking_score>  (154) 
-3.54496

>  <r_i_glide_ligand_efficiency>  (154) 
-0.154129

>  <r_i_glide_ligand_efficiency_sa>  (154) 
-0.438322

>  <r_i_glide_ligand_efficiency_ln>  (154) 
-0.857204

>  <r_i_glide_gscore>  (154) 
-3.54496

>  <r_i_glide_lipo>  (154) 
-0.376057

>  <r_i_glide_hbond>  (154) 
-0.080094

>  <r_i_glide_metal>  (154) 
-0

>  <r_i_glide_rewards>  (154) 
-1.27934

>  <r_i_glide_evdw>  (154) 
-25.1411

>  <r_i_glide_ecoul>  (154) 
-6.45686

>  <r_i_glide_erotb>  (154) 
0.570621

>  <r_i_glide_esite>  (154) 
-0.154506

>  <r_i_glide_emodel>  (154) 
-33.9374

>  <r_i_glide_energy>  (154) 
-31.598

>  <r_i_glide_einternal>  (154) 
7.39592

>  <r_i_glide_intrahb_reward>  (154) 
-0

>  <i_i_glide_confnum>  (154) 
2

>  <i_i_glide_posenum>  (154) 
20

>  <r_i_glide_eff_state_penalty>  (154) 
0

>  <ligand_id>  (154) 
45

>  <original_smiles>  (154) 
CCOC(=O)C1=C(C)N=C2CCCC(=O)C2C1c1cccnc1

>  <smiles>  (154) 
[H]c1nc([H])c(C2([H])C3=C(N=C(C([H])([H])[H])C2([H])C(=O)OC([H])([H])C([H])([H])[H])C([H])([H])C([H])([H])C([H])([H])C3=O)c([H])c1[H]

$$$$
45:2:1
     RDKit          3D

 43 45  0  0  1  0  0  0  0  0999 V2000
    3.0116   -2.4616   -2.0588 C   0  0  0  0  0  0  0  0  0  0  0  0
    3.1617   -2.7128   -0.5662 C   0  0  0  0  0  0  0  0  0  0  0  0
    2.6804   -4.0147   -0.2749 O   0  0  0  0  0  0  0  0  0  0  0  0
    3.1398   -4.6263    0.8282 C   0  0  0  0  0  0  0  0  0  0  0  0
    3.9190   -4.1063    1.6329 O   0  0  0  0  0  0  0  0  0  0  0  0
    2.5875   -6.0414    1.0337 C   0  0  1  0  0  0  0  0  0  0  0  0
    3.6554   -7.1346    1.2367 C   0  0  0  0  0  0  0  0  0  0  0  0
    5.0663   -6.8617    0.7573 C   0  0  0  0  0  0  0  0  0  0  0  0
    3.3715   -8.2625    1.7592 N   0  0  0  0  0  0  0  0  0  0  0  0
    2.0875   -8.5533    2.2693 C   0  0  0  0  0  0  0  0  0  0  0  0
    1.8461   -9.9881    2.7343 C   0  0  0  0  0  0  0  0  0  0  0  0
    0.3568  -10.3484    2.7697 C   0  0  0  0  0  0  0  0  0  0  0  0
   -0.4652   -9.2954    3.5249 C   0  0  0  0  0  0  0  0  0  0  0  0
   -0.1907   -7.8947    2.9891 C   0  0  0  0  0  0  0  0  0  0  0  0
   -1.0968   -7.0539    3.0541 O   0  0  0  0  0  0  0  0  0  0  0  0
    1.1470   -7.5782    2.4365 C   0  0  0  0  0  0  0  0  0  0  0  0
    1.4883   -6.1322    2.1258 C   0  0  1  0  0  0  0  0  0  0  0  0
    1.9172   -5.4065    3.4111 C   0  0  0  0  0  0  0  0  0  0  0  0
    1.4476   -4.1270    3.7363 C   0  0  0  0  0  0  0  0  0  0  0  0
    1.9613   -3.4708    4.8730 C   0  0  0  0  0  0  0  0  0  0  0  0
    2.9499   -4.1236    5.6279 C   0  0  0  0  0  0  0  0  0  0  0  0
    3.4182   -5.3553    5.3243 N   0  0  0  0  0  0  0  0  0  0  0  0
    2.9189   -5.9768    4.2454 C   0  0  0  0  0  0  0  0  0  0  0  0
    3.3759   -1.4655   -2.3137 H   0  0  0  0  0  0  0  0  0  0  0  0
    1.9620   -2.5383   -2.3400 H   0  0  0  0  0  0  0  0  0  0  0  0
    3.5771   -3.2032   -2.6254 H   0  0  0  0  0  0  0  0  0  0  0  0
    4.2170   -2.6303   -0.3044 H   0  0  0  0  0  0  0  0  0  0  0  0
    2.6249   -1.9775    0.0343 H   0  0  0  0  0  0  0  0  0  0  0  0
    5.0709   -6.6979   -0.3204 H   0  0  0  0  0  0  0  0  0  0  0  0
    2.2617  -10.0840    3.7384 H   0  0  0  0  0  0  0  0  0  0  0  0
    5.7251   -7.7199    0.9598 H   0  0  0  0  0  0  0  0  0  0  0  0
    2.4019  -10.6762    2.0998 H   0  0  0  0  0  0  0  0  0  0  0  0
    2.0960   -6.3023    0.1051 H   0  0  0  0  0  0  0  0  0  0  0  0
    0.2179  -11.3264    3.2250 H   0  0  0  0  0  0  0  0  0  0  0  0
   -0.0157  -10.4287    1.7503 H   0  0  0  0  0  0  0  0  0  0  0  0
   -1.5337   -9.5136    3.4470 H   0  0  0  0  0  0  0  0  0  0  0  0
   -0.2257   -9.3187    4.5878 H   0  0  0  0  0  0  0  0  0  0  0  0
    5.4791   -5.9704    1.2454 H   0  0  0  0  0  0  0  0  0  0  0  0
    0.5886   -5.6673    1.7373 H   0  0  0  0  0  0  0  0  0  0  0  0
    0.7211   -3.6225    3.1016 H   0  0  0  0  0  0  0  0  0  0  0  0
    1.6417   -2.4819    5.1393 H   0  0  0  0  0  0  0  0  0  0  0  0
    3.3908   -3.6811    6.5071 H   0  0  0  0  0  0  0  0  0  0  0  0
    3.3662   -6.9353    4.0339 H   0  0  0  0  0  0  0  0  0  0  0  0
  1  2  1  0
  1 24  1  0
  1 25  1  0
  1 26  1  0
  2  3  1  0
  2 27  1  0
  2 28  1  0
  3  4  1  0
  4  5  2  0
  4  6  1  0
  6 17  1  0
  6 33  1  6
  6  7  1  0
  7  8  1  0
  7  9  2  0
  8 29  1  0
  8 31  1  0
  8 38  1  0
  9 10  1  0
 10 11  1  0
 10 16  2  0
 11 12  1  0
 11 32  1  0
 11 30  1  0
 12 13  1  0
 12 34  1  0
 12 35  1  0
 13 14  1  0
 13 36  1  0
 13 37  1  0
 14 15  2  0
 14 16  1  0
 16 17  1  0
 17 18  1  0
 17 39  1  6
 18 23  1  0
 18 19  2  0
 19 20  1  0
 19 40  1  0
 20 21  2  0
 20 41  1  0
 21 22  1  0
 21 42  1  0
 22 23  2  0
 23 43  1  0
M  END
>  <i_m_ct_stereo_status>  (155) 
1

>  <s_m_source_file>  (155) 
/var/tmp/pbs.5076255.sched01/tmpl63by5lx/41imve8rrw.sdf

>  <i_m_source_file_index>  (155) 
23

>  <i_lp_mmshare_version>  (155) 
48012

>  <i_f3d_flags>  (155) 
0

>  <s_epik_input>  (155) 
W0NIM11bQ0gyXU9DKD1PKUMoPUMoTj0xKVtDSDNdKVtDQEBIXShbQ0BASF0oQzEyKUMoPU8pW0NIMl1bQ0gyXVtDSDJdMiljM1tjSF1bY0hdW2NIXW5bY0hdMw==

>  <s_epik_cmdline>  (155) 
J2VwaWtfcHl0aG9uJywgJy1waHQnLCAnMi4wJywgJy1waCcsICc3LjAnLCAnLXRuJywgJzgnLCAnLW1hJywgJzIwMCcsICctaW1hZScsICc8aW5maWxlLm1hZT4nLCAnLW9tYWUnLCAnPG91dGZpbGUubWFlPic=

>  <r_lp_tautomer_probability>  (155) 
0.499981

>  <r_epik_Ionization_Penalty>  (155) 
0.00197433

>  <r_epik_Ionization_Penalty_Charging>  (155) 
0

>  <r_epik_Ionization_Penalty_Neutral>  (155) 
0.00197433

>  <r_epik_State_Penalty>  (155) 
0.814914

>  <r_epik_Charging_Adjusted_Penalty>  (155) 
0.814914

>  <i_epik_Tot_Q>  (155) 
0

>  <i_epik_Tot_abs_Q>  (155) 
0

>  <s_epik_Chemistry_Notes>  (155) 
This compound has an ester and may undergo hydrolysis at high or low pH. This compound has an imine and may undergo hydrolysis.

>  <s_lp_Force_Field>  (155) 
OPLS3e

>  <r_lp_Energy>  (155) 
32.4029

>  <b_lp_Chiralities_Consistent>  (155) 
1

>  <s_lp_Variant>  (155) 
45:0-3

>  <s_i_glide_gridfile>  (155) 
pfpi4k_grid

>  <i_i_glide_lignum>  (155) 
23

>  <i_i_glide_rotatable_bonds>  (155) 
4

>  <r_i_docking_score>  (155) 
-2.95234

>  <r_i_glide_ligand_efficiency>  (155) 
-0.128363

>  <r_i_glide_ligand_efficiency_sa>  (155) 
-0.365047

>  <r_i_glide_ligand_efficiency_ln>  (155) 
-0.713903

>  <r_i_glide_gscore>  (155) 
-2.95234

>  <r_i_glide_lipo>  (155) 
-0.294597

>  <r_i_glide_hbond>  (155) 
-0.16

>  <r_i_glide_metal>  (155) 
-0

>  <r_i_glide_rewards>  (155) 
-1.38726

>  <r_i_glide_evdw>  (155) 
-23.5216

>  <r_i_glide_ecoul>  (155) 
-2.98069

>  <r_i_glide_erotb>  (155) 
0.570621

>  <r_i_glide_esite>  (155) 
-0.0579289

>  <r_i_glide_emodel>  (155) 
-31.4497

>  <r_i_glide_energy>  (155) 
-26.5023

>  <r_i_glide_einternal>  (155) 
1.23718

>  <r_i_glide_intrahb_reward>  (155) 
-0

>  <i_i_glide_confnum>  (155) 
1

>  <i_i_glide_posenum>  (155) 
39

>  <r_i_glide_eff_state_penalty>  (155) 
0

>  <ligand_id>  (155) 
45

>  <original_smiles>  (155) 
CCOC(=O)C1=C(C)N=C2CCCC(=O)C2C1c1cccnc1

>  <smiles>  (155) 
[H]c1nc([H])c(C2([H])C3=C(N=C(C([H])([H])[H])C2([H])C(=O)OC([H])([H])C([H])([H])[H])C([H])([H])C([H])([H])C([H])([H])C3=O)c([H])c1[H]

$$$$
45:2:2
     RDKit          3D

 43 45  0  0  1  0  0  0  0  0999 V2000
    3.0086   -2.4821   -2.0506 C   0  0  0  0  0  0  0  0  0  0  0  0
    3.1458   -2.7151   -0.5510 C   0  0  0  0  0  0  0  0  0  0  0  0
    2.6603   -4.0127   -0.2425 O   0  0  0  0  0  0  0  0  0  0  0  0
    3.1687   -4.6484    0.8272 C   0  0  0  0  0  0  0  0  0  0  0  0
    3.9986   -4.1600    1.5932 O   0  0  0  0  0  0  0  0  0  0  0  0
    2.5962   -6.0580    1.0372 C   0  0  1  0  0  0  0  0  0  0  0  0
    3.6652   -7.1477    1.2395 C   0  0  0  0  0  0  0  0  0  0  0  0
    5.0660   -6.8633    0.7510 C   0  0  0  0  0  0  0  0  0  0  0  0
    3.3943   -8.2720    1.7774 N   0  0  0  0  0  0  0  0  0  0  0  0
    2.1125   -8.5532    2.2970 C   0  0  0  0  0  0  0  0  0  0  0  0
    1.8731   -9.9914    2.7580 C   0  0  0  0  0  0  0  0  0  0  0  0
    0.3817  -10.3489    2.8046 C   0  0  0  0  0  0  0  0  0  0  0  0
   -0.4314   -9.2963    3.5682 C   0  0  0  0  0  0  0  0  0  0  0  0
   -0.1615   -7.8929    3.0305 C   0  0  0  0  0  0  0  0  0  0  0  0
   -1.0657   -7.0567    3.0941 O   0  0  0  0  0  0  0  0  0  0  0  0
    1.1805   -7.5832    2.4693 C   0  0  0  0  0  0  0  0  0  0  0  0
    1.5080   -6.1316    2.1429 C   0  0  1  0  0  0  0  0  0  0  0  0
    1.9616   -5.3996    3.4129 C   0  0  0  0  0  0  0  0  0  0  0  0
    2.9784   -5.9446    4.2290 C   0  0  0  0  0  0  0  0  0  0  0  0
    3.4645   -5.2034    5.3074 C   0  0  0  0  0  0  0  0  0  0  0  0
    2.9207   -3.9357    5.5491 C   0  0  0  0  0  0  0  0  0  0  0  0
    1.9394   -3.3958    4.7809 N   0  0  0  0  0  0  0  0  0  0  0  0
    1.4870   -4.1183    3.7296 C   0  0  0  0  0  0  0  0  0  0  0  0
    3.3785   -1.4913   -2.3164 H   0  0  0  0  0  0  0  0  0  0  0  0
    1.9630   -2.5615   -2.3441 H   0  0  0  0  0  0  0  0  0  0  0  0
    3.5797   -3.2323   -2.6002 H   0  0  0  0  0  0  0  0  0  0  0  0
    4.1988   -2.6226   -0.2845 H   0  0  0  0  0  0  0  0  0  0  0  0
    2.6110   -1.9665    0.0348 H   0  0  0  0  0  0  0  0  0  0  0  0
    5.0568   -6.7058   -0.3246 H   0  0  0  0  0  0  0  0  0  0  0  0
    2.2957  -10.0928    3.7582 H   0  0  0  0  0  0  0  0  0  0  0  0
    5.7346   -7.7136    0.9414 H   0  0  0  0  0  0  0  0  0  0  0  0
    2.4196  -10.6775    2.1155 H   0  0  0  0  0  0  0  0  0  0  0  0
    2.1008   -6.3188    0.1132 H   0  0  0  0  0  0  0  0  0  0  0  0
    0.2439  -11.3274    3.2615 H   0  0  0  0  0  0  0  0  0  0  0  0
   -0.0006  -10.4279    1.7891 H   0  0  0  0  0  0  0  0  0  0  0  0
   -1.4998   -9.5092    3.4992 H   0  0  0  0  0  0  0  0  0  0  0  0
   -0.1822   -9.3183    4.6284 H   0  0  0  0  0  0  0  0  0  0  0  0
    5.4601   -5.9606    1.2296 H   0  0  0  0  0  0  0  0  0  0  0  0
    0.6052   -5.6714    1.7604 H   0  0  0  0  0  0  0  0  0  0  0  0
    3.4196   -6.9090    4.0177 H   0  0  0  0  0  0  0  0  0  0  0  0
    4.2633   -5.6063    5.9082 H   0  0  0  0  0  0  0  0  0  0  0  0
    3.2745   -3.3384    6.3723 H   0  0  0  0  0  0  0  0  0  0  0  0
    0.7496   -3.6196    3.1064 H   0  0  0  0  0  0  0  0  0  0  0  0
  1  2  1  0
  1 24  1  0
  1 25  1  0
  1 26  1  0
  2  3  1  0
  2 27  1  0
  2 28  1  0
  3  4  1  0
  4  5  2  0
  4  6  1  0
  6 17  1  0
  6 33  1  6
  6  7  1  0
  7  8  1  0
  7  9  2  0
  8 29  1  0
  8 31  1  0
  8 38  1  0
  9 10  1  0
 10 11  1  0
 10 16  2  0
 11 12  1  0
 11 32  1  0
 11 30  1  0
 12 13  1  0
 12 34  1  0
 12 35  1  0
 13 14  1  0
 13 36  1  0
 13 37  1  0
 14 15  2  0
 14 16  1  0
 16 17  1  0
 17 18  1  0
 17 39  1  6
 18 23  1  0
 18 19  2  0
 19 20  1  0
 19 40  1  0
 20 21  2  0
 20 41  1  0
 21 22  1  0
 21 42  1  0
 22 23  2  0
 23 43  1  0
M  END
>  <i_m_ct_stereo_status>  (156) 
1

>  <s_m_source_file>  (156) 
/var/tmp/pbs.5076255.sched01/tmpl63by5lx/41imve8rrw.sdf

>  <i_m_source_file_index>  (156) 
23

>  <i_lp_mmshare_version>  (156) 
48012

>  <i_f3d_flags>  (156) 
0

>  <s_epik_input>  (156) 
W0NIM11bQ0gyXU9DKD1PKUMoPUMoTj0xKVtDSDNdKVtDQEBIXShbQ0BASF0oQzEyKUMoPU8pW0NIMl1bQ0gyXVtDSDJdMiljM1tjSF1bY0hdW2NIXW5bY0hdMw==

>  <s_epik_cmdline>  (156) 
J2VwaWtfcHl0aG9uJywgJy1waHQnLCAnMi4wJywgJy1waCcsICc3LjAnLCAnLXRuJywgJzgnLCAnLW1hJywgJzIwMCcsICctaW1hZScsICc8aW5maWxlLm1hZT4nLCAnLW9tYWUnLCAnPG91dGZpbGUubWFlPic=

>  <r_lp_tautomer_probability>  (156) 
0.499981

>  <r_epik_Ionization_Penalty>  (156) 
0.00197433

>  <r_epik_Ionization_Penalty_Charging>  (156) 
0

>  <r_epik_Ionization_Penalty_Neutral>  (156) 
0.00197433

>  <r_epik_State_Penalty>  (156) 
0.814914

>  <r_epik_Charging_Adjusted_Penalty>  (156) 
0.814914

>  <i_epik_Tot_Q>  (156) 
0

>  <i_epik_Tot_abs_Q>  (156) 
0

>  <s_epik_Chemistry_Notes>  (156) 
This compound has an ester and may undergo hydrolysis at high or low pH. This compound has an imine and may undergo hydrolysis.

>  <s_lp_Force_Field>  (156) 
OPLS3e

>  <r_lp_Energy>  (156) 
32.4029

>  <b_lp_Chiralities_Consistent>  (156) 
1

>  <s_lp_Variant>  (156) 
45:0-3

>  <s_i_glide_gridfile>  (156) 
pfpi4k_grid

>  <i_i_glide_lignum>  (156) 
23

>  <i_i_glide_rotatable_bonds>  (156) 
4

>  <r_i_docking_score>  (156) 
-2.88081

>  <r_i_glide_ligand_efficiency>  (156) 
-0.125253

>  <r_i_glide_ligand_efficiency_sa>  (156) 
-0.356202

>  <r_i_glide_ligand_efficiency_ln>  (156) 
-0.696606

>  <r_i_glide_gscore>  (156) 
-2.88081

>  <r_i_glide_lipo>  (156) 
-0.279905

>  <r_i_glide_hbond>  (156) 
-0.16

>  <r_i_glide_metal>  (156) 
-0

>  <r_i_glide_rewards>  (156) 
-1.38815

>  <r_i_glide_evdw>  (156) 
-23.5666

>  <r_i_glide_ecoul>  (156) 
-2.59124

>  <r_i_glide_erotb>  (156) 
0.570621

>  <r_i_glide_esite>  (156) 
-0.0563589

>  <r_i_glide_emodel>  (156) 
-31.1789

>  <r_i_glide_energy>  (156) 
-26.1578

>  <r_i_glide_einternal>  (156) 
0.689191

>  <r_i_glide_intrahb_reward>  (156) 
-0

>  <i_i_glide_confnum>  (156) 
1

>  <i_i_glide_posenum>  (156) 
10

>  <r_i_glide_eff_state_penalty>  (156) 
0

>  <ligand_id>  (156) 
45

>  <original_smiles>  (156) 
CCOC(=O)C1=C(C)N=C2CCCC(=O)C2C1c1cccnc1

>  <smiles>  (156) 
[H]c1nc([H])c(C2([H])C3=C(N=C(C([H])([H])[H])C2([H])C(=O)OC([H])([H])C([H])([H])[H])C([H])([H])C([H])([H])C([H])([H])C3=O)c([H])c1[H]

$$$$
45:3:0
     RDKit          3D

 43 45  0  0  1  0  0  0  0  0999 V2000
    3.3756   -1.3153   -3.4745 C   0  0  0  0  0  0  0  0  0  0  0  0
    2.8324   -2.7544   -3.4225 C   0  0  0  0  0  0  0  0  0  0  0  0
    2.3908   -3.0910   -2.1171 O   0  0  0  0  0  0  0  0  0  0  0  0
    3.2884   -3.3681   -1.1554 C   0  0  0  0  0  0  0  0  0  0  0  0
    4.5134   -3.3160   -1.2945 O   0  0  0  0  0  0  0  0  0  0  0  0
    2.6043   -3.7671    0.1665 C   0  0  2  0  0  0  0  0  0  0  0  0
    3.1091   -2.8268    1.2658 C   0  0  0  0  0  0  0  0  0  0  0  0
    2.2718   -1.6004    1.5365 C   0  0  0  0  0  0  0  0  0  0  0  0
    4.1458   -3.0985    1.9620 N   0  0  0  0  0  0  0  0  0  0  0  0
    4.8297   -4.3190    1.8045 C   0  0  0  0  0  0  0  0  0  0  0  0
    6.1774   -4.4109    2.4751 C   0  0  0  0  0  0  0  0  0  0  0  0
    7.0768   -5.4661    1.8290 C   0  0  0  0  0  0  0  0  0  0  0  0
    6.3578   -6.8112    1.6690 C   0  0  0  0  0  0  0  0  0  0  0  0
    5.0172   -6.6393    0.9595 C   0  0  0  0  0  0  0  0  0  0  0  0
    4.5960   -7.5771    0.2789 O   0  0  0  0  0  0  0  0  0  0  0  0
    4.2803   -5.3661    1.1399 C   0  0  0  0  0  0  0  0  0  0  0  0
    2.8823   -5.2423    0.5546 C   0  0  1  0  0  0  0  0  0  0  0  0
    1.8274   -5.7873    1.5303 C   0  0  0  0  0  0  0  0  0  0  0  0
    0.8472   -6.7180    1.1258 C   0  0  0  0  0  0  0  0  0  0  0  0
   -0.0805   -7.2034    2.0709 C   0  0  0  0  0  0  0  0  0  0  0  0
    0.0250   -6.7654    3.4018 C   0  0  0  0  0  0  0  0  0  0  0  0
    0.9555   -5.8760    3.7980 N   0  0  0  0  0  0  0  0  0  0  0  0
    1.8423   -5.4148    2.8984 C   0  0  0  0  0  0  0  0  0  0  0  0
    3.7034   -1.0572   -4.4790 H   0  0  0  0  0  0  0  0  0  0  0  0
    4.2347   -1.1764   -2.8121 H   0  0  0  0  0  0  0  0  0  0  0  0
    2.6156   -0.5933   -3.1698 H   0  0  0  0  0  0  0  0  0  0  0  0
    1.9830   -2.8554   -4.1001 H   0  0  0  0  0  0  0  0  0  0  0  0
    3.5839   -3.4724   -3.7469 H   0  0  0  0  0  0  0  0  0  0  0  0
    1.2454   -1.8794    1.7747 H   0  0  0  0  0  0  0  0  0  0  0  0
    5.9839   -4.6732    3.5177 H   0  0  0  0  0  0  0  0  0  0  0  0
    2.2557   -0.9400    0.6704 H   0  0  0  0  0  0  0  0  0  0  0  0
    6.6309   -3.4276    2.4487 H   0  0  0  0  0  0  0  0  0  0  0  0
    1.5419   -3.6165   -0.0012 H   0  0  0  0  0  0  0  0  0  0  0  0
    7.9777   -5.5941    2.4299 H   0  0  0  0  0  0  0  0  0  0  0  0
    7.3952   -5.1070    0.8515 H   0  0  0  0  0  0  0  0  0  0  0  0
    6.9839   -7.5131    1.1221 H   0  0  0  0  0  0  0  0  0  0  0  0
    6.1596   -7.2557    2.6414 H   0  0  0  0  0  0  0  0  0  0  0  0
    2.6638   -1.0247    2.3787 H   0  0  0  0  0  0  0  0  0  0  0  0
    2.8457   -5.8603   -0.3355 H   0  0  0  0  0  0  0  0  0  0  0  0
    0.7932   -7.0638    0.1037 H   0  0  0  0  0  0  0  0  0  0  0  0
   -0.8395   -7.9249    1.7961 H   0  0  0  0  0  0  0  0  0  0  0  0
   -0.6395   -7.1046    4.1860 H   0  0  0  0  0  0  0  0  0  0  0  0
    2.5789   -4.7327    3.2959 H   0  0  0  0  0  0  0  0  0  0  0  0
  1  2  1  0
  1 24  1  0
  1 25  1  0
  1 26  1  0
  2  3  1  0
  2 27  1  0
  2 28  1  0
  3  4  1  0
  4  5  2  0
  4  6  1  0
  6 17  1  0
  6 33  1  6
  6  7  1  0
  7  8  1  0
  7  9  2  0
  8 29  1  0
  8 31  1  0
  8 38  1  0
  9 10  1  0
 10 11  1  0
 10 16  2  0
 11 12  1  0
 11 32  1  0
 11 30  1  0
 12 13  1  0
 12 34  1  0
 12 35  1  0
 13 14  1  0
 13 36  1  0
 13 37  1  0
 14 15  2  0
 14 16  1  0
 16 17  1  0
 17 18  1  0
 17 39  1  6
 18 23  1  0
 18 19  2  0
 19 20  1  0
 19 40  1  0
 20 21  2  0
 20 41  1  0
 21 22  1  0
 21 42  1  0
 22 23  2  0
 23 43  1  0
M  END
>  <i_m_ct_stereo_status>  (157) 
1

>  <s_m_source_file>  (157) 
/var/tmp/pbs.5076255.sched01/tmpl63by5lx/41imve8rrw.sdf

>  <i_m_source_file_index>  (157) 
24

>  <i_lp_mmshare_version>  (157) 
48012

>  <i_f3d_flags>  (157) 
0

>  <s_epik_input>  (157) 
W0NIM11bQ0gyXU9DKD1PKUMoPUMoTj0xKVtDSDNdKVtDQEBIXShbQ0BASF0oQzEyKUMoPU8pW0NIMl1bQ0gyXVtDSDJdMiljM1tjSF1bY0hdW2NIXW5bY0hdMw==

>  <s_epik_cmdline>  (157) 
J2VwaWtfcHl0aG9uJywgJy1waHQnLCAnMi4wJywgJy1waCcsICc3LjAnLCAnLXRuJywgJzgnLCAnLW1hJywgJzIwMCcsICctaW1hZScsICc8aW5maWxlLm1hZT4nLCAnLW9tYWUnLCAnPG91dGZpbGUubWFlPic=

>  <r_lp_tautomer_probability>  (157) 
0.499981

>  <r_epik_Ionization_Penalty>  (157) 
0.00197433

>  <r_epik_Ionization_Penalty_Charging>  (157) 
0

>  <r_epik_Ionization_Penalty_Neutral>  (157) 
0.00197433

>  <r_epik_State_Penalty>  (157) 
0.814914

>  <r_epik_Charging_Adjusted_Penalty>  (157) 
0.814914

>  <i_epik_Tot_Q>  (157) 
0

>  <i_epik_Tot_abs_Q>  (157) 
0

>  <s_epik_Chemistry_Notes>  (157) 
This compound has an ester and may undergo hydrolysis at high or low pH. This compound has an imine and may undergo hydrolysis.

>  <s_lp_Force_Field>  (157) 
OPLS3e

>  <r_lp_Energy>  (157) 
24.8287

>  <b_lp_Chiralities_Consistent>  (157) 
1

>  <s_lp_Variant>  (157) 
45:0-4

>  <s_i_glide_gridfile>  (157) 
pfpi4k_grid

>  <i_i_glide_lignum>  (157) 
24

>  <i_i_glide_rotatable_bonds>  (157) 
4

>  <r_i_docking_score>  (157) 
-2.98127

>  <r_i_glide_ligand_efficiency>  (157) 
-0.129621

>  <r_i_glide_ligand_efficiency_sa>  (157) 
-0.368624

>  <r_i_glide_ligand_efficiency_ln>  (157) 
-0.720899

>  <r_i_glide_gscore>  (157) 
-2.98127

>  <r_i_glide_lipo>  (157) 
-0.587821

>  <r_i_glide_hbond>  (157) 
0

>  <r_i_glide_metal>  (157) 
-0

>  <r_i_glide_rewards>  (157) 
-1.53181

>  <r_i_glide_evdw>  (157) 
-23.4886

>  <r_i_glide_ecoul>  (157) 
-1.64807

>  <r_i_glide_erotb>  (157) 
0.570621

>  <r_i_glide_esite>  (157) 
-0.010626

>  <r_i_glide_emodel>  (157) 
-29.2289

>  <r_i_glide_energy>  (157) 
-25.1366

>  <r_i_glide_einternal>  (157) 
1.74252

>  <r_i_glide_intrahb_reward>  (157) 
-0

>  <i_i_glide_confnum>  (157) 
5

>  <i_i_glide_posenum>  (157) 
35

>  <r_i_glide_eff_state_penalty>  (157) 
0

>  <ligand_id>  (157) 
45

>  <original_smiles>  (157) 
CCOC(=O)C1=C(C)N=C2CCCC(=O)C2C1c1cccnc1

>  <smiles>  (157) 
[H]c1nc([H])c(C2([H])C3=C(N=C(C([H])([H])[H])C2([H])C(=O)OC([H])([H])C([H])([H])[H])C([H])([H])C([H])([H])C([H])([H])C3=O)c([H])c1[H]

$$$$
45:3:1
     RDKit          3D

 43 45  0  0  1  0  0  0  0  0999 V2000
    3.4238   -1.7124   -3.4921 C   0  0  0  0  0  0  0  0  0  0  0  0
    2.8900   -3.1503   -3.3613 C   0  0  0  0  0  0  0  0  0  0  0  0
    2.4468   -3.4219   -2.0410 O   0  0  0  0  0  0  0  0  0  0  0  0
    3.3443   -3.5658   -1.0543 C   0  0  0  0  0  0  0  0  0  0  0  0
    4.5715   -3.4701   -1.1832 O   0  0  0  0  0  0  0  0  0  0  0  0
    2.6648   -3.9299    0.2804 C   0  0  2  0  0  0  0  0  0  0  0  0
    3.2614   -3.0242    1.3620 C   0  0  0  0  0  0  0  0  0  0  0  0
    2.5093   -1.7445    1.6402 C   0  0  0  0  0  0  0  0  0  0  0  0
    4.2887   -3.3718    2.0332 N   0  0  0  0  0  0  0  0  0  0  0  0
    4.8776   -4.6419    1.8483 C   0  0  0  0  0  0  0  0  0  0  0  0
    6.2410   -4.8100    2.4544 C   0  0  0  0  0  0  0  0  0  0  0  0
    7.0468   -5.9438    1.8167 C   0  0  0  0  0  0  0  0  0  0  0  0
    6.2321   -7.2339    1.6960 C   0  0  0  0  0  0  0  0  0  0  0  0
    4.8787   -6.9784    1.0315 C   0  0  0  0  0  0  0  0  0  0  0  0
    4.3539   -7.8947    0.4092 O   0  0  0  0  0  0  0  0  0  0  0  0
    4.2434   -5.6450    1.2012 C   0  0  0  0  0  0  0  0  0  0  0  0
    2.8409   -5.4342    0.6464 C   0  0  1  0  0  0  0  0  0  0  0  0
    1.7687   -5.8931    1.6546 C   0  0  0  0  0  0  0  0  0  0  0  0
    1.8830   -5.5824    3.0265 C   0  0  0  0  0  0  0  0  0  0  0  0
    0.8959   -6.0186    3.9202 C   0  0  0  0  0  0  0  0  0  0  0  0
   -0.1648   -6.7862    3.4258 C   0  0  0  0  0  0  0  0  0  0  0  0
   -0.2992   -7.0728    2.1103 N   0  0  0  0  0  0  0  0  0  0  0  0
    0.6766   -6.6791    1.2518 C   0  0  0  0  0  0  0  0  0  0  0  0
    3.7368   -1.4958   -4.5084 H   0  0  0  0  0  0  0  0  0  0  0  0
    4.2886   -1.5257   -2.8503 H   0  0  0  0  0  0  0  0  0  0  0  0
    2.6569   -0.9910   -3.2075 H   0  0  0  0  0  0  0  0  0  0  0  0
    2.0413   -3.2906   -4.0311 H   0  0  0  0  0  0  0  0  0  0  0  0
    3.6409   -3.8825   -3.6529 H   0  0  0  0  0  0  0  0  0  0  0  0
    1.4750   -1.9597    1.9092 H   0  0  0  0  0  0  0  0  0  0  0  0
    6.1116   -4.9717    3.5215 H   0  0  0  0  0  0  0  0  0  0  0  0
    2.5077   -1.1102    0.7562 H   0  0  0  0  0  0  0  0  0  0  0  0
    6.7315   -3.8577    2.3059 H   0  0  0  0  0  0  0  0  0  0  0  0
    1.6182   -3.6913    0.1377 H   0  0  0  0  0  0  0  0  0  0  0  0
    7.9491   -6.1256    2.4023 H   0  0  0  0  0  0  0  0  0  0  0  0
    7.3675   -5.6253    0.8261 H   0  0  0  0  0  0  0  0  0  0  0  0
    6.7913   -7.9816    1.1343 H   0  0  0  0  0  0  0  0  0  0  0  0
    6.0327   -7.6564    2.6780 H   0  0  0  0  0  0  0  0  0  0  0  0
    2.9633   -1.1860    2.4613 H   0  0  0  0  0  0  0  0  0  0  0  0
    2.7693   -6.0137   -0.2745 H   0  0  0  0  0  0  0  0  0  0  0  0
    2.6895   -4.9885    3.4228 H   0  0  0  0  0  0  0  0  0  0  0  0
    0.9860   -5.7699    4.9661 H   0  0  0  0  0  0  0  0  0  0  0  0
   -0.9370   -7.1511    4.0971 H   0  0  0  0  0  0  0  0  0  0  0  0
    0.5378   -6.9814    0.2269 H   0  0  0  0  0  0  0  0  0  0  0  0
  1  2  1  0
  1 24  1  0
  1 25  1  0
  1 26  1  0
  2  3  1  0
  2 27  1  0
  2 28  1  0
  3  4  1  0
  4  5  2  0
  4  6  1  0
  6 17  1  0
  6 33  1  6
  6  7  1  0
  7  8  1  0
  7  9  2  0
  8 29  1  0
  8 31  1  0
  8 38  1  0
  9 10  1  0
 10 11  1  0
 10 16  2  0
 11 12  1  0
 11 32  1  0
 11 30  1  0
 12 13  1  0
 12 34  1  0
 12 35  1  0
 13 14  1  0
 13 36  1  0
 13 37  1  0
 14 15  2  0
 14 16  1  0
 16 17  1  0
 17 18  1  0
 17 39  1  6
 18 23  1  0
 18 19  2  0
 19 20  1  0
 19 40  1  0
 20 21  2  0
 20 41  1  0
 21 22  1  0
 21 42  1  0
 22 23  2  0
 23 43  1  0
M  END
>  <i_m_ct_stereo_status>  (158) 
1

>  <s_m_source_file>  (158) 
/var/tmp/pbs.5076255.sched01/tmpl63by5lx/41imve8rrw.sdf

>  <i_m_source_file_index>  (158) 
24

>  <i_lp_mmshare_version>  (158) 
48012

>  <i_f3d_flags>  (158) 
0

>  <s_epik_input>  (158) 
W0NIM11bQ0gyXU9DKD1PKUMoPUMoTj0xKVtDSDNdKVtDQEBIXShbQ0BASF0oQzEyKUMoPU8pW0NIMl1bQ0gyXVtDSDJdMiljM1tjSF1bY0hdW2NIXW5bY0hdMw==

>  <s_epik_cmdline>  (158) 
J2VwaWtfcHl0aG9uJywgJy1waHQnLCAnMi4wJywgJy1waCcsICc3LjAnLCAnLXRuJywgJzgnLCAnLW1hJywgJzIwMCcsICctaW1hZScsICc8aW5maWxlLm1hZT4nLCAnLW9tYWUnLCAnPG91dGZpbGUubWFlPic=

>  <r_lp_tautomer_probability>  (158) 
0.499981

>  <r_epik_Ionization_Penalty>  (158) 
0.00197433

>  <r_epik_Ionization_Penalty_Charging>  (158) 
0

>  <r_epik_Ionization_Penalty_Neutral>  (158) 
0.00197433

>  <r_epik_State_Penalty>  (158) 
0.814914

>  <r_epik_Charging_Adjusted_Penalty>  (158) 
0.814914

>  <i_epik_Tot_Q>  (158) 
0

>  <i_epik_Tot_abs_Q>  (158) 
0

>  <s_epik_Chemistry_Notes>  (158) 
This compound has an ester and may undergo hydrolysis at high or low pH. This compound has an imine and may undergo hydrolysis.

>  <s_lp_Force_Field>  (158) 
OPLS3e

>  <r_lp_Energy>  (158) 
24.8287

>  <b_lp_Chiralities_Consistent>  (158) 
1

>  <s_lp_Variant>  (158) 
45:0-4

>  <s_i_glide_gridfile>  (158) 
pfpi4k_grid

>  <i_i_glide_lignum>  (158) 
24

>  <i_i_glide_rotatable_bonds>  (158) 
4

>  <r_i_docking_score>  (158) 
-2.96863

>  <r_i_glide_ligand_efficiency>  (158) 
-0.129071

>  <r_i_glide_ligand_efficiency_sa>  (158) 
-0.36706

>  <r_i_glide_ligand_efficiency_ln>  (158) 
-0.717841

>  <r_i_glide_gscore>  (158) 
-2.96863

>  <r_i_glide_lipo>  (158) 
-0.590885

>  <r_i_glide_hbond>  (158) 
-0.078451

>  <r_i_glide_metal>  (158) 
-0

>  <r_i_glide_rewards>  (158) 
-1.44739

>  <r_i_glide_evdw>  (158) 
-23.3373

>  <r_i_glide_ecoul>  (158) 
-1.6775

>  <r_i_glide_erotb>  (158) 
0.570621

>  <r_i_glide_esite>  (158) 
-0.00403294

>  <r_i_glide_emodel>  (158) 
-29.1402

>  <r_i_glide_energy>  (158) 
-25.0148

>  <r_i_glide_einternal>  (158) 
1.26138

>  <r_i_glide_intrahb_reward>  (158) 
-0

>  <i_i_glide_confnum>  (158) 
1

>  <i_i_glide_posenum>  (158) 
13

>  <r_i_glide_eff_state_penalty>  (158) 
0

>  <ligand_id>  (158) 
45

>  <original_smiles>  (158) 
CCOC(=O)C1=C(C)N=C2CCCC(=O)C2C1c1cccnc1

>  <smiles>  (158) 
[H]c1nc([H])c(C2([H])C3=C(N=C(C([H])([H])[H])C2([H])C(=O)OC([H])([H])C([H])([H])[H])C([H])([H])C([H])([H])C([H])([H])C3=O)c([H])c1[H]

$$$$
45:3:2
     RDKit          3D

 43 45  0  0  1  0  0  0  0  0999 V2000
    4.8132   -5.2717   -0.4237 C   0  0  0  0  0  0  0  0  0  0  0  0
    3.7671   -4.2651    0.0731 C   0  0  0  0  0  0  0  0  0  0  0  0
    3.5546   -4.4541    1.4629 O   0  0  0  0  0  0  0  0  0  0  0  0
    2.5431   -5.2202    1.9003 C   0  0  0  0  0  0  0  0  0  0  0  0
    1.6691   -5.7224    1.1856 O   0  0  0  0  0  0  0  0  0  0  0  0
    2.5919   -5.4328    3.4258 C   0  0  2  0  0  0  0  0  0  0  0  0
    3.6999   -6.4588    3.6877 C   0  0  0  0  0  0  0  0  0  0  0  0
    5.0702   -5.8823    3.9750 C   0  0  0  0  0  0  0  0  0  0  0  0
    3.4792   -7.7171    3.7010 N   0  0  0  0  0  0  0  0  0  0  0  0
    2.1725   -8.2346    3.5870 C   0  0  0  0  0  0  0  0  0  0  0  0
    2.0667   -9.7333    3.3894 C   0  0  0  0  0  0  0  0  0  0  0  0
    0.7465  -10.1239    2.7243 C   0  0  0  0  0  0  0  0  0  0  0  0
   -0.4680   -9.4723    3.4035 C   0  0  0  0  0  0  0  0  0  0  0  0
   -0.2903   -7.9629    3.5387 C   0  0  0  0  0  0  0  0  0  0  0  0
   -1.2943   -7.2392    3.5276 O   0  0  0  0  0  0  0  0  0  0  0  0
    1.0838   -7.4320    3.7028 C   0  0  0  0  0  0  0  0  0  0  0  0
    1.2458   -5.9472    4.0049 C   0  0  1  0  0  0  0  0  0  0  0  0
    1.1580   -5.6834    5.5104 C   0  0  0  0  0  0  0  0  0  0  0  0
    1.8090   -6.5300    6.4343 C   0  0  0  0  0  0  0  0  0  0  0  0
    1.7210   -6.2627    7.8067 C   0  0  0  0  0  0  0  0  0  0  0  0
    0.9615   -5.1582    8.2280 C   0  0  0  0  0  0  0  0  0  0  0  0
    0.3212   -4.3444    7.3582 N   0  0  0  0  0  0  0  0  0  0  0  0
    0.4210   -4.6053    6.0306 C   0  0  0  0  0  0  0  0  0  0  0  0
    5.0063   -5.1361   -1.4886 H   0  0  0  0  0  0  0  0  0  0  0  0
    4.4790   -6.3010   -0.2762 H   0  0  0  0  0  0  0  0  0  0  0  0
    5.7601   -5.1509    0.1042 H   0  0  0  0  0  0  0  0  0  0  0  0
    4.1268   -3.2477   -0.0786 H   0  0  0  0  0  0  0  0  0  0  0  0
    2.8428   -4.3596   -0.4986 H   0  0  0  0  0  0  0  0  0  0  0  0
    5.0267   -5.2152    4.8335 H   0  0  0  0  0  0  0  0  0  0  0  0
    2.1331  -10.1991    4.3687 H   0  0  0  0  0  0  0  0  0  0  0  0
    5.4458   -5.3173    3.1244 H   0  0  0  0  0  0  0  0  0  0  0  0
    2.9163  -10.0930    2.8076 H   0  0  0  0  0  0  0  0  0  0  0  0
    2.8428   -4.4793    3.8925 H   0  0  0  0  0  0  0  0  0  0  0  0
    0.6432  -11.2100    2.7053 H   0  0  0  0  0  0  0  0  0  0  0  0
    0.7938   -9.7966    1.6901 H   0  0  0  0  0  0  0  0  0  0  0  0
   -1.3827   -9.7118    2.8598 H   0  0  0  0  0  0  0  0  0  0  0  0
   -0.5822   -9.8725    4.4051 H   0  0  0  0  0  0  0  0  0  0  0  0
    5.7845   -6.6716    4.2003 H   0  0  0  0  0  0  0  0  0  0  0  0
    0.4272   -5.4095    3.5265 H   0  0  0  0  0  0  0  0  0  0  0  0
    2.3876   -7.3841    6.1224 H   0  0  0  0  0  0  0  0  0  0  0  0
    2.2301   -6.9077    8.5051 H   0  0  0  0  0  0  0  0  0  0  0  0
    0.8733   -4.9340    9.2879 H   0  0  0  0  0  0  0  0  0  0  0  0
   -0.1056   -3.9165    5.3884 H   0  0  0  0  0  0  0  0  0  0  0  0
  1  2  1  0
  1 24  1  0
  1 25  1  0
  1 26  1  0
  2  3  1  0
  2 27  1  0
  2 28  1  0
  3  4  1  0
  4  5  2  0
  4  6  1  0
  6 17  1  0
  6 33  1  1
  6  7  1  0
  7  8  1  0
  7  9  2  0
  8 29  1  0
  8 31  1  0
  8 38  1  0
  9 10  1  0
 10 11  1  0
 10 16  2  0
 11 12  1  0
 11 32  1  0
 11 30  1  0
 12 13  1  0
 12 34  1  0
 12 35  1  0
 13 14  1  0
 13 36  1  0
 13 37  1  0
 14 15  2  0
 14 16  1  0
 16 17  1  0
 17 18  1  0
 17 39  1  6
 18 23  1  0
 18 19  2  0
 19 20  1  0
 19 40  1  0
 20 21  2  0
 20 41  1  0
 21 22  1  0
 21 42  1  0
 22 23  2  0
 23 43  1  0
M  END
>  <i_m_ct_stereo_status>  (159) 
1

>  <s_m_source_file>  (159) 
/var/tmp/pbs.5076255.sched01/tmpl63by5lx/41imve8rrw.sdf

>  <i_m_source_file_index>  (159) 
24

>  <i_lp_mmshare_version>  (159) 
48012

>  <i_f3d_flags>  (159) 
0

>  <s_epik_input>  (159) 
W0NIM11bQ0gyXU9DKD1PKUMoPUMoTj0xKVtDSDNdKVtDQEBIXShbQ0BASF0oQzEyKUMoPU8pW0NIMl1bQ0gyXVtDSDJdMiljM1tjSF1bY0hdW2NIXW5bY0hdMw==

>  <s_epik_cmdline>  (159) 
J2VwaWtfcHl0aG9uJywgJy1waHQnLCAnMi4wJywgJy1waCcsICc3LjAnLCAnLXRuJywgJzgnLCAnLW1hJywgJzIwMCcsICctaW1hZScsICc8aW5maWxlLm1hZT4nLCAnLW9tYWUnLCAnPG91dGZpbGUubWFlPic=

>  <r_lp_tautomer_probability>  (159) 
0.499981

>  <r_epik_Ionization_Penalty>  (159) 
0.00197433

>  <r_epik_Ionization_Penalty_Charging>  (159) 
0

>  <r_epik_Ionization_Penalty_Neutral>  (159) 
0.00197433

>  <r_epik_State_Penalty>  (159) 
0.814914

>  <r_epik_Charging_Adjusted_Penalty>  (159) 
0.814914

>  <i_epik_Tot_Q>  (159) 
0

>  <i_epik_Tot_abs_Q>  (159) 
0

>  <s_epik_Chemistry_Notes>  (159) 
This compound has an ester and may undergo hydrolysis at high or low pH. This compound has an imine and may undergo hydrolysis.

>  <s_lp_Force_Field>  (159) 
OPLS3e

>  <r_lp_Energy>  (159) 
24.8287

>  <b_lp_Chiralities_Consistent>  (159) 
1

>  <s_lp_Variant>  (159) 
45:0-4

>  <s_i_glide_gridfile>  (159) 
pfpi4k_grid

>  <i_i_glide_lignum>  (159) 
24

>  <i_i_glide_rotatable_bonds>  (159) 
4

>  <r_i_docking_score>  (159) 
-2.72335

>  <r_i_glide_ligand_efficiency>  (159) 
-0.118406

>  <r_i_glide_ligand_efficiency_sa>  (159) 
-0.336732

>  <r_i_glide_ligand_efficiency_ln>  (159) 
-0.65853

>  <r_i_glide_gscore>  (159) 
-2.72335

>  <r_i_glide_lipo>  (159) 
-0.123231

>  <r_i_glide_hbond>  (159) 
-0.140296

>  <r_i_glide_metal>  (159) 
-0

>  <r_i_glide_rewards>  (159) 
-1.27934

>  <r_i_glide_evdw>  (159) 
-18.8663

>  <r_i_glide_ecoul>  (159) 
-4.97578

>  <r_i_glide_erotb>  (159) 
0.570621

>  <r_i_glide_esite>  (159) 
-0.0614148

>  <r_i_glide_emodel>  (159) 
-28.3335

>  <r_i_glide_energy>  (159) 
-23.8421

>  <r_i_glide_einternal>  (159) 
0.251609

>  <r_i_glide_intrahb_reward>  (159) 
-0

>  <i_i_glide_confnum>  (159) 
1

>  <i_i_glide_posenum>  (159) 
3

>  <r_i_glide_eff_state_penalty>  (159) 
0

>  <ligand_id>  (159) 
45

>  <original_smiles>  (159) 
CCOC(=O)C1=C(C)N=C2CCCC(=O)C2C1c1cccnc1

>  <smiles>  (159) 
[H]c1nc([H])c(C2([H])C3=C(N=C(C([H])([H])[H])C2([H])C(=O)OC([H])([H])C([H])([H])[H])C([H])([H])C([H])([H])C([H])([H])C3=O)c([H])c1[H]

$$$$
45:4:0
     RDKit          3D

 43 45  0  0  1  0  0  0  0  0999 V2000
    3.3216   -0.6639   -3.2346 C   0  0  0  0  0  0  0  0  0  0  0  0
    3.7112   -2.1345   -3.4937 C   0  0  0  0  0  0  0  0  0  0  0  0
    4.1145   -2.8644   -2.3292 O   0  0  0  0  0  0  0  0  0  0  0  0
    5.2193   -2.5070   -1.6109 C   0  0  0  0  0  0  0  0  0  0  0  0
    5.7979   -1.4412   -1.7773 O   0  0  0  0  0  0  0  0  0  0  0  0
    5.6110   -3.5118   -0.6003 C   0  0  0  0  0  0  0  0  0  0  0  0
    6.9218   -3.7700   -0.3430 C   0  0  0  0  0  0  0  0  0  0  0  0
    8.1000   -3.1406   -1.0932 C   0  0  0  0  0  0  0  0  0  0  0  0
    7.2938   -4.6681    0.6680 N   0  0  0  0  0  0  0  0  0  0  0  0
    6.4529   -5.4110    1.2831 C   0  0  0  0  0  0  0  0  0  0  0  0
    6.9422   -6.4222    2.3073 C   0  0  0  0  0  0  0  0  0  0  0  0
    6.0213   -6.5528    3.5178 C   0  0  0  0  0  0  0  0  0  0  0  0
    4.5843   -6.9047    3.1119 C   0  0  0  0  0  0  0  0  0  0  0  0
    4.0251   -5.8648    2.1534 C   0  0  0  0  0  0  0  0  0  0  0  0
    2.8635   -5.4742    2.2610 O   0  0  0  0  0  0  0  0  0  0  0  0
    4.9220   -5.3953    0.9900 C   0  0  1  0  0  0  0  0  0  0  0  0
    4.4950   -4.0833    0.2666 C   0  0  1  0  0  0  0  0  0  0  0  0
    3.9936   -3.0131    1.2532 C   0  0  0  0  0  0  0  0  0  0  0  0
    2.7172   -2.4426    1.1467 C   0  0  0  0  0  0  0  0  0  0  0  0
    2.2892   -1.4907    2.0811 C   0  0  0  0  0  0  0  0  0  0  0  0
    3.1690   -1.1264    3.1082 C   0  0  0  0  0  0  0  0  0  0  0  0
    4.4206   -1.6237    3.1981 N   0  0  0  0  0  0  0  0  0  0  0  0
    4.8166   -2.5592    2.3100 C   0  0  0  0  0  0  0  0  0  0  0  0
    2.9059   -0.1993   -4.1380 H   0  0  0  0  0  0  0  0  0  0  0  0
    4.1496   -0.0342   -2.8773 H   0  0  0  0  0  0  0  0  0  0  0  0
    2.5340   -0.6215   -2.4842 H   0  0  0  0  0  0  0  0  0  0  0  0
    2.8566   -2.6631   -3.9005 H   0  0  0  0  0  0  0  0  0  0  0  0
    4.5010   -2.2142   -4.2295 H   0  0  0  0  0  0  0  0  0  0  0  0
    7.8643   -2.7669   -2.0912 H   0  0  0  0  0  0  0  0  0  0  0  0
    8.9311   -3.8619   -1.1804 H   0  0  0  0  0  0  0  0  0  0  0  0
    8.5188   -2.3052   -0.5302 H   0  0  0  0  0  0  0  0  0  0  0  0
    7.0571   -7.3765    1.8055 H   0  0  0  0  0  0  0  0  0  0  0  0
    7.9381   -6.1196    2.6164 H   0  0  0  0  0  0  0  0  0  0  0  0
    6.4158   -7.3226    4.1787 H   0  0  0  0  0  0  0  0  0  0  0  0
    6.0341   -5.6244    4.0869 H   0  0  0  0  0  0  0  0  0  0  0  0
    4.5497   -7.8857    2.6327 H   0  0  0  0  0  0  0  0  0  0  0  0
    3.9625   -6.9573    3.9983 H   0  0  0  0  0  0  0  0  0  0  0  0
    4.7904   -6.1618    0.2273 H   0  0  0  0  0  0  0  0  0  0  0  0
    3.6466   -4.3730   -0.3569 H   0  0  0  0  0  0  0  0  0  0  0  0
    2.0654   -2.7332    0.3306 H   0  0  0  0  0  0  0  0  0  0  0  0
    1.3052   -1.0751    2.0370 H   0  0  0  0  0  0  0  0  0  0  0  0
    2.8897   -0.4333    3.8909 H   0  0  0  0  0  0  0  0  0  0  0  0
    5.8159   -2.9195    2.4460 H   0  0  0  0  0  0  0  0  0  0  0  0
  1  2  1  0
  1 24  1  0
  1 25  1  0
  1 26  1  0
  2  3  1  0
  2 27  1  0
  2 28  1  0
  3  4  1  0
  4  5  2  0
  4  6  1  0
  6 17  1  0
  6  7  2  0
  7  8  1  0
  7  9  1  0
  8 29  1  0
  8 30  1  0
  8 31  1  0
  9 10  2  0
 10 16  1  0
 10 11  1  0
 11 12  1  0
 11 32  1  0
 11 33  1  0
 12 13  1  0
 12 34  1  0
 12 35  1  0
 13 14  1  0
 13 36  1  0
 13 37  1  0
 14 15  2  0
 14 16  1  0
 16 17  1  0
 16 38  1  6
 17 18  1  0
 17 39  1  6
 18 23  1  0
 18 19  2  0
 19 20  1  0
 19 40  1  0
 20 21  2  0
 20 41  1  0
 21 22  1  0
 21 42  1  0
 22 23  2  0
 23 43  1  0
M  END
>  <i_m_ct_stereo_status>  (160) 
1

>  <s_m_source_file>  (160) 
/var/tmp/pbs.5076255.sched01/tmpl63by5lx/41imve8rrw.sdf

>  <i_m_source_file_index>  (160) 
25

>  <i_lp_mmshare_version>  (160) 
48012

>  <i_f3d_flags>  (160) 
0

>  <s_epik_input>  (160) 
W0NIM11bQ0gyXU9DKD1PKUMoPUMoTj0xKVtDSDNdKVtDQEBIXShbQ0BASF0oQzEyKUMoPU8pW0NIMl1bQ0gyXVtDSDJdMiljM1tjSF1bY0hdW2NIXW5bY0hdMw==

>  <s_epik_cmdline>  (160) 
J2VwaWtfcHl0aG9uJywgJy1waHQnLCAnMi4wJywgJy1waCcsICc3LjAnLCAnLXRuJywgJzgnLCAnLW1hJywgJzIwMCcsICctaW1hZScsICc8aW5maWxlLm1hZT4nLCAnLW9tYWUnLCAnPG91dGZpbGUubWFlPic=

>  <r_epik_Ionization_Penalty>  (160) 
0.00260276

>  <r_epik_Ionization_Penalty_Charging>  (160) 
0

>  <r_epik_Ionization_Penalty_Neutral>  (160) 
0.00260276

>  <r_epik_State_Penalty>  (160) 
0.836246

>  <r_epik_Charging_Adjusted_Penalty>  (160) 
0.836246

>  <i_epik_Tot_Q>  (160) 
0

>  <i_epik_Tot_abs_Q>  (160) 
0

>  <s_epik_Chemistry_Notes>  (160) 
This compound has an ester and may undergo hydrolysis at high or low pH. This compound has an imine and may undergo hydrolysis.

>  <s_lp_Force_Field>  (160) 
OPLS3e

>  <r_lp_Energy>  (160) 
33.0513

>  <b_lp_Chiralities_Consistent>  (160) 
1

>  <s_lp_Variant>  (160) 
45:0-5

>  <s_i_glide_gridfile>  (160) 
pfpi4k_grid

>  <i_i_glide_lignum>  (160) 
25

>  <i_i_glide_rotatable_bonds>  (160) 
4

>  <r_i_docking_score>  (160) 
-3.23534

>  <r_i_glide_ligand_efficiency>  (160) 
-0.140667

>  <r_i_glide_ligand_efficiency_sa>  (160) 
-0.400038

>  <r_i_glide_ligand_efficiency_ln>  (160) 
-0.782335

>  <r_i_glide_gscore>  (160) 
-3.23534

>  <r_i_glide_lipo>  (160) 
-0.629187

>  <r_i_glide_hbond>  (160) 
-0.0707136

>  <r_i_glide_metal>  (160) 
-0

>  <r_i_glide_rewards>  (160) 
-1.4164

>  <r_i_glide_evdw>  (160) 
-28.0687

>  <r_i_glide_ecoul>  (160) 
-1.79924

>  <r_i_glide_erotb>  (160) 
0.570621

>  <r_i_glide_esite>  (160) 
-0.0163408

>  <r_i_glide_emodel>  (160) 
-34.9263

>  <r_i_glide_energy>  (160) 
-29.868

>  <r_i_glide_einternal>  (160) 
1.5224

>  <r_i_glide_intrahb_reward>  (160) 
-0

>  <i_i_glide_confnum>  (160) 
3

>  <i_i_glide_posenum>  (160) 
4

>  <r_i_glide_eff_state_penalty>  (160) 
0

>  <ligand_id>  (160) 
45

>  <original_smiles>  (160) 
CCOC(=O)C1=C(C)N=C2CCCC(=O)C2C1c1cccnc1

>  <smiles>  (160) 
[H]c1nc([H])c(C2([H])C(C(=O)OC([H])([H])C([H])([H])[H])=C(C([H])([H])[H])N=C3C([H])([H])C([H])([H])C([H])([H])C(=O)C32[H])c([H])c1[H]

$$$$
45:4:1
     RDKit          3D

 43 45  0  0  1  0  0  0  0  0999 V2000
    3.8020   -1.2099   -4.2011 C   0  0  0  0  0  0  0  0  0  0  0  0
    3.4550   -0.8818   -2.7480 C   0  0  0  0  0  0  0  0  0  0  0  0
    3.8229   -1.9951   -1.9274 O   0  0  0  0  0  0  0  0  0  0  0  0
    4.9784   -2.0124   -1.2135 C   0  0  0  0  0  0  0  0  0  0  0  0
    5.7484   -1.0595   -1.1414 O   0  0  0  0  0  0  0  0  0  0  0  0
    5.2152   -3.2737   -0.4987 C   0  0  0  0  0  0  0  0  0  0  0  0
    6.4720   -3.7545   -0.3080 C   0  0  0  0  0  0  0  0  0  0  0  0
    7.7542   -3.1336   -0.8789 C   0  0  0  0  0  0  0  0  0  0  0  0
    6.6891   -4.8936    0.4773 N   0  0  0  0  0  0  0  0  0  0  0  0
    5.7347   -5.6639    0.8714 C   0  0  0  0  0  0  0  0  0  0  0  0
    6.0447   -6.9612    1.6054 C   0  0  0  0  0  0  0  0  0  0  0  0
    5.0679   -7.2675    2.7435 C   0  0  0  0  0  0  0  0  0  0  0  0
    3.6151   -7.2971    2.2581 C   0  0  0  0  0  0  0  0  0  0  0  0
    3.2365   -5.9842    1.5916 C   0  0  0  0  0  0  0  0  0  0  0  0
    2.1305   -5.4912    1.7788 O   0  0  0  0  0  0  0  0  0  0  0  0
    4.2402   -5.3755    0.5809 C   0  0  1  0  0  0  0  0  0  0  0  0
    4.0159   -3.8791    0.2259 C   0  0  1  0  0  0  0  0  0  0  0  0
    3.6620   -3.0156    1.4458 C   0  0  0  0  0  0  0  0  0  0  0  0
    2.4865   -2.2421    1.4514 C   0  0  0  0  0  0  0  0  0  0  0  0
    2.1611   -1.5030    2.5989 C   0  0  0  0  0  0  0  0  0  0  0  0
    3.0201   -1.5692    3.7045 C   0  0  0  0  0  0  0  0  0  0  0  0
    4.1690   -2.2795    3.6981 N   0  0  0  0  0  0  0  0  0  0  0  0
    4.4718   -2.9952    2.5952 C   0  0  0  0  0  0  0  0  0  0  0  0
    3.5445   -0.3769   -4.8553 H   0  0  0  0  0  0  0  0  0  0  0  0
    3.2521   -2.0917   -4.5343 H   0  0  0  0  0  0  0  0  0  0  0  0
    4.8696   -1.4160   -4.3196 H   0  0  0  0  0  0  0  0  0  0  0  0
    3.9663    0.0334   -2.4567 H   0  0  0  0  0  0  0  0  0  0  0  0
    2.3859   -0.6936   -2.6350 H   0  0  0  0  0  0  0  0  0  0  0  0
    7.5918   -2.4857   -1.7434 H   0  0  0  0  0  0  0  0  0  0  0  0
    8.4847   -3.9134   -1.1370 H   0  0  0  0  0  0  0  0  0  0  0  0
    8.2581   -2.5416   -0.1180 H   0  0  0  0  0  0  0  0  0  0  0  0
    6.0341   -7.7774    0.8879 H   0  0  0  0  0  0  0  0  0  0  0  0
    7.0590   -6.9076    1.9873 H   0  0  0  0  0  0  0  0  0  0  0  0
    5.3212   -8.2305    3.1892 H   0  0  0  0  0  0  0  0  0  0  0  0
    5.1850   -6.5282    3.5350 H   0  0  0  0  0  0  0  0  0  0  0  0
    3.4584   -8.1125    1.5495 H   0  0  0  0  0  0  0  0  0  0  0  0
    2.9537   -7.4761    3.1007 H   0  0  0  0  0  0  0  0  0  0  0  0
    4.0388   -5.9080   -0.3477 H   0  0  0  0  0  0  0  0  0  0  0  0
    3.1655   -3.8900   -0.4578 H   0  0  0  0  0  0  0  0  0  0  0  0
    1.8551   -2.2495    0.5764 H   0  0  0  0  0  0  0  0  0  0  0  0
    1.2534   -0.9321    2.6511 H   0  0  0  0  0  0  0  0  0  0  0  0
    2.8061   -1.0580    4.6367 H   0  0  0  0  0  0  0  0  0  0  0  0
    5.3845   -3.5621    2.6511 H   0  0  0  0  0  0  0  0  0  0  0  0
  1  2  1  0
  1 24  1  0
  1 25  1  0
  1 26  1  0
  2  3  1  0
  2 27  1  0
  2 28  1  0
  3  4  1  0
  4  5  2  0
  4  6  1  0
  6 17  1  0
  6  7  2  0
  7  8  1  0
  7  9  1  0
  8 29  1  0
  8 30  1  0
  8 31  1  0
  9 10  2  0
 10 16  1  0
 10 11  1  0
 11 12  1  0
 11 32  1  0
 11 33  1  0
 12 13  1  0
 12 34  1  0
 12 35  1  0
 13 14  1  0
 13 36  1  0
 13 37  1  0
 14 15  2  0
 14 16  1  0
 16 17  1  0
 16 38  1  6
 17 18  1  0
 17 39  1  6
 18 23  1  0
 18 19  2  0
 19 20  1  0
 19 40  1  0
 20 21  2  0
 20 41  1  0
 21 22  1  0
 21 42  1  0
 22 23  2  0
 23 43  1  0
M  END
>  <i_m_ct_stereo_status>  (161) 
1

>  <s_m_source_file>  (161) 
/var/tmp/pbs.5076255.sched01/tmpl63by5lx/41imve8rrw.sdf

>  <i_m_source_file_index>  (161) 
25

>  <i_lp_mmshare_version>  (161) 
48012

>  <i_f3d_flags>  (161) 
0

>  <s_epik_input>  (161) 
W0NIM11bQ0gyXU9DKD1PKUMoPUMoTj0xKVtDSDNdKVtDQEBIXShbQ0BASF0oQzEyKUMoPU8pW0NIMl1bQ0gyXVtDSDJdMiljM1tjSF1bY0hdW2NIXW5bY0hdMw==

>  <s_epik_cmdline>  (161) 
J2VwaWtfcHl0aG9uJywgJy1waHQnLCAnMi4wJywgJy1waCcsICc3LjAnLCAnLXRuJywgJzgnLCAnLW1hJywgJzIwMCcsICctaW1hZScsICc8aW5maWxlLm1hZT4nLCAnLW9tYWUnLCAnPG91dGZpbGUubWFlPic=

>  <r_epik_Ionization_Penalty>  (161) 
0.00260276

>  <r_epik_Ionization_Penalty_Charging>  (161) 
0

>  <r_epik_Ionization_Penalty_Neutral>  (161) 
0.00260276

>  <r_epik_State_Penalty>  (161) 
0.836246

>  <r_epik_Charging_Adjusted_Penalty>  (161) 
0.836246

>  <i_epik_Tot_Q>  (161) 
0

>  <i_epik_Tot_abs_Q>  (161) 
0

>  <s_epik_Chemistry_Notes>  (161) 
This compound has an ester and may undergo hydrolysis at high or low pH. This compound has an imine and may undergo hydrolysis.

>  <s_lp_Force_Field>  (161) 
OPLS3e

>  <r_lp_Energy>  (161) 
33.0513

>  <b_lp_Chiralities_Consistent>  (161) 
1

>  <s_lp_Variant>  (161) 
45:0-5

>  <s_i_glide_gridfile>  (161) 
pfpi4k_grid

>  <i_i_glide_lignum>  (161) 
25

>  <i_i_glide_rotatable_bonds>  (161) 
4

>  <r_i_docking_score>  (161) 
-3.05204

>  <r_i_glide_ligand_efficiency>  (161) 
-0.132697

>  <r_i_glide_ligand_efficiency_sa>  (161) 
-0.377374

>  <r_i_glide_ligand_efficiency_ln>  (161) 
-0.738011

>  <r_i_glide_gscore>  (161) 
-3.05204

>  <r_i_glide_lipo>  (161) 
-0.353652

>  <r_i_glide_hbond>  (161) 
-0.0542531

>  <r_i_glide_metal>  (161) 
-0

>  <r_i_glide_rewards>  (161) 
-1.44272

>  <r_i_glide_evdw>  (161) 
-27.3037

>  <r_i_glide_ecoul>  (161) 
-2.53358

>  <r_i_glide_erotb>  (161) 
0.570621

>  <r_i_glide_esite>  (161) 
-0.0268124

>  <r_i_glide_emodel>  (161) 
-35.2552

>  <r_i_glide_energy>  (161) 
-29.8373

>  <r_i_glide_einternal>  (161) 
0.673211

>  <r_i_glide_intrahb_reward>  (161) 
-0

>  <i_i_glide_confnum>  (161) 
3

>  <i_i_glide_posenum>  (161) 
13

>  <r_i_glide_eff_state_penalty>  (161) 
0

>  <ligand_id>  (161) 
45

>  <original_smiles>  (161) 
CCOC(=O)C1=C(C)N=C2CCCC(=O)C2C1c1cccnc1

>  <smiles>  (161) 
[H]c1nc([H])c(C2([H])C(C(=O)OC([H])([H])C([H])([H])[H])=C(C([H])([H])[H])N=C3C([H])([H])C([H])([H])C([H])([H])C(=O)C32[H])c([H])c1[H]

$$$$
45:4:2
     RDKit          3D

 43 45  0  0  1  0  0  0  0  0999 V2000
    7.7232   -6.3208    3.2023 C   0  0  0  0  0  0  0  0  0  0  0  0
    6.3083   -5.8886    3.5610 C   0  0  0  0  0  0  0  0  0  0  0  0
    5.7310   -5.2940    2.4086 O   0  0  0  0  0  0  0  0  0  0  0  0
    4.3931   -5.0933    2.3858 C   0  0  0  0  0  0  0  0  0  0  0  0
    3.6724   -5.2681    3.3539 O   0  0  0  0  0  0  0  0  0  0  0  0
    3.9449   -4.5251    1.0846 C   0  0  0  0  0  0  0  0  0  0  0  0
    2.7621   -4.8706    0.5072 C   0  0  0  0  0  0  0  0  0  0  0  0
    1.7884   -5.9320    1.0120 C   0  0  0  0  0  0  0  0  0  0  0  0
    2.3211   -4.2145   -0.6692 N   0  0  0  0  0  0  0  0  0  0  0  0
    3.0556   -3.4546   -1.3729 C   0  0  0  0  0  0  0  0  0  0  0  0
    2.5721   -2.8984   -2.7251 C   0  0  0  0  0  0  0  0  0  0  0  0
    3.0178   -1.4592   -3.0068 C   0  0  0  0  0  0  0  0  0  0  0  0
    4.5349   -1.3060   -2.9095 C   0  0  0  0  0  0  0  0  0  0  0  0
    5.0294   -1.7862   -1.5680 C   0  0  0  0  0  0  0  0  0  0  0  0
    5.8887   -1.1088   -0.9775 O   0  0  0  0  0  0  0  0  0  0  0  0
    4.5256   -3.1226   -1.0013 C   0  0  1  0  0  0  0  0  0  0  0  0
    4.7781   -3.3820    0.5218 C   0  0  1  0  0  0  0  0  0  0  0  0
    4.5369   -2.1347    1.3636 C   0  0  0  0  0  0  0  0  0  0  0  0
    3.2786   -1.4941    1.3697 C   0  0  0  0  0  0  0  0  0  0  0  0
    3.0974   -0.3291    2.1096 C   0  0  0  0  0  0  0  0  0  0  0  0
    4.1931    0.1443    2.8620 C   0  0  0  0  0  0  0  0  0  0  0  0
    5.4010   -0.4445    2.8738 N   0  0  0  0  0  0  0  0  0  0  0  0
    5.5730   -1.5570    2.1329 C   0  0  0  0  0  0  0  0  0  0  0  0
    8.1941   -6.8120    4.0532 H   0  0  0  0  0  0  0  0  0  0  0  0
    8.3269   -5.4582    2.9150 H   0  0  0  0  0  0  0  0  0  0  0  0
    7.7075   -7.0186    2.3617 H   0  0  0  0  0  0  0  0  0  0  0  0
    5.7208   -6.7584    3.8490 H   0  0  0  0  0  0  0  0  0  0  0  0
    6.2929   -5.1837    4.3927 H   0  0  0  0  0  0  0  0  0  0  0  0
    2.2381   -6.6954    1.6481 H   0  0  0  0  0  0  0  0  0  0  0  0
    1.2914   -6.4500    0.1682 H   0  0  0  0  0  0  0  0  0  0  0  0
    1.0018   -5.4624    1.6055 H   0  0  0  0  0  0  0  0  0  0  0  0
    2.9262   -3.5537   -3.5229 H   0  0  0  0  0  0  0  0  0  0  0  0
    1.4860   -2.9509   -2.7510 H   0  0  0  0  0  0  0  0  0  0  0  0
    2.6794   -1.1410   -3.9942 H   0  0  0  0  0  0  0  0  0  0  0  0
    2.5566   -0.7724   -2.2990 H   0  0  0  0  0  0  0  0  0  0  0  0
    5.0241   -1.8829   -3.6965 H   0  0  0  0  0  0  0  0  0  0  0  0
    4.7965   -0.2579   -3.0402 H   0  0  0  0  0  0  0  0  0  0  0  0
    5.1125   -3.8773   -1.5326 H   0  0  0  0  0  0  0  0  0  0  0  0
    5.8384   -3.6388    0.5729 H   0  0  0  0  0  0  0  0  0  0  0  0
    2.4622   -1.8753    0.7768 H   0  0  0  0  0  0  0  0  0  0  0  0
    2.1667    0.1994    2.0683 H   0  0  0  0  0  0  0  0  0  0  0  0
    4.1043    1.0638    3.4185 H   0  0  0  0  0  0  0  0  0  0  0  0
    6.5629   -1.9893    2.1356 H   0  0  0  0  0  0  0  0  0  0  0  0
  1  2  1  0
  1 24  1  0
  1 25  1  0
  1 26  1  0
  2  3  1  0
  2 27  1  0
  2 28  1  0
  3  4  1  0
  4  5  2  0
  4  6  1  0
  6 17  1  0
  6  7  2  0
  7  8  1  0
  7  9  1  0
  8 29  1  0
  8 30  1  0
  8 31  1  0
  9 10  2  0
 10 16  1  0
 10 11  1  0
 11 12  1  0
 11 32  1  0
 11 33  1  0
 12 13  1  0
 12 34  1  0
 12 35  1  0
 13 14  1  0
 13 36  1  0
 13 37  1  0
 14 15  2  0
 14 16  1  0
 16 17  1  0
 16 38  1  6
 17 18  1  0
 17 39  1  6
 18 23  1  0
 18 19  2  0
 19 20  1  0
 19 40  1  0
 20 21  2  0
 20 41  1  0
 21 22  1  0
 21 42  1  0
 22 23  2  0
 23 43  1  0
M  END
>  <i_m_ct_stereo_status>  (162) 
1

>  <s_m_source_file>  (162) 
/var/tmp/pbs.5076255.sched01/tmpl63by5lx/41imve8rrw.sdf

>  <i_m_source_file_index>  (162) 
25

>  <i_lp_mmshare_version>  (162) 
48012

>  <i_f3d_flags>  (162) 
0

>  <s_epik_input>  (162) 
W0NIM11bQ0gyXU9DKD1PKUMoPUMoTj0xKVtDSDNdKVtDQEBIXShbQ0BASF0oQzEyKUMoPU8pW0NIMl1bQ0gyXVtDSDJdMiljM1tjSF1bY0hdW2NIXW5bY0hdMw==

>  <s_epik_cmdline>  (162) 
J2VwaWtfcHl0aG9uJywgJy1waHQnLCAnMi4wJywgJy1waCcsICc3LjAnLCAnLXRuJywgJzgnLCAnLW1hJywgJzIwMCcsICctaW1hZScsICc8aW5maWxlLm1hZT4nLCAnLW9tYWUnLCAnPG91dGZpbGUubWFlPic=

>  <r_epik_Ionization_Penalty>  (162) 
0.00260276

>  <r_epik_Ionization_Penalty_Charging>  (162) 
0

>  <r_epik_Ionization_Penalty_Neutral>  (162) 
0.00260276

>  <r_epik_State_Penalty>  (162) 
0.836246

>  <r_epik_Charging_Adjusted_Penalty>  (162) 
0.836246

>  <i_epik_Tot_Q>  (162) 
0

>  <i_epik_Tot_abs_Q>  (162) 
0

>  <s_epik_Chemistry_Notes>  (162) 
This compound has an ester and may undergo hydrolysis at high or low pH. This compound has an imine and may undergo hydrolysis.

>  <s_lp_Force_Field>  (162) 
OPLS3e

>  <r_lp_Energy>  (162) 
33.0513

>  <b_lp_Chiralities_Consistent>  (162) 
1

>  <s_lp_Variant>  (162) 
45:0-5

>  <s_i_glide_gridfile>  (162) 
pfpi4k_grid

>  <i_i_glide_lignum>  (162) 
25

>  <i_i_glide_rotatable_bonds>  (162) 
4

>  <r_i_docking_score>  (162) 
-2.74046

>  <r_i_glide_ligand_efficiency>  (162) 
-0.119151

>  <r_i_glide_ligand_efficiency_sa>  (162) 
-0.338848

>  <r_i_glide_ligand_efficiency_ln>  (162) 
-0.662669

>  <r_i_glide_gscore>  (162) 
-2.74046

>  <r_i_glide_lipo>  (162) 
-0.202409

>  <r_i_glide_hbond>  (162) 
-0.0736385

>  <r_i_glide_metal>  (162) 
-0

>  <r_i_glide_rewards>  (162) 
-1.41125

>  <r_i_glide_evdw>  (162) 
-25.2165

>  <r_i_glide_ecoul>  (162) 
-2.17703

>  <r_i_glide_erotb>  (162) 
0.570621

>  <r_i_glide_esite>  (162) 
-0.0364119

>  <r_i_glide_emodel>  (162) 
-31.9984

>  <r_i_glide_energy>  (162) 
-27.3935

>  <r_i_glide_einternal>  (162) 
1.0846

>  <r_i_glide_intrahb_reward>  (162) 
-0

>  <i_i_glide_confnum>  (162) 
2

>  <i_i_glide_posenum>  (162) 
23

>  <r_i_glide_eff_state_penalty>  (162) 
0

>  <ligand_id>  (162) 
45

>  <original_smiles>  (162) 
CCOC(=O)C1=C(C)N=C2CCCC(=O)C2C1c1cccnc1

>  <smiles>  (162) 
[H]c1nc([H])c(C2([H])C(C(=O)OC([H])([H])C([H])([H])[H])=C(C([H])([H])[H])N=C3C([H])([H])C([H])([H])C([H])([H])C(=O)C32[H])c([H])c1[H]

$$$$
45:5:0
     RDKit          3D

 43 45  0  0  1  0  0  0  0  0999 V2000
   -1.8009   -8.0553    4.2337 C   0  0  0  0  0  0  0  0  0  0  0  0
   -0.3844   -7.9659    3.7009 C   0  0  0  0  0  0  0  0  0  0  0  0
   -0.3856   -7.2114    2.5163 O   0  0  0  0  0  0  0  0  0  0  0  0
    0.7624   -6.8996    1.8980 C   0  0  0  0  0  0  0  0  0  0  0  0
    0.7748   -6.3547    0.7897 O   0  0  0  0  0  0  0  0  0  0  0  0
    2.0609   -7.2107    2.7067 C   0  0  1  0  0  0  0  0  0  0  0  0
    3.0112   -8.2523    2.0564 C   0  0  0  0  0  0  0  0  0  0  0  0
    2.3735   -9.4529    1.3914 C   0  0  0  0  0  0  0  0  0  0  0  0
    4.2788   -8.2017    2.1009 N   0  0  0  0  0  0  0  0  0  0  0  0
    4.9544   -7.2405    2.8348 C   0  0  0  0  0  0  0  0  0  0  0  0
    6.2721   -7.1164    2.6301 C   0  0  0  0  0  0  0  0  0  0  0  0
    7.1605   -6.1189    3.3522 C   0  0  0  0  0  0  0  0  0  0  0  0
    6.5115   -5.5716    4.6399 C   0  0  0  0  0  0  0  0  0  0  0  0
    5.0390   -5.2342    4.4404 C   0  0  0  0  0  0  0  0  0  0  0  0
    4.5778   -4.1506    4.8025 O   0  0  0  0  0  0  0  0  0  0  0  0
    4.1808   -6.3606    3.8264 C   0  0  1  0  0  0  0  0  0  0  0  0
    2.8232   -5.9351    3.2106 C   0  0  1  0  0  0  0  0  0  0  0  0
    2.9245   -4.7660    2.2142 C   0  0  0  0  0  0  0  0  0  0  0  0
    3.3650   -4.9570    0.8927 C   0  0  0  0  0  0  0  0  0  0  0  0
    3.4037   -3.8650    0.0178 C   0  0  0  0  0  0  0  0  0  0  0  0
    3.0216   -2.6012    0.5029 C   0  0  0  0  0  0  0  0  0  0  0  0
    2.6180   -2.3932    1.7744 N   0  0  0  0  0  0  0  0  0  0  0  0
    2.5727   -3.4566    2.6057 C   0  0  0  0  0  0  0  0  0  0  0  0
   -1.8041   -8.6374    5.1551 H   0  0  0  0  0  0  0  0  0  0  0  0
   -2.4861   -8.5457    3.5284 H   0  0  0  0  0  0  0  0  0  0  0  0
   -2.2083   -7.0693    4.4728 H   0  0  0  0  0  0  0  0  0  0  0  0
    0.2699   -7.4854    4.4277 H   0  0  0  0  0  0  0  0  0  0  0  0
   -0.0087   -8.9655    3.4947 H   0  0  0  0  0  0  0  0  0  0  0  0
    1.6896   -9.9534    2.0764 H   0  0  0  0  0  0  0  0  0  0  0  0
    3.1291  -10.1849    1.1096 H   0  0  0  0  0  0  0  0  0  0  0  0
    1.8309   -9.1628    0.4941 H   0  0  0  0  0  0  0  0  0  0  0  0
    6.7550   -7.7456    1.8971 H   0  0  0  0  0  0  0  0  0  0  0  0
    1.7745   -7.6918    3.6350 H   0  0  0  0  0  0  0  0  0  0  0  0
    7.3898   -5.3102    2.6578 H   0  0  0  0  0  0  0  0  0  0  0  0
    8.0965   -6.6220    3.5986 H   0  0  0  0  0  0  0  0  0  0  0  0
    6.5598   -6.3296    5.4214 H   0  0  0  0  0  0  0  0  0  0  0  0
    7.0445   -4.6973    5.0108 H   0  0  0  0  0  0  0  0  0  0  0  0
    3.9450   -7.0079    4.6710 H   0  0  0  0  0  0  0  0  0  0  0  0
    2.2102   -5.5578    4.0342 H   0  0  0  0  0  0  0  0  0  0  0  0
    3.6389   -5.9386    0.5325 H   0  0  0  0  0  0  0  0  0  0  0  0
    3.6920   -3.9968   -1.0164 H   0  0  0  0  0  0  0  0  0  0  0  0
    3.0327   -1.7352   -0.1423 H   0  0  0  0  0  0  0  0  0  0  0  0
    2.2178   -3.2466    3.6030 H   0  0  0  0  0  0  0  0  0  0  0  0
  1  2  1  0
  1 24  1  0
  1 25  1  0
  1 26  1  0
  2  3  1  0
  2 27  1  0
  2 28  1  0
  3  4  1  0
  4  5  2  0
  4  6  1  0
  6 17  1  0
  6 33  1  1
  6  7  1  0
  7  8  1  0
  7  9  2  0
  8 29  1  0
  8 30  1  0
  8 31  1  0
  9 10  1  0
 10 16  1  0
 10 11  2  0
 11 12  1  0
 11 32  1  0
 12 13  1  0
 12 34  1  0
 12 35  1  0
 13 14  1  0
 13 36  1  0
 13 37  1  0
 14 15  2  0
 14 16  1  0
 16 17  1  0
 16 38  1  1
 17 18  1  0
 17 39  1  1
 18 23  1  0
 18 19  2  0
 19 20  1  0
 19 40  1  0
 20 21  2  0
 20 41  1  0
 21 22  1  0
 21 42  1  0
 22 23  2  0
 23 43  1  0
M  END
>  <i_m_ct_stereo_status>  (163) 
1

>  <s_m_source_file>  (163) 
/var/tmp/pbs.5076255.sched01/tmpl63by5lx/41imve8rrw.sdf

>  <i_m_source_file_index>  (163) 
26

>  <i_lp_mmshare_version>  (163) 
48012

>  <i_f3d_flags>  (163) 
0

>  <s_epik_input>  (163) 
W0NIM11bQ0gyXU9DKD1PKUMoPUMoTj0xKVtDSDNdKVtDQEBIXShbQ0BASF0oQzEyKUMoPU8pW0NIMl1bQ0gyXVtDSDJdMiljM1tjSF1bY0hdW2NIXW5bY0hdMw==

>  <s_epik_cmdline>  (163) 
J2VwaWtfcHl0aG9uJywgJy1waHQnLCAnMi4wJywgJy1waCcsICc3LjAnLCAnLXRuJywgJzgnLCAnLW1hJywgJzIwMCcsICctaW1hZScsICc8aW5maWxlLm1hZT4nLCAnLW9tYWUnLCAnPG91dGZpbGUubWFlPic=

>  <r_epik_Ionization_Penalty>  (163) 
0.00896591

>  <r_epik_Ionization_Penalty_Charging>  (163) 
0

>  <r_epik_Ionization_Penalty_Neutral>  (163) 
0.00896591

>  <r_epik_State_Penalty>  (163) 
0.836246

>  <r_epik_Charging_Adjusted_Penalty>  (163) 
0.836246

>  <i_epik_Tot_Q>  (163) 
0

>  <i_epik_Tot_abs_Q>  (163) 
0

>  <s_epik_Chemistry_Notes>  (163) 
This compound has an ester and may undergo hydrolysis at high or low pH. This compound has an imine and may undergo hydrolysis.

>  <s_lp_Force_Field>  (163) 
OPLS3e

>  <r_lp_Energy>  (163) 
19.9941

>  <b_lp_Chiralities_Consistent>  (163) 
1

>  <s_lp_Variant>  (163) 
45:0-6

>  <s_i_glide_gridfile>  (163) 
pfpi4k_grid

>  <i_i_glide_lignum>  (163) 
26

>  <i_i_glide_rotatable_bonds>  (163) 
4

>  <r_i_docking_score>  (163) 
-2.66525

>  <r_i_glide_ligand_efficiency>  (163) 
-0.11588

>  <r_i_glide_ligand_efficiency_sa>  (163) 
-0.329548

>  <r_i_glide_ligand_efficiency_ln>  (163) 
-0.644481

>  <r_i_glide_gscore>  (163) 
-2.66525

>  <r_i_glide_lipo>  (163) 
-0.0664344

>  <r_i_glide_hbond>  (163) 
-0.213625

>  <r_i_glide_metal>  (163) 
-0

>  <r_i_glide_rewards>  (163) 
-1.27947

>  <r_i_glide_evdw>  (163) 
-20.7292

>  <r_i_glide_ecoul>  (163) 
-3.72951

>  <r_i_glide_erotb>  (163) 
0.570621

>  <r_i_glide_esite>  (163) 
-0.0804531

>  <r_i_glide_emodel>  (163) 
-24.3828

>  <r_i_glide_energy>  (163) 
-24.4587

>  <r_i_glide_einternal>  (163) 
7.9307

>  <r_i_glide_intrahb_reward>  (163) 
-0

>  <i_i_glide_confnum>  (163) 
2

>  <i_i_glide_posenum>  (163) 
24

>  <r_i_glide_eff_state_penalty>  (163) 
0

>  <ligand_id>  (163) 
45

>  <original_smiles>  (163) 
CCOC(=O)C1=C(C)N=C2CCCC(=O)C2C1c1cccnc1

>  <smiles>  (163) 
[H]C1=C2N=C(C([H])([H])[H])C([H])(C(=O)OC([H])([H])C([H])([H])[H])C([H])(c3c([H])nc([H])c([H])c3[H])C2([H])C(=O)C([H])([H])C1([H])[H]

$$$$
45:5:1
     RDKit          3D

 43 45  0  0  1  0  0  0  0  0999 V2000
    6.6462  -10.2636    0.9154 C   0  0  0  0  0  0  0  0  0  0  0  0
    5.3689   -9.4983    1.2075 C   0  0  0  0  0  0  0  0  0  0  0  0
    5.6536   -8.4567    2.1294 O   0  0  0  0  0  0  0  0  0  0  0  0
    4.7848   -8.0801    3.0948 C   0  0  0  0  0  0  0  0  0  0  0  0
    5.1043   -7.2738    3.9706 O   0  0  0  0  0  0  0  0  0  0  0  0
    3.3526   -8.6833    3.0142 C   0  0  1  0  0  0  0  0  0  0  0  0
    2.9007   -9.4263    4.2954 C   0  0  0  0  0  0  0  0  0  0  0  0
    3.9255  -10.2854    5.0236 C   0  0  0  0  0  0  0  0  0  0  0  0
    1.6995   -9.4487    4.7022 N   0  0  0  0  0  0  0  0  0  0  0  0
    0.6735   -8.8342    3.9866 C   0  0  0  0  0  0  0  0  0  0  0  0
   -0.4791   -8.6518    4.6314 C   0  0  0  0  0  0  0  0  0  0  0  0
   -1.7046   -8.0150    4.0134 C   0  0  0  0  0  0  0  0  0  0  0  0
   -1.6452   -7.9822    2.4811 C   0  0  0  0  0  0  0  0  0  0  0  0
   -0.2708   -7.5541    1.9859 C   0  0  0  0  0  0  0  0  0  0  0  0
   -0.1458   -6.6492    1.1590 O   0  0  0  0  0  0  0  0  0  0  0  0
    0.9132   -8.3666    2.5433 C   0  0  1  0  0  0  0  0  0  0  0  0
    2.3023   -7.7060    2.4125 C   0  0  1  0  0  0  0  0  0  0  0  0
    2.3721   -6.2594    2.9114 C   0  0  0  0  0  0  0  0  0  0  0  0
    2.6515   -5.1990    2.0225 C   0  0  0  0  0  0  0  0  0  0  0  0
    2.7146   -3.8874    2.5381 C   0  0  0  0  0  0  0  0  0  0  0  0
    2.4993   -3.6957    3.9170 C   0  0  0  0  0  0  0  0  0  0  0  0
    2.2392   -4.6976    4.7764 N   0  0  0  0  0  0  0  0  0  0  0  0
    2.1822   -5.9473    4.2772 C   0  0  0  0  0  0  0  0  0  0  0  0
    6.3943  -11.1124    0.2791 H   0  0  0  0  0  0  0  0  0  0  0  0
    7.0328  -10.6677    1.8481 H   0  0  0  0  0  0  0  0  0  0  0  0
    7.4058   -9.6384    0.4516 H   0  0  0  0  0  0  0  0  0  0  0  0
    4.9151   -9.0930    0.2991 H   0  0  0  0  0  0  0  0  0  0  0  0
    4.7250  -10.2494    1.6377 H   0  0  0  0  0  0  0  0  0  0  0  0
    4.3847  -11.0077    4.3480 H   0  0  0  0  0  0  0  0  0  0  0  0
    3.4287  -10.8652    5.8020 H   0  0  0  0  0  0  0  0  0  0  0  0
    4.7035   -9.6895    5.5043 H   0  0  0  0  0  0  0  0  0  0  0  0
   -0.5680   -8.9739    5.6550 H   0  0  0  0  0  0  0  0  0  0  0  0
    3.3047   -9.4751    2.2912 H   0  0  0  0  0  0  0  0  0  0  0  0
   -1.8177   -7.0141    4.4266 H   0  0  0  0  0  0  0  0  0  0  0  0
   -2.5553   -8.6188    4.3129 H   0  0  0  0  0  0  0  0  0  0  0  0
   -1.8377   -8.9803    2.0886 H   0  0  0  0  0  0  0  0  0  0  0  0
   -2.4152   -7.3285    2.0839 H   0  0  0  0  0  0  0  0  0  0  0  0
    0.9400   -9.2826    1.9527 H   0  0  0  0  0  0  0  0  0  0  0  0
    2.5293   -7.6635    1.3448 H   0  0  0  0  0  0  0  0  0  0  0  0
    2.8249   -5.3812    0.9690 H   0  0  0  0  0  0  0  0  0  0  0  0
    2.9205   -3.0485    1.8916 H   0  0  0  0  0  0  0  0  0  0  0  0
    2.5342   -2.7105    4.3457 H   0  0  0  0  0  0  0  0  0  0  0  0
    1.9973   -6.7251    5.0039 H   0  0  0  0  0  0  0  0  0  0  0  0
  1  2  1  0
  1 24  1  0
  1 25  1  0
  1 26  1  0
  2  3  1  0
  2 27  1  0
  2 28  1  0
  3  4  1  0
  4  5  2  0
  4  6  1  0
  6 17  1  0
  6 33  1  6
  6  7  1  0
  7  8  1  0
  7  9  2  0
  8 29  1  0
  8 30  1  0
  8 31  1  0
  9 10  1  0
 10 16  1  0
 10 11  2  0
 11 12  1  0
 11 32  1  0
 12 13  1  0
 12 34  1  0
 12 35  1  0
 13 14  1  0
 13 36  1  0
 13 37  1  0
 14 15  2  0
 14 16  1  0
 16 17  1  0
 16 38  1  6
 17 18  1  0
 17 39  1  6
 18 23  1  0
 18 19  2  0
 19 20  1  0
 19 40  1  0
 20 21  2  0
 20 41  1  0
 21 22  1  0
 21 42  1  0
 22 23  2  0
 23 43  1  0
M  END
>  <i_m_ct_stereo_status>  (164) 
1

>  <s_m_source_file>  (164) 
/var/tmp/pbs.5076255.sched01/tmpl63by5lx/41imve8rrw.sdf

>  <i_m_source_file_index>  (164) 
26

>  <i_lp_mmshare_version>  (164) 
48012

>  <i_f3d_flags>  (164) 
0

>  <s_epik_input>  (164) 
W0NIM11bQ0gyXU9DKD1PKUMoPUMoTj0xKVtDSDNdKVtDQEBIXShbQ0BASF0oQzEyKUMoPU8pW0NIMl1bQ0gyXVtDSDJdMiljM1tjSF1bY0hdW2NIXW5bY0hdMw==

>  <s_epik_cmdline>  (164) 
J2VwaWtfcHl0aG9uJywgJy1waHQnLCAnMi4wJywgJy1waCcsICc3LjAnLCAnLXRuJywgJzgnLCAnLW1hJywgJzIwMCcsICctaW1hZScsICc8aW5maWxlLm1hZT4nLCAnLW9tYWUnLCAnPG91dGZpbGUubWFlPic=

>  <r_epik_Ionization_Penalty>  (164) 
0.00896591

>  <r_epik_Ionization_Penalty_Charging>  (164) 
0

>  <r_epik_Ionization_Penalty_Neutral>  (164) 
0.00896591

>  <r_epik_State_Penalty>  (164) 
0.836246

>  <r_epik_Charging_Adjusted_Penalty>  (164) 
0.836246

>  <i_epik_Tot_Q>  (164) 
0

>  <i_epik_Tot_abs_Q>  (164) 
0

>  <s_epik_Chemistry_Notes>  (164) 
This compound has an ester and may undergo hydrolysis at high or low pH. This compound has an imine and may undergo hydrolysis.

>  <s_lp_Force_Field>  (164) 
OPLS3e

>  <r_lp_Energy>  (164) 
19.9941

>  <b_lp_Chiralities_Consistent>  (164) 
1

>  <s_lp_Variant>  (164) 
45:0-6

>  <s_i_glide_gridfile>  (164) 
pfpi4k_grid

>  <i_i_glide_lignum>  (164) 
26

>  <i_i_glide_rotatable_bonds>  (164) 
4

>  <r_i_docking_score>  (164) 
-2.57144

>  <r_i_glide_ligand_efficiency>  (164) 
-0.111802

>  <r_i_glide_ligand_efficiency_sa>  (164) 
-0.317949

>  <r_i_glide_ligand_efficiency_ln>  (164) 
-0.621797

>  <r_i_glide_gscore>  (164) 
-2.57144

>  <r_i_glide_lipo>  (164) 
-0.000787865

>  <r_i_glide_hbond>  (164) 
-0.202784

>  <r_i_glide_metal>  (164) 
-0

>  <r_i_glide_rewards>  (164) 
-1.27934

>  <r_i_glide_evdw>  (164) 
-21.7584

>  <r_i_glide_ecoul>  (164) 
-3.23411

>  <r_i_glide_erotb>  (164) 
0.570621

>  <r_i_glide_esite>  (164) 
-0.0861084

>  <r_i_glide_emodel>  (164) 
-25.2056

>  <r_i_glide_energy>  (164) 
-24.9925

>  <r_i_glide_einternal>  (164) 
7.62947

>  <r_i_glide_intrahb_reward>  (164) 
-0

>  <i_i_glide_confnum>  (164) 
3

>  <i_i_glide_posenum>  (164) 
26

>  <r_i_glide_eff_state_penalty>  (164) 
0

>  <ligand_id>  (164) 
45

>  <original_smiles>  (164) 
CCOC(=O)C1=C(C)N=C2CCCC(=O)C2C1c1cccnc1

>  <smiles>  (164) 
[H]C1=C2N=C(C([H])([H])[H])C([H])(C(=O)OC([H])([H])C([H])([H])[H])C([H])(c3c([H])nc([H])c([H])c3[H])C2([H])C(=O)C([H])([H])C1([H])[H]

$$$$
45:5:2
     RDKit          3D

 43 45  0  0  1  0  0  0  0  0999 V2000
    2.3496    4.0368    2.6211 C   0  0  0  0  0  0  0  0  0  0  0  0
    2.4184    2.5642    3.0990 C   0  0  0  0  0  0  0  0  0  0  0  0
    1.4026    1.7426    2.4850 O   0  0  0  0  0  0  0  0  0  0  0  0
    0.1043    1.7211    2.8968 C   0  0  0  0  0  0  0  0  0  0  0  0
   -0.7436    0.9941    2.3167 O   0  0  0  0  0  0  0  0  0  0  0  0
   -0.2749    2.5873    4.1233 C   0  0  1  0  0  0  0  0  0  0  0  0
   -1.7169    3.1777    4.1205 C   0  0  0  0  0  0  0  0  0  0  0  0
   -2.2502    3.7075    2.7952 C   0  0  0  0  0  0  0  0  0  0  0  0
   -2.3980    3.3716    5.1583 N   0  0  0  0  0  0  0  0  0  0  0  0
   -1.8859    3.1001    6.4403 C   0  0  0  0  0  0  0  0  0  0  0  0
   -2.7553    3.0383    7.4540 C   0  0  0  0  0  0  0  0  0  0  0  0
   -2.3472    2.7607    8.8850 C   0  0  0  0  0  0  0  0  0  0  0  0
   -0.8464    2.9704    9.1588 C   0  0  0  0  0  0  0  0  0  0  0  0
   -0.0168    2.3987    8.0365 C   0  0  0  0  0  0  0  0  0  0  0  0
    0.9610    1.6675    8.2720 O   0  0  0  0  0  0  0  0  0  0  0  0
   -0.3967    2.8301    6.6156 C   0  0  1  0  0  0  0  0  0  0  0  0
    0.1496    1.9503    5.4961 C   0  0  1  0  0  0  0  0  0  0  0  0
   -0.1319    0.4522    5.6224 C   0  0  0  0  0  0  0  0  0  0  0  0
   -1.4028   -0.0801    5.3568 C   0  0  0  0  0  0  0  0  0  0  0  0
   -1.5919   -1.4579    5.4796 C   0  0  0  0  0  0  0  0  0  0  0  0
   -0.4721   -2.2621    5.8315 C   0  0  0  0  0  0  0  0  0  0  0  0
    0.7520   -1.7666    6.0563 N   0  0  0  0  0  0  0  0  0  0  0  0
    0.9208   -0.4405    5.9587 C   0  0  0  0  0  0  0  0  0  0  0  0
    3.0542    4.6157    3.1970 H   0  0  0  0  0  0  0  0  0  0  0  0
    1.3674    4.4753    2.7599 H   0  0  0  0  0  0  0  0  0  0  0  0
    2.6195    4.1472    1.5720 H   0  0  0  0  0  0  0  0  0  0  0  0
    3.3820    2.1259    2.8033 H   0  0  0  0  0  0  0  0  0  0  0  0
    2.4031    2.5067    4.1728 H   0  0  0  0  0  0  0  0  0  0  0  0
   -1.5602    4.4269    2.3687 H   0  0  0  0  0  0  0  0  0  0  0  0
   -3.1874    4.2354    2.9431 H   0  0  0  0  0  0  0  0  0  0  0  0
   -2.4473    2.9124    2.0933 H   0  0  0  0  0  0  0  0  0  0  0  0
   -3.8034    3.1677    7.2587 H   0  0  0  0  0  0  0  0  0  0  0  0
    0.3009    3.4999    4.1174 H   0  0  0  0  0  0  0  0  0  0  0  0
   -2.6274    1.7399    9.1174 H   0  0  0  0  0  0  0  0  0  0  0  0
   -2.9290    3.4312    9.5195 H   0  0  0  0  0  0  0  0  0  0  0  0
   -0.6235    4.0384    9.1970 H   0  0  0  0  0  0  0  0  0  0  0  0
   -0.5528    2.5357   10.1139 H   0  0  0  0  0  0  0  0  0  0  0  0
    0.0930    3.7947    6.4814 H   0  0  0  0  0  0  0  0  0  0  0  0
    1.2175    2.0340    5.6207 H   0  0  0  0  0  0  0  0  0  0  0  0
   -2.2148    0.5578    5.0405 H   0  0  0  0  0  0  0  0  0  0  0  0
   -2.5604   -1.8925    5.3105 H   0  0  0  0  0  0  0  0  0  0  0  0
   -0.5781   -3.3304    5.9459 H   0  0  0  0  0  0  0  0  0  0  0  0
    1.9197   -0.0717    6.1221 H   0  0  0  0  0  0  0  0  0  0  0  0
  1  2  1  0
  1 24  1  0
  1 25  1  0
  1 26  1  0
  2  3  1  0
  2 27  1  0
  2 28  1  0
  3  4  1  0
  4  5  2  0
  4  6  1  0
  6 17  1  0
  6 33  1  6
  6  7  1  0
  7  8  1  0
  7  9  2  0
  8 29  1  0
  8 30  1  0
  8 31  1  0
  9 10  1  0
 10 16  1  0
 10 11  2  0
 11 12  1  0
 11 32  1  0
 12 13  1  0
 12 34  1  0
 12 35  1  0
 13 14  1  0
 13 36  1  0
 13 37  1  0
 14 15  2  0
 14 16  1  0
 16 17  1  0
 16 38  1  6
 17 18  1  0
 17 39  1  6
 18 23  1  0
 18 19  2  0
 19 20  1  0
 19 40  1  0
 20 21  2  0
 20 41  1  0
 21 22  1  0
 21 42  1  0
 22 23  2  0
 23 43  1  0
M  END
>  <i_m_ct_stereo_status>  (165) 
1

>  <s_m_source_file>  (165) 
/var/tmp/pbs.5076255.sched01/tmpl63by5lx/41imve8rrw.sdf

>  <i_m_source_file_index>  (165) 
26

>  <i_lp_mmshare_version>  (165) 
48012

>  <i_f3d_flags>  (165) 
0

>  <s_epik_input>  (165) 
W0NIM11bQ0gyXU9DKD1PKUMoPUMoTj0xKVtDSDNdKVtDQEBIXShbQ0BASF0oQzEyKUMoPU8pW0NIMl1bQ0gyXVtDSDJdMiljM1tjSF1bY0hdW2NIXW5bY0hdMw==

>  <s_epik_cmdline>  (165) 
J2VwaWtfcHl0aG9uJywgJy1waHQnLCAnMi4wJywgJy1waCcsICc3LjAnLCAnLXRuJywgJzgnLCAnLW1hJywgJzIwMCcsICctaW1hZScsICc8aW5maWxlLm1hZT4nLCAnLW9tYWUnLCAnPG91dGZpbGUubWFlPic=

>  <r_epik_Ionization_Penalty>  (165) 
0.00896591

>  <r_epik_Ionization_Penalty_Charging>  (165) 
0

>  <r_epik_Ionization_Penalty_Neutral>  (165) 
0.00896591

>  <r_epik_State_Penalty>  (165) 
0.836246

>  <r_epik_Charging_Adjusted_Penalty>  (165) 
0.836246

>  <i_epik_Tot_Q>  (165) 
0

>  <i_epik_Tot_abs_Q>  (165) 
0

>  <s_epik_Chemistry_Notes>  (165) 
This compound has an ester and may undergo hydrolysis at high or low pH. This compound has an imine and may undergo hydrolysis.

>  <s_lp_Force_Field>  (165) 
OPLS3e

>  <r_lp_Energy>  (165) 
19.9941

>  <b_lp_Chiralities_Consistent>  (165) 
1

>  <s_lp_Variant>  (165) 
45:0-6

>  <s_i_glide_gridfile>  (165) 
pfpi4k_grid

>  <i_i_glide_lignum>  (165) 
26

>  <i_i_glide_rotatable_bonds>  (165) 
4

>  <r_i_docking_score>  (165) 
-2.29253

>  <r_i_glide_ligand_efficiency>  (165) 
-0.0996754

>  <r_i_glide_ligand_efficiency_sa>  (165) 
-0.283464

>  <r_i_glide_ligand_efficiency_ln>  (165) 
-0.554356

>  <r_i_glide_gscore>  (165) 
-2.29253

>  <r_i_glide_lipo>  (165) 
-0.225701

>  <r_i_glide_hbond>  (165) 
0

>  <r_i_glide_metal>  (165) 
-0

>  <r_i_glide_rewards>  (165) 
-1.27934

>  <r_i_glide_evdw>  (165) 
-24.0745

>  <r_i_glide_ecoul>  (165) 
-0.384447

>  <r_i_glide_erotb>  (165) 
0.570621

>  <r_i_glide_esite>  (165) 
-0.0967182

>  <r_i_glide_emodel>  (165) 
-24.9176

>  <r_i_glide_energy>  (165) 
-24.459

>  <r_i_glide_einternal>  (165) 
5.89727

>  <r_i_glide_intrahb_reward>  (165) 
-0

>  <i_i_glide_confnum>  (165) 
2

>  <i_i_glide_posenum>  (165) 
31

>  <r_i_glide_eff_state_penalty>  (165) 
0

>  <ligand_id>  (165) 
45

>  <original_smiles>  (165) 
CCOC(=O)C1=C(C)N=C2CCCC(=O)C2C1c1cccnc1

>  <smiles>  (165) 
[H]C1=C2N=C(C([H])([H])[H])C([H])(C(=O)OC([H])([H])C([H])([H])[H])C([H])(c3c([H])nc([H])c([H])c3[H])C2([H])C(=O)C([H])([H])C1([H])[H]

$$$$
45:6:0
     RDKit          3D

 43 45  0  0  1  0  0  0  0  0999 V2000
    4.8468   -3.7443   -1.6097 C   0  0  0  0  0  0  0  0  0  0  0  0
    3.5302   -3.5598   -0.8483 C   0  0  0  0  0  0  0  0  0  0  0  0
    3.5763   -4.3387    0.3437 O   0  0  0  0  0  0  0  0  0  0  0  0
    2.6156   -5.2421    0.6210 C   0  0  0  0  0  0  0  0  0  0  0  0
    1.6054   -5.4580   -0.0570 O   0  0  0  0  0  0  0  0  0  0  0  0
    2.8901   -6.0141    1.9251 C   0  0  2  0  0  0  0  0  0  0  0  0
    3.7971   -7.2266    1.6040 C   0  0  0  0  0  0  0  0  0  0  0  0
    5.2327   -6.9102    1.2505 C   0  0  0  0  0  0  0  0  0  0  0  0
    3.4277   -8.4432    1.6593 N   0  0  0  0  0  0  0  0  0  0  0  0
    2.1453   -8.8108    2.0598 C   0  0  0  0  0  0  0  0  0  0  0  0
    1.9573  -10.0728    2.4822 C   0  0  0  0  0  0  0  0  0  0  0  0
    0.6314  -10.6010    2.9765 C   0  0  0  0  0  0  0  0  0  0  0  0
   -0.2663   -9.4888    3.5411 C   0  0  0  0  0  0  0  0  0  0  0  0
   -0.2894   -8.2396    2.6672 C   0  0  0  0  0  0  0  0  0  0  0  0
   -1.3262   -7.5949    2.5046 O   0  0  0  0  0  0  0  0  0  0  0  0
    1.0365   -7.7644    2.0506 C   0  0  1  0  0  0  0  0  0  0  0  0
    1.5531   -6.4178    2.6166 C   0  0  1  0  0  0  0  0  0  0  0  0
    1.6319   -6.3521    4.1495 C   0  0  0  0  0  0  0  0  0  0  0  0
    2.6205   -7.0676    4.8593 C   0  0  0  0  0  0  0  0  0  0  0  0
    2.6587   -6.9714    6.2587 C   0  0  0  0  0  0  0  0  0  0  0  0
    1.7016   -6.1693    6.9032 C   0  0  0  0  0  0  0  0  0  0  0  0
    0.7461   -5.4840    6.2406 N   0  0  0  0  0  0  0  0  0  0  0  0
    0.7203   -5.5746    4.8962 C   0  0  0  0  0  0  0  0  0  0  0  0
    4.8421   -3.1666   -2.5326 H   0  0  0  0  0  0  0  0  0  0  0  0
    5.0060   -4.7901   -1.8750 H   0  0  0  0  0  0  0  0  0  0  0  0
    5.6971   -3.4179   -1.0121 H   0  0  0  0  0  0  0  0  0  0  0  0
    3.3937   -2.5121   -0.5789 H   0  0  0  0  0  0  0  0  0  0  0  0
    2.6962   -3.8187   -1.5033 H   0  0  0  0  0  0  0  0  0  0  0  0
    5.2930   -6.3697    0.3076 H   0  0  0  0  0  0  0  0  0  0  0  0
    5.7939   -7.8345    1.1323 H   0  0  0  0  0  0  0  0  0  0  0  0
    5.7143   -6.3249    2.0339 H   0  0  0  0  0  0  0  0  0  0  0  0
    2.7699  -10.7933    2.4614 H   0  0  0  0  0  0  0  0  0  0  0  0
    3.4258   -5.3275    2.5797 H   0  0  0  0  0  0  0  0  0  0  0  0
    0.8177  -11.3526    3.7514 H   0  0  0  0  0  0  0  0  0  0  0  0
    0.1426  -11.1047    2.1424 H   0  0  0  0  0  0  0  0  0  0  0  0
   -1.2833   -9.8526    3.6466 H   0  0  0  0  0  0  0  0  0  0  0  0
    0.0962   -9.1993    4.5288 H   0  0  0  0  0  0  0  0  0  0  0  0
    0.8211   -7.6213    0.9924 H   0  0  0  0  0  0  0  0  0  0  0  0
    0.7963   -5.6677    2.3665 H   0  0  0  0  0  0  0  0  0  0  0  0
    3.3445   -7.6897    4.3570 H   0  0  0  0  0  0  0  0  0  0  0  0
    3.4048   -7.5105    6.8264 H   0  0  0  0  0  0  0  0  0  0  0  0
    1.7040   -6.0719    7.9807 H   0  0  0  0  0  0  0  0  0  0  0  0
   -0.0610   -5.0113    4.4157 H   0  0  0  0  0  0  0  0  0  0  0  0
  1  2  1  0
  1 24  1  0
  1 25  1  0
  1 26  1  0
  2  3  1  0
  2 27  1  0
  2 28  1  0
  3  4  1  0
  4  5  2  0
  4  6  1  0
  6 17  1  0
  6 33  1  1
  6  7  1  0
  7  8  1  0
  7  9  2  0
  8 29  1  0
  8 30  1  0
  8 31  1  0
  9 10  1  0
 10 16  1  0
 10 11  2  0
 11 12  1  0
 11 32  1  0
 12 13  1  0
 12 34  1  0
 12 35  1  0
 13 14  1  0
 13 36  1  0
 13 37  1  0
 14 15  2  0
 14 16  1  0
 16 17  1  0
 16 38  1  6
 17 18  1  0
 17 39  1  6
 18 23  1  0
 18 19  2  0
 19 20  1  0
 19 40  1  0
 20 21  2  0
 20 41  1  0
 21 22  1  0
 21 42  1  0
 22 23  2  0
 23 43  1  0
M  END
>  <i_m_ct_stereo_status>  (166) 
1

>  <s_m_source_file>  (166) 
/var/tmp/pbs.5076255.sched01/tmpl63by5lx/41imve8rrw.sdf

>  <i_m_source_file_index>  (166) 
27

>  <i_lp_mmshare_version>  (166) 
48012

>  <i_f3d_flags>  (166) 
0

>  <s_epik_input>  (166) 
W0NIM11bQ0gyXU9DKD1PKUMoPUMoTj0xKVtDSDNdKVtDQEBIXShbQ0BASF0oQzEyKUMoPU8pW0NIMl1bQ0gyXVtDSDJdMiljM1tjSF1bY0hdW2NIXW5bY0hdMw==

>  <s_epik_cmdline>  (166) 
J2VwaWtfcHl0aG9uJywgJy1waHQnLCAnMi4wJywgJy1waCcsICc3LjAnLCAnLXRuJywgJzgnLCAnLW1hJywgJzIwMCcsICctaW1hZScsICc8aW5maWxlLm1hZT4nLCAnLW9tYWUnLCAnPG91dGZpbGUubWFlPic=

>  <r_epik_Ionization_Penalty>  (166) 
0.00896591

>  <r_epik_Ionization_Penalty_Charging>  (166) 
0

>  <r_epik_Ionization_Penalty_Neutral>  (166) 
0.00896591

>  <r_epik_State_Penalty>  (166) 
0.836246

>  <r_epik_Charging_Adjusted_Penalty>  (166) 
0.836246

>  <i_epik_Tot_Q>  (166) 
0

>  <i_epik_Tot_abs_Q>  (166) 
0

>  <s_epik_Chemistry_Notes>  (166) 
This compound has an ester and may undergo hydrolysis at high or low pH. This compound has an imine and may undergo hydrolysis.

>  <s_lp_Force_Field>  (166) 
OPLS3e

>  <r_lp_Energy>  (166) 
18.1302

>  <b_lp_Chiralities_Consistent>  (166) 
1

>  <s_lp_Variant>  (166) 
45:0-7

>  <s_i_glide_gridfile>  (166) 
pfpi4k_grid

>  <i_i_glide_lignum>  (166) 
27

>  <i_i_glide_rotatable_bonds>  (166) 
4

>  <r_i_docking_score>  (166) 
-3.23262

>  <r_i_glide_ligand_efficiency>  (166) 
-0.140549

>  <r_i_glide_ligand_efficiency_sa>  (166) 
-0.399701

>  <r_i_glide_ligand_efficiency_ln>  (166) 
-0.781676

>  <r_i_glide_gscore>  (166) 
-3.23262

>  <r_i_glide_lipo>  (166) 
-0.301745

>  <r_i_glide_hbond>  (166) 
-0.115195

>  <r_i_glide_metal>  (166) 
-0

>  <r_i_glide_rewards>  (166) 
-1.36366

>  <r_i_glide_evdw>  (166) 
-24.484

>  <r_i_glide_ecoul>  (166) 
-4.73773

>  <r_i_glide_erotb>  (166) 
0.570621

>  <r_i_glide_esite>  (166) 
-0.087778

>  <r_i_glide_emodel>  (166) 
-34.5878

>  <r_i_glide_energy>  (166) 
-29.2217

>  <r_i_glide_einternal>  (166) 
0.964127

>  <r_i_glide_intrahb_reward>  (166) 
-0

>  <i_i_glide_confnum>  (166) 
3

>  <i_i_glide_posenum>  (166) 
36

>  <r_i_glide_eff_state_penalty>  (166) 
0

>  <ligand_id>  (166) 
45

>  <original_smiles>  (166) 
CCOC(=O)C1=C(C)N=C2CCCC(=O)C2C1c1cccnc1

>  <smiles>  (166) 
[H]C1=C2N=C(C([H])([H])[H])C([H])(C(=O)OC([H])([H])C([H])([H])[H])C([H])(c3c([H])nc([H])c([H])c3[H])C2([H])C(=O)C([H])([H])C1([H])[H]

$$$$
45:6:1
     RDKit          3D

 43 45  0  0  1  0  0  0  0  0999 V2000
    5.0839   -3.9300   -1.8700 C   0  0  0  0  0  0  0  0  0  0  0  0
    3.9134   -3.5466   -0.9587 C   0  0  0  0  0  0  0  0  0  0  0  0
    3.9380   -4.3520    0.2160 O   0  0  0  0  0  0  0  0  0  0  0  0
    2.8795   -5.1169    0.5611 C   0  0  0  0  0  0  0  0  0  0  0  0
    1.8141   -5.1886   -0.0567 O   0  0  0  0  0  0  0  0  0  0  0  0
    3.1116   -5.9094    1.8644 C   0  0  2  0  0  0  0  0  0  0  0  0
    3.8665   -7.2183    1.5275 C   0  0  0  0  0  0  0  0  0  0  0  0
    5.3123   -7.0742    1.1005 C   0  0  0  0  0  0  0  0  0  0  0  0
    3.3755   -8.3890    1.6249 N   0  0  0  0  0  0  0  0  0  0  0  0
    2.0687   -8.6120    2.0591 C   0  0  0  0  0  0  0  0  0  0  0  0
    1.7481   -9.8492    2.4791 C   0  0  0  0  0  0  0  0  0  0  0  0
    0.3863  -10.2201    3.0269 C   0  0  0  0  0  0  0  0  0  0  0  0
   -0.3524   -9.0092    3.6265 C   0  0  0  0  0  0  0  0  0  0  0  0
   -0.2728   -7.7809    2.7238 C   0  0  0  0  0  0  0  0  0  0  0  0
   -1.2510   -7.0543    2.5462 O   0  0  0  0  0  0  0  0  0  0  0  0
    1.0793   -7.4480    2.0738 C   0  0  1  0  0  0  0  0  0  0  0  0
    1.7610   -6.1660    2.6044 C   0  0  1  0  0  0  0  0  0  0  0  0
    1.8789   -6.0876    4.1311 C   0  0  0  0  0  0  0  0  0  0  0  0
    1.0493   -5.2196    4.8742 C   0  0  0  0  0  0  0  0  0  0  0  0
    1.1775   -5.1825    6.2749 C   0  0  0  0  0  0  0  0  0  0  0  0
    2.1369   -6.0123    6.8812 C   0  0  0  0  0  0  0  0  0  0  0  0
    2.9384   -6.8416    6.1868 N   0  0  0  0  0  0  0  0  0  0  0  0
    2.8061   -6.8768    4.8459 C   0  0  0  0  0  0  0  0  0  0  0  0
    5.0883   -3.3215   -2.7741 H   0  0  0  0  0  0  0  0  0  0  0  0
    5.0177   -4.9743   -2.1753 H   0  0  0  0  0  0  0  0  0  0  0  0
    6.0412   -3.7908   -1.3685 H   0  0  0  0  0  0  0  0  0  0  0  0
    4.0012   -2.5003   -0.6640 H   0  0  0  0  0  0  0  0  0  0  0  0
    2.9798   -3.6362   -1.5151 H   0  0  0  0  0  0  0  0  0  0  0  0
    5.3896   -6.5457    0.1545 H   0  0  0  0  0  0  0  0  0  0  0  0
    5.7576   -8.0584    0.9594 H   0  0  0  0  0  0  0  0  0  0  0  0
    5.8934   -6.5484    1.8546 H   0  0  0  0  0  0  0  0  0  0  0  0
    2.4795  -10.6432    2.4341 H   0  0  0  0  0  0  0  0  0  0  0  0
    3.7476   -5.2824    2.4915 H   0  0  0  0  0  0  0  0  0  0  0  0
    0.5188  -10.9839    3.7971 H   0  0  0  0  0  0  0  0  0  0  0  0
   -0.1885  -10.6696    2.2158 H   0  0  0  0  0  0  0  0  0  0  0  0
   -1.3898   -9.2637    3.8408 H   0  0  0  0  0  0  0  0  0  0  0  0
    0.1118   -8.7447    4.5767 H   0  0  0  0  0  0  0  0  0  0  0  0
    0.8489   -7.2839    1.0209 H   0  0  0  0  0  0  0  0  0  0  0  0
    1.0902   -5.3404    2.3630 H   0  0  0  0  0  0  0  0  0  0  0  0
    0.3188   -4.5919    4.3863 H   0  0  0  0  0  0  0  0  0  0  0  0
    0.5599   -4.5333    6.8779 H   0  0  0  0  0  0  0  0  0  0  0  0
    2.2702   -6.0147    7.9529 H   0  0  0  0  0  0  0  0  0  0  0  0
    3.4671   -7.5625    4.3419 H   0  0  0  0  0  0  0  0  0  0  0  0
  1  2  1  0
  1 24  1  0
  1 25  1  0
  1 26  1  0
  2  3  1  0
  2 27  1  0
  2 28  1  0
  3  4  1  0
  4  5  2  0
  4  6  1  0
  6 17  1  0
  6 33  1  1
  6  7  1  0
  7  8  1  0
  7  9  2  0
  8 29  1  0
  8 30  1  0
  8 31  1  0
  9 10  1  0
 10 16  1  0
 10 11  2  0
 11 12  1  0
 11 32  1  0
 12 13  1  0
 12 34  1  0
 12 35  1  0
 13 14  1  0
 13 36  1  0
 13 37  1  0
 14 15  2  0
 14 16  1  0
 16 17  1  0
 16 38  1  6
 17 18  1  0
 17 39  1  6
 18 23  1  0
 18 19  2  0
 19 20  1  0
 19 40  1  0
 20 21  2  0
 20 41  1  0
 21 22  1  0
 21 42  1  0
 22 23  2  0
 23 43  1  0
M  END
>  <i_m_ct_stereo_status>  (167) 
1

>  <s_m_source_file>  (167) 
/var/tmp/pbs.5076255.sched01/tmpl63by5lx/41imve8rrw.sdf

>  <i_m_source_file_index>  (167) 
27

>  <i_lp_mmshare_version>  (167) 
48012

>  <i_f3d_flags>  (167) 
0

>  <s_epik_input>  (167) 
W0NIM11bQ0gyXU9DKD1PKUMoPUMoTj0xKVtDSDNdKVtDQEBIXShbQ0BASF0oQzEyKUMoPU8pW0NIMl1bQ0gyXVtDSDJdMiljM1tjSF1bY0hdW2NIXW5bY0hdMw==

>  <s_epik_cmdline>  (167) 
J2VwaWtfcHl0aG9uJywgJy1waHQnLCAnMi4wJywgJy1waCcsICc3LjAnLCAnLXRuJywgJzgnLCAnLW1hJywgJzIwMCcsICctaW1hZScsICc8aW5maWxlLm1hZT4nLCAnLW9tYWUnLCAnPG91dGZpbGUubWFlPic=

>  <r_epik_Ionization_Penalty>  (167) 
0.00896591

>  <r_epik_Ionization_Penalty_Charging>  (167) 
0

>  <r_epik_Ionization_Penalty_Neutral>  (167) 
0.00896591

>  <r_epik_State_Penalty>  (167) 
0.836246

>  <r_epik_Charging_Adjusted_Penalty>  (167) 
0.836246

>  <i_epik_Tot_Q>  (167) 
0

>  <i_epik_Tot_abs_Q>  (167) 
0

>  <s_epik_Chemistry_Notes>  (167) 
This compound has an ester and may undergo hydrolysis at high or low pH. This compound has an imine and may undergo hydrolysis.

>  <s_lp_Force_Field>  (167) 
OPLS3e

>  <r_lp_Energy>  (167) 
18.1302

>  <b_lp_Chiralities_Consistent>  (167) 
1

>  <s_lp_Variant>  (167) 
45:0-7

>  <s_i_glide_gridfile>  (167) 
pfpi4k_grid

>  <i_i_glide_lignum>  (167) 
27

>  <i_i_glide_rotatable_bonds>  (167) 
4

>  <r_i_docking_score>  (167) 
-3.18332

>  <r_i_glide_ligand_efficiency>  (167) 
-0.138405

>  <r_i_glide_ligand_efficiency_sa>  (167) 
-0.393607

>  <r_i_glide_ligand_efficiency_ln>  (167) 
-0.769757

>  <r_i_glide_gscore>  (167) 
-3.18332

>  <r_i_glide_lipo>  (167) 
-0.221519

>  <r_i_glide_hbond>  (167) 
-0.227022

>  <r_i_glide_metal>  (167) 
-0

>  <r_i_glide_rewards>  (167) 
-1.37281

>  <r_i_glide_evdw>  (167) 
-23.6383

>  <r_i_glide_ecoul>  (167) 
-4.42693

>  <r_i_glide_erotb>  (167) 
0.570621

>  <r_i_glide_esite>  (167) 
-0.0866407

>  <r_i_glide_emodel>  (167) 
-33.4091

>  <r_i_glide_energy>  (167) 
-28.0652

>  <r_i_glide_einternal>  (167) 
0.714273

>  <r_i_glide_intrahb_reward>  (167) 
-0

>  <i_i_glide_confnum>  (167) 
3

>  <i_i_glide_posenum>  (167) 
1

>  <r_i_glide_eff_state_penalty>  (167) 
0

>  <ligand_id>  (167) 
45

>  <original_smiles>  (167) 
CCOC(=O)C1=C(C)N=C2CCCC(=O)C2C1c1cccnc1

>  <smiles>  (167) 
[H]C1=C2N=C(C([H])([H])[H])C([H])(C(=O)OC([H])([H])C([H])([H])[H])C([H])(c3c([H])nc([H])c([H])c3[H])C2([H])C(=O)C([H])([H])C1([H])[H]

$$$$
45:6:2
     RDKit          3D

 43 45  0  0  1  0  0  0  0  0999 V2000
    3.1222   -1.6793   -3.4557 C   0  0  0  0  0  0  0  0  0  0  0  0
    2.4423   -3.0408   -3.2039 C   0  0  0  0  0  0  0  0  0  0  0  0
    2.2529   -3.3136   -1.8182 O   0  0  0  0  0  0  0  0  0  0  0  0
    3.3042   -3.4844   -0.9915 C   0  0  0  0  0  0  0  0  0  0  0  0
    4.4912   -3.4524   -1.3282 O   0  0  0  0  0  0  0  0  0  0  0  0
    2.8673   -3.7835    0.4578 C   0  0  2  0  0  0  0  0  0  0  0  0
    3.7358   -2.9481    1.4243 C   0  0  0  0  0  0  0  0  0  0  0  0
    3.4622   -1.4597    1.4398 C   0  0  0  0  0  0  0  0  0  0  0  0
    4.6273   -3.4234    2.1980 N   0  0  0  0  0  0  0  0  0  0  0  0
    4.9090   -4.7858    2.2561 C   0  0  0  0  0  0  0  0  0  0  0  0
    5.5641   -5.2412    3.3383 C   0  0  0  0  0  0  0  0  0  0  0  0
    5.8714   -6.7059    3.5796 C   0  0  0  0  0  0  0  0  0  0  0  0
    4.8786   -7.6366    2.8566 C   0  0  0  0  0  0  0  0  0  0  0  0
    4.6378   -7.2066    1.4068 C   0  0  0  0  0  0  0  0  0  0  0  0
    4.6132   -8.0274    0.4892 O   0  0  0  0  0  0  0  0  0  0  0  0
    4.4129   -5.7045    1.1372 C   0  0  1  0  0  0  0  0  0  0  0  0
    2.9740   -5.3173    0.7123 C   0  0  1  0  0  0  0  0  0  0  0  0
    1.8613   -5.8550    1.6275 C   0  0  0  0  0  0  0  0  0  0  0  0
    0.9506   -6.8279    1.1648 C   0  0  0  0  0  0  0  0  0  0  0  0
   -0.0458   -7.3012    2.0347 C   0  0  0  0  0  0  0  0  0  0  0  0
   -0.0809   -6.8061    3.3486 C   0  0  0  0  0  0  0  0  0  0  0  0
    0.7697   -5.8622    3.7997 N   0  0  0  0  0  0  0  0  0  0  0  0
    1.7222   -5.4119    2.9575 C   0  0  0  0  0  0  0  0  0  0  0  0
    3.2021   -1.4695   -4.5216 H   0  0  0  0  0  0  0  0  0  0  0  0
    4.1297   -1.6370   -3.0405 H   0  0  0  0  0  0  0  0  0  0  0  0
    2.5572   -0.8664   -3.0034 H   0  0  0  0  0  0  0  0  0  0  0  0
    1.4594   -3.0387   -3.6761 H   0  0  0  0  0  0  0  0  0  0  0  0
    2.9956   -3.8515   -3.6779 H   0  0  0  0  0  0  0  0  0  0  0  0
    3.6999   -1.0165    0.4767 H   0  0  0  0  0  0  0  0  0  0  0  0
    4.0767   -0.9659    2.1901 H   0  0  0  0  0  0  0  0  0  0  0  0
    2.4188   -1.2520    1.6659 H   0  0  0  0  0  0  0  0  0  0  0  0
    5.8882   -4.5523    4.1108 H   0  0  0  0  0  0  0  0  0  0  0  0
    1.8280   -3.4639    0.5593 H   0  0  0  0  0  0  0  0  0  0  0  0
    5.8266   -6.8887    4.6560 H   0  0  0  0  0  0  0  0  0  0  0  0
    6.8981   -6.8953    3.2604 H   0  0  0  0  0  0  0  0  0  0  0  0
    5.2379   -8.6629    2.8855 H   0  0  0  0  0  0  0  0  0  0  0  0
    3.9201   -7.6190    3.3796 H   0  0  0  0  0  0  0  0  0  0  0  0
    5.0604   -5.4754    0.2902 H   0  0  0  0  0  0  0  0  0  0  0  0
    2.8103   -5.8186   -0.2454 H   0  0  0  0  0  0  0  0  0  0  0  0
    1.0026   -7.2069    0.1579 H   0  0  0  0  0  0  0  0  0  0  0  0
   -0.7567   -8.0513    1.7084 H   0  0  0  0  0  0  0  0  0  0  0  0
   -0.8303   -7.1426    4.0518 H   0  0  0  0  0  0  0  0  0  0  0  0
    2.3818   -4.6711    3.3759 H   0  0  0  0  0  0  0  0  0  0  0  0
  1  2  1  0
  1 24  1  0
  1 25  1  0
  1 26  1  0
  2  3  1  0
  2 27  1  0
  2 28  1  0
  3  4  1  0
  4  5  2  0
  4  6  1  0
  6 17  1  0
  6 33  1  6
  6  7  1  0
  7  8  1  0
  7  9  2  0
  8 29  1  0
  8 30  1  0
  8 31  1  0
  9 10  1  0
 10 16  1  0
 10 11  2  0
 11 12  1  0
 11 32  1  0
 12 13  1  0
 12 34  1  0
 12 35  1  0
 13 14  1  0
 13 36  1  0
 13 37  1  0
 14 15  2  0
 14 16  1  0
 16 17  1  0
 16 38  1  6
 17 18  1  0
 17 39  1  6
 18 23  1  0
 18 19  2  0
 19 20  1  0
 19 40  1  0
 20 21  2  0
 20 41  1  0
 21 22  1  0
 21 42  1  0
 22 23  2  0
 23 43  1  0
M  END
>  <i_m_ct_stereo_status>  (168) 
1

>  <s_m_source_file>  (168) 
/var/tmp/pbs.5076255.sched01/tmpl63by5lx/41imve8rrw.sdf

>  <i_m_source_file_index>  (168) 
27

>  <i_lp_mmshare_version>  (168) 
48012

>  <i_f3d_flags>  (168) 
0

>  <s_epik_input>  (168) 
W0NIM11bQ0gyXU9DKD1PKUMoPUMoTj0xKVtDSDNdKVtDQEBIXShbQ0BASF0oQzEyKUMoPU8pW0NIMl1bQ0gyXVtDSDJdMiljM1tjSF1bY0hdW2NIXW5bY0hdMw==

>  <s_epik_cmdline>  (168) 
J2VwaWtfcHl0aG9uJywgJy1waHQnLCAnMi4wJywgJy1waCcsICc3LjAnLCAnLXRuJywgJzgnLCAnLW1hJywgJzIwMCcsICctaW1hZScsICc8aW5maWxlLm1hZT4nLCAnLW9tYWUnLCAnPG91dGZpbGUubWFlPic=

>  <r_epik_Ionization_Penalty>  (168) 
0.00896591

>  <r_epik_Ionization_Penalty_Charging>  (168) 
0

>  <r_epik_Ionization_Penalty_Neutral>  (168) 
0.00896591

>  <r_epik_State_Penalty>  (168) 
0.836246

>  <r_epik_Charging_Adjusted_Penalty>  (168) 
0.836246

>  <i_epik_Tot_Q>  (168) 
0

>  <i_epik_Tot_abs_Q>  (168) 
0

>  <s_epik_Chemistry_Notes>  (168) 
This compound has an ester and may undergo hydrolysis at high or low pH. This compound has an imine and may undergo hydrolysis.

>  <s_lp_Force_Field>  (168) 
OPLS3e

>  <r_lp_Energy>  (168) 
18.1302

>  <b_lp_Chiralities_Consistent>  (168) 
1

>  <s_lp_Variant>  (168) 
45:0-7

>  <s_i_glide_gridfile>  (168) 
pfpi4k_grid

>  <i_i_glide_lignum>  (168) 
27

>  <i_i_glide_rotatable_bonds>  (168) 
4

>  <r_i_docking_score>  (168) 
-2.87587

>  <r_i_glide_ligand_efficiency>  (168) 
-0.125038

>  <r_i_glide_ligand_efficiency_sa>  (168) 
-0.355591

>  <r_i_glide_ligand_efficiency_ln>  (168) 
-0.695411

>  <r_i_glide_gscore>  (168) 
-2.87587

>  <r_i_glide_lipo>  (168) 
-0.413178

>  <r_i_glide_hbond>  (168) 
0

>  <r_i_glide_metal>  (168) 
-0

>  <r_i_glide_rewards>  (168) 
-1.47085

>  <r_i_glide_evdw>  (168) 
-25.4667

>  <r_i_glide_ecoul>  (168) 
-1.91958

>  <r_i_glide_erotb>  (168) 
0.570621

>  <r_i_glide_esite>  (168) 
-0.00118719

>  <r_i_glide_emodel>  (168) 
-31.7902

>  <r_i_glide_energy>  (168) 
-27.3863

>  <r_i_glide_einternal>  (168) 
1.47955

>  <r_i_glide_intrahb_reward>  (168) 
-0

>  <i_i_glide_confnum>  (168) 
3

>  <i_i_glide_posenum>  (168) 
33

>  <r_i_glide_eff_state_penalty>  (168) 
0

>  <ligand_id>  (168) 
45

>  <original_smiles>  (168) 
CCOC(=O)C1=C(C)N=C2CCCC(=O)C2C1c1cccnc1

>  <smiles>  (168) 
[H]C1=C2N=C(C([H])([H])[H])C([H])(C(=O)OC([H])([H])C([H])([H])[H])C([H])(c3c([H])nc([H])c([H])c3[H])C2([H])C(=O)C([H])([H])C1([H])[H]

$$$$
46:0:0
     RDKit          3D

 35 38  0  0  1  0  0  0  0  0999 V2000
    6.8324   -5.3136    0.9833 C   0  0  0  0  0  0  0  0  0  0  0  0
    6.1123   -4.2588    0.5593 C   0  0  0  0  0  0  0  0  0  0  0  0
    6.5524   -3.3999   -0.5907 C   0  0  2  0  0  0  0  0  0  0  0  0
    6.9310   -2.0578    0.0273 C   0  0  0  0  0  0  0  0  0  0  0  0
    5.6223   -1.3588    0.3806 C   0  0  1  0  0  0  0  0  0  0  0  0
    4.9661   -1.0661   -0.9748 C   0  0  0  0  0  0  0  0  0  0  0  0
    4.3926   -2.4056   -1.4294 C   0  0  1  0  0  0  0  0  0  0  0  0
    3.7668   -2.2806   -2.8273 C   0  0  0  0  0  0  0  0  0  0  0  0
    5.5359   -3.2805   -1.6201 O   0  0  0  0  0  0  0  0  0  0  0  0
    3.3380   -2.9166   -0.3645 C   0  0  1  0  0  0  0  0  0  0  0  0
    3.8278   -4.1077    0.2292 O   0  0  0  0  0  0  0  0  0  0  0  0
    4.8114   -3.7778    1.1719 C   0  0  1  0  0  0  0  0  0  0  0  0
    4.5399   -4.4597    2.3806 O   0  0  0  0  0  0  0  0  0  0  0  0
    4.6882   -2.1950    1.3640 C   0  0  1  0  0  0  0  0  0  0  0  0
    4.9255   -1.7542    2.8273 C   0  0  0  0  0  0  0  0  0  0  0  0
    3.2275   -2.1012    0.9411 C   0  0  1  0  0  0  0  0  0  0  0  0
    2.6408   -0.8085    0.8794 O   0  0  0  0  0  0  0  0  0  0  0  0
    6.5266   -5.9309    1.8134 H   0  0  0  0  0  0  0  0  0  0  0  0
    7.7505   -5.5882    0.4819 H   0  0  0  0  0  0  0  0  0  0  0  0
    7.4334   -3.8473   -1.0467 H   0  0  0  0  0  0  0  0  0  0  0  0
    7.5528   -2.1970    0.9095 H   0  0  0  0  0  0  0  0  0  0  0  0
    7.5232   -1.4731   -0.6705 H   0  0  0  0  0  0  0  0  0  0  0  0
    5.8563   -0.3983    0.8380 H   0  0  0  0  0  0  0  0  0  0  0  0
    4.2050   -0.2940   -0.9017 H   0  0  0  0  0  0  0  0  0  0  0  0
    5.6773   -0.6775   -1.7044 H   0  0  0  0  0  0  0  0  0  0  0  0
    2.9260   -1.5853   -2.8359 H   0  0  0  0  0  0  0  0  0  0  0  0
    3.4158   -3.2483   -3.1905 H   0  0  0  0  0  0  0  0  0  0  0  0
    4.5090   -1.9124   -3.5385 H   0  0  0  0  0  0  0  0  0  0  0  0
    2.3622   -3.1043   -0.8084 H   0  0  0  0  0  0  0  0  0  0  0  0
    4.6614   -5.3855    2.2159 H   0  0  0  0  0  0  0  0  0  0  0  0
    4.2235   -2.2173    3.5228 H   0  0  0  0  0  0  0  0  0  0  0  0
    4.8019   -0.6748    2.9308 H   0  0  0  0  0  0  0  0  0  0  0  0
    5.9340   -2.0013    3.1489 H   0  0  0  0  0  0  0  0  0  0  0  0
    2.5953   -2.6451    1.6453 H   0  0  0  0  0  0  0  0  0  0  0  0
    1.9007   -0.8392    0.2546 H   0  0  0  0  0  0  0  0  0  0  0  0
  1  2  2  0
  1 18  1  0
  1 19  1  0
  2 12  1  0
  2  3  1  0
  3  9  1  0
  3  4  1  0
  3 20  1  6
  4  5  1  0
  4 21  1  0
  4 22  1  0
  5 14  1  0
  5  6  1  0
  5 23  1  1
  6  7  1  0
  6 24  1  0
  6 25  1  0
  7  8  1  6
  7  9  1  0
  7 10  1  0
  8 26  1  0
  8 27  1  0
  8 28  1  0
 10 16  1  0
 10 11  1  0
 10 29  1  6
 11 12  1  0
 12 13  1  1
 12 14  1  0
 13 30  1  0
 14 15  1  1
 14 16  1  0
 15 31  1  0
 15 32  1  0
 15 33  1  0
 16 17  1  0
 16 34  1  1
 17 35  1  0
M  END
>  <i_m_ct_stereo_status>  (169) 
1

>  <s_m_source_file>  (169) 
/var/tmp/pbs.5076255.sched01/tmpl63by5lx/41imve8rrw.sdf

>  <i_m_source_file_index>  (169) 
28

>  <i_lp_mmshare_version>  (169) 
48012

>  <i_f3d_flags>  (169) 
0

>  <s_epik_input>  (169) 
W0NIMl09QzFbQ0BASF0oTzIpW0NIMl1bQ0BASF0oW0NIMl0zKVtDQEBdKFtDSDNdKShbQ0BIXTRbT0hdKVtDQEBdMShbT0hdKU9bQ0BASF00W0NAXTIzW0NIM10=

>  <s_epik_cmdline>  (169) 
J2VwaWtfcHl0aG9uJywgJy1waHQnLCAnMi4wJywgJy1waCcsICc3LjAnLCAnLXRuJywgJzgnLCAnLW1hJywgJzIwMCcsICctaW1hZScsICc8aW5maWxlLm1hZT4nLCAnLW9tYWUnLCAnPG91dGZpbGUubWFlPic=

>  <r_lp_tautomer_probability>  (169) 
1

>  <r_epik_Ionization_Penalty>  (169) 
1.38677e-05

>  <r_epik_Ionization_Penalty_Charging>  (169) 
0

>  <r_epik_Ionization_Penalty_Neutral>  (169) 
1.38677e-05

>  <r_epik_State_Penalty>  (169) 
-0

>  <r_epik_Charging_Adjusted_Penalty>  (169) 
0

>  <i_epik_Tot_Q>  (169) 
0

>  <i_epik_Tot_abs_Q>  (169) 
0

>  <s_lp_Force_Field>  (169) 
OPLS3e

>  <r_lp_Energy>  (169) 
45.4374

>  <b_lp_Chiralities_Consistent>  (169) 
1

>  <s_lp_Variant>  (169) 
46:0-1

>  <s_i_glide_gridfile>  (169) 
pfpi4k_grid

>  <i_i_glide_lignum>  (169) 
28

>  <i_i_glide_rotatable_bonds>  (169) 
2

>  <r_i_docking_score>  (169) 
-4.08064

>  <r_i_glide_ligand_efficiency>  (169) 
-0.240038

>  <r_i_glide_ligand_efficiency_sa>  (169) 
-0.617204

>  <r_i_glide_ligand_efficiency_ln>  (169) 
-1.06455

>  <r_i_glide_gscore>  (169) 
-4.08064

>  <r_i_glide_lipo>  (169) 
-0.555871

>  <r_i_glide_hbond>  (169) 
-0.16

>  <r_i_glide_metal>  (169) 
-0

>  <r_i_glide_rewards>  (169) 
-1.82497

>  <r_i_glide_evdw>  (169) 
-19.0365

>  <r_i_glide_ecoul>  (169) 
-3.91982

>  <r_i_glide_erotb>  (169) 
0

>  <r_i_glide_esite>  (169) 
0

>  <r_i_glide_emodel>  (169) 
-28.8561

>  <r_i_glide_energy>  (169) 
-22.9564

>  <r_i_glide_einternal>  (169) 
0.873092

>  <r_i_glide_intrahb_reward>  (169) 
-0

>  <i_i_glide_confnum>  (169) 
2

>  <i_i_glide_posenum>  (169) 
36

>  <r_i_glide_eff_state_penalty>  (169) 
0

>  <ligand_id>  (169) 
46

>  <original_smiles>  (169) 
C=C1C2CC3CC(C)(O2)C2OC1(O)C3(C)C2O

>  <smiles>  (169) 
[H]OC12OC3([H])C([H])(O[H])C1(C([H])([H])[H])C1([H])C([H])([H])C([H])(OC3(C([H])([H])[H])C1([H])[H])C2=C([H])[H]

$$$$
46:0:1
     RDKit          3D

 35 38  0  0  1  0  0  0  0  0999 V2000
    3.0340   -2.2411   -2.3352 C   0  0  0  0  0  0  0  0  0  0  0  0
    3.8107   -2.4213   -1.2534 C   0  0  0  0  0  0  0  0  0  0  0  0
    3.7602   -1.5053   -0.0575 C   0  0  2  0  0  0  0  0  0  0  0  0
    5.0832   -0.7483   -0.0584 C   0  0  0  0  0  0  0  0  0  0  0  0
    6.1423   -1.7357    0.4148 C   0  0  1  0  0  0  0  0  0  0  0  0
    5.7748   -2.0005    1.8778 C   0  0  0  0  0  0  0  0  0  0  0  0
    4.5846   -2.9559    1.8248 C   0  0  1  0  0  0  0  0  0  0  0  0
    4.0615   -3.2392    3.2424 C   0  0  0  0  0  0  0  0  0  0  0  0
    3.5130   -2.2245    1.1764 O   0  0  0  0  0  0  0  0  0  0  0  0
    5.0089   -4.2865    1.0814 C   0  0  1  0  0  0  0  0  0  0  0  0
    4.2717   -4.3892   -0.1229 O   0  0  0  0  0  0  0  0  0  0  0  0
    4.8268   -3.5278   -1.0774 C   0  0  1  0  0  0  0  0  0  0  0  0
    5.0137   -4.2396   -2.2848 O   0  0  0  0  0  0  0  0  0  0  0  0
    6.2298   -3.0646   -0.4609 C   0  0  1  0  0  0  0  0  0  0  0  0
    7.3390   -2.9259   -1.5281 C   0  0  0  0  0  0  0  0  0  0  0  0
    6.4050   -4.2887    0.4263 C   0  0  1  0  0  0  0  0  0  0  0  0
    7.5329   -4.3291    1.2789 O   0  0  0  0  0  0  0  0  0  0  0  0
    3.0648   -2.9005   -3.1902 H   0  0  0  0  0  0  0  0  0  0  0  0
    2.3239   -1.4256   -2.3619 H   0  0  0  0  0  0  0  0  0  0  0  0
    2.9581   -0.7854   -0.1864 H   0  0  0  0  0  0  0  0  0  0  0  0
    5.3093   -0.3831   -1.0610 H   0  0  0  0  0  0  0  0  0  0  0  0
    5.0322    0.1311    0.5874 H   0  0  0  0  0  0  0  0  0  0  0  0
    7.1098   -1.2353    0.4121 H   0  0  0  0  0  0  0  0  0  0  0  0
    6.6030   -2.4268    2.4317 H   0  0  0  0  0  0  0  0  0  0  0  0
    5.5261   -1.0800    2.4082 H   0  0  0  0  0  0  0  0  0  0  0  0
    4.8103   -3.7375    3.8603 H   0  0  0  0  0  0  0  0  0  0  0  0
    3.1664   -3.8621    3.2133 H   0  0  0  0  0  0  0  0  0  0  0  0
    3.7940   -2.3034    3.7362 H   0  0  0  0  0  0  0  0  0  0  0  0
    4.8406   -5.1739    1.6907 H   0  0  0  0  0  0  0  0  0  0  0  0
    4.2431   -4.7876   -2.4135 H   0  0  0  0  0  0  0  0  0  0  0  0
    7.5182   -3.8493   -2.0793 H   0  0  0  0  0  0  0  0  0  0  0  0
    8.2940   -2.6500   -1.0746 H   0  0  0  0  0  0  0  0  0  0  0  0
    7.0761   -2.1684   -2.2642 H   0  0  0  0  0  0  0  0  0  0  0  0
    6.4990   -5.1856   -0.1867 H   0  0  0  0  0  0  0  0  0  0  0  0
    7.5430   -5.1602    1.7279 H   0  0  0  0  0  0  0  0  0  0  0  0
  1  2  2  0
  1 18  1  0
  1 19  1  0
  2 12  1  0
  2  3  1  0
  3  9  1  0
  3  4  1  0
  3 20  1  6
  4  5  1  0
  4 21  1  0
  4 22  1  0
  5 14  1  0
  5  6  1  0
  5 23  1  1
  6  7  1  0
  6 24  1  0
  6 25  1  0
  7  8  1  1
  7  9  1  0
  7 10  1  0
  8 26  1  0
  8 27  1  0
  8 28  1  0
 10 16  1  0
 10 11  1  0
 10 29  1  1
 11 12  1  0
 12 13  1  6
 12 14  1  0
 13 30  1  0
 14 15  1  6
 14 16  1  0
 15 31  1  0
 15 32  1  0
 15 33  1  0
 16 17  1  0
 16 34  1  6
 17 35  1  0
M  END
>  <i_m_ct_stereo_status>  (170) 
1

>  <s_m_source_file>  (170) 
/var/tmp/pbs.5076255.sched01/tmpl63by5lx/41imve8rrw.sdf

>  <i_m_source_file_index>  (170) 
28

>  <i_lp_mmshare_version>  (170) 
48012

>  <i_f3d_flags>  (170) 
0

>  <s_epik_input>  (170) 
W0NIMl09QzFbQ0BASF0oTzIpW0NIMl1bQ0BASF0oW0NIMl0zKVtDQEBdKFtDSDNdKShbQ0BIXTRbT0hdKVtDQEBdMShbT0hdKU9bQ0BASF00W0NAXTIzW0NIM10=

>  <s_epik_cmdline>  (170) 
J2VwaWtfcHl0aG9uJywgJy1waHQnLCAnMi4wJywgJy1waCcsICc3LjAnLCAnLXRuJywgJzgnLCAnLW1hJywgJzIwMCcsICctaW1hZScsICc8aW5maWxlLm1hZT4nLCAnLW9tYWUnLCAnPG91dGZpbGUubWFlPic=

>  <r_lp_tautomer_probability>  (170) 
1

>  <r_epik_Ionization_Penalty>  (170) 
1.38677e-05

>  <r_epik_Ionization_Penalty_Charging>  (170) 
0

>  <r_epik_Ionization_Penalty_Neutral>  (170) 
1.38677e-05

>  <r_epik_State_Penalty>  (170) 
-0

>  <r_epik_Charging_Adjusted_Penalty>  (170) 
0

>  <i_epik_Tot_Q>  (170) 
0

>  <i_epik_Tot_abs_Q>  (170) 
0

>  <s_lp_Force_Field>  (170) 
OPLS3e

>  <r_lp_Energy>  (170) 
45.4374

>  <b_lp_Chiralities_Consistent>  (170) 
1

>  <s_lp_Variant>  (170) 
46:0-1

>  <s_i_glide_gridfile>  (170) 
pfpi4k_grid

>  <i_i_glide_lignum>  (170) 
28

>  <i_i_glide_rotatable_bonds>  (170) 
2

>  <r_i_docking_score>  (170) 
-3.67363

>  <r_i_glide_ligand_efficiency>  (170) 
-0.216096

>  <r_i_glide_ligand_efficiency_sa>  (170) 
-0.555644

>  <r_i_glide_ligand_efficiency_ln>  (170) 
-0.958369

>  <r_i_glide_gscore>  (170) 
-3.67363

>  <r_i_glide_lipo>  (170) 
-0.419159

>  <r_i_glide_hbond>  (170) 
0

>  <r_i_glide_metal>  (170) 
-0

>  <r_i_glide_rewards>  (170) 
-1.82597

>  <r_i_glide_evdw>  (170) 
-18.3943

>  <r_i_glide_ecoul>  (170) 
-3.39198

>  <r_i_glide_erotb>  (170) 
0

>  <r_i_glide_esite>  (170) 
0

>  <r_i_glide_emodel>  (170) 
-27.1389

>  <r_i_glide_energy>  (170) 
-21.7862

>  <r_i_glide_einternal>  (170) 
0.826724

>  <r_i_glide_intrahb_reward>  (170) 
-0

>  <i_i_glide_confnum>  (170) 
2

>  <i_i_glide_posenum>  (170) 
34

>  <r_i_glide_eff_state_penalty>  (170) 
0

>  <ligand_id>  (170) 
46

>  <original_smiles>  (170) 
C=C1C2CC3CC(C)(O2)C2OC1(O)C3(C)C2O

>  <smiles>  (170) 
[H]OC12OC3([H])C([H])(O[H])C1(C([H])([H])[H])C1([H])C([H])([H])C([H])(OC3(C([H])([H])[H])C1([H])[H])C2=C([H])[H]

$$$$
46:0:2
     RDKit          3D

 35 38  0  0  1  0  0  0  0  0999 V2000
    2.9698   -2.4003   -2.3933 C   0  0  0  0  0  0  0  0  0  0  0  0
    3.7609   -2.4825   -1.3063 C   0  0  0  0  0  0  0  0  0  0  0  0
    3.6978   -1.5037   -0.1724 C   0  0  2  0  0  0  0  0  0  0  0  0
    4.9953   -0.7157   -0.2454 C   0  0  0  0  0  0  0  0  0  0  0  0
    6.0927   -1.6309    0.2807 C   0  0  1  0  0  0  0  0  0  0  0  0
    5.7504   -1.8120    1.7639 C   0  0  0  0  0  0  0  0  0  0  0  0
    4.5920   -2.8074    1.7865 C   0  0  1  0  0  0  0  0  0  0  0  0
    4.0869   -3.0054    3.2243 C   0  0  0  0  0  0  0  0  0  0  0  0
    3.4915   -2.1529    1.1074 O   0  0  0  0  0  0  0  0  0  0  0  0
    5.0480   -4.1713    1.1212 C   0  0  1  0  0  0  0  0  0  0  0  0
    4.3082   -4.3710   -0.0760 O   0  0  0  0  0  0  0  0  0  0  0  0
    4.8193   -3.5316   -1.0777 C   0  0  1  0  0  0  0  0  0  0  0  0
    5.0149   -4.2578   -2.2634 O   0  0  0  0  0  0  0  0  0  0  0  0
    6.2133   -3.0054   -0.5057 C   0  0  1  0  0  0  0  0  0  0  0  0
    7.3105   -2.9102   -1.5869 C   0  0  0  0  0  0  0  0  0  0  0  0
    6.4349   -4.1694    0.4472 C   0  0  1  0  0  0  0  0  0  0  0  0
    7.5840   -4.1205    1.2657 O   0  0  0  0  0  0  0  0  0  0  0  0
    3.0097   -3.1126   -3.2047 H   0  0  0  0  0  0  0  0  0  0  0  0
    2.2376   -1.6118   -2.4741 H   0  0  0  0  0  0  0  0  0  0  0  0
    2.8735   -0.8202   -0.3312 H   0  0  0  0  0  0  0  0  0  0  0  0
    5.1969   -0.4049   -1.2714 H   0  0  0  0  0  0  0  0  0  0  0  0
    4.9154    0.1950    0.3496 H   0  0  0  0  0  0  0  0  0  0  0  0
    7.0383   -1.0966    0.2309 H   0  0  0  0  0  0  0  0  0  0  0  0
    6.5956   -2.1648    2.3425 H   0  0  0  0  0  0  0  0  0  0  0  0
    5.4717   -0.8655    2.2336 H   0  0  0  0  0  0  0  0  0  0  0  0
    4.8501   -3.4355    3.8713 H   0  0  0  0  0  0  0  0  0  0  0  0
    3.2104   -3.6527    3.2565 H   0  0  0  0  0  0  0  0  0  0  0  0
    3.7925   -2.0512    3.6619 H   0  0  0  0  0  0  0  0  0  0  0  0
    4.9235   -5.0208    1.7939 H   0  0  0  0  0  0  0  0  0  0  0  0
    4.2705   -4.8454   -2.3545 H   0  0  0  0  0  0  0  0  0  0  0  0
    7.5136   -3.8484   -2.0885 H   0  0  0  0  0  0  0  0  0  0  0  0
    8.2631   -2.5748   -1.1752 H   0  0  0  0  0  0  0  0  0  0  0  0
    7.0188   -2.2100   -2.3603 H   0  0  0  0  0  0  0  0  0  0  0  0
    6.5542   -5.0978   -0.1126 H   0  0  0  0  0  0  0  0  0  0  0  0
    7.4783   -3.4230    1.8909 H   0  0  0  0  0  0  0  0  0  0  0  0
  1  2  2  0
  1 18  1  0
  1 19  1  0
  2 12  1  0
  2  3  1  0
  3  9  1  0
  3  4  1  0
  3 20  1  6
  4  5  1  0
  4 21  1  0
  4 22  1  0
  5 14  1  0
  5  6  1  0
  5 23  1  1
  6  7  1  0
  6 24  1  0
  6 25  1  0
  7  8  1  1
  7  9  1  0
  7 10  1  0
  8 26  1  0
  8 27  1  0
  8 28  1  0
 10 16  1  0
 10 11  1  0
 10 29  1  1
 11 12  1  0
 12 13  1  6
 12 14  1  0
 13 30  1  0
 14 15  1  6
 14 16  1  0
 15 31  1  0
 15 32  1  0
 15 33  1  0
 16 17  1  0
 16 34  1  6
 17 35  1  0
M  END
>  <i_m_ct_stereo_status>  (171) 
1

>  <s_m_source_file>  (171) 
/var/tmp/pbs.5076255.sched01/tmpl63by5lx/41imve8rrw.sdf

>  <i_m_source_file_index>  (171) 
28

>  <i_lp_mmshare_version>  (171) 
48012

>  <i_f3d_flags>  (171) 
0

>  <s_epik_input>  (171) 
W0NIMl09QzFbQ0BASF0oTzIpW0NIMl1bQ0BASF0oW0NIMl0zKVtDQEBdKFtDSDNdKShbQ0BIXTRbT0hdKVtDQEBdMShbT0hdKU9bQ0BASF00W0NAXTIzW0NIM10=

>  <s_epik_cmdline>  (171) 
J2VwaWtfcHl0aG9uJywgJy1waHQnLCAnMi4wJywgJy1waCcsICc3LjAnLCAnLXRuJywgJzgnLCAnLW1hJywgJzIwMCcsICctaW1hZScsICc8aW5maWxlLm1hZT4nLCAnLW9tYWUnLCAnPG91dGZpbGUubWFlPic=

>  <r_lp_tautomer_probability>  (171) 
1

>  <r_epik_Ionization_Penalty>  (171) 
1.38677e-05

>  <r_epik_Ionization_Penalty_Charging>  (171) 
0

>  <r_epik_Ionization_Penalty_Neutral>  (171) 
1.38677e-05

>  <r_epik_State_Penalty>  (171) 
-0

>  <r_epik_Charging_Adjusted_Penalty>  (171) 
0

>  <i_epik_Tot_Q>  (171) 
0

>  <i_epik_Tot_abs_Q>  (171) 
0

>  <s_lp_Force_Field>  (171) 
OPLS3e

>  <r_lp_Energy>  (171) 
45.4374

>  <b_lp_Chiralities_Consistent>  (171) 
1

>  <s_lp_Variant>  (171) 
46:0-1

>  <s_i_glide_gridfile>  (171) 
pfpi4k_grid

>  <i_i_glide_lignum>  (171) 
28

>  <i_i_glide_rotatable_bonds>  (171) 
2

>  <r_i_docking_score>  (171) 
-3.59732

>  <r_i_glide_ligand_efficiency>  (171) 
-0.211607

>  <r_i_glide_ligand_efficiency_sa>  (171) 
-0.544101

>  <r_i_glide_ligand_efficiency_ln>  (171) 
-0.93846

>  <r_i_glide_gscore>  (171) 
-3.59732

>  <r_i_glide_lipo>  (171) 
-0.386697

>  <r_i_glide_hbond>  (171) 
0

>  <r_i_glide_metal>  (171) 
-0

>  <r_i_glide_rewards>  (171) 
-1.82449

>  <r_i_glide_evdw>  (171) 
-17.6448

>  <r_i_glide_ecoul>  (171) 
-3.3593

>  <r_i_glide_erotb>  (171) 
0

>  <r_i_glide_esite>  (171) 
0

>  <r_i_glide_emodel>  (171) 
-26.3574

>  <r_i_glide_energy>  (171) 
-21.0041

>  <r_i_glide_einternal>  (171) 
0.465783

>  <r_i_glide_intrahb_reward>  (171) 
-0

>  <i_i_glide_confnum>  (171) 
2

>  <i_i_glide_posenum>  (171) 
5

>  <r_i_glide_eff_state_penalty>  (171) 
0

>  <ligand_id>  (171) 
46

>  <original_smiles>  (171) 
C=C1C2CC3CC(C)(O2)C2OC1(O)C3(C)C2O

>  <smiles>  (171) 
[H]OC12OC3([H])C([H])(O[H])C1(C([H])([H])[H])C1([H])C([H])([H])C([H])(OC3(C([H])([H])[H])C1([H])[H])C2=C([H])[H]

$$$$
48:0:0
     RDKit          3D

 83 90  0  0  1  0  0  0  0  0999 V2000
    3.9679   -7.4322    8.6846 C   0  0  0  0  0  0  0  0  0  0  0  0
    3.5409   -6.9770    7.4955 C   0  0  0  0  0  0  0  0  0  0  0  0
    2.3960   -5.9401    7.4447 C   0  0  2  0  0  0  0  0  0  0  0  0
    1.0697   -6.4809    7.9304 C   0  0  0  0  0  0  0  0  0  0  0  0
    0.6185   -6.5521    6.4930 C   0  0  2  0  0  0  0  0  0  0  0  0
    0.4031   -7.9751    6.0336 O   0  0  0  0  0  0  0  0  0  0  0  0
    1.2596   -9.0989    5.5363 C   0  0  2  0  0  0  0  0  0  0  0  0
    2.6827   -9.2972    6.0566 C   0  0  1  0  0  0  0  0  0  0  0  0
    3.0336  -10.6710    6.1463 O   0  0  0  0  0  0  0  0  0  0  0  0
    3.8044   -8.5067    5.2930 C   0  0  2  0  0  0  0  0  0  0  0  0
    4.2892   -7.2980    6.1815 C   0  0  2  0  0  0  0  0  0  0  0  0
    5.6733   -7.4434    6.4539 O   0  0  0  0  0  0  0  0  0  0  0  0
    4.1666   -6.0640    5.4143 C   0  0  0  0  0  0  0  0  0  0  0  0
    2.6970   -5.9293    4.8707 C   0  0  2  0  0  0  0  0  0  0  0  0
    1.7330   -6.7686    4.3647 O   0  0  0  0  0  0  0  0  0  0  0  0
    2.8777   -5.5162    3.4109 C   0  0  1  0  0  0  0  0  0  0  0  0
    1.8184   -5.3684    2.4264 O   0  0  0  0  0  0  0  0  0  0  0  0
    3.2766   -4.0590    3.6607 C   0  0  0  0  0  0  0  0  0  0  0  0
    4.4363   -3.4710    3.2816 C   0  0  0  0  0  0  0  0  0  0  0  0
    2.2159   -3.2845    4.4937 C   0  0  1  0  0  0  0  0  0  0  0  0
    1.0317   -2.7591    3.6544 C   0  0  0  0  0  0  0  0  0  0  0  0
    0.3395   -1.6424    4.4033 C   0  0  1  0  0  0  0  0  0  0  0  0
   -0.9800   -1.8681    4.9080 O   0  0  0  0  0  0  0  0  0  0  0  0
    0.0708   -1.9489    5.8617 C   0  0  2  0  0  0  0  0  0  0  0  0
    0.1263   -0.8451    6.8955 C   0  0  0  0  0  0  0  0  0  0  0  0
    0.3472   -3.3539    6.3642 C   0  0  0  0  0  0  0  0  0  0  0  0
    1.6905   -3.9540    5.8601 C   0  0  1  0  0  0  0  0  0  0  0  0
    1.8088   -5.5282    6.0280 C   0  0  2  0  0  0  0  0  0  0  0  0
    3.7635   -6.8191    2.8692 C   0  0  1  0  0  0  0  0  0  0  0  0
    5.1097   -6.4805    2.5064 O   0  0  0  0  0  0  0  0  0  0  0  0
    5.5174   -6.1916    1.2486 C   0  0  0  0  0  0  0  0  0  0  0  0
    4.4869   -6.2981    0.1340 C   0  0  0  0  0  0  0  0  0  0  0  0
    6.6769   -5.8308    0.9808 O   0  0  0  0  0  0  0  0  0  0  0  0
    3.6684   -8.3257    3.6465 C   0  0  1  0  0  0  0  0  0  0  0  0
    4.8373   -8.9574    3.0963 O   0  0  0  0  0  0  0  0  0  0  0  0
    4.9699  -10.3823    3.0850 C   0  0  0  0  0  0  0  0  0  0  0  0
    2.3814   -9.0629    3.0937 C   0  0  0  0  0  0  0  0  0  0  0  0
    2.2946   -9.3018    1.7600 C   0  0  0  0  0  0  0  0  0  0  0  0
    1.1670   -9.4982    4.0009 C   0  0  0  0  0  0  0  0  0  0  0  0
    1.0761  -11.0414    3.8853 C   0  0  0  0  0  0  0  0  0  0  0  0
   -0.1803   -8.9703    3.4393 C   0  0  0  0  0  0  0  0  0  0  0  0
    4.8111   -8.1015    8.7612 H   0  0  0  0  0  0  0  0  0  0  0  0
    3.4761   -7.1384    9.5981 H   0  0  0  0  0  0  0  0  0  0  0  0
    2.6913   -5.0789    8.0374 H   0  0  0  0  0  0  0  0  0  0  0  0
    1.1074   -7.4482    8.4464 H   0  0  0  0  0  0  0  0  0  0  0  0
    0.5080   -5.7304    8.4899 H   0  0  0  0  0  0  0  0  0  0  0  0
   -0.3452   -6.0804    6.3971 H   0  0  0  0  0  0  0  0  0  0  0  0
    0.6992   -9.8927    6.0394 H   0  0  0  0  0  0  0  0  0  0  0  0
    2.6161   -9.1054    7.1225 H   0  0  0  0  0  0  0  0  0  0  0  0
    2.3879  -11.1400    6.6737 H   0  0  0  0  0  0  0  0  0  0  0  0
    4.6529   -9.1851    5.3955 H   0  0  0  0  0  0  0  0  0  0  0  0
    5.8095   -8.3192    6.7929 H   0  0  0  0  0  0  0  0  0  0  0  0
    4.3887   -5.1997    6.0369 H   0  0  0  0  0  0  0  0  0  0  0  0
    5.0045   -5.9676    4.7294 H   0  0  0  0  0  0  0  0  0  0  0  0
    1.3970   -7.3493    5.0379 H   0  0  0  0  0  0  0  0  0  0  0  0
    1.4523   -4.5058    2.5547 H   0  0  0  0  0  0  0  0  0  0  0  0
    5.1947   -3.9846    2.7288 H   0  0  0  0  0  0  0  0  0  0  0  0
    4.6276   -2.4385    3.5301 H   0  0  0  0  0  0  0  0  0  0  0  0
    2.7389   -2.3808    4.8051 H   0  0  0  0  0  0  0  0  0  0  0  0
    1.3516   -2.3631    2.6807 H   0  0  0  0  0  0  0  0  0  0  0  0
    0.2997   -3.5468    3.4673 H   0  0  0  0  0  0  0  0  0  0  0  0
    0.5851   -0.6328    4.1370 H   0  0  0  0  0  0  0  0  0  0  0  0
    1.1326   -0.7438    7.3159 H   0  0  0  0  0  0  0  0  0  0  0  0
   -0.5726   -1.0392    7.7155 H   0  0  0  0  0  0  0  0  0  0  0  0
   -0.1441    0.1034    6.4434 H   0  0  0  0  0  0  0  0  0  0  0  0
    0.2936   -3.3655    7.4584 H   0  0  0  0  0  0  0  0  0  0  0  0
   -0.4932   -3.9661    6.0109 H   0  0  0  0  0  0  0  0  0  0  0  0
    2.4146   -3.5255    6.5689 H   0  0  0  0  0  0  0  0  0  0  0  0
    3.2829   -7.0432    1.9306 H   0  0  0  0  0  0  0  0  0  0  0  0
    3.5887   -5.7326    0.3763 H   0  0  0  0  0  0  0  0  0  0  0  0
    4.2352   -7.3433   -0.0361 H   0  0  0  0  0  0  0  0  0  0  0  0
    4.8739   -5.9024   -0.8209 H   0  0  0  0  0  0  0  0  0  0  0  0
    5.9922  -10.6336    2.8041 H   0  0  0  0  0  0  0  0  0  0  0  0
    4.3214  -10.8610    2.3525 H   0  0  0  0  0  0  0  0  0  0  0  0
    4.7752  -10.8401    4.0509 H   0  0  0  0  0  0  0  0  0  0  0  0
    3.0850   -9.0379    1.0833 H   0  0  0  0  0  0  0  0  0  0  0  0
    1.4364   -9.7878    1.3380 H   0  0  0  0  0  0  0  0  0  0  0  0
    0.3644  -11.4657    4.5941 H   0  0  0  0  0  0  0  0  0  0  0  0
    2.0378  -11.5144    4.0563 H   0  0  0  0  0  0  0  0  0  0  0  0
    0.7565  -11.3646    2.8921 H   0  0  0  0  0  0  0  0  0  0  0  0
   -1.0016   -9.2486    4.1004 H   0  0  0  0  0  0  0  0  0  0  0  0
   -0.4202   -9.3861    2.4583 H   0  0  0  0  0  0  0  0  0  0  0  0
   -0.2042   -7.8905    3.3351 H   0  0  0  0  0  0  0  0  0  0  0  0
  1  2  2  0
  1 42  1  0
  1 43  1  0
  2 11  1  0
  2  3  1  0
  3 28  1  0
  3  4  1  0
  3 44  1  1
  4  5  1  0
  4 45  1  0
  4 46  1  0
  5 28  1  0
  5  6  1  0
  5 47  1  1
  6  7  1  0
  7 39  1  0
  7  8  1  0
  7 48  1  1
  8  9  1  0
  8 10  1  0
  8 49  1  1
  9 50  1  0
 10 34  1  0
 10 11  1  0
 10 51  1  6
 11 12  1  1
 11 13  1  0
 12 52  1  0
 13 14  1  0
 13 53  1  0
 13 54  1  0
 28 14  1  6
 14 15  1  6
 14 16  1  0
 15 55  1  0
 16 17  1  6
 16 18  1  0
 16 29  1  0
 17 56  1  0
 18 19  2  0
 18 20  1  0
 19 57  1  0
 19 58  1  0
 20 27  1  0
 20 21  1  0
 20 59  1  1
 21 22  1  0
 21 60  1  0
 21 61  1  0
 22 24  1  0
 22 23  1  0
 22 62  1  1
 23 24  1  0
 24 25  1  1
 24 26  1  0
 25 63  1  0
 25 64  1  0
 25 65  1  0
 26 27  1  0
 26 66  1  0
 26 67  1  0
 27 28  1  0
 27 68  1  1
 29 30  1  0
 29 34  1  0
 29 69  1  6
 30 31  1  0
 31 32  1  0
 31 33  2  0
 32 70  1  0
 32 71  1  0
 32 72  1  0
 34 35  1  6
 34 37  1  0
 35 36  1  0
 36 73  1  0
 36 74  1  0
 36 75  1  0
 37 38  2  0
 37 39  1  0
 38 76  1  0
 38 77  1  0
 39 40  1  0
 39 41  1  0
 40 78  1  0
 40 79  1  0
 40 80  1  0
 41 81  1  0
 41 82  1  0
 41 83  1  0
M  END
>  <i_m_ct_stereo_status>  (172) 
1

>  <s_m_source_file>  (172) 
/var/tmp/pbs.5076255.sched01/tmpl63by5lx/41imve8rrw.sdf

>  <i_m_source_file_index>  (172) 
30

>  <i_lp_mmshare_version>  (172) 
48012

>  <i_f3d_flags>  (172) 
0

>  <s_epik_input>  (172) 
W0NIMl0xW0NAQEhdMk9bQ0BIXShbQ0BIXTNbT0hdKUMoW0NIM10pKFtDSDNdKUMoPVtDSDJdKVtDQF0oT1tDSDNdKShbQ0BIXTNbQ0BdNChbT0hdKUMoPVtDSDJdKVtDQEhdMVtDQF0yNTYpW0NASF0oT0MoPU8pW0NIM10pW0NAQF0oW09IXSkoQzUoW0NIMl00KVtPSF0pQyg9W0NIMl0pW0NAQEhdN1tDQEhdNltDSDJdW0NAQF04KFtDSDNdKVtDQEhdKE84KVtDSDJdNw==

>  <s_epik_cmdline>  (172) 
J2VwaWtfcHl0aG9uJywgJy1waHQnLCAnMi4wJywgJy1waCcsICc3LjAnLCAnLXRuJywgJzgnLCAnLW1hJywgJzIwMCcsICctaW1hZScsICc8aW5maWxlLm1hZT4nLCAnLW9tYWUnLCAnPG91dGZpbGUubWFlPic=

>  <r_lp_tautomer_probability>  (172) 
1

>  <r_epik_Ionization_Penalty>  (172) 
2.04489e-06

>  <r_epik_Ionization_Penalty_Charging>  (172) 
0

>  <r_epik_Ionization_Penalty_Neutral>  (172) 
2.04489e-06

>  <r_epik_State_Penalty>  (172) 
-0

>  <r_epik_Charging_Adjusted_Penalty>  (172) 
0

>  <i_epik_Tot_Q>  (172) 
0

>  <i_epik_Tot_abs_Q>  (172) 
0

>  <s_epik_Chemistry_Notes>  (172) 
This compound has an ester and may undergo hydrolysis at high or low pH.

>  <s_lp_Force_Field>  (172) 
OPLS3e

>  <r_lp_Energy>  (172) 
303.195

>  <b_lp_Chiralities_Consistent>  (172) 
1

>  <s_lp_Variant>  (172) 
48:0-1

>  <s_i_glide_gridfile>  (172) 
pfpi4k_grid

>  <i_i_glide_lignum>  (172) 
30

>  <i_i_glide_rotatable_bonds>  (172) 
7

>  <r_i_docking_score>  (172) 
-2.61531

>  <r_i_glide_ligand_efficiency>  (172) 
-0.063788

>  <r_i_glide_ligand_efficiency_sa>  (172) 
-0.219955

>  <r_i_glide_ligand_efficiency_ln>  (172) 
-0.554846

>  <r_i_glide_gscore>  (172) 
-2.61531

>  <r_i_glide_lipo>  (172) 
-0.352898

>  <r_i_glide_hbond>  (172) 
-0.16

>  <r_i_glide_metal>  (172) 
-0

>  <r_i_glide_rewards>  (172) 
-0.118726

>  <r_i_glide_evdw>  (172) 
-24.1034

>  <r_i_glide_ecoul>  (172) 
-5.61683

>  <r_i_glide_erotb>  (172) 
0.0640135

>  <r_i_glide_esite>  (172) 
0

>  <r_i_glide_emodel>  (172) 
-31.9533

>  <r_i_glide_energy>  (172) 
-29.7203

>  <r_i_glide_einternal>  (172) 
5.65558

>  <r_i_glide_intrahb_reward>  (172) 
-0

>  <i_i_glide_confnum>  (172) 
1

>  <i_i_glide_posenum>  (172) 
10

>  <r_i_glide_eff_state_penalty>  (172) 
0

>  <ligand_id>  (172) 
48

>  <original_smiles>  (172) 
C=C1C2CC3OC4C(O)C5C1(O)CC1(O)C(O)(C(=C)C6CC7OC7(C)CC6C321)C(OC(C)=O)C5(OC)C(=C)C4(C)C

>  <smiles>  (172) 
[H]OC1([H])C2([H])OC3([H])C([H])([H])C4([H])C(=C([H])[H])C5(O[H])C([H])([H])C6(O[H])C(O[H])(C(=C([H])[H])C7([H])C([H])([H])C8([H])OC8(C([H])([H])[H])C([H])([H])C7([H])C346)C([H])(OC(=O)C([H])([H])[H])C(OC([H])([H])[H])(C(=C([H])[H])C2(C([H])([H])[H])C([H])([H])[H])C15[H]

$$$$
48:0:1
     RDKit          3D

 83 90  0  0  1  0  0  0  0  0999 V2000
    3.1269   -4.4773    7.2277 C   0  0  0  0  0  0  0  0  0  0  0  0
    3.3250   -4.9502    5.9830 C   0  0  0  0  0  0  0  0  0  0  0  0
    3.3188   -3.9736    4.7875 C   0  0  2  0  0  0  0  0  0  0  0  0
    1.9672   -3.3213    4.5475 C   0  0  0  0  0  0  0  0  0  0  0  0
    1.7864   -4.2473    3.3625 C   0  0  2  0  0  0  0  0  0  0  0  0
    0.6384   -5.1942    3.6173 O   0  0  0  0  0  0  0  0  0  0  0  0
    0.5031   -6.5377    4.2567 C   0  0  2  0  0  0  0  0  0  0  0  0
    1.2546   -6.8670    5.5482 C   0  0  1  0  0  0  0  0  0  0  0  0
    0.4711   -7.6264    6.4469 O   0  0  0  0  0  0  0  0  0  0  0  0
    2.6880   -7.4977    5.3782 C   0  0  2  0  0  0  0  0  0  0  0  0
    3.7722   -6.4046    5.7245 C   0  0  2  0  0  0  0  0  0  0  0  0
    4.5537   -6.8542    6.8175 O   0  0  0  0  0  0  0  0  0  0  0  0
    4.6837   -6.2957    4.5884 C   0  0  0  0  0  0  0  0  0  0  0  0
    3.8722   -6.0121    3.2797 C   0  0  2  0  0  0  0  0  0  0  0  0
    2.6747   -6.3844    2.7430 O   0  0  0  0  0  0  0  0  0  0  0  0
    4.5109   -6.9595    2.2622 C   0  0  1  0  0  0  0  0  0  0  0  0
    4.0020   -7.2120    0.9402 O   0  0  0  0  0  0  0  0  0  0  0  0
    5.8014   -6.1687    2.0111 C   0  0  0  0  0  0  0  0  0  0  0  0
    7.0630   -6.5589    2.2159 C   0  0  0  0  0  0  0  0  0  0  0  0
    5.5112   -4.7031    1.5693 C   0  0  1  0  0  0  0  0  0  0  0  0
    5.2052   -4.5670    0.0643 C   0  0  0  0  0  0  0  0  0  0  0  0
    5.4608   -3.1273   -0.3501 C   0  0  1  0  0  0  0  0  0  0  0  0
    4.3584   -2.3179   -0.7493 O   0  0  0  0  0  0  0  0  0  0  0  0
    4.8786   -2.0968    0.5584 C   0  0  2  0  0  0  0  0  0  0  0  0
    5.5733   -0.7536    0.7919 C   0  0  0  0  0  0  0  0  0  0  0  0
    3.9605   -2.5547    1.6873 C   0  0  0  0  0  0  0  0  0  0  0  0
    4.4977   -3.8149    2.4418 C   0  0  1  0  0  0  0  0  0  0  0  0
    3.4070   -4.5645    3.3182 C   0  0  2  0  0  0  0  0  0  0  0  0
    4.2342   -8.4159    3.0300 C   0  0  1  0  0  0  0  0  0  0  0  0
    5.4042   -9.0943    3.5119 O   0  0  0  0  0  0  0  0  0  0  0  0
    6.1968   -9.8238    2.6957 C   0  0  0  0  0  0  0  0  0  0  0  0
    7.3730  -10.4410    3.4424 C   0  0  0  0  0  0  0  0  0  0  0  0
    6.1061   -9.8856    1.4618 O   0  0  0  0  0  0  0  0  0  0  0  0
    2.9419   -8.5709    4.1302 C   0  0  1  0  0  0  0  0  0  0  0  0
    3.3238   -9.7982    4.7811 O   0  0  0  0  0  0  0  0  0  0  0  0
    2.3735  -10.5989    5.4891 C   0  0  0  0  0  0  0  0  0  0  0  0
    1.6131   -8.8133    3.3121 C   0  0  0  0  0  0  0  0  0  0  0  0
    1.5511   -9.8816    2.4938 C   0  0  0  0  0  0  0  0  0  0  0  0
    0.3590   -7.8495    3.3687 C   0  0  0  0  0  0  0  0  0  0  0  0
   -0.8190   -8.6975    3.9263 C   0  0  0  0  0  0  0  0  0  0  0  0
   -0.1033   -7.4186    1.9489 C   0  0  0  0  0  0  0  0  0  0  0  0
    3.1941   -5.1258    8.0893 H   0  0  0  0  0  0  0  0  0  0  0  0
    2.8833   -3.4402    7.3974 H   0  0  0  0  0  0  0  0  0  0  0  0
    4.0623   -3.1997    4.9787 H   0  0  0  0  0  0  0  0  0  0  0  0
    1.2216   -3.4510    5.3384 H   0  0  0  0  0  0  0  0  0  0  0  0
    2.0624   -2.2778    4.2306 H   0  0  0  0  0  0  0  0  0  0  0  0
    1.4968   -3.6574    2.4970 H   0  0  0  0  0  0  0  0  0  0  0  0
   -0.5103   -6.3578    4.6110 H   0  0  0  0  0  0  0  0  0  0  0  0
    1.2226   -5.9491    6.1178 H   0  0  0  0  0  0  0  0  0  0  0  0
    0.3671   -8.5041    6.0924 H   0  0  0  0  0  0  0  0  0  0  0  0
    2.7465   -8.1231    6.2667 H   0  0  0  0  0  0  0  0  0  0  0  0
    4.8906   -7.7191    6.6040 H   0  0  0  0  0  0  0  0  0  0  0  0
    5.3774   -5.4696    4.7447 H   0  0  0  0  0  0  0  0  0  0  0  0
    5.4049   -7.1022    4.6012 H   0  0  0  0  0  0  0  0  0  0  0  0
    2.6552   -7.3200    2.5310 H   0  0  0  0  0  0  0  0  0  0  0  0
    4.4835   -7.9405    0.5774 H   0  0  0  0  0  0  0  0  0  0  0  0
    7.3318   -7.5305    2.5750 H   0  0  0  0  0  0  0  0  0  0  0  0
    7.8946   -5.8932    2.0255 H   0  0  0  0  0  0  0  0  0  0  0  0
    6.4724   -4.2018    1.6877 H   0  0  0  0  0  0  0  0  0  0  0  0
    5.8252   -5.2167   -0.5438 H   0  0  0  0  0  0  0  0  0  0  0  0
    4.1681   -4.8153   -0.1552 H   0  0  0  0  0  0  0  0  0  0  0  0
    6.4132   -2.9116   -0.8350 H   0  0  0  0  0  0  0  0  0  0  0  0
    6.2644   -0.8162    1.6303 H   0  0  0  0  0  0  0  0  0  0  0  0
    4.8497    0.0359    0.9735 H   0  0  0  0  0  0  0  0  0  0  0  0
    6.1433   -0.4889   -0.0964 H   0  0  0  0  0  0  0  0  0  0  0  0
    3.7731   -1.7277    2.3757 H   0  0  0  0  0  0  0  0  0  0  0  0
    3.0008   -2.7866    1.2135 H   0  0  0  0  0  0  0  0  0  0  0  0
    5.1906   -3.3718    3.1567 H   0  0  0  0  0  0  0  0  0  0  0  0
    3.9341   -9.0859    2.2241 H   0  0  0  0  0  0  0  0  0  0  0  0
    7.0226  -10.9848    4.3204 H   0  0  0  0  0  0  0  0  0  0  0  0
    8.0509   -9.6537    3.7787 H   0  0  0  0  0  0  0  0  0  0  0  0
    7.9366  -11.1265    2.8115 H   0  0  0  0  0  0  0  0  0  0  0  0
    2.9189  -11.3610    6.0485 H   0  0  0  0  0  0  0  0  0  0  0  0
    1.6947  -11.1314    4.8243 H   0  0  0  0  0  0  0  0  0  0  0  0
    1.7783  -10.0391    6.2065 H   0  0  0  0  0  0  0  0  0  0  0  0
    2.3705  -10.5850    2.4128 H   0  0  0  0  0  0  0  0  0  0  0  0
    0.6666  -10.1053    1.9168 H   0  0  0  0  0  0  0  0  0  0  0  0
   -1.7039   -8.0983    4.1515 H   0  0  0  0  0  0  0  0  0  0  0  0
   -0.5461   -9.2299    4.8369 H   0  0  0  0  0  0  0  0  0  0  0  0
   -1.1418   -9.4706    3.2283 H   0  0  0  0  0  0  0  0  0  0  0  0
   -0.9462   -6.7311    2.0042 H   0  0  0  0  0  0  0  0  0  0  0  0
   -0.4409   -8.2544    1.3417 H   0  0  0  0  0  0  0  0  0  0  0  0
    0.6848   -6.9302    1.3788 H   0  0  0  0  0  0  0  0  0  0  0  0
  1  2  2  0
  1 42  1  0
  1 43  1  0
  2 11  1  0
  2  3  1  0
  3 28  1  0
  3  4  1  0
  3 44  1  1
  4  5  1  0
  4 45  1  0
  4 46  1  0
  5 28  1  0
  5  6  1  0
  5 47  1  6
  6  7  1  0
  7 39  1  0
  7  8  1  0
  7 48  1  1
  8  9  1  0
  8 10  1  0
  8 49  1  1
  9 50  1  0
 10 34  1  0
 10 11  1  0
 10 51  1  1
 11 12  1  1
 11 13  1  0
 12 52  1  0
 13 14  1  0
 13 53  1  0
 13 54  1  0
 28 14  1  1
 14 15  1  1
 14 16  1  0
 15 55  1  0
 16 17  1  6
 16 18  1  0
 16 29  1  0
 17 56  1  0
 18 19  2  0
 18 20  1  0
 19 57  1  0
 19 58  1  0
 20 27  1  0
 20 21  1  0
 20 59  1  6
 21 22  1  0
 21 60  1  0
 21 61  1  0
 22 24  1  0
 22 23  1  0
 22 62  1  6
 23 24  1  0
 24 25  1  1
 24 26  1  0
 25 63  1  0
 25 64  1  0
 25 65  1  0
 26 27  1  0
 26 66  1  0
 26 67  1  0
 27 28  1  0
 27 68  1  1
 29 30  1  0
 29 34  1  0
 29 69  1  6
 30 31  1  0
 31 32  1  0
 31 33  2  0
 32 70  1  0
 32 71  1  0
 32 72  1  0
 34 35  1  1
 34 37  1  0
 35 36  1  0
 36 73  1  0
 36 74  1  0
 36 75  1  0
 37 38  2  0
 37 39  1  0
 38 76  1  0
 38 77  1  0
 39 40  1  0
 39 41  1  0
 40 78  1  0
 40 79  1  0
 40 80  1  0
 41 81  1  0
 41 82  1  0
 41 83  1  0
M  END
>  <i_m_ct_stereo_status>  (173) 
1

>  <s_m_source_file>  (173) 
/var/tmp/pbs.5076255.sched01/tmpl63by5lx/41imve8rrw.sdf

>  <i_m_source_file_index>  (173) 
30

>  <i_lp_mmshare_version>  (173) 
48012

>  <i_f3d_flags>  (173) 
0

>  <s_epik_input>  (173) 
W0NIMl0xW0NAQEhdMk9bQ0BIXShbQ0BIXTNbT0hdKUMoW0NIM10pKFtDSDNdKUMoPVtDSDJdKVtDQF0oT1tDSDNdKShbQ0BIXTNbQ0BdNChbT0hdKUMoPVtDSDJdKVtDQEhdMVtDQF0yNTYpW0NASF0oT0MoPU8pW0NIM10pW0NAQF0oW09IXSkoQzUoW0NIMl00KVtPSF0pQyg9W0NIMl0pW0NAQEhdN1tDQEhdNltDSDJdW0NAQF04KFtDSDNdKVtDQEhdKE84KVtDSDJdNw==

>  <s_epik_cmdline>  (173) 
J2VwaWtfcHl0aG9uJywgJy1waHQnLCAnMi4wJywgJy1waCcsICc3LjAnLCAnLXRuJywgJzgnLCAnLW1hJywgJzIwMCcsICctaW1hZScsICc8aW5maWxlLm1hZT4nLCAnLW9tYWUnLCAnPG91dGZpbGUubWFlPic=

>  <r_lp_tautomer_probability>  (173) 
1

>  <r_epik_Ionization_Penalty>  (173) 
2.04489e-06

>  <r_epik_Ionization_Penalty_Charging>  (173) 
0

>  <r_epik_Ionization_Penalty_Neutral>  (173) 
2.04489e-06

>  <r_epik_State_Penalty>  (173) 
-0

>  <r_epik_Charging_Adjusted_Penalty>  (173) 
0

>  <i_epik_Tot_Q>  (173) 
0

>  <i_epik_Tot_abs_Q>  (173) 
0

>  <s_epik_Chemistry_Notes>  (173) 
This compound has an ester and may undergo hydrolysis at high or low pH.

>  <s_lp_Force_Field>  (173) 
OPLS3e

>  <r_lp_Energy>  (173) 
303.195

>  <b_lp_Chiralities_Consistent>  (173) 
1

>  <s_lp_Variant>  (173) 
48:0-1

>  <s_i_glide_gridfile>  (173) 
pfpi4k_grid

>  <i_i_glide_lignum>  (173) 
30

>  <i_i_glide_rotatable_bonds>  (173) 
7

>  <r_i_docking_score>  (173) 
-2.06444

>  <r_i_glide_ligand_efficiency>  (173) 
-0.0503523

>  <r_i_glide_ligand_efficiency_sa>  (173) 
-0.173626

>  <r_i_glide_ligand_efficiency_ln>  (173) 
-0.437979

>  <r_i_glide_gscore>  (173) 
-2.06444

>  <r_i_glide_lipo>  (173) 
-0.513515

>  <r_i_glide_hbond>  (173) 
-0.00211865

>  <r_i_glide_metal>  (173) 
-0

>  <r_i_glide_rewards>  (173) 
0

>  <r_i_glide_evdw>  (173) 
-28.444

>  <r_i_glide_ecoul>  (173) 
-1.18904

>  <r_i_glide_erotb>  (173) 
0.0640135

>  <r_i_glide_esite>  (173) 
-0.0122673

>  <r_i_glide_emodel>  (173) 
-32.6398

>  <r_i_glide_energy>  (173) 
-29.6331

>  <r_i_glide_einternal>  (173) 
0.725249

>  <r_i_glide_intrahb_reward>  (173) 
-0

>  <i_i_glide_confnum>  (173) 
1

>  <i_i_glide_posenum>  (173) 
1

>  <r_i_glide_eff_state_penalty>  (173) 
0

>  <ligand_id>  (173) 
48

>  <original_smiles>  (173) 
C=C1C2CC3OC4C(O)C5C1(O)CC1(O)C(O)(C(=C)C6CC7OC7(C)CC6C321)C(OC(C)=O)C5(OC)C(=C)C4(C)C

>  <smiles>  (173) 
[H]OC1([H])C2([H])OC3([H])C([H])([H])C4([H])C(=C([H])[H])C5(O[H])C([H])([H])C6(O[H])C(O[H])(C(=C([H])[H])C7([H])C([H])([H])C8([H])OC8(C([H])([H])[H])C([H])([H])C7([H])C346)C([H])(OC(=O)C([H])([H])[H])C(OC([H])([H])[H])(C(=C([H])[H])C2(C([H])([H])[H])C([H])([H])[H])C15[H]

$$$$
48:0:2
     RDKit          3D

 83 90  0  0  1  0  0  0  0  0999 V2000
    3.1056   -4.4769    7.2381 C   0  0  0  0  0  0  0  0  0  0  0  0
    3.2979   -4.9617    5.9819 C   0  0  0  0  0  0  0  0  0  0  0  0
    3.3099   -3.9833    4.7923 C   0  0  2  0  0  0  0  0  0  0  0  0
    1.9583   -3.3233    4.5467 C   0  0  0  0  0  0  0  0  0  0  0  0
    1.7669   -4.2470    3.3562 C   0  0  2  0  0  0  0  0  0  0  0  0
    0.6066   -5.1822    3.6241 O   0  0  0  0  0  0  0  0  0  0  0  0
    0.4601   -6.5290    4.2601 C   0  0  2  0  0  0  0  0  0  0  0  0
    1.2129   -6.8668    5.5567 C   0  0  1  0  0  0  0  0  0  0  0  0
    0.4303   -7.6262    6.4548 O   0  0  0  0  0  0  0  0  0  0  0  0
    2.6443   -7.5077    5.3939 C   0  0  2  0  0  0  0  0  0  0  0  0
    3.7338   -6.4158    5.7417 C   0  0  2  0  0  0  0  0  0  0  0  0
    4.5204   -6.8742    6.8231 O   0  0  0  0  0  0  0  0  0  0  0  0
    4.6626   -6.3136    4.6123 C   0  0  0  0  0  0  0  0  0  0  0  0
    3.8486   -6.0156    3.3105 C   0  0  2  0  0  0  0  0  0  0  0  0
    2.6443   -6.3859    2.7919 O   0  0  0  0  0  0  0  0  0  0  0  0
    4.4529   -6.9696    2.2799 C   0  0  1  0  0  0  0  0  0  0  0  0
    3.9046   -7.1811    0.9583 O   0  0  0  0  0  0  0  0  0  0  0  0
    5.7658   -6.2093    2.0216 C   0  0  0  0  0  0  0  0  0  0  0  0
    7.0189   -6.6103    2.2307 C   0  0  0  0  0  0  0  0  0  0  0  0
    5.4962   -4.7411    1.5783 C   0  0  1  0  0  0  0  0  0  0  0  0
    5.2025   -4.6063    0.0680 C   0  0  0  0  0  0  0  0  0  0  0  0
    5.4620   -3.1700   -0.3500 C   0  0  1  0  0  0  0  0  0  0  0  0
    4.3656   -2.3545   -0.7511 O   0  0  0  0  0  0  0  0  0  0  0  0
    4.8938   -2.1388    0.5493 C   0  0  2  0  0  0  0  0  0  0  0  0
    5.5903   -0.7997    0.7890 C   0  0  0  0  0  0  0  0  0  0  0  0
    3.9661   -2.5770    1.6830 C   0  0  0  0  0  0  0  0  0  0  0  0
    4.4908   -3.8450    2.4427 C   0  0  1  0  0  0  0  0  0  0  0  0
    3.3881   -4.5750    3.3223 C   0  0  2  0  0  0  0  0  0  0  0  0
    4.1720   -8.4237    3.0396 C   0  0  1  0  0  0  0  0  0  0  0  0
    5.3384   -9.1369    3.4801 O   0  0  0  0  0  0  0  0  0  0  0  0
    6.1284   -9.9114    2.6751 C   0  0  0  0  0  0  0  0  0  0  0  0
    5.8711   -9.8362    1.1583 C   0  0  0  0  0  0  0  0  0  0  0  0
    7.0793  -10.5476    3.1074 O   0  0  0  0  0  0  0  0  0  0  0  0
    2.8885   -8.5797    4.1473 C   0  0  1  0  0  0  0  0  0  0  0  0
    3.2607   -9.8096    4.7960 O   0  0  0  0  0  0  0  0  0  0  0  0
    2.3070  -10.6092    5.4991 C   0  0  0  0  0  0  0  0  0  0  0  0
    1.5599   -8.8226    3.3295 C   0  0  0  0  0  0  0  0  0  0  0  0
    1.4980   -9.8863    2.5108 C   0  0  0  0  0  0  0  0  0  0  0  0
    0.3169   -7.8449    3.3742 C   0  0  0  0  0  0  0  0  0  0  0  0
   -0.8665   -8.6857    3.9230 C   0  0  0  0  0  0  0  0  0  0  0  0
   -0.1387   -7.4171    1.9475 C   0  0  0  0  0  0  0  0  0  0  0  0
    3.1661   -5.1266    8.0917 H   0  0  0  0  0  0  0  0  0  0  0  0
    2.8729   -3.4370    7.3913 H   0  0  0  0  0  0  0  0  0  0  0  0
    4.0574   -3.2164    4.9796 H   0  0  0  0  0  0  0  0  0  0  0  0
    1.2086   -3.4557    5.3409 H   0  0  0  0  0  0  0  0  0  0  0  0
    2.0641   -2.2806    4.2215 H   0  0  0  0  0  0  0  0  0  0  0  0
    1.4916   -3.6574    2.4894 H   0  0  0  0  0  0  0  0  0  0  0  0
   -0.5512   -6.3513    4.6143 H   0  0  0  0  0  0  0  0  0  0  0  0
    1.1853   -5.9433    6.1234 H   0  0  0  0  0  0  0  0  0  0  0  0
    0.3256   -8.5065    6.0826 H   0  0  0  0  0  0  0  0  0  0  0  0
    2.7003   -8.1357    6.2844 H   0  0  0  0  0  0  0  0  0  0  0  0
    3.9213   -7.1737    7.4982 H   0  0  0  0  0  0  0  0  0  0  0  0
    5.3591   -5.4903    4.7652 H   0  0  0  0  0  0  0  0  0  0  0  0
    5.3643   -7.1318    4.6258 H   0  0  0  0  0  0  0  0  0  0  0  0
    2.6337   -7.3095    2.5192 H   0  0  0  0  0  0  0  0  0  0  0  0
    4.3644   -7.8831    0.5337 H   0  0  0  0  0  0  0  0  0  0  0  0
    7.2771   -7.5864    2.5990 H   0  0  0  0  0  0  0  0  0  0  0  0
    7.8596   -5.9527    2.0281 H   0  0  0  0  0  0  0  0  0  0  0  0
    6.4611   -4.2500    1.6902 H   0  0  0  0  0  0  0  0  0  0  0  0
    5.8191   -5.2585   -0.5375 H   0  0  0  0  0  0  0  0  0  0  0  0
    4.1618   -4.8508   -0.1631 H   0  0  0  0  0  0  0  0  0  0  0  0
    6.4222   -2.9632   -0.8355 H   0  0  0  0  0  0  0  0  0  0  0  0
    6.2800   -0.8600    1.6294 H   0  0  0  0  0  0  0  0  0  0  0  0
    4.8685   -0.0046    0.9683 H   0  0  0  0  0  0  0  0  0  0  0  0
    6.1594   -0.5396   -0.0999 H   0  0  0  0  0  0  0  0  0  0  0  0
    3.7872   -1.7446    2.3706 H   0  0  0  0  0  0  0  0  0  0  0  0
    3.0027   -2.8065    1.2094 H   0  0  0  0  0  0  0  0  0  0  0  0
    5.1878   -3.3979    3.1541 H   0  0  0  0  0  0  0  0  0  0  0  0
    3.7937   -9.0707    2.2522 H   0  0  0  0  0  0  0  0  0  0  0  0
    5.9132   -8.7992    0.8309 H   0  0  0  0  0  0  0  0  0  0  0  0
    4.9037  -10.2410    0.8817 H   0  0  0  0  0  0  0  0  0  0  0  0
    6.6389  -10.3650    0.5886 H   0  0  0  0  0  0  0  0  0  0  0  0
    2.8547  -11.3752    6.0542 H   0  0  0  0  0  0  0  0  0  0  0  0
    1.6282  -11.1371    4.8302 H   0  0  0  0  0  0  0  0  0  0  0  0
    1.7204  -10.0468    6.2127 H   0  0  0  0  0  0  0  0  0  0  0  0
    2.3118  -10.5986    2.4326 H   0  0  0  0  0  0  0  0  0  0  0  0
    0.6165  -10.1025    1.9250 H   0  0  0  0  0  0  0  0  0  0  0  0
   -1.7426   -8.0814    4.1492 H   0  0  0  0  0  0  0  0  0  0  0  0
   -0.5891   -9.2196    4.8351 H   0  0  0  0  0  0  0  0  0  0  0  0
   -1.1906   -9.4556    3.2242 H   0  0  0  0  0  0  0  0  0  0  0  0
   -0.9777   -6.7274    2.0022 H   0  0  0  0  0  0  0  0  0  0  0  0
   -0.4814   -8.2544    1.3427 H   0  0  0  0  0  0  0  0  0  0  0  0
    0.6581   -6.9346    1.3771 H   0  0  0  0  0  0  0  0  0  0  0  0
  1  2  2  0
  1 42  1  0
  1 43  1  0
  2 11  1  0
  2  3  1  0
  3 28  1  0
  3  4  1  0
  3 44  1  1
  4  5  1  0
  4 45  1  0
  4 46  1  0
  5 28  1  0
  5  6  1  0
  5 47  1  6
  6  7  1  0
  7 39  1  0
  7  8  1  0
  7 48  1  1
  8  9  1  0
  8 10  1  0
  8 49  1  1
  9 50  1  0
 10 34  1  0
 10 11  1  0
 10 51  1  1
 11 12  1  1
 11 13  1  0
 12 52  1  0
 13 14  1  0
 13 53  1  0
 13 54  1  0
 28 14  1  1
 14 15  1  1
 14 16  1  0
 15 55  1  0
 16 17  1  6
 16 18  1  0
 16 29  1  0
 17 56  1  0
 18 19  2  0
 18 20  1  0
 19 57  1  0
 19 58  1  0
 20 27  1  0
 20 21  1  0
 20 59  1  6
 21 22  1  0
 21 60  1  0
 21 61  1  0
 22 24  1  0
 22 23  1  0
 22 62  1  6
 23 24  1  0
 24 25  1  1
 24 26  1  0
 25 63  1  0
 25 64  1  0
 25 65  1  0
 26 27  1  0
 26 66  1  0
 26 67  1  0
 27 28  1  0
 27 68  1  1
 29 30  1  0
 29 34  1  0
 29 69  1  6
 30 31  1  0
 31 32  1  0
 31 33  2  0
 32 70  1  0
 32 71  1  0
 32 72  1  0
 34 35  1  1
 34 37  1  0
 35 36  1  0
 36 73  1  0
 36 74  1  0
 36 75  1  0
 37 38  2  0
 37 39  1  0
 38 76  1  0
 38 77  1  0
 39 40  1  0
 39 41  1  0
 40 78  1  0
 40 79  1  0
 40 80  1  0
 41 81  1  0
 41 82  1  0
 41 83  1  0
M  END
>  <i_m_ct_stereo_status>  (174) 
1

>  <s_m_source_file>  (174) 
/var/tmp/pbs.5076255.sched01/tmpl63by5lx/41imve8rrw.sdf

>  <i_m_source_file_index>  (174) 
30

>  <i_lp_mmshare_version>  (174) 
48012

>  <i_f3d_flags>  (174) 
0

>  <s_epik_input>  (174) 
W0NIMl0xW0NAQEhdMk9bQ0BIXShbQ0BIXTNbT0hdKUMoW0NIM10pKFtDSDNdKUMoPVtDSDJdKVtDQF0oT1tDSDNdKShbQ0BIXTNbQ0BdNChbT0hdKUMoPVtDSDJdKVtDQEhdMVtDQF0yNTYpW0NASF0oT0MoPU8pW0NIM10pW0NAQF0oW09IXSkoQzUoW0NIMl00KVtPSF0pQyg9W0NIMl0pW0NAQEhdN1tDQEhdNltDSDJdW0NAQF04KFtDSDNdKVtDQEhdKE84KVtDSDJdNw==

>  <s_epik_cmdline>  (174) 
J2VwaWtfcHl0aG9uJywgJy1waHQnLCAnMi4wJywgJy1waCcsICc3LjAnLCAnLXRuJywgJzgnLCAnLW1hJywgJzIwMCcsICctaW1hZScsICc8aW5maWxlLm1hZT4nLCAnLW9tYWUnLCAnPG91dGZpbGUubWFlPic=

>  <r_lp_tautomer_probability>  (174) 
1

>  <r_epik_Ionization_Penalty>  (174) 
2.04489e-06

>  <r_epik_Ionization_Penalty_Charging>  (174) 
0

>  <r_epik_Ionization_Penalty_Neutral>  (174) 
2.04489e-06

>  <r_epik_State_Penalty>  (174) 
-0

>  <r_epik_Charging_Adjusted_Penalty>  (174) 
0

>  <i_epik_Tot_Q>  (174) 
0

>  <i_epik_Tot_abs_Q>  (174) 
0

>  <s_epik_Chemistry_Notes>  (174) 
This compound has an ester and may undergo hydrolysis at high or low pH.

>  <s_lp_Force_Field>  (174) 
OPLS3e

>  <r_lp_Energy>  (174) 
303.195

>  <b_lp_Chiralities_Consistent>  (174) 
1

>  <s_lp_Variant>  (174) 
48:0-1

>  <s_i_glide_gridfile>  (174) 
pfpi4k_grid

>  <i_i_glide_lignum>  (174) 
30

>  <i_i_glide_rotatable_bonds>  (174) 
7

>  <r_i_docking_score>  (174) 
-2.06417

>  <r_i_glide_ligand_efficiency>  (174) 
-0.0503456

>  <r_i_glide_ligand_efficiency_sa>  (174) 
-0.173603

>  <r_i_glide_ligand_efficiency_ln>  (174) 
-0.43792

>  <r_i_glide_gscore>  (174) 
-2.06417

>  <r_i_glide_lipo>  (174) 
-0.498927

>  <r_i_glide_hbond>  (174) 
-0.00334333

>  <r_i_glide_metal>  (174) 
-0

>  <r_i_glide_rewards>  (174) 
0

>  <r_i_glide_evdw>  (174) 
-28.2098

>  <r_i_glide_ecoul>  (174) 
-1.32783

>  <r_i_glide_erotb>  (174) 
0.0640135

>  <r_i_glide_esite>  (174) 
-0.0162494

>  <r_i_glide_emodel>  (174) 
-30.1716

>  <r_i_glide_energy>  (174) 
-29.5376

>  <r_i_glide_einternal>  (174) 
5.46312

>  <r_i_glide_intrahb_reward>  (174) 
-0

>  <i_i_glide_confnum>  (174) 
3

>  <i_i_glide_posenum>  (174) 
19

>  <r_i_glide_eff_state_penalty>  (174) 
0

>  <ligand_id>  (174) 
48

>  <original_smiles>  (174) 
C=C1C2CC3OC4C(O)C5C1(O)CC1(O)C(O)(C(=C)C6CC7OC7(C)CC6C321)C(OC(C)=O)C5(OC)C(=C)C4(C)C

>  <smiles>  (174) 
[H]OC1([H])C2([H])OC3([H])C([H])([H])C4([H])C(=C([H])[H])C5(O[H])C([H])([H])C6(O[H])C(O[H])(C(=C([H])[H])C7([H])C([H])([H])C8([H])OC8(C([H])([H])[H])C([H])([H])C7([H])C346)C([H])(OC(=O)C([H])([H])[H])C(OC([H])([H])[H])(C(=C([H])[H])C2(C([H])([H])[H])C([H])([H])[H])C15[H]

$$$$
49:0:0
     RDKit          3D

 37 40  0  0  1  0  0  0  0  0999 V2000
    3.9960   -0.3849   -4.7022 C   0  0  0  0  0  0  0  0  0  0  0  0
    4.0241   -1.3491   -3.7318 C   0  0  0  0  0  0  0  0  0  0  0  0
    3.0451   -2.5043   -3.6921 C   0  0  1  0  0  0  0  0  0  0  0  0
    3.8246   -3.7710   -4.0577 C   0  0  0  0  0  0  0  0  0  0  0  0
    4.9659   -4.0356   -3.0365 C   0  0  0  0  0  0  0  0  0  0  0  0
    5.0851   -2.9023   -1.9989 C   0  0  1  0  0  0  0  0  0  0  0  0
    6.2800   -3.2496   -1.0803 C   0  0  0  0  0  0  0  0  0  0  0  0
    4.9970   -1.4364   -2.5406 C   0  0  2  0  0  0  0  0  0  0  0  0
    4.2862   -1.0892   -1.2359 C   0  0  0  0  0  0  0  0  0  0  0  0
    3.7555   -2.5250   -1.3088 C   0  0  2  0  0  0  0  0  0  0  0  0
    3.3557   -3.2910   -0.0530 C   0  0  1  0  0  0  0  0  0  0  0  0
    3.4759   -2.4875    1.2631 C   0  0  0  0  0  0  0  0  0  0  0  0
    1.9143   -3.6147   -0.3161 C   0  0  0  0  0  0  0  0  0  0  0  0
    1.6636   -3.6218   -1.8389 C   0  0  0  0  0  0  0  0  0  0  0  0
    2.5768   -2.5588   -2.2474 N   0  0  2  0  0  0  0  0  0  0  0  0
    4.6812    0.4323   -4.7265 H   0  0  0  0  0  0  0  0  0  0  0  0
    3.2731   -0.4148   -5.5094 H   0  0  0  0  0  0  0  0  0  0  0  0
    2.1999   -2.3148   -4.3525 H   0  0  0  0  0  0  0  0  0  0  0  0
    3.1564   -4.6243   -4.1675 H   0  0  0  0  0  0  0  0  0  0  0  0
    4.2855   -3.6725   -5.0407 H   0  0  0  0  0  0  0  0  0  0  0  0
    4.7938   -4.9865   -2.5306 H   0  0  0  0  0  0  0  0  0  0  0  0
    5.8931   -4.1318   -3.5768 H   0  0  0  0  0  0  0  0  0  0  0  0
    6.4065   -2.5226   -0.2715 H   0  0  0  0  0  0  0  0  0  0  0  0
    7.2128   -3.2821   -1.6406 H   0  0  0  0  0  0  0  0  0  0  0  0
    6.1432   -4.2238   -0.5996 H   0  0  0  0  0  0  0  0  0  0  0  0
    5.8863   -0.8499   -2.5644 H   0  0  0  0  0  0  0  0  0  0  0  0
    4.9848   -0.8762   -0.4152 H   0  0  0  0  0  0  0  0  0  0  0  0
    3.5870   -0.2782   -1.3778 H   0  0  0  0  0  0  0  0  0  0  0  0
    3.9047   -4.2322    0.0247 H   0  0  0  0  0  0  0  0  0  0  0  0
    2.9282   -1.5348    1.2357 H   0  0  0  0  0  0  0  0  0  0  0  0
    4.5141   -2.2646    1.4701 H   0  0  0  0  0  0  0  0  0  0  0  0
    3.0735   -3.0562    2.1062 H   0  0  0  0  0  0  0  0  0  0  0  0
    1.5769   -4.5407    0.1238 H   0  0  0  0  0  0  0  0  0  0  0  0
    1.4291   -2.7714    0.1623 H   0  0  0  0  0  0  0  0  0  0  0  0
    1.8190   -4.6203   -2.2157 H   0  0  0  0  0  0  0  0  0  0  0  0
    0.6312   -3.3742   -2.1346 H   0  0  0  0  0  0  0  0  0  0  0  0
    2.0793   -1.6985   -2.0786 H   0  0  0  0  0  0  0  0  0  0  0  0
  1  2  2  0
  1 16  1  0
  1 17  1  0
  2  8  1  0
  2  3  1  0
  3 15  1  0
  3  4  1  0
  3 18  1  6
  4  5  1  0
  4 19  1  0
  4 20  1  0
  5  6  1  0
  5 21  1  0
  5 22  1  0
  6 10  1  0
  6  7  1  1
  6  8  1  0
  7 23  1  0
  7 24  1  0
  7 25  1  0
  8  9  1  0
  8 26  1  6
 10  9  1  1
  9 27  1  0
  9 28  1  0
 10 15  1  0
 10 11  1  0
 11 12  1  0
 11 13  1  0
 11 29  1  1
 12 30  1  0
 12 31  1  0
 12 32  1  0
 13 14  1  0
 13 33  1  0
 13 34  1  0
 14 15  1  0
 14 35  1  0
 14 36  1  0
 15 37  1  1
M  CHG  1  15   1
M  END
>  <i_m_ct_stereo_status>  (175) 
1

>  <s_m_source_file>  (175) 
/var/tmp/pbs.5076255.sched01/tmpl63by5lx/41imve8rrw.sdf

>  <i_m_source_file_index>  (175) 
32

>  <i_lp_mmshare_version>  (175) 
48012

>  <i_f3d_flags>  (175) 
0

>  <s_epik_input>  (175) 
W0NIM11bQ0BAXTEoW0NAXTIzNClbQ0BIXShbQ0gyXTIpQyg9W0NIMl0pW0NAQEhdKFtDSDJdW0NIMl0xKU40W0NIMl1bQ0gyXVtDQEBIXTNbQ0gzXQ==

>  <s_epik_cmdline>  (175) 
J2VwaWtfcHl0aG9uJywgJy1waHQnLCAnMi4wJywgJy1waCcsICc3LjAnLCAnLXRuJywgJzgnLCAnLW1hJywgJzIwMCcsICctaW1hZScsICc8aW5maWxlLm1hZT4nLCAnLW9tYWUnLCAnPG91dGZpbGUubWFlPic=

>  <r_lp_tautomer_probability>  (175) 
1

>  <r_epik_Ionization_Penalty>  (175) 
9.2182e-05

>  <r_epik_Ionization_Penalty_Charging>  (175) 
9.2182e-05

>  <r_epik_Ionization_Penalty_Neutral>  (175) 
0

>  <r_epik_State_Penalty>  (175) 
-0

>  <r_epik_Charging_Adjusted_Penalty>  (175) 
9.2182e-05

>  <i_epik_Tot_Q>  (175) 
1

>  <i_epik_Tot_abs_Q>  (175) 
1

>  <s_lp_Force_Field>  (175) 
OPLS3e

>  <r_lp_Energy>  (175) 
47.4182

>  <b_lp_Chiralities_Consistent>  (175) 
1

>  <s_lp_Variant>  (175) 
49:0-1

>  <s_i_glide_gridfile>  (175) 
pfpi4k_grid

>  <i_i_glide_lignum>  (175) 
32

>  <i_i_glide_rotatable_bonds>  (175) 
0

>  <r_i_docking_score>  (175) 
-3.82138

>  <r_i_glide_ligand_efficiency>  (175) 
-0.254759

>  <r_i_glide_ligand_efficiency_sa>  (175) 
-0.628289

>  <r_i_glide_ligand_efficiency_ln>  (175) 
-1.03056

>  <r_i_glide_gscore>  (175) 
-3.82138

>  <r_i_glide_lipo>  (175) 
-0.88524

>  <r_i_glide_hbond>  (175) 
-0.155294

>  <r_i_glide_metal>  (175) 
-0

>  <r_i_glide_rewards>  (175) 
-2.01592

>  <r_i_glide_evdw>  (175) 
-0.513577

>  <r_i_glide_ecoul>  (175) 
-4.60043

>  <r_i_glide_erotb>  (175) 
0

>  <r_i_glide_esite>  (175) 
-0.0491787

>  <r_i_glide_emodel>  (175) 
-7.84031

>  <r_i_glide_energy>  (175) 
-5.11401

>  <r_i_glide_einternal>  (175) 
0

>  <r_i_glide_intrahb_reward>  (175) 
-0

>  <i_i_glide_confnum>  (175) 
1

>  <i_i_glide_posenum>  (175) 
10

>  <r_i_glide_eff_state_penalty>  (175) 
0

>  <ligand_id>  (175) 
49

>  <original_smiles>  (175) 
C=C1C2CCC3(C)C1CC31C(C)CCN21

>  <smiles>  (175) 
[H]C([H])=C1C2([H])C([H])([H])C34C([H])(C([H])([H])[H])C([H])([H])C([H])([H])[N+]3([H])C1([H])C([H])([H])C([H])([H])C24C([H])([H])[H]

$$$$
49:0:1
     RDKit          3D

 37 40  0  0  1  0  0  0  0  0999 V2000
    2.8880   -4.0029    1.6925 C   0  0  0  0  0  0  0  0  0  0  0  0
    3.4934   -3.5206    0.5976 C   0  0  0  0  0  0  0  0  0  0  0  0
    4.2679   -2.2151    0.5132 C   0  0  1  0  0  0  0  0  0  0  0  0
    5.7582   -2.5912    0.3720 C   0  0  0  0  0  0  0  0  0  0  0  0
    5.9722   -3.3889   -0.9340 C   0  0  0  0  0  0  0  0  0  0  0  0
    4.6469   -3.6668   -1.6670 C   0  0  1  0  0  0  0  0  0  0  0  0
    5.0091   -4.4064   -2.9295 C   0  0  0  0  0  0  0  0  0  0  0  0
    3.4810   -4.1947   -0.7645 C   0  0  2  0  0  0  0  0  0  0  0  0
    2.5201   -3.4591   -1.7080 C   0  0  0  0  0  0  0  0  0  0  0  0
    3.7017   -2.4610   -1.8945 C   0  0  2  0  0  0  0  0  0  0  0  0
    3.9264   -1.6352   -3.1522 C   0  0  1  0  0  0  0  0  0  0  0  0
    2.8796   -1.8481   -4.2627 C   0  0  0  0  0  0  0  0  0  0  0  0
    4.0015   -0.1914   -2.6434 C   0  0  0  0  0  0  0  0  0  0  0  0
    4.4559   -0.3207   -1.1756 C   0  0  0  0  0  0  0  0  0  0  0  0
    3.7804   -1.5305   -0.7265 N   0  0  2  0  0  0  0  0  0  0  0  0
    2.3578   -4.9487    1.6464 H   0  0  0  0  0  0  0  0  0  0  0  0
    2.9183   -3.4890    2.6442 H   0  0  0  0  0  0  0  0  0  0  0  0
    4.1008   -1.6046    1.3931 H   0  0  0  0  0  0  0  0  0  0  0  0
    6.4080   -1.7135    0.3912 H   0  0  0  0  0  0  0  0  0  0  0  0
    6.0552   -3.2002    1.2263 H   0  0  0  0  0  0  0  0  0  0  0  0
    6.6624   -2.8512   -1.5848 H   0  0  0  0  0  0  0  0  0  0  0  0
    6.4700   -4.3260   -0.6848 H   0  0  0  0  0  0  0  0  0  0  0  0
    4.1768   -4.5225   -3.6281 H   0  0  0  0  0  0  0  0  0  0  0  0
    5.1921   -5.3923   -2.5168 H   0  0  0  0  0  0  0  0  0  0  0  0
    5.8648   -3.9536   -3.4700 H   0  0  0  0  0  0  0  0  0  0  0  0
    3.3460   -5.2765   -0.7306 H   0  0  0  0  0  0  0  0  0  0  0  0
    2.2539   -3.9898   -2.6168 H   0  0  0  0  0  0  0  0  0  0  0  0
    1.6216   -3.0765   -1.2137 H   0  0  0  0  0  0  0  0  0  0  0  0
    4.8996   -1.8688   -3.5841 H   0  0  0  0  0  0  0  0  0  0  0  0
    1.8652   -1.7217   -3.8932 H   0  0  0  0  0  0  0  0  0  0  0  0
    2.9099   -2.8697   -4.6454 H   0  0  0  0  0  0  0  0  0  0  0  0
    3.0455   -1.1448   -5.0804 H   0  0  0  0  0  0  0  0  0  0  0  0
    4.6092    0.4480   -3.2575 H   0  0  0  0  0  0  0  0  0  0  0  0
    2.9671    0.1254   -2.7394 H   0  0  0  0  0  0  0  0  0  0  0  0
    5.5520   -0.4809   -1.1893 H   0  0  0  0  0  0  0  0  0  0  0  0
    4.2320    0.5273   -0.4931 H   0  0  0  0  0  0  0  0  0  0  0  0
    2.7873   -1.2928   -0.5745 H   0  0  0  0  0  0  0  0  0  0  0  0
  1  2  2  0
  1 16  1  0
  1 17  1  0
  2  8  1  0
  2  3  1  0
  3 15  1  0
  3  4  1  0
  3 18  1  1
  4  5  1  0
  4 19  1  0
  4 20  1  0
  5  6  1  0
  5 21  1  0
  5 22  1  0
  6 10  1  0
  6  7  1  6
  6  8  1  0
  7 23  1  0
  7 24  1  0
  7 25  1  0
  8  9  1  0
  8 26  1  1
 10  9  1  6
  9 27  1  0
  9 28  1  0
 10 15  1  0
 10 11  1  0
 11 12  1  0
 11 13  1  0
 11 29  1  6
 12 30  1  0
 12 31  1  0
 12 32  1  0
 13 14  1  0
 13 33  1  0
 13 34  1  0
 14 15  1  0
 14 35  1  0
 14 36  1  0
 15 37  1  1
M  CHG  1  15   1
M  END
>  <i_m_ct_stereo_status>  (176) 
1

>  <s_m_source_file>  (176) 
/var/tmp/pbs.5076255.sched01/tmpl63by5lx/41imve8rrw.sdf

>  <i_m_source_file_index>  (176) 
32

>  <i_lp_mmshare_version>  (176) 
48012

>  <i_f3d_flags>  (176) 
0

>  <s_epik_input>  (176) 
W0NIM11bQ0BAXTEoW0NAXTIzNClbQ0BIXShbQ0gyXTIpQyg9W0NIMl0pW0NAQEhdKFtDSDJdW0NIMl0xKU40W0NIMl1bQ0gyXVtDQEBIXTNbQ0gzXQ==

>  <s_epik_cmdline>  (176) 
J2VwaWtfcHl0aG9uJywgJy1waHQnLCAnMi4wJywgJy1waCcsICc3LjAnLCAnLXRuJywgJzgnLCAnLW1hJywgJzIwMCcsICctaW1hZScsICc8aW5maWxlLm1hZT4nLCAnLW9tYWUnLCAnPG91dGZpbGUubWFlPic=

>  <r_lp_tautomer_probability>  (176) 
1

>  <r_epik_Ionization_Penalty>  (176) 
9.2182e-05

>  <r_epik_Ionization_Penalty_Charging>  (176) 
9.2182e-05

>  <r_epik_Ionization_Penalty_Neutral>  (176) 
0

>  <r_epik_State_Penalty>  (176) 
-0

>  <r_epik_Charging_Adjusted_Penalty>  (176) 
9.2182e-05

>  <i_epik_Tot_Q>  (176) 
1

>  <i_epik_Tot_abs_Q>  (176) 
1

>  <s_lp_Force_Field>  (176) 
OPLS3e

>  <r_lp_Energy>  (176) 
47.4182

>  <b_lp_Chiralities_Consistent>  (176) 
1

>  <s_lp_Variant>  (176) 
49:0-1

>  <s_i_glide_gridfile>  (176) 
pfpi4k_grid

>  <i_i_glide_lignum>  (176) 
32

>  <i_i_glide_rotatable_bonds>  (176) 
0

>  <r_i_docking_score>  (176) 
-3.48661

>  <r_i_glide_ligand_efficiency>  (176) 
-0.232441

>  <r_i_glide_ligand_efficiency_sa>  (176) 
-0.573248

>  <r_i_glide_ligand_efficiency_ln>  (176) 
-0.940281

>  <r_i_glide_gscore>  (176) 
-3.48661

>  <r_i_glide_lipo>  (176) 
-0.511028

>  <r_i_glide_hbond>  (176) 
-0.16861

>  <r_i_glide_metal>  (176) 
-0

>  <r_i_glide_rewards>  (176) 
-2.01592

>  <r_i_glide_evdw>  (176) 
-2.87787

>  <r_i_glide_ecoul>  (176) 
-3.80666

>  <r_i_glide_erotb>  (176) 
0

>  <r_i_glide_esite>  (176) 
-0.076156

>  <r_i_glide_emodel>  (176) 
-9.23186

>  <r_i_glide_energy>  (176) 
-6.68453

>  <r_i_glide_einternal>  (176) 
0

>  <r_i_glide_intrahb_reward>  (176) 
-0

>  <i_i_glide_confnum>  (176) 
1

>  <i_i_glide_posenum>  (176) 
1

>  <r_i_glide_eff_state_penalty>  (176) 
0

>  <ligand_id>  (176) 
49

>  <original_smiles>  (176) 
C=C1C2CCC3(C)C1CC31C(C)CCN21

>  <smiles>  (176) 
[H]C([H])=C1C2([H])C([H])([H])C34C([H])(C([H])([H])[H])C([H])([H])C([H])([H])[N+]3([H])C1([H])C([H])([H])C([H])([H])C24C([H])([H])[H]

$$$$
50:0:0
     RDKit          3D

 24 26  0  0  1  0  0  0  0  0999 V2000
    2.5501   -5.0753    2.6551 C   0  0  0  0  0  0  0  0  0  0  0  0
    1.5389   -5.4794    3.6177 N   0  0  0  0  0  0  0  0  0  0  0  0
    0.6920   -4.8104    4.4405 C   0  0  0  0  0  0  0  0  0  0  0  0
    0.6784   -3.3172    4.4575 C   0  0  0  0  0  0  0  0  0  0  0  0
   -0.3234   -2.7423    5.3682 C   0  0  0  0  0  0  0  0  0  0  0  0
   -1.1127   -2.2834    6.0773 N   0  0  0  0  0  0  0  0  0  0  0  0
   -0.0962   -5.6346    5.1817 N   0  0  0  0  0  0  0  0  0  0  0  0
    0.3054   -6.8524    4.7937 C   0  0  0  0  0  0  0  0  0  0  0  0
   -0.1685   -8.4352    5.2722 S   0  0  0  0  0  0  0  0  0  0  0  0
    1.0219   -9.0912    4.1051 C   0  0  0  0  0  0  0  0  0  0  0  0
    1.3046  -10.4425    3.8273 C   0  0  0  0  0  0  0  0  0  0  0  0
    2.2998  -10.7254    2.8807 C   0  0  0  0  0  0  0  0  0  0  0  0
    2.9487   -9.6474    2.2541 C   0  0  0  0  0  0  0  0  0  0  0  0
    2.6886   -8.3421    2.4955 N   0  0  0  0  0  0  0  0  0  0  0  0
    1.7476   -8.0535    3.4040 C   0  0  0  0  0  0  0  0  0  0  0  0
    1.2670   -6.7697    3.8679 C   0  0  0  0  0  0  0  0  0  0  0  0
    2.6098   -3.9878    2.6079 H   0  0  0  0  0  0  0  0  0  0  0  0
    2.3017   -5.4485    1.6610 H   0  0  0  0  0  0  0  0  0  0  0  0
    3.5287   -5.4533    2.9517 H   0  0  0  0  0  0  0  0  0  0  0  0
    1.6684   -2.9557    4.7455 H   0  0  0  0  0  0  0  0  0  0  0  0
    0.4856   -2.9531    3.4460 H   0  0  0  0  0  0  0  0  0  0  0  0
    0.7744  -11.2369    4.3331 H   0  0  0  0  0  0  0  0  0  0  0  0
    2.5598  -11.7449    2.6372 H   0  0  0  0  0  0  0  0  0  0  0  0
    3.7170   -9.8407    1.5217 H   0  0  0  0  0  0  0  0  0  0  0  0
  1  2  1  0
  1 17  1  0
  1 18  1  0
  1 19  1  0
  2 16  1  0
  2  3  1  0
  3  4  1  0
  3  7  2  0
  4  5  1  0
  4 20  1  0
  4 21  1  0
  5  6  3  0
  7  8  1  0
  8 16  2  0
  8  9  1  0
  9 10  1  0
 10 15  2  0
 10 11  1  0
 11 12  2  0
 11 22  1  0
 12 13  1  0
 12 23  1  0
 13 14  2  0
 13 24  1  0
 14 15  1  0
 15 16  1  0
M  END
>  <i_m_ct_stereo_status>  (177) 
1

>  <s_m_source_file>  (177) 
/var/tmp/pbs.5076255.sched01/tmpl63by5lx/41imve8rrw.sdf

>  <i_m_source_file_index>  (177) 
33

>  <i_lp_mmshare_version>  (177) 
48012

>  <i_f3d_flags>  (177) 
0

>  <s_epik_input>  (177) 
TiNDW0NIMl1jKG4xKW4oW0NIM10pYyhjMTIpYzNjKHMyKVtjSF1bY0hdW2NIXW4z

>  <s_epik_cmdline>  (177) 
J2VwaWtfcHl0aG9uJywgJy1waHQnLCAnMi4wJywgJy1waCcsICc3LjAnLCAnLXRuJywgJzgnLCAnLW1hJywgJzIwMCcsICctaW1hZScsICc8aW5maWxlLm1hZT4nLCAnLW9tYWUnLCAnPG91dGZpbGUubWFlPic=

>  <r_epik_Ionization_Penalty>  (177) 
0.00288422

>  <r_epik_Ionization_Penalty_Charging>  (177) 
0.00288344

>  <r_epik_Ionization_Penalty_Neutral>  (177) 
7.74636e-07

>  <r_epik_State_Penalty>  (177) 
0.0020191

>  <r_epik_Charging_Adjusted_Penalty>  (177) 
0.00490255

>  <i_epik_Tot_Q>  (177) 
0

>  <i_epik_Tot_abs_Q>  (177) 
0

>  <s_lp_Force_Field>  (177) 
OPLS3e

>  <r_lp_Energy>  (177) 
13.3441

>  <b_lp_Chiralities_Consistent>  (177) 
1

>  <s_lp_Variant>  (177) 
50:0-1

>  <s_i_glide_gridfile>  (177) 
pfpi4k_grid

>  <i_i_glide_lignum>  (177) 
33

>  <i_i_glide_rotatable_bonds>  (177) 
2

>  <r_i_docking_score>  (177) 
-3.24839

>  <r_i_glide_ligand_efficiency>  (177) 
-0.203024

>  <r_i_glide_ligand_efficiency_sa>  (177) 
-0.511589

>  <r_i_glide_ligand_efficiency_ln>  (177) 
-0.86105

>  <r_i_glide_gscore>  (177) 
-3.24839

>  <r_i_glide_lipo>  (177) 
-0.0794502

>  <r_i_glide_hbond>  (177) 
0

>  <r_i_glide_metal>  (177) 
-0

>  <r_i_glide_rewards>  (177) 
-1.85268

>  <r_i_glide_evdw>  (177) 
-16.153

>  <r_i_glide_ecoul>  (177) 
-5.36414

>  <r_i_glide_erotb>  (177) 
0.326944

>  <r_i_glide_esite>  (177) 
-0.0309329

>  <r_i_glide_emodel>  (177) 
-26.1684

>  <r_i_glide_energy>  (177) 
-21.5171

>  <r_i_glide_einternal>  (177) 
0.207663

>  <r_i_glide_intrahb_reward>  (177) 
-0

>  <i_i_glide_confnum>  (177) 
3

>  <i_i_glide_posenum>  (177) 
2

>  <r_i_glide_eff_state_penalty>  (177) 
0

>  <ligand_id>  (177) 
50

>  <original_smiles>  (177) 
Cn1c(CC#N)nc2sc3cccnc3c21

>  <smiles>  (177) 
[H]c1nc2c(sc3nc(C([H])([H])C#N)n(C([H])([H])[H])c32)c([H])c1[H]

$$$$
50:0:1
     RDKit          3D

 24 26  0  0  1  0  0  0  0  0999 V2000
    5.5957   -0.3522    1.1627 C   0  0  0  0  0  0  0  0  0  0  0  0
    4.8018   -1.5514    1.3950 N   0  0  0  0  0  0  0  0  0  0  0  0
    4.5061   -2.3155    2.4790 C   0  0  0  0  0  0  0  0  0  0  0  0
    5.0448   -2.0145    3.8420 C   0  0  0  0  0  0  0  0  0  0  0  0
    3.9911   -1.6582    4.8077 C   0  0  0  0  0  0  0  0  0  0  0  0
    3.1701   -1.3734    5.5694 N   0  0  0  0  0  0  0  0  0  0  0  0
    3.7096   -3.3762    2.1819 N   0  0  0  0  0  0  0  0  0  0  0  0
    3.5163   -3.2403    0.8634 C   0  0  0  0  0  0  0  0  0  0  0  0
    2.6311   -4.1699   -0.2835 S   0  0  0  0  0  0  0  0  0  0  0  0
    3.1655   -3.0231   -1.5562 C   0  0  0  0  0  0  0  0  0  0  0  0
    2.8503   -3.0343   -2.9254 C   0  0  0  0  0  0  0  0  0  0  0  0
    3.3699   -2.0168   -3.7328 C   0  0  0  0  0  0  0  0  0  0  0  0
    4.1880   -1.0465   -3.1317 C   0  0  0  0  0  0  0  0  0  0  0  0
    4.5284   -1.0305   -1.8251 N   0  0  0  0  0  0  0  0  0  0  0  0
    4.0127   -1.9752   -1.0341 C   0  0  0  0  0  0  0  0  0  0  0  0
    4.1596   -2.1719    0.3918 C   0  0  0  0  0  0  0  0  0  0  0  0
    6.0485    0.0002    2.0880 H   0  0  0  0  0  0  0  0  0  0  0  0
    4.9559    0.4425    0.7743 H   0  0  0  0  0  0  0  0  0  0  0  0
    6.4035   -0.5665    0.4607 H   0  0  0  0  0  0  0  0  0  0  0  0
    5.6213   -2.8736    4.2017 H   0  0  0  0  0  0  0  0  0  0  0  0
    5.7279   -1.1688    3.8122 H   0  0  0  0  0  0  0  0  0  0  0  0
    2.2161   -3.8056   -3.3375 H   0  0  0  0  0  0  0  0  0  0  0  0
    3.1308   -1.9810   -4.7782 H   0  0  0  0  0  0  0  0  0  0  0  0
    4.5962   -0.2536   -3.7377 H   0  0  0  0  0  0  0  0  0  0  0  0
  1  2  1  0
  1 17  1  0
  1 18  1  0
  1 19  1  0
  2 16  1  0
  2  3  1  0
  3  4  1  0
  3  7  2  0
  4  5  1  0
  4 20  1  0
  4 21  1  0
  5  6  3  0
  7  8  1  0
  8 16  2  0
  8  9  1  0
  9 10  1  0
 10 15  2  0
 10 11  1  0
 11 12  2  0
 11 22  1  0
 12 13  1  0
 12 23  1  0
 13 14  2  0
 13 24  1  0
 14 15  1  0
 15 16  1  0
M  END
>  <i_m_ct_stereo_status>  (178) 
1

>  <s_m_source_file>  (178) 
/var/tmp/pbs.5076255.sched01/tmpl63by5lx/41imve8rrw.sdf

>  <i_m_source_file_index>  (178) 
33

>  <i_lp_mmshare_version>  (178) 
48012

>  <i_f3d_flags>  (178) 
0

>  <s_epik_input>  (178) 
TiNDW0NIMl1jKG4xKW4oW0NIM10pYyhjMTIpYzNjKHMyKVtjSF1bY0hdW2NIXW4z

>  <s_epik_cmdline>  (178) 
J2VwaWtfcHl0aG9uJywgJy1waHQnLCAnMi4wJywgJy1waCcsICc3LjAnLCAnLXRuJywgJzgnLCAnLW1hJywgJzIwMCcsICctaW1hZScsICc8aW5maWxlLm1hZT4nLCAnLW9tYWUnLCAnPG91dGZpbGUubWFlPic=

>  <r_epik_Ionization_Penalty>  (178) 
0.00288422

>  <r_epik_Ionization_Penalty_Charging>  (178) 
0.00288344

>  <r_epik_Ionization_Penalty_Neutral>  (178) 
7.74636e-07

>  <r_epik_State_Penalty>  (178) 
0.0020191

>  <r_epik_Charging_Adjusted_Penalty>  (178) 
0.00490255

>  <i_epik_Tot_Q>  (178) 
0

>  <i_epik_Tot_abs_Q>  (178) 
0

>  <s_lp_Force_Field>  (178) 
OPLS3e

>  <r_lp_Energy>  (178) 
13.3441

>  <b_lp_Chiralities_Consistent>  (178) 
1

>  <s_lp_Variant>  (178) 
50:0-1

>  <s_i_glide_gridfile>  (178) 
pfpi4k_grid

>  <i_i_glide_lignum>  (178) 
33

>  <i_i_glide_rotatable_bonds>  (178) 
2

>  <r_i_docking_score>  (178) 
-3.14844

>  <r_i_glide_ligand_efficiency>  (178) 
-0.196778

>  <r_i_glide_ligand_efficiency_sa>  (178) 
-0.495849

>  <r_i_glide_ligand_efficiency_ln>  (178) 
-0.834558

>  <r_i_glide_gscore>  (178) 
-3.14844

>  <r_i_glide_lipo>  (178) 
-0.473365

>  <r_i_glide_hbond>  (178) 
0

>  <r_i_glide_metal>  (178) 
-0

>  <r_i_glide_rewards>  (178) 
-1.95438

>  <r_i_glide_evdw>  (178) 
-20.8158

>  <r_i_glide_ecoul>  (178) 
-0.0456728

>  <r_i_glide_erotb>  (178) 
0.326944

>  <r_i_glide_esite>  (178) 
0

>  <r_i_glide_emodel>  (178) 
-25.4129

>  <r_i_glide_energy>  (178) 
-20.8614

>  <r_i_glide_einternal>  (178) 
0.0745422

>  <r_i_glide_intrahb_reward>  (178) 
-0

>  <i_i_glide_confnum>  (178) 
4

>  <i_i_glide_posenum>  (178) 
5

>  <r_i_glide_eff_state_penalty>  (178) 
0

>  <ligand_id>  (178) 
50

>  <original_smiles>  (178) 
Cn1c(CC#N)nc2sc3cccnc3c21

>  <smiles>  (178) 
[H]c1nc2c(sc3nc(C([H])([H])C#N)n(C([H])([H])[H])c32)c([H])c1[H]

$$$$
50:0:2
     RDKit          3D

 24 26  0  0  1  0  0  0  0  0999 V2000
    0.5431    0.6749    2.3120 C   0  0  0  0  0  0  0  0  0  0  0  0
   -0.1591    0.2193    3.5036 N   0  0  0  0  0  0  0  0  0  0  0  0
   -1.1473    0.7257    4.2846 C   0  0  0  0  0  0  0  0  0  0  0  0
   -1.7473    2.0570    3.9726 C   0  0  0  0  0  0  0  0  0  0  0  0
   -2.2146    2.7733    5.1662 C   0  0  0  0  0  0  0  0  0  0  0  0
   -2.5831    3.3427    6.1018 N   0  0  0  0  0  0  0  0  0  0  0  0
   -1.5061   -0.0991    5.3074 N   0  0  0  0  0  0  0  0  0  0  0  0
   -0.6840   -1.1414    5.1419 C   0  0  0  0  0  0  0  0  0  0  0  0
   -0.4873   -2.6126    6.0133 S   0  0  0  0  0  0  0  0  0  0  0  0
    0.7960   -3.0756    4.8471 C   0  0  0  0  0  0  0  0  0  0  0  0
    1.5668   -4.2544    4.8231 C   0  0  0  0  0  0  0  0  0  0  0  0
    2.5197   -4.4043    3.8070 C   0  0  0  0  0  0  0  0  0  0  0  0
    2.6568   -3.3700    2.8673 C   0  0  0  0  0  0  0  0  0  0  0  0
    1.9292   -2.2305    2.8694 N   0  0  0  0  0  0  0  0  0  0  0  0
    1.0159   -2.0661    3.8355 C   0  0  0  0  0  0  0  0  0  0  0  0
    0.1116   -0.9638    4.0822 C   0  0  0  0  0  0  0  0  0  0  0  0
    0.1761    1.6533    1.9918 H   0  0  0  0  0  0  0  0  0  0  0  0
    0.3861   -0.0121    1.4811 H   0  0  0  0  0  0  0  0  0  0  0  0
    1.6091    0.7722    2.5125 H   0  0  0  0  0  0  0  0  0  0  0  0
   -1.0050    2.7004    3.4959 H   0  0  0  0  0  0  0  0  0  0  0  0
   -2.5719    1.9310    3.2696 H   0  0  0  0  0  0  0  0  0  0  0  0
    1.4272   -5.0204    5.5699 H   0  0  0  0  0  0  0  0  0  0  0  0
    3.1354   -5.2911    3.7556 H   0  0  0  0  0  0  0  0  0  0  0  0
    3.3836   -3.4568    2.0760 H   0  0  0  0  0  0  0  0  0  0  0  0
  1  2  1  0
  1 17  1  0
  1 18  1  0
  1 19  1  0
  2 16  1  0
  2  3  1  0
  3  4  1  0
  3  7  2  0
  4  5  1  0
  4 20  1  0
  4 21  1  0
  5  6  3  0
  7  8  1  0
  8 16  2  0
  8  9  1  0
  9 10  1  0
 10 15  2  0
 10 11  1  0
 11 12  2  0
 11 22  1  0
 12 13  1  0
 12 23  1  0
 13 14  2  0
 13 24  1  0
 14 15  1  0
 15 16  1  0
M  END
>  <i_m_ct_stereo_status>  (179) 
1

>  <s_m_source_file>  (179) 
/var/tmp/pbs.5076255.sched01/tmpl63by5lx/41imve8rrw.sdf

>  <i_m_source_file_index>  (179) 
33

>  <i_lp_mmshare_version>  (179) 
48012

>  <i_f3d_flags>  (179) 
0

>  <s_epik_input>  (179) 
TiNDW0NIMl1jKG4xKW4oW0NIM10pYyhjMTIpYzNjKHMyKVtjSF1bY0hdW2NIXW4z

>  <s_epik_cmdline>  (179) 
J2VwaWtfcHl0aG9uJywgJy1waHQnLCAnMi4wJywgJy1waCcsICc3LjAnLCAnLXRuJywgJzgnLCAnLW1hJywgJzIwMCcsICctaW1hZScsICc8aW5maWxlLm1hZT4nLCAnLW9tYWUnLCAnPG91dGZpbGUubWFlPic=

>  <r_epik_Ionization_Penalty>  (179) 
0.00288422

>  <r_epik_Ionization_Penalty_Charging>  (179) 
0.00288344

>  <r_epik_Ionization_Penalty_Neutral>  (179) 
7.74636e-07

>  <r_epik_State_Penalty>  (179) 
0.0020191

>  <r_epik_Charging_Adjusted_Penalty>  (179) 
0.00490255

>  <i_epik_Tot_Q>  (179) 
0

>  <i_epik_Tot_abs_Q>  (179) 
0

>  <s_lp_Force_Field>  (179) 
OPLS3e

>  <r_lp_Energy>  (179) 
13.3441

>  <b_lp_Chiralities_Consistent>  (179) 
1

>  <s_lp_Variant>  (179) 
50:0-1

>  <s_i_glide_gridfile>  (179) 
pfpi4k_grid

>  <i_i_glide_lignum>  (179) 
33

>  <i_i_glide_rotatable_bonds>  (179) 
2

>  <r_i_docking_score>  (179) 
-2.92932

>  <r_i_glide_ligand_efficiency>  (179) 
-0.183082

>  <r_i_glide_ligand_efficiency_sa>  (179) 
-0.461338

>  <r_i_glide_ligand_efficiency_ln>  (179) 
-0.776474

>  <r_i_glide_gscore>  (179) 
-2.92932

>  <r_i_glide_lipo>  (179) 
-0.0358684

>  <r_i_glide_hbond>  (179) 
0

>  <r_i_glide_metal>  (179) 
-0

>  <r_i_glide_rewards>  (179) 
-1.85268

>  <r_i_glide_evdw>  (179) 
-17.0297

>  <r_i_glide_ecoul>  (179) 
-3.10386

>  <r_i_glide_erotb>  (179) 
0.326944

>  <r_i_glide_esite>  (179) 
-0.0506518

>  <r_i_glide_emodel>  (179) 
-24.33

>  <r_i_glide_energy>  (179) 
-20.1335

>  <r_i_glide_einternal>  (179) 
0.14516

>  <r_i_glide_intrahb_reward>  (179) 
-0

>  <i_i_glide_confnum>  (179) 
3

>  <i_i_glide_posenum>  (179) 
40

>  <r_i_glide_eff_state_penalty>  (179) 
0

>  <ligand_id>  (179) 
50

>  <original_smiles>  (179) 
Cn1c(CC#N)nc2sc3cccnc3c21

>  <smiles>  (179) 
[H]c1nc2c(sc3nc(C([H])([H])C#N)n(C([H])([H])[H])c32)c([H])c1[H]

$$$$
51:0:0
     RDKit          3D

 63 67  0  0  1  0  0  0  0  0999 V2000
    3.0277   -1.3831   -3.4315 C   0  0  0  0  0  0  0  0  0  0  0  0
    4.1405   -1.6570   -2.7273 C   0  0  0  0  0  0  0  0  0  0  0  0
    4.7721   -0.6535   -1.8221 C   0  0  0  0  0  0  0  0  0  0  0  0
    4.7531   -1.1074   -0.3564 C   0  0  1  0  0  0  0  0  0  0  0  0
    3.4133   -0.9960    0.0728 O   0  0  0  0  0  0  0  0  0  0  0  0
    5.4744   -2.4914   -0.1534 C   0  0  2  0  0  0  0  0  0  0  0  0
    6.9790   -2.1224   -0.1982 C   0  0  0  0  0  0  0  0  0  0  0  0
    7.6001   -2.2566   -1.2771 O   0  0  0  0  0  0  0  0  0  0  0  0
    7.4664   -1.5912    0.8176 O   0  0  0  0  0  0  0  0  0  0  0  0
    5.0855   -3.5092   -1.2865 C   0  0  1  0  0  0  0  0  0  0  0  0
    3.9259   -4.3479   -0.7100 C   0  0  0  0  0  0  0  0  0  0  0  0
    3.7844   -3.9693    0.7629 C   0  0  1  0  0  0  0  0  0  0  0  0
    3.1045   -4.9106    1.7904 C   0  0  1  0  0  0  0  0  0  0  0  0
    3.6122   -6.3379    1.9992 C   0  0  0  0  0  0  0  0  0  0  0  0
    3.8568   -7.1523    1.1162 O   0  0  0  0  0  0  0  0  0  0  0  0
    3.7439   -6.5951    3.4913 C   0  0  2  0  0  0  0  0  0  0  0  0
    3.5467   -8.0190    4.0425 C   0  0  0  0  0  0  0  0  0  0  0  0
    3.7702   -7.9790    5.5627 C   0  0  0  0  0  0  0  0  0  0  0  0
    4.4261   -8.8428    6.1346 O   0  0  0  0  0  0  0  0  0  0  0  0
    3.1421   -6.8134    6.3481 C   0  0  0  0  0  0  0  0  0  0  0  0
    3.2717   -5.4469    5.6233 C   0  0  0  0  0  0  0  0  0  0  0  0
    2.8317   -5.5360    4.1401 C   0  0  2  0  0  0  0  0  0  0  0  0
    1.3126   -5.8856    4.0820 C   0  0  0  0  0  0  0  0  0  0  0  0
    3.0644   -4.2917    3.2216 C   0  0  1  0  0  0  0  0  0  0  0  0
    4.3336   -3.4564    3.5913 C   0  0  0  0  0  0  0  0  0  0  0  0
    4.8508   -2.5227    2.4685 C   0  0  0  0  0  0  0  0  0  0  0  0
    5.1168   -3.3144    1.1622 C   0  0  2  0  0  0  0  0  0  0  0  0
    6.2122   -4.3979    1.4423 C   0  0  0  0  0  0  0  0  0  0  0  0
    4.9183   -2.9464   -2.7295 C   0  0  1  0  0  0  0  0  0  0  0  0
    4.4213   -3.9410   -3.7757 C   0  0  0  0  0  0  0  0  0  0  0  0
    2.5462   -2.1037   -4.0747 H   0  0  0  0  0  0  0  0  0  0  0  0
    2.5697   -0.4053   -3.3497 H   0  0  0  0  0  0  0  0  0  0  0  0
    5.7908   -0.4650   -2.1551 H   0  0  0  0  0  0  0  0  0  0  0  0
    4.2355    0.2827   -1.9490 H   0  0  0  0  0  0  0  0  0  0  0  0
    5.2683   -0.3463    0.2335 H   0  0  0  0  0  0  0  0  0  0  0  0
    2.8280   -1.2897   -0.6187 H   0  0  0  0  0  0  0  0  0  0  0  0
    5.9089   -4.2141   -1.3889 H   0  0  0  0  0  0  0  0  0  0  0  0
    2.9864   -4.1702   -1.2382 H   0  0  0  0  0  0  0  0  0  0  0  0
    4.1853   -5.4031   -0.7988 H   0  0  0  0  0  0  0  0  0  0  0  0
    3.0350   -3.1889    0.7366 H   0  0  0  0  0  0  0  0  0  0  0  0
    2.0818   -5.0473    1.4439 H   0  0  0  0  0  0  0  0  0  0  0  0
    4.7811   -6.3408    3.7101 H   0  0  0  0  0  0  0  0  0  0  0  0
    2.5484   -8.4030    3.8390 H   0  0  0  0  0  0  0  0  0  0  0  0
    4.2536   -8.7180    3.5928 H   0  0  0  0  0  0  0  0  0  0  0  0
    2.0954   -7.0538    6.5224 H   0  0  0  0  0  0  0  0  0  0  0  0
    3.6016   -6.7578    7.3347 H   0  0  0  0  0  0  0  0  0  0  0  0
    2.6998   -4.6828    6.1498 H   0  0  0  0  0  0  0  0  0  0  0  0
    4.3178   -5.1503    5.6929 H   0  0  0  0  0  0  0  0  0  0  0  0
    0.7265   -5.0958    4.5540 H   0  0  0  0  0  0  0  0  0  0  0  0
    1.0659   -6.8127    4.6027 H   0  0  0  0  0  0  0  0  0  0  0  0
    0.9403   -5.9998    3.0635 H   0  0  0  0  0  0  0  0  0  0  0  0
    2.2070   -3.6183    3.2816 H   0  0  0  0  0  0  0  0  0  0  0  0
    4.0980   -2.8417    4.4585 H   0  0  0  0  0  0  0  0  0  0  0  0
    5.1545   -4.0917    3.9226 H   0  0  0  0  0  0  0  0  0  0  0  0
    4.1073   -1.7429    2.3197 H   0  0  0  0  0  0  0  0  0  0  0  0
    5.7509   -2.0015    2.7929 H   0  0  0  0  0  0  0  0  0  0  0  0
    5.9370   -5.1126    2.2087 H   0  0  0  0  0  0  0  0  0  0  0  0
    7.1379   -3.9481    1.8023 H   0  0  0  0  0  0  0  0  0  0  0  0
    6.4597   -4.9891    0.5622 H   0  0  0  0  0  0  0  0  0  0  0  0
    5.9138   -2.6625   -3.0762 H   0  0  0  0  0  0  0  0  0  0  0  0
    4.5023   -3.5163   -4.7704 H   0  0  0  0  0  0  0  0  0  0  0  0
    3.3763   -4.2168   -3.6219 H   0  0  0  0  0  0  0  0  0  0  0  0
    5.0156   -4.8524   -3.7523 H   0  0  0  0  0  0  0  0  0  0  0  0
  1  2  2  0
  1 31  1  0
  1 32  1  0
  2 29  1  0
  2  3  1  0
  3  4  1  0
  3 33  1  0
  3 34  1  0
  4  5  1  0
  4  6  1  0
  4 35  1  1
  5 36  1  0
  6 27  1  0
  6  7  1  1
  6 10  1  0
  7  8  2  0
  7  9  1  0
 10 11  1  0
 10 29  1  0
 10 37  1  6
 11 12  1  0
 11 38  1  0
 11 39  1  0
 12 27  1  0
 12 13  1  0
 12 40  1  6
 13 24  1  0
 13 14  1  0
 13 41  1  6
 14 15  2  0
 14 16  1  0
 16 22  1  0
 16 17  1  0
 16 42  1  1
 17 18  1  0
 17 43  1  0
 17 44  1  0
 18 19  2  0
 18 20  1  0
 20 21  1  0
 20 45  1  0
 20 46  1  0
 21 22  1  0
 21 47  1  0
 21 48  1  0
 22 23  1  1
 22 24  1  0
 23 49  1  0
 23 50  1  0
 23 51  1  0
 24 25  1  0
 24 52  1  6
 25 26  1  0
 25 53  1  0
 25 54  1  0
 26 27  1  0
 26 55  1  0
 26 56  1  0
 27 28  1  1
 28 57  1  0
 28 58  1  0
 28 59  1  0
 29 30  1  0
 29 60  1  6
 30 61  1  0
 30 62  1  0
 30 63  1  0
M  CHG  1   9  -1
M  END
>  <i_m_ct_stereo_status>  (180) 
1

>  <s_m_source_file>  (180) 
/var/tmp/pbs.5076255.sched01/tmpl63by5lx/41imve8rrw.sdf

>  <i_m_source_file_index>  (180) 
34

>  <i_lp_mmshare_version>  (180) 
48012

>  <i_f3d_flags>  (180) 
0

>  <s_epik_input>  (180) 
W09IXVtDQEBIXTFbQ0gyXUMoPVtDSDJdKVtDQEhdKFtDSDNdKVtDQEBIXShbQ0BAXTEyQyg9TylbT0hdKVtDSDJdW0NASF0zW0NAQEhdNFtDQEhdKFtDSDJdW0NIMl1bQ0BdMjNbQ0gzXSlbQ0BAXTUoW0NIM10pW0NASF0oQzQ9TylbQ0gyXUMoPU8pW0NIMl1bQ0gyXTU=

>  <s_epik_cmdline>  (180) 
J2VwaWtfcHl0aG9uJywgJy1waHQnLCAnMi4wJywgJy1waCcsICc3LjAnLCAnLXRuJywgJzgnLCAnLW1hJywgJzIwMCcsICctaW1hZScsICc8aW5maWxlLm1hZT4nLCAnLW9tYWUnLCAnPG91dGZpbGUubWFlPic=

>  <r_lp_tautomer_probability>  (180) 
1

>  <r_epik_Ionization_Penalty>  (180) 
0.00410857

>  <r_epik_Ionization_Penalty_Charging>  (180) 
0.00410733

>  <r_epik_Ionization_Penalty_Neutral>  (180) 
1.23955e-06

>  <r_epik_State_Penalty>  (180) 
0.00294613

>  <r_epik_Charging_Adjusted_Penalty>  (180) 
0.00705347

>  <i_epik_Tot_Q>  (180) 
-1

>  <i_epik_Tot_abs_Q>  (180) 
1

>  <s_lp_Force_Field>  (180) 
OPLS3e

>  <r_lp_Energy>  (180) 
43.2964

>  <b_lp_Chiralities_Consistent>  (180) 
1

>  <s_lp_Variant>  (180) 
51:0-1

>  <s_i_glide_gridfile>  (180) 
pfpi4k_grid

>  <i_i_glide_lignum>  (180) 
34

>  <i_i_glide_rotatable_bonds>  (180) 
2

>  <r_i_docking_score>  (180) 
-3.01067

>  <r_i_glide_ligand_efficiency>  (180) 
-0.100356

>  <r_i_glide_ligand_efficiency_sa>  (180) 
-0.311828

>  <r_i_glide_ligand_efficiency_ln>  (180) 
-0.684057

>  <r_i_glide_gscore>  (180) 
-3.01067

>  <r_i_glide_lipo>  (180) 
-0.521108

>  <r_i_glide_hbond>  (180) 
-0.270231

>  <r_i_glide_metal>  (180) 
-0

>  <r_i_glide_rewards>  (180) 
-0.620246

>  <r_i_glide_evdw>  (180) 
-25.1122

>  <r_i_glide_ecoul>  (180) 
-2.08209

>  <r_i_glide_erotb>  (180) 
0

>  <r_i_glide_esite>  (180) 
-0.031162

>  <r_i_glide_emodel>  (180) 
-31.9805

>  <r_i_glide_energy>  (180) 
-27.1943

>  <r_i_glide_einternal>  (180) 
0.496028

>  <r_i_glide_intrahb_reward>  (180) 
-0

>  <i_i_glide_confnum>  (180) 
2

>  <i_i_glide_posenum>  (180) 
32

>  <r_i_glide_eff_state_penalty>  (180) 
0

>  <ligand_id>  (180) 
51

>  <original_smiles>  (180) 
C=C1CC(O)C2(C(=O)O)C(CC3C4C(=O)C5CC(=O)CCC5(C)C4CCC32C)C1C

>  <smiles>  (180) 
[H]OC1([H])C([H])([H])C(=C([H])[H])C([H])(C([H])([H])[H])C2([H])C([H])([H])C3([H])C4([H])C(=O)C5([H])C([H])([H])C(=O)C([H])([H])C([H])([H])C5(C([H])([H])[H])C4([H])C([H])([H])C([H])([H])C3(C([H])([H])[H])C12C(=O)[O-]

$$$$
51:0:1
     RDKit          3D

 63 67  0  0  1  0  0  0  0  0999 V2000
    3.3299   -0.4915   -3.1190 C   0  0  0  0  0  0  0  0  0  0  0  0
    4.1449   -1.3648   -2.5244 C   0  0  0  0  0  0  0  0  0  0  0  0
    5.3706   -0.9305   -1.7830 C   0  0  0  0  0  0  0  0  0  0  0  0
    5.3384   -1.3966   -0.3092 C   0  0  1  0  0  0  0  0  0  0  0  0
    4.3684   -0.5864    0.3290 O   0  0  0  0  0  0  0  0  0  0  0  0
    5.1643   -2.9611   -0.1628 C   0  0  2  0  0  0  0  0  0  0  0  0
    6.5744   -3.4949   -0.5039 C   0  0  0  0  0  0  0  0  0  0  0  0
    6.9273   -3.4472   -1.6951 O   0  0  0  0  0  0  0  0  0  0  0  0
    7.3462   -3.8199    0.4272 O   0  0  0  0  0  0  0  0  0  0  0  0
    4.0635   -3.5014   -1.1643 C   0  0  1  0  0  0  0  0  0  0  0  0
    2.7332   -3.5642   -0.3653 C   0  0  0  0  0  0  0  0  0  0  0  0
    3.1168   -3.2497    1.0995 C   0  0  1  0  0  0  0  0  0  0  0  0
    2.2143   -3.6623    2.2954 C   0  0  1  0  0  0  0  0  0  0  0  0
    1.7946   -5.1173    2.5000 C   0  0  0  0  0  0  0  0  0  0  0  0
    1.3033   -5.8516    1.6387 O   0  0  0  0  0  0  0  0  0  0  0  0
    2.0079   -5.4933    3.9501 C   0  0  2  0  0  0  0  0  0  0  0  0
    1.0946   -6.5513    4.5939 C   0  0  0  0  0  0  0  0  0  0  0  0
    1.5400   -6.7359    6.0471 C   0  0  0  0  0  0  0  0  0  0  0  0
    1.6256   -7.8498    6.5520 O   0  0  0  0  0  0  0  0  0  0  0  0
    1.8732   -5.4762    6.8624 C   0  0  0  0  0  0  0  0  0  0  0  0
    2.6579   -4.3983    6.0653 C   0  0  0  0  0  0  0  0  0  0  0  0
    2.0168   -4.1331    4.6805 C   0  0  2  0  0  0  0  0  0  0  0  0
    0.5924   -3.5228    4.9011 C   0  0  0  0  0  0  0  0  0  0  0  0
    2.7752   -3.2063    3.6742 C   0  0  1  0  0  0  0  0  0  0  0  0
    4.3250   -3.3048    3.7705 C   0  0  0  0  0  0  0  0  0  0  0  0
    5.0781   -2.8053    2.5166 C   0  0  0  0  0  0  0  0  0  0  0  0
    4.6168   -3.5290    1.2267 C   0  0  2  0  0  0  0  0  0  0  0  0
    4.8491   -5.0733    1.3958 C   0  0  0  0  0  0  0  0  0  0  0  0
    3.9838   -2.8559   -2.5899 C   0  0  1  0  0  0  0  0  0  0  0  0
    2.7798   -3.1993   -3.4931 C   0  0  0  0  0  0  0  0  0  0  0  0
    2.4370   -0.7850   -3.6537 H   0  0  0  0  0  0  0  0  0  0  0  0
    3.5470    0.5576   -3.0539 H   0  0  0  0  0  0  0  0  0  0  0  0
    6.2073   -1.3370   -2.3353 H   0  0  0  0  0  0  0  0  0  0  0  0
    5.4509    0.1337   -1.8742 H   0  0  0  0  0  0  0  0  0  0  0  0
    6.2888   -1.1249    0.1581 H   0  0  0  0  0  0  0  0  0  0  0  0
    3.5270   -0.7491   -0.0767 H   0  0  0  0  0  0  0  0  0  0  0  0
    4.3080   -4.5457   -1.3722 H   0  0  0  0  0  0  0  0  0  0  0  0
    2.0109   -2.8297   -0.7343 H   0  0  0  0  0  0  0  0  0  0  0  0
    2.2602   -4.5480   -0.4800 H   0  0  0  0  0  0  0  0  0  0  0  0
    2.9524   -2.1801    1.1530 H   0  0  0  0  0  0  0  0  0  0  0  0
    1.2852   -3.1323    2.1571 H   0  0  0  0  0  0  0  0  0  0  0  0
    3.0112   -5.9166    3.9938 H   0  0  0  0  0  0  0  0  0  0  0  0
    0.0468   -6.2684    4.5790 H   0  0  0  0  0  0  0  0  0  0  0  0
    1.1592   -7.5015    4.0657 H   0  0  0  0  0  0  0  0  0  0  0  0
    0.9396   -5.0633    7.2322 H   0  0  0  0  0  0  0  0  0  0  0  0
    2.4466   -5.7562    7.7455 H   0  0  0  0  0  0  0  0  0  0  0  0
    2.7337   -3.4680    6.6386 H   0  0  0  0  0  0  0  0  0  0  0  0
    3.6714   -4.7705    5.9349 H   0  0  0  0  0  0  0  0  0  0  0  0
    0.6723   -2.5678    5.4295 H   0  0  0  0  0  0  0  0  0  0  0  0
   -0.0626   -4.1670    5.5073 H   0  0  0  0  0  0  0  0  0  0  0  0
    0.0613   -3.3336    3.9649 H   0  0  0  0  0  0  0  0  0  0  0  0
    2.4928   -2.1622    3.8452 H   0  0  0  0  0  0  0  0  0  0  0  0
    4.6475   -2.7029    4.6183 H   0  0  0  0  0  0  0  0  0  0  0  0
    4.6393   -4.3260    3.9990 H   0  0  0  0  0  0  0  0  0  0  0  0
    4.9099   -1.7358    2.4572 H   0  0  0  0  0  0  0  0  0  0  0  0
    6.1501   -2.9177    2.6353 H   0  0  0  0  0  0  0  0  0  0  0  0
    4.2579   -5.5076    2.1983 H   0  0  0  0  0  0  0  0  0  0  0  0
    5.8913   -5.3044    1.6358 H   0  0  0  0  0  0  0  0  0  0  0  0
    4.5494   -5.6321    0.5132 H   0  0  0  0  0  0  0  0  0  0  0  0
    4.8668   -3.2089   -3.1236 H   0  0  0  0  0  0  0  0  0  0  0  0
    2.9113   -2.8070   -4.5096 H   0  0  0  0  0  0  0  0  0  0  0  0
    1.8125   -2.8700   -3.0918 H   0  0  0  0  0  0  0  0  0  0  0  0
    2.7129   -4.2506   -3.6330 H   0  0  0  0  0  0  0  0  0  0  0  0
  1  2  2  0
  1 31  1  0
  1 32  1  0
  2 29  1  0
  2  3  1  0
  3  4  1  0
  3 33  1  0
  3 34  1  0
  4  5  1  0
  4  6  1  0
  4 35  1  1
  5 36  1  0
  6 27  1  0
  6  7  1  6
  6 10  1  0
  7  8  2  0
  7  9  1  0
 10 11  1  0
 10 29  1  0
 10 37  1  6
 11 12  1  0
 11 38  1  0
 11 39  1  0
 12 27  1  0
 12 13  1  0
 12 40  1  6
 13 24  1  0
 13 14  1  0
 13 41  1  6
 14 15  2  0
 14 16  1  0
 16 22  1  0
 16 17  1  0
 16 42  1  6
 17 18  1  0
 17 43  1  0
 17 44  1  0
 18 19  2  0
 18 20  1  0
 20 21  1  0
 20 45  1  0
 20 46  1  0
 21 22  1  0
 21 47  1  0
 21 48  1  0
 22 23  1  1
 22 24  1  0
 23 49  1  0
 23 50  1  0
 23 51  1  0
 24 25  1  0
 24 52  1  1
 25 26  1  0
 25 53  1  0
 25 54  1  0
 26 27  1  0
 26 55  1  0
 26 56  1  0
 27 28  1  1
 28 57  1  0
 28 58  1  0
 28 59  1  0
 29 30  1  0
 29 60  1  6
 30 61  1  0
 30 62  1  0
 30 63  1  0
M  CHG  1   9  -1
M  END
>  <i_m_ct_stereo_status>  (181) 
1

>  <s_m_source_file>  (181) 
/var/tmp/pbs.5076255.sched01/tmpl63by5lx/41imve8rrw.sdf

>  <i_m_source_file_index>  (181) 
34

>  <i_lp_mmshare_version>  (181) 
48012

>  <i_f3d_flags>  (181) 
0

>  <s_epik_input>  (181) 
W09IXVtDQEBIXTFbQ0gyXUMoPVtDSDJdKVtDQEhdKFtDSDNdKVtDQEBIXShbQ0BAXTEyQyg9TylbT0hdKVtDSDJdW0NASF0zW0NAQEhdNFtDQEhdKFtDSDJdW0NIMl1bQ0BdMjNbQ0gzXSlbQ0BAXTUoW0NIM10pW0NASF0oQzQ9TylbQ0gyXUMoPU8pW0NIMl1bQ0gyXTU=

>  <s_epik_cmdline>  (181) 
J2VwaWtfcHl0aG9uJywgJy1waHQnLCAnMi4wJywgJy1waCcsICc3LjAnLCAnLXRuJywgJzgnLCAnLW1hJywgJzIwMCcsICctaW1hZScsICc8aW5maWxlLm1hZT4nLCAnLW9tYWUnLCAnPG91dGZpbGUubWFlPic=

>  <r_lp_tautomer_probability>  (181) 
1

>  <r_epik_Ionization_Penalty>  (181) 
0.00410857

>  <r_epik_Ionization_Penalty_Charging>  (181) 
0.00410733

>  <r_epik_Ionization_Penalty_Neutral>  (181) 
1.23955e-06

>  <r_epik_State_Penalty>  (181) 
0.00294613

>  <r_epik_Charging_Adjusted_Penalty>  (181) 
0.00705347

>  <i_epik_Tot_Q>  (181) 
-1

>  <i_epik_Tot_abs_Q>  (181) 
1

>  <s_lp_Force_Field>  (181) 
OPLS3e

>  <r_lp_Energy>  (181) 
43.2964

>  <b_lp_Chiralities_Consistent>  (181) 
1

>  <s_lp_Variant>  (181) 
51:0-1

>  <s_i_glide_gridfile>  (181) 
pfpi4k_grid

>  <i_i_glide_lignum>  (181) 
34

>  <i_i_glide_rotatable_bonds>  (181) 
2

>  <r_i_docking_score>  (181) 
-2.84358

>  <r_i_glide_ligand_efficiency>  (181) 
-0.0947859

>  <r_i_glide_ligand_efficiency_sa>  (181) 
-0.294522

>  <r_i_glide_ligand_efficiency_ln>  (181) 
-0.646092

>  <r_i_glide_gscore>  (181) 
-2.84358

>  <r_i_glide_lipo>  (181) 
-0.427003

>  <r_i_glide_hbond>  (181) 
-0.126912

>  <r_i_glide_metal>  (181) 
-0

>  <r_i_glide_rewards>  (181) 
-0.739736

>  <r_i_glide_evdw>  (181) 
-23.333

>  <r_i_glide_ecoul>  (181) 
-2.38051

>  <r_i_glide_erotb>  (181) 
0

>  <r_i_glide_esite>  (181) 
-0.0261986

>  <r_i_glide_emodel>  (181) 
-27.81

>  <r_i_glide_energy>  (181) 
-25.7135

>  <r_i_glide_einternal>  (181) 
2.1346

>  <r_i_glide_intrahb_reward>  (181) 
-0

>  <i_i_glide_confnum>  (181) 
2

>  <i_i_glide_posenum>  (181) 
8

>  <r_i_glide_eff_state_penalty>  (181) 
0

>  <ligand_id>  (181) 
51

>  <original_smiles>  (181) 
C=C1CC(O)C2(C(=O)O)C(CC3C4C(=O)C5CC(=O)CCC5(C)C4CCC32C)C1C

>  <smiles>  (181) 
[H]OC1([H])C([H])([H])C(=C([H])[H])C([H])(C([H])([H])[H])C2([H])C([H])([H])C3([H])C4([H])C(=O)C5([H])C([H])([H])C(=O)C([H])([H])C([H])([H])C5(C([H])([H])[H])C4([H])C([H])([H])C([H])([H])C3(C([H])([H])[H])C12C(=O)[O-]

$$$$
51:0:2
     RDKit          3D

 63 67  0  0  1  0  0  0  0  0999 V2000
    3.6941   -7.4815    5.7458 C   0  0  0  0  0  0  0  0  0  0  0  0
    3.1225   -6.2723    5.6232 C   0  0  0  0  0  0  0  0  0  0  0  0
    3.7572   -5.0199    6.1940 C   0  0  0  0  0  0  0  0  0  0  0  0
    4.1231   -4.0489    5.0602 C   0  0  1  0  0  0  0  0  0  0  0  0
    5.2317   -4.6459    4.4053 O   0  0  0  0  0  0  0  0  0  0  0  0
    2.8785   -3.6532    4.1641 C   0  0  2  0  0  0  0  0  0  0  0  0
    2.0849   -2.6272    5.0268 C   0  0  0  0  0  0  0  0  0  0  0  0
    0.9688   -2.9484    5.4768 O   0  0  0  0  0  0  0  0  0  0  0  0
    2.6299   -1.5142    5.2275 O   0  0  0  0  0  0  0  0  0  0  0  0
    1.9965   -4.9103    3.7905 C   0  0  1  0  0  0  0  0  0  0  0  0
    2.4619   -5.4060    2.3979 C   0  0  0  0  0  0  0  0  0  0  0  0
    3.4443   -4.3335    1.8963 C   0  0  1  0  0  0  0  0  0  0  0  0
    3.7830   -4.1730    0.3912 C   0  0  1  0  0  0  0  0  0  0  0  0
    2.6797   -3.9199   -0.6197 C   0  0  0  0  0  0  0  0  0  0  0  0
    1.6661   -4.6128   -0.7246 O   0  0  0  0  0  0  0  0  0  0  0  0
    3.0726   -2.7801   -1.5361 C   0  0  2  0  0  0  0  0  0  0  0  0
    2.5719   -2.7293   -3.0001 C   0  0  0  0  0  0  0  0  0  0  0  0
    3.1858   -1.4709   -3.6485 C   0  0  0  0  0  0  0  0  0  0  0  0
    2.6126   -0.7344   -4.4421 O   0  0  0  0  0  0  0  0  0  0  0  0
    4.6136   -1.1490   -3.3402 C   0  0  0  0  0  0  0  0  0  0  0  0
    5.0396   -1.3478   -1.8854 C   0  0  0  0  0  0  0  0  0  0  0  0
    4.6071   -2.7380   -1.3884 C   0  0  2  0  0  0  0  0  0  0  0  0
    5.3473   -3.8283   -2.2189 C   0  0  0  0  0  0  0  0  0  0  0  0
    4.8288   -3.0552    0.1187 C   0  0  1  0  0  0  0  0  0  0  0  0
    4.6797   -1.8117    1.0531 C   0  0  0  0  0  0  0  0  0  0  0  0
    4.4340   -2.1447    2.5455 C   0  0  0  0  0  0  0  0  0  0  0  0
    3.1887   -3.0572    2.7137 C   0  0  2  0  0  0  0  0  0  0  0  0
    1.9536   -2.2740    2.1706 C   0  0  0  0  0  0  0  0  0  0  0  0
    1.8087   -5.9863    4.9020 C   0  0  1  0  0  0  0  0  0  0  0  0
    1.0368   -7.2417    4.4540 C   0  0  0  0  0  0  0  0  0  0  0  0
    3.2557   -8.3733    5.3249 H   0  0  0  0  0  0  0  0  0  0  0  0
    4.6351   -7.5948    6.2652 H   0  0  0  0  0  0  0  0  0  0  0  0
    3.0454   -4.5612    6.8746 H   0  0  0  0  0  0  0  0  0  0  0  0
    4.6362   -5.2742    6.7903 H   0  0  0  0  0  0  0  0  0  0  0  0
    4.5312   -3.1447    5.5207 H   0  0  0  0  0  0  0  0  0  0  0  0
    4.9334   -5.4536    4.0288 H   0  0  0  0  0  0  0  0  0  0  0  0
    0.9751   -4.5574    3.6168 H   0  0  0  0  0  0  0  0  0  0  0  0
    2.9581   -6.3745    2.4560 H   0  0  0  0  0  0  0  0  0  0  0  0
    1.6043   -5.5195    1.7365 H   0  0  0  0  0  0  0  0  0  0  0  0
    4.3984   -4.7220    2.2197 H   0  0  0  0  0  0  0  0  0  0  0  0
    4.1958   -5.1265    0.0592 H   0  0  0  0  0  0  0  0  0  0  0  0
    2.6573   -1.8899   -1.0684 H   0  0  0  0  0  0  0  0  0  0  0  0
    2.8822   -3.6090   -3.5623 H   0  0  0  0  0  0  0  0  0  0  0  0
    1.4809   -2.7022   -3.0429 H   0  0  0  0  0  0  0  0  0  0  0  0
    5.1781   -1.7605   -4.0318 H   0  0  0  0  0  0  0  0  0  0  0  0
    4.6994   -0.1049   -3.6315 H   0  0  0  0  0  0  0  0  0  0  0  0
    6.1202   -1.2263   -1.8134 H   0  0  0  0  0  0  0  0  0  0  0  0
    4.5735   -0.5478   -1.3151 H   0  0  0  0  0  0  0  0  0  0  0  0
    6.4232   -3.7396   -2.0832 H   0  0  0  0  0  0  0  0  0  0  0  0
    5.1688   -3.7646   -3.2982 H   0  0  0  0  0  0  0  0  0  0  0  0
    5.0527   -4.8343   -1.9314 H   0  0  0  0  0  0  0  0  0  0  0  0
    5.8319   -3.4696    0.2693 H   0  0  0  0  0  0  0  0  0  0  0  0
    5.5964   -1.2355    0.9893 H   0  0  0  0  0  0  0  0  0  0  0  0
    3.9041   -1.1257    0.6929 H   0  0  0  0  0  0  0  0  0  0  0  0
    5.3307   -2.6178    2.9329 H   0  0  0  0  0  0  0  0  0  0  0  0
    4.3084   -1.2262    3.1183 H   0  0  0  0  0  0  0  0  0  0  0  0
    2.0166   -2.0297    1.1198 H   0  0  0  0  0  0  0  0  0  0  0  0
    1.8040   -1.3182    2.6811 H   0  0  0  0  0  0  0  0  0  0  0  0
    1.0374   -2.8457    2.3018 H   0  0  0  0  0  0  0  0  0  0  0  0
    1.1852   -5.5313    5.6760 H   0  0  0  0  0  0  0  0  0  0  0  0
    0.8030   -7.8721    5.3107 H   0  0  0  0  0  0  0  0  0  0  0  0
    1.5987   -7.8554    3.7449 H   0  0  0  0  0  0  0  0  0  0  0  0
    0.0863   -6.9778    3.9870 H   0  0  0  0  0  0  0  0  0  0  0  0
  1  2  2  0
  1 31  1  0
  1 32  1  0
  2 29  1  0
  2  3  1  0
  3  4  1  0
  3 33  1  0
  3 34  1  0
  4  5  1  0
  4  6  1  0
  4 35  1  1
  5 36  1  0
  6 27  1  0
  6  7  1  1
  6 10  1  0
  7  8  2  0
  7  9  1  0
 10 11  1  0
 10 29  1  0
 10 37  1  6
 11 12  1  0
 11 38  1  0
 11 39  1  0
 12 27  1  0
 12 13  1  0
 12 40  1  1
 13 24  1  0
 13 14  1  0
 13 41  1  6
 14 15  2  0
 14 16  1  0
 16 22  1  0
 16 17  1  0
 16 42  1  1
 17 18  1  0
 17 43  1  0
 17 44  1  0
 18 19  2  0
 18 20  1  0
 20 21  1  0
 20 45  1  0
 20 46  1  0
 21 22  1  0
 21 47  1  0
 21 48  1  0
 22 23  1  6
 22 24  1  0
 23 49  1  0
 23 50  1  0
 23 51  1  0
 24 25  1  0
 24 52  1  6
 25 26  1  0
 25 53  1  0
 25 54  1  0
 26 27  1  0
 26 55  1  0
 26 56  1  0
 27 28  1  6
 28 57  1  0
 28 58  1  0
 28 59  1  0
 29 30  1  0
 29 60  1  1
 30 61  1  0
 30 62  1  0
 30 63  1  0
M  CHG  1   9  -1
M  END
>  <i_m_ct_stereo_status>  (182) 
1

>  <s_m_source_file>  (182) 
/var/tmp/pbs.5076255.sched01/tmpl63by5lx/41imve8rrw.sdf

>  <i_m_source_file_index>  (182) 
34

>  <i_lp_mmshare_version>  (182) 
48012

>  <i_f3d_flags>  (182) 
0

>  <s_epik_input>  (182) 
W09IXVtDQEBIXTFbQ0gyXUMoPVtDSDJdKVtDQEhdKFtDSDNdKVtDQEBIXShbQ0BAXTEyQyg9TylbT0hdKVtDSDJdW0NASF0zW0NAQEhdNFtDQEhdKFtDSDJdW0NIMl1bQ0BdMjNbQ0gzXSlbQ0BAXTUoW0NIM10pW0NASF0oQzQ9TylbQ0gyXUMoPU8pW0NIMl1bQ0gyXTU=

>  <s_epik_cmdline>  (182) 
J2VwaWtfcHl0aG9uJywgJy1waHQnLCAnMi4wJywgJy1waCcsICc3LjAnLCAnLXRuJywgJzgnLCAnLW1hJywgJzIwMCcsICctaW1hZScsICc8aW5maWxlLm1hZT4nLCAnLW9tYWUnLCAnPG91dGZpbGUubWFlPic=

>  <r_lp_tautomer_probability>  (182) 
1

>  <r_epik_Ionization_Penalty>  (182) 
0.00410857

>  <r_epik_Ionization_Penalty_Charging>  (182) 
0.00410733

>  <r_epik_Ionization_Penalty_Neutral>  (182) 
1.23955e-06

>  <r_epik_State_Penalty>  (182) 
0.00294613

>  <r_epik_Charging_Adjusted_Penalty>  (182) 
0.00705347

>  <i_epik_Tot_Q>  (182) 
-1

>  <i_epik_Tot_abs_Q>  (182) 
1

>  <s_lp_Force_Field>  (182) 
OPLS3e

>  <r_lp_Energy>  (182) 
43.2964

>  <b_lp_Chiralities_Consistent>  (182) 
1

>  <s_lp_Variant>  (182) 
51:0-1

>  <s_i_glide_gridfile>  (182) 
pfpi4k_grid

>  <i_i_glide_lignum>  (182) 
34

>  <i_i_glide_rotatable_bonds>  (182) 
2

>  <r_i_docking_score>  (182) 
-2.31333

>  <r_i_glide_ligand_efficiency>  (182) 
-0.077111

>  <r_i_glide_ligand_efficiency_sa>  (182) 
-0.239602

>  <r_i_glide_ligand_efficiency_ln>  (182) 
-0.525614

>  <r_i_glide_gscore>  (182) 
-2.31333

>  <r_i_glide_lipo>  (182) 
-0.229962

>  <r_i_glide_hbond>  (182) 
-0.0112701

>  <r_i_glide_metal>  (182) 
-0

>  <r_i_glide_rewards>  (182) 
-0.903266

>  <r_i_glide_evdw>  (182) 
-21.643

>  <r_i_glide_ecoul>  (182) 
-0.298281

>  <r_i_glide_erotb>  (182) 
0

>  <r_i_glide_esite>  (182) 
-0.0419396

>  <r_i_glide_emodel>  (182) 
-25.8472

>  <r_i_glide_energy>  (182) 
-21.9413

>  <r_i_glide_einternal>  (182) 
0.0591327

>  <r_i_glide_intrahb_reward>  (182) 
-0

>  <i_i_glide_confnum>  (182) 
2

>  <i_i_glide_posenum>  (182) 
23

>  <r_i_glide_eff_state_penalty>  (182) 
0

>  <ligand_id>  (182) 
51

>  <original_smiles>  (182) 
C=C1CC(O)C2(C(=O)O)C(CC3C4C(=O)C5CC(=O)CCC5(C)C4CCC32C)C1C

>  <smiles>  (182) 
[H]OC1([H])C([H])([H])C(=C([H])[H])C([H])(C([H])([H])[H])C2([H])C([H])([H])C3([H])C4([H])C(=O)C5([H])C([H])([H])C(=O)C([H])([H])C([H])([H])C5(C([H])([H])[H])C4([H])C([H])([H])C([H])([H])C3(C([H])([H])[H])C12C(=O)[O-]

$$$$
52:0:0
     RDKit          3D

 32 37  0  0  1  0  0  0  0  0999 V2000
    2.6648   -0.7603    0.9214 N   0  0  0  0  0  0  0  0  0  0  0  0
    4.0473   -0.2503    0.8389 C   0  0  0  0  0  0  0  0  0  0  0  0
    4.9258   -1.0053   -0.1898 C   0  0  2  0  0  0  0  0  0  0  0  0
    4.4873   -0.7095   -1.7437 C   0  0  2  0  0  0  0  0  0  0  0  0
    3.2547   -1.3067   -2.7134 C   0  0  0  0  0  0  0  0  0  0  0  0
    3.4034   -3.0237   -2.7890 C   0  0  2  0  0  0  0  0  0  0  0  0
    3.5323   -2.6564   -1.4844 C   0  0  2  0  0  0  0  0  0  0  0  0
    4.8385   -1.9183   -2.3311 C   0  0  2  0  0  0  0  0  0  0  0  0
    5.9225   -2.8665   -2.1925 C   0  0  2  0  0  0  0  0  0  0  0  0
    4.8154   -3.8593   -2.5789 C   0  0  1  0  0  0  0  0  0  0  0  0
    5.0196   -4.3497   -1.1184 C   0  0  2  0  0  0  0  0  0  0  0  0
    4.0914   -3.4772   -0.3810 C   0  0  1  0  0  0  0  0  0  0  0  0
    5.1866   -2.5586    0.1866 C   0  0  1  0  0  0  0  0  0  0  0  0
    6.0955   -3.3419   -0.7880 C   0  0  2  0  0  0  0  0  0  0  0  0
    2.1325   -0.2392    1.5909 H   0  0  0  0  0  0  0  0  0  0  0  0
    2.7014   -1.7324    1.1909 H   0  0  0  0  0  0  0  0  0  0  0  0
    4.0250    0.8090    0.5690 H   0  0  0  0  0  0  0  0  0  0  0  0
    4.5164   -0.3120    1.8340 H   0  0  0  0  0  0  0  0  0  0  0  0
    5.8932   -0.5114   -0.0675 H   0  0  0  0  0  0  0  0  0  0  0  0
    5.0185    0.1347   -2.1994 H   0  0  0  0  0  0  0  0  0  0  0  0
    2.2773   -0.8974   -2.4075 H   0  0  0  0  0  0  0  0  0  0  0  0
    3.2822   -0.8775   -3.7326 H   0  0  0  0  0  0  0  0  0  0  0  0
    2.4945   -3.6248   -2.9085 H   0  0  0  0  0  0  0  0  0  0  0  0
    2.5994   -2.2927   -1.0077 H   0  0  0  0  0  0  0  0  0  0  0  0
    5.1119   -1.7515   -3.4358 H   0  0  0  0  0  0  0  0  0  0  0  0
    6.7971   -2.8542   -2.8519 H   0  0  0  0  0  0  0  0  0  0  0  0
    5.0964   -4.5887   -3.3381 H   0  0  0  0  0  0  0  0  0  0  0  0
    5.1375   -5.3954   -0.8494 H   0  0  0  0  0  0  0  0  0  0  0  0
    3.4235   -3.9773    0.3230 H   0  0  0  0  0  0  0  0  0  0  0  0
    5.4321   -2.7998    1.2251 H   0  0  0  0  0  0  0  0  0  0  0  0
    7.0470   -3.7790   -0.4738 H   0  0  0  0  0  0  0  0  0  0  0  0
    2.1644   -0.7012    0.0297 H   0  0  0  0  0  0  0  0  0  0  0  0
  1  2  1  0
  1 15  1  0
  1 16  1  0
  1 32  1  0
  2  3  1  0
  2 17  1  0
  2 18  1  0
  3 13  1  0
  3  4  1  0
  3 19  1  6
  4  8  1  0
  4  5  1  0
  4 20  1  6
  5  6  1  0
  5 21  1  0
  5 22  1  0
  6 10  1  0
  6  7  1  0
  6 23  1  1
  7 12  1  0
  7  8  1  0
  7 24  1  1
  8  9  1  0
  8 25  1  6
  9 14  1  0
  9 10  1  0
  9 26  1  6
 10 11  1  0
 10 27  1  6
 11 14  1  0
 11 12  1  0
 11 28  1  6
 12 13  1  0
 12 29  1  1
 13 14  1  0
 13 30  1  1
 14 31  1  1
M  CHG  1   1   1
M  END
>  <i_m_ct_stereo_status>  (183) 
1

>  <s_m_source_file>  (183) 
/var/tmp/pbs.5076255.sched01/tmpl63by5lx/41imve8rrw.sdf

>  <i_m_source_file_index>  (183) 
35

>  <i_lp_mmshare_version>  (183) 
48012

>  <i_f3d_flags>  (183) 
0

>  <s_epik_input>  (183) 
W05IMl1bQ0gyXVtDQEhdMVtDQEhdMltDQEBIXTNbQ0BASF00W0NASF0yW0NASF01W0NAQEhdNFtDQEhdKFtDSDJdNilbQ0BASF0zW0NIXTVbQ0BIXTE2

>  <s_epik_cmdline>  (183) 
J2VwaWtfcHl0aG9uJywgJy1waHQnLCAnMi4wJywgJy1waCcsICc3LjAnLCAnLXRuJywgJzgnLCAnLW1hJywgJzIwMCcsICctaW1hZScsICc8aW5maWxlLm1hZT4nLCAnLW9tYWUnLCAnPG91dGZpbGUubWFlPic=

>  <r_lp_tautomer_probability>  (183) 
1

>  <r_epik_Ionization_Penalty>  (183) 
0.000267835

>  <r_epik_Ionization_Penalty_Charging>  (183) 
0.000267835

>  <r_epik_Ionization_Penalty_Neutral>  (183) 
0

>  <r_epik_State_Penalty>  (183) 
-0

>  <r_epik_Charging_Adjusted_Penalty>  (183) 
0.000267835

>  <i_epik_Tot_Q>  (183) 
1

>  <i_epik_Tot_abs_Q>  (183) 
1

>  <s_lp_Force_Field>  (183) 
OPLS3e

>  <r_lp_Energy>  (183) 
343.587

>  <b_lp_Chiralities_Consistent>  (183) 
1

>  <s_lp_Variant>  (183) 
52:0-1

>  <s_i_glide_gridfile>  (183) 
pfpi4k_grid

>  <i_i_glide_lignum>  (183) 
35

>  <i_i_glide_rotatable_bonds>  (183) 
1

>  <r_i_docking_score>  (183) 
-4.61305

>  <r_i_glide_ligand_efficiency>  (183) 
-0.329504

>  <r_i_glide_ligand_efficiency_sa>  (183) 
-0.794151

>  <r_i_glide_ligand_efficiency_ln>  (183) 
-1.26765

>  <r_i_glide_gscore>  (183) 
-4.61305

>  <r_i_glide_lipo>  (183) 
-0.332831

>  <r_i_glide_hbond>  (183) 
-0.186527

>  <r_i_glide_metal>  (183) 
-0

>  <r_i_glide_rewards>  (183) 
-2.1253

>  <r_i_glide_evdw>  (183) 
-17.8285

>  <r_i_glide_ecoul>  (183) 
-6.75022

>  <r_i_glide_erotb>  (183) 
0

>  <r_i_glide_esite>  (183) 
-0.0644314

>  <r_i_glide_emodel>  (183) 
-31.737

>  <r_i_glide_energy>  (183) 
-24.5787

>  <r_i_glide_einternal>  (183) 
1.58123

>  <r_i_glide_intrahb_reward>  (183) 
-0

>  <i_i_glide_confnum>  (183) 
2

>  <i_i_glide_posenum>  (183) 
11

>  <r_i_glide_eff_state_penalty>  (183) 
0

>  <ligand_id>  (183) 
52

>  <original_smiles>  (183) 
NCC1C2CC3C4C2C2C3C3C4C1C23

>  <smiles>  (183) 
[H]C1([H])C2([H])C3([H])C4([H])C5([H])C1([H])C([H])(C([H])([H])[N+]([H])([H])[H])C1([H])C([H])(C25[H])C3([H])C41[H]

$$$$
52:0:1
     RDKit          3D

 32 37  0  0  1  0  0  0  0  0999 V2000
    1.7794   -0.7707    1.7445 N   0  0  0  0  0  0  0  0  0  0  0  0
    2.1794   -1.9227    2.5244 C   0  0  0  0  0  0  0  0  0  0  0  0
    3.4753   -2.6097    2.0266 C   0  0  2  0  0  0  0  0  0  0  0  0
    4.7391   -1.5622    1.9051 C   0  0  2  0  0  0  0  0  0  0  0  0
    5.1458   -0.4178    0.7372 C   0  0  0  0  0  0  0  0  0  0  0  0
    5.3030   -1.2045   -0.7944 C   0  0  2  0  0  0  0  0  0  0  0  0
    4.1540   -1.6332   -0.2033 C   0  0  2  0  0  0  0  0  0  0  0  0
    5.4346   -2.1318    0.8382 C   0  0  2  0  0  0  0  0  0  0  0  0
    5.7474   -3.4704    0.3846 C   0  0  2  0  0  0  0  0  0  0  0  0
    5.6882   -2.8060   -1.0079 C   0  0  1  0  0  0  0  0  0  0  0  0
    4.4230   -3.6884   -1.1611 C   0  0  2  0  0  0  0  0  0  0  0  0
    3.3743   -2.8391   -0.5912 C   0  0  1  0  0  0  0  0  0  0  0  0
    3.2578   -3.5855    0.7474 C   0  0  1  0  0  0  0  0  0  0  0  0
    4.5297   -4.3220    0.2224 C   0  0  2  0  0  0  0  0  0  0  0  0
    0.9437   -0.3236    2.0916 H   0  0  0  0  0  0  0  0  0  0  0  0
    1.5840   -1.0436    0.7538 H   0  0  0  0  0  0  0  0  0  0  0  0
    2.3401   -1.5930    3.5584 H   0  0  0  0  0  0  0  0  0  0  0  0
    1.3634   -2.6556    2.5514 H   0  0  0  0  0  0  0  0  0  0  0  0
    3.7349   -3.2723    2.8505 H   0  0  0  0  0  0  0  0  0  0  0  0
    5.3340   -1.5091    2.8149 H   0  0  0  0  0  0  0  0  0  0  0  0
    4.4802    0.4563    0.7780 H   0  0  0  0  0  0  0  0  0  0  0  0
    6.0865    0.0982    0.9838 H   0  0  0  0  0  0  0  0  0  0  0  0
    5.0572   -0.6440   -1.6914 H   0  0  0  0  0  0  0  0  0  0  0  0
    3.3392   -0.8808   -0.1719 H   0  0  0  0  0  0  0  0  0  0  0  0
    6.5452   -1.8947    0.9494 H   0  0  0  0  0  0  0  0  0  0  0  0
    6.6933   -3.9611    0.6456 H   0  0  0  0  0  0  0  0  0  0  0  0
    6.5068   -3.0720   -1.6720 H   0  0  0  0  0  0  0  0  0  0  0  0
    4.2181   -4.2926   -2.0438 H   0  0  0  0  0  0  0  0  0  0  0  0
    2.4643   -2.7255   -1.1883 H   0  0  0  0  0  0  0  0  0  0  0  0
    2.4077   -4.2626    0.7748 H   0  0  0  0  0  0  0  0  0  0  0  0
    4.6098   -5.4065    0.2415 H   0  0  0  0  0  0  0  0  0  0  0  0
    2.5228   -0.0832    1.7299 H   0  0  0  0  0  0  0  0  0  0  0  0
  1  2  1  0
  1 15  1  0
  1 16  1  0
  1 32  1  0
  2  3  1  0
  2 17  1  0
  2 18  1  0
  3 13  1  0
  3  4  1  0
  3 19  1  1
  4  8  1  0
  4  5  1  0
  4 20  1  1
  5  6  1  0
  5 21  1  0
  5 22  1  0
  6 10  1  0
  6  7  1  0
  6 23  1  6
  7 12  1  0
  7  8  1  0
  7 24  1  1
  8  9  1  0
  8 25  1  6
  9 14  1  0
  9 10  1  0
  9 26  1  1
 10 11  1  0
 10 27  1  6
 11 14  1  0
 11 12  1  0
 11 28  1  6
 12 13  1  0
 12 29  1  6
 13 14  1  0
 13 30  1  1
 14 31  1  6
M  CHG  1   1   1
M  END
>  <i_m_ct_stereo_status>  (184) 
1

>  <s_m_source_file>  (184) 
/var/tmp/pbs.5076255.sched01/tmpl63by5lx/41imve8rrw.sdf

>  <i_m_source_file_index>  (184) 
35

>  <i_lp_mmshare_version>  (184) 
48012

>  <i_f3d_flags>  (184) 
0

>  <s_epik_input>  (184) 
W05IMl1bQ0gyXVtDQEhdMVtDQEhdMltDQEBIXTNbQ0BASF00W0NASF0yW0NASF01W0NAQEhdNFtDQEhdKFtDSDJdNilbQ0BASF0zW0NIXTVbQ0BIXTE2

>  <s_epik_cmdline>  (184) 
J2VwaWtfcHl0aG9uJywgJy1waHQnLCAnMi4wJywgJy1waCcsICc3LjAnLCAnLXRuJywgJzgnLCAnLW1hJywgJzIwMCcsICctaW1hZScsICc8aW5maWxlLm1hZT4nLCAnLW9tYWUnLCAnPG91dGZpbGUubWFlPic=

>  <r_lp_tautomer_probability>  (184) 
1

>  <r_epik_Ionization_Penalty>  (184) 
0.000267835

>  <r_epik_Ionization_Penalty_Charging>  (184) 
0.000267835

>  <r_epik_Ionization_Penalty_Neutral>  (184) 
0

>  <r_epik_State_Penalty>  (184) 
-0

>  <r_epik_Charging_Adjusted_Penalty>  (184) 
0.000267835

>  <i_epik_Tot_Q>  (184) 
1

>  <i_epik_Tot_abs_Q>  (184) 
1

>  <s_lp_Force_Field>  (184) 
OPLS3e

>  <r_lp_Energy>  (184) 
343.587

>  <b_lp_Chiralities_Consistent>  (184) 
1

>  <s_lp_Variant>  (184) 
52:0-1

>  <s_i_glide_gridfile>  (184) 
pfpi4k_grid

>  <i_i_glide_lignum>  (184) 
35

>  <i_i_glide_rotatable_bonds>  (184) 
1

>  <r_i_docking_score>  (184) 
-4.54479

>  <r_i_glide_ligand_efficiency>  (184) 
-0.324628

>  <r_i_glide_ligand_efficiency_sa>  (184) 
-0.7824

>  <r_i_glide_ligand_efficiency_ln>  (184) 
-1.24889

>  <r_i_glide_gscore>  (184) 
-4.54479

>  <r_i_glide_lipo>  (184) 
-0.375697

>  <r_i_glide_hbond>  (184) 
-0.2

>  <r_i_glide_metal>  (184) 
-0

>  <r_i_glide_rewards>  (184) 
-2.1253

>  <r_i_glide_evdw>  (184) 
-15.4876

>  <r_i_glide_ecoul>  (184) 
-6.53468

>  <r_i_glide_erotb>  (184) 
0

>  <r_i_glide_esite>  (184) 
-0.0892082

>  <r_i_glide_emodel>  (184) 
-28.8477

>  <r_i_glide_energy>  (184) 
-22.0223

>  <r_i_glide_einternal>  (184) 
1.94932

>  <r_i_glide_intrahb_reward>  (184) 
-0

>  <i_i_glide_confnum>  (184) 
1

>  <i_i_glide_posenum>  (184) 
36

>  <r_i_glide_eff_state_penalty>  (184) 
0

>  <ligand_id>  (184) 
52

>  <original_smiles>  (184) 
NCC1C2CC3C4C2C2C3C3C4C1C23

>  <smiles>  (184) 
[H]C1([H])C2([H])C3([H])C4([H])C5([H])C1([H])C([H])(C([H])([H])[N+]([H])([H])[H])C1([H])C([H])(C25[H])C3([H])C41[H]

$$$$
52:0:2
     RDKit          3D

 32 37  0  0  1  0  0  0  0  0999 V2000
    1.8401   -3.0535   -2.7127 N   0  0  0  0  0  0  0  0  0  0  0  0
    3.2770   -2.7843   -2.8539 C   0  0  0  0  0  0  0  0  0  0  0  0
    3.8787   -2.1911   -1.5612 C   0  0  2  0  0  0  0  0  0  0  0  0
    5.4859   -1.8616   -1.7252 C   0  0  2  0  0  0  0  0  0  0  0  0
    6.8739   -2.8341   -1.6909 C   0  0  0  0  0  0  0  0  0  0  0  0
    6.9080   -3.6842   -0.2071 C   0  0  2  0  0  0  0  0  0  0  0  0
    5.6418   -3.7663   -0.7109 C   0  0  2  0  0  0  0  0  0  0  0  0
    5.9123   -2.0972   -0.4258 C   0  0  2  0  0  0  0  0  0  0  0  0
    5.4044   -1.8795    0.9064 C   0  0  2  0  0  0  0  0  0  0  0  0
    6.2108   -3.1666    1.2003 C   0  0  1  0  0  0  0  0  0  0  0  0
    4.7994   -3.7721    1.4231 C   0  0  2  0  0  0  0  0  0  0  0  0
    4.4467   -4.1957    0.0574 C   0  0  1  0  0  0  0  0  0  0  0  0
    3.4853   -3.0307   -0.2272 C   0  0  1  0  0  0  0  0  0  0  0  0
    4.0515   -2.4796    1.1082 C   0  0  2  0  0  0  0  0  0  0  0  0
    1.4384   -3.4223   -3.5701 H   0  0  0  0  0  0  0  0  0  0  0  0
    1.3593   -2.2028   -2.4471 H   0  0  0  0  0  0  0  0  0  0  0  0
    3.7782   -3.7088   -3.1343 H   0  0  0  0  0  0  0  0  0  0  0  0
    3.4162   -2.0789   -3.6748 H   0  0  0  0  0  0  0  0  0  0  0  0
    3.4085   -1.2116   -1.4444 H   0  0  0  0  0  0  0  0  0  0  0  0
    5.6761   -0.8403   -2.0557 H   0  0  0  0  0  0  0  0  0  0  0  0
    6.9857   -3.4515   -2.5929 H   0  0  0  0  0  0  0  0  0  0  0  0
    7.8036   -2.2558   -1.8023 H   0  0  0  0  0  0  0  0  0  0  0  0
    7.4054   -4.6533   -0.1608 H   0  0  0  0  0  0  0  0  0  0  0  0
    5.4729   -4.3488   -1.6466 H   0  0  0  0  0  0  0  0  0  0  0  0
    6.8189   -1.4413   -0.2113 H   0  0  0  0  0  0  0  0  0  0  0  0
    5.6780   -0.9909    1.4824 H   0  0  0  0  0  0  0  0  0  0  0  0
    6.8409   -3.1091    2.0755 H   0  0  0  0  0  0  0  0  0  0  0  0
    4.5228   -4.3719    2.2942 H   0  0  0  0  0  0  0  0  0  0  0  0
    4.0814   -5.2180   -0.0643 H   0  0  0  0  0  0  0  0  0  0  0  0
    2.4429   -3.3159   -0.1049 H   0  0  0  0  0  0  0  0  0  0  0  0
    3.3922   -2.0755    1.8778 H   0  0  0  0  0  0  0  0  0  0  0  0
    1.7034   -3.7382   -1.9819 H   0  0  0  0  0  0  0  0  0  0  0  0
  1  2  1  0
  1 15  1  0
  1 16  1  0
  1 32  1  0
  2  3  1  0
  2 17  1  0
  2 18  1  0
  3 13  1  0
  3  4  1  0
  3 19  1  1
  4  8  1  0
  4  5  1  0
  4 20  1  6
  5  6  1  0
  5 21  1  0
  5 22  1  0
  6 10  1  0
  6  7  1  0
  6 23  1  1
  7 12  1  0
  7  8  1  0
  7 24  1  6
  8  9  1  0
  8 25  1  1
  9 14  1  0
  9 10  1  0
  9 26  1  1
 10 11  1  0
 10 27  1  1
 11 14  1  0
 11 12  1  0
 11 28  1  1
 12 13  1  0
 12 29  1  1
 13 14  1  0
 13 30  1  1
 14 31  1  1
M  CHG  1   1   1
M  END
>  <i_m_ct_stereo_status>  (185) 
1

>  <s_m_source_file>  (185) 
/var/tmp/pbs.5076255.sched01/tmpl63by5lx/41imve8rrw.sdf

>  <i_m_source_file_index>  (185) 
35

>  <i_lp_mmshare_version>  (185) 
48012

>  <i_f3d_flags>  (185) 
0

>  <s_epik_input>  (185) 
W05IMl1bQ0gyXVtDQEhdMVtDQEhdMltDQEBIXTNbQ0BASF00W0NASF0yW0NASF01W0NAQEhdNFtDQEhdKFtDSDJdNilbQ0BASF0zW0NIXTVbQ0BIXTE2

>  <s_epik_cmdline>  (185) 
J2VwaWtfcHl0aG9uJywgJy1waHQnLCAnMi4wJywgJy1waCcsICc3LjAnLCAnLXRuJywgJzgnLCAnLW1hJywgJzIwMCcsICctaW1hZScsICc8aW5maWxlLm1hZT4nLCAnLW9tYWUnLCAnPG91dGZpbGUubWFlPic=

>  <r_lp_tautomer_probability>  (185) 
1

>  <r_epik_Ionization_Penalty>  (185) 
0.000267835

>  <r_epik_Ionization_Penalty_Charging>  (185) 
0.000267835

>  <r_epik_Ionization_Penalty_Neutral>  (185) 
0

>  <r_epik_State_Penalty>  (185) 
-0

>  <r_epik_Charging_Adjusted_Penalty>  (185) 
0.000267835

>  <i_epik_Tot_Q>  (185) 
1

>  <i_epik_Tot_abs_Q>  (185) 
1

>  <s_lp_Force_Field>  (185) 
OPLS3e

>  <r_lp_Energy>  (185) 
343.587

>  <b_lp_Chiralities_Consistent>  (185) 
1

>  <s_lp_Variant>  (185) 
52:0-1

>  <s_i_glide_gridfile>  (185) 
pfpi4k_grid

>  <i_i_glide_lignum>  (185) 
35

>  <i_i_glide_rotatable_bonds>  (185) 
1

>  <r_i_docking_score>  (185) 
-4.32441

>  <r_i_glide_ligand_efficiency>  (185) 
-0.308886

>  <r_i_glide_ligand_efficiency_sa>  (185) 
-0.74446

>  <r_i_glide_ligand_efficiency_ln>  (185) 
-1.18833

>  <r_i_glide_gscore>  (185) 
-4.32441

>  <r_i_glide_lipo>  (185) 
-0.37748

>  <r_i_glide_hbond>  (185) 
-0.162122

>  <r_i_glide_metal>  (185) 
-0

>  <r_i_glide_rewards>  (185) 
-2.1253

>  <r_i_glide_evdw>  (185) 
-17.6732

>  <r_i_glide_ecoul>  (185) 
-5.17228

>  <r_i_glide_erotb>  (185) 
0

>  <r_i_glide_esite>  (185) 
0

>  <r_i_glide_emodel>  (185) 
-30.0212

>  <r_i_glide_energy>  (185) 
-22.8454

>  <r_i_glide_einternal>  (185) 
0.633306

>  <r_i_glide_intrahb_reward>  (185) 
-0

>  <i_i_glide_confnum>  (185) 
2

>  <i_i_glide_posenum>  (185) 
37

>  <r_i_glide_eff_state_penalty>  (185) 
0

>  <ligand_id>  (185) 
52

>  <original_smiles>  (185) 
NCC1C2CC3C4C2C2C3C3C4C1C23

>  <smiles>  (185) 
[H]C1([H])C2([H])C3([H])C4([H])C5([H])C1([H])C([H])(C([H])([H])[N+]([H])([H])[H])C1([H])C([H])(C25[H])C3([H])C41[H]

$$$$
53:0:0
     RDKit          3D

 26 31  0  0  1  0  0  0  0  0999 V2000
    3.3040   -1.3102   -3.6536 C   0  0  0  0  0  0  0  0  0  0  0  0
    4.6098   -0.8769   -2.7357 C   0  0  1  0  0  0  0  0  0  0  0  0
    3.4938   -1.4752   -2.1646 C   0  0  1  0  0  0  0  0  0  0  0  0
    3.7589   -2.8365   -3.3448 C   0  0  1  0  0  0  0  0  0  0  0  0
    4.9358   -3.8288   -3.1930 C   0  0  0  0  0  0  0  0  0  0  0  0
    5.6100   -3.3847   -1.9947 C   0  0  1  0  0  0  0  0  0  0  0  0
    5.6156   -1.8266   -1.8522 C   0  0  2  0  0  0  0  0  0  0  0  0
    4.9544   -2.1629   -0.5105 C   0  0  2  0  0  0  0  0  0  0  0  0
    4.5777   -3.5674   -0.8932 C   0  0  1  0  0  0  0  0  0  0  0  0
    3.0744   -3.1444   -1.2487 C   0  0  2  0  0  0  0  0  0  0  0  0
    2.5960   -2.7069   -2.7774 C   0  0  1  0  0  0  0  0  0  0  0  0
    3.5559   -1.8608   -0.7541 C   0  0  2  0  0  0  0  0  0  0  0  0
    3.5571   -1.2998   -4.7391 H   0  0  0  0  0  0  0  0  0  0  0  0
    2.5706   -0.4919   -3.8423 H   0  0  0  0  0  0  0  0  0  0  0  0
    4.6560    0.1801   -2.4730 H   0  0  0  0  0  0  0  0  0  0  0  0
    2.6389   -0.7164   -1.8810 H   0  0  0  0  0  0  0  0  0  0  0  0
    3.3174   -3.2616   -4.2905 H   0  0  0  0  0  0  0  0  0  0  0  0
    4.6202   -4.8679   -3.1219 H   0  0  0  0  0  0  0  0  0  0  0  0
    5.6029   -3.7836   -4.0479 H   0  0  0  0  0  0  0  0  0  0  0  0
    6.5785   -3.8228   -1.7516 H   0  0  0  0  0  0  0  0  0  0  0  0
    6.6349   -1.4659   -1.7278 H   0  0  0  0  0  0  0  0  0  0  0  0
    5.4208   -1.9782    0.4539 H   0  0  0  0  0  0  0  0  0  0  0  0
    4.7520   -4.3127   -0.1228 H   0  0  0  0  0  0  0  0  0  0  0  0
    2.3227   -3.5743   -0.5800 H   0  0  0  0  0  0  0  0  0  0  0  0
    1.7484   -3.2479   -3.2152 H   0  0  0  0  0  0  0  0  0  0  0  0
    2.9881   -1.3393    0.0143 H   0  0  0  0  0  0  0  0  0  0  0  0
  1 11  1  0
  1  2  1  0
  1 13  1  0
  1 14  1  0
  2  7  1  0
  2  3  1  0
  2 15  1  1
  3 12  1  0
  3  4  1  0
  3 16  1  6
  4 11  1  0
  4  5  1  0
  4 17  1  6
  5  6  1  0
  5 18  1  0
  5 19  1  0
  6  9  1  0
  6  7  1  0
  6 20  1  1
  7  8  1  0
  7 21  1  1
  8 12  1  0
  8  9  1  0
  8 22  1  1
  9 10  1  0
  9 23  1  1
 10 11  1  0
 10 12  1  0
 10 24  1  1
 11 25  1  6
 12 26  1  1
M  END
>  <i_m_ct_stereo_status>  (186) 
1

>  <s_m_source_file>  (186) 
/var/tmp/pbs.5076255.sched01/tmpl63by5lx/41imve8rrw.sdf

>  <i_m_source_file_index>  (186) 
36

>  <i_lp_mmshare_version>  (186) 
48012

>  <i_f3d_flags>  (186) 
0

>  <s_epik_input>  (186) 
W0NAQEhdMTJbQ0BIXTNbQ0BASF00W0NASF0oW0NIMl0xKVtDQEhdNVtDQEhdNltDQEBIXShbQ0gyXTQpW0NAQEhdMltDQEhdNltDQEBIXTM1

>  <s_epik_cmdline>  (186) 
J2VwaWtfcHl0aG9uJywgJy1waHQnLCAnMi4wJywgJy1waCcsICc3LjAnLCAnLXRuJywgJzgnLCAnLW1hJywgJzIwMCcsICctaW1hZScsICc8aW5maWxlLm1hZT4nLCAnLW9tYWUnLCAnPG91dGZpbGUubWFlPic=

>  <r_lp_tautomer_probability>  (186) 
1

>  <r_epik_Ionization_Penalty>  (186) 
0

>  <r_epik_Ionization_Penalty_Charging>  (186) 
0

>  <r_epik_Ionization_Penalty_Neutral>  (186) 
0

>  <r_epik_State_Penalty>  (186) 
-0

>  <r_epik_Charging_Adjusted_Penalty>  (186) 
0

>  <i_epik_Tot_Q>  (186) 
0

>  <i_epik_Tot_abs_Q>  (186) 
0

>  <s_lp_Force_Field>  (186) 
OPLS3e

>  <r_lp_Energy>  (186) 
451.708

>  <b_lp_Chiralities_Consistent>  (186) 
1

>  <s_lp_Variant>  (186) 
53:0-1

>  <s_i_glide_gridfile>  (186) 
pfpi4k_grid

>  <i_i_glide_lignum>  (186) 
36

>  <i_i_glide_rotatable_bonds>  (186) 
0

>  <r_i_docking_score>  (186) 
-3.82647

>  <r_i_glide_ligand_efficiency>  (186) 
-0.318873

>  <r_i_glide_ligand_efficiency_sa>  (186) 
-0.730036

>  <r_i_glide_ligand_efficiency_ln>  (186) 
-1.09801

>  <r_i_glide_gscore>  (186) 
-3.82647

>  <r_i_glide_lipo>  (186) 
-0.649276

>  <r_i_glide_hbond>  (186) 
0

>  <r_i_glide_metal>  (186) 
-0

>  <r_i_glide_rewards>  (186) 
-2.25

>  <r_i_glide_evdw>  (186) 
-19.134

>  <r_i_glide_ecoul>  (186) 
0.196674

>  <r_i_glide_erotb>  (186) 
0

>  <r_i_glide_esite>  (186) 
0

>  <r_i_glide_emodel>  (186) 
-23.2832

>  <r_i_glide_energy>  (186) 
-18.9373

>  <r_i_glide_einternal>  (186) 
0

>  <r_i_glide_intrahb_reward>  (186) 
-0

>  <i_i_glide_confnum>  (186) 
2

>  <i_i_glide_posenum>  (186) 
7

>  <r_i_glide_eff_state_penalty>  (186) 
0

>  <ligand_id>  (186) 
53

>  <original_smiles>  (186) 
C1C2C3C4CC5C2C2C5C(C14)C32

>  <smiles>  (186) 
[H]C1([H])C2([H])C3([H])C4([H])C([H])([H])C5([H])C2([H])C2([H])C5([H])C([H])(C14[H])C32[H]

$$$$
53:0:1
     RDKit          3D

 26 31  0  0  1  0  0  0  0  0999 V2000
    4.7378   -2.8261   -2.8317 C   0  0  0  0  0  0  0  0  0  0  0  0
    6.1791   -3.0537   -2.0590 C   0  0  1  0  0  0  0  0  0  0  0  0
    5.2868   -2.0634   -1.6557 C   0  0  1  0  0  0  0  0  0  0  0  0
    4.0684   -3.3995   -1.4669 C   0  0  1  0  0  0  0  0  0  0  0  0
    4.1383   -4.4286   -0.3088 C   0  0  0  0  0  0  0  0  0  0  0  0
    5.3138   -4.0175    0.4300 C   0  0  1  0  0  0  0  0  0  0  0  0
    6.4678   -3.4739   -0.4924 C   0  0  2  0  0  0  0  0  0  0  0  0
    6.2989   -2.2468    0.4073 C   0  0  2  0  0  0  0  0  0  0  0  0
    4.9511   -2.6324    0.9373 C   0  0  1  0  0  0  0  0  0  0  0  0
    4.1806   -1.6725   -0.0864 C   0  0  2  0  0  0  0  0  0  0  0  0
    3.6403   -2.1827   -1.5667 C   0  0  1  0  0  0  0  0  0  0  0  0
    5.5549   -1.3176   -0.4269 C   0  0  2  0  0  0  0  0  0  0  0  0
    4.5011   -3.7013   -3.4858 H   0  0  0  0  0  0  0  0  0  0  0  0
    4.7637   -2.1708   -3.7363 H   0  0  0  0  0  0  0  0  0  0  0  0
    7.0465   -2.6332   -2.5615 H   0  0  0  0  0  0  0  0  0  0  0  0
    5.3866   -1.0406   -2.2387 H   0  0  0  0  0  0  0  0  0  0  0  0
    3.1713   -3.8286   -1.9860 H   0  0  0  0  0  0  0  0  0  0  0  0
    3.2329   -4.4444    0.2960 H   0  0  0  0  0  0  0  0  0  0  0  0
    4.2823   -5.4293   -0.7155 H   0  0  0  0  0  0  0  0  0  0  0  0
    5.6618   -4.6714    1.2290 H   0  0  0  0  0  0  0  0  0  0  0  0
    7.4064   -3.9952   -0.3094 H   0  0  0  0  0  0  0  0  0  0  0  0
    7.0589   -1.8962    1.1026 H   0  0  0  0  0  0  0  0  0  0  0  0
    4.8179   -2.4790    2.0003 H   0  0  0  0  0  0  0  0  0  0  0  0
    3.6559   -0.8388    0.3910 H   0  0  0  0  0  0  0  0  0  0  0  0
    2.5794   -2.0199   -1.8096 H   0  0  0  0  0  0  0  0  0  0  0  0
    5.8196   -0.2651   -0.4306 H   0  0  0  0  0  0  0  0  0  0  0  0
  1 11  1  0
  1  2  1  0
  1 13  1  0
  1 14  1  0
  2  7  1  0
  2  3  1  0
  2 15  1  6
  3 12  1  0
  3  4  1  0
  3 16  1  6
  4 11  1  0
  4  5  1  0
  4 17  1  6
  5  6  1  0
  5 18  1  0
  5 19  1  0
  6  9  1  0
  6  7  1  0
  6 20  1  1
  7  8  1  0
  7 21  1  6
  8 12  1  0
  8  9  1  0
  8 22  1  1
  9 10  1  0
  9 23  1  1
 10 11  1  0
 10 12  1  0
 10 24  1  1
 11 25  1  6
 12 26  1  6
M  END
>  <i_m_ct_stereo_status>  (187) 
1

>  <s_m_source_file>  (187) 
/var/tmp/pbs.5076255.sched01/tmpl63by5lx/41imve8rrw.sdf

>  <i_m_source_file_index>  (187) 
36

>  <i_lp_mmshare_version>  (187) 
48012

>  <i_f3d_flags>  (187) 
0

>  <s_epik_input>  (187) 
W0NAQEhdMTJbQ0BIXTNbQ0BASF00W0NASF0oW0NIMl0xKVtDQEhdNVtDQEhdNltDQEBIXShbQ0gyXTQpW0NAQEhdMltDQEhdNltDQEBIXTM1

>  <s_epik_cmdline>  (187) 
J2VwaWtfcHl0aG9uJywgJy1waHQnLCAnMi4wJywgJy1waCcsICc3LjAnLCAnLXRuJywgJzgnLCAnLW1hJywgJzIwMCcsICctaW1hZScsICc8aW5maWxlLm1hZT4nLCAnLW9tYWUnLCAnPG91dGZpbGUubWFlPic=

>  <r_lp_tautomer_probability>  (187) 
1

>  <r_epik_Ionization_Penalty>  (187) 
0

>  <r_epik_Ionization_Penalty_Charging>  (187) 
0

>  <r_epik_Ionization_Penalty_Neutral>  (187) 
0

>  <r_epik_State_Penalty>  (187) 
-0

>  <r_epik_Charging_Adjusted_Penalty>  (187) 
0

>  <i_epik_Tot_Q>  (187) 
0

>  <i_epik_Tot_abs_Q>  (187) 
0

>  <s_lp_Force_Field>  (187) 
OPLS3e

>  <r_lp_Energy>  (187) 
451.708

>  <b_lp_Chiralities_Consistent>  (187) 
1

>  <s_lp_Variant>  (187) 
53:0-1

>  <s_i_glide_gridfile>  (187) 
pfpi4k_grid

>  <i_i_glide_lignum>  (187) 
36

>  <i_i_glide_rotatable_bonds>  (187) 
0

>  <r_i_docking_score>  (187) 
-3.72585

>  <r_i_glide_ligand_efficiency>  (187) 
-0.310487

>  <r_i_glide_ligand_efficiency_sa>  (187) 
-0.710839

>  <r_i_glide_ligand_efficiency_ln>  (187) 
-1.06914

>  <r_i_glide_gscore>  (187) 
-3.72585

>  <r_i_glide_lipo>  (187) 
-0.507275

>  <r_i_glide_hbond>  (187) 
0

>  <r_i_glide_metal>  (187) 
-0

>  <r_i_glide_rewards>  (187) 
-2.25

>  <r_i_glide_evdw>  (187) 
-17.4522

>  <r_i_glide_ecoul>  (187) 
-0.63977

>  <r_i_glide_erotb>  (187) 
0

>  <r_i_glide_esite>  (187) 
0

>  <r_i_glide_emodel>  (187) 
-22.3604

>  <r_i_glide_energy>  (187) 
-18.0919

>  <r_i_glide_einternal>  (187) 
0

>  <r_i_glide_intrahb_reward>  (187) 
-0

>  <i_i_glide_confnum>  (187) 
1

>  <i_i_glide_posenum>  (187) 
32

>  <r_i_glide_eff_state_penalty>  (187) 
0

>  <ligand_id>  (187) 
53

>  <original_smiles>  (187) 
C1C2C3C4CC5C2C2C5C(C14)C32

>  <smiles>  (187) 
[H]C1([H])C2([H])C3([H])C4([H])C([H])([H])C5([H])C2([H])C2([H])C5([H])C([H])(C14[H])C32[H]

$$$$
53:0:2
     RDKit          3D

 26 31  0  0  1  0  0  0  0  0999 V2000
    3.8026   -4.4383    0.1928 C   0  0  0  0  0  0  0  0  0  0  0  0
    5.4078   -4.0232    0.1815 C   0  0  1  0  0  0  0  0  0  0  0  0
    4.6319   -3.9377   -0.9650 C   0  0  1  0  0  0  0  0  0  0  0  0
    3.5299   -2.8423   -0.0136 C   0  0  1  0  0  0  0  0  0  0  0  0
    3.9354   -1.3938    0.3492 C   0  0  0  0  0  0  0  0  0  0  0  0
    5.2527   -1.2480   -0.2426 C   0  0  1  0  0  0  0  0  0  0  0  0
    6.1089   -2.5735   -0.1589 C   0  0  2  0  0  0  0  0  0  0  0  0
    6.1548   -2.3726   -1.6849 C   0  0  2  0  0  0  0  0  0  0  0  0
    5.0000   -1.4048   -1.7375 C   0  0  1  0  0  0  0  0  0  0  0  0
    3.9586   -2.5500   -2.1720 C   0  0  2  0  0  0  0  0  0  0  0  0
    3.0633   -3.4201   -1.0799 C   0  0  1  0  0  0  0  0  0  0  0  0
    5.1861   -3.3380   -2.1797 C   0  0  2  0  0  0  0  0  0  0  0  0
    3.4297   -4.5142    1.2479 H   0  0  0  0  0  0  0  0  0  0  0  0
    3.5760   -5.5272    0.0531 H   0  0  0  0  0  0  0  0  0  0  0  0
    6.0995   -4.8633    0.1164 H   0  0  0  0  0  0  0  0  0  0  0  0
    4.5936   -4.9472   -1.5494 H   0  0  0  0  0  0  0  0  0  0  0  0
    2.5334   -2.8558    0.5180 H   0  0  0  0  0  0  0  0  0  0  0  0
    3.2165   -0.6642   -0.0154 H   0  0  0  0  0  0  0  0  0  0  0  0
    3.9943   -1.2829    1.4310 H   0  0  0  0  0  0  0  0  0  0  0  0
    5.8062   -0.3396    0.0013 H   0  0  0  0  0  0  0  0  0  0  0  0
    7.0778   -2.4051    0.3162 H   0  0  0  0  0  0  0  0  0  0  0  0
    7.0715   -2.1826   -2.2397 H   0  0  0  0  0  0  0  0  0  0  0  0
    5.1206   -0.5323   -2.3817 H   0  0  0  0  0  0  0  0  0  0  0  0
    3.5406   -2.4182   -3.1716 H   0  0  0  0  0  0  0  0  0  0  0  0
    1.9768   -3.4297   -1.2218 H   0  0  0  0  0  0  0  0  0  0  0  0
    5.4130   -3.9354   -3.0686 H   0  0  0  0  0  0  0  0  0  0  0  0
  1 11  1  0
  1  2  1  0
  1 13  1  0
  1 14  1  0
  2  7  1  0
  2  3  1  0
  2 15  1  6
  3 12  1  0
  3  4  1  0
  3 16  1  6
  4 11  1  0
  4  5  1  0
  4 17  1  1
  5  6  1  0
  5 18  1  0
  5 19  1  0
  6  9  1  0
  6  7  1  0
  6 20  1  6
  7  8  1  0
  7 21  1  1
  8 12  1  0
  8  9  1  0
  8 22  1  6
  9 10  1  0
  9 23  1  6
 10 11  1  0
 10 12  1  0
 10 24  1  6
 11 25  1  6
 12 26  1  6
M  END
>  <i_m_ct_stereo_status>  (188) 
1

>  <s_m_source_file>  (188) 
/var/tmp/pbs.5076255.sched01/tmpl63by5lx/41imve8rrw.sdf

>  <i_m_source_file_index>  (188) 
36

>  <i_lp_mmshare_version>  (188) 
48012

>  <i_f3d_flags>  (188) 
0

>  <s_epik_input>  (188) 
W0NAQEhdMTJbQ0BIXTNbQ0BASF00W0NASF0oW0NIMl0xKVtDQEhdNVtDQEhdNltDQEBIXShbQ0gyXTQpW0NAQEhdMltDQEhdNltDQEBIXTM1

>  <s_epik_cmdline>  (188) 
J2VwaWtfcHl0aG9uJywgJy1waHQnLCAnMi4wJywgJy1waCcsICc3LjAnLCAnLXRuJywgJzgnLCAnLW1hJywgJzIwMCcsICctaW1hZScsICc8aW5maWxlLm1hZT4nLCAnLW9tYWUnLCAnPG91dGZpbGUubWFlPic=

>  <r_lp_tautomer_probability>  (188) 
1

>  <r_epik_Ionization_Penalty>  (188) 
0

>  <r_epik_Ionization_Penalty_Charging>  (188) 
0

>  <r_epik_Ionization_Penalty_Neutral>  (188) 
0

>  <r_epik_State_Penalty>  (188) 
-0

>  <r_epik_Charging_Adjusted_Penalty>  (188) 
0

>  <i_epik_Tot_Q>  (188) 
0

>  <i_epik_Tot_abs_Q>  (188) 
0

>  <s_lp_Force_Field>  (188) 
OPLS3e

>  <r_lp_Energy>  (188) 
451.708

>  <b_lp_Chiralities_Consistent>  (188) 
1

>  <s_lp_Variant>  (188) 
53:0-1

>  <s_i_glide_gridfile>  (188) 
pfpi4k_grid

>  <i_i_glide_lignum>  (188) 
36

>  <i_i_glide_rotatable_bonds>  (188) 
0

>  <r_i_docking_score>  (188) 
-3.54734

>  <r_i_glide_ligand_efficiency>  (188) 
-0.295612

>  <r_i_glide_ligand_efficiency_sa>  (188) 
-0.676783

>  <r_i_glide_ligand_efficiency_ln>  (188) 
-1.01792

>  <r_i_glide_gscore>  (188) 
-3.54734

>  <r_i_glide_lipo>  (188) 
-0.311579

>  <r_i_glide_hbond>  (188) 
0

>  <r_i_glide_metal>  (188) 
-0

>  <r_i_glide_rewards>  (188) 
-2.25

>  <r_i_glide_evdw>  (188) 
-17.866

>  <r_i_glide_ecoul>  (188) 
-0.616432

>  <r_i_glide_erotb>  (188) 
0

>  <r_i_glide_esite>  (188) 
0

>  <r_i_glide_emodel>  (188) 
-22.5544

>  <r_i_glide_energy>  (188) 
-18.4824

>  <r_i_glide_einternal>  (188) 
0

>  <r_i_glide_intrahb_reward>  (188) 
-0

>  <i_i_glide_confnum>  (188) 
2

>  <i_i_glide_posenum>  (188) 
1

>  <r_i_glide_eff_state_penalty>  (188) 
0

>  <ligand_id>  (188) 
53

>  <original_smiles>  (188) 
C1C2C3C4CC5C2C2C5C(C14)C32

>  <smiles>  (188) 
[H]C1([H])C2([H])C3([H])C4([H])C([H])([H])C5([H])C2([H])C2([H])C5([H])C([H])(C14[H])C32[H]

$$$$
54:0:0
     RDKit          3D

 69 74  0  0  1  0  0  0  0  0999 V2000
    2.6955   -1.1404   -3.8263 C   0  0  0  0  0  0  0  0  0  0  0  0
    3.0379   -2.4954   -3.1880 C   0  0  0  0  0  0  0  0  0  0  0  0
    1.7819   -3.1969   -2.6829 C   0  0  0  0  0  0  0  0  0  0  0  0
    3.6364   -3.4459   -4.2343 C   0  0  0  0  0  0  0  0  0  0  0  0
    4.8148   -4.0055   -3.6838 O   0  0  0  0  0  0  0  0  0  0  0  0
    4.7702   -3.7617   -2.2968 C   0  0  1  0  0  0  0  0  0  0  0  0
    6.1238   -3.8066   -1.6324 C   0  0  0  0  0  0  0  0  0  0  0  0
    6.3601   -2.6937   -0.5972 C   0  0  2  0  0  0  0  0  0  0  0  0
    7.6104   -3.0357    0.2134 C   0  0  1  0  0  0  0  0  0  0  0  0
    8.8230   -3.4234   -0.6250 C   0  0  0  0  0  0  0  0  0  0  0  0
    8.0140   -1.7967    0.7383 O   0  0  0  0  0  0  0  0  0  0  0  0
    7.3167   -4.1181    1.2725 C   0  0  0  0  0  0  0  0  0  0  0  0
    6.0267   -3.9945    2.1300 C   0  0  2  0  0  0  0  0  0  0  0  0
    5.8713   -5.3750    2.8259 C   0  0  0  0  0  0  0  0  0  0  0  0
    4.4426   -5.7902    3.2305 C   0  0  1  0  0  0  0  0  0  0  0  0
    4.4674   -7.1911    3.9095 C   0  0  0  0  0  0  0  0  0  0  0  0
    5.0521   -8.1984    3.1005 O   0  0  0  0  0  0  0  0  0  0  0  0
    3.8985   -4.7587    4.2296 C   0  0  0  0  0  0  0  0  0  0  0  0
    2.9997   -3.8785    3.3782 C   0  0  2  0  0  0  0  0  0  0  0  0
    2.3946   -4.8528    2.5479 O   0  0  0  0  0  0  0  0  0  0  0  0
    3.4495   -5.6428    2.0239 C   0  0  2  0  0  0  0  0  0  0  0  0
    2.8270   -6.9319    1.4579 C   0  0  0  0  0  0  0  0  0  0  0  0
    4.0125   -4.7879    0.8727 C   0  0  0  0  0  0  0  0  0  0  0  0
    4.7250   -3.5100    1.4047 C   0  0  1  0  0  0  0  0  0  0  0  0
    3.7564   -2.8694    2.4892 C   0  0  1  0  0  0  0  0  0  0  0  0
    2.7348   -2.0406    1.9731 O   0  0  0  0  0  0  0  0  0  0  0  0
    5.0925   -2.4391    0.2804 C   0  0  1  0  0  0  0  0  0  0  0  0
    5.4112   -1.2259    0.9713 O   0  0  0  0  0  0  0  0  0  0  0  0
    3.8799   -2.1160   -0.6822 C   0  0  1  0  0  0  0  0  0  0  0  0
    3.5301   -0.7748   -0.5220 O   0  0  0  0  0  0  0  0  0  0  0  0
    4.1734   -2.3957   -2.1964 C   0  0  2  0  0  0  0  0  0  0  0  0
    1.9787   -1.2458   -4.6412 H   0  0  0  0  0  0  0  0  0  0  0  0
    3.5619   -0.6480   -4.2602 H   0  0  0  0  0  0  0  0  0  0  0  0
    2.2689   -0.4437   -3.0909 H   0  0  0  0  0  0  0  0  0  0  0  0
    1.9280   -4.1908   -2.2352 H   0  0  0  0  0  0  0  0  0  0  0  0
    1.0466   -3.1317   -3.5092 H   0  0  0  0  0  0  0  0  0  0  0  0
    1.2833   -2.6595   -1.9218 H   0  0  0  0  0  0  0  0  0  0  0  0
    2.8779   -4.1945   -4.4131 H   0  0  0  0  0  0  0  0  0  0  0  0
    3.8422   -2.8993   -5.1176 H   0  0  0  0  0  0  0  0  0  0  0  0
    4.1560   -4.5106   -1.8024 H   0  0  0  0  0  0  0  0  0  0  0  0
    6.1818   -4.7170   -1.1004 H   0  0  0  0  0  0  0  0  0  0  0  0
    6.8981   -3.8115   -2.3855 H   0  0  0  0  0  0  0  0  0  0  0  0
    6.5970   -1.8145   -1.2041 H   0  0  0  0  0  0  0  0  0  0  0  0
    8.7591   -4.4153   -1.0713 H   0  0  0  0  0  0  0  0  0  0  0  0
    9.7309   -3.4025   -0.0209 H   0  0  0  0  0  0  0  0  0  0  0  0
    8.9383   -2.6981   -1.4297 H   0  0  0  0  0  0  0  0  0  0  0  0
    7.3539   -1.5177    1.3600 H   0  0  0  0  0  0  0  0  0  0  0  0
    7.3362   -5.0827    0.7542 H   0  0  0  0  0  0  0  0  0  0  0  0
    8.1734   -4.2061    1.9294 H   0  0  0  0  0  0  0  0  0  0  0  0
    6.2074   -3.2378    2.8984 H   0  0  0  0  0  0  0  0  0  0  0  0
    6.2722   -6.1529    2.1708 H   0  0  0  0  0  0  0  0  0  0  0  0
    6.5101   -5.4038    3.7040 H   0  0  0  0  0  0  0  0  0  0  0  0
    5.0384   -7.1605    4.8383 H   0  0  0  0  0  0  0  0  0  0  0  0
    3.4602   -7.4983    4.1921 H   0  0  0  0  0  0  0  0  0  0  0  0
    4.8591   -9.0477    3.4712 H   0  0  0  0  0  0  0  0  0  0  0  0
    3.2845   -5.2548    4.9816 H   0  0  0  0  0  0  0  0  0  0  0  0
    4.6640   -4.2004    4.7716 H   0  0  0  0  0  0  0  0  0  0  0  0
    2.2514   -3.3838    3.9990 H   0  0  0  0  0  0  0  0  0  0  0  0
    3.5907   -7.5873    1.0400 H   0  0  0  0  0  0  0  0  0  0  0  0
    2.1306   -6.6984    0.6532 H   0  0  0  0  0  0  0  0  0  0  0  0
    2.2764   -7.4837    2.2178 H   0  0  0  0  0  0  0  0  0  0  0  0
    4.6751   -5.4015    0.2693 H   0  0  0  0  0  0  0  0  0  0  0  0
    3.1627   -4.5390    0.2482 H   0  0  0  0  0  0  0  0  0  0  0  0
    4.3303   -2.2108    3.1434 H   0  0  0  0  0  0  0  0  0  0  0  0
    3.1491   -1.3872    1.4248 H   0  0  0  0  0  0  0  0  0  0  0  0
    5.2428   -0.5453    0.3277 H   0  0  0  0  0  0  0  0  0  0  0  0
    2.9677   -2.6456   -0.4092 H   0  0  0  0  0  0  0  0  0  0  0  0
    2.6085   -0.7075   -0.7678 H   0  0  0  0  0  0  0  0  0  0  0  0
    4.9051   -1.6870   -2.6059 H   0  0  0  0  0  0  0  0  0  0  0  0
  1  2  1  0
  1 32  1  0
  1 33  1  0
  1 34  1  0
  2 31  1  0
  2  3  1  0
  2  4  1  0
  3 35  1  0
  3 36  1  0
  3 37  1  0
  4  5  1  0
  4 38  1  0
  4 39  1  0
  5  6  1  0
  6 31  1  0
  6  7  1  0
  6 40  1  1
  7  8  1  0
  7 41  1  0
  7 42  1  0
  8 27  1  0
  8  9  1  0
  8 43  1  6
  9 10  1  0
  9 11  1  1
  9 12  1  0
 10 44  1  0
 10 45  1  0
 10 46  1  0
 11 47  1  0
 12 13  1  0
 12 48  1  0
 12 49  1  0
 13 24  1  0
 13 14  1  0
 13 50  1  1
 14 15  1  0
 14 51  1  0
 14 52  1  0
 15 21  1  0
 15 16  1  1
 15 18  1  0
 16 17  1  0
 16 53  1  0
 16 54  1  0
 17 55  1  0
 18 19  1  0
 18 56  1  0
 18 57  1  0
 19 25  1  0
 19 20  1  0
 19 58  1  1
 20 21  1  0
 21 22  1  6
 21 23  1  0
 22 59  1  0
 22 60  1  0
 22 61  1  0
 24 23  1  6
 23 62  1  0
 23 63  1  0
 24 25  1  0
 24 27  1  0
 25 26  1  0
 25 64  1  1
 26 65  1  0
 27 28  1  1
 27 29  1  0
 28 66  1  0
 29 30  1  0
 29 31  1  0
 29 67  1  1
 30 68  1  0
 31 69  1  6
M  END
>  <i_m_ct_stereo_status>  (189) 
1

>  <s_m_source_file>  (189) 
/var/tmp/pbs.5076255.sched01/tmpl63by5lx/41imve8rrw.sdf

>  <i_m_source_file_index>  (189) 
37

>  <i_lp_mmshare_version>  (189) 
48012

>  <i_f3d_flags>  (189) 
0

>  <s_epik_input>  (189) 
W0NIM11DMShbQ0gzXSlbQ0gyXU9bQ0BASF0oW0NIMl0yKVtDQEBIXTFbQ0BIXShbT0hdKVtDQF0zKFtPSF0pW0NASF0yW0NAQF0oW0NIM10pKFtPSF0pW0NIMl1bQ0BASF0oW0NAQF0zNDUpW0NIMl1bQ0BdNihbQ0gyXVtPSF0pW0NAXShbQ0gzXSkoW0NIMl00KU9bQ0BASF0oW0NIMl02KVtDQEBIXTVbT0hd

>  <s_epik_cmdline>  (189) 
J2VwaWtfcHl0aG9uJywgJy1waHQnLCAnMi4wJywgJy1waCcsICc3LjAnLCAnLXRuJywgJzgnLCAnLW1hJywgJzIwMCcsICctaW1hZScsICc8aW5maWxlLm1hZT4nLCAnLW9tYWUnLCAnPG91dGZpbGUubWFlPic=

>  <r_lp_tautomer_probability>  (189) 
1

>  <r_epik_Ionization_Penalty>  (189) 
1.61968e-06

>  <r_epik_Ionization_Penalty_Charging>  (189) 
0

>  <r_epik_Ionization_Penalty_Neutral>  (189) 
1.61968e-06

>  <r_epik_State_Penalty>  (189) 
-0

>  <r_epik_Charging_Adjusted_Penalty>  (189) 
0

>  <i_epik_Tot_Q>  (189) 
0

>  <i_epik_Tot_abs_Q>  (189) 
0

>  <s_lp_Force_Field>  (189) 
OPLS3e

>  <r_lp_Energy>  (189) 
67.2492

>  <b_lp_Chiralities_Consistent>  (189) 
1

>  <s_lp_Variant>  (189) 
54:0-1

>  <s_i_glide_gridfile>  (189) 
pfpi4k_grid

>  <i_i_glide_lignum>  (189) 
37

>  <i_i_glide_rotatable_bonds>  (189) 
6

>  <r_i_docking_score>  (189) 
-2.57148

>  <r_i_glide_ligand_efficiency>  (189) 
-0.082951

>  <r_i_glide_ligand_efficiency_sa>  (189) 
-0.260581

>  <r_i_glide_ligand_efficiency_ln>  (189) 
-0.579947

>  <r_i_glide_gscore>  (189) 
-2.57148

>  <r_i_glide_lipo>  (189) 
-0.864065

>  <r_i_glide_hbond>  (189) 
0

>  <r_i_glide_metal>  (189) 
-0

>  <r_i_glide_rewards>  (189) 
-0.918948

>  <r_i_glide_evdw>  (189) 
-9.53874

>  <r_i_glide_ecoul>  (189) 
-2.76841

>  <r_i_glide_erotb>  (189) 
0.103732

>  <r_i_glide_esite>  (189) 
0

>  <r_i_glide_emodel>  (189) 
-15.0628

>  <r_i_glide_energy>  (189) 
-12.3072

>  <r_i_glide_einternal>  (189) 
2.64477

>  <r_i_glide_intrahb_reward>  (189) 
-0.5

>  <i_i_glide_confnum>  (189) 
6

>  <i_i_glide_posenum>  (189) 
4

>  <r_i_glide_eff_state_penalty>  (189) 
0

>  <ligand_id>  (189) 
54

>  <original_smiles>  (189) 
CC1(C)COC2CC3C(C)(O)CC4CC5(CO)CC6OC5(C)CC4(C6O)C3(O)C(O)C21

>  <smiles>  (189) 
[H]OC([H])([H])C12C([H])([H])C3([H])OC1(C([H])([H])[H])C([H])([H])C1(C3([H])O[H])C([H])(C([H])([H])C(O[H])(C([H])([H])[H])C3([H])C([H])([H])C4([H])OC([H])([H])C(C([H])([H])[H])(C([H])([H])[H])C4([H])C([H])(O[H])C31O[H])C2([H])[H]

$$$$
54:0:1
     RDKit          3D

 69 74  0  0  1  0  0  0  0  0999 V2000
    2.7005   -1.2566   -3.7676 C   0  0  0  0  0  0  0  0  0  0  0  0
    3.0588   -2.5658   -3.0830 C   0  0  0  0  0  0  0  0  0  0  0  0
    1.8276   -3.2257   -2.4580 C   0  0  0  0  0  0  0  0  0  0  0  0
    3.6455   -3.5693   -4.1143 C   0  0  0  0  0  0  0  0  0  0  0  0
    4.9049   -3.9657   -3.6077 O   0  0  0  0  0  0  0  0  0  0  0  0
    4.8480   -3.7504   -2.2198 C   0  0  1  0  0  0  0  0  0  0  0  0
    6.1797   -3.8195   -1.5244 C   0  0  0  0  0  0  0  0  0  0  0  0
    6.4223   -2.6539   -0.5730 C   0  0  2  0  0  0  0  0  0  0  0  0
    7.6912   -2.8783    0.2360 C   0  0  1  0  0  0  0  0  0  0  0  0
    8.9043   -3.2526   -0.6010 C   0  0  0  0  0  0  0  0  0  0  0  0
    8.1126   -1.6243    0.7149 O   0  0  0  0  0  0  0  0  0  0  0  0
    7.4438   -3.9478    1.3013 C   0  0  0  0  0  0  0  0  0  0  0  0
    6.1709   -3.8242    2.1831 C   0  0  2  0  0  0  0  0  0  0  0  0
    6.0797   -5.1730    2.9533 C   0  0  0  0  0  0  0  0  0  0  0  0
    4.6779   -5.6238    3.3870 C   0  0  1  0  0  0  0  0  0  0  0  0
    4.7593   -6.9987    4.1220 C   0  0  0  0  0  0  0  0  0  0  0  0
    5.3721   -8.0086    3.3469 O   0  0  0  0  0  0  0  0  0  0  0  0
    4.1202   -4.5847    4.3612 C   0  0  0  0  0  0  0  0  0  0  0  0
    3.1785   -3.7591    3.5036 C   0  0  2  0  0  0  0  0  0  0  0  0
    2.5874   -4.7736    2.7153 O   0  0  0  0  0  0  0  0  0  0  0  0
    3.6513   -5.5545    2.1994 C   0  0  2  0  0  0  0  0  0  0  0  0
    3.0681   -6.8752    1.6787 C   0  0  0  0  0  0  0  0  0  0  0  0
    4.1713   -4.7290    1.0088 C   0  0  0  0  0  0  0  0  0  0  0  0
    4.8415   -3.4089    1.4751 C   0  0  1  0  0  0  0  0  0  0  0  0
    3.8820   -2.7472    2.5660 C   0  0  1  0  0  0  0  0  0  0  0  0
    2.7921   -1.9827    2.0900 O   0  0  0  0  0  0  0  0  0  0  0  0
    5.1768   -2.3581    0.3281 C   0  0  1  0  0  0  0  0  0  0  0  0
    5.5444   -1.1650    1.0155 O   0  0  0  0  0  0  0  0  0  0  0  0
    3.9403   -2.0937   -0.6075 C   0  0  1  0  0  0  0  0  0  0  0  0
    3.5260   -0.7846   -0.3749 O   0  0  0  0  0  0  0  0  0  0  0  0
    4.2124   -2.3921   -2.1130 C   0  0  2  0  0  0  0  0  0  0  0  0
    1.9660   -1.4164   -4.5554 H   0  0  0  0  0  0  0  0  0  0  0  0
    3.5544   -0.7727   -4.2365 H   0  0  0  0  0  0  0  0  0  0  0  0
    2.2920   -0.5496   -3.0393 H   0  0  0  0  0  0  0  0  0  0  0  0
    2.0270   -4.2415   -2.1193 H   0  0  0  0  0  0  0  0  0  0  0  0
    1.1038   -3.2993   -3.2375 H   0  0  0  0  0  0  0  0  0  0  0  0
    1.3906   -2.6726   -1.6219 H   0  0  0  0  0  0  0  0  0  0  0  0
    2.9926   -4.4206   -4.2636 H   0  0  0  0  0  0  0  0  0  0  0  0
    3.7817   -3.1119   -5.0816 H   0  0  0  0  0  0  0  0  0  0  0  0
    4.2041   -4.4922   -1.7696 H   0  0  0  0  0  0  0  0  0  0  0  0
    6.2104   -4.7694   -1.0006 H   0  0  0  0  0  0  0  0  0  0  0  0
    6.9603   -3.8091   -2.2780 H   0  0  0  0  0  0  0  0  0  0  0  0
    6.6144   -1.7601   -1.1915 H   0  0  0  0  0  0  0  0  0  0  0  0
    8.8644   -4.2645   -1.0040 H   0  0  0  0  0  0  0  0  0  0  0  0
    9.8042   -3.1592    0.0103 H   0  0  0  0  0  0  0  0  0  0  0  0
    8.9416   -2.5350   -1.4186 H   0  0  0  0  0  0  0  0  0  0  0  0
    7.3781   -1.2592    1.2059 H   0  0  0  0  0  0  0  0  0  0  0  0
    7.4745   -4.9243    0.8105 H   0  0  0  0  0  0  0  0  0  0  0  0
    8.3175   -3.9912    1.9380 H   0  0  0  0  0  0  0  0  0  0  0  0
    6.2904   -3.0051    2.8918 H   0  0  0  0  0  0  0  0  0  0  0  0
    6.5027   -5.9642    2.3306 H   0  0  0  0  0  0  0  0  0  0  0  0
    6.7203   -5.1424    3.8304 H   0  0  0  0  0  0  0  0  0  0  0  0
    5.3381   -6.8989    5.0413 H   0  0  0  0  0  0  0  0  0  0  0  0
    3.7682   -7.3289    4.4286 H   0  0  0  0  0  0  0  0  0  0  0  0
    5.2302   -8.8530    3.7719 H   0  0  0  0  0  0  0  0  0  0  0  0
    3.5345   -5.0707    5.1401 H   0  0  0  0  0  0  0  0  0  0  0  0
    4.8800   -3.9898    4.8699 H   0  0  0  0  0  0  0  0  0  0  0  0
    2.4340   -3.2614    4.1198 H   0  0  0  0  0  0  0  0  0  0  0  0
    3.8531   -7.5125    1.2693 H   0  0  0  0  0  0  0  0  0  0  0  0
    2.3522   -6.6939    0.8754 H   0  0  0  0  0  0  0  0  0  0  0  0
    2.5474   -7.4231    2.4651 H   0  0  0  0  0  0  0  0  0  0  0  0
    4.8427   -5.3773    0.4537 H   0  0  0  0  0  0  0  0  0  0  0  0
    3.3091   -4.5496    0.3742 H   0  0  0  0  0  0  0  0  0  0  0  0
    4.4553   -2.0666    3.1983 H   0  0  0  0  0  0  0  0  0  0  0  0
    3.0962   -1.3489    1.4291 H   0  0  0  0  0  0  0  0  0  0  0  0
    4.7447   -0.6989    1.2316 H   0  0  0  0  0  0  0  0  0  0  0  0
    3.0798   -2.6849   -0.3174 H   0  0  0  0  0  0  0  0  0  0  0  0
    2.6735   -0.7009   -0.7988 H   0  0  0  0  0  0  0  0  0  0  0  0
    4.9116   -1.6833   -2.5549 H   0  0  0  0  0  0  0  0  0  0  0  0
  1  2  1  0
  1 32  1  0
  1 33  1  0
  1 34  1  0
  2 31  1  0
  2  3  1  0
  2  4  1  0
  3 35  1  0
  3 36  1  0
  3 37  1  0
  4  5  1  0
  4 38  1  0
  4 39  1  0
  5  6  1  0
  6 31  1  0
  6  7  1  0
  6 40  1  1
  7  8  1  0
  7 41  1  0
  7 42  1  0
  8 27  1  0
  8  9  1  0
  8 43  1  6
  9 10  1  0
  9 11  1  1
  9 12  1  0
 10 44  1  0
 10 45  1  0
 10 46  1  0
 11 47  1  0
 12 13  1  0
 12 48  1  0
 12 49  1  0
 13 24  1  0
 13 14  1  0
 13 50  1  1
 14 15  1  0
 14 51  1  0
 14 52  1  0
 15 21  1  0
 15 16  1  1
 15 18  1  0
 16 17  1  0
 16 53  1  0
 16 54  1  0
 17 55  1  0
 18 19  1  0
 18 56  1  0
 18 57  1  0
 19 25  1  0
 19 20  1  0
 19 58  1  1
 20 21  1  0
 21 22  1  6
 21 23  1  0
 22 59  1  0
 22 60  1  0
 22 61  1  0
 24 23  1  6
 23 62  1  0
 23 63  1  0
 24 25  1  0
 24 27  1  0
 25 26  1  0
 25 64  1  1
 26 65  1  0
 27 28  1  1
 27 29  1  0
 28 66  1  0
 29 30  1  0
 29 31  1  0
 29 67  1  1
 30 68  1  0
 31 69  1  6
M  END
>  <i_m_ct_stereo_status>  (190) 
1

>  <s_m_source_file>  (190) 
/var/tmp/pbs.5076255.sched01/tmpl63by5lx/41imve8rrw.sdf

>  <i_m_source_file_index>  (190) 
37

>  <i_lp_mmshare_version>  (190) 
48012

>  <i_f3d_flags>  (190) 
0

>  <s_epik_input>  (190) 
W0NIM11DMShbQ0gzXSlbQ0gyXU9bQ0BASF0oW0NIMl0yKVtDQEBIXTFbQ0BIXShbT0hdKVtDQF0zKFtPSF0pW0NASF0yW0NAQF0oW0NIM10pKFtPSF0pW0NIMl1bQ0BASF0oW0NAQF0zNDUpW0NIMl1bQ0BdNihbQ0gyXVtPSF0pW0NAXShbQ0gzXSkoW0NIMl00KU9bQ0BASF0oW0NIMl02KVtDQEBIXTVbT0hd

>  <s_epik_cmdline>  (190) 
J2VwaWtfcHl0aG9uJywgJy1waHQnLCAnMi4wJywgJy1waCcsICc3LjAnLCAnLXRuJywgJzgnLCAnLW1hJywgJzIwMCcsICctaW1hZScsICc8aW5maWxlLm1hZT4nLCAnLW9tYWUnLCAnPG91dGZpbGUubWFlPic=

>  <r_lp_tautomer_probability>  (190) 
1

>  <r_epik_Ionization_Penalty>  (190) 
1.61968e-06

>  <r_epik_Ionization_Penalty_Charging>  (190) 
0

>  <r_epik_Ionization_Penalty_Neutral>  (190) 
1.61968e-06

>  <r_epik_State_Penalty>  (190) 
-0

>  <r_epik_Charging_Adjusted_Penalty>  (190) 
0

>  <i_epik_Tot_Q>  (190) 
0

>  <i_epik_Tot_abs_Q>  (190) 
0

>  <s_lp_Force_Field>  (190) 
OPLS3e

>  <r_lp_Energy>  (190) 
67.2492

>  <b_lp_Chiralities_Consistent>  (190) 
1

>  <s_lp_Variant>  (190) 
54:0-1

>  <s_i_glide_gridfile>  (190) 
pfpi4k_grid

>  <i_i_glide_lignum>  (190) 
37

>  <i_i_glide_rotatable_bonds>  (190) 
6

>  <r_i_docking_score>  (190) 
-2.48848

>  <r_i_glide_ligand_efficiency>  (190) 
-0.0802735

>  <r_i_glide_ligand_efficiency_sa>  (190) 
-0.25217

>  <r_i_glide_ligand_efficiency_ln>  (190) 
-0.561228

>  <r_i_glide_gscore>  (190) 
-2.48848

>  <r_i_glide_lipo>  (190) 
-0.805523

>  <r_i_glide_hbond>  (190) 
0

>  <r_i_glide_metal>  (190) 
-0

>  <r_i_glide_rewards>  (190) 
-0.918948

>  <r_i_glide_evdw>  (190) 
-8.45093

>  <r_i_glide_ecoul>  (190) 
-2.96796

>  <r_i_glide_erotb>  (190) 
0.103732

>  <r_i_glide_esite>  (190) 
0

>  <r_i_glide_emodel>  (190) 
-14.7706

>  <r_i_glide_energy>  (190) 
-11.4189

>  <r_i_glide_einternal>  (190) 
2.04848

>  <r_i_glide_intrahb_reward>  (190) 
-0.5

>  <i_i_glide_confnum>  (190) 
6

>  <i_i_glide_posenum>  (190) 
29

>  <r_i_glide_eff_state_penalty>  (190) 
0

>  <ligand_id>  (190) 
54

>  <original_smiles>  (190) 
CC1(C)COC2CC3C(C)(O)CC4CC5(CO)CC6OC5(C)CC4(C6O)C3(O)C(O)C21

>  <smiles>  (190) 
[H]OC([H])([H])C12C([H])([H])C3([H])OC1(C([H])([H])[H])C([H])([H])C1(C3([H])O[H])C([H])(C([H])([H])C(O[H])(C([H])([H])[H])C3([H])C([H])([H])C4([H])OC([H])([H])C(C([H])([H])[H])(C([H])([H])[H])C4([H])C([H])(O[H])C31O[H])C2([H])[H]

$$$$
54:0:2
     RDKit          3D

 69 74  0  0  1  0  0  0  0  0999 V2000
    2.6221   -0.8853   -3.7425 C   0  0  0  0  0  0  0  0  0  0  0  0
    2.9651   -2.2923   -3.2150 C   0  0  0  0  0  0  0  0  0  0  0  0
    1.7541   -3.0888   -2.7444 C   0  0  0  0  0  0  0  0  0  0  0  0
    3.5701   -3.1099   -4.3528 C   0  0  0  0  0  0  0  0  0  0  0  0
    4.7203   -3.7481   -3.8395 O   0  0  0  0  0  0  0  0  0  0  0  0
    4.7325   -3.5721   -2.4425 C   0  0  1  0  0  0  0  0  0  0  0  0
    6.0885   -3.7145   -1.7864 C   0  0  0  0  0  0  0  0  0  0  0  0
    6.3459   -2.6908   -0.6823 C   0  0  2  0  0  0  0  0  0  0  0  0
    7.5933   -3.1141    0.0895 C   0  0  1  0  0  0  0  0  0  0  0  0
    8.8251   -3.4319   -0.7694 C   0  0  0  0  0  0  0  0  0  0  0  0
    8.0590   -1.9398    0.6729 O   0  0  0  0  0  0  0  0  0  0  0  0
    7.2957   -4.2861    1.0655 C   0  0  0  0  0  0  0  0  0  0  0  0
    6.0113   -4.2374    1.9500 C   0  0  2  0  0  0  0  0  0  0  0  0
    5.8325   -5.6823    2.5243 C   0  0  0  0  0  0  0  0  0  0  0  0
    4.3994   -6.1068    2.9194 C   0  0  1  0  0  0  0  0  0  0  0  0
    4.4400   -7.5730    3.4522 C   0  0  0  0  0  0  0  0  0  0  0  0
    3.2070   -8.0494    3.9673 O   0  0  0  0  0  0  0  0  0  0  0  0
    3.8774   -5.1470    3.9930 C   0  0  0  0  0  0  0  0  0  0  0  0
    2.9798   -4.2033    3.2071 C   0  0  2  0  0  0  0  0  0  0  0  0
    2.3739   -5.0946    2.2930 O   0  0  0  0  0  0  0  0  0  0  0  0
    3.4255   -5.8482    1.7257 C   0  0  2  0  0  0  0  0  0  0  0  0
    2.7905   -7.0488    1.0367 C   0  0  0  0  0  0  0  0  0  0  0  0
    3.9957   -4.9086    0.6420 C   0  0  0  0  0  0  0  0  0  0  0  0
    4.7107   -3.6766    1.2690 C   0  0  1  0  0  0  0  0  0  0  0  0
    3.7389   -3.1226    2.4062 C   0  0  1  0  0  0  0  0  0  0  0  0
    2.6886   -2.2566    1.9862 O   0  0  0  0  0  0  0  0  0  0  0  0
    5.0730   -2.5104    0.2329 C   0  0  1  0  0  0  0  0  0  0  0  0
    5.4340   -1.3836    1.0333 O   0  0  0  0  0  0  0  0  0  0  0  0
    3.8378   -2.1199   -0.6831 C   0  0  1  0  0  0  0  0  0  0  0  0
    3.3991   -0.8233   -0.3472 O   0  0  0  0  0  0  0  0  0  0  0  0
    4.1087   -2.2264   -2.2095 C   0  0  2  0  0  0  0  0  0  0  0  0
    1.9730   -0.9175   -4.6119 H   0  0  0  0  0  0  0  0  0  0  0  0
    3.5134   -0.3800   -4.1012 H   0  0  0  0  0  0  0  0  0  0  0  0
    2.2632   -0.2179   -2.9573 H   0  0  0  0  0  0  0  0  0  0  0  0
    1.9269   -4.1228   -2.4172 H   0  0  0  0  0  0  0  0  0  0  0  0
    1.0406   -3.0443   -3.5675 H   0  0  0  0  0  0  0  0  0  0  0  0
    1.3176   -2.6457   -1.8843 H   0  0  0  0  0  0  0  0  0  0  0  0
    2.8117   -3.8027   -4.7320 H   0  0  0  0  0  0  0  0  0  0  0  0
    3.9028   -2.4493   -5.1256 H   0  0  0  0  0  0  0  0  0  0  0  0
    4.1201   -4.3391   -1.9978 H   0  0  0  0  0  0  0  0  0  0  0  0
    6.0641   -4.6350   -1.2398 H   0  0  0  0  0  0  0  0  0  0  0  0
    6.8802   -3.7221   -2.5449 H   0  0  0  0  0  0  0  0  0  0  0  0
    6.5792   -1.7389   -1.1800 H   0  0  0  0  0  0  0  0  0  0  0  0
    8.7398   -4.3769   -1.3005 H   0  0  0  0  0  0  0  0  0  0  0  0
    9.7190   -3.4727   -0.1576 H   0  0  0  0  0  0  0  0  0  0  0  0
    9.0323   -2.6408   -1.4845 H   0  0  0  0  0  0  0  0  0  0  0  0
    8.7823   -2.1698    1.2148 H   0  0  0  0  0  0  0  0  0  0  0  0
    7.3033   -5.2140    0.4923 H   0  0  0  0  0  0  0  0  0  0  0  0
    8.1390   -4.4035    1.7402 H   0  0  0  0  0  0  0  0  0  0  0  0
    6.2384   -3.5674    2.7763 H   0  0  0  0  0  0  0  0  0  0  0  0
    6.2098   -6.4133    1.8095 H   0  0  0  0  0  0  0  0  0  0  0  0
    6.4755   -5.7845    3.3947 H   0  0  0  0  0  0  0  0  0  0  0  0
    4.7970   -8.2514    2.6738 H   0  0  0  0  0  0  0  0  0  0  0  0
    5.1570   -7.6500    4.2690 H   0  0  0  0  0  0  0  0  0  0  0  0
    3.2503   -8.9843    4.0650 H   0  0  0  0  0  0  0  0  0  0  0  0
    3.2578   -5.6734    4.7210 H   0  0  0  0  0  0  0  0  0  0  0  0
    4.6553   -4.6432    4.5633 H   0  0  0  0  0  0  0  0  0  0  0  0
    2.2247   -3.7708    3.8617 H   0  0  0  0  0  0  0  0  0  0  0  0
    3.5520   -7.6644    0.5507 H   0  0  0  0  0  0  0  0  0  0  0  0
    2.1046   -6.6146    0.3125 H   0  0  0  0  0  0  0  0  0  0  0  0
    2.2045   -7.6944    1.6947 H   0  0  0  0  0  0  0  0  0  0  0  0
    4.6394   -5.4871   -0.0125 H   0  0  0  0  0  0  0  0  0  0  0  0
    3.1461   -4.6178    0.0348 H   0  0  0  0  0  0  0  0  0  0  0  0
    4.3309   -2.5494    3.1187 H   0  0  0  0  0  0  0  0  0  0  0  0
    3.0039   -1.6245    1.3635 H   0  0  0  0  0  0  0  0  0  0  0  0
    4.6755   -1.0872    1.4824 H   0  0  0  0  0  0  0  0  0  0  0  0
    2.9519   -2.7003   -0.4662 H   0  0  0  0  0  0  0  0  0  0  0  0
    2.5401   -0.7050   -0.7363 H   0  0  0  0  0  0  0  0  0  0  0  0
    4.8464   -1.5030   -2.5600 H   0  0  0  0  0  0  0  0  0  0  0  0
  1  2  1  0
  1 32  1  0
  1 33  1  0
  1 34  1  0
  2 31  1  0
  2  3  1  0
  2  4  1  0
  3 35  1  0
  3 36  1  0
  3 37  1  0
  4  5  1  0
  4 38  1  0
  4 39  1  0
  5  6  1  0
  6 31  1  0
  6  7  1  0
  6 40  1  1
  7  8  1  0
  7 41  1  0
  7 42  1  0
  8 27  1  0
  8  9  1  0
  8 43  1  6
  9 10  1  0
  9 11  1  1
  9 12  1  0
 10 44  1  0
 10 45  1  0
 10 46  1  0
 11 47  1  0
 12 13  1  0
 12 48  1  0
 12 49  1  0
 13 24  1  0
 13 14  1  0
 13 50  1  1
 14 15  1  0
 14 51  1  0
 14 52  1  0
 15 21  1  0
 15 16  1  1
 15 18  1  0
 16 17  1  0
 16 53  1  0
 16 54  1  0
 17 55  1  0
 18 19  1  0
 18 56  1  0
 18 57  1  0
 19 25  1  0
 19 20  1  0
 19 58  1  1
 20 21  1  0
 21 22  1  6
 21 23  1  0
 22 59  1  0
 22 60  1  0
 22 61  1  0
 24 23  1  6
 23 62  1  0
 23 63  1  0
 24 25  1  0
 24 27  1  0
 25 26  1  0
 25 64  1  1
 26 65  1  0
 27 28  1  1
 27 29  1  0
 28 66  1  0
 29 30  1  0
 29 31  1  0
 29 67  1  1
 30 68  1  0
 31 69  1  6
M  END
>  <i_m_ct_stereo_status>  (191) 
1

>  <s_m_source_file>  (191) 
/var/tmp/pbs.5076255.sched01/tmpl63by5lx/41imve8rrw.sdf

>  <i_m_source_file_index>  (191) 
37

>  <i_lp_mmshare_version>  (191) 
48012

>  <i_f3d_flags>  (191) 
0

>  <s_epik_input>  (191) 
W0NIM11DMShbQ0gzXSlbQ0gyXU9bQ0BASF0oW0NIMl0yKVtDQEBIXTFbQ0BIXShbT0hdKVtDQF0zKFtPSF0pW0NASF0yW0NAQF0oW0NIM10pKFtPSF0pW0NIMl1bQ0BASF0oW0NAQF0zNDUpW0NIMl1bQ0BdNihbQ0gyXVtPSF0pW0NAXShbQ0gzXSkoW0NIMl00KU9bQ0BASF0oW0NIMl02KVtDQEBIXTVbT0hd

>  <s_epik_cmdline>  (191) 
J2VwaWtfcHl0aG9uJywgJy1waHQnLCAnMi4wJywgJy1waCcsICc3LjAnLCAnLXRuJywgJzgnLCAnLW1hJywgJzIwMCcsICctaW1hZScsICc8aW5maWxlLm1hZT4nLCAnLW9tYWUnLCAnPG91dGZpbGUubWFlPic=

>  <r_lp_tautomer_probability>  (191) 
1

>  <r_epik_Ionization_Penalty>  (191) 
1.61968e-06

>  <r_epik_Ionization_Penalty_Charging>  (191) 
0

>  <r_epik_Ionization_Penalty_Neutral>  (191) 
1.61968e-06

>  <r_epik_State_Penalty>  (191) 
-0

>  <r_epik_Charging_Adjusted_Penalty>  (191) 
0

>  <i_epik_Tot_Q>  (191) 
0

>  <i_epik_Tot_abs_Q>  (191) 
0

>  <s_lp_Force_Field>  (191) 
OPLS3e

>  <r_lp_Energy>  (191) 
67.2492

>  <b_lp_Chiralities_Consistent>  (191) 
1

>  <s_lp_Variant>  (191) 
54:0-1

>  <s_i_glide_gridfile>  (191) 
pfpi4k_grid

>  <i_i_glide_lignum>  (191) 
37

>  <i_i_glide_rotatable_bonds>  (191) 
6

>  <r_i_docking_score>  (191) 
-2.13244

>  <r_i_glide_ligand_efficiency>  (191) 
-0.0687884

>  <r_i_glide_ligand_efficiency_sa>  (191) 
-0.216091

>  <r_i_glide_ligand_efficiency_ln>  (191) 
-0.480931

>  <r_i_glide_gscore>  (191) 
-2.13244

>  <r_i_glide_lipo>  (191) 
-0.902856

>  <r_i_glide_hbond>  (191) 
0

>  <r_i_glide_metal>  (191) 
-0

>  <r_i_glide_rewards>  (191) 
-0.418948

>  <r_i_glide_evdw>  (191) 
-11.4925

>  <r_i_glide_ecoul>  (191) 
-2.26495

>  <r_i_glide_erotb>  (191) 
0.103732

>  <r_i_glide_esite>  (191) 
0

>  <r_i_glide_emodel>  (191) 
-11.3718

>  <r_i_glide_energy>  (191) 
-13.7575

>  <r_i_glide_einternal>  (191) 
2.27164

>  <r_i_glide_intrahb_reward>  (191) 
-0

>  <i_i_glide_confnum>  (191) 
5

>  <i_i_glide_posenum>  (191) 
9

>  <r_i_glide_eff_state_penalty>  (191) 
0

>  <ligand_id>  (191) 
54

>  <original_smiles>  (191) 
CC1(C)COC2CC3C(C)(O)CC4CC5(CO)CC6OC5(C)CC4(C6O)C3(O)C(O)C21

>  <smiles>  (191) 
[H]OC([H])([H])C12C([H])([H])C3([H])OC1(C([H])([H])[H])C([H])([H])C1(C3([H])O[H])C([H])(C([H])([H])C(O[H])(C([H])([H])[H])C3([H])C([H])([H])C4([H])OC([H])([H])C(C([H])([H])[H])(C([H])([H])[H])C4([H])C([H])(O[H])C31O[H])C2([H])[H]

$$$$
55:0:0
     RDKit          3D

 72 75  0  0  1  0  0  0  0  0999 V2000
    5.9469   -8.7917    2.2495 C   0  0  0  0  0  0  0  0  0  0  0  0
    4.4893   -8.2942    2.2349 C   0  0  0  0  0  0  0  0  0  0  0  0
    3.5275   -9.4304    2.6082 C   0  0  0  0  0  0  0  0  0  0  0  0
    4.0889   -7.6542    0.8839 C   0  0  0  0  0  0  0  0  0  0  0  0
    4.8887   -6.3990    0.4929 C   0  0  0  0  0  0  0  0  0  0  0  0
    4.6318   -5.1838    1.4094 C   0  0  0  0  0  0  0  0  0  0  0  0
    5.5886   -3.9832    1.1872 C   0  0  2  0  0  0  0  0  0  0  0  0
    7.0595   -4.3912    1.4308 C   0  0  0  0  0  0  0  0  0  0  0  0
    5.2436   -2.7040    2.0277 C   0  0  2  0  0  0  0  0  0  0  0  0
    5.1329   -2.9629    3.5486 C   0  0  0  0  0  0  0  0  0  0  0  0
    3.6783   -2.6881    3.9624 C   0  0  0  0  0  0  0  0  0  0  0  0
    2.8948   -2.3884    2.6733 C   0  0  1  0  0  0  0  0  0  0  0  0
    1.6343   -1.4794    2.8268 C   0  0  1  0  0  0  0  0  0  0  0  0
    0.6707   -2.0276    3.9025 C   0  0  0  0  0  0  0  0  0  0  0  0
   -0.3508   -1.0248    4.3988 C   0  0  0  0  0  0  0  0  0  0  0  0
   -0.3805    0.2789    4.0649 C   0  0  0  0  0  0  0  0  0  0  0  0
   -1.5342    1.1586    4.5477 C   0  0  0  0  0  0  0  0  0  0  0  0
   -1.0647    2.5322    5.0083 C   0  0  0  0  0  0  0  0  0  0  0  0
   -1.5106    3.0600    6.0261 O   0  0  0  0  0  0  0  0  0  0  0  0
   -0.0724    3.2438    4.1027 C   0  0  0  0  0  0  0  0  0  0  0  0
    1.0995    2.3120    3.7529 C   0  0  0  0  0  0  0  0  0  0  0  0
    0.6787    0.9308    3.1582 C   0  0  2  0  0  0  0  0  0  0  0  0
    0.0178    1.1508    1.7786 C   0  0  0  0  0  0  0  0  0  0  0  0
    1.9621    0.0172    3.0519 C   0  0  2  0  0  0  0  0  0  0  0  0
    2.9820    0.4936    1.9904 C   0  0  0  0  0  0  0  0  0  0  0  0
    4.2424   -0.3851    1.9666 C   0  0  0  0  0  0  0  0  0  0  0  0
    3.9611   -1.8824    1.6745 C   0  0  1  0  0  0  0  0  0  0  0  0
    3.5228   -2.0462    0.2057 C   0  0  0  0  0  0  0  0  0  0  0  0
    6.1247   -9.5323    1.4692 H   0  0  0  0  0  0  0  0  0  0  0  0
    6.1885   -9.2510    3.2075 H   0  0  0  0  0  0  0  0  0  0  0  0
    6.6565   -7.9771    2.1087 H   0  0  0  0  0  0  0  0  0  0  0  0
    4.3892   -7.5535    3.0287 H   0  0  0  0  0  0  0  0  0  0  0  0
    3.5622  -10.2455    1.8835 H   0  0  0  0  0  0  0  0  0  0  0  0
    2.5003   -9.0687    2.6601 H   0  0  0  0  0  0  0  0  0  0  0  0
    3.7769   -9.8399    3.5873 H   0  0  0  0  0  0  0  0  0  0  0  0
    4.2207   -8.4004    0.0978 H   0  0  0  0  0  0  0  0  0  0  0  0
    3.0269   -7.4045    0.8951 H   0  0  0  0  0  0  0  0  0  0  0  0
    5.9395   -6.6654    0.4787 H   0  0  0  0  0  0  0  0  0  0  0  0
    4.6401   -6.1271   -0.5346 H   0  0  0  0  0  0  0  0  0  0  0  0
    3.5995   -4.8834    1.2497 H   0  0  0  0  0  0  0  0  0  0  0  0
    4.6933   -5.4847    2.4516 H   0  0  0  0  0  0  0  0  0  0  0  0
    5.5406   -3.7179    0.1320 H   0  0  0  0  0  0  0  0  0  0  0  0
    7.2037   -4.8017    2.4312 H   0  0  0  0  0  0  0  0  0  0  0  0
    7.7318   -3.5410    1.3099 H   0  0  0  0  0  0  0  0  0  0  0  0
    7.4074   -5.1418    0.7221 H   0  0  0  0  0  0  0  0  0  0  0  0
    6.0928   -2.0367    1.8747 H   0  0  0  0  0  0  0  0  0  0  0  0
    5.4506   -3.9630    3.8404 H   0  0  0  0  0  0  0  0  0  0  0  0
    5.7862   -2.2747    4.0873 H   0  0  0  0  0  0  0  0  0  0  0  0
    3.2543   -3.5395    4.4964 H   0  0  0  0  0  0  0  0  0  0  0  0
    3.6543   -1.8364    4.6429 H   0  0  0  0  0  0  0  0  0  0  0  0
    2.5307   -3.3495    2.3148 H   0  0  0  0  0  0  0  0  0  0  0  0
    1.1063   -1.5324    1.8728 H   0  0  0  0  0  0  0  0  0  0  0  0
    0.1429   -2.8845    3.4864 H   0  0  0  0  0  0  0  0  0  0  0  0
    1.2029   -2.3818    4.7837 H   0  0  0  0  0  0  0  0  0  0  0  0
   -1.1279   -1.4351    5.0244 H   0  0  0  0  0  0  0  0  0  0  0  0
   -2.2351    1.3093    3.7328 H   0  0  0  0  0  0  0  0  0  0  0  0
   -2.0695    0.6677    5.3576 H   0  0  0  0  0  0  0  0  0  0  0  0
   -0.5909    3.5575    3.1978 H   0  0  0  0  0  0  0  0  0  0  0  0
    0.2913    4.1462    4.5903 H   0  0  0  0  0  0  0  0  0  0  0  0
    1.7492    2.8451    3.0580 H   0  0  0  0  0  0  0  0  0  0  0  0
    1.6905    2.1594    4.6566 H   0  0  0  0  0  0  0  0  0  0  0  0
    0.6458    1.7297    1.1081 H   0  0  0  0  0  0  0  0  0  0  0  0
   -0.9249    1.6927    1.8547 H   0  0  0  0  0  0  0  0  0  0  0  0
   -0.1974    0.2020    1.2918 H   0  0  0  0  0  0  0  0  0  0  0  0
    2.4630    0.0812    4.0188 H   0  0  0  0  0  0  0  0  0  0  0  0
    2.5321    0.5052    0.9976 H   0  0  0  0  0  0  0  0  0  0  0  0
    3.2897    1.5164    2.1949 H   0  0  0  0  0  0  0  0  0  0  0  0
    4.9359    0.0112    1.2246 H   0  0  0  0  0  0  0  0  0  0  0  0
    4.7413   -0.2756    2.9286 H   0  0  0  0  0  0  0  0  0  0  0  0
    2.6333   -1.4604   -0.0044 H   0  0  0  0  0  0  0  0  0  0  0  0
    3.2697   -3.0707   -0.0483 H   0  0  0  0  0  0  0  0  0  0  0  0
    4.3039   -1.7210   -0.4779 H   0  0  0  0  0  0  0  0  0  0  0  0
  1  2  1  0
  1 29  1  0
  1 30  1  0
  1 31  1  0
  2  3  1  0
  2  4  1  0
  2 32  1  0
  3 33  1  0
  3 34  1  0
  3 35  1  0
  4  5  1  0
  4 36  1  0
  4 37  1  0
  5  6  1  0
  5 38  1  0
  5 39  1  0
  6  7  1  0
  6 40  1  0
  6 41  1  0
  7  8  1  0
  7  9  1  0
  7 42  1  6
  8 43  1  0
  8 44  1  0
  8 45  1  0
  9 27  1  0
  9 10  1  0
  9 46  1  1
 10 11  1  0
 10 47  1  0
 10 48  1  0
 11 12  1  0
 11 49  1  0
 11 50  1  0
 12 27  1  0
 12 13  1  0
 12 51  1  6
 13 24  1  0
 13 14  1  0
 13 52  1  6
 14 15  1  0
 14 53  1  0
 14 54  1  0
 15 16  2  0
 15 55  1  0
 16 22  1  0
 16 17  1  0
 17 18  1  0
 17 56  1  0
 17 57  1  0
 18 19  2  0
 18 20  1  0
 20 21  1  0
 20 58  1  0
 20 59  1  0
 21 22  1  0
 21 60  1  0
 21 61  1  0
 22 23  1  6
 22 24  1  0
 23 62  1  0
 23 63  1  0
 23 64  1  0
 24 25  1  0
 24 65  1  1
 25 26  1  0
 25 66  1  0
 25 67  1  0
 26 27  1  0
 26 68  1  0
 26 69  1  0
 27 28  1  6
 28 70  1  0
 28 71  1  0
 28 72  1  0
M  END
>  <i_m_ct_stereo_status>  (192) 
1

>  <s_m_source_file>  (192) 
/var/tmp/pbs.5076255.sched01/tmpl63by5lx/41imve8rrw.sdf

>  <i_m_source_file_index>  (192) 
38

>  <i_lp_mmshare_version>  (192) 
48012

>  <i_f3d_flags>  (192) 
0

>  <s_epik_input>  (192) 
W0NIM11bQ0hdKFtDSDNdKVtDSDJdW0NIMl1bQ0gyXVtDQEhdKFtDSDNdKVtDQEhdKFtDSDJdW0NIMl0xKVtDQF0oW0NIM10pKFtDSDJdW0NIMl1bQ0BIXTIzKVtDQEBIXTFbQ0BIXTJbQ0gyXVtDSF09QyhbQ0BdMzRbQ0gzXSlbQ0gyXUMoPU8pW0NIMl1bQ0gyXTQ=

>  <s_epik_cmdline>  (192) 
J2VwaWtfcHl0aG9uJywgJy1waHQnLCAnMi4wJywgJy1waCcsICc3LjAnLCAnLXRuJywgJzgnLCAnLW1hJywgJzIwMCcsICctaW1hZScsICc8aW5maWxlLm1hZT4nLCAnLW9tYWUnLCAnPG91dGZpbGUubWFlPic=

>  <r_lp_tautomer_probability>  (192) 
1

>  <r_epik_Ionization_Penalty>  (192) 
1.69973e-13

>  <r_epik_Ionization_Penalty_Charging>  (192) 
0

>  <r_epik_Ionization_Penalty_Neutral>  (192) 
1.69973e-13

>  <r_epik_State_Penalty>  (192) 
-0

>  <r_epik_Charging_Adjusted_Penalty>  (192) 
0

>  <i_epik_Tot_Q>  (192) 
0

>  <i_epik_Tot_abs_Q>  (192) 
0

>  <s_lp_Force_Field>  (192) 
OPLS3e

>  <r_lp_Energy>  (192) 
46.7123

>  <b_lp_Chiralities_Consistent>  (192) 
1

>  <s_lp_Variant>  (192) 
55:0-1

>  <s_i_glide_gridfile>  (192) 
pfpi4k_grid

>  <i_i_glide_lignum>  (192) 
38

>  <i_i_glide_rotatable_bonds>  (192) 
5

>  <r_i_docking_score>  (192) 
-2.35928

>  <r_i_glide_ligand_efficiency>  (192) 
-0.0842602

>  <r_i_glide_ligand_efficiency_sa>  (192) 
-0.255864

>  <r_i_glide_ligand_efficiency_ln>  (192) 
-0.544592

>  <r_i_glide_gscore>  (192) 
-2.35928

>  <r_i_glide_lipo>  (192) 
-0.738723

>  <r_i_glide_hbond>  (192) 
0

>  <r_i_glide_metal>  (192) 
-0

>  <r_i_glide_rewards>  (192) 
-0.786561

>  <r_i_glide_evdw>  (192) 
-23.2933

>  <r_i_glide_ecoul>  (192) 
-1.2386

>  <r_i_glide_erotb>  (192) 
0.525723

>  <r_i_glide_esite>  (192) 
-0.0092678

>  <r_i_glide_emodel>  (192) 
-27.5438

>  <r_i_glide_energy>  (192) 
-24.5319

>  <r_i_glide_einternal>  (192) 
1.3391

>  <r_i_glide_intrahb_reward>  (192) 
-0

>  <i_i_glide_confnum>  (192) 
3

>  <i_i_glide_posenum>  (192) 
36

>  <r_i_glide_eff_state_penalty>  (192) 
0

>  <ligand_id>  (192) 
55

>  <original_smiles>  (192) 
CC(C)CCCC(C)C1CCC2C3CC=C4CC(=O)CCC4(C)C3CCC12C

>  <smiles>  (192) 
[H]C1=C2C([H])([H])C(=O)C([H])([H])C([H])([H])C2(C([H])([H])[H])C2([H])C([H])([H])C([H])([H])C3(C([H])([H])[H])C([H])(C([H])(C([H])([H])[H])C([H])([H])C([H])([H])C([H])([H])C([H])(C([H])([H])[H])C([H])([H])[H])C([H])([H])C([H])([H])C3([H])C2([H])C1([H])[H]

$$$$
55:0:1
     RDKit          3D

 72 75  0  0  1  0  0  0  0  0999 V2000
    0.3087   -9.8079    3.0687 C   0  0  0  0  0  0  0  0  0  0  0  0
   -0.2923   -8.3926    3.0872 C   0  0  0  0  0  0  0  0  0  0  0  0
   -1.8100   -8.4542    2.8591 C   0  0  0  0  0  0  0  0  0  0  0  0
    0.3873   -7.4548    2.0668 C   0  0  0  0  0  0  0  0  0  0  0  0
    1.8717   -7.1468    2.3563 C   0  0  0  0  0  0  0  0  0  0  0  0
    2.0487   -6.1361    3.5072 C   0  0  0  0  0  0  0  0  0  0  0  0
    3.4831   -5.5570    3.6242 C   0  0  2  0  0  0  0  0  0  0  0  0
    4.3528   -6.4908    4.4968 C   0  0  0  0  0  0  0  0  0  0  0  0
    3.5923   -4.0693    4.0983 C   0  0  2  0  0  0  0  0  0  0  0  0
    3.1124   -3.8357    5.5462 C   0  0  0  0  0  0  0  0  0  0  0  0
    1.8983   -2.9024    5.4922 C   0  0  0  0  0  0  0  0  0  0  0  0
    1.5682   -2.6815    4.0061 C   0  0  1  0  0  0  0  0  0  0  0  0
    0.8445   -1.3545    3.6509 C   0  0  1  0  0  0  0  0  0  0  0  0
   -0.4420   -1.1810    4.4876 C   0  0  0  0  0  0  0  0  0  0  0  0
   -0.9936    0.2274    4.4912 C   0  0  0  0  0  0  0  0  0  0  0  0
   -0.3838    1.2948    3.9481 C   0  0  0  0  0  0  0  0  0  0  0  0
   -1.0945    2.6468    3.9388 C   0  0  0  0  0  0  0  0  0  0  0  0
   -0.1594    3.7982    4.2784 C   0  0  0  0  0  0  0  0  0  0  0  0
   -0.5112    4.7085    5.0261 O   0  0  0  0  0  0  0  0  0  0  0  0
    1.1997    3.7934    3.5923 C   0  0  0  0  0  0  0  0  0  0  0  0
    1.8794    2.4242    3.7334 C   0  0  0  0  0  0  0  0  0  0  0  0
    1.0037    1.2131    3.2835 C   0  0  2  0  0  0  0  0  0  0  0  0
    0.7664    1.2787    1.7585 C   0  0  0  0  0  0  0  0  0  0  0  0
    1.7539   -0.1102    3.7022 C   0  0  2  0  0  0  0  0  0  0  0  0
    3.0486   -0.3798    2.8933 C   0  0  0  0  0  0  0  0  0  0  0  0
    3.7686   -1.6553    3.3630 C   0  0  0  0  0  0  0  0  0  0  0  0
    2.9024   -2.9398    3.2589 C   0  0  1  0  0  0  0  0  0  0  0  0
    2.7102   -3.3010    1.7664 C   0  0  0  0  0  0  0  0  0  0  0  0
    0.2211  -10.2667    2.0811 H   0  0  0  0  0  0  0  0  0  0  0  0
   -0.1975  -10.4595    3.7765 H   0  0  0  0  0  0  0  0  0  0  0  0
    1.3607   -9.8110    3.3439 H   0  0  0  0  0  0  0  0  0  0  0  0
   -0.1425   -7.9829    4.0870 H   0  0  0  0  0  0  0  0  0  0  0  0
   -2.0492   -8.8693    1.8797 H   0  0  0  0  0  0  0  0  0  0  0  0
   -2.2671   -7.4677    2.9313 H   0  0  0  0  0  0  0  0  0  0  0  0
   -2.2806   -9.0854    3.6123 H   0  0  0  0  0  0  0  0  0  0  0  0
    0.2915   -7.8714    1.0647 H   0  0  0  0  0  0  0  0  0  0  0  0
   -0.1691   -6.5182    2.0158 H   0  0  0  0  0  0  0  0  0  0  0  0
    2.4552   -8.0511    2.5299 H   0  0  0  0  0  0  0  0  0  0  0  0
    2.2839   -6.7158    1.4465 H   0  0  0  0  0  0  0  0  0  0  0  0
    1.3374   -5.3461    3.3120 H   0  0  0  0  0  0  0  0  0  0  0  0
    1.7362   -6.5676    4.4618 H   0  0  0  0  0  0  0  0  0  0  0  0
    3.9346   -5.5782    2.6337 H   0  0  0  0  0  0  0  0  0  0  0  0
    3.9432   -6.6168    5.5007 H   0  0  0  0  0  0  0  0  0  0  0  0
    5.3689   -6.1088    4.6115 H   0  0  0  0  0  0  0  0  0  0  0  0
    4.4214   -7.4902    4.0657 H   0  0  0  0  0  0  0  0  0  0  0  0
    4.6661   -3.8699    4.0791 H   0  0  0  0  0  0  0  0  0  0  0  0
    2.8699   -4.7607    6.0674 H   0  0  0  0  0  0  0  0  0  0  0  0
    3.9106   -3.3530    6.1149 H   0  0  0  0  0  0  0  0  0  0  0  0
    1.0543   -3.3483    6.0169 H   0  0  0  0  0  0  0  0  0  0  0  0
    2.1441   -1.9670    5.9971 H   0  0  0  0  0  0  0  0  0  0  0  0
    0.8462   -3.4464    3.7376 H   0  0  0  0  0  0  0  0  0  0  0  0
    0.5429   -1.4564    2.6102 H   0  0  0  0  0  0  0  0  0  0  0  0
   -1.2092   -1.8437    4.0874 H   0  0  0  0  0  0  0  0  0  0  0  0
   -0.2897   -1.4557    5.5303 H   0  0  0  0  0  0  0  0  0  0  0  0
   -1.9727    0.3347    4.9360 H   0  0  0  0  0  0  0  0  0  0  0  0
   -1.5197    2.8322    2.9569 H   0  0  0  0  0  0  0  0  0  0  0  0
   -1.9161    2.6328    4.6526 H   0  0  0  0  0  0  0  0  0  0  0  0
    1.0540    4.0200    2.5402 H   0  0  0  0  0  0  0  0  0  0  0  0
    1.8316    4.5791    4.0009 H   0  0  0  0  0  0  0  0  0  0  0  0
    2.8093    2.4526    3.1629 H   0  0  0  0  0  0  0  0  0  0  0  0
    2.1750    2.2980    4.7745 H   0  0  0  0  0  0  0  0  0  0  0  0
    1.7044    1.3431    1.2156 H   0  0  0  0  0  0  0  0  0  0  0  0
    0.1729    2.1399    1.4740 H   0  0  0  0  0  0  0  0  0  0  0  0
    0.2327    0.3997    1.3958 H   0  0  0  0  0  0  0  0  0  0  0  0
    2.0516    0.0202    4.7422 H   0  0  0  0  0  0  0  0  0  0  0  0
    2.8339   -0.4675    1.8269 H   0  0  0  0  0  0  0  0  0  0  0  0
    3.7400    0.4567    2.9939 H   0  0  0  0  0  0  0  0  0  0  0  0
    4.6849   -1.7766    2.7841 H   0  0  0  0  0  0  0  0  0  0  0  0
    4.0870   -1.4935    4.3923 H   0  0  0  0  0  0  0  0  0  0  0  0
    2.2270   -2.4990    1.2123 H   0  0  0  0  0  0  0  0  0  0  0  0
    2.0917   -4.1790    1.6171 H   0  0  0  0  0  0  0  0  0  0  0  0
    3.6671   -3.4955    1.2855 H   0  0  0  0  0  0  0  0  0  0  0  0
  1  2  1  0
  1 29  1  0
  1 30  1  0
  1 31  1  0
  2  3  1  0
  2  4  1  0
  2 32  1  0
  3 33  1  0
  3 34  1  0
  3 35  1  0
  4  5  1  0
  4 36  1  0
  4 37  1  0
  5  6  1  0
  5 38  1  0
  5 39  1  0
  6  7  1  0
  6 40  1  0
  6 41  1  0
  7  8  1  0
  7  9  1  0
  7 42  1  6
  8 43  1  0
  8 44  1  0
  8 45  1  0
  9 27  1  0
  9 10  1  0
  9 46  1  1
 10 11  1  0
 10 47  1  0
 10 48  1  0
 11 12  1  0
 11 49  1  0
 11 50  1  0
 12 27  1  0
 12 13  1  0
 12 51  1  6
 13 24  1  0
 13 14  1  0
 13 52  1  6
 14 15  1  0
 14 53  1  0
 14 54  1  0
 15 16  2  0
 15 55  1  0
 16 22  1  0
 16 17  1  0
 17 18  1  0
 17 56  1  0
 17 57  1  0
 18 19  2  0
 18 20  1  0
 20 21  1  0
 20 58  1  0
 20 59  1  0
 21 22  1  0
 21 60  1  0
 21 61  1  0
 22 23  1  6
 22 24  1  0
 23 62  1  0
 23 63  1  0
 23 64  1  0
 24 25  1  0
 24 65  1  1
 25 26  1  0
 25 66  1  0
 25 67  1  0
 26 27  1  0
 26 68  1  0
 26 69  1  0
 27 28  1  6
 28 70  1  0
 28 71  1  0
 28 72  1  0
M  END
>  <i_m_ct_stereo_status>  (193) 
1

>  <s_m_source_file>  (193) 
/var/tmp/pbs.5076255.sched01/tmpl63by5lx/41imve8rrw.sdf

>  <i_m_source_file_index>  (193) 
38

>  <i_lp_mmshare_version>  (193) 
48012

>  <i_f3d_flags>  (193) 
0

>  <s_epik_input>  (193) 
W0NIM11bQ0hdKFtDSDNdKVtDSDJdW0NIMl1bQ0gyXVtDQEhdKFtDSDNdKVtDQEhdKFtDSDJdW0NIMl0xKVtDQF0oW0NIM10pKFtDSDJdW0NIMl1bQ0BIXTIzKVtDQEBIXTFbQ0BIXTJbQ0gyXVtDSF09QyhbQ0BdMzRbQ0gzXSlbQ0gyXUMoPU8pW0NIMl1bQ0gyXTQ=

>  <s_epik_cmdline>  (193) 
J2VwaWtfcHl0aG9uJywgJy1waHQnLCAnMi4wJywgJy1waCcsICc3LjAnLCAnLXRuJywgJzgnLCAnLW1hJywgJzIwMCcsICctaW1hZScsICc8aW5maWxlLm1hZT4nLCAnLW9tYWUnLCAnPG91dGZpbGUubWFlPic=

>  <r_lp_tautomer_probability>  (193) 
1

>  <r_epik_Ionization_Penalty>  (193) 
1.69973e-13

>  <r_epik_Ionization_Penalty_Charging>  (193) 
0

>  <r_epik_Ionization_Penalty_Neutral>  (193) 
1.69973e-13

>  <r_epik_State_Penalty>  (193) 
-0

>  <r_epik_Charging_Adjusted_Penalty>  (193) 
0

>  <i_epik_Tot_Q>  (193) 
0

>  <i_epik_Tot_abs_Q>  (193) 
0

>  <s_lp_Force_Field>  (193) 
OPLS3e

>  <r_lp_Energy>  (193) 
46.7123

>  <b_lp_Chiralities_Consistent>  (193) 
1

>  <s_lp_Variant>  (193) 
55:0-1

>  <s_i_glide_gridfile>  (193) 
pfpi4k_grid

>  <i_i_glide_lignum>  (193) 
38

>  <i_i_glide_rotatable_bonds>  (193) 
5

>  <r_i_docking_score>  (193) 
-1.78347

>  <r_i_glide_ligand_efficiency>  (193) 
-0.0636953

>  <r_i_glide_ligand_efficiency_sa>  (193) 
-0.193416

>  <r_i_glide_ligand_efficiency_ln>  (193) 
-0.411677

>  <r_i_glide_gscore>  (193) 
-1.78347

>  <r_i_glide_lipo>  (193) 
-0.0174149

>  <r_i_glide_hbond>  (193) 
0

>  <r_i_glide_metal>  (193) 
-0

>  <r_i_glide_rewards>  (193) 
-0.786561

>  <r_i_glide_evdw>  (193) 
-23.1707

>  <r_i_glide_ecoul>  (193) 
-1.98433

>  <r_i_glide_erotb>  (193) 
0.525723

>  <r_i_glide_esite>  (193) 
-0.0490308

>  <r_i_glide_emodel>  (193) 
-26.0082

>  <r_i_glide_energy>  (193) 
-25.155

>  <r_i_glide_einternal>  (193) 
3.0902

>  <r_i_glide_intrahb_reward>  (193) 
-0

>  <i_i_glide_confnum>  (193) 
3

>  <i_i_glide_posenum>  (193) 
37

>  <r_i_glide_eff_state_penalty>  (193) 
0

>  <ligand_id>  (193) 
55

>  <original_smiles>  (193) 
CC(C)CCCC(C)C1CCC2C3CC=C4CC(=O)CCC4(C)C3CCC12C

>  <smiles>  (193) 
[H]C1=C2C([H])([H])C(=O)C([H])([H])C([H])([H])C2(C([H])([H])[H])C2([H])C([H])([H])C([H])([H])C3(C([H])([H])[H])C([H])(C([H])(C([H])([H])[H])C([H])([H])C([H])([H])C([H])([H])C([H])(C([H])([H])[H])C([H])([H])[H])C([H])([H])C([H])([H])C3([H])C2([H])C1([H])[H]

$$$$
55:0:2
     RDKit          3D

 72 75  0  0  1  0  0  0  0  0999 V2000
    0.1809   -9.5870    3.0068 C   0  0  0  0  0  0  0  0  0  0  0  0
   -0.5400   -8.2279    2.9541 C   0  0  0  0  0  0  0  0  0  0  0  0
   -2.0587   -8.4317    2.8853 C   0  0  0  0  0  0  0  0  0  0  0  0
   -0.0448   -7.3362    1.7915 C   0  0  0  0  0  0  0  0  0  0  0  0
    1.4337   -6.9109    1.8868 C   0  0  0  0  0  0  0  0  0  0  0  0
    1.6807   -5.8530    2.9796 C   0  0  0  0  0  0  0  0  0  0  0  0
    3.1735   -5.5046    3.2043 C   0  0  2  0  0  0  0  0  0  0  0  0
    3.8783   -6.6580    3.9567 C   0  0  0  0  0  0  0  0  0  0  0  0
    3.4465   -4.1379    3.9191 C   0  0  2  0  0  0  0  0  0  0  0  0
    2.8074   -4.0289    5.3206 C   0  0  0  0  0  0  0  0  0  0  0  0
    1.7629   -2.9049    5.2687 C   0  0  0  0  0  0  0  0  0  0  0  0
    1.6822   -2.4326    3.8064 C   0  0  1  0  0  0  0  0  0  0  0  0
    1.2245   -0.9622    3.5746 C   0  0  1  0  0  0  0  0  0  0  0  0
   -0.1200   -0.6763    4.2786 C   0  0  0  0  0  0  0  0  0  0  0  0
   -0.4383    0.7933    4.4353 C   0  0  0  0  0  0  0  0  0  0  0  0
    0.4022    1.8033    4.1423 C   0  0  0  0  0  0  0  0  0  0  0  0
   -0.0808    3.2468    4.2609 C   0  0  0  0  0  0  0  0  0  0  0  0
    0.9660    4.1620    4.8829 C   0  0  0  0  0  0  0  0  0  0  0  0
    0.6709    4.9946    5.7350 O   0  0  0  0  0  0  0  0  0  0  0  0
    2.3841    4.0192    4.3508 C   0  0  0  0  0  0  0  0  0  0  0  0
    2.8147    2.5444    4.3667 C   0  0  0  0  0  0  0  0  0  0  0  0
    1.8390    1.5694    3.6367 C   0  0  2  0  0  0  0  0  0  0  0  0
    1.8362    1.8806    2.1232 C   0  0  0  0  0  0  0  0  0  0  0  0
    2.3027    0.0899    3.9253 C   0  0  2  0  0  0  0  0  0  0  0  0
    3.6436   -0.2869    3.2467 C   0  0  0  0  0  0  0  0  0  0  0  0
    4.0844   -1.7164    3.5967 C   0  0  0  0  0  0  0  0  0  0  0  0
    3.0550   -2.8065    3.1952 C   0  0  1  0  0  0  0  0  0  0  0  0
    3.0119   -2.9325    1.6542 C   0  0  0  0  0  0  0  0  0  0  0  0
    0.0479  -10.1507    2.0810 H   0  0  0  0  0  0  0  0  0  0  0  0
   -0.2006  -10.2012    3.8206 H   0  0  0  0  0  0  0  0  0  0  0  0
    1.2501   -9.4772    3.1783 H   0  0  0  0  0  0  0  0  0  0  0  0
   -0.3434   -7.7215    3.8981 H   0  0  0  0  0  0  0  0  0  0  0  0
   -2.3516   -8.9581    1.9760 H   0  0  0  0  0  0  0  0  0  0  0  0
   -2.5853   -7.4797    2.9148 H   0  0  0  0  0  0  0  0  0  0  0  0
   -2.3995   -9.0231    3.7351 H   0  0  0  0  0  0  0  0  0  0  0  0
   -0.2063   -7.8578    0.8493 H   0  0  0  0  0  0  0  0  0  0  0  0
   -0.6662   -6.4444    1.7197 H   0  0  0  0  0  0  0  0  0  0  0  0
    2.0710   -7.7830    2.0165 H   0  0  0  0  0  0  0  0  0  0  0  0
    1.7326   -6.4888    0.9273 H   0  0  0  0  0  0  0  0  0  0  0  0
    1.1206   -4.9793    2.6684 H   0  0  0  0  0  0  0  0  0  0  0  0
    1.2468   -6.1540    3.9333 H   0  0  0  0  0  0  0  0  0  0  0  0
    3.6546   -5.4528    2.2280 H   0  0  0  0  0  0  0  0  0  0  0  0
    3.4123   -6.8659    4.9215 H   0  0  0  0  0  0  0  0  0  0  0  0
    4.9288   -6.4314    4.1460 H   0  0  0  0  0  0  0  0  0  0  0  0
    3.8526   -7.5880    3.3888 H   0  0  0  0  0  0  0  0  0  0  0  0
    4.5306   -4.1193    4.0534 H   0  0  0  0  0  0  0  0  0  0  0  0
    2.3675   -4.9664    5.6588 H   0  0  0  0  0  0  0  0  0  0  0  0
    3.5764   -3.7682    6.0507 H   0  0  0  0  0  0  0  0  0  0  0  0
    0.7950   -3.2609    5.6217 H   0  0  0  0  0  0  0  0  0  0  0  0
    2.0750   -2.0965    5.9309 H   0  0  0  0  0  0  0  0  0  0  0  0
    0.9132   -3.0380    3.3355 H   0  0  0  0  0  0  0  0  0  0  0  0
    1.0410   -0.8701    2.5035 H   0  0  0  0  0  0  0  0  0  0  0  0
   -0.9223   -1.1275    3.6961 H   0  0  0  0  0  0  0  0  0  0  0  0
   -0.1582   -1.1114    5.2760 H   0  0  0  0  0  0  0  0  0  0  0  0
   -1.4404    1.0108    4.7767 H   0  0  0  0  0  0  0  0  0  0  0  0
   -0.3281    3.6337    3.2758 H   0  0  0  0  0  0  0  0  0  0  0  0
   -0.9872    3.2861    4.8626 H   0  0  0  0  0  0  0  0  0  0  0  0
    2.4111    4.4164    3.3382 H   0  0  0  0  0  0  0  0  0  0  0  0
    3.0657    4.6208    4.9492 H   0  0  0  0  0  0  0  0  0  0  0  0
    3.8104    2.4834    3.9249 H   0  0  0  0  0  0  0  0  0  0  0  0
    2.9360    2.2365    5.4049 H   0  0  0  0  0  0  0  0  0  0  0  0
    2.8372    1.8436    1.6973 H   0  0  0  0  0  0  0  0  0  0  0  0
    1.4380    2.8755    1.9211 H   0  0  0  0  0  0  0  0  0  0  0  0
    1.2119    1.1775    1.5714 H   0  0  0  0  0  0  0  0  0  0  0  0
    2.4651    0.0237    5.0013 H   0  0  0  0  0  0  0  0  0  0  0  0
    3.5737   -0.1930    2.1631 H   0  0  0  0  0  0  0  0  0  0  0  0
    4.4315    0.3960    3.5593 H   0  0  0  0  0  0  0  0  0  0  0  0
    5.0445   -1.9185    3.1196 H   0  0  0  0  0  0  0  0  0  0  0  0
    4.2741   -1.7508    4.6696 H   0  0  0  0  0  0  0  0  0  0  0  0
    2.7349   -1.9953    1.1757 H   0  0  0  0  0  0  0  0  0  0  0  0
    2.2877   -3.6663    1.3128 H   0  0  0  0  0  0  0  0  0  0  0  0
    3.9839   -3.2245    1.2592 H   0  0  0  0  0  0  0  0  0  0  0  0
  1  2  1  0
  1 29  1  0
  1 30  1  0
  1 31  1  0
  2  3  1  0
  2  4  1  0
  2 32  1  0
  3 33  1  0
  3 34  1  0
  3 35  1  0
  4  5  1  0
  4 36  1  0
  4 37  1  0
  5  6  1  0
  5 38  1  0
  5 39  1  0
  6  7  1  0
  6 40  1  0
  6 41  1  0
  7  8  1  0
  7  9  1  0
  7 42  1  6
  8 43  1  0
  8 44  1  0
  8 45  1  0
  9 27  1  0
  9 10  1  0
  9 46  1  1
 10 11  1  0
 10 47  1  0
 10 48  1  0
 11 12  1  0
 11 49  1  0
 11 50  1  0
 12 27  1  0
 12 13  1  0
 12 51  1  6
 13 24  1  0
 13 14  1  0
 13 52  1  6
 14 15  1  0
 14 53  1  0
 14 54  1  0
 15 16  2  0
 15 55  1  0
 16 22  1  0
 16 17  1  0
 17 18  1  0
 17 56  1  0
 17 57  1  0
 18 19  2  0
 18 20  1  0
 20 21  1  0
 20 58  1  0
 20 59  1  0
 21 22  1  0
 21 60  1  0
 21 61  1  0
 22 23  1  6
 22 24  1  0
 23 62  1  0
 23 63  1  0
 23 64  1  0
 24 25  1  0
 24 65  1  1
 25 26  1  0
 25 66  1  0
 25 67  1  0
 26 27  1  0
 26 68  1  0
 26 69  1  0
 27 28  1  6
 28 70  1  0
 28 71  1  0
 28 72  1  0
M  END
>  <i_m_ct_stereo_status>  (194) 
1

>  <s_m_source_file>  (194) 
/var/tmp/pbs.5076255.sched01/tmpl63by5lx/41imve8rrw.sdf

>  <i_m_source_file_index>  (194) 
38

>  <i_lp_mmshare_version>  (194) 
48012

>  <i_f3d_flags>  (194) 
0

>  <s_epik_input>  (194) 
W0NIM11bQ0hdKFtDSDNdKVtDSDJdW0NIMl1bQ0gyXVtDQEhdKFtDSDNdKVtDQEhdKFtDSDJdW0NIMl0xKVtDQF0oW0NIM10pKFtDSDJdW0NIMl1bQ0BIXTIzKVtDQEBIXTFbQ0BIXTJbQ0gyXVtDSF09QyhbQ0BdMzRbQ0gzXSlbQ0gyXUMoPU8pW0NIMl1bQ0gyXTQ=

>  <s_epik_cmdline>  (194) 
J2VwaWtfcHl0aG9uJywgJy1waHQnLCAnMi4wJywgJy1waCcsICc3LjAnLCAnLXRuJywgJzgnLCAnLW1hJywgJzIwMCcsICctaW1hZScsICc8aW5maWxlLm1hZT4nLCAnLW9tYWUnLCAnPG91dGZpbGUubWFlPic=

>  <r_lp_tautomer_probability>  (194) 
1

>  <r_epik_Ionization_Penalty>  (194) 
1.69973e-13

>  <r_epik_Ionization_Penalty_Charging>  (194) 
0

>  <r_epik_Ionization_Penalty_Neutral>  (194) 
1.69973e-13

>  <r_epik_State_Penalty>  (194) 
-0

>  <r_epik_Charging_Adjusted_Penalty>  (194) 
0

>  <i_epik_Tot_Q>  (194) 
0

>  <i_epik_Tot_abs_Q>  (194) 
0

>  <s_lp_Force_Field>  (194) 
OPLS3e

>  <r_lp_Energy>  (194) 
46.7123

>  <b_lp_Chiralities_Consistent>  (194) 
1

>  <s_lp_Variant>  (194) 
55:0-1

>  <s_i_glide_gridfile>  (194) 
pfpi4k_grid

>  <i_i_glide_lignum>  (194) 
38

>  <i_i_glide_rotatable_bonds>  (194) 
5

>  <r_i_docking_score>  (194) 
-1.5751

>  <r_i_glide_ligand_efficiency>  (194) 
-0.0562535

>  <r_i_glide_ligand_efficiency_sa>  (194) 
-0.170819

>  <r_i_glide_ligand_efficiency_ln>  (194) 
-0.363579

>  <r_i_glide_gscore>  (194) 
-1.5751

>  <r_i_glide_lipo>  (194) 
-0.0333204

>  <r_i_glide_hbond>  (194) 
0

>  <r_i_glide_metal>  (194) 
-0

>  <r_i_glide_rewards>  (194) 
-0.786561

>  <r_i_glide_evdw>  (194) 
-21.9584

>  <r_i_glide_ecoul>  (194) 
-1.10973

>  <r_i_glide_erotb>  (194) 
0.525723

>  <r_i_glide_esite>  (194) 
-0.0165608

>  <r_i_glide_emodel>  (194) 
-24.5865

>  <r_i_glide_energy>  (194) 
-23.0681

>  <r_i_glide_einternal>  (194) 
1.56752

>  <r_i_glide_intrahb_reward>  (194) 
-0

>  <i_i_glide_confnum>  (194) 
3

>  <i_i_glide_posenum>  (194) 
39

>  <r_i_glide_eff_state_penalty>  (194) 
0

>  <ligand_id>  (194) 
55

>  <original_smiles>  (194) 
CC(C)CCCC(C)C1CCC2C3CC=C4CC(=O)CCC4(C)C3CCC12C

>  <smiles>  (194) 
[H]C1=C2C([H])([H])C(=O)C([H])([H])C([H])([H])C2(C([H])([H])[H])C2([H])C([H])([H])C([H])([H])C3(C([H])([H])[H])C([H])(C([H])(C([H])([H])[H])C([H])([H])C([H])([H])C([H])([H])C([H])(C([H])([H])[H])C([H])([H])[H])C([H])([H])C([H])([H])C3([H])C2([H])C1([H])[H]

$$$$
57:0:0
     RDKit          3D

 82 89  0  0  1  0  0  0  0  0999 V2000
    8.1130   -8.7873    3.5695 C   0  0  0  0  0  0  0  0  0  0  0  0
    6.7857   -9.5795    3.5953 C   0  0  0  0  0  0  0  0  0  0  0  0
    6.9958  -11.0232    3.1132 C   0  0  0  0  0  0  0  0  0  0  0  0
    5.5775   -8.9011    2.8967 C   0  0  2  0  0  0  0  0  0  0  0  0
    5.7795   -8.4979    1.4434 C   0  0  2  0  0  0  0  0  0  0  0  0
    4.6652   -7.8699    0.7603 O   0  0  0  0  0  0  0  0  0  0  0  0
    5.3539   -7.0819    1.7665 C   0  0  1  0  0  0  0  0  0  0  0  0
    5.2088   -7.4388    3.2417 C   0  0  1  0  0  0  0  0  0  0  0  0
    3.8703   -7.1881    3.9753 C   0  0  2  0  0  0  0  0  0  0  0  0
    2.5888   -8.0076    3.3837 C   0  0  0  0  0  0  0  0  0  0  0  0
    1.1449   -7.3296    3.5672 C   0  0  0  0  0  0  0  0  0  0  0  0
    1.5535   -5.8477    3.6038 C   0  0  1  0  0  0  0  0  0  0  0  0
    2.0477   -5.7271    2.0878 C   0  0  0  0  0  0  0  0  0  0  0  0
    1.0222   -4.4342    3.8970 C   0  0  1  0  0  0  0  0  0  0  0  0
    0.3502   -4.5439    5.2549 C   0  0  0  0  0  0  0  0  0  0  0  0
    1.4555   -5.1308    6.0984 C   0  0  1  0  0  0  0  0  0  0  0  0
    0.8974   -5.9196    7.3001 C   0  0  0  0  0  0  0  0  0  0  0  0
    2.2333   -5.9673    5.0494 C   0  0  2  0  0  0  0  0  0  0  0  0
    3.6791   -5.7742    4.8125 C   0  0  1  0  0  0  0  0  0  0  0  0
    4.4924   -5.9653    6.1414 C   0  0  0  0  0  0  0  0  0  0  0  0
    3.7780   -4.2192    4.2673 C   0  0  2  0  0  0  0  0  0  0  0  0
    4.7997   -4.1587    3.1015 C   0  0  0  0  0  0  0  0  0  0  0  0
    4.4284   -3.2571    5.3171 C   0  0  0  0  0  0  0  0  0  0  0  0
    4.6754   -1.8213    4.8152 C   0  0  0  0  0  0  0  0  0  0  0  0
    3.5167   -1.1974    4.0686 C   0  0  0  0  0  0  0  0  0  0  0  0
    3.6501    0.0081    3.4880 C   0  0  0  0  0  0  0  0  0  0  0  0
    2.5222    0.7261    2.8989 C   0  0  0  0  0  0  0  0  0  0  0  0
    2.3517    2.0098    2.5038 C   0  0  0  0  0  0  0  0  0  0  0  0
    1.0360    2.1224    2.0816 N   0  0  0  0  0  0  0  0  0  0  0  0
    0.4262    0.9158    2.2308 C   0  0  0  0  0  0  0  0  0  0  0  0
    1.3305    0.0549    2.7580 N   0  0  0  0  0  0  0  0  0  0  0  0
    1.1729   -1.3655    3.0039 C   0  0  0  0  0  0  0  0  0  0  0  0
    2.1519   -1.9417    4.1135 C   0  0  2  0  0  0  0  0  0  0  0  0
    1.5452   -1.5594    5.4872 C   0  0  0  0  0  0  0  0  0  0  0  0
    2.3599   -3.5046    3.8518 C   0  0  2  0  0  0  0  0  0  0  0  0
    8.4564   -8.6481    2.5454 H   0  0  0  0  0  0  0  0  0  0  0  0
    8.9086   -9.3015    4.1238 H   0  0  0  0  0  0  0  0  0  0  0  0
    8.0064   -7.7997    4.0183 H   0  0  0  0  0  0  0  0  0  0  0  0
    6.5269   -9.6747    4.6489 H   0  0  0  0  0  0  0  0  0  0  0  0
    7.2410  -11.0626    2.0534 H   0  0  0  0  0  0  0  0  0  0  0  0
    6.0972  -11.6230    3.2609 H   0  0  0  0  0  0  0  0  0  0  0  0
    7.7974  -11.5238    3.6571 H   0  0  0  0  0  0  0  0  0  0  0  0
    4.7069   -9.5655    2.9849 H   0  0  0  0  0  0  0  0  0  0  0  0
    6.7539   -8.6274    0.9642 H   0  0  0  0  0  0  0  0  0  0  0  0
    6.0616   -6.2841    1.5070 H   0  0  0  0  0  0  0  0  0  0  0  0
    5.9936   -6.9467    3.8200 H   0  0  0  0  0  0  0  0  0  0  0  0
    4.0072   -7.8844    4.8074 H   0  0  0  0  0  0  0  0  0  0  0  0
    2.7613   -8.2065    2.3195 H   0  0  0  0  0  0  0  0  0  0  0  0
    2.5498   -9.0093    3.8191 H   0  0  0  0  0  0  0  0  0  0  0  0
    0.4647   -7.6084    2.7591 H   0  0  0  0  0  0  0  0  0  0  0  0
    0.6266   -7.6764    4.4662 H   0  0  0  0  0  0  0  0  0  0  0  0
    3.0560   -6.0402    1.8764 H   0  0  0  0  0  0  0  0  0  0  0  0
    1.8740   -4.7765    1.5920 H   0  0  0  0  0  0  0  0  0  0  0  0
    1.4612   -6.3722    1.4298 H   0  0  0  0  0  0  0  0  0  0  0  0
    0.2948   -4.1155    3.1580 H   0  0  0  0  0  0  0  0  0  0  0  0
   -0.0557   -3.6224    5.6498 H   0  0  0  0  0  0  0  0  0  0  0  0
   -0.4884   -5.2399    5.1809 H   0  0  0  0  0  0  0  0  0  0  0  0
    2.0760   -4.3350    6.4939 H   0  0  0  0  0  0  0  0  0  0  0  0
    0.2453   -6.7345    6.9811 H   0  0  0  0  0  0  0  0  0  0  0  0
    0.3147   -5.2663    7.9498 H   0  0  0  0  0  0  0  0  0  0  0  0
    1.7047   -6.3459    7.8963 H   0  0  0  0  0  0  0  0  0  0  0  0
    2.1832   -6.9375    5.5565 H   0  0  0  0  0  0  0  0  0  0  0  0
    4.2140   -5.2503    6.9204 H   0  0  0  0  0  0  0  0  0  0  0  0
    5.5689   -5.8716    5.9582 H   0  0  0  0  0  0  0  0  0  0  0  0
    4.3412   -6.9428    6.6131 H   0  0  0  0  0  0  0  0  0  0  0  0
    4.9024   -3.1617    2.6681 H   0  0  0  0  0  0  0  0  0  0  0  0
    4.5177   -4.7796    2.2694 H   0  0  0  0  0  0  0  0  0  0  0  0
    5.7884   -4.4741    3.4397 H   0  0  0  0  0  0  0  0  0  0  0  0
    3.8179   -3.1953    6.2148 H   0  0  0  0  0  0  0  0  0  0  0  0
    5.3970   -3.6348    5.6522 H   0  0  0  0  0  0  0  0  0  0  0  0
    4.9117   -1.1909    5.6717 H   0  0  0  0  0  0  0  0  0  0  0  0
    5.5547   -1.7901    4.1646 H   0  0  0  0  0  0  0  0  0  0  0  0
    4.6024    0.5391    3.5013 H   0  0  0  0  0  0  0  0  0  0  0  0
    3.0461    2.8550    2.4874 H   0  0  0  0  0  0  0  0  0  0  0  0
   -0.5805    0.6935    1.9625 H   0  0  0  0  0  0  0  0  0  0  0  0
    0.1259   -1.5617    3.2680 H   0  0  0  0  0  0  0  0  0  0  0  0
    1.3566   -1.8436    2.0310 H   0  0  0  0  0  0  0  0  0  0  0  0
    0.4574   -1.6146    5.4917 H   0  0  0  0  0  0  0  0  0  0  0  0
    1.7746   -0.5221    5.7326 H   0  0  0  0  0  0  0  0  0  0  0  0
    1.9244   -2.1593    6.3095 H   0  0  0  0  0  0  0  0  0  0  0  0
    2.5660   -3.3915    2.7990 H   0  0  0  0  0  0  0  0  0  0  0  0
    0.6053    2.9242    1.6590 H   0  0  0  0  0  0  0  0  0  0  0  0
  1  2  1  0
  1 36  1  0
  1 37  1  0
  1 38  1  0
  2  3  1  0
  2  4  1  0
  2 39  1  0
  3 40  1  0
  3 41  1  0
  3 42  1  0
  4  8  1  0
  4  5  1  0
  4 43  1  6
  5  7  1  0
  5  6  1  0
  5 44  1  6
  6  7  1  0
  7  8  1  0
  7 45  1  1
  8  9  1  0
  8 46  1  1
  9 19  1  0
  9 10  1  0
  9 47  1  1
 10 11  1  0
 10 48  1  0
 10 49  1  0
 11 12  1  0
 11 50  1  0
 11 51  1  0
 12 18  1  0
 12 13  1  6
 12 14  1  0
 13 52  1  0
 13 53  1  0
 13 54  1  0
 14 35  1  0
 14 15  1  0
 14 55  1  6
 15 16  1  0
 15 56  1  0
 15 57  1  0
 16 17  1  0
 16 18  1  0
 16 58  1  1
 17 59  1  0
 17 60  1  0
 17 61  1  0
 18 19  1  0
 18 62  1  1
 19 20  1  1
 19 21  1  0
 20 63  1  0
 20 64  1  0
 20 65  1  0
 21 35  1  0
 21 22  1  6
 21 23  1  0
 22 66  1  0
 22 67  1  0
 22 68  1  0
 23 24  1  0
 23 69  1  0
 23 70  1  0
 24 25  1  0
 24 71  1  0
 24 72  1  0
 25 33  1  0
 25 26  2  0
 26 27  1  0
 26 73  1  0
 27 31  1  0
 27 28  2  0
 28 29  1  0
 28 74  1  0
 29 30  2  0
 29 82  1  0
 30 31  1  0
 30 75  1  0
 31 32  1  0
 32 33  1  0
 32 76  1  0
 32 77  1  0
 33 34  1  1
 33 35  1  0
 34 78  1  0
 34 79  1  0
 34 80  1  0
 35 81  1  6
M  CHG  1  29   1
M  END
>  <i_m_ct_stereo_status>  (195) 
1

>  <s_m_source_file>  (195) 
/var/tmp/pbs.5076255.sched01/tmpl63by5lx/41imve8rrw.sdf

>  <i_m_source_file_index>  (195) 
40

>  <i_lp_mmshare_version>  (195) 
48012

>  <i_f3d_flags>  (195) 
0

>  <s_epik_input>  (195) 
W0NIM11bQ0hdKFtDSDNdKVtDQEhdMVtDQEBIXShbQ0BIXShPMilbQ0BASF0xMilbQ0BIXShbQ0gyXVtDSDJdMylbQ0BdKFtDSDNdKShbQ0BASF00W0NAQEhdKFtDSDJdNSlbQ0gzXSlbQ0BAXShbQ0gzXSkoW0NASF02W0NASF01W0NAXTM0W0NIM10pW0NIMl1bQ0gyXUM9N1tDQEBdNihbQ0gzXSlbQ0gyXW44YyhbQ0hdNylbY0hdbltjSF04

>  <s_epik_cmdline>  (195) 
J2VwaWtfcHl0aG9uJywgJy1waHQnLCAnMi4wJywgJy1waCcsICc3LjAnLCAnLXRuJywgJzgnLCAnLW1hJywgJzIwMCcsICctaW1hZScsICc8aW5maWxlLm1hZT4nLCAnLW9tYWUnLCAnPG91dGZpbGUubWFlPic=

>  <r_epik_Ionization_Penalty>  (195) 
0.0167034

>  <r_epik_Ionization_Penalty_Charging>  (195) 
0

>  <r_epik_Ionization_Penalty_Neutral>  (195) 
0.0167034

>  <r_epik_State_Penalty>  (195) 
0.013199

>  <r_epik_Charging_Adjusted_Penalty>  (195) 
0.013199

>  <i_epik_Tot_Q>  (195) 
1

>  <i_epik_Tot_abs_Q>  (195) 
1

>  <s_lp_Force_Field>  (195) 
OPLS3e

>  <r_lp_Energy>  (195) 
232.028

>  <b_lp_Chiralities_Consistent>  (195) 
1

>  <s_lp_Variant>  (195) 
57:0-1

>  <s_i_glide_gridfile>  (195) 
pfpi4k_grid

>  <i_i_glide_lignum>  (195) 
40

>  <i_i_glide_rotatable_bonds>  (195) 
2

>  <r_i_docking_score>  (195) 
-2.81917

>  <r_i_glide_ligand_efficiency>  (195) 
-0.0805478

>  <r_i_glide_ligand_efficiency_sa>  (195) 
-0.263477

>  <r_i_glide_ligand_efficiency_ln>  (195) 
-0.618871

>  <r_i_glide_gscore>  (195) 
-2.81917

>  <r_i_glide_lipo>  (195) 
-0.222042

>  <r_i_glide_hbond>  (195) 
-0.2

>  <r_i_glide_metal>  (195) 
-0

>  <r_i_glide_rewards>  (195) 
-0.165488

>  <r_i_glide_evdw>  (195) 
-20.1865

>  <r_i_glide_ecoul>  (195) 
-7.58811

>  <r_i_glide_erotb>  (195) 
0.0894519

>  <r_i_glide_esite>  (195) 
-0.173555

>  <r_i_glide_emodel>  (195) 
-32.2673

>  <r_i_glide_energy>  (195) 
-27.7746

>  <r_i_glide_einternal>  (195) 
2.14448

>  <r_i_glide_intrahb_reward>  (195) 
-0

>  <i_i_glide_confnum>  (195) 
5

>  <i_i_glide_posenum>  (195) 
20

>  <r_i_glide_eff_state_penalty>  (195) 
0

>  <ligand_id>  (195) 
57

>  <original_smiles>  (195) 
CC(C)C1C2OC2C1C1CCC2(C)C3CC(C)C2C1(C)C1(C)CCC2=Cc4cncn4CC2(C)C31

>  <smiles>  (195) 
[H]C1=C2C([H])([H])C([H])([H])C3(C([H])([H])[H])C([H])(C4([H])C([H])([H])C([H])(C([H])([H])[H])C5([H])C4(C([H])([H])[H])C([H])([H])C([H])([H])C([H])(C4([H])C6([H])OC6([H])C4([H])C([H])(C([H])([H])[H])C([H])([H])[H])C53C([H])([H])[H])C2(C([H])([H])[H])C([H])([H])n2c1c([H])[n+]([H])c2[H]

$$$$
57:0:1
     RDKit          3D

 82 89  0  0  1  0  0  0  0  0999 V2000
    2.7364  -10.0609    2.2067 C   0  0  0  0  0  0  0  0  0  0  0  0
    1.8916  -10.1066    3.4981 C   0  0  0  0  0  0  0  0  0  0  0  0
    0.9636  -11.3387    3.4961 C   0  0  0  0  0  0  0  0  0  0  0  0
    1.1149   -8.8071    3.8486 C   0  0  2  0  0  0  0  0  0  0  0  0
    0.1192   -8.3185    2.7922 C   0  0  2  0  0  0  0  0  0  0  0  0
   -0.5798   -7.1157    3.0201 O   0  0  0  0  0  0  0  0  0  0  0  0
    0.7972   -6.9963    2.7850 C   0  0  1  0  0  0  0  0  0  0  0  0
    1.8402   -7.4657    3.7628 C   0  0  1  0  0  0  0  0  0  0  0  0
    2.0811   -6.6662    5.0674 C   0  0  2  0  0  0  0  0  0  0  0  0
    0.9804   -6.8731    6.2434 C   0  0  0  0  0  0  0  0  0  0  0  0
    0.7617   -5.6548    7.2680 C   0  0  0  0  0  0  0  0  0  0  0  0
    1.1669   -4.4807    6.3739 C   0  0  1  0  0  0  0  0  0  0  0  0
   -0.0400   -4.5688    5.3319 C   0  0  0  0  0  0  0  0  0  0  0  0
    1.4741   -2.9798    6.3908 C   0  0  1  0  0  0  0  0  0  0  0  0
    2.4900   -2.7995    7.5116 C   0  0  0  0  0  0  0  0  0  0  0  0
    3.5575   -3.7900    7.1213 C   0  0  1  0  0  0  0  0  0  0  0  0
    4.3498   -4.2822    8.3508 C   0  0  0  0  0  0  0  0  0  0  0  0
    2.7283   -4.8669    6.3851 C   0  0  2  0  0  0  0  0  0  0  0  0
    3.0416   -5.2984    5.0034 C   0  0  1  0  0  0  0  0  0  0  0  0
    4.5185   -5.8140    4.8971 C   0  0  0  0  0  0  0  0  0  0  0  0
    2.8048   -3.9233    4.1212 C   0  0  2  0  0  0  0  0  0  0  0  0
    2.0867   -4.2856    2.7852 C   0  0  0  0  0  0  0  0  0  0  0  0
    4.1612   -3.3190    3.6226 C   0  0  0  0  0  0  0  0  0  0  0  0
    4.0384   -2.1281    2.6592 C   0  0  0  0  0  0  0  0  0  0  0  0
    3.0269   -1.0742    3.1113 C   0  0  0  0  0  0  0  0  0  0  0  0
    2.7368   -0.0322    2.3049 C   0  0  0  0  0  0  0  0  0  0  0  0
    1.9148    1.0596    2.7960 C   0  0  0  0  0  0  0  0  0  0  0  0
    1.6844    2.3285    2.2598 C   0  0  0  0  0  0  0  0  0  0  0  0
    0.8804    2.9319    3.1872 N   0  0  0  0  0  0  0  0  0  0  0  0
    0.6167    2.1213    4.2255 C   0  0  0  0  0  0  0  0  0  0  0  0
    1.2835    0.9566    3.9763 N   0  0  0  0  0  0  0  0  0  0  0  0
    1.1958   -0.2726    4.7624 C   0  0  0  0  0  0  0  0  0  0  0  0
    2.4756   -1.1804    4.5663 C   0  0  2  0  0  0  0  0  0  0  0  0
    3.6012   -0.5761    5.4542 C   0  0  0  0  0  0  0  0  0  0  0  0
    2.0480   -2.6862    4.8953 C   0  0  2  0  0  0  0  0  0  0  0  0
    2.1119   -9.8961    1.3345 H   0  0  0  0  0  0  0  0  0  0  0  0
    3.2753  -10.9997    2.0826 H   0  0  0  0  0  0  0  0  0  0  0  0
    3.4876   -9.2728    2.2357 H   0  0  0  0  0  0  0  0  0  0  0  0
    2.5950  -10.2790    4.3009 H   0  0  0  0  0  0  0  0  0  0  0  0
    0.2119  -11.2605    2.7208 H   0  0  0  0  0  0  0  0  0  0  0  0
    0.4580  -11.4472    4.4533 H   0  0  0  0  0  0  0  0  0  0  0  0
    1.5277  -12.2518    3.3279 H   0  0  0  0  0  0  0  0  0  0  0  0
    0.6265   -8.9677    4.7942 H   0  0  0  0  0  0  0  0  0  0  0  0
   -0.0344   -8.8713    1.8553 H   0  0  0  0  0  0  0  0  0  0  0  0
    1.1416   -6.4807    1.8900 H   0  0  0  0  0  0  0  0  0  0  0  0
    2.7944   -7.5248    3.2432 H   0  0  0  0  0  0  0  0  0  0  0  0
    2.7957   -7.3484    5.5259 H   0  0  0  0  0  0  0  0  0  0  0  0
    0.0193   -7.1008    5.7653 H   0  0  0  0  0  0  0  0  0  0  0  0
    1.2072   -7.7680    6.8054 H   0  0  0  0  0  0  0  0  0  0  0  0
   -0.2624   -5.6289    7.6370 H   0  0  0  0  0  0  0  0  0  0  0  0
    1.3577   -5.7646    8.1748 H   0  0  0  0  0  0  0  0  0  0  0  0
    0.0795   -5.2632    4.5143 H   0  0  0  0  0  0  0  0  0  0  0  0
   -0.4059   -3.6341    4.9254 H   0  0  0  0  0  0  0  0  0  0  0  0
   -0.9469   -4.9117    5.8203 H   0  0  0  0  0  0  0  0  0  0  0  0
    0.5763   -2.3898    6.6059 H   0  0  0  0  0  0  0  0  0  0  0  0
    2.8624   -1.7910    7.6498 H   0  0  0  0  0  0  0  0  0  0  0  0
    2.0186   -3.0814    8.4580 H   0  0  0  0  0  0  0  0  0  0  0  0
    4.2647   -3.3287    6.4537 H   0  0  0  0  0  0  0  0  0  0  0  0
    3.7016   -4.7553    9.0928 H   0  0  0  0  0  0  0  0  0  0  0  0
    4.8553   -3.4487    8.8424 H   0  0  0  0  0  0  0  0  0  0  0  0
    5.1147   -5.0074    8.0639 H   0  0  0  0  0  0  0  0  0  0  0  0
    3.0236   -5.7382    6.9953 H   0  0  0  0  0  0  0  0  0  0  0  0
    5.2544   -5.0572    5.1588 H   0  0  0  0  0  0  0  0  0  0  0  0
    4.7356   -6.1718    3.8983 H   0  0  0  0  0  0  0  0  0  0  0  0
    4.7413   -6.6365    5.5786 H   0  0  0  0  0  0  0  0  0  0  0  0
    1.8998   -3.4031    2.1660 H   0  0  0  0  0  0  0  0  0  0  0  0
    1.1246   -4.7475    2.8399 H   0  0  0  0  0  0  0  0  0  0  0  0
    2.7179   -4.9550    2.2157 H   0  0  0  0  0  0  0  0  0  0  0  0
    4.8000   -3.0106    4.4324 H   0  0  0  0  0  0  0  0  0  0  0  0
    4.7523   -4.0577    3.0715 H   0  0  0  0  0  0  0  0  0  0  0  0
    4.9964   -1.6370    2.5420 H   0  0  0  0  0  0  0  0  0  0  0  0
    3.7433   -2.4501    1.6569 H   0  0  0  0  0  0  0  0  0  0  0  0
    3.1475    0.0511    1.3135 H   0  0  0  0  0  0  0  0  0  0  0  0
    1.9914    2.7984    1.3759 H   0  0  0  0  0  0  0  0  0  0  0  0
   -0.0140    2.3276    5.0736 H   0  0  0  0  0  0  0  0  0  0  0  0
    1.0342   -0.0011    5.7931 H   0  0  0  0  0  0  0  0  0  0  0  0
    0.3022   -0.7557    4.3971 H   0  0  0  0  0  0  0  0  0  0  0  0
    3.2176   -0.1793    6.3887 H   0  0  0  0  0  0  0  0  0  0  0  0
    4.0698    0.2683    4.9555 H   0  0  0  0  0  0  0  0  0  0  0  0
    4.3939   -1.2832    5.6769 H   0  0  0  0  0  0  0  0  0  0  0  0
    1.1712   -2.6607    4.2714 H   0  0  0  0  0  0  0  0  0  0  0  0
    0.5023    3.8663    3.0574 H   0  0  0  0  0  0  0  0  0  0  0  0
  1  2  1  0
  1 36  1  0
  1 37  1  0
  1 38  1  0
  2  3  1  0
  2  4  1  0
  2 39  1  0
  3 40  1  0
  3 41  1  0
  3 42  1  0
  4  8  1  0
  4  5  1  0
  4 43  1  1
  5  7  1  0
  5  6  1  0
  5 44  1  6
  6  7  1  0
  7  8  1  0
  7 45  1  6
  8  9  1  0
  8 46  1  6
  9 19  1  0
  9 10  1  0
  9 47  1  1
 10 11  1  0
 10 48  1  0
 10 49  1  0
 11 12  1  0
 11 50  1  0
 11 51  1  0
 12 18  1  0
 12 13  1  6
 12 14  1  0
 13 52  1  0
 13 53  1  0
 13 54  1  0
 14 35  1  0
 14 15  1  0
 14 55  1  1
 15 16  1  0
 15 56  1  0
 15 57  1  0
 16 17  1  0
 16 18  1  0
 16 58  1  6
 17 59  1  0
 17 60  1  0
 17 61  1  0
 18 19  1  0
 18 62  1  1
 19 20  1  1
 19 21  1  0
 20 63  1  0
 20 64  1  0
 20 65  1  0
 21 35  1  0
 21 22  1  6
 21 23  1  0
 22 66  1  0
 22 67  1  0
 22 68  1  0
 23 24  1  0
 23 69  1  0
 23 70  1  0
 24 25  1  0
 24 71  1  0
 24 72  1  0
 25 33  1  0
 25 26  2  0
 26 27  1  0
 26 73  1  0
 27 31  1  0
 27 28  2  0
 28 29  1  0
 28 74  1  0
 29 30  2  0
 29 82  1  0
 30 31  1  0
 30 75  1  0
 31 32  1  0
 32 33  1  0
 32 76  1  0
 32 77  1  0
 33 34  1  1
 33 35  1  0
 34 78  1  0
 34 79  1  0
 34 80  1  0
 35 81  1  6
M  CHG  1  29   1
M  END
>  <i_m_ct_stereo_status>  (196) 
1

>  <s_m_source_file>  (196) 
/var/tmp/pbs.5076255.sched01/tmpl63by5lx/41imve8rrw.sdf

>  <i_m_source_file_index>  (196) 
40

>  <i_lp_mmshare_version>  (196) 
48012

>  <i_f3d_flags>  (196) 
0

>  <s_epik_input>  (196) 
W0NIM11bQ0hdKFtDSDNdKVtDQEhdMVtDQEBIXShbQ0BIXShPMilbQ0BASF0xMilbQ0BIXShbQ0gyXVtDSDJdMylbQ0BdKFtDSDNdKShbQ0BASF00W0NAQEhdKFtDSDJdNSlbQ0gzXSlbQ0BAXShbQ0gzXSkoW0NASF02W0NASF01W0NAXTM0W0NIM10pW0NIMl1bQ0gyXUM9N1tDQEBdNihbQ0gzXSlbQ0gyXW44YyhbQ0hdNylbY0hdbltjSF04

>  <s_epik_cmdline>  (196) 
J2VwaWtfcHl0aG9uJywgJy1waHQnLCAnMi4wJywgJy1waCcsICc3LjAnLCAnLXRuJywgJzgnLCAnLW1hJywgJzIwMCcsICctaW1hZScsICc8aW5maWxlLm1hZT4nLCAnLW9tYWUnLCAnPG91dGZpbGUubWFlPic=

>  <r_epik_Ionization_Penalty>  (196) 
0.0167034

>  <r_epik_Ionization_Penalty_Charging>  (196) 
0

>  <r_epik_Ionization_Penalty_Neutral>  (196) 
0.0167034

>  <r_epik_State_Penalty>  (196) 
0.013199

>  <r_epik_Charging_Adjusted_Penalty>  (196) 
0.013199

>  <i_epik_Tot_Q>  (196) 
1

>  <i_epik_Tot_abs_Q>  (196) 
1

>  <s_lp_Force_Field>  (196) 
OPLS3e

>  <r_lp_Energy>  (196) 
232.028

>  <b_lp_Chiralities_Consistent>  (196) 
1

>  <s_lp_Variant>  (196) 
57:0-1

>  <s_i_glide_gridfile>  (196) 
pfpi4k_grid

>  <i_i_glide_lignum>  (196) 
40

>  <i_i_glide_rotatable_bonds>  (196) 
2

>  <r_i_docking_score>  (196) 
-2.10443

>  <r_i_glide_ligand_efficiency>  (196) 
-0.0601266

>  <r_i_glide_ligand_efficiency_sa>  (196) 
-0.196678

>  <r_i_glide_ligand_efficiency_ln>  (196) 
-0.46197

>  <r_i_glide_gscore>  (196) 
-2.10443

>  <r_i_glide_lipo>  (196) 
-0.243845

>  <r_i_glide_hbond>  (196) 
-0.0948108

>  <r_i_glide_metal>  (196) 
-0

>  <r_i_glide_rewards>  (196) 
-0.165488

>  <r_i_glide_evdw>  (196) 
-19.9242

>  <r_i_glide_ecoul>  (196) 
-3.92229

>  <r_i_glide_erotb>  (196) 
0.0894519

>  <r_i_glide_esite>  (196) 
-0.105187

>  <r_i_glide_emodel>  (196) 
-25.489

>  <r_i_glide_energy>  (196) 
-23.8465

>  <r_i_glide_einternal>  (196) 
3.03775

>  <r_i_glide_intrahb_reward>  (196) 
-0

>  <i_i_glide_confnum>  (196) 
5

>  <i_i_glide_posenum>  (196) 
14

>  <r_i_glide_eff_state_penalty>  (196) 
0

>  <ligand_id>  (196) 
57

>  <original_smiles>  (196) 
CC(C)C1C2OC2C1C1CCC2(C)C3CC(C)C2C1(C)C1(C)CCC2=Cc4cncn4CC2(C)C31

>  <smiles>  (196) 
[H]C1=C2C([H])([H])C([H])([H])C3(C([H])([H])[H])C([H])(C4([H])C([H])([H])C([H])(C([H])([H])[H])C5([H])C4(C([H])([H])[H])C([H])([H])C([H])([H])C([H])(C4([H])C6([H])OC6([H])C4([H])C([H])(C([H])([H])[H])C([H])([H])[H])C53C([H])([H])[H])C2(C([H])([H])[H])C([H])([H])n2c1c([H])[n+]([H])c2[H]

$$$$
57:0:2
     RDKit          3D

 82 89  0  0  1  0  0  0  0  0999 V2000
    5.4522   -9.2307    1.0737 C   0  0  0  0  0  0  0  0  0  0  0  0
    5.6894   -8.9890    2.5826 C   0  0  0  0  0  0  0  0  0  0  0  0
    7.1462   -9.3128    2.9821 C   0  0  0  0  0  0  0  0  0  0  0  0
    4.6230   -9.6732    3.4729 C   0  0  2  0  0  0  0  0  0  0  0  0
    4.3306  -11.1548    3.2823 C   0  0  2  0  0  0  0  0  0  0  0  0
    3.3767  -11.7743    4.1788 O   0  0  0  0  0  0  0  0  0  0  0  0
    2.8480  -10.8372    3.2222 C   0  0  1  0  0  0  0  0  0  0  0  0
    3.1253   -9.3433    3.3001 C   0  0  1  0  0  0  0  0  0  0  0  0
    2.4014   -8.6055    4.4421 C   0  0  2  0  0  0  0  0  0  0  0  0
    0.8015   -8.9282    4.5602 C   0  0  0  0  0  0  0  0  0  0  0  0
   -0.1459   -7.7854    5.1856 C   0  0  0  0  0  0  0  0  0  0  0  0
    0.6050   -6.5316    4.7276 C   0  0  1  0  0  0  0  0  0  0  0  0
    0.3538   -6.7049    3.1619 C   0  0  0  0  0  0  0  0  0  0  0  0
    0.6792   -5.0016    4.8993 C   0  0  1  0  0  0  0  0  0  0  0  0
    0.7343   -4.7742    6.4022 C   0  0  0  0  0  0  0  0  0  0  0  0
    1.8928   -5.6494    6.8064 C   0  0  1  0  0  0  0  0  0  0  0  0
    1.7814   -6.1126    8.2693 C   0  0  0  0  0  0  0  0  0  0  0  0
    1.8213   -6.7792    5.7424 C   0  0  2  0  0  0  0  0  0  0  0  0
    2.9857   -7.1192    4.8887 C   0  0  1  0  0  0  0  0  0  0  0  0
    4.2329   -7.4268    5.7938 C   0  0  0  0  0  0  0  0  0  0  0  0
    3.2105   -5.7408    3.9810 C   0  0  2  0  0  0  0  0  0  0  0  0
    3.5145   -6.0714    2.4745 C   0  0  0  0  0  0  0  0  0  0  0  0
    4.5167   -5.0020    4.4212 C   0  0  0  0  0  0  0  0  0  0  0  0
    4.8996   -3.7795    3.5815 C   0  0  0  0  0  0  0  0  0  0  0  0
    3.7585   -2.8357    3.2915 C   0  0  0  0  0  0  0  0  0  0  0  0
    3.9521   -1.7942    2.4497 C   0  0  0  0  0  0  0  0  0  0  0  0
    2.9185   -0.7963    2.2605 C   0  0  0  0  0  0  0  0  0  0  0  0
    2.9588    0.4469    1.6785 C   0  0  0  0  0  0  0  0  0  0  0  0
    1.6708    0.9618    1.8677 N   0  0  0  0  0  0  0  0  0  0  0  0
    0.9178    0.0736    2.5158 C   0  0  0  0  0  0  0  0  0  0  0  0
    1.6759   -0.9920    2.7842 N   0  0  0  0  0  0  0  0  0  0  0  0
    1.2561   -2.2472    3.3861 C   0  0  0  0  0  0  0  0  0  0  0  0
    2.4350   -3.0466    4.0722 C   0  0  2  0  0  0  0  0  0  0  0  0
    2.6825   -2.3826    5.4459 C   0  0  0  0  0  0  0  0  0  0  0  0
    2.0352   -4.5932    4.1028 C   0  0  2  0  0  0  0  0  0  0  0  0
    5.5542  -10.2777    0.7670 H   0  0  0  0  0  0  0  0  0  0  0  0
    6.1957   -8.6370    0.5503 H   0  0  0  0  0  0  0  0  0  0  0  0
    4.4605   -8.8973    0.7512 H   0  0  0  0  0  0  0  0  0  0  0  0
    5.7014   -7.9347    2.7786 H   0  0  0  0  0  0  0  0  0  0  0  0
    7.4264  -10.3738    2.9268 H   0  0  0  0  0  0  0  0  0  0  0  0
    7.2838   -8.9552    4.0005 H   0  0  0  0  0  0  0  0  0  0  0  0
    7.8255   -8.7132    2.3717 H   0  0  0  0  0  0  0  0  0  0  0  0
    4.9339   -9.5751    4.5009 H   0  0  0  0  0  0  0  0  0  0  0  0
    4.8358  -11.7098    2.4881 H   0  0  0  0  0  0  0  0  0  0  0  0
    2.2306  -11.1901    2.4071 H   0  0  0  0  0  0  0  0  0  0  0  0
    2.8525   -8.8973    2.3311 H   0  0  0  0  0  0  0  0  0  0  0  0
    2.6771   -9.2483    5.2843 H   0  0  0  0  0  0  0  0  0  0  0  0
    0.4099   -9.2507    3.5880 H   0  0  0  0  0  0  0  0  0  0  0  0
    0.6512   -9.8126    5.1727 H   0  0  0  0  0  0  0  0  0  0  0  0
   -1.1790   -7.8573    4.8390 H   0  0  0  0  0  0  0  0  0  0  0  0
   -0.2358   -7.8687    6.2700 H   0  0  0  0  0  0  0  0  0  0  0  0
    1.0010   -7.3832    2.6224 H   0  0  0  0  0  0  0  0  0  0  0  0
    0.2435   -5.7939    2.5889 H   0  0  0  0  0  0  0  0  0  0  0  0
   -0.6335   -7.1295    2.9778 H   0  0  0  0  0  0  0  0  0  0  0  0
   -0.1948   -4.4997    4.4758 H   0  0  0  0  0  0  0  0  0  0  0  0
    0.8462   -3.7451    6.7153 H   0  0  0  0  0  0  0  0  0  0  0  0
   -0.1930   -5.1331    6.8471 H   0  0  0  0  0  0  0  0  0  0  0  0
    2.8215   -5.1017    6.7098 H   0  0  0  0  0  0  0  0  0  0  0  0
    0.8614   -6.6692    8.4487 H   0  0  0  0  0  0  0  0  0  0  0  0
    1.7853   -5.2571    8.9417 H   0  0  0  0  0  0  0  0  0  0  0  0
    2.6196   -6.7516    8.5460 H   0  0  0  0  0  0  0  0  0  0  0  0
    1.7466   -7.6366    6.4278 H   0  0  0  0  0  0  0  0  0  0  0  0
    4.5046   -6.6103    6.4707 H   0  0  0  0  0  0  0  0  0  0  0  0
    5.1021   -7.6547    5.1760 H   0  0  0  0  0  0  0  0  0  0  0  0
    4.0825   -8.2937    6.4434 H   0  0  0  0  0  0  0  0  0  0  0  0
    3.4672   -5.1506    1.8593 H   0  0  0  0  0  0  0  0  0  0  0  0
    2.7617   -6.7054    2.0076 H   0  0  0  0  0  0  0  0  0  0  0  0
    4.4695   -6.5154    2.3818 H   0  0  0  0  0  0  0  0  0  0  0  0
    4.4635   -4.6689    5.4504 H   0  0  0  0  0  0  0  0  0  0  0  0
    5.3838   -5.6662    4.3983 H   0  0  0  0  0  0  0  0  0  0  0  0
    5.6718   -3.2174    4.1026 H   0  0  0  0  0  0  0  0  0  0  0  0
    5.3419   -4.1011    2.6401 H   0  0  0  0  0  0  0  0  0  0  0  0
    4.8896   -1.6282    1.9327 H   0  0  0  0  0  0  0  0  0  0  0  0
    3.7530    0.9810    1.1959 H   0  0  0  0  0  0  0  0  0  0  0  0
   -0.1298    0.2187    2.7757 H   0  0  0  0  0  0  0  0  0  0  0  0
    0.4299   -2.0345    4.0726 H   0  0  0  0  0  0  0  0  0  0  0  0
    0.8466   -2.8042    2.5430 H   0  0  0  0  0  0  0  0  0  0  0  0
    1.7587   -2.0529    5.9167 H   0  0  0  0  0  0  0  0  0  0  0  0
    3.2816   -1.4799    5.3281 H   0  0  0  0  0  0  0  0  0  0  0  0
    3.2207   -3.0224    6.1370 H   0  0  0  0  0  0  0  0  0  0  0  0
    1.7156   -4.6067    3.0749 H   0  0  0  0  0  0  0  0  0  0  0  0
    1.3582    1.8612    1.5406 H   0  0  0  0  0  0  0  0  0  0  0  0
  1  2  1  0
  1 36  1  0
  1 37  1  0
  1 38  1  0
  2  3  1  0
  2  4  1  0
  2 39  1  0
  3 40  1  0
  3 41  1  0
  3 42  1  0
  4  8  1  0
  4  5  1  0
  4 43  1  1
  5  7  1  0
  5  6  1  0
  5 44  1  6
  6  7  1  0
  7  8  1  0
  7 45  1  6
  8  9  1  0
  8 46  1  6
  9 19  1  0
  9 10  1  0
  9 47  1  1
 10 11  1  0
 10 48  1  0
 10 49  1  0
 11 12  1  0
 11 50  1  0
 11 51  1  0
 12 18  1  0
 12 13  1  6
 12 14  1  0
 13 52  1  0
 13 53  1  0
 13 54  1  0
 14 35  1  0
 14 15  1  0
 14 55  1  6
 15 16  1  0
 15 56  1  0
 15 57  1  0
 16 17  1  0
 16 18  1  0
 16 58  1  1
 17 59  1  0
 17 60  1  0
 17 61  1  0
 18 19  1  0
 18 62  1  1
 19 20  1  1
 19 21  1  0
 20 63  1  0
 20 64  1  0
 20 65  1  0
 21 35  1  0
 21 22  1  6
 21 23  1  0
 22 66  1  0
 22 67  1  0
 22 68  1  0
 23 24  1  0
 23 69  1  0
 23 70  1  0
 24 25  1  0
 24 71  1  0
 24 72  1  0
 25 33  1  0
 25 26  2  0
 26 27  1  0
 26 73  1  0
 27 31  1  0
 27 28  2  0
 28 29  1  0
 28 74  1  0
 29 30  2  0
 29 82  1  0
 30 31  1  0
 30 75  1  0
 31 32  1  0
 32 33  1  0
 32 76  1  0
 32 77  1  0
 33 34  1  1
 33 35  1  0
 34 78  1  0
 34 79  1  0
 34 80  1  0
 35 81  1  6
M  CHG  1  29   1
M  END
>  <i_m_ct_stereo_status>  (197) 
1

>  <s_m_source_file>  (197) 
/var/tmp/pbs.5076255.sched01/tmpl63by5lx/41imve8rrw.sdf

>  <i_m_source_file_index>  (197) 
40

>  <i_lp_mmshare_version>  (197) 
48012

>  <i_f3d_flags>  (197) 
0

>  <s_epik_input>  (197) 
W0NIM11bQ0hdKFtDSDNdKVtDQEhdMVtDQEBIXShbQ0BIXShPMilbQ0BASF0xMilbQ0BIXShbQ0gyXVtDSDJdMylbQ0BdKFtDSDNdKShbQ0BASF00W0NAQEhdKFtDSDJdNSlbQ0gzXSlbQ0BAXShbQ0gzXSkoW0NASF02W0NASF01W0NAXTM0W0NIM10pW0NIMl1bQ0gyXUM9N1tDQEBdNihbQ0gzXSlbQ0gyXW44YyhbQ0hdNylbY0hdbltjSF04

>  <s_epik_cmdline>  (197) 
J2VwaWtfcHl0aG9uJywgJy1waHQnLCAnMi4wJywgJy1waCcsICc3LjAnLCAnLXRuJywgJzgnLCAnLW1hJywgJzIwMCcsICctaW1hZScsICc8aW5maWxlLm1hZT4nLCAnLW9tYWUnLCAnPG91dGZpbGUubWFlPic=

>  <r_epik_Ionization_Penalty>  (197) 
0.0167034

>  <r_epik_Ionization_Penalty_Charging>  (197) 
0

>  <r_epik_Ionization_Penalty_Neutral>  (197) 
0.0167034

>  <r_epik_State_Penalty>  (197) 
0.013199

>  <r_epik_Charging_Adjusted_Penalty>  (197) 
0.013199

>  <i_epik_Tot_Q>  (197) 
1

>  <i_epik_Tot_abs_Q>  (197) 
1

>  <s_lp_Force_Field>  (197) 
OPLS3e

>  <r_lp_Energy>  (197) 
232.028

>  <b_lp_Chiralities_Consistent>  (197) 
1

>  <s_lp_Variant>  (197) 
57:0-1

>  <s_i_glide_gridfile>  (197) 
pfpi4k_grid

>  <i_i_glide_lignum>  (197) 
40

>  <i_i_glide_rotatable_bonds>  (197) 
2

>  <r_i_docking_score>  (197) 
-1.95066

>  <r_i_glide_ligand_efficiency>  (197) 
-0.055733

>  <r_i_glide_ligand_efficiency_sa>  (197) 
-0.182306

>  <r_i_glide_ligand_efficiency_ln>  (197) 
-0.428212

>  <r_i_glide_gscore>  (197) 
-1.95066

>  <r_i_glide_lipo>  (197) 
-0.223624

>  <r_i_glide_hbond>  (197) 
0

>  <r_i_glide_metal>  (197) 
-0

>  <r_i_glide_rewards>  (197) 
-0.165488

>  <r_i_glide_evdw>  (197) 
-20.7542

>  <r_i_glide_ecoul>  (197) 
-3.42059

>  <r_i_glide_erotb>  (197) 
0.0894519

>  <r_i_glide_esite>  (197) 
-0.100197

>  <r_i_glide_emodel>  (197) 
-25.3336

>  <r_i_glide_energy>  (197) 
-24.1748

>  <r_i_glide_einternal>  (197) 
2.80561

>  <r_i_glide_intrahb_reward>  (197) 
-0

>  <i_i_glide_confnum>  (197) 
3

>  <i_i_glide_posenum>  (197) 
25

>  <r_i_glide_eff_state_penalty>  (197) 
0

>  <ligand_id>  (197) 
57

>  <original_smiles>  (197) 
CC(C)C1C2OC2C1C1CCC2(C)C3CC(C)C2C1(C)C1(C)CCC2=Cc4cncn4CC2(C)C31

>  <smiles>  (197) 
[H]C1=C2C([H])([H])C([H])([H])C3(C([H])([H])[H])C([H])(C4([H])C([H])([H])C([H])(C([H])([H])[H])C5([H])C4(C([H])([H])[H])C([H])([H])C([H])([H])C([H])(C4([H])C6([H])OC6([H])C4([H])C([H])(C([H])([H])[H])C([H])([H])[H])C53C([H])([H])[H])C2(C([H])([H])[H])C([H])([H])n2c1c([H])[n+]([H])c2[H]

$$$$
57:1:0
     RDKit          3D

 81 88  0  0  1  0  0  0  0  0999 V2000
   -0.8834   -7.0948    3.6165 C   0  0  0  0  0  0  0  0  0  0  0  0
    0.0199   -8.3514    3.4797 C   0  0  0  0  0  0  0  0  0  0  0  0
   -0.6841   -9.4890    2.7239 C   0  0  0  0  0  0  0  0  0  0  0  0
    0.7124   -8.7789    4.7970 C   0  0  2  0  0  0  0  0  0  0  0  0
   -0.1359   -9.0251    6.0248 C   0  0  1  0  0  0  0  0  0  0  0  0
    0.5002   -9.4632    7.2432 O   0  0  0  0  0  0  0  0  0  0  0  0
    0.7639   -8.1091    6.8361 C   0  0  1  0  0  0  0  0  0  0  0  0
    1.5932   -7.7937    5.5969 C   0  0  1  0  0  0  0  0  0  0  0  0
    3.1040   -8.0737    5.7060 C   0  0  2  0  0  0  0  0  0  0  0  0
    3.8269   -7.4694    7.0486 C   0  0  0  0  0  0  0  0  0  0  0  0
    5.3892   -7.0815    6.9568 C   0  0  0  0  0  0  0  0  0  0  0  0
    5.4746   -6.6692    5.4852 C   0  0  1  0  0  0  0  0  0  0  0  0
    4.5580   -5.3656    5.5779 C   0  0  0  0  0  0  0  0  0  0  0  0
    6.4642   -6.3113    4.3643 C   0  0  1  0  0  0  0  0  0  0  0  0
    7.4744   -7.4477    4.3401 C   0  0  0  0  0  0  0  0  0  0  0  0
    6.5836   -8.6582    4.2257 C   0  0  1  0  0  0  0  0  0  0  0  0
    7.2429   -9.9154    4.8187 C   0  0  0  0  0  0  0  0  0  0  0  0
    5.2993   -8.1746    4.9560 C   0  0  2  0  0  0  0  0  0  0  0  0
    3.9673   -8.2143    4.2969 C   0  0  1  0  0  0  0  0  0  0  0  0
    3.6767   -9.6678    3.7761 C   0  0  0  0  0  0  0  0  0  0  0  0
    4.1263   -7.1389    3.0440 C   0  0  2  0  0  0  0  0  0  0  0  0
    2.8944   -6.1959    2.8844 C   0  0  0  0  0  0  0  0  0  0  0  0
    4.1599   -7.8957    1.6718 C   0  0  0  0  0  0  0  0  0  0  0  0
    4.1992   -7.0007    0.4271 C   0  0  0  0  0  0  0  0  0  0  0  0
    5.1681   -5.8466    0.5161 C   0  0  0  0  0  0  0  0  0  0  0  0
    5.1790   -4.8874   -0.4291 C   0  0  0  0  0  0  0  0  0  0  0  0
    6.1564   -3.8795   -0.4917 C   0  0  0  0  0  0  0  0  0  0  0  0
    6.5424   -2.9950   -1.4758 C   0  0  0  0  0  0  0  0  0  0  0  0
    7.7019   -2.3566   -1.0239 N   0  0  0  0  0  0  0  0  0  0  0  0
    7.8838   -2.7871    0.2180 C   0  0  0  0  0  0  0  0  0  0  0  0
    7.0331   -3.7667    0.5548 N   0  0  0  0  0  0  0  0  0  0  0  0
    6.9049   -4.4892    1.7929 C   0  0  0  0  0  0  0  0  0  0  0  0
    6.2145   -5.8856    1.6522 C   0  0  2  0  0  0  0  0  0  0  0  0
    7.3192   -6.8595    1.1716 C   0  0  0  0  0  0  0  0  0  0  0  0
    5.5111   -6.2417    3.0427 C   0  0  2  0  0  0  0  0  0  0  0  0
   -1.7395   -7.2866    4.2715 H   0  0  0  0  0  0  0  0  0  0  0  0
   -1.2542   -6.7511    2.6481 H   0  0  0  0  0  0  0  0  0  0  0  0
   -0.3332   -6.2664    4.0623 H   0  0  0  0  0  0  0  0  0  0  0  0
    0.7857   -8.1688    2.7288 H   0  0  0  0  0  0  0  0  0  0  0  0
   -1.5144   -9.9510    3.2672 H   0  0  0  0  0  0  0  0  0  0  0  0
    0.0625  -10.2498    2.4858 H   0  0  0  0  0  0  0  0  0  0  0  0
   -1.0486   -9.1177    1.7661 H   0  0  0  0  0  0  0  0  0  0  0  0
    1.2123   -9.7278    4.6420 H   0  0  0  0  0  0  0  0  0  0  0  0
   -1.2249   -8.9481    5.9528 H   0  0  0  0  0  0  0  0  0  0  0  0
    0.3585   -7.2836    7.4135 H   0  0  0  0  0  0  0  0  0  0  0  0
    1.4339   -6.7275    5.3537 H   0  0  0  0  0  0  0  0  0  0  0  0
    3.0755   -9.1021    6.0807 H   0  0  0  0  0  0  0  0  0  0  0  0
    3.2576   -6.6099    7.4217 H   0  0  0  0  0  0  0  0  0  0  0  0
    3.7289   -8.1799    7.8641 H   0  0  0  0  0  0  0  0  0  0  0  0
    5.6716   -6.2989    7.6622 H   0  0  0  0  0  0  0  0  0  0  0  0
    6.0581   -7.9035    7.2228 H   0  0  0  0  0  0  0  0  0  0  0  0
    3.4851   -5.5001    5.5566 H   0  0  0  0  0  0  0  0  0  0  0  0
    4.8230   -4.5392    4.9291 H   0  0  0  0  0  0  0  0  0  0  0  0
    4.7098   -4.8594    6.5305 H   0  0  0  0  0  0  0  0  0  0  0  0
    6.9727   -5.3579    4.5591 H   0  0  0  0  0  0  0  0  0  0  0  0
    8.2246   -7.3917    3.5631 H   0  0  0  0  0  0  0  0  0  0  0  0
    8.0137   -7.4499    5.2842 H   0  0  0  0  0  0  0  0  0  0  0  0
    6.3718   -8.8648    3.1841 H   0  0  0  0  0  0  0  0  0  0  0  0
    7.4963   -9.7815    5.8704 H   0  0  0  0  0  0  0  0  0  0  0  0
    8.1628  -10.1500    4.2870 H   0  0  0  0  0  0  0  0  0  0  0  0
    6.5859  -10.7808    4.7386 H   0  0  0  0  0  0  0  0  0  0  0  0
    5.2355   -8.9705    5.7129 H   0  0  0  0  0  0  0  0  0  0  0  0
    4.4342  -10.0583    3.0912 H   0  0  0  0  0  0  0  0  0  0  0  0
    2.7232   -9.6999    3.2485 H   0  0  0  0  0  0  0  0  0  0  0  0
    3.6136  -10.4015    4.5801 H   0  0  0  0  0  0  0  0  0  0  0  0
    3.0841   -5.3808    2.1748 H   0  0  0  0  0  0  0  0  0  0  0  0
    2.6015   -5.6876    3.7847 H   0  0  0  0  0  0  0  0  0  0  0  0
    2.0583   -6.7698    2.5219 H   0  0  0  0  0  0  0  0  0  0  0  0
    5.0104   -8.5659    1.5935 H   0  0  0  0  0  0  0  0  0  0  0  0
    3.2916   -8.5454    1.5447 H   0  0  0  0  0  0  0  0  0  0  0  0
    4.4596   -7.6037   -0.4442 H   0  0  0  0  0  0  0  0  0  0  0  0
    3.2065   -6.5949    0.2331 H   0  0  0  0  0  0  0  0  0  0  0  0
    4.4859   -4.9172   -1.2501 H   0  0  0  0  0  0  0  0  0  0  0  0
    6.1679   -2.8083   -2.4691 H   0  0  0  0  0  0  0  0  0  0  0  0
    8.6815   -2.4242    0.8628 H   0  0  0  0  0  0  0  0  0  0  0  0
    7.8953   -4.6624    2.2083 H   0  0  0  0  0  0  0  0  0  0  0  0
    6.3298   -3.8293    2.4462 H   0  0  0  0  0  0  0  0  0  0  0  0
    8.2851   -6.6760    1.6362 H   0  0  0  0  0  0  0  0  0  0  0  0
    7.5142   -6.6677    0.1180 H   0  0  0  0  0  0  0  0  0  0  0  0
    7.0674   -7.9090    1.3065 H   0  0  0  0  0  0  0  0  0  0  0  0
    5.0561   -5.2726    3.1358 H   0  0  0  0  0  0  0  0  0  0  0  0
  1  2  1  0
  1 36  1  0
  1 37  1  0
  1 38  1  0
  2  3  1  0
  2  4  1  0
  2 39  1  0
  3 40  1  0
  3 41  1  0
  3 42  1  0
  4  8  1  0
  4  5  1  0
  4 43  1  6
  5  7  1  0
  5  6  1  0
  5 44  1  6
  6  7  1  0
  7  8  1  0
  7 45  1  1
  8  9  1  0
  8 46  1  6
  9 19  1  0
  9 10  1  0
  9 47  1  1
 10 11  1  0
 10 48  1  0
 10 49  1  0
 11 12  1  0
 11 50  1  0
 11 51  1  0
 12 18  1  0
 12 13  1  6
 12 14  1  0
 13 52  1  0
 13 53  1  0
 13 54  1  0
 14 35  1  0
 14 15  1  0
 14 55  1  1
 15 16  1  0
 15 56  1  0
 15 57  1  0
 16 17  1  0
 16 18  1  0
 16 58  1  6
 17 59  1  0
 17 60  1  0
 17 61  1  0
 18 19  1  0
 18 62  1  1
 19 20  1  6
 19 21  1  0
 20 63  1  0
 20 64  1  0
 20 65  1  0
 21 35  1  0
 21 22  1  6
 21 23  1  0
 22 66  1  0
 22 67  1  0
 22 68  1  0
 23 24  1  0
 23 69  1  0
 23 70  1  0
 24 25  1  0
 24 71  1  0
 24 72  1  0
 25 33  1  0
 25 26  2  0
 26 27  1  0
 26 73  1  0
 27 31  1  0
 27 28  2  0
 28 29  1  0
 28 74  1  0
 29 30  2  0
 30 31  1  0
 30 75  1  0
 31 32  1  0
 32 33  1  0
 32 76  1  0
 32 77  1  0
 33 34  1  6
 33 35  1  0
 34 78  1  0
 34 79  1  0
 34 80  1  0
 35 81  1  1
M  END
>  <i_m_ct_stereo_status>  (198) 
1

>  <s_m_source_file>  (198) 
/var/tmp/pbs.5076255.sched01/tmpl63by5lx/41imve8rrw.sdf

>  <i_m_source_file_index>  (198) 
41

>  <i_lp_mmshare_version>  (198) 
48012

>  <i_f3d_flags>  (198) 
0

>  <s_epik_input>  (198) 
W0NIM11bQ0hdKFtDSDNdKVtDQEhdMVtDQEBIXShbQ0BIXShPMilbQ0BASF0xMilbQ0BIXShbQ0gyXVtDSDJdMylbQ0BdKFtDSDNdKShbQ0BASF00W0NAQEhdKFtDSDJdNSlbQ0gzXSlbQ0BAXShbQ0gzXSkoW0NASF02W0NASF01W0NAXTM0W0NIM10pW0NIMl1bQ0gyXUM9N1tDQEBdNihbQ0gzXSlbQ0gyXW44YyhbQ0hdNylbY0hdbltjSF04

>  <s_epik_cmdline>  (198) 
J2VwaWtfcHl0aG9uJywgJy1waHQnLCAnMi4wJywgJy1waCcsICc3LjAnLCAnLXRuJywgJzgnLCAnLW1hJywgJzIwMCcsICctaW1hZScsICc8aW5maWxlLm1hZT4nLCAnLW9tYWUnLCAnPG91dGZpbGUubWFlPic=

>  <r_epik_Ionization_Penalty>  (198) 
2.12274

>  <r_epik_Ionization_Penalty_Charging>  (198) 
2.12274

>  <r_epik_Ionization_Penalty_Neutral>  (198) 
8.93587e-11

>  <r_epik_State_Penalty>  (198) 
2.26051

>  <r_epik_Charging_Adjusted_Penalty>  (198) 
4.38326

>  <i_epik_Tot_Q>  (198) 
0

>  <i_epik_Tot_abs_Q>  (198) 
0

>  <s_lp_Force_Field>  (198) 
OPLS3e

>  <r_lp_Energy>  (198) 
226.337

>  <b_lp_Chiralities_Consistent>  (198) 
1

>  <s_lp_Variant>  (198) 
57:0-2

>  <s_i_glide_gridfile>  (198) 
pfpi4k_grid

>  <i_i_glide_lignum>  (198) 
41

>  <i_i_glide_rotatable_bonds>  (198) 
2

>  <r_i_docking_score>  (198) 
-2.6925

>  <r_i_glide_ligand_efficiency>  (198) 
-0.0769285

>  <r_i_glide_ligand_efficiency_sa>  (198) 
-0.251638

>  <r_i_glide_ligand_efficiency_ln>  (198) 
-0.591063

>  <r_i_glide_gscore>  (198) 
-2.6925

>  <r_i_glide_lipo>  (198) 
-0.566791

>  <r_i_glide_hbond>  (198) 
-0.16

>  <r_i_glide_metal>  (198) 
-0

>  <r_i_glide_rewards>  (198) 
-0.591243

>  <r_i_glide_evdw>  (198) 
-23.086

>  <r_i_glide_ecoul>  (198) 
-2.06644

>  <r_i_glide_erotb>  (198) 
0.089799

>  <r_i_glide_esite>  (198) 
0

>  <r_i_glide_emodel>  (198) 
-26.4729

>  <r_i_glide_energy>  (198) 
-25.1524

>  <r_i_glide_einternal>  (198) 
2.77638

>  <r_i_glide_intrahb_reward>  (198) 
-0

>  <i_i_glide_confnum>  (198) 
3

>  <i_i_glide_posenum>  (198) 
2

>  <r_i_glide_eff_state_penalty>  (198) 
0

>  <ligand_id>  (198) 
57

>  <original_smiles>  (198) 
CC(C)C1C2OC2C1C1CCC2(C)C3CC(C)C2C1(C)C1(C)CCC2=Cc4cncn4CC2(C)C31

>  <smiles>  (198) 
[H]C1=C2C([H])([H])C([H])([H])C3(C([H])([H])[H])C([H])(C4([H])C([H])([H])C([H])(C([H])([H])[H])C5([H])C4(C([H])([H])[H])C([H])([H])C([H])([H])C([H])(C4([H])C6([H])OC6([H])C4([H])C([H])(C([H])([H])[H])C([H])([H])[H])C53C([H])([H])[H])C2(C([H])([H])[H])C([H])([H])n2c([H])nc([H])c21

$$$$
57:1:1
     RDKit          3D

 81 88  0  0  1  0  0  0  0  0999 V2000
    5.7847   -5.7514    0.3544 C   0  0  0  0  0  0  0  0  0  0  0  0
    5.1902   -6.5746    1.5154 C   0  0  0  0  0  0  0  0  0  0  0  0
    5.1728   -8.0787    1.1876 C   0  0  0  0  0  0  0  0  0  0  0  0
    3.8421   -6.0788    2.0246 C   0  0  2  0  0  0  0  0  0  0  0  0
    2.7288   -5.9490    1.0172 C   0  0  2  0  0  0  0  0  0  0  0  0
    1.4248   -5.5174    1.4864 O   0  0  0  0  0  0  0  0  0  0  0  0
    2.4956   -4.5349    1.4579 C   0  0  1  0  0  0  0  0  0  0  0  0
    3.6414   -4.5981    2.4389 C   0  0  1  0  0  0  0  0  0  0  0  0
    3.4077   -4.2675    3.9253 C   0  0  2  0  0  0  0  0  0  0  0  0
    2.4442   -5.2985    4.7421 C   0  0  0  0  0  0  0  0  0  0  0  0
    1.6153   -4.7189    5.9842 C   0  0  0  0  0  0  0  0  0  0  0  0
    1.4805   -3.2545    5.5357 C   0  0  1  0  0  0  0  0  0  0  0  0
    0.5322   -3.5001    4.2801 C   0  0  0  0  0  0  0  0  0  0  0  0
    1.0365   -1.8637    6.0175 C   0  0  1  0  0  0  0  0  0  0  0  0
    1.7739   -1.6535    7.3317 C   0  0  0  0  0  0  0  0  0  0  0  0
    3.2061   -1.9040    6.9347 C   0  0  1  0  0  0  0  0  0  0  0  0
    4.0556   -2.3890    8.1240 C   0  0  0  0  0  0  0  0  0  0  0  0
    3.0336   -2.9295    5.7793 C   0  0  2  0  0  0  0  0  0  0  0  0
    3.5987   -2.7011    4.4287 C   0  0  1  0  0  0  0  0  0  0  0  0
    5.1493   -2.4655    4.5123 C   0  0  0  0  0  0  0  0  0  0  0  0
    2.8137   -1.3410    3.9196 C   0  0  2  0  0  0  0  0  0  0  0  0
    2.4228   -1.5239    2.4130 C   0  0  0  0  0  0  0  0  0  0  0  0
    3.7578   -0.0913    3.8678 C   0  0  0  0  0  0  0  0  0  0  0  0
    3.1212    1.1696    3.2652 C   0  0  0  0  0  0  0  0  0  0  0  0
    1.7139    1.4637    3.7636 C   0  0  0  0  0  0  0  0  0  0  0  0
    0.9928    2.4706    3.2243 C   0  0  0  0  0  0  0  0  0  0  0  0
   -0.2571    2.8955    3.7410 C   0  0  0  0  0  0  0  0  0  0  0  0
   -1.0498    4.0075    3.5223 C   0  0  0  0  0  0  0  0  0  0  0  0
   -2.1752    3.9311    4.3796 N   0  0  0  0  0  0  0  0  0  0  0  0
   -1.9828    2.7871    5.0424 C   0  0  0  0  0  0  0  0  0  0  0  0
   -0.8468    2.1363    4.7160 N   0  0  0  0  0  0  0  0  0  0  0  0
   -0.3642    0.8413    5.1449 C   0  0  0  0  0  0  0  0  0  0  0  0
    1.2039    0.6757    4.9825 C   0  0  2  0  0  0  0  0  0  0  0  0
    1.8569    1.3665    6.2092 C   0  0  0  0  0  0  0  0  0  0  0  0
    1.5109   -0.8839    4.8078 C   0  0  2  0  0  0  0  0  0  0  0  0
    5.1411   -5.8148   -0.5272 H   0  0  0  0  0  0  0  0  0  0  0  0
    6.7829   -6.1202    0.0831 H   0  0  0  0  0  0  0  0  0  0  0  0
    5.9030   -4.7051    0.6099 H   0  0  0  0  0  0  0  0  0  0  0  0
    5.9100   -6.4758    2.3404 H   0  0  0  0  0  0  0  0  0  0  0  0
    4.4721   -8.2992    0.3822 H   0  0  0  0  0  0  0  0  0  0  0  0
    4.8761   -8.6651    2.0519 H   0  0  0  0  0  0  0  0  0  0  0  0
    6.1586   -8.4419    0.8819 H   0  0  0  0  0  0  0  0  0  0  0  0
    3.5041   -6.7568    2.8396 H   0  0  0  0  0  0  0  0  0  0  0  0
    2.8839   -6.1600   -0.0456 H   0  0  0  0  0  0  0  0  0  0  0  0
    2.5098   -3.7373    0.6892 H   0  0  0  0  0  0  0  0  0  0  0  0
    4.4761   -3.9791    2.0898 H   0  0  0  0  0  0  0  0  0  0  0  0
    4.3232   -4.6999    4.3325 H   0  0  0  0  0  0  0  0  0  0  0  0
    1.7500   -5.7561    4.0317 H   0  0  0  0  0  0  0  0  0  0  0  0
    3.0297   -6.1597    5.0928 H   0  0  0  0  0  0  0  0  0  0  0  0
    0.6753   -5.2471    6.1235 H   0  0  0  0  0  0  0  0  0  0  0  0
    2.1291   -4.8500    6.9387 H   0  0  0  0  0  0  0  0  0  0  0  0
    0.9974   -3.7829    3.3560 H   0  0  0  0  0  0  0  0  0  0  0  0
   -0.2067   -2.7277    4.0639 H   0  0  0  0  0  0  0  0  0  0  0  0
   -0.1544   -4.3245    4.4683 H   0  0  0  0  0  0  0  0  0  0  0  0
   -0.0404   -1.8247    6.1811 H   0  0  0  0  0  0  0  0  0  0  0  0
    1.6180   -0.6888    7.8041 H   0  0  0  0  0  0  0  0  0  0  0  0
    1.4312   -2.3991    8.0515 H   0  0  0  0  0  0  0  0  0  0  0  0
    3.6538   -0.9892    6.5696 H   0  0  0  0  0  0  0  0  0  0  0  0
    3.6620   -3.3044    8.5623 H   0  0  0  0  0  0  0  0  0  0  0  0
    4.0772   -1.6312    8.9130 H   0  0  0  0  0  0  0  0  0  0  0  0
    5.0868   -2.5740    7.8219 H   0  0  0  0  0  0  0  0  0  0  0  0
    3.6588   -3.7299    6.1857 H   0  0  0  0  0  0  0  0  0  0  0  0
    5.4178   -1.5967    5.1042 H   0  0  0  0  0  0  0  0  0  0  0  0
    5.5705   -2.3409    3.5086 H   0  0  0  0  0  0  0  0  0  0  0  0
    5.6896   -3.2879    4.9776 H   0  0  0  0  0  0  0  0  0  0  0  0
    1.8994   -0.6520    2.0072 H   0  0  0  0  0  0  0  0  0  0  0  0
    1.7764   -2.3297    2.2368 H   0  0  0  0  0  0  0  0  0  0  0  0
    3.3274   -1.6580    1.8104 H   0  0  0  0  0  0  0  0  0  0  0  0
    4.1108    0.1690    4.8683 H   0  0  0  0  0  0  0  0  0  0  0  0
    4.6529   -0.2866    3.2897 H   0  0  0  0  0  0  0  0  0  0  0  0
    3.7459    2.0301    3.5053 H   0  0  0  0  0  0  0  0  0  0  0  0
    3.0970    1.1122    2.1767 H   0  0  0  0  0  0  0  0  0  0  0  0
    1.3908    3.0383    2.3870 H   0  0  0  0  0  0  0  0  0  0  0  0
   -0.9118    4.8260    2.8713 H   0  0  0  0  0  0  0  0  0  0  0  0
   -2.6678    2.4198    5.7743 H   0  0  0  0  0  0  0  0  0  0  0  0
   -0.6784    0.6638    6.1689 H   0  0  0  0  0  0  0  0  0  0  0  0
   -0.9036    0.1134    4.5229 H   0  0  0  0  0  0  0  0  0  0  0  0
    1.2766    1.2431    7.1211 H   0  0  0  0  0  0  0  0  0  0  0  0
    1.8955    2.4479    6.0523 H   0  0  0  0  0  0  0  0  0  0  0  0
    2.8767    1.0506    6.3990 H   0  0  0  0  0  0  0  0  0  0  0  0
    0.7683   -1.0292    4.0365 H   0  0  0  0  0  0  0  0  0  0  0  0
  1  2  1  0
  1 36  1  0
  1 37  1  0
  1 38  1  0
  2  3  1  0
  2  4  1  0
  2 39  1  0
  3 40  1  0
  3 41  1  0
  3 42  1  0
  4  8  1  0
  4  5  1  0
  4 43  1  1
  5  7  1  0
  5  6  1  0
  5 44  1  6
  6  7  1  0
  7  8  1  0
  7 45  1  6
  8  9  1  0
  8 46  1  6
  9 19  1  0
  9 10  1  0
  9 47  1  1
 10 11  1  0
 10 48  1  0
 10 49  1  0
 11 12  1  0
 11 50  1  0
 11 51  1  0
 12 18  1  0
 12 13  1  6
 12 14  1  0
 13 52  1  0
 13 53  1  0
 13 54  1  0
 14 35  1  0
 14 15  1  0
 14 55  1  1
 15 16  1  0
 15 56  1  0
 15 57  1  0
 16 17  1  0
 16 18  1  0
 16 58  1  6
 17 59  1  0
 17 60  1  0
 17 61  1  0
 18 19  1  0
 18 62  1  1
 19 20  1  1
 19 21  1  0
 20 63  1  0
 20 64  1  0
 20 65  1  0
 21 35  1  0
 21 22  1  6
 21 23  1  0
 22 66  1  0
 22 67  1  0
 22 68  1  0
 23 24  1  0
 23 69  1  0
 23 70  1  0
 24 25  1  0
 24 71  1  0
 24 72  1  0
 25 33  1  0
 25 26  2  0
 26 27  1  0
 26 73  1  0
 27 31  1  0
 27 28  2  0
 28 29  1  0
 28 74  1  0
 29 30  2  0
 30 31  1  0
 30 75  1  0
 31 32  1  0
 32 33  1  0
 32 76  1  0
 32 77  1  0
 33 34  1  1
 33 35  1  0
 34 78  1  0
 34 79  1  0
 34 80  1  0
 35 81  1  6
M  END
>  <i_m_ct_stereo_status>  (199) 
1

>  <s_m_source_file>  (199) 
/var/tmp/pbs.5076255.sched01/tmpl63by5lx/41imve8rrw.sdf

>  <i_m_source_file_index>  (199) 
41

>  <i_lp_mmshare_version>  (199) 
48012

>  <i_f3d_flags>  (199) 
0

>  <s_epik_input>  (199) 
W0NIM11bQ0hdKFtDSDNdKVtDQEhdMVtDQEBIXShbQ0BIXShPMilbQ0BASF0xMilbQ0BIXShbQ0gyXVtDSDJdMylbQ0BdKFtDSDNdKShbQ0BASF00W0NAQEhdKFtDSDJdNSlbQ0gzXSlbQ0BAXShbQ0gzXSkoW0NASF02W0NASF01W0NAXTM0W0NIM10pW0NIMl1bQ0gyXUM9N1tDQEBdNihbQ0gzXSlbQ0gyXW44YyhbQ0hdNylbY0hdbltjSF04

>  <s_epik_cmdline>  (199) 
J2VwaWtfcHl0aG9uJywgJy1waHQnLCAnMi4wJywgJy1waCcsICc3LjAnLCAnLXRuJywgJzgnLCAnLW1hJywgJzIwMCcsICctaW1hZScsICc8aW5maWxlLm1hZT4nLCAnLW9tYWUnLCAnPG91dGZpbGUubWFlPic=

>  <r_epik_Ionization_Penalty>  (199) 
2.12274

>  <r_epik_Ionization_Penalty_Charging>  (199) 
2.12274

>  <r_epik_Ionization_Penalty_Neutral>  (199) 
8.93587e-11

>  <r_epik_State_Penalty>  (199) 
2.26051

>  <r_epik_Charging_Adjusted_Penalty>  (199) 
4.38326

>  <i_epik_Tot_Q>  (199) 
0

>  <i_epik_Tot_abs_Q>  (199) 
0

>  <s_lp_Force_Field>  (199) 
OPLS3e

>  <r_lp_Energy>  (199) 
226.337

>  <b_lp_Chiralities_Consistent>  (199) 
1

>  <s_lp_Variant>  (199) 
57:0-2

>  <s_i_glide_gridfile>  (199) 
pfpi4k_grid

>  <i_i_glide_lignum>  (199) 
41

>  <i_i_glide_rotatable_bonds>  (199) 
2

>  <r_i_docking_score>  (199) 
-2.15111

>  <r_i_glide_ligand_efficiency>  (199) 
-0.0614604

>  <r_i_glide_ligand_efficiency_sa>  (199) 
-0.201041

>  <r_i_glide_ligand_efficiency_ln>  (199) 
-0.472217

>  <r_i_glide_gscore>  (199) 
-2.15111

>  <r_i_glide_lipo>  (199) 
-0.311302

>  <r_i_glide_hbond>  (199) 
-0.108664

>  <r_i_glide_metal>  (199) 
-0

>  <r_i_glide_rewards>  (199) 
-0.172361

>  <r_i_glide_evdw>  (199) 
-20.0343

>  <r_i_glide_ecoul>  (199) 
-4.193

>  <r_i_glide_erotb>  (199) 
0.089799

>  <r_i_glide_esite>  (199) 
-0.0179216

>  <r_i_glide_emodel>  (199) 
-26.2065

>  <r_i_glide_energy>  (199) 
-24.2273

>  <r_i_glide_einternal>  (199) 
2.09861

>  <r_i_glide_intrahb_reward>  (199) 
-0

>  <i_i_glide_confnum>  (199) 
4

>  <i_i_glide_posenum>  (199) 
24

>  <r_i_glide_eff_state_penalty>  (199) 
0

>  <ligand_id>  (199) 
57

>  <original_smiles>  (199) 
CC(C)C1C2OC2C1C1CCC2(C)C3CC(C)C2C1(C)C1(C)CCC2=Cc4cncn4CC2(C)C31

>  <smiles>  (199) 
[H]C1=C2C([H])([H])C([H])([H])C3(C([H])([H])[H])C([H])(C4([H])C([H])([H])C([H])(C([H])([H])[H])C5([H])C4(C([H])([H])[H])C([H])([H])C([H])([H])C([H])(C4([H])C6([H])OC6([H])C4([H])C([H])(C([H])([H])[H])C([H])([H])[H])C53C([H])([H])[H])C2(C([H])([H])[H])C([H])([H])n2c([H])nc([H])c21

$$$$
57:1:2
     RDKit          3D

 81 88  0  0  1  0  0  0  0  0999 V2000
    2.9970   -2.5765   -1.8800 C   0  0  0  0  0  0  0  0  0  0  0  0
    4.1343   -2.1835   -0.9093 C   0  0  0  0  0  0  0  0  0  0  0  0
    5.2846   -1.4429   -1.6008 C   0  0  0  0  0  0  0  0  0  0  0  0
    4.5802   -3.3299    0.0380 C   0  0  2  0  0  0  0  0  0  0  0  0
    4.9424   -4.6704   -0.5584 C   0  0  2  0  0  0  0  0  0  0  0  0
    5.4185   -5.7252    0.3312 O   0  0  0  0  0  0  0  0  0  0  0  0
    4.0259   -5.3560    0.4497 C   0  0  1  0  0  0  0  0  0  0  0  0
    3.5904   -4.0005    1.0058 C   0  0  1  0  0  0  0  0  0  0  0  0
    3.8054   -3.8201    2.5319 C   0  0  2  0  0  0  0  0  0  0  0  0
    3.2236   -5.0435    3.4629 C   0  0  0  0  0  0  0  0  0  0  0  0
    2.7637   -4.6933    4.9713 C   0  0  0  0  0  0  0  0  0  0  0  0
    2.2847   -3.2552    4.7765 C   0  0  1  0  0  0  0  0  0  0  0  0
    1.0321   -3.5760    3.8435 C   0  0  0  0  0  0  0  0  0  0  0  0
    1.8314   -1.9965    5.5355 C   0  0  1  0  0  0  0  0  0  0  0  0
    2.9215   -1.7310    6.5603 C   0  0  0  0  0  0  0  0  0  0  0  0
    4.1650   -1.7193    5.7093 C   0  0  1  0  0  0  0  0  0  0  0  0
    5.4100   -2.1198    6.5147 C   0  0  0  0  0  0  0  0  0  0  0  0
    3.7729   -2.6930    4.5662 C   0  0  2  0  0  0  0  0  0  0  0  0
    3.8425   -2.2729    3.1344 C   0  0  1  0  0  0  0  0  0  0  0  0
    5.2834   -1.7382    2.8121 C   0  0  0  0  0  0  0  0  0  0  0  0
    2.7002   -1.0678    3.0267 C   0  0  2  0  0  0  0  0  0  0  0  0
    1.8017   -1.1787    1.7694 C   0  0  0  0  0  0  0  0  0  0  0  0
    3.4024    0.3216    2.8313 C   0  0  0  0  0  0  0  0  0  0  0  0
    2.4613    1.5001    2.6069 C   0  0  0  0  0  0  0  0  0  0  0  0
    1.2686    1.5445    3.5516 C   0  0  0  0  0  0  0  0  0  0  0  0
    0.2943    2.4289    3.3729 C   0  0  0  0  0  0  0  0  0  0  0  0
   -0.7771    2.6181    4.2846 C   0  0  0  0  0  0  0  0  0  0  0  0
   -1.7560    3.5953    4.4480 C   0  0  0  0  0  0  0  0  0  0  0  0
   -2.4718    3.2874    5.5939 N   0  0  0  0  0  0  0  0  0  0  0  0
   -1.9642    2.1576    6.0568 C   0  0  0  0  0  0  0  0  0  0  0  0
   -0.8893    1.7225    5.3058 N   0  0  0  0  0  0  0  0  0  0  0  0
   -0.1393    0.5074    5.4304 C   0  0  0  0  0  0  0  0  0  0  0  0
    1.3078    0.6034    4.7873 C   0  0  2  0  0  0  0  0  0  0  0  0
    2.2164    1.3289    5.8034 C   0  0  0  0  0  0  0  0  0  0  0  0
    1.7512   -0.8659    4.3584 C   0  0  2  0  0  0  0  0  0  0  0  0
    3.3097   -3.3331   -2.6098 H   0  0  0  0  0  0  0  0  0  0  0  0
    2.5997   -1.7018   -2.4161 H   0  0  0  0  0  0  0  0  0  0  0  0
    2.1630   -3.0106   -1.3210 H   0  0  0  0  0  0  0  0  0  0  0  0
    3.8074   -1.3291   -0.3151 H   0  0  0  0  0  0  0  0  0  0  0  0
    5.8963   -2.0651   -2.2734 H   0  0  0  0  0  0  0  0  0  0  0  0
    5.9170   -1.0126   -0.8103 H   0  0  0  0  0  0  0  0  0  0  0  0
    4.8719   -0.5742   -2.1424 H   0  0  0  0  0  0  0  0  0  0  0  0
    5.4974   -3.0491    0.5288 H   0  0  0  0  0  0  0  0  0  0  0  0
    4.8358   -4.8216   -1.6331 H   0  0  0  0  0  0  0  0  0  0  0  0
    3.2474   -6.0287    0.1088 H   0  0  0  0  0  0  0  0  0  0  0  0
    2.5279   -3.8471    0.7555 H   0  0  0  0  0  0  0  0  0  0  0  0
    4.8458   -4.1464    2.6158 H   0  0  0  0  0  0  0  0  0  0  0  0
    2.4094   -5.5626    2.9407 H   0  0  0  0  0  0  0  0  0  0  0  0
    3.9716   -5.8255    3.5489 H   0  0  0  0  0  0  0  0  0  0  0  0
    2.0029   -5.3772    5.3492 H   0  0  0  0  0  0  0  0  0  0  0  0
    3.5659   -4.7936    5.7079 H   0  0  0  0  0  0  0  0  0  0  0  0
    1.2214   -3.7386    2.7927 H   0  0  0  0  0  0  0  0  0  0  0  0
    0.1701   -2.9326    3.9548 H   0  0  0  0  0  0  0  0  0  0  0  0
    0.5613   -4.5101    4.1457 H   0  0  0  0  0  0  0  0  0  0  0  0
    0.8619   -2.1443    6.0288 H   0  0  0  0  0  0  0  0  0  0  0  0
    2.7961   -0.8352    7.1521 H   0  0  0  0  0  0  0  0  0  0  0  0
    2.9403   -2.5639    7.2579 H   0  0  0  0  0  0  0  0  0  0  0  0
    4.3356   -0.7228    5.3193 H   0  0  0  0  0  0  0  0  0  0  0  0
    5.3122   -3.1144    6.9495 H   0  0  0  0  0  0  0  0  0  0  0  0
    5.5837   -1.4206    7.3280 H   0  0  0  0  0  0  0  0  0  0  0  0
    6.2959   -2.1179    5.8871 H   0  0  0  0  0  0  0  0  0  0  0  0
    4.6075   -3.4087    4.6616 H   0  0  0  0  0  0  0  0  0  0  0  0
    5.6092   -0.9163    3.4531 H   0  0  0  0  0  0  0  0  0  0  0  0
    5.3284   -1.3666    1.7901 H   0  0  0  0  0  0  0  0  0  0  0  0
    6.0495   -2.5114    2.9023 H   0  0  0  0  0  0  0  0  0  0  0  0
    0.9518   -0.4973    1.8003 H   0  0  0  0  0  0  0  0  0  0  0  0
    1.3839   -2.1475    1.6120 H   0  0  0  0  0  0  0  0  0  0  0  0
    2.3944   -0.9118    0.9112 H   0  0  0  0  0  0  0  0  0  0  0  0
    4.0288    0.5919    3.6777 H   0  0  0  0  0  0  0  0  0  0  0  0
    4.0828    0.3192    1.9824 H   0  0  0  0  0  0  0  0  0  0  0  0
    3.0090    2.4355    2.7126 H   0  0  0  0  0  0  0  0  0  0  0  0
    2.0875    1.4970    1.5815 H   0  0  0  0  0  0  0  0  0  0  0  0
    0.3004    3.1045    2.5226 H   0  0  0  0  0  0  0  0  0  0  0  0
   -1.9521    4.4697    3.8616 H   0  0  0  0  0  0  0  0  0  0  0  0
   -2.3062    1.6397    6.9210 H   0  0  0  0  0  0  0  0  0  0  0  0
   -0.0676    0.2188    6.4776 H   0  0  0  0  0  0  0  0  0  0  0  0
   -0.7394   -0.2624    4.9304 H   0  0  0  0  0  0  0  0  0  0  0  0
    1.9845    1.0537    6.8263 H   0  0  0  0  0  0  0  0  0  0  0  0
    2.0511    2.4028    5.7555 H   0  0  0  0  0  0  0  0  0  0  0  0
    3.2765    1.1720    5.6212 H   0  0  0  0  0  0  0  0  0  0  0  0
    0.8075   -1.0921    3.8969 H   0  0  0  0  0  0  0  0  0  0  0  0
  1  2  1  0
  1 36  1  0
  1 37  1  0
  1 38  1  0
  2  3  1  0
  2  4  1  0
  2 39  1  0
  3 40  1  0
  3 41  1  0
  3 42  1  0
  4  8  1  0
  4  5  1  0
  4 43  1  1
  5  7  1  0
  5  6  1  0
  5 44  1  6
  6  7  1  0
  7  8  1  0
  7 45  1  6
  8  9  1  0
  8 46  1  6
  9 19  1  0
  9 10  1  0
  9 47  1  6
 10 11  1  0
 10 48  1  0
 10 49  1  0
 11 12  1  0
 11 50  1  0
 11 51  1  0
 12 18  1  0
 12 13  1  6
 12 14  1  0
 13 52  1  0
 13 53  1  0
 13 54  1  0
 14 35  1  0
 14 15  1  0
 14 55  1  1
 15 16  1  0
 15 56  1  0
 15 57  1  0
 16 17  1  0
 16 18  1  0
 16 58  1  6
 17 59  1  0
 17 60  1  0
 17 61  1  0
 18 19  1  0
 18 62  1  6
 19 20  1  1
 19 21  1  0
 20 63  1  0
 20 64  1  0
 20 65  1  0
 21 35  1  0
 21 22  1  6
 21 23  1  0
 22 66  1  0
 22 67  1  0
 22 68  1  0
 23 24  1  0
 23 69  1  0
 23 70  1  0
 24 25  1  0
 24 71  1  0
 24 72  1  0
 25 33  1  0
 25 26  2  0
 26 27  1  0
 26 73  1  0
 27 31  1  0
 27 28  2  0
 28 29  1  0
 28 74  1  0
 29 30  2  0
 30 31  1  0
 30 75  1  0
 31 32  1  0
 32 33  1  0
 32 76  1  0
 32 77  1  0
 33 34  1  1
 33 35  1  0
 34 78  1  0
 34 79  1  0
 34 80  1  0
 35 81  1  6
M  END
>  <i_m_ct_stereo_status>  (200) 
1

>  <s_m_source_file>  (200) 
/var/tmp/pbs.5076255.sched01/tmpl63by5lx/41imve8rrw.sdf

>  <i_m_source_file_index>  (200) 
41

>  <i_lp_mmshare_version>  (200) 
48012

>  <i_f3d_flags>  (200) 
0

>  <s_epik_input>  (200) 
W0NIM11bQ0hdKFtDSDNdKVtDQEhdMVtDQEBIXShbQ0BIXShPMilbQ0BASF0xMilbQ0BIXShbQ0gyXVtDSDJdMylbQ0BdKFtDSDNdKShbQ0BASF00W0NAQEhdKFtDSDJdNSlbQ0gzXSlbQ0BAXShbQ0gzXSkoW0NASF02W0NASF01W0NAXTM0W0NIM10pW0NIMl1bQ0gyXUM9N1tDQEBdNihbQ0gzXSlbQ0gyXW44YyhbQ0hdNylbY0hdbltjSF04

>  <s_epik_cmdline>  (200) 
J2VwaWtfcHl0aG9uJywgJy1waHQnLCAnMi4wJywgJy1waCcsICc3LjAnLCAnLXRuJywgJzgnLCAnLW1hJywgJzIwMCcsICctaW1hZScsICc8aW5maWxlLm1hZT4nLCAnLW9tYWUnLCAnPG91dGZpbGUubWFlPic=

>  <r_epik_Ionization_Penalty>  (200) 
2.12274

>  <r_epik_Ionization_Penalty_Charging>  (200) 
2.12274

>  <r_epik_Ionization_Penalty_Neutral>  (200) 
8.93587e-11

>  <r_epik_State_Penalty>  (200) 
2.26051

>  <r_epik_Charging_Adjusted_Penalty>  (200) 
4.38326

>  <i_epik_Tot_Q>  (200) 
0

>  <i_epik_Tot_abs_Q>  (200) 
0

>  <s_lp_Force_Field>  (200) 
OPLS3e

>  <r_lp_Energy>  (200) 
226.337

>  <b_lp_Chiralities_Consistent>  (200) 
1

>  <s_lp_Variant>  (200) 
57:0-2

>  <s_i_glide_gridfile>  (200) 
pfpi4k_grid

>  <i_i_glide_lignum>  (200) 
41

>  <i_i_glide_rotatable_bonds>  (200) 
2

>  <r_i_docking_score>  (200) 
-1.84113

>  <r_i_glide_ligand_efficiency>  (200) 
-0.0526038

>  <r_i_glide_ligand_efficiency_sa>  (200) 
-0.17207

>  <r_i_glide_ligand_efficiency_ln>  (200) 
-0.404169

>  <r_i_glide_gscore>  (200) 
-1.84113

>  <r_i_glide_lipo>  (200) 
-0.220887

>  <r_i_glide_hbond>  (200) 
0

>  <r_i_glide_metal>  (200) 
-0

>  <r_i_glide_rewards>  (200) 
-0.172361

>  <r_i_glide_evdw>  (200) 
-26.3989

>  <r_i_glide_ecoul>  (200) 
-1.37662

>  <r_i_glide_erotb>  (200) 
0.089799

>  <r_i_glide_esite>  (200) 
-0.0112443

>  <r_i_glide_emodel>  (200) 
-27.5213

>  <r_i_glide_energy>  (200) 
-27.7755

>  <r_i_glide_einternal>  (200) 
2.98258

>  <r_i_glide_intrahb_reward>  (200) 
-0

>  <i_i_glide_confnum>  (200) 
4

>  <i_i_glide_posenum>  (200) 
33

>  <r_i_glide_eff_state_penalty>  (200) 
0

>  <ligand_id>  (200) 
57

>  <original_smiles>  (200) 
CC(C)C1C2OC2C1C1CCC2(C)C3CC(C)C2C1(C)C1(C)CCC2=Cc4cncn4CC2(C)C31

>  <smiles>  (200) 
[H]C1=C2C([H])([H])C([H])([H])C3(C([H])([H])[H])C([H])(C4([H])C([H])([H])C([H])(C([H])([H])[H])C5([H])C4(C([H])([H])[H])C([H])([H])C([H])([H])C([H])(C4([H])C6([H])OC6([H])C4([H])C([H])(C([H])([H])[H])C([H])([H])[H])C53C([H])([H])[H])C2(C([H])([H])[H])C([H])([H])n2c([H])nc([H])c21

$$$$
58:0:0
     RDKit          3D

 69 74  0  0  1  0  0  0  0  0999 V2000
    2.9350   -1.5590   -3.5731 C   0  0  0  0  0  0  0  0  0  0  0  0
    4.3413   -1.9548   -3.1392 C   0  0  2  0  0  0  0  0  0  0  0  0
    4.4133   -3.3355   -2.7177 O   0  0  0  0  0  0  0  0  0  0  0  0
    4.2755   -3.4203   -1.3000 C   0  0  1  0  0  0  0  0  0  0  0  0
    5.0557   -4.4358   -0.6957 O   0  0  0  0  0  0  0  0  0  0  0  0
    4.6075   -4.8712    0.5915 C   0  0  2  0  0  0  0  0  0  0  0  0
    5.7909   -5.5449    1.3180 C   0  0  0  0  0  0  0  0  0  0  0  0
    5.3722   -6.0874    2.7163 C   0  0  1  0  0  0  0  0  0  0  0  0
    5.2028   -4.8968    3.6899 C   0  0  0  0  0  0  0  0  0  0  0  0
    4.1718   -7.1055    2.5591 C   0  0  2  0  0  0  0  0  0  0  0  0
    4.6858   -8.3056    1.6732 C   0  0  0  0  0  0  0  0  0  0  0  0
    2.9613   -6.4357    1.8220 C   0  0  1  0  0  0  0  0  0  0  0  0
    2.1584   -5.4065    2.6788 C   0  0  0  0  0  0  0  0  0  0  0  0
    1.7382   -6.0053    4.0208 C   0  0  0  0  0  0  0  0  0  0  0  0
    2.8928   -6.6967    4.8157 C   0  0  1  0  0  0  0  0  0  0  0  0
    2.5201   -7.4004    6.1417 C   0  0  1  0  0  0  0  0  0  0  0  0
    1.7629   -6.6116    7.2118 C   0  0  0  0  0  0  0  0  0  0  0  0
    1.1874   -7.7084    8.1336 C   0  0  0  0  0  0  0  0  0  0  0  0
    1.3860   -9.0585    7.4187 C   0  0  1  0  0  0  0  0  0  0  0  0
    0.2491   -9.8546    7.5467 O   0  0  0  0  0  0  0  0  0  0  0  0
    1.6899   -8.6891    5.9540 C   0  0  1  0  0  0  0  0  0  0  0  0
    0.3514   -8.4312    5.2082 C   0  0  0  0  0  0  0  0  0  0  0  0
    2.5498   -9.6893    5.1569 C   0  0  0  0  0  0  0  0  0  0  0  0
    2.9803   -9.0782    3.8068 C   0  0  0  0  0  0  0  0  0  0  0  0
    3.7282   -7.7029    3.9451 C   0  0  1  0  0  0  0  0  0  0  0  0
    3.4174   -5.8420    0.4738 C   0  0  0  0  0  0  0  0  0  0  0  0
    4.7055   -2.0717   -0.7677 C   0  0  1  0  0  0  0  0  0  0  0  0
    5.9640   -1.5094   -1.2324 O   0  0  0  0  0  0  0  0  0  0  0  0
    4.7326   -1.1630   -1.9163 C   0  0  1  0  0  0  0  0  0  0  0  0
    2.9025   -0.5098   -3.8690 H   0  0  0  0  0  0  0  0  0  0  0  0
    2.2459   -1.6870   -2.7433 H   0  0  0  0  0  0  0  0  0  0  0  0
    2.5931   -2.1586   -4.4018 H   0  0  0  0  0  0  0  0  0  0  0  0
    5.0219   -1.7515   -3.9690 H   0  0  0  0  0  0  0  0  0  0  0  0
    3.2121   -3.5869   -1.0861 H   0  0  0  0  0  0  0  0  0  0  0  0
    4.3055   -4.0100    1.1772 H   0  0  0  0  0  0  0  0  0  0  0  0
    6.2209   -6.3351    0.6902 H   0  0  0  0  0  0  0  0  0  0  0  0
    6.6141   -4.8439    1.4537 H   0  0  0  0  0  0  0  0  0  0  0  0
    6.2206   -6.6750    3.1098 H   0  0  0  0  0  0  0  0  0  0  0  0
    4.3344   -4.3226    3.4896 H   0  0  0  0  0  0  0  0  0  0  0  0
    6.0108   -4.1937    3.5757 H   0  0  0  0  0  0  0  0  0  0  0  0
    5.2203   -5.2391    4.7122 H   0  0  0  0  0  0  0  0  0  0  0  0
    3.8895   -9.0139    1.4352 H   0  0  0  0  0  0  0  0  0  0  0  0
    5.5034   -8.8311    2.1745 H   0  0  0  0  0  0  0  0  0  0  0  0
    5.0470   -8.0199    0.6930 H   0  0  0  0  0  0  0  0  0  0  0  0
    2.2695   -7.2541    1.5841 H   0  0  0  0  0  0  0  0  0  0  0  0
    2.6332   -4.4473    2.8074 H   0  0  0  0  0  0  0  0  0  0  0  0
    1.2551   -5.1445    2.1316 H   0  0  0  0  0  0  0  0  0  0  0  0
    1.2927   -5.2359    4.6554 H   0  0  0  0  0  0  0  0  0  0  0  0
    0.9488   -6.6615    3.7052 H   0  0  0  0  0  0  0  0  0  0  0  0
    3.4938   -5.8945    5.1926 H   0  0  0  0  0  0  0  0  0  0  0  0
    3.4732   -7.6701    6.6198 H   0  0  0  0  0  0  0  0  0  0  0  0
    2.3822   -5.8866    7.7418 H   0  0  0  0  0  0  0  0  0  0  0  0
    0.9510   -6.0412    6.7610 H   0  0  0  0  0  0  0  0  0  0  0  0
    1.7093   -7.7215    9.0860 H   0  0  0  0  0  0  0  0  0  0  0  0
    0.1351   -7.5097    8.3261 H   0  0  0  0  0  0  0  0  0  0  0  0
    2.2265   -9.5970    7.8505 H   0  0  0  0  0  0  0  0  0  0  0  0
    0.5150  -10.7744    7.3301 H   0  0  0  0  0  0  0  0  0  0  0  0
   -0.3625   -9.2284    5.3415 H   0  0  0  0  0  0  0  0  0  0  0  0
    0.4646   -8.4084    4.1334 H   0  0  0  0  0  0  0  0  0  0  0  0
   -0.1008   -7.4913    5.5323 H   0  0  0  0  0  0  0  0  0  0  0  0
    3.4547   -9.9733    5.6998 H   0  0  0  0  0  0  0  0  0  0  0  0
    1.9852  -10.5980    4.9792 H   0  0  0  0  0  0  0  0  0  0  0  0
    3.5933   -9.8483    3.3241 H   0  0  0  0  0  0  0  0  0  0  0  0
    2.1302   -8.9478    3.1329 H   0  0  0  0  0  0  0  0  0  0  0  0
    4.6474   -7.9531    4.4914 H   0  0  0  0  0  0  0  0  0  0  0  0
    2.5522   -5.3841    0.0014 H   0  0  0  0  0  0  0  0  0  0  0  0
    3.7075   -6.6445   -0.2089 H   0  0  0  0  0  0  0  0  0  0  0  0
    4.2784   -1.7059    0.1753 H   0  0  0  0  0  0  0  0  0  0  0  0
    4.3824   -0.1326   -1.8162 H   0  0  0  0  0  0  0  0  0  0  0  0
  1  2  1  0
  1 30  1  0
  1 31  1  0
  1 32  1  0
  2 29  1  0
  2  3  1  0
  2 33  1  6
  3  4  1  0
  4  5  1  0
  4 27  1  0
  4 34  1  6
  5  6  1  0
  6 26  1  0
  6  7  1  0
  6 35  1  1
  7  8  1  0
  7 36  1  0
  7 37  1  0
  8  9  1  0
  8 10  1  0
  8 38  1  1
  9 39  1  0
  9 40  1  0
  9 41  1  0
 10 25  1  0
 10 11  1  6
 10 12  1  0
 11 42  1  0
 11 43  1  0
 11 44  1  0
 12 13  1  0
 12 26  1  0
 12 45  1  6
 13 14  1  0
 13 46  1  0
 13 47  1  0
 14 15  1  0
 14 48  1  0
 14 49  1  0
 15 25  1  0
 15 16  1  0
 15 50  1  1
 16 21  1  0
 16 17  1  0
 16 51  1  1
 17 18  1  0
 17 52  1  0
 17 53  1  0
 18 19  1  0
 18 54  1  0
 18 55  1  0
 19 20  1  0
 19 21  1  0
 19 56  1  1
 20 57  1  0
 21 22  1  6
 21 23  1  0
 22 58  1  0
 22 59  1  0
 22 60  1  0
 23 24  1  0
 23 61  1  0
 23 62  1  0
 24 25  1  0
 24 63  1  0
 24 64  1  0
 25 65  1  1
 26 66  1  0
 26 67  1  0
 27 29  1  0
 27 28  1  0
 27 68  1  1
 28 29  1  0
 29 69  1  1
M  END
>  <i_m_ct_stereo_status>  (201) 
1

>  <s_m_source_file>  (201) 
/var/tmp/pbs.5076255.sched01/tmpqw5sdpkp/8220gfbieb.sdf

>  <i_m_source_file_index>  (201) 
1

>  <i_lp_mmshare_version>  (201) 
48012

>  <i_f3d_flags>  (201) 
0

>  <s_epik_input>  (201) 
W0NASF0xMltDQEhdKE8yKVtDQEhdKFtDSDNdKU9bQ0BIXTFPW0NASF0oW0NIMl1bQ0BIXTNbQ0gzXSlbQ0gyXVtDQEBIXShbQ0BAXTM0W0NIM10pW0NIMl1bQ0gyXVtDQEhdNVtDQEBIXTZbQ0BdKFtDSDNdKShbQ0BIXShbT0hdKVtDSDJdW0NIMl02KVtDSDJdW0NIMl1bQ0BASF00NQ==

>  <s_epik_cmdline>  (201) 
J2VwaWtfcHl0aG9uJywgJy1waHQnLCAnMi4wJywgJy1waCcsICc3LjAnLCAnLXRuJywgJzgnLCAnLW1hJywgJzIwMCcsICctaW1hZScsICc8aW5maWxlLm1hZT4nLCAnLW9tYWUnLCAnPG91dGZpbGUubWFlPic=

>  <r_lp_tautomer_probability>  (201) 
1

>  <r_epik_Ionization_Penalty>  (201) 
3.06441e-06

>  <r_epik_Ionization_Penalty_Charging>  (201) 
0

>  <r_epik_Ionization_Penalty_Neutral>  (201) 
3.06441e-06

>  <r_epik_State_Penalty>  (201) 
-0

>  <r_epik_Charging_Adjusted_Penalty>  (201) 
0

>  <i_epik_Tot_Q>  (201) 
0

>  <i_epik_Tot_abs_Q>  (201) 
0

>  <s_epik_Chemistry_Notes>  (201) 
This compound contains an acetal/aminal-like group ( X-CH(R)-Y where X, Y are N, S, or O) that may be acid/base labile, releasing an aldehyde.

>  <s_lp_Force_Field>  (201) 
OPLS3e

>  <r_lp_Energy>  (201) 
60.9553

>  <b_lp_Chiralities_Consistent>  (201) 
1

>  <s_lp_Variant>  (201) 
58:0-1

>  <s_i_glide_gridfile>  (201) 
pfpi4k_grid

>  <i_i_glide_lignum>  (201) 
1

>  <i_i_glide_rotatable_bonds>  (201) 
3

>  <r_i_docking_score>  (201) 
-3.11048

>  <r_i_glide_ligand_efficiency>  (201) 
-0.107258

>  <r_i_glide_ligand_efficiency_sa>  (201) 
-0.32953

>  <r_i_glide_ligand_efficiency_ln>  (201) 
-0.712221

>  <r_i_glide_gscore>  (201) 
-3.11048

>  <r_i_glide_lipo>  (201) 
-0.446923

>  <r_i_glide_hbond>  (201) 
-0.265269

>  <r_i_glide_metal>  (201) 
-0

>  <r_i_glide_rewards>  (201) 
-0.650572

>  <r_i_glide_evdw>  (201) 
-28.912

>  <r_i_glide_ecoul>  (201) 
-5.78046

>  <r_i_glide_erotb>  (201) 
0.240025

>  <r_i_glide_esite>  (201) 
-0.00719798

>  <r_i_glide_emodel>  (201) 
-35.7493

>  <r_i_glide_energy>  (201) 
-34.6924

>  <r_i_glide_einternal>  (201) 
4.18706

>  <r_i_glide_intrahb_reward>  (201) 
-0

>  <i_i_glide_confnum>  (201) 
2

>  <i_i_glide_posenum>  (201) 
10

>  <r_i_glide_eff_state_penalty>  (201) 
0

>  <ligand_id>  (201) 
58

>  <original_smiles>  (201) 
CC1OC(OC2CC(C)C3(C)C(CCC4C5CCC(O)C5(C)CCC43)C2)C2OC12

>  <smiles>  (201) 
[H]OC1([H])C([H])([H])C([H])([H])C2([H])C3([H])C([H])([H])C([H])([H])C4([H])C([H])([H])C([H])(OC5([H])OC([H])(C([H])([H])[H])C6([H])OC56[H])C([H])([H])C([H])(C([H])([H])[H])C4(C([H])([H])[H])C3([H])C([H])([H])C([H])([H])C12C([H])([H])[H]

$$$$
58:0:1
     RDKit          3D

 69 74  0  0  1  0  0  0  0  0999 V2000
    3.0278   -4.0473    1.2615 C   0  0  0  0  0  0  0  0  0  0  0  0
    4.0682   -2.9361    1.5029 C   0  0  2  0  0  0  0  0  0  0  0  0
    3.4631   -1.8247    2.1861 O   0  0  0  0  0  0  0  0  0  0  0  0
    3.0442   -0.8210    1.2922 C   0  0  1  0  0  0  0  0  0  0  0  0
    3.2282    0.5036    1.6961 O   0  0  0  0  0  0  0  0  0  0  0  0
    2.2966    0.9462    2.6967 C   0  0  2  0  0  0  0  0  0  0  0  0
    2.1346    2.4881    2.6257 C   0  0  0  0  0  0  0  0  0  0  0  0
    1.2216    3.0381    3.7354 C   0  0  1  0  0  0  0  0  0  0  0  0
   -0.2217    2.7071    3.3823 C   0  0  0  0  0  0  0  0  0  0  0  0
    1.7639    2.5892    5.1433 C   0  0  2  0  0  0  0  0  0  0  0  0
    3.2043    3.2418    5.3025 C   0  0  0  0  0  0  0  0  0  0  0  0
    1.9317    1.0403    5.2525 C   0  0  1  0  0  0  0  0  0  0  0  0
    0.5995    0.2494    5.3959 C   0  0  0  0  0  0  0  0  0  0  0  0
   -0.2563    0.7949    6.5164 C   0  0  0  0  0  0  0  0  0  0  0  0
   -0.4497    2.3349    6.5101 C   0  0  1  0  0  0  0  0  0  0  0  0
   -1.2267    2.9647    7.6877 C   0  0  1  0  0  0  0  0  0  0  0  0
   -2.6166    2.4366    8.0269 C   0  0  0  0  0  0  0  0  0  0  0  0
   -2.8705    2.9639    9.4645 C   0  0  0  0  0  0  0  0  0  0  0  0
   -1.5268    3.5158    9.9856 C   0  0  1  0  0  0  0  0  0  0  0  0
   -1.2762    3.1767   11.3434 O   0  0  0  0  0  0  0  0  0  0  0  0
   -0.4725    2.9397    9.0128 C   0  0  1  0  0  0  0  0  0  0  0  0
   -0.0949    1.5078    9.4809 C   0  0  0  0  0  0  0  0  0  0  0  0
    0.8166    3.7854    8.8509 C   0  0  0  0  0  0  0  0  0  0  0  0
    1.6670    3.2443    7.6757 C   0  0  0  0  0  0  0  0  0  0  0  0
    0.8944    3.1340    6.3306 C   0  0  1  0  0  0  0  0  0  0  0  0
    2.8077    0.5144    4.0834 C   0  0  0  0  0  0  0  0  0  0  0  0
    3.8864   -1.0381    0.0226 C   0  0  1  0  0  0  0  0  0  0  0  0
    5.3099   -1.1961    0.1511 O   0  0  0  0  0  0  0  0  0  0  0  0
    4.5090   -2.3688    0.1703 C   0  0  1  0  0  0  0  0  0  0  0  0
    3.4831   -4.8959    0.7129 H   0  0  0  0  0  0  0  0  0  0  0  0
    2.1986   -3.6749    0.6593 H   0  0  0  0  0  0  0  0  0  0  0  0
    2.6330   -4.4360    2.2088 H   0  0  0  0  0  0  0  0  0  0  0  0
    4.9219   -3.3394    2.0360 H   0  0  0  0  0  0  0  0  0  0  0  0
    1.9904   -0.9865    1.0214 H   0  0  0  0  0  0  0  0  0  0  0  0
    1.3163    0.5126    2.5161 H   0  0  0  0  0  0  0  0  0  0  0  0
    3.1266    2.9644    2.6389 H   0  0  0  0  0  0  0  0  0  0  0  0
    1.7386    2.7821    1.6499 H   0  0  0  0  0  0  0  0  0  0  0  0
    1.2779    4.1087    3.7015 H   0  0  0  0  0  0  0  0  0  0  0  0
   -0.4937    1.6879    3.4883 H   0  0  0  0  0  0  0  0  0  0  0  0
   -0.4569    2.8813    2.3775 H   0  0  0  0  0  0  0  0  0  0  0  0
   -0.9241    3.2833    3.9290 H   0  0  0  0  0  0  0  0  0  0  0  0
    3.7127    2.9266    6.2155 H   0  0  0  0  0  0  0  0  0  0  0  0
    3.1484    4.3308    5.3021 H   0  0  0  0  0  0  0  0  0  0  0  0
    3.9148    2.9731    4.5286 H   0  0  0  0  0  0  0  0  0  0  0  0
    2.4970    0.8483    6.1463 H   0  0  0  0  0  0  0  0  0  0  0  0
    0.0413    0.1307    4.4867 H   0  0  0  0  0  0  0  0  0  0  0  0
    0.8423   -0.7756    5.6066 H   0  0  0  0  0  0  0  0  0  0  0  0
   -1.2201    0.3199    6.5205 H   0  0  0  0  0  0  0  0  0  0  0  0
    0.2646    0.4143    7.3452 H   0  0  0  0  0  0  0  0  0  0  0  0
   -1.1329    2.5288    5.7180 H   0  0  0  0  0  0  0  0  0  0  0  0
   -1.3966    4.0255    7.4165 H   0  0  0  0  0  0  0  0  0  0  0  0
   -3.3903    2.7487    7.3243 H   0  0  0  0  0  0  0  0  0  0  0  0
   -2.6064    1.3490    8.0249 H   0  0  0  0  0  0  0  0  0  0  0  0
   -3.6299    3.7440    9.4649 H   0  0  0  0  0  0  0  0  0  0  0  0
   -3.2396    2.1447   10.0934 H   0  0  0  0  0  0  0  0  0  0  0  0
   -1.5436    4.6092    9.9339 H   0  0  0  0  0  0  0  0  0  0  0  0
   -2.0530    2.8173   11.7543 H   0  0  0  0  0  0  0  0  0  0  0  0
    0.1463    1.4382   10.5257 H   0  0  0  0  0  0  0  0  0  0  0  0
    0.8131    1.1472    9.0334 H   0  0  0  0  0  0  0  0  0  0  0  0
   -0.8962    0.8114    9.2697 H   0  0  0  0  0  0  0  0  0  0  0  0
    0.5831    4.8340    8.6447 H   0  0  0  0  0  0  0  0  0  0  0  0
    1.3976    3.7701    9.7769 H   0  0  0  0  0  0  0  0  0  0  0  0
    2.5294    3.9099    7.6284 H   0  0  0  0  0  0  0  0  0  0  0  0
    2.0900    2.2686    7.9292 H   0  0  0  0  0  0  0  0  0  0  0  0
    0.6411    4.1803    6.0813 H   0  0  0  0  0  0  0  0  0  0  0  0
    2.8669   -0.5641    4.1723 H   0  0  0  0  0  0  0  0  0  0  0  0
    3.8359    0.8685    4.1999 H   0  0  0  0  0  0  0  0  0  0  0  0
    3.4712   -0.7679   -0.9589 H   0  0  0  0  0  0  0  0  0  0  0  0
    4.5813   -3.0428   -0.7095 H   0  0  0  0  0  0  0  0  0  0  0  0
  1  2  1  0
  1 30  1  0
  1 31  1  0
  1 32  1  0
  2 29  1  0
  2  3  1  0
  2 33  1  1
  3  4  1  0
  4  5  1  0
  4 27  1  0
  4 34  1  6
  5  6  1  0
  6 26  1  0
  6  7  1  0
  6 35  1  6
  7  8  1  0
  7 36  1  0
  7 37  1  0
  8  9  1  0
  8 10  1  0
  8 38  1  1
  9 39  1  0
  9 40  1  0
  9 41  1  0
 10 25  1  0
 10 11  1  1
 10 12  1  0
 11 42  1  0
 11 43  1  0
 11 44  1  0
 12 13  1  0
 12 26  1  0
 12 45  1  1
 13 14  1  0
 13 46  1  0
 13 47  1  0
 14 15  1  0
 14 48  1  0
 14 49  1  0
 15 25  1  0
 15 16  1  0
 15 50  1  6
 16 21  1  0
 16 17  1  0
 16 51  1  6
 17 18  1  0
 17 52  1  0
 17 53  1  0
 18 19  1  0
 18 54  1  0
 18 55  1  0
 19 20  1  0
 19 21  1  0
 19 56  1  1
 20 57  1  0
 21 22  1  1
 21 23  1  0
 22 58  1  0
 22 59  1  0
 22 60  1  0
 23 24  1  0
 23 61  1  0
 23 62  1  0
 24 25  1  0
 24 63  1  0
 24 64  1  0
 25 65  1  6
 26 66  1  0
 26 67  1  0
 27 29  1  0
 27 28  1  0
 27 68  1  6
 28 29  1  0
 29 69  1  6
M  END
>  <i_m_ct_stereo_status>  (202) 
1

>  <s_m_source_file>  (202) 
/var/tmp/pbs.5076255.sched01/tmpqw5sdpkp/8220gfbieb.sdf

>  <i_m_source_file_index>  (202) 
1

>  <i_lp_mmshare_version>  (202) 
48012

>  <i_f3d_flags>  (202) 
0

>  <s_epik_input>  (202) 
W0NASF0xMltDQEhdKE8yKVtDQEhdKFtDSDNdKU9bQ0BIXTFPW0NASF0oW0NIMl1bQ0BIXTNbQ0gzXSlbQ0gyXVtDQEBIXShbQ0BAXTM0W0NIM10pW0NIMl1bQ0gyXVtDQEhdNVtDQEBIXTZbQ0BdKFtDSDNdKShbQ0BIXShbT0hdKVtDSDJdW0NIMl02KVtDSDJdW0NIMl1bQ0BASF00NQ==

>  <s_epik_cmdline>  (202) 
J2VwaWtfcHl0aG9uJywgJy1waHQnLCAnMi4wJywgJy1waCcsICc3LjAnLCAnLXRuJywgJzgnLCAnLW1hJywgJzIwMCcsICctaW1hZScsICc8aW5maWxlLm1hZT4nLCAnLW9tYWUnLCAnPG91dGZpbGUubWFlPic=

>  <r_lp_tautomer_probability>  (202) 
1

>  <r_epik_Ionization_Penalty>  (202) 
3.06441e-06

>  <r_epik_Ionization_Penalty_Charging>  (202) 
0

>  <r_epik_Ionization_Penalty_Neutral>  (202) 
3.06441e-06

>  <r_epik_State_Penalty>  (202) 
-0

>  <r_epik_Charging_Adjusted_Penalty>  (202) 
0

>  <i_epik_Tot_Q>  (202) 
0

>  <i_epik_Tot_abs_Q>  (202) 
0

>  <s_epik_Chemistry_Notes>  (202) 
This compound contains an acetal/aminal-like group ( X-CH(R)-Y where X, Y are N, S, or O) that may be acid/base labile, releasing an aldehyde.

>  <s_lp_Force_Field>  (202) 
OPLS3e

>  <r_lp_Energy>  (202) 
60.9553

>  <b_lp_Chiralities_Consistent>  (202) 
1

>  <s_lp_Variant>  (202) 
58:0-1

>  <s_i_glide_gridfile>  (202) 
pfpi4k_grid

>  <i_i_glide_lignum>  (202) 
1

>  <i_i_glide_rotatable_bonds>  (202) 
3

>  <r_i_docking_score>  (202) 
-2.50467

>  <r_i_glide_ligand_efficiency>  (202) 
-0.0863679

>  <r_i_glide_ligand_efficiency_sa>  (202) 
-0.26535

>  <r_i_glide_ligand_efficiency_ln>  (202) 
-0.573506

>  <r_i_glide_gscore>  (202) 
-2.50467

>  <r_i_glide_lipo>  (202) 
-0.0506065

>  <r_i_glide_hbond>  (202) 
-0.16

>  <r_i_glide_metal>  (202) 
-0

>  <r_i_glide_rewards>  (202) 
-0.650572

>  <r_i_glide_evdw>  (202) 
-25.4894

>  <r_i_glide_ecoul>  (202) 
-3.75592

>  <r_i_glide_erotb>  (202) 
0.240025

>  <r_i_glide_esite>  (202) 
-0.0456601

>  <r_i_glide_emodel>  (202) 
-31.0531

>  <r_i_glide_energy>  (202) 
-29.2453

>  <r_i_glide_einternal>  (202) 
1.68487

>  <r_i_glide_intrahb_reward>  (202) 
-0

>  <i_i_glide_confnum>  (202) 
5

>  <i_i_glide_posenum>  (202) 
27

>  <r_i_glide_eff_state_penalty>  (202) 
0

>  <ligand_id>  (202) 
58

>  <original_smiles>  (202) 
CC1OC(OC2CC(C)C3(C)C(CCC4C5CCC(O)C5(C)CCC43)C2)C2OC12

>  <smiles>  (202) 
[H]OC1([H])C([H])([H])C([H])([H])C2([H])C3([H])C([H])([H])C([H])([H])C4([H])C([H])([H])C([H])(OC5([H])OC([H])(C([H])([H])[H])C6([H])OC56[H])C([H])([H])C([H])(C([H])([H])[H])C4(C([H])([H])[H])C3([H])C([H])([H])C([H])([H])C12C([H])([H])[H]

$$$$
58:0:2
     RDKit          3D

 69 74  0  0  1  0  0  0  0  0999 V2000
    2.8306   -3.9555    0.0349 C   0  0  0  0  0  0  0  0  0  0  0  0
    3.9828   -3.2285    0.7550 C   0  0  2  0  0  0  0  0  0  0  0  0
    3.4653   -2.2711    1.7030 O   0  0  0  0  0  0  0  0  0  0  0  0
    3.4225   -0.9740    1.1195 C   0  0  1  0  0  0  0  0  0  0  0  0
    3.7671    0.0900    1.9843 O   0  0  0  0  0  0  0  0  0  0  0  0
    2.6918    0.5324    2.8224 C   0  0  2  0  0  0  0  0  0  0  0  0
    1.8024    1.5712    2.0831 C   0  0  0  0  0  0  0  0  0  0  0  0
    0.6784    2.1232    2.9912 C   0  0  1  0  0  0  0  0  0  0  0  0
   -0.3921    1.0546    3.1460 C   0  0  0  0  0  0  0  0  0  0  0  0
    1.3081    2.7527    4.2953 C   0  0  2  0  0  0  0  0  0  0  0  0
    2.2309    3.9588    3.8276 C   0  0  0  0  0  0  0  0  0  0  0  0
    2.2040    1.7283    5.0623 C   0  0  1  0  0  0  0  0  0  0  0  0
    1.4157    0.6306    5.8256 C   0  0  0  0  0  0  0  0  0  0  0  0
    0.3529    1.2276    6.7271 C   0  0  0  0  0  0  0  0  0  0  0  0
   -0.5747    2.2653    6.0388 C   0  0  1  0  0  0  0  0  0  0  0  0
   -1.6198    2.9780    6.9263 C   0  0  1  0  0  0  0  0  0  0  0  0
   -2.5832    2.1497    7.7573 C   0  0  0  0  0  0  0  0  0  0  0  0
   -3.1420    3.1399    8.8069 C   0  0  0  0  0  0  0  0  0  0  0  0
   -2.2703    4.4093    8.7199 C   0  0  1  0  0  0  0  0  0  0  0  0
   -1.9712    4.8964   10.0165 O   0  0  0  0  0  0  0  0  0  0  0  0
   -1.0116    3.9687    7.9287 C   0  0  1  0  0  0  0  0  0  0  0  0
   -0.0120    3.3080    8.9123 C   0  0  0  0  0  0  0  0  0  0  0  0
   -0.3064    5.0972    7.1223 C   0  0  0  0  0  0  0  0  0  0  0  0
    0.7732    4.4707    6.1927 C   0  0  0  0  0  0  0  0  0  0  0  0
    0.2142    3.3617    5.2411 C   0  0  1  0  0  0  0  0  0  0  0  0
    3.2783    1.1480    4.1073 C   0  0  0  0  0  0  0  0  0  0  0  0
    4.4287   -0.9894   -0.0274 C   0  0  1  0  0  0  0  0  0  0  0  0
    5.7757   -1.4976    0.2126 O   0  0  0  0  0  0  0  0  0  0  0  0
    4.7677   -2.4228   -0.2570 C   0  0  1  0  0  0  0  0  0  0  0  0
    3.2273   -4.6759   -0.7015 H   0  0  0  0  0  0  0  0  0  0  0  0
    2.2089   -3.2397   -0.5058 H   0  0  0  0  0  0  0  0  0  0  0  0
    2.2134   -4.5029    0.7449 H   0  0  0  0  0  0  0  0  0  0  0  0
    4.6428   -3.9660    1.2274 H   0  0  0  0  0  0  0  0  0  0  0  0
    2.4197   -0.7974    0.6840 H   0  0  0  0  0  0  0  0  0  0  0  0
    2.0638   -0.3181    3.0990 H   0  0  0  0  0  0  0  0  0  0  0  0
    2.4340    2.3810    1.6801 H   0  0  0  0  0  0  0  0  0  0  0  0
    1.3470    1.1343    1.1871 H   0  0  0  0  0  0  0  0  0  0  0  0
    0.2035    2.9444    2.4807 H   0  0  0  0  0  0  0  0  0  0  0  0
   -0.1184    0.2565    3.7672 H   0  0  0  0  0  0  0  0  0  0  0  0
   -0.6195    0.5944    2.2324 H   0  0  0  0  0  0  0  0  0  0  0  0
   -1.3005    1.4568    3.5033 H   0  0  0  0  0  0  0  0  0  0  0  0
    2.7699    4.4187    4.6582 H   0  0  0  0  0  0  0  0  0  0  0  0
    1.6470    4.7377    3.3323 H   0  0  0  0  0  0  0  0  0  0  0  0
    3.0199    3.6844    3.1372 H   0  0  0  0  0  0  0  0  0  0  0  0
    2.7447    2.2997    5.8021 H   0  0  0  0  0  0  0  0  0  0  0  0
    1.0254   -0.1478    5.1982 H   0  0  0  0  0  0  0  0  0  0  0  0
    2.1205    0.0915    6.4358 H   0  0  0  0  0  0  0  0  0  0  0  0
   -0.2536    0.4463    7.1501 H   0  0  0  0  0  0  0  0  0  0  0  0
    0.9400    1.6100    7.5148 H   0  0  0  0  0  0  0  0  0  0  0  0
   -1.2110    1.7093    5.3944 H   0  0  0  0  0  0  0  0  0  0  0  0
   -2.2725    3.5524    6.2442 H   0  0  0  0  0  0  0  0  0  0  0  0
   -3.3756    1.6813    7.1702 H   0  0  0  0  0  0  0  0  0  0  0  0
   -2.0524    1.3528    8.2619 H   0  0  0  0  0  0  0  0  0  0  0  0
   -4.1821    3.3831    8.6036 H   0  0  0  0  0  0  0  0  0  0  0  0
   -3.0948    2.6843    9.7995 H   0  0  0  0  0  0  0  0  0  0  0  0
   -2.8095    5.1973    8.1856 H   0  0  0  0  0  0  0  0  0  0  0  0
   -1.5451    4.1902   10.4867 H   0  0  0  0  0  0  0  0  0  0  0  0
    0.1775    3.8961    9.7898 H   0  0  0  0  0  0  0  0  0  0  0  0
    0.9719    3.2114    8.4876 H   0  0  0  0  0  0  0  0  0  0  0  0
   -0.3646    2.3301    9.2173 H   0  0  0  0  0  0  0  0  0  0  0  0
   -1.0150    5.6510    6.5157 H   0  0  0  0  0  0  0  0  0  0  0  0
    0.1726    5.8022    7.8224 H   0  0  0  0  0  0  0  0  0  0  0  0
    1.2019    5.3219    5.6555 H   0  0  0  0  0  0  0  0  0  0  0  0
    1.6006    4.0596    6.7809 H   0  0  0  0  0  0  0  0  0  0  0  0
   -0.5001    3.9049    4.5949 H   0  0  0  0  0  0  0  0  0  0  0  0
    3.8591    0.4150    4.6534 H   0  0  0  0  0  0  0  0  0  0  0  0
    3.9904    1.9308    3.8330 H   0  0  0  0  0  0  0  0  0  0  0  0
    4.2673   -0.3528   -0.9145 H   0  0  0  0  0  0  0  0  0  0  0  0
    4.8816   -2.8014   -1.2870 H   0  0  0  0  0  0  0  0  0  0  0  0
  1  2  1  0
  1 30  1  0
  1 31  1  0
  1 32  1  0
  2 29  1  0
  2  3  1  0
  2 33  1  1
  3  4  1  0
  4  5  1  0
  4 27  1  0
  4 34  1  6
  5  6  1  0
  6 26  1  0
  6  7  1  0
  6 35  1  1
  7  8  1  0
  7 36  1  0
  7 37  1  0
  8  9  1  0
  8 10  1  0
  8 38  1  6
  9 39  1  0
  9 40  1  0
  9 41  1  0
 10 25  1  0
 10 11  1  6
 10 12  1  0
 11 42  1  0
 11 43  1  0
 11 44  1  0
 12 13  1  0
 12 26  1  0
 12 45  1  1
 13 14  1  0
 13 46  1  0
 13 47  1  0
 14 15  1  0
 14 48  1  0
 14 49  1  0
 15 25  1  0
 15 16  1  0
 15 50  1  6
 16 21  1  0
 16 17  1  0
 16 51  1  6
 17 18  1  0
 17 52  1  0
 17 53  1  0
 18 19  1  0
 18 54  1  0
 18 55  1  0
 19 20  1  0
 19 21  1  0
 19 56  1  6
 20 57  1  0
 21 22  1  1
 21 23  1  0
 22 58  1  0
 22 59  1  0
 22 60  1  0
 23 24  1  0
 23 61  1  0
 23 62  1  0
 24 25  1  0
 24 63  1  0
 24 64  1  0
 25 65  1  6
 26 66  1  0
 26 67  1  0
 27 29  1  0
 27 28  1  0
 27 68  1  6
 28 29  1  0
 29 69  1  6
M  END
>  <i_m_ct_stereo_status>  (203) 
1

>  <s_m_source_file>  (203) 
/var/tmp/pbs.5076255.sched01/tmpqw5sdpkp/8220gfbieb.sdf

>  <i_m_source_file_index>  (203) 
1

>  <i_lp_mmshare_version>  (203) 
48012

>  <i_f3d_flags>  (203) 
0

>  <s_epik_input>  (203) 
W0NASF0xMltDQEhdKE8yKVtDQEhdKFtDSDNdKU9bQ0BIXTFPW0NASF0oW0NIMl1bQ0BIXTNbQ0gzXSlbQ0gyXVtDQEBIXShbQ0BAXTM0W0NIM10pW0NIMl1bQ0gyXVtDQEhdNVtDQEBIXTZbQ0BdKFtDSDNdKShbQ0BIXShbT0hdKVtDSDJdW0NIMl02KVtDSDJdW0NIMl1bQ0BASF00NQ==

>  <s_epik_cmdline>  (203) 
J2VwaWtfcHl0aG9uJywgJy1waHQnLCAnMi4wJywgJy1waCcsICc3LjAnLCAnLXRuJywgJzgnLCAnLW1hJywgJzIwMCcsICctaW1hZScsICc8aW5maWxlLm1hZT4nLCAnLW9tYWUnLCAnPG91dGZpbGUubWFlPic=

>  <r_lp_tautomer_probability>  (203) 
1

>  <r_epik_Ionization_Penalty>  (203) 
3.06441e-06

>  <r_epik_Ionization_Penalty_Charging>  (203) 
0

>  <r_epik_Ionization_Penalty_Neutral>  (203) 
3.06441e-06

>  <r_epik_State_Penalty>  (203) 
-0

>  <r_epik_Charging_Adjusted_Penalty>  (203) 
0

>  <i_epik_Tot_Q>  (203) 
0

>  <i_epik_Tot_abs_Q>  (203) 
0

>  <s_epik_Chemistry_Notes>  (203) 
This compound contains an acetal/aminal-like group ( X-CH(R)-Y where X, Y are N, S, or O) that may be acid/base labile, releasing an aldehyde.

>  <s_lp_Force_Field>  (203) 
OPLS3e

>  <r_lp_Energy>  (203) 
60.9553

>  <b_lp_Chiralities_Consistent>  (203) 
1

>  <s_lp_Variant>  (203) 
58:0-1

>  <s_i_glide_gridfile>  (203) 
pfpi4k_grid

>  <i_i_glide_lignum>  (203) 
1

>  <i_i_glide_rotatable_bonds>  (203) 
3

>  <r_i_docking_score>  (203) 
-2.21525

>  <r_i_glide_ligand_efficiency>  (203) 
-0.0763879

>  <r_i_glide_ligand_efficiency_sa>  (203) 
-0.234688

>  <r_i_glide_ligand_efficiency_ln>  (203) 
-0.507236

>  <r_i_glide_gscore>  (203) 
-2.21525

>  <r_i_glide_lipo>  (203) 
-0.0761459

>  <r_i_glide_hbond>  (203) 
0

>  <r_i_glide_metal>  (203) 
-0

>  <r_i_glide_rewards>  (203) 
-0.650572

>  <r_i_glide_evdw>  (203) 
-29.1977

>  <r_i_glide_ecoul>  (203) 
-1.56564

>  <r_i_glide_erotb>  (203) 
0.240025

>  <r_i_glide_esite>  (203) 
-0.0338252

>  <r_i_glide_emodel>  (203) 
-33.5052

>  <r_i_glide_energy>  (203) 
-30.7633

>  <r_i_glide_einternal>  (203) 
0.714799

>  <r_i_glide_intrahb_reward>  (203) 
-0

>  <i_i_glide_confnum>  (203) 
5

>  <i_i_glide_posenum>  (203) 
24

>  <r_i_glide_eff_state_penalty>  (203) 
0

>  <ligand_id>  (203) 
58

>  <original_smiles>  (203) 
CC1OC(OC2CC(C)C3(C)C(CCC4C5CCC(O)C5(C)CCC43)C2)C2OC12

>  <smiles>  (203) 
[H]OC1([H])C([H])([H])C([H])([H])C2([H])C3([H])C([H])([H])C([H])([H])C4([H])C([H])([H])C([H])(OC5([H])OC([H])(C([H])([H])[H])C6([H])OC56[H])C([H])([H])C([H])(C([H])([H])[H])C4(C([H])([H])[H])C3([H])C([H])([H])C([H])([H])C12C([H])([H])[H]

$$$$
59:0:0
     RDKit          3D

 61 67  0  0  1  0  0  0  0  0999 V2000
    1.0201  -11.3151    4.4835 C   0  0  0  0  0  0  0  0  0  0  0  0
    1.0570   -9.9803    4.3098 C   0  0  0  0  0  0  0  0  0  0  0  0
    0.1080   -9.2982    3.2939 C   0  0  1  0  0  0  0  0  0  0  0  0
   -0.9449   -8.6600    4.0018 O   0  0  0  0  0  0  0  0  0  0  0  0
    0.8157   -8.2962    2.3096 C   0  0  0  0  0  0  0  0  0  0  0  0
    2.2728   -8.1270    2.7306 C   0  0  2  0  0  0  0  0  0  0  0  0
    2.3360   -7.7905    4.2295 C   0  0  2  0  0  0  0  0  0  0  0  0
    1.5736   -6.5252    4.6807 C   0  0  0  0  0  0  0  0  0  0  0  0
    2.0591   -5.3706    3.9489 O   0  0  0  0  0  0  0  0  0  0  0  0
    2.5537   -5.6204    2.6186 C   0  0  2  0  0  0  0  0  0  0  0  0
    3.2746   -6.9736    2.6046 C   0  0  2  0  0  0  0  0  0  0  0  0
    4.2815   -6.8939    1.4643 C   0  0  0  0  0  0  0  0  0  0  0  0
    4.4839   -5.4071    1.1067 C   0  0  2  0  0  0  0  0  0  0  0  0
    4.3233   -5.2417   -0.2869 O   0  0  0  0  0  0  0  0  0  0  0  0
    5.7564   -4.9958    1.5086 O   0  0  0  0  0  0  0  0  0  0  0  0
    5.6883   -3.6674    1.9057 C   0  0  1  0  0  0  0  0  0  0  0  0
    5.5410   -2.8440    0.7904 O   0  0  0  0  0  0  0  0  0  0  0  0
    5.4492   -1.4861    1.0949 C   0  0  1  0  0  0  0  0  0  0  0  0
    5.5277   -0.7067   -0.0607 O   0  0  0  0  0  0  0  0  0  0  0  0
    4.7559   -1.1653   -1.1691 C   0  0  0  0  0  0  0  0  0  0  0  0
    4.1158   -1.2214    1.8230 C   0  0  0  0  0  0  0  0  0  0  0  0
    4.0322   -2.1369    3.0523 C   0  0  1  0  0  0  0  0  0  0  0  0
    2.7301   -2.0352    3.5855 O   0  0  0  0  0  0  0  0  0  0  0  0
    4.4299   -3.6298    2.7913 C   0  0  2  0  0  0  0  0  0  0  0  0
    4.8675   -4.2179    4.1528 C   0  0  0  0  0  0  0  0  0  0  0  0
    3.4703   -4.5567    1.9469 C   0  0  2  0  0  0  0  0  0  0  0  0
    2.6209   -3.7807    1.1118 O   0  0  0  0  0  0  0  0  0  0  0  0
    3.7897   -7.4735    4.0087 C   0  0  2  0  0  0  0  0  0  0  0  0
    4.4111   -8.8263    4.3303 C   0  0  0  0  0  0  0  0  0  0  0  0
    3.5356   -9.6581    4.9126 C   0  0  0  0  0  0  0  0  0  0  0  0
    2.1159   -9.0871    5.0090 C   0  0  2  0  0  0  0  0  0  0  0  0
    1.7006  -11.8172    5.1588 H   0  0  0  0  0  0  0  0  0  0  0  0
    0.2941  -11.9209    3.9640 H   0  0  0  0  0  0  0  0  0  0  0  0
   -0.3708  -10.0742    2.6954 H   0  0  0  0  0  0  0  0  0  0  0  0
   -1.4045   -9.3445    4.4738 H   0  0  0  0  0  0  0  0  0  0  0  0
    0.7708   -8.6568    1.2824 H   0  0  0  0  0  0  0  0  0  0  0  0
    0.2743   -7.3490    2.3065 H   0  0  0  0  0  0  0  0  0  0  0  0
    2.8024   -9.0403    2.4460 H   0  0  0  0  0  0  0  0  0  0  0  0
    0.4974   -6.6224    4.5554 H   0  0  0  0  0  0  0  0  0  0  0  0
    1.7354   -6.3412    5.7440 H   0  0  0  0  0  0  0  0  0  0  0  0
    1.6829   -5.7226    1.9701 H   0  0  0  0  0  0  0  0  0  0  0  0
    5.2393   -7.3332    1.7513 H   0  0  0  0  0  0  0  0  0  0  0  0
    3.9034   -7.4406    0.5947 H   0  0  0  0  0  0  0  0  0  0  0  0
    4.2432   -4.3231   -0.4772 H   0  0  0  0  0  0  0  0  0  0  0  0
    6.6042   -3.4025    2.4316 H   0  0  0  0  0  0  0  0  0  0  0  0
    6.2942   -1.1820    1.7218 H   0  0  0  0  0  0  0  0  0  0  0  0
    4.8473   -0.4601   -1.9951 H   0  0  0  0  0  0  0  0  0  0  0  0
    3.6972   -1.2583   -0.9300 H   0  0  0  0  0  0  0  0  0  0  0  0
    5.1186   -2.1328   -1.5227 H   0  0  0  0  0  0  0  0  0  0  0  0
    4.0934   -0.1744    2.1281 H   0  0  0  0  0  0  0  0  0  0  0  0
    3.2674   -1.3731    1.1610 H   0  0  0  0  0  0  0  0  0  0  0  0
    4.7079   -1.7194    3.7993 H   0  0  0  0  0  0  0  0  0  0  0  0
    2.1194   -2.3325    2.9232 H   0  0  0  0  0  0  0  0  0  0  0  0
    4.0307   -4.3475    4.8373 H   0  0  0  0  0  0  0  0  0  0  0  0
    5.5733   -3.5553    4.6576 H   0  0  0  0  0  0  0  0  0  0  0  0
    5.3924   -5.1666    4.0320 H   0  0  0  0  0  0  0  0  0  0  0  0
    3.1642   -3.1630    0.6502 H   0  0  0  0  0  0  0  0  0  0  0  0
    4.1406   -6.7148    4.7003 H   0  0  0  0  0  0  0  0  0  0  0  0
    5.4650   -9.0371    4.1925 H   0  0  0  0  0  0  0  0  0  0  0  0
    3.7932  -10.6432    5.2810 H   0  0  0  0  0  0  0  0  0  0  0  0
    1.8434   -8.9166    6.0495 H   0  0  0  0  0  0  0  0  0  0  0  0
  1  2  2  0
  1 32  1  0
  1 33  1  0
  2 31  1  0
  2  3  1  0
  3  4  1  0
  3  5  1  0
  3 34  1  6
  4 35  1  0
  5  6  1  0
  5 36  1  0
  5 37  1  0
  6 11  1  0
  6  7  1  0
  6 38  1  1
  7 28  1  0
  7 31  1  0
  7  8  1  1
  8  9  1  0
  8 39  1  0
  8 40  1  0
  9 10  1  0
 10 26  1  0
 10 11  1  0
 10 41  1  6
 11 12  1  6
 11 28  1  0
 12 13  1  0
 12 42  1  0
 12 43  1  0
 13 26  1  0
 13 14  1  6
 13 15  1  0
 14 44  1  0
 15 16  1  0
 16 24  1  0
 16 17  1  0
 16 45  1  1
 17 18  1  0
 18 19  1  0
 18 21  1  0
 18 46  1  1
 19 20  1  0
 20 47  1  0
 20 48  1  0
 20 49  1  0
 21 22  1  0
 21 50  1  0
 21 51  1  0
 22 23  1  0
 22 24  1  0
 22 52  1  1
 23 53  1  0
 24 25  1  1
 24 26  1  0
 25 54  1  0
 25 55  1  0
 25 56  1  0
 26 27  1  6
 27 57  1  0
 28 29  1  0
 28 58  1  1
 29 30  2  0
 29 59  1  0
 30 31  1  0
 30 60  1  0
 31 61  1  1
M  END
>  <i_m_ct_stereo_status>  (204) 
1

>  <s_m_source_file>  (204) 
/var/tmp/pbs.5076255.sched01/tmpqw5sdpkp/8220gfbieb.sdf

>  <i_m_source_file_index>  (204) 
2

>  <i_lp_mmshare_version>  (204) 
48012

>  <i_f3d_flags>  (204) 
0

>  <s_epik_input>  (204) 
W09IXVtDQEBIXShbQ0gyXTEpQyg9W0NIMl0pW0NASF0yW0NIXT1bQ0hdW0NASF0zW0NAQF00KFtDQEhdMVtDQEBdMjM1KVtDQEBIXShPW0NIMl01KVtDQF02KFtPSF0pW0NAQF0oW0NIMl00KShbT0hdKU9bQ0BASF03W0NAQF02KFtDSDNdKVtDQEhdKFtPSF0pW0NIMl1bQ0BASF0oTzcpT1tDSDNd

>  <s_epik_cmdline>  (204) 
J2VwaWtfcHl0aG9uJywgJy1waHQnLCAnMi4wJywgJy1waCcsICc3LjAnLCAnLXRuJywgJzgnLCAnLW1hJywgJzIwMCcsICctaW1hZScsICc8aW5maWxlLm1hZT4nLCAnLW9tYWUnLCAnPG91dGZpbGUubWFlPic=

>  <r_lp_tautomer_probability>  (204) 
1

>  <r_epik_Ionization_Penalty>  (204) 
7.97578e-07

>  <r_epik_Ionization_Penalty_Charging>  (204) 
0

>  <r_epik_Ionization_Penalty_Neutral>  (204) 
7.97578e-07

>  <r_epik_State_Penalty>  (204) 
-0

>  <r_epik_Charging_Adjusted_Penalty>  (204) 
0

>  <i_epik_Tot_Q>  (204) 
0

>  <i_epik_Tot_abs_Q>  (204) 
0

>  <s_epik_Chemistry_Notes>  (204) 
This compound contains an acetal/aminal-like group ( X-CH(R)-Y where X, Y are N, S, or O) that may be acid/base labile, releasing an aldehyde.

>  <s_lp_Force_Field>  (204) 
OPLS3e

>  <r_lp_Energy>  (204) 
96.1414

>  <b_lp_Chiralities_Consistent>  (204) 
1

>  <s_lp_Variant>  (204) 
59:0-1

>  <s_i_glide_gridfile>  (204) 
pfpi4k_grid

>  <i_i_glide_lignum>  (204) 
2

>  <i_i_glide_rotatable_bonds>  (204) 
5

>  <r_i_docking_score>  (204) 
-3.53574

>  <r_i_glide_ligand_efficiency>  (204) 
-0.114056

>  <r_i_glide_ligand_efficiency_sa>  (204) 
-0.358293

>  <r_i_glide_ligand_efficiency_ln>  (204) 
-0.797417

>  <r_i_glide_gscore>  (204) 
-3.53574

>  <r_i_glide_lipo>  (204) 
-0.155493

>  <r_i_glide_hbond>  (204) 
-0.16

>  <r_i_glide_metal>  (204) 
-0

>  <r_i_glide_rewards>  (204) 
-1.71623

>  <r_i_glide_evdw>  (204) 
-21.59

>  <r_i_glide_ecoul>  (204) 
-2.8301

>  <r_i_glide_erotb>  (204) 
0

>  <r_i_glide_esite>  (204) 
0

>  <r_i_glide_emodel>  (204) 
-40.7257

>  <r_i_glide_energy>  (204) 
-24.4201

>  <r_i_glide_einternal>  (204) 
4.04944

>  <r_i_glide_intrahb_reward>  (204) 
-1

>  <i_i_glide_confnum>  (204) 
2

>  <i_i_glide_posenum>  (204) 
23

>  <r_i_glide_eff_state_penalty>  (204) 
0

>  <ligand_id>  (204) 
59

>  <original_smiles>  (204) 
C=C1C(O)CC2C34COC5C2(CC2(O)OC6OC(OC)CC(O)C6(C)C52O)C3C=CC14

>  <smiles>  (204) 
[H]OC1([H])C(=C([H])[H])C2([H])C([H])=C([H])C3([H])C24C([H])([H])OC2([H])C5(O[H])C(O[H])(OC6([H])OC([H])(OC([H])([H])[H])C([H])([H])C([H])(O[H])C65C([H])([H])[H])C([H])([H])C23C4([H])C1([H])[H]

$$$$
59:0:1
     RDKit          3D

 61 67  0  0  1  0  0  0  0  0999 V2000
    1.1292   -9.4113    5.7369 C   0  0  0  0  0  0  0  0  0  0  0  0
    1.4574   -8.1562    5.3950 C   0  0  0  0  0  0  0  0  0  0  0  0
    0.3473   -7.0879    5.2088 C   0  0  1  0  0  0  0  0  0  0  0  0
    0.3496   -6.2035    6.3085 O   0  0  0  0  0  0  0  0  0  0  0  0
    0.4360   -6.2642    3.8753 C   0  0  0  0  0  0  0  0  0  0  0  0
    1.7398   -6.6215    3.1639 C   0  0  2  0  0  0  0  0  0  0  0  0
    2.9222   -6.5055    4.1357 C   0  0  2  0  0  0  0  0  0  0  0  0
    3.1500   -5.1247    4.7998 C   0  0  0  0  0  0  0  0  0  0  0  0
    3.3433   -4.1334    3.7704 O   0  0  0  0  0  0  0  0  0  0  0  0
    2.6343   -4.3510    2.5335 C   0  0  2  0  0  0  0  0  0  0  0  0
    2.6550   -5.8368    2.2198 C   0  0  2  0  0  0  0  0  0  0  0  0
    2.5555   -5.9358    0.7035 C   0  0  0  0  0  0  0  0  0  0  0  0
    2.8921   -4.5686    0.1005 C   0  0  2  0  0  0  0  0  0  0  0  0
    1.8563   -4.1581   -0.7846 O   0  0  0  0  0  0  0  0  0  0  0  0
    4.1210   -4.6501   -0.5528 O   0  0  0  0  0  0  0  0  0  0  0  0
    4.7784   -3.4495   -0.4259 C   0  0  1  0  0  0  0  0  0  0  0  0
    4.1489   -2.4941   -1.2301 O   0  0  0  0  0  0  0  0  0  0  0  0
    4.7681   -1.2492   -1.1704 C   0  0  1  0  0  0  0  0  0  0  0  0
    4.2368   -0.3825   -2.1186 O   0  0  0  0  0  0  0  0  0  0  0  0
    4.0706   -0.9123   -3.4291 C   0  0  0  0  0  0  0  0  0  0  0  0
    4.4727   -0.6583    0.2123 C   0  0  0  0  0  0  0  0  0  0  0  0
    4.9799   -1.6231    1.2920 C   0  0  1  0  0  0  0  0  0  0  0  0
    4.5419   -1.1561    2.5490 O   0  0  0  0  0  0  0  0  0  0  0  0
    4.5991   -3.1199    1.0635 C   0  0  2  0  0  0  0  0  0  0  0  0
    5.6391   -3.9764    1.8156 C   0  0  0  0  0  0  0  0  0  0  0  0
    3.1013   -3.5607    1.2783 C   0  0  2  0  0  0  0  0  0  0  0  0
    2.2330   -2.4432    1.2013 O   0  0  0  0  0  0  0  0  0  0  0  0
    3.8015   -6.6618    2.9312 C   0  0  2  0  0  0  0  0  0  0  0  0
    3.9883   -8.1792    2.9223 C   0  0  0  0  0  0  0  0  0  0  0  0
    3.5674   -8.7363    4.0725 C   0  0  0  0  0  0  0  0  0  0  0  0
    2.9094   -7.7412    5.0344 C   0  0  2  0  0  0  0  0  0  0  0  0
    1.8695  -10.1980    5.8312 H   0  0  0  0  0  0  0  0  0  0  0  0
    0.1009   -9.6808    5.9387 H   0  0  0  0  0  0  0  0  0  0  0  0
   -0.6147   -7.5957    5.2291 H   0  0  0  0  0  0  0  0  0  0  0  0
    1.2217   -5.8434    6.3914 H   0  0  0  0  0  0  0  0  0  0  0  0
   -0.4243   -6.4953    3.2439 H   0  0  0  0  0  0  0  0  0  0  0  0
    0.3672   -5.1991    4.0969 H   0  0  0  0  0  0  0  0  0  0  0  0
    1.6125   -7.6115    2.7326 H   0  0  0  0  0  0  0  0  0  0  0  0
    2.3258   -4.8356    5.4453 H   0  0  0  0  0  0  0  0  0  0  0  0
    4.0398   -5.1438    5.4262 H   0  0  0  0  0  0  0  0  0  0  0  0
    1.5809   -4.0673    2.6885 H   0  0  0  0  0  0  0  0  0  0  0  0
    3.2750   -6.6620    0.3345 H   0  0  0  0  0  0  0  0  0  0  0  0
    1.5554   -6.2455    0.4084 H   0  0  0  0  0  0  0  0  0  0  0  0
    2.1185   -3.3651   -1.2130 H   0  0  0  0  0  0  0  0  0  0  0  0
    5.8223   -3.5711   -0.7328 H   0  0  0  0  0  0  0  0  0  0  0  0
    5.8397   -1.3433   -1.3595 H   0  0  0  0  0  0  0  0  0  0  0  0
    3.6660   -0.1259   -4.0725 H   0  0  0  0  0  0  0  0  0  0  0  0
    3.3509   -1.7350   -3.4356 H   0  0  0  0  0  0  0  0  0  0  0  0
    5.0001   -1.2638   -3.8653 H   0  0  0  0  0  0  0  0  0  0  0  0
    4.9845    0.2930    0.3269 H   0  0  0  0  0  0  0  0  0  0  0  0
    3.4068   -0.4516    0.2848 H   0  0  0  0  0  0  0  0  0  0  0  0
    6.0687   -1.5420    1.2935 H   0  0  0  0  0  0  0  0  0  0  0  0
    3.5973   -1.2444    2.5664 H   0  0  0  0  0  0  0  0  0  0  0  0
    5.5291   -3.9062    2.8964 H   0  0  0  0  0  0  0  0  0  0  0  0
    6.6540   -3.6453    1.5920 H   0  0  0  0  0  0  0  0  0  0  0  0
    5.5914   -5.0208    1.5098 H   0  0  0  0  0  0  0  0  0  0  0  0
    2.2845   -2.0603    0.3373 H   0  0  0  0  0  0  0  0  0  0  0  0
    4.7347   -6.1571    3.0599 H   0  0  0  0  0  0  0  0  0  0  0  0
    4.5093   -8.7252    2.1514 H   0  0  0  0  0  0  0  0  0  0  0  0
    3.6884   -9.7839    4.2937 H   0  0  0  0  0  0  0  0  0  0  0  0
    3.5136   -7.6357    5.9390 H   0  0  0  0  0  0  0  0  0  0  0  0
  1  2  2  0
  1 32  1  0
  1 33  1  0
  2 31  1  0
  2  3  1  0
  3  4  1  0
  3  5  1  0
  3 34  1  6
  4 35  1  0
  5  6  1  0
  5 36  1  0
  5 37  1  0
  6 11  1  0
  6  7  1  0
  6 38  1  6
  7 28  1  0
  7 31  1  0
  7  8  1  1
  8  9  1  0
  8 39  1  0
  8 40  1  0
  9 10  1  0
 10 26  1  0
 10 11  1  0
 10 41  1  1
 11 12  1  6
 11 28  1  0
 12 13  1  0
 12 42  1  0
 12 43  1  0
 13 26  1  0
 13 14  1  6
 13 15  1  0
 14 44  1  0
 15 16  1  0
 16 24  1  0
 16 17  1  0
 16 45  1  6
 17 18  1  0
 18 19  1  0
 18 21  1  0
 18 46  1  6
 19 20  1  0
 20 47  1  0
 20 48  1  0
 20 49  1  0
 21 22  1  0
 21 50  1  0
 21 51  1  0
 22 23  1  0
 22 24  1  0
 22 52  1  1
 23 53  1  0
 24 25  1  1
 24 26  1  0
 25 54  1  0
 25 55  1  0
 25 56  1  0
 26 27  1  6
 27 57  1  0
 28 29  1  0
 28 58  1  1
 29 30  2  0
 29 59  1  0
 30 31  1  0
 30 60  1  0
 31 61  1  1
M  END
>  <i_m_ct_stereo_status>  (205) 
1

>  <s_m_source_file>  (205) 
/var/tmp/pbs.5076255.sched01/tmpqw5sdpkp/8220gfbieb.sdf

>  <i_m_source_file_index>  (205) 
2

>  <i_lp_mmshare_version>  (205) 
48012

>  <i_f3d_flags>  (205) 
0

>  <s_epik_input>  (205) 
W09IXVtDQEBIXShbQ0gyXTEpQyg9W0NIMl0pW0NASF0yW0NIXT1bQ0hdW0NASF0zW0NAQF00KFtDQEhdMVtDQEBdMjM1KVtDQEBIXShPW0NIMl01KVtDQF02KFtPSF0pW0NAQF0oW0NIMl00KShbT0hdKU9bQ0BASF03W0NAQF02KFtDSDNdKVtDQEhdKFtPSF0pW0NIMl1bQ0BASF0oTzcpT1tDSDNd

>  <s_epik_cmdline>  (205) 
J2VwaWtfcHl0aG9uJywgJy1waHQnLCAnMi4wJywgJy1waCcsICc3LjAnLCAnLXRuJywgJzgnLCAnLW1hJywgJzIwMCcsICctaW1hZScsICc8aW5maWxlLm1hZT4nLCAnLW9tYWUnLCAnPG91dGZpbGUubWFlPic=

>  <r_lp_tautomer_probability>  (205) 
1

>  <r_epik_Ionization_Penalty>  (205) 
7.97578e-07

>  <r_epik_Ionization_Penalty_Charging>  (205) 
0

>  <r_epik_Ionization_Penalty_Neutral>  (205) 
7.97578e-07

>  <r_epik_State_Penalty>  (205) 
-0

>  <r_epik_Charging_Adjusted_Penalty>  (205) 
0

>  <i_epik_Tot_Q>  (205) 
0

>  <i_epik_Tot_abs_Q>  (205) 
0

>  <s_epik_Chemistry_Notes>  (205) 
This compound contains an acetal/aminal-like group ( X-CH(R)-Y where X, Y are N, S, or O) that may be acid/base labile, releasing an aldehyde.

>  <s_lp_Force_Field>  (205) 
OPLS3e

>  <r_lp_Energy>  (205) 
96.1414

>  <b_lp_Chiralities_Consistent>  (205) 
1

>  <s_lp_Variant>  (205) 
59:0-1

>  <s_i_glide_gridfile>  (205) 
pfpi4k_grid

>  <i_i_glide_lignum>  (205) 
2

>  <i_i_glide_rotatable_bonds>  (205) 
5

>  <r_i_docking_score>  (205) 
-3.45619

>  <r_i_glide_ligand_efficiency>  (205) 
-0.11149

>  <r_i_glide_ligand_efficiency_sa>  (205) 
-0.350233

>  <r_i_glide_ligand_efficiency_ln>  (205) 
-0.779477

>  <r_i_glide_gscore>  (205) 
-3.45619

>  <r_i_glide_lipo>  (205) 
-0.394525

>  <r_i_glide_hbond>  (205) 
0

>  <r_i_glide_metal>  (205) 
-0

>  <r_i_glide_rewards>  (205) 
-2.00657

>  <r_i_glide_evdw>  (205) 
-20.7908

>  <r_i_glide_ecoul>  (205) 
0.421233

>  <r_i_glide_erotb>  (205) 
0

>  <r_i_glide_esite>  (205) 
-0.0787456

>  <r_i_glide_emodel>  (205) 
-42.3667

>  <r_i_glide_energy>  (205) 
-20.3696

>  <r_i_glide_einternal>  (205) 
1.77137

>  <r_i_glide_intrahb_reward>  (205) 
-1.5

>  <i_i_glide_confnum>  (205) 
1

>  <i_i_glide_posenum>  (205) 
17

>  <r_i_glide_eff_state_penalty>  (205) 
0

>  <ligand_id>  (205) 
59

>  <original_smiles>  (205) 
C=C1C(O)CC2C34COC5C2(CC2(O)OC6OC(OC)CC(O)C6(C)C52O)C3C=CC14

>  <smiles>  (205) 
[H]OC1([H])C(=C([H])[H])C2([H])C([H])=C([H])C3([H])C24C([H])([H])OC2([H])C5(O[H])C(O[H])(OC6([H])OC([H])(OC([H])([H])[H])C([H])([H])C([H])(O[H])C65C([H])([H])[H])C([H])([H])C23C4([H])C1([H])[H]

$$$$
59:0:2
     RDKit          3D

 61 67  0  0  1  0  0  0  0  0999 V2000
    0.6823   -9.4395    5.8561 C   0  0  0  0  0  0  0  0  0  0  0  0
    1.0421   -8.1975    5.4947 C   0  0  0  0  0  0  0  0  0  0  0  0
   -0.0456   -7.1498    5.1457 C   0  0  1  0  0  0  0  0  0  0  0  0
   -0.1572   -6.2141    6.1955 O   0  0  0  0  0  0  0  0  0  0  0  0
    0.1796   -6.3847    3.7939 C   0  0  0  0  0  0  0  0  0  0  0  0
    1.5517   -6.7609    3.2449 C   0  0  2  0  0  0  0  0  0  0  0  0
    2.6257   -6.5934    4.3294 C   0  0  2  0  0  0  0  0  0  0  0  0
    2.7779   -5.1853    4.9519 C   0  0  0  0  0  0  0  0  0  0  0  0
    3.0780   -4.2378    3.9111 O   0  0  0  0  0  0  0  0  0  0  0  0
    2.4965   -4.5130    2.6214 C   0  0  2  0  0  0  0  0  0  0  0  0
    2.5571   -6.0148    2.3723 C   0  0  2  0  0  0  0  0  0  0  0  0
    2.6111   -6.1863    0.8665 C   0  0  0  0  0  0  0  0  0  0  0  0
    3.0084   -4.8354    0.2555 C   0  0  2  0  0  0  0  0  0  0  0  0
    2.0441   -4.4711   -0.7277 O   0  0  0  0  0  0  0  0  0  0  0  0
    4.2889   -4.9428   -0.2925 O   0  0  0  0  0  0  0  0  0  0  0  0
    4.9347   -3.7273   -0.1468 C   0  0  1  0  0  0  0  0  0  0  0  0
    4.3976   -2.8019   -1.0482 O   0  0  0  0  0  0  0  0  0  0  0  0
    5.0007   -1.5466   -0.9839 C   0  0  1  0  0  0  0  0  0  0  0  0
    4.5625   -0.7119   -2.0127 O   0  0  0  0  0  0  0  0  0  0  0  0
    4.2952   -1.3467   -3.2537 C   0  0  0  0  0  0  0  0  0  0  0  0
    4.5709   -0.8981    0.3331 C   0  0  0  0  0  0  0  0  0  0  0  0
    4.9620   -1.8173    1.5013 C   0  0  1  0  0  0  0  0  0  0  0  0
    4.3908   -1.3047    2.6830 O   0  0  0  0  0  0  0  0  0  0  0  0
    4.6073   -3.3315    1.3012 C   0  0  2  0  0  0  0  0  0  0  0  0
    5.5620   -4.1489    2.1907 C   0  0  0  0  0  0  0  0  0  0  0  0
    3.1014   -3.7800    1.3920 C   0  0  2  0  0  0  0  0  0  0  0  0
    2.2767   -2.6598    1.1558 O   0  0  0  0  0  0  0  0  0  0  0  0
    3.6234   -6.8008    3.2242 C   0  0  2  0  0  0  0  0  0  0  0  0
    3.8095   -8.3165    3.3031 C   0  0  0  0  0  0  0  0  0  0  0  0
    3.2754   -8.8194    4.4224 C   0  0  0  0  0  0  0  0  0  0  0  0
    2.5214   -7.7868    5.2719 C   0  0  2  0  0  0  0  0  0  0  0  0
    1.4098  -10.2181    6.0599 H   0  0  0  0  0  0  0  0  0  0  0  0
   -0.3626   -9.7064    5.9588 H   0  0  0  0  0  0  0  0  0  0  0  0
   -1.0041   -7.6636    5.0847 H   0  0  0  0  0  0  0  0  0  0  0  0
    0.7122   -5.8841    6.3830 H   0  0  0  0  0  0  0  0  0  0  0  0
   -0.6076   -6.6549    3.0867 H   0  0  0  0  0  0  0  0  0  0  0  0
    0.0870   -5.3131    3.9644 H   0  0  0  0  0  0  0  0  0  0  0  0
    1.4670   -7.7691    2.8408 H   0  0  0  0  0  0  0  0  0  0  0  0
    1.8888   -4.8703    5.4861 H   0  0  0  0  0  0  0  0  0  0  0  0
    3.5931   -5.1710    5.6675 H   0  0  0  0  0  0  0  0  0  0  0  0
    1.4354   -4.2197    2.6416 H   0  0  0  0  0  0  0  0  0  0  0  0
    3.3494   -6.9358    0.5835 H   0  0  0  0  0  0  0  0  0  0  0  0
    1.6422   -6.4989    0.4835 H   0  0  0  0  0  0  0  0  0  0  0  0
    2.2149   -5.0142   -1.4713 H   0  0  0  0  0  0  0  0  0  0  0  0
    6.0020   -3.8634   -0.3369 H   0  0  0  0  0  0  0  0  0  0  0  0
    6.0880   -1.6425   -1.0581 H   0  0  0  0  0  0  0  0  0  0  0  0
    4.0001   -0.5978   -3.9864 H   0  0  0  0  0  0  0  0  0  0  0  0
    3.4648   -2.0479   -3.1709 H   0  0  0  0  0  0  0  0  0  0  0  0
    5.1593   -1.8866   -3.6356 H   0  0  0  0  0  0  0  0  0  0  0  0
    5.0648    0.0679    0.4338 H   0  0  0  0  0  0  0  0  0  0  0  0
    3.5026   -0.6918    0.2832 H   0  0  0  0  0  0  0  0  0  0  0  0
    6.0468   -1.7346    1.6112 H   0  0  0  0  0  0  0  0  0  0  0  0
    3.4495   -1.4016    2.5973 H   0  0  0  0  0  0  0  0  0  0  0  0
    5.3420   -4.0335    3.2505 H   0  0  0  0  0  0  0  0  0  0  0  0
    6.5935   -3.8243    2.0557 H   0  0  0  0  0  0  0  0  0  0  0  0
    5.5449   -5.2058    1.9271 H   0  0  0  0  0  0  0  0  0  0  0  0
    2.3595   -2.4229    0.2325 H   0  0  0  0  0  0  0  0  0  0  0  0
    4.5352   -6.2834    3.4246 H   0  0  0  0  0  0  0  0  0  0  0  0
    4.4034   -8.8936    2.6135 H   0  0  0  0  0  0  0  0  0  0  0  0
    3.3703   -9.8612    4.7034 H   0  0  0  0  0  0  0  0  0  0  0  0
    3.0272   -7.6446    6.2250 H   0  0  0  0  0  0  0  0  0  0  0  0
  1  2  2  0
  1 32  1  0
  1 33  1  0
  2 31  1  0
  2  3  1  0
  3  4  1  0
  3  5  1  0
  3 34  1  6
  4 35  1  0
  5  6  1  0
  5 36  1  0
  5 37  1  0
  6 11  1  0
  6  7  1  0
  6 38  1  6
  7 28  1  0
  7 31  1  0
  7  8  1  1
  8  9  1  0
  8 39  1  0
  8 40  1  0
  9 10  1  0
 10 26  1  0
 10 11  1  0
 10 41  1  1
 11 12  1  6
 11 28  1  0
 12 13  1  0
 12 42  1  0
 12 43  1  0
 13 26  1  0
 13 14  1  6
 13 15  1  0
 14 44  1  0
 15 16  1  0
 16 24  1  0
 16 17  1  0
 16 45  1  1
 17 18  1  0
 18 19  1  0
 18 21  1  0
 18 46  1  1
 19 20  1  0
 20 47  1  0
 20 48  1  0
 20 49  1  0
 21 22  1  0
 21 50  1  0
 21 51  1  0
 22 23  1  0
 22 24  1  0
 22 52  1  1
 23 53  1  0
 24 25  1  1
 24 26  1  0
 25 54  1  0
 25 55  1  0
 25 56  1  0
 26 27  1  6
 27 57  1  0
 28 29  1  0
 28 58  1  1
 29 30  2  0
 29 59  1  0
 30 31  1  0
 30 60  1  0
 31 61  1  1
M  END
>  <i_m_ct_stereo_status>  (206) 
1

>  <s_m_source_file>  (206) 
/var/tmp/pbs.5076255.sched01/tmpqw5sdpkp/8220gfbieb.sdf

>  <i_m_source_file_index>  (206) 
2

>  <i_lp_mmshare_version>  (206) 
48012

>  <i_f3d_flags>  (206) 
0

>  <s_epik_input>  (206) 
W09IXVtDQEBIXShbQ0gyXTEpQyg9W0NIMl0pW0NASF0yW0NIXT1bQ0hdW0NASF0zW0NAQF00KFtDQEhdMVtDQEBdMjM1KVtDQEBIXShPW0NIMl01KVtDQF02KFtPSF0pW0NAQF0oW0NIMl00KShbT0hdKU9bQ0BASF03W0NAQF02KFtDSDNdKVtDQEhdKFtPSF0pW0NIMl1bQ0BASF0oTzcpT1tDSDNd

>  <s_epik_cmdline>  (206) 
J2VwaWtfcHl0aG9uJywgJy1waHQnLCAnMi4wJywgJy1waCcsICc3LjAnLCAnLXRuJywgJzgnLCAnLW1hJywgJzIwMCcsICctaW1hZScsICc8aW5maWxlLm1hZT4nLCAnLW9tYWUnLCAnPG91dGZpbGUubWFlPic=

>  <r_lp_tautomer_probability>  (206) 
1

>  <r_epik_Ionization_Penalty>  (206) 
7.97578e-07

>  <r_epik_Ionization_Penalty_Charging>  (206) 
0

>  <r_epik_Ionization_Penalty_Neutral>  (206) 
7.97578e-07

>  <r_epik_State_Penalty>  (206) 
-0

>  <r_epik_Charging_Adjusted_Penalty>  (206) 
0

>  <i_epik_Tot_Q>  (206) 
0

>  <i_epik_Tot_abs_Q>  (206) 
0

>  <s_epik_Chemistry_Notes>  (206) 
This compound contains an acetal/aminal-like group ( X-CH(R)-Y where X, Y are N, S, or O) that may be acid/base labile, releasing an aldehyde.

>  <s_lp_Force_Field>  (206) 
OPLS3e

>  <r_lp_Energy>  (206) 
96.1414

>  <b_lp_Chiralities_Consistent>  (206) 
1

>  <s_lp_Variant>  (206) 
59:0-1

>  <s_i_glide_gridfile>  (206) 
pfpi4k_grid

>  <i_i_glide_lignum>  (206) 
2

>  <i_i_glide_rotatable_bonds>  (206) 
5

>  <r_i_docking_score>  (206) 
-3.37094

>  <r_i_glide_ligand_efficiency>  (206) 
-0.10874

>  <r_i_glide_ligand_efficiency_sa>  (206) 
-0.341594

>  <r_i_glide_ligand_efficiency_ln>  (206) 
-0.76025

>  <r_i_glide_gscore>  (206) 
-3.37094

>  <r_i_glide_lipo>  (206) 
-0.239001

>  <r_i_glide_hbond>  (206) 
0

>  <r_i_glide_metal>  (206) 
-0

>  <r_i_glide_rewards>  (206) 
-1.50529

>  <r_i_glide_evdw>  (206) 
-21.3585

>  <r_i_glide_ecoul>  (206) 
-3.29868

>  <r_i_glide_erotb>  (206) 
0

>  <r_i_glide_esite>  (206) 
-0.0639218

>  <r_i_glide_emodel>  (206) 
-40.3645

>  <r_i_glide_energy>  (206) 
-24.6572

>  <r_i_glide_einternal>  (206) 
3.60526

>  <r_i_glide_intrahb_reward>  (206) 
-1

>  <i_i_glide_confnum>  (206) 
1

>  <i_i_glide_posenum>  (206) 
8

>  <r_i_glide_eff_state_penalty>  (206) 
0

>  <ligand_id>  (206) 
59

>  <original_smiles>  (206) 
C=C1C(O)CC2C34COC5C2(CC2(O)OC6OC(OC)CC(O)C6(C)C52O)C3C=CC14

>  <smiles>  (206) 
[H]OC1([H])C(=C([H])[H])C2([H])C([H])=C([H])C3([H])C24C([H])([H])OC2([H])C5(O[H])C(O[H])(OC6([H])OC([H])(OC([H])([H])[H])C([H])([H])C([H])(O[H])C65C([H])([H])[H])C([H])([H])C23C4([H])C1([H])[H]

$$$$
60:0:0
     RDKit          3D

 55 59  0  0  1  0  0  0  0  0999 V2000
    2.0252   -3.1753   -2.2058 C   0  0  0  0  0  0  0  0  0  0  0  0
    3.3445   -3.4417   -2.0346 C   0  0  0  0  0  0  0  0  0  0  0  0
    4.1875   -3.4399   -3.3136 C   0  0  0  0  0  0  0  0  0  0  0  0
    3.9824   -3.6988   -0.6391 C   0  0  2  0  0  0  0  0  0  0  0  0
    5.4198   -4.3140   -0.8277 C   0  0  0  0  0  0  0  0  0  0  0  0
    6.3732   -4.5710    0.3758 C   0  0  1  0  0  0  0  0  0  0  0  0
    7.3702   -3.4490    0.6785 C   0  0  0  0  0  0  0  0  0  0  0  0
    5.5268   -5.0202    1.5437 C   0  0  1  0  0  0  0  0  0  0  0  0
    5.9372   -5.3460    2.9951 C   0  0  0  0  0  0  0  0  0  0  0  0
    5.3213   -4.0139    3.3162 C   0  0  2  0  0  0  0  0  0  0  0  0
    4.7261   -3.4038    4.5690 C   0  0  1  0  0  0  0  0  0  0  0  0
    5.6094   -3.5928    5.8148 C   0  0  0  0  0  0  0  0  0  0  0  0
    4.3385   -1.9261    4.1673 C   0  0  1  0  0  0  0  0  0  0  0  0
    4.9948   -0.9974    5.0083 O   0  0  0  0  0  0  0  0  0  0  0  0
    4.5956   -1.5035    2.6670 C   0  0  0  0  0  0  0  0  0  0  0  0
    4.1230   -2.5826    1.6468 C   0  0  2  0  0  0  0  0  0  0  0  0
    4.4333   -4.0462    2.0715 C   0  0  1  0  0  0  0  0  0  0  0  0
    3.1406   -4.7908    1.7369 C   0  0  1  0  0  0  0  0  0  0  0  0
    1.8532   -4.3958    2.5081 C   0  0  0  0  0  0  0  0  0  0  0  0
    3.0125   -4.7053    0.1684 C   0  0  0  0  0  0  0  0  0  0  0  0
    4.1608   -2.3707    0.1312 C   0  0  2  0  0  0  0  0  0  0  0  0
    3.8583   -1.0138   -0.4667 C   0  0  0  0  0  0  0  0  0  0  0  0
    5.1926   -1.4940   -0.3619 O   0  0  0  0  0  0  0  0  0  0  0  0
    1.6157   -2.9809   -3.1833 H   0  0  0  0  0  0  0  0  0  0  0  0
    1.3386   -3.1292   -1.3870 H   0  0  0  0  0  0  0  0  0  0  0  0
    4.9704   -4.2022   -3.3673 H   0  0  0  0  0  0  0  0  0  0  0  0
    4.6305   -2.4495   -3.4382 H   0  0  0  0  0  0  0  0  0  0  0  0
    3.5466   -3.6189   -4.1805 H   0  0  0  0  0  0  0  0  0  0  0  0
    5.2790   -5.2700   -1.3162 H   0  0  0  0  0  0  0  0  0  0  0  0
    6.0015   -3.6915   -1.4983 H   0  0  0  0  0  0  0  0  0  0  0  0
    6.9992   -5.4237    0.0955 H   0  0  0  0  0  0  0  0  0  0  0  0
    6.8836   -2.5553    1.0529 H   0  0  0  0  0  0  0  0  0  0  0  0
    7.9327   -3.1687   -0.2112 H   0  0  0  0  0  0  0  0  0  0  0  0
    8.0872   -3.7711    1.4326 H   0  0  0  0  0  0  0  0  0  0  0  0
    5.1258   -5.9684    1.2259 H   0  0  0  0  0  0  0  0  0  0  0  0
    5.3833   -6.1893    3.4192 H   0  0  0  0  0  0  0  0  0  0  0  0
    7.0087   -5.4274    3.1515 H   0  0  0  0  0  0  0  0  0  0  0  0
    6.1790   -3.3762    3.0974 H   0  0  0  0  0  0  0  0  0  0  0  0
    3.8032   -3.9439    4.7804 H   0  0  0  0  0  0  0  0  0  0  0  0
    6.5741   -3.0982    5.7248 H   0  0  0  0  0  0  0  0  0  0  0  0
    5.7991   -4.6481    6.0042 H   0  0  0  0  0  0  0  0  0  0  0  0
    5.1135   -3.1943    6.6949 H   0  0  0  0  0  0  0  0  0  0  0  0
    3.2658   -1.8383    4.3664 H   0  0  0  0  0  0  0  0  0  0  0  0
    4.6375   -0.1422    4.8439 H   0  0  0  0  0  0  0  0  0  0  0  0
    4.0657   -0.5707    2.4837 H   0  0  0  0  0  0  0  0  0  0  0  0
    5.6534   -1.2713    2.5243 H   0  0  0  0  0  0  0  0  0  0  0  0
    3.0668   -2.3820    1.7879 H   0  0  0  0  0  0  0  0  0  0  0  0
    3.2383   -5.8344    1.9997 H   0  0  0  0  0  0  0  0  0  0  0  0
    1.4118   -3.4475    2.2073 H   0  0  0  0  0  0  0  0  0  0  0  0
    2.0195   -4.3584    3.5852 H   0  0  0  0  0  0  0  0  0  0  0  0
    1.0908   -5.1483    2.3275 H   0  0  0  0  0  0  0  0  0  0  0  0
    1.9650   -4.5039   -0.0212 H   0  0  0  0  0  0  0  0  0  0  0  0
    3.1560   -5.7125   -0.2375 H   0  0  0  0  0  0  0  0  0  0  0  0
    3.5269   -0.8983   -1.4904 H   0  0  0  0  0  0  0  0  0  0  0  0
    3.6362   -0.1834    0.2000 H   0  0  0  0  0  0  0  0  0  0  0  0
  1  2  2  0
  1 24  1  0
  1 25  1  0
  2  3  1  0
  4  2  1  6
  3 26  1  0
  3 27  1  0
  3 28  1  0
  4 20  1  0
  4 21  1  0
  4  5  1  0
  5  6  1  0
  5 29  1  0
  5 30  1  0
  6  7  1  0
  6  8  1  0
  6 31  1  6
  7 32  1  0
  7 33  1  0
  7 34  1  0
  8 17  1  0
  8  9  1  0
  8 35  1  6
  9 10  1  0
  9 36  1  0
  9 37  1  0
 10 17  1  0
 10 11  1  0
 10 38  1  6
 11 12  1  0
 11 13  1  0
 11 39  1  1
 12 40  1  0
 12 41  1  0
 12 42  1  0
 13 14  1  0
 13 15  1  0
 13 43  1  1
 14 44  1  0
 15 16  1  0
 15 45  1  0
 15 46  1  0
 16 17  1  0
 16 21  1  0
 16 47  1  1
 17 18  1  1
 18 19  1  0
 18 20  1  0
 18 48  1  6
 19 49  1  0
 19 50  1  0
 19 51  1  0
 20 52  1  0
 20 53  1  0
 21 23  1  1
 21 22  1  0
 22 23  1  0
 22 54  1  0
 22 55  1  0
M  END
>  <i_m_ct_stereo_status>  (207) 
1

>  <s_m_source_file>  (207) 
/var/tmp/pbs.5076255.sched01/tmpqw5sdpkp/8220gfbieb.sdf

>  <i_m_source_file_index>  (207) 
3

>  <i_lp_mmshare_version>  (207) 
48012

>  <i_f3d_flags>  (207) 
0

>  <s_epik_input>  (207) 
W0NAXTEyM1tDQEhdNFtDQEhdKFtDSDNdKVtDSDJdW0NAQF0oQyg9W0NIMl0pW0NIM10pKFtDSDJdW0NAQEhdM1tDSDNdKVtDQEBdNShbQ0gyXU81KVtDQEBIXTJbQ0gyXVtDQEhdKFtPSF0pW0NASF0oW0NIM10pW0NASF0xW0NIMl00

>  <s_epik_cmdline>  (207) 
J2VwaWtfcHl0aG9uJywgJy1waHQnLCAnMi4wJywgJy1waCcsICc3LjAnLCAnLXRuJywgJzgnLCAnLW1hJywgJzIwMCcsICctaW1hZScsICc8aW5maWxlLm1hZT4nLCAnLW9tYWUnLCAnPG91dGZpbGUubWFlPic=

>  <r_lp_tautomer_probability>  (207) 
1

>  <r_epik_Ionization_Penalty>  (207) 
1.78524e-06

>  <r_epik_Ionization_Penalty_Charging>  (207) 
0

>  <r_epik_Ionization_Penalty_Neutral>  (207) 
1.78524e-06

>  <r_epik_State_Penalty>  (207) 
-0

>  <r_epik_Charging_Adjusted_Penalty>  (207) 
0

>  <i_epik_Tot_Q>  (207) 
0

>  <i_epik_Tot_abs_Q>  (207) 
0

>  <s_lp_Force_Field>  (207) 
OPLS3e

>  <r_lp_Energy>  (207) 
115.3

>  <b_lp_Chiralities_Consistent>  (207) 
1

>  <s_lp_Variant>  (207) 
60:0-1

>  <s_i_glide_gridfile>  (207) 
pfpi4k_grid

>  <i_i_glide_lignum>  (207) 
3

>  <i_i_glide_rotatable_bonds>  (207) 
2

>  <r_i_docking_score>  (207) 
-2.90179

>  <r_i_glide_ligand_efficiency>  (207) 
-0.126165

>  <r_i_glide_ligand_efficiency_sa>  (207) 
-0.358795

>  <r_i_glide_ligand_efficiency_ln>  (207) 
-0.701678

>  <r_i_glide_gscore>  (207) 
-2.90179

>  <r_i_glide_lipo>  (207) 
-0.678322

>  <r_i_glide_hbond>  (207) 
0

>  <r_i_glide_metal>  (207) 
-0

>  <r_i_glide_rewards>  (207) 
-1.25129

>  <r_i_glide_evdw>  (207) 
-20.6223

>  <r_i_glide_ecoul>  (207) 
-0.846268

>  <r_i_glide_erotb>  (207) 
0.18588

>  <r_i_glide_esite>  (207) 
0

>  <r_i_glide_emodel>  (207) 
-21.68

>  <r_i_glide_energy>  (207) 
-21.4685

>  <r_i_glide_einternal>  (207) 
5.44946

>  <r_i_glide_intrahb_reward>  (207) 
-0

>  <i_i_glide_confnum>  (207) 
2

>  <i_i_glide_posenum>  (207) 
26

>  <r_i_glide_eff_state_penalty>  (207) 
0

>  <ligand_id>  (207) 
60

>  <original_smiles>  (207) 
C=C(C)C12CC(C)C3CC4C(C)C(O)CC(C34C(C)C1)C21CO1

>  <smiles>  (207) 
[H]OC1([H])C([H])([H])C2([H])C3(OC3([H])[H])C3(C(=C([H])[H])C([H])([H])[H])C([H])([H])C([H])(C([H])([H])[H])C4([H])C([H])([H])C([H])(C1([H])C([H])([H])[H])C42C([H])(C([H])([H])[H])C3([H])[H]

$$$$
60:0:1
     RDKit          3D

 55 59  0  0  1  0  0  0  0  0999 V2000
    2.2818   -5.2140    4.5986 C   0  0  0  0  0  0  0  0  0  0  0  0
    3.5511   -5.3091    4.1277 C   0  0  0  0  0  0  0  0  0  0  0  0
    4.4300   -6.3688    4.7900 C   0  0  0  0  0  0  0  0  0  0  0  0
    4.0635   -4.4350    2.9435 C   0  0  2  0  0  0  0  0  0  0  0  0
    5.6237   -4.5925    2.8111 C   0  0  0  0  0  0  0  0  0  0  0  0
    6.4109   -3.9251    1.6531 C   0  0  1  0  0  0  0  0  0  0  0  0
    6.6817   -4.8225    0.4522 C   0  0  0  0  0  0  0  0  0  0  0  0
    5.7848   -2.6040    1.3343 C   0  0  1  0  0  0  0  0  0  0  0  0
    6.1307   -1.5394    0.2682 C   0  0  0  0  0  0  0  0  0  0  0  0
    4.9001   -2.0527   -0.4227 C   0  0  2  0  0  0  0  0  0  0  0  0
    3.9458   -1.5047   -1.4260 C   0  0  1  0  0  0  0  0  0  0  0  0
    4.6056   -0.8470   -2.6370 C   0  0  0  0  0  0  0  0  0  0  0  0
    2.9875   -2.6958   -1.7808 C   0  0  1  0  0  0  0  0  0  0  0  0
    2.9978   -3.0590   -3.1500 O   0  0  0  0  0  0  0  0  0  0  0  0
    3.1440   -3.9798   -0.9044 C   0  0  0  0  0  0  0  0  0  0  0  0
    3.3311   -3.7473    0.6170 C   0  0  2  0  0  0  0  0  0  0  0  0
    4.2975   -2.5715    0.9036 C   0  0  1  0  0  0  0  0  0  0  0  0
    3.5967   -1.8851    2.0681 C   0  0  1  0  0  0  0  0  0  0  0  0
    2.2105   -1.2554    1.8167 C   0  0  0  0  0  0  0  0  0  0  0  0
    3.6490   -2.9056    3.2588 C   0  0  0  0  0  0  0  0  0  0  0  0
    3.4251   -4.9064    1.5961 C   0  0  2  0  0  0  0  0  0  0  0  0
    2.5624   -6.1724    1.4281 C   0  0  0  0  0  0  0  0  0  0  0  0
    3.9455   -6.1352    1.0753 O   0  0  0  0  0  0  0  0  0  0  0  0
    1.9572   -5.8438    5.4067 H   0  0  0  0  0  0  0  0  0  0  0  0
    1.5617   -4.5303    4.1928 H   0  0  0  0  0  0  0  0  0  0  0  0
    5.4842   -6.1233    4.9849 H   0  0  0  0  0  0  0  0  0  0  0  0
    4.3716   -7.2695    4.1802 H   0  0  0  0  0  0  0  0  0  0  0  0
    4.0347   -6.6202    5.7834 H   0  0  0  0  0  0  0  0  0  0  0  0
    6.0478   -4.2058    3.7350 H   0  0  0  0  0  0  0  0  0  0  0  0
    5.8935   -5.6384    2.7401 H   0  0  0  0  0  0  0  0  0  0  0  0
    7.4147   -3.7518    2.0380 H   0  0  0  0  0  0  0  0  0  0  0  0
    5.7771   -5.0566   -0.0990 H   0  0  0  0  0  0  0  0  0  0  0  0
    7.1449   -5.7622    0.7547 H   0  0  0  0  0  0  0  0  0  0  0  0
    7.3647   -4.3222   -0.2371 H   0  0  0  0  0  0  0  0  0  0  0  0
    5.9465   -2.0029    2.2370 H   0  0  0  0  0  0  0  0  0  0  0  0
    6.0147   -0.5143    0.6125 H   0  0  0  0  0  0  0  0  0  0  0  0
    7.0729   -1.7387   -0.2410 H   0  0  0  0  0  0  0  0  0  0  0  0
    5.3922   -2.8871   -0.9517 H   0  0  0  0  0  0  0  0  0  0  0  0
    3.3452   -0.7278   -0.9318 H   0  0  0  0  0  0  0  0  0  0  0  0
    5.1698   -1.5929   -3.1873 H   0  0  0  0  0  0  0  0  0  0  0  0
    5.2772   -0.0529   -2.3140 H   0  0  0  0  0  0  0  0  0  0  0  0
    3.8658   -0.4043   -3.3000 H   0  0  0  0  0  0  0  0  0  0  0  0
    1.9896   -2.3367   -1.6317 H   0  0  0  0  0  0  0  0  0  0  0  0
    2.2164   -3.5615   -3.3067 H   0  0  0  0  0  0  0  0  0  0  0  0
    2.2426   -4.5757   -1.0371 H   0  0  0  0  0  0  0  0  0  0  0  0
    3.9853   -4.5589   -1.2745 H   0  0  0  0  0  0  0  0  0  0  0  0
    2.3146   -3.4614    0.8181 H   0  0  0  0  0  0  0  0  0  0  0  0
    4.1722   -1.0045    2.3658 H   0  0  0  0  0  0  0  0  0  0  0  0
    1.3827   -1.9596    1.7427 H   0  0  0  0  0  0  0  0  0  0  0  0
    2.2216   -0.6437    0.9199 H   0  0  0  0  0  0  0  0  0  0  0  0
    1.9498   -0.6096    2.6508 H   0  0  0  0  0  0  0  0  0  0  0  0
    2.6480   -2.8520    3.6948 H   0  0  0  0  0  0  0  0  0  0  0  0
    4.2997   -2.4975    4.0373 H   0  0  0  0  0  0  0  0  0  0  0  0
    2.3731   -6.8662    2.2458 H   0  0  0  0  0  0  0  0  0  0  0  0
    1.9087   -6.2748    0.5742 H   0  0  0  0  0  0  0  0  0  0  0  0
  1  2  2  0
  1 24  1  0
  1 25  1  0
  2  3  1  0
  4  2  1  1
  3 26  1  0
  3 27  1  0
  3 28  1  0
  4 20  1  0
  4 21  1  0
  4  5  1  0
  5  6  1  0
  5 29  1  0
  5 30  1  0
  6  7  1  0
  6  8  1  0
  6 31  1  1
  7 32  1  0
  7 33  1  0
  7 34  1  0
  8 17  1  0
  8  9  1  0
  8 35  1  1
  9 10  1  0
  9 36  1  0
  9 37  1  0
 10 17  1  0
 10 11  1  0
 10 38  1  6
 11 12  1  0
 11 13  1  0
 11 39  1  1
 12 40  1  0
 12 41  1  0
 12 42  1  0
 13 14  1  0
 13 15  1  0
 13 43  1  1
 14 44  1  0
 15 16  1  0
 15 45  1  0
 15 46  1  0
 16 17  1  0
 16 21  1  0
 16 47  1  1
 17 18  1  1
 18 19  1  0
 18 20  1  0
 18 48  1  1
 19 49  1  0
 19 50  1  0
 19 51  1  0
 20 52  1  0
 20 53  1  0
 21 23  1  6
 21 22  1  0
 22 23  1  0
 22 54  1  0
 22 55  1  0
M  END
>  <i_m_ct_stereo_status>  (208) 
1

>  <s_m_source_file>  (208) 
/var/tmp/pbs.5076255.sched01/tmpqw5sdpkp/8220gfbieb.sdf

>  <i_m_source_file_index>  (208) 
3

>  <i_lp_mmshare_version>  (208) 
48012

>  <i_f3d_flags>  (208) 
0

>  <s_epik_input>  (208) 
W0NAXTEyM1tDQEhdNFtDQEhdKFtDSDNdKVtDSDJdW0NAQF0oQyg9W0NIMl0pW0NIM10pKFtDSDJdW0NAQEhdM1tDSDNdKVtDQEBdNShbQ0gyXU81KVtDQEBIXTJbQ0gyXVtDQEhdKFtPSF0pW0NASF0oW0NIM10pW0NASF0xW0NIMl00

>  <s_epik_cmdline>  (208) 
J2VwaWtfcHl0aG9uJywgJy1waHQnLCAnMi4wJywgJy1waCcsICc3LjAnLCAnLXRuJywgJzgnLCAnLW1hJywgJzIwMCcsICctaW1hZScsICc8aW5maWxlLm1hZT4nLCAnLW9tYWUnLCAnPG91dGZpbGUubWFlPic=

>  <r_lp_tautomer_probability>  (208) 
1

>  <r_epik_Ionization_Penalty>  (208) 
1.78524e-06

>  <r_epik_Ionization_Penalty_Charging>  (208) 
0

>  <r_epik_Ionization_Penalty_Neutral>  (208) 
1.78524e-06

>  <r_epik_State_Penalty>  (208) 
-0

>  <r_epik_Charging_Adjusted_Penalty>  (208) 
0

>  <i_epik_Tot_Q>  (208) 
0

>  <i_epik_Tot_abs_Q>  (208) 
0

>  <s_lp_Force_Field>  (208) 
OPLS3e

>  <r_lp_Energy>  (208) 
115.3

>  <b_lp_Chiralities_Consistent>  (208) 
1

>  <s_lp_Variant>  (208) 
60:0-1

>  <s_i_glide_gridfile>  (208) 
pfpi4k_grid

>  <i_i_glide_lignum>  (208) 
3

>  <i_i_glide_rotatable_bonds>  (208) 
2

>  <r_i_docking_score>  (208) 
-2.6712

>  <r_i_glide_ligand_efficiency>  (208) 
-0.116139

>  <r_i_glide_ligand_efficiency_sa>  (208) 
-0.330284

>  <r_i_glide_ligand_efficiency_ln>  (208) 
-0.64592

>  <r_i_glide_gscore>  (208) 
-2.6712

>  <r_i_glide_lipo>  (208) 
-0.351896

>  <r_i_glide_hbond>  (208) 
0

>  <r_i_glide_metal>  (208) 
-0

>  <r_i_glide_rewards>  (208) 
-1.25129

>  <r_i_glide_evdw>  (208) 
-16.8911

>  <r_i_glide_ecoul>  (208) 
-2.72891

>  <r_i_glide_erotb>  (208) 
0.18588

>  <r_i_glide_esite>  (208) 
0

>  <r_i_glide_emodel>  (208) 
-19.2317

>  <r_i_glide_energy>  (208) 
-19.62

>  <r_i_glide_einternal>  (208) 
5.38381

>  <r_i_glide_intrahb_reward>  (208) 
-0

>  <i_i_glide_confnum>  (208) 
2

>  <i_i_glide_posenum>  (208) 
11

>  <r_i_glide_eff_state_penalty>  (208) 
0

>  <ligand_id>  (208) 
60

>  <original_smiles>  (208) 
C=C(C)C12CC(C)C3CC4C(C)C(O)CC(C34C(C)C1)C21CO1

>  <smiles>  (208) 
[H]OC1([H])C([H])([H])C2([H])C3(OC3([H])[H])C3(C(=C([H])[H])C([H])([H])[H])C([H])([H])C([H])(C([H])([H])[H])C4([H])C([H])([H])C([H])(C1([H])C([H])([H])[H])C42C([H])(C([H])([H])[H])C3([H])[H]

$$$$
60:0:2
     RDKit          3D

 55 59  0  0  1  0  0  0  0  0999 V2000
    1.4548   -5.5292    4.7913 C   0  0  0  0  0  0  0  0  0  0  0  0
    2.7024   -5.8597    4.3889 C   0  0  0  0  0  0  0  0  0  0  0  0
    3.2810   -7.1374    4.9936 C   0  0  0  0  0  0  0  0  0  0  0  0
    3.4953   -5.0312    3.3279 C   0  0  2  0  0  0  0  0  0  0  0  0
    5.0178   -5.4663    3.3371 C   0  0  0  0  0  0  0  0  0  0  0  0
    6.0319   -4.9051    2.3084 C   0  0  1  0  0  0  0  0  0  0  0  0
    6.2521   -5.7731    1.0552 C   0  0  0  0  0  0  0  0  0  0  0  0
    5.6706   -3.4780    2.0192 C   0  0  1  0  0  0  0  0  0  0  0  0
    6.3032   -2.4441    1.0592 C   0  0  0  0  0  0  0  0  0  0  0  0
    5.0787   -2.6973    0.2187 C   0  0  2  0  0  0  0  0  0  0  0  0
    4.3365   -1.9175   -0.8247 C   0  0  1  0  0  0  0  0  0  0  0  0
    5.2638   -1.3447   -1.9029 C   0  0  0  0  0  0  0  0  0  0  0  0
    3.1822   -2.8559   -1.3192 C   0  0  1  0  0  0  0  0  0  0  0  0
    3.3004   -3.1136   -2.7104 O   0  0  0  0  0  0  0  0  0  0  0  0
    3.0473   -4.2370   -0.5715 C   0  0  0  0  0  0  0  0  0  0  0  0
    3.1453   -4.1232    0.9858 C   0  0  2  0  0  0  0  0  0  0  0  0
    4.2668   -3.1535    1.4426 C   0  0  1  0  0  0  0  0  0  0  0  0
    3.5727   -2.3994    2.5753 C   0  0  1  0  0  0  0  0  0  0  0  0
    2.3415   -1.5164    2.2414 C   0  0  0  0  0  0  0  0  0  0  0  0
    3.3207   -3.4704    3.6958 C   0  0  0  0  0  0  0  0  0  0  0  0
    2.9331   -5.3239    1.8939 C   0  0  2  0  0  0  0  0  0  0  0  0
    1.8791   -6.3898    1.5820 C   0  0  0  0  0  0  0  0  0  0  0  0
    3.2646   -6.6075    1.3492 O   0  0  0  0  0  0  0  0  0  0  0  0
    0.9399   -6.1436    5.5177 H   0  0  0  0  0  0  0  0  0  0  0  0
    0.9096   -4.6862    4.4158 H   0  0  0  0  0  0  0  0  0  0  0  0
    4.3436   -7.1414    5.2591 H   0  0  0  0  0  0  0  0  0  0  0  0
    3.0776   -7.9639    4.3091 H   0  0  0  0  0  0  0  0  0  0  0  0
    2.7735   -7.3732    5.9381 H   0  0  0  0  0  0  0  0  0  0  0  0
    5.4141   -5.2216    4.3239 H   0  0  0  0  0  0  0  0  0  0  0  0
    5.1022   -6.5352    3.2123 H   0  0  0  0  0  0  0  0  0  0  0  0
    7.0028   -4.9371    2.8098 H   0  0  0  0  0  0  0  0  0  0  0  0
    5.3783   -5.7985    0.4202 H   0  0  0  0  0  0  0  0  0  0  0  0
    6.4958   -6.7953    1.3311 H   0  0  0  0  0  0  0  0  0  0  0  0
    7.0784   -5.3812    0.4670 H   0  0  0  0  0  0  0  0  0  0  0  0
    5.8282   -2.9664    2.9719 H   0  0  0  0  0  0  0  0  0  0  0  0
    6.3409   -1.4363    1.4596 H   0  0  0  0  0  0  0  0  0  0  0  0
    7.2452   -2.7757    0.6238 H   0  0  0  0  0  0  0  0  0  0  0  0
    5.4554   -3.5730   -0.3223 H   0  0  0  0  0  0  0  0  0  0  0  0
    3.8791   -1.0529   -0.3340 H   0  0  0  0  0  0  0  0  0  0  0  0
    5.7875   -2.1193   -2.4573 H   0  0  0  0  0  0  0  0  0  0  0  0
    5.9858   -0.7009   -1.4248 H   0  0  0  0  0  0  0  0  0  0  0  0
    4.6997   -0.7356   -2.6094 H   0  0  0  0  0  0  0  0  0  0  0  0
    2.2570   -2.3038   -1.1838 H   0  0  0  0  0  0  0  0  0  0  0  0
    2.6117   -3.6797   -2.9628 H   0  0  0  0  0  0  0  0  0  0  0  0
    2.0924   -4.6746   -0.8365 H   0  0  0  0  0  0  0  0  0  0  0  0
    3.8287   -4.8994   -0.9183 H   0  0  0  0  0  0  0  0  0  0  0  0
    2.1802   -3.6593    1.1092 H   0  0  0  0  0  0  0  0  0  0  0  0
    4.2560   -1.6565    2.9868 H   0  0  0  0  0  0  0  0  0  0  0  0
    1.4121   -2.0595    2.0586 H   0  0  0  0  0  0  0  0  0  0  0  0
    2.5210   -0.8681    1.3876 H   0  0  0  0  0  0  0  0  0  0  0  0
    2.1245   -0.8730    3.0929 H   0  0  0  0  0  0  0  0  0  0  0  0
    2.3169   -3.2439    4.0600 H   0  0  0  0  0  0  0  0  0  0  0  0
    3.9614   -3.2373    4.5538 H   0  0  0  0  0  0  0  0  0  0  0  0
    1.4735   -7.0459    2.3447 H   0  0  0  0  0  0  0  0  0  0  0  0
    1.2948   -6.3298    0.6671 H   0  0  0  0  0  0  0  0  0  0  0  0
  1  2  2  0
  1 24  1  0
  1 25  1  0
  2  3  1  0
  4  2  1  1
  3 26  1  0
  3 27  1  0
  3 28  1  0
  4 20  1  0
  4 21  1  0
  4  5  1  0
  5  6  1  0
  5 29  1  0
  5 30  1  0
  6  7  1  0
  6  8  1  0
  6 31  1  1
  7 32  1  0
  7 33  1  0
  7 34  1  0
  8 17  1  0
  8  9  1  0
  8 35  1  1
  9 10  1  0
  9 36  1  0
  9 37  1  0
 10 17  1  0
 10 11  1  0
 10 38  1  6
 11 12  1  0
 11 13  1  0
 11 39  1  1
 12 40  1  0
 12 41  1  0
 12 42  1  0
 13 14  1  0
 13 15  1  0
 13 43  1  6
 14 44  1  0
 15 16  1  0
 15 45  1  0
 15 46  1  0
 16 17  1  0
 16 21  1  0
 16 47  1  1
 17 18  1  1
 18 19  1  0
 18 20  1  0
 18 48  1  1
 19 49  1  0
 19 50  1  0
 19 51  1  0
 20 52  1  0
 20 53  1  0
 21 23  1  6
 21 22  1  0
 22 23  1  0
 22 54  1  0
 22 55  1  0
M  END
>  <i_m_ct_stereo_status>  (209) 
1

>  <s_m_source_file>  (209) 
/var/tmp/pbs.5076255.sched01/tmpqw5sdpkp/8220gfbieb.sdf

>  <i_m_source_file_index>  (209) 
3

>  <i_lp_mmshare_version>  (209) 
48012

>  <i_f3d_flags>  (209) 
0

>  <s_epik_input>  (209) 
W0NAXTEyM1tDQEhdNFtDQEhdKFtDSDNdKVtDSDJdW0NAQF0oQyg9W0NIMl0pW0NIM10pKFtDSDJdW0NAQEhdM1tDSDNdKVtDQEBdNShbQ0gyXU81KVtDQEBIXTJbQ0gyXVtDQEhdKFtPSF0pW0NASF0oW0NIM10pW0NASF0xW0NIMl00

>  <s_epik_cmdline>  (209) 
J2VwaWtfcHl0aG9uJywgJy1waHQnLCAnMi4wJywgJy1waCcsICc3LjAnLCAnLXRuJywgJzgnLCAnLW1hJywgJzIwMCcsICctaW1hZScsICc8aW5maWxlLm1hZT4nLCAnLW9tYWUnLCAnPG91dGZpbGUubWFlPic=

>  <r_lp_tautomer_probability>  (209) 
1

>  <r_epik_Ionization_Penalty>  (209) 
1.78524e-06

>  <r_epik_Ionization_Penalty_Charging>  (209) 
0

>  <r_epik_Ionization_Penalty_Neutral>  (209) 
1.78524e-06

>  <r_epik_State_Penalty>  (209) 
-0

>  <r_epik_Charging_Adjusted_Penalty>  (209) 
0

>  <i_epik_Tot_Q>  (209) 
0

>  <i_epik_Tot_abs_Q>  (209) 
0

>  <s_lp_Force_Field>  (209) 
OPLS3e

>  <r_lp_Energy>  (209) 
115.3

>  <b_lp_Chiralities_Consistent>  (209) 
1

>  <s_lp_Variant>  (209) 
60:0-1

>  <s_i_glide_gridfile>  (209) 
pfpi4k_grid

>  <i_i_glide_lignum>  (209) 
3

>  <i_i_glide_rotatable_bonds>  (209) 
2

>  <r_i_docking_score>  (209) 
-2.61125

>  <r_i_glide_ligand_efficiency>  (209) 
-0.113532

>  <r_i_glide_ligand_efficiency_sa>  (209) 
-0.322871

>  <r_i_glide_ligand_efficiency_ln>  (209) 
-0.631423

>  <r_i_glide_gscore>  (209) 
-2.61125

>  <r_i_glide_lipo>  (209) 
-0.276777

>  <r_i_glide_hbond>  (209) 
0

>  <r_i_glide_metal>  (209) 
-0

>  <r_i_glide_rewards>  (209) 
-1.25129

>  <r_i_glide_evdw>  (209) 
-18.4368

>  <r_i_glide_ecoul>  (209) 
-2.31479

>  <r_i_glide_erotb>  (209) 
0.18588

>  <r_i_glide_esite>  (209) 
0

>  <r_i_glide_emodel>  (209) 
-20.4564

>  <r_i_glide_energy>  (209) 
-20.7516

>  <r_i_glide_einternal>  (209) 
5.76682

>  <r_i_glide_intrahb_reward>  (209) 
-0

>  <i_i_glide_confnum>  (209) 
2

>  <i_i_glide_posenum>  (209) 
16

>  <r_i_glide_eff_state_penalty>  (209) 
0

>  <ligand_id>  (209) 
60

>  <original_smiles>  (209) 
C=C(C)C12CC(C)C3CC4C(C)C(O)CC(C34C(C)C1)C21CO1

>  <smiles>  (209) 
[H]OC1([H])C([H])([H])C2([H])C3(OC3([H])[H])C3(C(=C([H])[H])C([H])([H])[H])C([H])([H])C([H])(C([H])([H])[H])C4([H])C([H])([H])C([H])(C1([H])C([H])([H])[H])C42C([H])(C([H])([H])[H])C3([H])[H]

$$$$
61:0:0
     RDKit          3D

 66 72  0  0  1  0  0  0  0  0999 V2000
    2.5454    4.7872    2.6107 C   0  0  0  0  0  0  0  0  0  0  0  0
    2.6217    3.9378    3.7443 O   0  0  0  0  0  0  0  0  0  0  0  0
    1.4606    3.3318    4.1622 C   0  0  0  0  0  0  0  0  0  0  0  0
    0.1394    3.5901    3.6879 C   0  0  0  0  0  0  0  0  0  0  0  0
   -0.9302    2.6704    3.8970 C   0  0  0  0  0  0  0  0  0  0  0  0
   -0.5565    1.5106    4.6191 C   0  0  0  0  0  0  0  0  0  0  0  0
    0.3691    1.7328    5.6371 C   0  0  0  0  0  0  0  0  0  0  0  0
    1.5175    2.2869    5.1018 C   0  0  0  0  0  0  0  0  0  0  0  0
    2.6137    1.5020    5.1121 O   0  0  0  0  0  0  0  0  0  0  0  0
    2.5008    0.2048    4.4709 C   0  0  2  0  0  0  0  0  0  0  0  0
    3.1389    0.3895    3.0132 C   0  0  0  0  0  0  0  0  0  0  0  0
    4.0669   -0.7810    2.4412 C   0  0  0  0  0  0  0  0  0  0  0  0
    4.7910   -1.7397    3.4700 C   0  0  0  0  0  0  0  0  0  0  0  0
    4.0975   -1.7249    4.8488 C   0  0  2  0  0  0  0  0  0  0  0  0
    2.8815   -2.6474    5.0709 C   0  0  2  0  0  0  0  0  0  0  0  0
    2.0940   -2.9036    3.7359 C   0  0  0  0  0  0  0  0  0  0  0  0
    1.1937   -1.7562    3.2092 C   0  0  0  0  0  0  0  0  0  0  0  0
    0.9796   -0.6122    4.2313 C   0  0  1  0  0  0  0  0  0  0  0  0
   -0.0957   -1.3668    5.2150 C   0  0  0  0  0  0  0  0  0  0  0  0
   -0.2325   -2.8913    5.4775 C   0  0  0  0  0  0  0  0  0  0  0  0
    0.8899   -3.4900    6.3196 C   0  0  0  0  0  0  0  0  0  0  0  0
    2.0460   -2.5704    6.3808 N   0  0  2  0  0  0  0  0  0  0  0  0
    1.8411   -1.4911    7.4907 C   0  0  0  0  0  0  0  0  0  0  0  0
    1.6205    0.1187    7.4350 C   0  0  0  0  0  0  0  0  0  0  0  0
    0.3795    1.0052    7.0032 C   0  0  0  0  0  0  0  0  0  0  0  0
   -0.0373    0.4367    3.6245 C   0  0  0  0  0  0  0  0  0  0  0  0
    3.8364   -0.3193    5.1146 C   0  0  2  0  0  0  0  0  0  0  0  0
    4.5058   -0.5582    6.4917 C   0  0  0  0  0  0  0  0  0  0  0  0
    4.7120    0.0238    7.5352 O   0  0  0  0  0  0  0  0  0  0  0  0
    4.9817   -1.7588    6.0308 N   0  0  0  0  0  0  0  0  0  0  0  0
    5.8721   -2.7489    6.6196 C   0  0  0  0  0  0  0  0  0  0  0  0
    3.5397    5.1819    2.4050 H   0  0  0  0  0  0  0  0  0  0  0  0
    1.8799    5.6351    2.7780 H   0  0  0  0  0  0  0  0  0  0  0  0
    2.2183    4.2304    1.7327 H   0  0  0  0  0  0  0  0  0  0  0  0
   -0.0365    4.4153    3.0145 H   0  0  0  0  0  0  0  0  0  0  0  0
   -1.8147    2.7204    3.2818 H   0  0  0  0  0  0  0  0  0  0  0  0
    2.4182    0.6706    2.2518 H   0  0  0  0  0  0  0  0  0  0  0  0
    3.7760    1.2792    3.0388 H   0  0  0  0  0  0  0  0  0  0  0  0
    3.5247   -1.4002    1.7326 H   0  0  0  0  0  0  0  0  0  0  0  0
    4.8268   -0.3305    1.8047 H   0  0  0  0  0  0  0  0  0  0  0  0
    4.9251   -2.7483    3.0742 H   0  0  0  0  0  0  0  0  0  0  0  0
    5.8142   -1.3605    3.5730 H   0  0  0  0  0  0  0  0  0  0  0  0
    3.3472   -3.6177    5.2183 H   0  0  0  0  0  0  0  0  0  0  0  0
    2.7770   -3.1875    2.9414 H   0  0  0  0  0  0  0  0  0  0  0  0
    1.5294   -3.8324    3.7985 H   0  0  0  0  0  0  0  0  0  0  0  0
    1.5176   -1.3977    2.2370 H   0  0  0  0  0  0  0  0  0  0  0  0
    0.2395   -2.1959    2.9201 H   0  0  0  0  0  0  0  0  0  0  0  0
   -0.2111   -1.0104    6.1957 H   0  0  0  0  0  0  0  0  0  0  0  0
   -1.1051   -1.1846    4.8432 H   0  0  0  0  0  0  0  0  0  0  0  0
   -1.1563   -3.0519    6.0371 H   0  0  0  0  0  0  0  0  0  0  0  0
   -0.4103   -3.4623    4.5683 H   0  0  0  0  0  0  0  0  0  0  0  0
    0.5273   -3.7285    7.3193 H   0  0  0  0  0  0  0  0  0  0  0  0
    1.1918   -4.4561    5.9187 H   0  0  0  0  0  0  0  0  0  0  0  0
    1.0160   -1.8298    8.1145 H   0  0  0  0  0  0  0  0  0  0  0  0
    2.6849   -1.6459    8.1632 H   0  0  0  0  0  0  0  0  0  0  0  0
    1.5739    0.2869    8.5149 H   0  0  0  0  0  0  0  0  0  0  0  0
    2.4926    0.7130    7.2432 H   0  0  0  0  0  0  0  0  0  0  0  0
    0.4186    1.8687    7.6718 H   0  0  0  0  0  0  0  0  0  0  0  0
   -0.5986    0.6085    7.2807 H   0  0  0  0  0  0  0  0  0  0  0  0
   -0.9003   -0.0410    3.1603 H   0  0  0  0  0  0  0  0  0  0  0  0
    0.4187    0.9406    2.7753 H   0  0  0  0  0  0  0  0  0  0  0  0
    4.6396    0.3140    4.7264 H   0  0  0  0  0  0  0  0  0  0  0  0
    6.3359   -2.3740    7.5323 H   0  0  0  0  0  0  0  0  0  0  0  0
    6.6693   -3.0243    5.9331 H   0  0  0  0  0  0  0  0  0  0  0  0
    5.3185   -3.6488    6.8736 H   0  0  0  0  0  0  0  0  0  0  0  0
    2.6771   -3.1344    6.9335 H   0  0  0  0  0  0  0  0  0  0  0  0
  1  2  1  0
  1 32  1  0
  1 33  1  0
  1 34  1  0
  2  3  1  0
  3  8  2  0
  3  4  1  0
  4  5  2  0
  4 35  1  0
  5  6  1  0
  5 36  1  0
  6 26  1  0
  6  7  2  0
  7 25  1  0
  7  8  1  0
  8  9  1  0
  9 10  1  0
 10 18  1  0
 10 27  1  0
 10 11  1  6
 11 12  1  0
 11 37  1  0
 11 38  1  0
 12 13  1  0
 12 39  1  0
 12 40  1  0
 13 14  1  0
 13 41  1  0
 13 42  1  0
 14 30  1  1
 14 15  1  0
 14 27  1  0
 15 22  1  0
 15 16  1  0
 15 43  1  1
 16 17  1  0
 16 44  1  0
 16 45  1  0
 17 18  1  0
 17 46  1  0
 17 47  1  0
 18 19  1  1
 18 26  1  0
 19 20  1  0
 19 48  1  0
 19 49  1  0
 20 21  1  0
 20 50  1  0
 20 51  1  0
 21 22  1  0
 21 52  1  0
 21 53  1  0
 22 23  1  0
 22 66  1  1
 23 24  1  0
 23 54  1  0
 23 55  1  0
 24 25  1  0
 24 56  1  0
 24 57  1  0
 25 58  1  0
 25 59  1  0
 26 60  1  0
 26 61  1  0
 27 28  1  0
 27 62  1  6
 28 29  2  0
 28 30  1  0
 30 31  1  0
 31 63  1  0
 31 64  1  0
 31 65  1  0
M  CHG  1  22   1
M  END
>  <i_m_ct_stereo_status>  (210) 
1

>  <s_m_source_file>  (210) 
/var/tmp/pbs.5076255.sched01/tmpqw5sdpkp/8220gfbieb.sdf

>  <i_m_source_file_index>  (210) 
4

>  <i_lp_mmshare_version>  (210) 
48012

>  <i_f3d_flags>  (210) 
0

>  <s_epik_input>  (210) 
W0NIM11PYyhjMU8yKVtjSF1bY0hdYyhbQ0gyXTMpYzFbQ0gyXVtDSDJdW0NIMl1OKFtDSDJdW0NIMl1bQ0gyXTQpW0NAQEhdKFtDSDJdW0NIMl1bQ0BAXTM0W0NAXTI1NilbQ0BAXTcoW0NIMl1bQ0gyXVtDSDJdNSlbQ0BASF02Qyg9TylON1tDSDNd

>  <s_epik_cmdline>  (210) 
J2VwaWtfcHl0aG9uJywgJy1waHQnLCAnMi4wJywgJy1waCcsICc3LjAnLCAnLXRuJywgJzgnLCAnLW1hJywgJzIwMCcsICctaW1hZScsICc8aW5maWxlLm1hZT4nLCAnLW9tYWUnLCAnPG91dGZpbGUubWFlPic=

>  <r_lp_tautomer_probability>  (210) 
1

>  <r_epik_Ionization_Penalty>  (210) 
0.00360021

>  <r_epik_Ionization_Penalty_Charging>  (210) 
0.00360021

>  <r_epik_Ionization_Penalty_Neutral>  (210) 
2.67409e-10

>  <r_epik_State_Penalty>  (210) 
0.00255932

>  <r_epik_Charging_Adjusted_Penalty>  (210) 
0.00615954

>  <i_epik_Tot_Q>  (210) 
1

>  <i_epik_Tot_abs_Q>  (210) 
1

>  <s_lp_Force_Field>  (210) 
OPLS3e

>  <r_lp_Energy>  (210) 
351.25

>  <b_lp_Chiralities_Consistent>  (210) 
1

>  <s_lp_Variant>  (210) 
61:0-1

>  <s_i_glide_gridfile>  (210) 
pfpi4k_grid

>  <i_i_glide_lignum>  (210) 
4

>  <i_i_glide_rotatable_bonds>  (210) 
1

>  <r_i_docking_score>  (210) 
-1.9445

>  <r_i_glide_ligand_efficiency>  (210) 
-0.0627258

>  <r_i_glide_ligand_efficiency_sa>  (210) 
-0.197046

>  <r_i_glide_ligand_efficiency_ln>  (210) 
-0.438544

>  <r_i_glide_gscore>  (210) 
-1.9445

>  <r_i_glide_lipo>  (210) 
-0.130438

>  <r_i_glide_hbond>  (210) 
0

>  <r_i_glide_metal>  (210) 
-0

>  <r_i_glide_rewards>  (210) 
-0.534194

>  <r_i_glide_evdw>  (210) 
-18.7265

>  <r_i_glide_ecoul>  (210) 
-2.29013

>  <r_i_glide_erotb>  (210) 
0

>  <r_i_glide_esite>  (210) 
-2.39519e-05

>  <r_i_glide_emodel>  (210) 
-22.7752

>  <r_i_glide_energy>  (210) 
-21.0166

>  <r_i_glide_einternal>  (210) 
0.300993

>  <r_i_glide_intrahb_reward>  (210) 
-0

>  <i_i_glide_confnum>  (210) 
1

>  <i_i_glide_posenum>  (210) 
24

>  <r_i_glide_eff_state_penalty>  (210) 
0

>  <ligand_id>  (210) 
61

>  <original_smiles>  (210) 
COc1ccc2c3c1OC14CCCC5(C6CCC1(CCCN6CCC3)C2)C4C(=O)N5C

>  <smiles>  (210) 
[H]c1c([H])c2c3c(c1OC([H])([H])[H])OC14C([H])([H])C([H])([H])C([H])([H])C5(N(C([H])([H])[H])C(=O)C15[H])C1([H])C([H])([H])C([H])([H])C4(C2([H])[H])C([H])([H])C([H])([H])C([H])([H])[N+]1([H])C([H])([H])C([H])([H])C3([H])[H]

$$$$
61:0:1
     RDKit          3D

 66 72  0  0  1  0  0  0  0  0999 V2000
    0.3191    5.9982    3.2704 C   0  0  0  0  0  0  0  0  0  0  0  0
    0.8887    4.8857    3.9389 O   0  0  0  0  0  0  0  0  0  0  0  0
    0.0387    4.0476    4.6173 C   0  0  0  0  0  0  0  0  0  0  0  0
   -1.3628    3.8925    4.3998 C   0  0  0  0  0  0  0  0  0  0  0  0
   -2.0776    2.7574    4.8820 C   0  0  0  0  0  0  0  0  0  0  0  0
   -1.2760    1.8250    5.5859 C   0  0  0  0  0  0  0  0  0  0  0  0
   -0.2799    2.3980    6.3741 C   0  0  0  0  0  0  0  0  0  0  0  0
    0.5536    3.1604    5.5776 C   0  0  0  0  0  0  0  0  0  0  0  0
    1.8084    2.6981    5.4138 O   0  0  0  0  0  0  0  0  0  0  0  0
    1.9499    1.3493    4.9007 C   0  0  2  0  0  0  0  0  0  0  0  0
    2.2411    1.5140    3.3342 C   0  0  0  0  0  0  0  0  0  0  0  0
    3.3398    0.5595    2.6681 C   0  0  0  0  0  0  0  0  0  0  0  0
    4.4781   -0.0411    3.5904 C   0  0  0  0  0  0  0  0  0  0  0  0
    4.0634   -0.0352    5.0775 C   0  0  2  0  0  0  0  0  0  0  0  0
    3.2119   -1.2071    5.6075 C   0  0  2  0  0  0  0  0  0  0  0  0
    2.3009   -1.8215    4.4845 C   0  0  0  0  0  0  0  0  0  0  0  0
    1.0348   -1.0233    4.0751 C   0  0  0  0  0  0  0  0  0  0  0  0
    0.6976    0.1423    5.0376 C   0  0  1  0  0  0  0  0  0  0  0  0
    0.0719   -0.7394    6.2719 C   0  0  0  0  0  0  0  0  0  0  0  0
    0.4154   -2.2042    6.6604 C   0  0  0  0  0  0  0  0  0  0  0  0
    1.7923   -2.3801    7.2946 C   0  0  0  0  0  0  0  0  0  0  0  0
    2.6372   -1.1906    7.0533 N   0  0  2  0  0  0  0  0  0  0  0  0
    2.3403   -0.0747    8.1045 C   0  0  0  0  0  0  0  0  0  0  0  0
    1.6733    1.4026    7.9824 C   0  0  0  0  0  0  0  0  0  0  0  0
    0.1769    1.8743    7.7563 C   0  0  0  0  0  0  0  0  0  0  0  0
   -0.6650    0.8077    4.5822 C   0  0  0  0  0  0  0  0  0  0  0  0
    3.4715    1.2758    5.2916 C   0  0  2  0  0  0  0  0  0  0  0  0
    4.4137    1.3912    6.5164 C   0  0  0  0  0  0  0  0  0  0  0  0
    4.6337    2.1309    7.4519 O   0  0  0  0  0  0  0  0  0  0  0  0
    5.1143    0.3080    6.0553 N   0  0  0  0  0  0  0  0  0  0  0  0
    6.3360   -0.3310    6.5151 C   0  0  0  0  0  0  0  0  0  0  0  0
    1.1189    6.5437    2.7798 H   0  0  0  0  0  0  0  0  0  0  0  0
   -0.1554    6.6691    3.9849 H   0  0  0  0  0  0  0  0  0  0  0  0
   -0.4050    5.7227    2.5042 H   0  0  0  0  0  0  0  0  0  0  0  0
   -1.8783    4.5414    3.7104 H   0  0  0  0  0  0  0  0  0  0  0  0
   -3.0316    2.5082    4.4483 H   0  0  0  0  0  0  0  0  0  0  0  0
    1.3457    1.5045    2.7208 H   0  0  0  0  0  0  0  0  0  0  0  0
    2.5999    2.5343    3.1635 H   0  0  0  0  0  0  0  0  0  0  0  0
    2.8719   -0.2615    2.1332 H   0  0  0  0  0  0  0  0  0  0  0  0
    3.8100    1.1013    1.8515 H   0  0  0  0  0  0  0  0  0  0  0  0
    4.8096   -1.0220    3.2467 H   0  0  0  0  0  0  0  0  0  0  0  0
    5.3646    0.5866    3.4577 H   0  0  0  0  0  0  0  0  0  0  0  0
    3.9484   -1.9971    5.7224 H   0  0  0  0  0  0  0  0  0  0  0  0
    2.8830   -2.0130    3.5881 H   0  0  0  0  0  0  0  0  0  0  0  0
    2.0400   -2.8506    4.7267 H   0  0  0  0  0  0  0  0  0  0  0  0
    1.0706   -0.7121    3.0360 H   0  0  0  0  0  0  0  0  0  0  0  0
    0.2038   -1.7275    4.0140 H   0  0  0  0  0  0  0  0  0  0  0  0
    0.0400   -0.3086    7.2291 H   0  0  0  0  0  0  0  0  0  0  0  0
   -0.9972   -0.8724    6.1029 H   0  0  0  0  0  0  0  0  0  0  0  0
   -0.3089   -2.5308    7.4090 H   0  0  0  0  0  0  0  0  0  0  0  0
    0.2405   -2.9129    5.8514 H   0  0  0  0  0  0  0  0  0  0  0  0
    1.6948   -2.5792    8.3617 H   0  0  0  0  0  0  0  0  0  0  0  0
    2.2752   -3.2758    6.9086 H   0  0  0  0  0  0  0  0  0  0  0  0
    1.7673   -0.5364    8.9063 H   0  0  0  0  0  0  0  0  0  0  0  0
    3.2998    0.0801    8.5979 H   0  0  0  0  0  0  0  0  0  0  0  0
    1.7751    1.6840    9.0348 H   0  0  0  0  0  0  0  0  0  0  0  0
    2.2956    2.1763    7.5753 H   0  0  0  0  0  0  0  0  0  0  0  0
    0.0933    2.7940    8.3407 H   0  0  0  0  0  0  0  0  0  0  0  0
   -0.5844    1.2744    8.2585 H   0  0  0  0  0  0  0  0  0  0  0  0
   -1.4264    0.0660    4.3350 H   0  0  0  0  0  0  0  0  0  0  0  0
   -0.5243    1.3072    3.6264 H   0  0  0  0  0  0  0  0  0  0  0  0
    3.9832    2.0429    4.7027 H   0  0  0  0  0  0  0  0  0  0  0  0
    6.8320    0.2584    7.2861 H   0  0  0  0  0  0  0  0  0  0  0  0
    7.0356   -0.4437    5.6927 H   0  0  0  0  0  0  0  0  0  0  0  0
    6.1175   -1.3118    6.9302 H   0  0  0  0  0  0  0  0  0  0  0  0
    3.4892   -1.4985    7.5018 H   0  0  0  0  0  0  0  0  0  0  0  0
  1  2  1  0
  1 32  1  0
  1 33  1  0
  1 34  1  0
  2  3  1  0
  3  8  2  0
  3  4  1  0
  4  5  2  0
  4 35  1  0
  5  6  1  0
  5 36  1  0
  6 26  1  0
  6  7  2  0
  7 25  1  0
  7  8  1  0
  8  9  1  0
  9 10  1  0
 10 18  1  0
 10 27  1  0
 10 11  1  6
 11 12  1  0
 11 37  1  0
 11 38  1  0
 12 13  1  0
 12 39  1  0
 12 40  1  0
 13 14  1  0
 13 41  1  0
 13 42  1  0
 14 30  1  1
 14 15  1  0
 14 27  1  0
 15 22  1  0
 15 16  1  0
 15 43  1  1
 16 17  1  0
 16 44  1  0
 16 45  1  0
 17 18  1  0
 17 46  1  0
 17 47  1  0
 18 19  1  1
 18 26  1  0
 19 20  1  0
 19 48  1  0
 19 49  1  0
 20 21  1  0
 20 50  1  0
 20 51  1  0
 21 22  1  0
 21 52  1  0
 21 53  1  0
 22 23  1  0
 22 66  1  1
 23 24  1  0
 23 54  1  0
 23 55  1  0
 24 25  1  0
 24 56  1  0
 24 57  1  0
 25 58  1  0
 25 59  1  0
 26 60  1  0
 26 61  1  0
 27 28  1  0
 27 62  1  6
 28 29  2  0
 28 30  1  0
 30 31  1  0
 31 63  1  0
 31 64  1  0
 31 65  1  0
M  CHG  1  22   1
M  END
>  <i_m_ct_stereo_status>  (211) 
1

>  <s_m_source_file>  (211) 
/var/tmp/pbs.5076255.sched01/tmpqw5sdpkp/8220gfbieb.sdf

>  <i_m_source_file_index>  (211) 
4

>  <i_lp_mmshare_version>  (211) 
48012

>  <i_f3d_flags>  (211) 
0

>  <s_epik_input>  (211) 
W0NIM11PYyhjMU8yKVtjSF1bY0hdYyhbQ0gyXTMpYzFbQ0gyXVtDSDJdW0NIMl1OKFtDSDJdW0NIMl1bQ0gyXTQpW0NAQEhdKFtDSDJdW0NIMl1bQ0BAXTM0W0NAXTI1NilbQ0BAXTcoW0NIMl1bQ0gyXVtDSDJdNSlbQ0BASF02Qyg9TylON1tDSDNd

>  <s_epik_cmdline>  (211) 
J2VwaWtfcHl0aG9uJywgJy1waHQnLCAnMi4wJywgJy1waCcsICc3LjAnLCAnLXRuJywgJzgnLCAnLW1hJywgJzIwMCcsICctaW1hZScsICc8aW5maWxlLm1hZT4nLCAnLW9tYWUnLCAnPG91dGZpbGUubWFlPic=

>  <r_lp_tautomer_probability>  (211) 
1

>  <r_epik_Ionization_Penalty>  (211) 
0.00360021

>  <r_epik_Ionization_Penalty_Charging>  (211) 
0.00360021

>  <r_epik_Ionization_Penalty_Neutral>  (211) 
2.67409e-10

>  <r_epik_State_Penalty>  (211) 
0.00255932

>  <r_epik_Charging_Adjusted_Penalty>  (211) 
0.00615954

>  <i_epik_Tot_Q>  (211) 
1

>  <i_epik_Tot_abs_Q>  (211) 
1

>  <s_lp_Force_Field>  (211) 
OPLS3e

>  <r_lp_Energy>  (211) 
351.25

>  <b_lp_Chiralities_Consistent>  (211) 
1

>  <s_lp_Variant>  (211) 
61:0-1

>  <s_i_glide_gridfile>  (211) 
pfpi4k_grid

>  <i_i_glide_lignum>  (211) 
4

>  <i_i_glide_rotatable_bonds>  (211) 
1

>  <r_i_docking_score>  (211) 
-1.6934

>  <r_i_glide_ligand_efficiency>  (211) 
-0.0546258

>  <r_i_glide_ligand_efficiency_sa>  (211) 
-0.1716

>  <r_i_glide_ligand_efficiency_ln>  (211) 
-0.381914

>  <r_i_glide_gscore>  (211) 
-1.6934

>  <r_i_glide_lipo>  (211) 
-0.146188

>  <r_i_glide_hbond>  (211) 
0

>  <r_i_glide_metal>  (211) 
-0

>  <r_i_glide_rewards>  (211) 
-0.542614

>  <r_i_glide_evdw>  (211) 
-17.3412

>  <r_i_glide_ecoul>  (211) 
-0.91692

>  <r_i_glide_erotb>  (211) 
0

>  <r_i_glide_esite>  (211) 
0

>  <r_i_glide_emodel>  (211) 
-19.4708

>  <r_i_glide_energy>  (211) 
-18.2581

>  <r_i_glide_einternal>  (211) 
0.770426

>  <r_i_glide_intrahb_reward>  (211) 
-0

>  <i_i_glide_confnum>  (211) 
1

>  <i_i_glide_posenum>  (211) 
25

>  <r_i_glide_eff_state_penalty>  (211) 
0

>  <ligand_id>  (211) 
61

>  <original_smiles>  (211) 
COc1ccc2c3c1OC14CCCC5(C6CCC1(CCCN6CCC3)C2)C4C(=O)N5C

>  <smiles>  (211) 
[H]c1c([H])c2c3c(c1OC([H])([H])[H])OC14C([H])([H])C([H])([H])C([H])([H])C5(N(C([H])([H])[H])C(=O)C15[H])C1([H])C([H])([H])C([H])([H])C4(C2([H])[H])C([H])([H])C([H])([H])C([H])([H])[N+]1([H])C([H])([H])C([H])([H])C3([H])[H]

$$$$
61:0:2
     RDKit          3D

 66 72  0  0  1  0  0  0  0  0999 V2000
    2.4624    4.6406    2.4802 C   0  0  0  0  0  0  0  0  0  0  0  0
    2.7098    4.1451    3.7847 O   0  0  0  0  0  0  0  0  0  0  0  0
    1.6861    3.4749    4.4131 C   0  0  0  0  0  0  0  0  0  0  0  0
    0.4121    3.1439    3.8593 C   0  0  0  0  0  0  0  0  0  0  0  0
   -0.4201    2.1377    4.4338 C   0  0  0  0  0  0  0  0  0  0  0  0
    0.1257    1.5317    5.5922 C   0  0  0  0  0  0  0  0  0  0  0  0
    0.8347    2.3972    6.4225 C   0  0  0  0  0  0  0  0  0  0  0  0
    1.8752    2.9661    5.7104 C   0  0  0  0  0  0  0  0  0  0  0  0
    3.1172    2.5882    6.0718 O   0  0  0  0  0  0  0  0  0  0  0  0
    3.4017    1.1654    6.0612 C   0  0  2  0  0  0  0  0  0  0  0  0
    4.1576    0.8926    4.6757 C   0  0  0  0  0  0  0  0  0  0  0  0
    5.4069   -0.1063    4.6802 C   0  0  0  0  0  0  0  0  0  0  0  0
    6.2039   -0.3117    6.0306 C   0  0  0  0  0  0  0  0  0  0  0  0
    5.3545    0.0847    7.2567 C   0  0  2  0  0  0  0  0  0  0  0  0
    4.3750   -0.9545    7.8466 C   0  0  2  0  0  0  0  0  0  0  0  0
    3.8489   -1.9472    6.7468 C   0  0  0  0  0  0  0  0  0  0  0  0
    2.7728   -1.4169    5.7638 C   0  0  0  0  0  0  0  0  0  0  0  0
    2.1635   -0.0562    6.1855 C   0  0  1  0  0  0  0  0  0  0  0  0
    1.1848   -0.5943    7.3885 C   0  0  0  0  0  0  0  0  0  0  0  0
    1.3858   -1.8465    8.2846 C   0  0  0  0  0  0  0  0  0  0  0  0
    2.5026   -1.7081    9.3165 C   0  0  0  0  0  0  0  0  0  0  0  0
    3.3858   -0.5713    8.9837 N   0  0  2  0  0  0  0  0  0  0  0  0
    2.7881    0.7702    9.5107 C   0  0  0  0  0  0  0  0  0  0  0  0
    2.1969    2.0858    8.7572 C   0  0  0  0  0  0  0  0  0  0  0  0
    0.8447    2.3376    7.9696 C   0  0  0  0  0  0  0  0  0  0  0  0
    1.0090    0.3247    5.1721 C   0  0  0  0  0  0  0  0  0  0  0  0
    4.7299    1.3418    6.8844 C   0  0  2  0  0  0  0  0  0  0  0  0
    5.2561    1.8890    8.2355 C   0  0  0  0  0  0  0  0  0  0  0  0
    5.1845    2.8844    8.9243 O   0  0  0  0  0  0  0  0  0  0  0  0
    6.0606    0.7851    8.3469 N   0  0  0  0  0  0  0  0  0  0  0  0
    7.0842    0.4123    9.3123 C   0  0  0  0  0  0  0  0  0  0  0  0
    3.3638    5.1312    2.1138 H   0  0  0  0  0  0  0  0  0  0  0  0
    1.6581    5.3767    2.4841 H   0  0  0  0  0  0  0  0  0  0  0  0
    2.2137    3.8367    1.7878 H   0  0  0  0  0  0  0  0  0  0  0  0
    0.1275    3.5361    2.8929 H   0  0  0  0  0  0  0  0  0  0  0  0
   -1.2096    1.6900    3.8515 H   0  0  0  0  0  0  0  0  0  0  0  0
    3.4925    0.6254    3.8601 H   0  0  0  0  0  0  0  0  0  0  0  0
    4.5530    1.8459    4.3181 H   0  0  0  0  0  0  0  0  0  0  0  0
    5.1242   -1.0872    4.3072 H   0  0  0  0  0  0  0  0  0  0  0  0
    6.1099    0.2246    3.9163 H   0  0  0  0  0  0  0  0  0  0  0  0
    6.6111   -1.3193    6.1160 H   0  0  0  0  0  0  0  0  0  0  0  0
    7.0898    0.3284    5.9733 H   0  0  0  0  0  0  0  0  0  0  0  0
    5.0379   -1.6102    8.4052 H   0  0  0  0  0  0  0  0  0  0  0  0
    4.6762   -2.3393    6.1620 H   0  0  0  0  0  0  0  0  0  0  0  0
    3.5215   -2.8805    7.2020 H   0  0  0  0  0  0  0  0  0  0  0  0
    3.1258   -1.4189    4.7383 H   0  0  0  0  0  0  0  0  0  0  0  0
    1.9967   -2.1782    5.6798 H   0  0  0  0  0  0  0  0  0  0  0  0
    0.8638    0.0914    8.1164 H   0  0  0  0  0  0  0  0  0  0  0  0
    0.2177   -0.8625    6.9643 H   0  0  0  0  0  0  0  0  0  0  0  0
    0.4652   -2.0022    8.8512 H   0  0  0  0  0  0  0  0  0  0  0  0
    1.4626   -2.7729    7.7158 H   0  0  0  0  0  0  0  0  0  0  0  0
    2.0821   -1.5977   10.3160 H   0  0  0  0  0  0  0  0  0  0  0  0
    3.0759   -2.6317    9.3794 H   0  0  0  0  0  0  0  0  0  0  0  0
    1.9940    0.5132   10.2116 H   0  0  0  0  0  0  0  0  0  0  0  0
    3.5508    1.1459   10.1929 H   0  0  0  0  0  0  0  0  0  0  0  0
    1.9741    2.6676    9.6569 H   0  0  0  0  0  0  0  0  0  0  0  0
    2.9188    2.7584    8.3359 H   0  0  0  0  0  0  0  0  0  0  0  0
    0.5899    3.3750    8.1981 H   0  0  0  0  0  0  0  0  0  0  0  0
   -0.0356    1.8430    8.3843 H   0  0  0  0  0  0  0  0  0  0  0  0
    0.3565   -0.5216    4.9514 H   0  0  0  0  0  0  0  0  0  0  0  0
    1.4363    0.5351    4.1945 H   0  0  0  0  0  0  0  0  0  0  0  0
    5.4009    1.9492    6.2665 H   0  0  0  0  0  0  0  0  0  0  0  0
    7.3225    1.2423    9.9767 H   0  0  0  0  0  0  0  0  0  0  0  0
    8.0056    0.1112    8.8169 H   0  0  0  0  0  0  0  0  0  0  0  0
    6.7371   -0.4148    9.9267 H   0  0  0  0  0  0  0  0  0  0  0  0
    4.0562   -0.6587    9.7338 H   0  0  0  0  0  0  0  0  0  0  0  0
  1  2  1  0
  1 32  1  0
  1 33  1  0
  1 34  1  0
  2  3  1  0
  3  8  2  0
  3  4  1  0
  4  5  2  0
  4 35  1  0
  5  6  1  0
  5 36  1  0
  6 26  1  0
  6  7  2  0
  7 25  1  0
  7  8  1  0
  8  9  1  0
  9 10  1  0
 10 18  1  0
 10 27  1  0
 10 11  1  6
 11 12  1  0
 11 37  1  0
 11 38  1  0
 12 13  1  0
 12 39  1  0
 12 40  1  0
 13 14  1  0
 13 41  1  0
 13 42  1  0
 14 30  1  1
 14 15  1  0
 14 27  1  0
 15 22  1  0
 15 16  1  0
 15 43  1  1
 16 17  1  0
 16 44  1  0
 16 45  1  0
 17 18  1  0
 17 46  1  0
 17 47  1  0
 18 19  1  1
 18 26  1  0
 19 20  1  0
 19 48  1  0
 19 49  1  0
 20 21  1  0
 20 50  1  0
 20 51  1  0
 21 22  1  0
 21 52  1  0
 21 53  1  0
 22 23  1  0
 22 66  1  1
 23 24  1  0
 23 54  1  0
 23 55  1  0
 24 25  1  0
 24 56  1  0
 24 57  1  0
 25 58  1  0
 25 59  1  0
 26 60  1  0
 26 61  1  0
 27 28  1  0
 27 62  1  6
 28 29  2  0
 28 30  1  0
 30 31  1  0
 31 63  1  0
 31 64  1  0
 31 65  1  0
M  CHG  1  22   1
M  END
>  <i_m_ct_stereo_status>  (212) 
1

>  <s_m_source_file>  (212) 
/var/tmp/pbs.5076255.sched01/tmpqw5sdpkp/8220gfbieb.sdf

>  <i_m_source_file_index>  (212) 
4

>  <i_lp_mmshare_version>  (212) 
48012

>  <i_f3d_flags>  (212) 
0

>  <s_epik_input>  (212) 
W0NIM11PYyhjMU8yKVtjSF1bY0hdYyhbQ0gyXTMpYzFbQ0gyXVtDSDJdW0NIMl1OKFtDSDJdW0NIMl1bQ0gyXTQpW0NAQEhdKFtDSDJdW0NIMl1bQ0BAXTM0W0NAXTI1NilbQ0BAXTcoW0NIMl1bQ0gyXVtDSDJdNSlbQ0BASF02Qyg9TylON1tDSDNd

>  <s_epik_cmdline>  (212) 
J2VwaWtfcHl0aG9uJywgJy1waHQnLCAnMi4wJywgJy1waCcsICc3LjAnLCAnLXRuJywgJzgnLCAnLW1hJywgJzIwMCcsICctaW1hZScsICc8aW5maWxlLm1hZT4nLCAnLW9tYWUnLCAnPG91dGZpbGUubWFlPic=

>  <r_lp_tautomer_probability>  (212) 
1

>  <r_epik_Ionization_Penalty>  (212) 
0.00360021

>  <r_epik_Ionization_Penalty_Charging>  (212) 
0.00360021

>  <r_epik_Ionization_Penalty_Neutral>  (212) 
2.67409e-10

>  <r_epik_State_Penalty>  (212) 
0.00255932

>  <r_epik_Charging_Adjusted_Penalty>  (212) 
0.00615954

>  <i_epik_Tot_Q>  (212) 
1

>  <i_epik_Tot_abs_Q>  (212) 
1

>  <s_lp_Force_Field>  (212) 
OPLS3e

>  <r_lp_Energy>  (212) 
351.25

>  <b_lp_Chiralities_Consistent>  (212) 
1

>  <s_lp_Variant>  (212) 
61:0-1

>  <s_i_glide_gridfile>  (212) 
pfpi4k_grid

>  <i_i_glide_lignum>  (212) 
4

>  <i_i_glide_rotatable_bonds>  (212) 
1

>  <r_i_docking_score>  (212) 
-1.57498

>  <r_i_glide_ligand_efficiency>  (212) 
-0.0508057

>  <r_i_glide_ligand_efficiency_sa>  (212) 
-0.1596

>  <r_i_glide_ligand_efficiency_ln>  (212) 
-0.355206

>  <r_i_glide_gscore>  (212) 
-1.57498

>  <r_i_glide_lipo>  (212) 
-0.130064

>  <r_i_glide_hbond>  (212) 
0

>  <r_i_glide_metal>  (212) 
-0

>  <r_i_glide_rewards>  (212) 
-0.521129

>  <r_i_glide_evdw>  (212) 
-14.4591

>  <r_i_glide_ecoul>  (212) 
-1.33887

>  <r_i_glide_erotb>  (212) 
0

>  <r_i_glide_esite>  (212) 
0

>  <r_i_glide_emodel>  (212) 
-17.3525

>  <r_i_glide_energy>  (212) 
-15.7979

>  <r_i_glide_einternal>  (212) 
0.00470666

>  <r_i_glide_intrahb_reward>  (212) 
-0

>  <i_i_glide_confnum>  (212) 
1

>  <i_i_glide_posenum>  (212) 
7

>  <r_i_glide_eff_state_penalty>  (212) 
0

>  <ligand_id>  (212) 
61

>  <original_smiles>  (212) 
COc1ccc2c3c1OC14CCCC5(C6CCC1(CCCN6CCC3)C2)C4C(=O)N5C

>  <smiles>  (212) 
[H]c1c([H])c2c3c(c1OC([H])([H])[H])OC14C([H])([H])C([H])([H])C([H])([H])C5(N(C([H])([H])[H])C(=O)C15[H])C1([H])C([H])([H])C([H])([H])C4(C2([H])[H])C([H])([H])C([H])([H])C([H])([H])[N+]1([H])C([H])([H])C([H])([H])C3([H])[H]

$$$$
62:0:0
     RDKit          3D

 62 66  0  0  1  0  0  0  0  0999 V2000
   -1.8075   -8.2421    4.4174 C   0  0  0  0  0  0  0  0  0  0  0  0
   -0.6504   -7.8447    3.5663 C   0  0  2  0  0  0  0  0  0  0  0  0
    0.3019   -6.7509    3.9910 C   0  0  0  0  0  0  0  0  0  0  0  0
    1.1489   -6.7962    2.7203 C   0  0  1  0  0  0  0  0  0  0  0  0
    2.7080   -7.0727    2.8195 C   0  0  1  0  0  0  0  0  0  0  0  0
    2.9639   -7.9113    4.1091 C   0  0  0  0  0  0  0  0  0  0  0  0
    3.2773   -7.8835    1.6031 C   0  0  0  0  0  0  0  0  0  0  0  0
    4.1994   -6.9687    0.7553 C   0  0  0  0  0  0  0  0  0  0  0  0
    3.8031   -5.5525    1.1764 C   0  0  2  0  0  0  0  0  0  0  0  0
    2.4986   -5.2469    0.3718 C   0  0  0  0  0  0  0  0  0  0  0  0
    4.7769   -4.3678    0.8311 C   0  0  2  0  0  0  0  0  0  0  0  0
    6.2288   -4.6982    0.4486 C   0  0  0  0  0  0  0  0  0  0  0  0
    6.9270   -3.4490   -0.1153 C   0  0  0  0  0  0  0  0  0  0  0  0
    6.7619   -2.2170    0.8085 C   0  0  1  0  0  0  0  0  0  0  0  0
    7.3317   -1.0858    0.1816 O   0  0  0  0  0  0  0  0  0  0  0  0
    5.3031   -1.8868    1.2582 C   0  0  0  0  0  0  0  0  0  0  0  0
    5.3614   -0.7913    2.3479 C   0  0  0  0  0  0  0  0  0  0  0  0
    4.4566   -1.3436    0.0876 C   0  0  0  0  0  0  0  0  0  0  0  0
    4.7560   -3.2051    1.8658 C   0  0  1  0  0  0  0  0  0  0  0  0
    3.4365   -3.1110    2.6713 C   0  0  0  0  0  0  0  0  0  0  0  0
    3.0274   -4.4519    3.3110 C   0  0  0  0  0  0  0  0  0  0  0  0
    2.2950   -4.4628    4.3034 O   0  0  0  0  0  0  0  0  0  0  0  0
    3.5945   -5.7567    2.7142 C   0  0  1  0  0  0  0  0  0  0  0  0
    4.9396   -6.0326    3.4687 C   0  0  0  0  0  0  0  0  0  0  0  0
    0.2943   -7.8933    2.0783 C   0  0  0  0  0  0  0  0  0  0  0  0
   -0.9438   -7.6078    2.1126 N   0  0  0  0  0  0  0  0  0  0  0  0
    0.1465   -8.8708    3.0393 O   0  0  0  0  0  0  0  0  0  0  0  0
   -2.4069   -7.3470    4.5469 H   0  0  0  0  0  0  0  0  0  0  0  0
   -1.4501   -8.6485    5.3597 H   0  0  0  0  0  0  0  0  0  0  0  0
   -2.4234   -9.0140    3.9584 H   0  0  0  0  0  0  0  0  0  0  0  0
   -0.2220   -5.8043    4.1021 H   0  0  0  0  0  0  0  0  0  0  0  0
    0.7797   -6.9896    4.9373 H   0  0  0  0  0  0  0  0  0  0  0  0
    0.9229   -5.8788    2.1861 H   0  0  0  0  0  0  0  0  0  0  0  0
    3.9599   -8.3476    4.1521 H   0  0  0  0  0  0  0  0  0  0  0  0
    2.2849   -8.7594    4.1838 H   0  0  0  0  0  0  0  0  0  0  0  0
    2.8546   -7.3171    5.0164 H   0  0  0  0  0  0  0  0  0  0  0  0
    3.8630   -8.7375    1.9385 H   0  0  0  0  0  0  0  0  0  0  0  0
    2.4979   -8.3332    0.9973 H   0  0  0  0  0  0  0  0  0  0  0  0
    5.2407   -7.1777    1.0042 H   0  0  0  0  0  0  0  0  0  0  0  0
    4.1017   -7.1256   -0.3200 H   0  0  0  0  0  0  0  0  0  0  0  0
    1.9476   -4.3766    0.7246 H   0  0  0  0  0  0  0  0  0  0  0  0
    1.8224   -6.0959    0.2853 H   0  0  0  0  0  0  0  0  0  0  0  0
    2.7422   -5.0288   -0.6585 H   0  0  0  0  0  0  0  0  0  0  0  0
    4.3967   -3.9554   -0.0951 H   0  0  0  0  0  0  0  0  0  0  0  0
    6.7763   -5.0721    1.3162 H   0  0  0  0  0  0  0  0  0  0  0  0
    6.2339   -5.4773   -0.3152 H   0  0  0  0  0  0  0  0  0  0  0  0
    7.9938   -3.6494   -0.2256 H   0  0  0  0  0  0  0  0  0  0  0  0
    6.5546   -3.2227   -1.1066 H   0  0  0  0  0  0  0  0  0  0  0  0
    7.3706   -2.4442    1.6837 H   0  0  0  0  0  0  0  0  0  0  0  0
    7.4625   -0.4179    0.8587 H   0  0  0  0  0  0  0  0  0  0  0  0
    4.3621   -0.4985    2.6697 H   0  0  0  0  0  0  0  0  0  0  0  0
    5.8415    0.1189    1.9932 H   0  0  0  0  0  0  0  0  0  0  0  0
    5.9057   -1.1308    3.2276 H   0  0  0  0  0  0  0  0  0  0  0  0
    3.3924   -1.3690    0.3156 H   0  0  0  0  0  0  0  0  0  0  0  0
    4.6066   -1.9141   -0.8254 H   0  0  0  0  0  0  0  0  0  0  0  0
    4.7147   -0.3105   -0.1587 H   0  0  0  0  0  0  0  0  0  0  0  0
    5.4982   -3.4226    2.6281 H   0  0  0  0  0  0  0  0  0  0  0  0
    3.5652   -2.4095    3.4939 H   0  0  0  0  0  0  0  0  0  0  0  0
    2.6178   -2.7293    2.0592 H   0  0  0  0  0  0  0  0  0  0  0  0
    5.4043   -6.9789    3.1881 H   0  0  0  0  0  0  0  0  0  0  0  0
    4.7731   -6.0603    4.5446 H   0  0  0  0  0  0  0  0  0  0  0  0
    5.7040   -5.2849    3.3295 H   0  0  0  0  0  0  0  0  0  0  0  0
  2  1  1  1
  1 28  1  0
  1 29  1  0
  1 30  1  0
  2 26  1  0
  2 27  1  0
  2  3  1  0
  3  4  1  0
  3 31  1  0
  3 32  1  0
  4  5  1  0
  4 25  1  0
  4 33  1  6
  5 23  1  0
  5  6  1  1
  5  7  1  0
  6 34  1  0
  6 35  1  0
  6 36  1  0
  7  8  1  0
  7 37  1  0
  7 38  1  0
  8  9  1  0
  8 39  1  0
  8 40  1  0
  9 23  1  0
  9 10  1  6
  9 11  1  0
 10 41  1  0
 10 42  1  0
 10 43  1  0
 11 19  1  0
 11 12  1  0
 11 44  1  6
 12 13  1  0
 12 45  1  0
 12 46  1  0
 13 14  1  0
 13 47  1  0
 13 48  1  0
 14 15  1  0
 14 16  1  0
 14 49  1  1
 15 50  1  0
 16 17  1  0
 16 18  1  0
 16 19  1  0
 17 51  1  0
 17 52  1  0
 17 53  1  0
 18 54  1  0
 18 55  1  0
 18 56  1  0
 19 20  1  0
 19 57  1  1
 20 21  1  0
 20 58  1  0
 20 59  1  0
 21 22  2  0
 21 23  1  0
 23 24  1  1
 24 60  1  0
 24 61  1  0
 24 62  1  0
 25 26  2  0
 25 27  1  0
M  END
>  <i_m_ct_stereo_status>  (213) 
1

>  <s_m_source_file>  (213) 
/var/tmp/pbs.5076255.sched01/tmpqw5sdpkp/8220gfbieb.sdf

>  <i_m_source_file_index>  (213) 
5

>  <i_lp_mmshare_version>  (213) 
48012

>  <i_f3d_flags>  (213) 
0

>  <s_epik_input>  (213) 
W0NIM11bQ0BdMTJbQ0gyXVtDQEhdKEMoPU4xKU8yKVtDQEBdKFtDSDNdKShbQ0gyXVtDSDJdMylbQ0BdNChbQ0gzXSlDKD1PKVtDSDJdW0NAQEhdKFtDQEBIXTVbQ0BAXTM0W0NIM10pQyhbQ0gzXSkoW0NIM10pW0NASF0oW09IXSlbQ0gyXVtDSDJdNQ==

>  <s_epik_cmdline>  (213) 
J2VwaWtfcHl0aG9uJywgJy1waHQnLCAnMi4wJywgJy1waCcsICc3LjAnLCAnLXRuJywgJzgnLCAnLW1hJywgJzIwMCcsICctaW1hZScsICc8aW5maWxlLm1hZT4nLCAnLW9tYWUnLCAnPG91dGZpbGUubWFlPic=

>  <r_lp_tautomer_probability>  (213) 
1

>  <r_epik_Ionization_Penalty>  (213) 
0.00017567

>  <r_epik_Ionization_Penalty_Charging>  (213) 
0

>  <r_epik_Ionization_Penalty_Neutral>  (213) 
0.00017567

>  <r_epik_State_Penalty>  (213) 
-0

>  <r_epik_Charging_Adjusted_Penalty>  (213) 
0

>  <i_epik_Tot_Q>  (213) 
0

>  <i_epik_Tot_abs_Q>  (213) 
0

>  <s_epik_Chemistry_Notes>  (213) 
This compound has an imine and may undergo hydrolysis.

>  <s_lp_Force_Field>  (213) 
OPLS3e

>  <r_lp_Energy>  (213) 
102.799

>  <b_lp_Chiralities_Consistent>  (213) 
1

>  <s_lp_Variant>  (213) 
62:0-1

>  <s_i_glide_gridfile>  (213) 
pfpi4k_grid

>  <i_i_glide_lignum>  (213) 
5

>  <i_i_glide_rotatable_bonds>  (213) 
2

>  <r_i_docking_score>  (213) 
-3.45245

>  <r_i_glide_ligand_efficiency>  (213) 
-0.127869

>  <r_i_glide_ligand_efficiency_sa>  (213) 
-0.383606

>  <r_i_glide_ligand_efficiency_ln>  (213) 
-0.803674

>  <r_i_glide_gscore>  (213) 
-3.45245

>  <r_i_glide_lipo>  (213) 
-0.72888

>  <r_i_glide_hbond>  (213) 
-0.385628

>  <r_i_glide_metal>  (213) 
-0

>  <r_i_glide_rewards>  (213) 
-0.862303

>  <r_i_glide_evdw>  (213) 
-16.9563

>  <r_i_glide_ecoul>  (213) 
-4.34068

>  <r_i_glide_erotb>  (213) 
0.138515

>  <r_i_glide_esite>  (213) 
-0.115242

>  <r_i_glide_emodel>  (213) 
-25.9389

>  <r_i_glide_energy>  (213) 
-21.297

>  <r_i_glide_einternal>  (213) 
1.22507

>  <r_i_glide_intrahb_reward>  (213) 
-0

>  <i_i_glide_confnum>  (213) 
3

>  <i_i_glide_posenum>  (213) 
27

>  <r_i_glide_eff_state_penalty>  (213) 
0

>  <ligand_id>  (213) 
62

>  <original_smiles>  (213) 
CC12CC(C3(C)CCC4(C)C5CCC(O)C(C)(C)C5CC(=O)C34C)C(=N1)O2

>  <smiles>  (213) 
[H]OC1([H])C([H])([H])C([H])([H])C2([H])C([H])(C([H])([H])C(=O)C3(C([H])([H])[H])C(C([H])([H])[H])(C4([H])C5=NC(C([H])([H])[H])(O5)C4([H])[H])C([H])([H])C([H])([H])C23C([H])([H])[H])C1(C([H])([H])[H])C([H])([H])[H]

$$$$
62:0:1
     RDKit          3D

 62 66  0  0  1  0  0  0  0  0999 V2000
   -1.6253   -8.6711    3.2691 C   0  0  0  0  0  0  0  0  0  0  0  0
   -0.5075   -7.6660    3.0459 C   0  0  2  0  0  0  0  0  0  0  0  0
   -0.1419   -6.5936    4.0528 C   0  0  0  0  0  0  0  0  0  0  0  0
    1.0389   -6.0182    3.2152 C   0  0  1  0  0  0  0  0  0  0  0  0
    2.5091   -5.8789    3.8710 C   0  0  1  0  0  0  0  0  0  0  0  0
    2.3238   -5.5947    5.4147 C   0  0  0  0  0  0  0  0  0  0  0  0
    3.4278   -7.1484    3.7401 C   0  0  0  0  0  0  0  0  0  0  0  0
    4.6216   -6.8382    2.7898 C   0  0  0  0  0  0  0  0  0  0  0  0
    4.2025   -5.5776    2.0129 C   0  0  2  0  0  0  0  0  0  0  0  0
    3.3425   -6.1047    0.8227 C   0  0  0  0  0  0  0  0  0  0  0  0
    5.3108   -4.7174    1.2927 C   0  0  2  0  0  0  0  0  0  0  0  0
    6.7790   -4.9810    1.6353 C   0  0  0  0  0  0  0  0  0  0  0  0
    7.6988   -4.2360    0.6307 C   0  0  0  0  0  0  0  0  0  0  0  0
    7.3318   -2.7453    0.3815 C   0  0  1  0  0  0  0  0  0  0  0  0
    8.1376   -2.2572   -0.6736 O   0  0  0  0  0  0  0  0  0  0  0  0
    5.8179   -2.4820    0.1114 C   0  0  0  0  0  0  0  0  0  0  0  0
    5.5621   -0.9632    0.1891 C   0  0  0  0  0  0  0  0  0  0  0  0
    5.3923   -2.9817   -1.3021 C   0  0  0  0  0  0  0  0  0  0  0  0
    5.0212   -3.1859    1.2566 C   0  0  1  0  0  0  0  0  0  0  0  0
    3.5165   -2.8319    1.3976 C   0  0  0  0  0  0  0  0  0  0  0  0
    2.8422   -3.4872    2.6265 C   0  0  0  0  0  0  0  0  0  0  0  0
    1.8928   -2.9510    3.1679 O   0  0  0  0  0  0  0  0  0  0  0  0
    3.4763   -4.7980    3.1761 C   0  0  1  0  0  0  0  0  0  0  0  0
    4.4947   -4.2854    4.2763 C   0  0  0  0  0  0  0  0  0  0  0  0
    0.7918   -6.9862    2.0750 C   0  0  0  0  0  0  0  0  0  0  0  0
   -0.4298   -7.0013    1.6943 N   0  0  0  0  0  0  0  0  0  0  0  0
    0.7183   -8.2194    2.6904 O   0  0  0  0  0  0  0  0  0  0  0  0
   -2.6039   -8.1817    3.3098 H   0  0  0  0  0  0  0  0  0  0  0  0
   -1.4326   -9.1770    4.2242 H   0  0  0  0  0  0  0  0  0  0  0  0
   -1.6245   -9.4329    2.4835 H   0  0  0  0  0  0  0  0  0  0  0  0
   -0.9649   -5.8644    4.1641 H   0  0  0  0  0  0  0  0  0  0  0  0
    0.0619   -7.0645    5.0286 H   0  0  0  0  0  0  0  0  0  0  0  0
    0.6830   -5.0477    2.8944 H   0  0  0  0  0  0  0  0  0  0  0  0
    3.2530   -5.6993    5.9917 H   0  0  0  0  0  0  0  0  0  0  0  0
    1.6889   -6.3102    5.9349 H   0  0  0  0  0  0  0  0  0  0  0  0
    1.9183   -4.5954    5.6093 H   0  0  0  0  0  0  0  0  0  0  0  0
    3.8501   -7.4476    4.7014 H   0  0  0  0  0  0  0  0  0  0  0  0
    2.9104   -8.0370    3.4061 H   0  0  0  0  0  0  0  0  0  0  0  0
    5.5328   -6.6760    3.3751 H   0  0  0  0  0  0  0  0  0  0  0  0
    4.8281   -7.6731    2.1185 H   0  0  0  0  0  0  0  0  0  0  0  0
    2.6420   -5.3623    0.4384 H   0  0  0  0  0  0  0  0  0  0  0  0
    2.8667   -7.0425    1.0710 H   0  0  0  0  0  0  0  0  0  0  0  0
    3.9614   -6.4078   -0.0256 H   0  0  0  0  0  0  0  0  0  0  0  0
    5.3094   -5.0244    0.2572 H   0  0  0  0  0  0  0  0  0  0  0  0
    6.9751   -4.6775    2.6595 H   0  0  0  0  0  0  0  0  0  0  0  0
    6.9906   -6.0497    1.5984 H   0  0  0  0  0  0  0  0  0  0  0  0
    8.7252   -4.3237    0.9895 H   0  0  0  0  0  0  0  0  0  0  0  0
    7.6610   -4.7815   -0.3233 H   0  0  0  0  0  0  0  0  0  0  0  0
    7.5935   -2.1964    1.2701 H   0  0  0  0  0  0  0  0  0  0  0  0
    9.0455   -2.4376   -0.4813 H   0  0  0  0  0  0  0  0  0  0  0  0
    4.5330   -0.7088   -0.0516 H   0  0  0  0  0  0  0  0  0  0  0  0
    6.1959   -0.4183   -0.5051 H   0  0  0  0  0  0  0  0  0  0  0  0
    5.7767   -0.5764    1.1878 H   0  0  0  0  0  0  0  0  0  0  0  0
    4.3075   -3.0336   -1.3985 H   0  0  0  0  0  0  0  0  0  0  0  0
    5.7921   -3.9680   -1.5248 H   0  0  0  0  0  0  0  0  0  0  0  0
    5.7681   -2.3161   -2.0759 H   0  0  0  0  0  0  0  0  0  0  0  0
    5.4699   -2.7469    2.1459 H   0  0  0  0  0  0  0  0  0  0  0  0
    3.4072   -1.7584    1.5528 H   0  0  0  0  0  0  0  0  0  0  0  0
    2.9442   -3.0743    0.5014 H   0  0  0  0  0  0  0  0  0  0  0  0
    4.9804   -5.0913    4.8298 H   0  0  0  0  0  0  0  0  0  0  0  0
    4.0043   -3.6471    5.0186 H   0  0  0  0  0  0  0  0  0  0  0  0
    5.3131   -3.6780    3.9098 H   0  0  0  0  0  0  0  0  0  0  0  0
  2  1  1  1
  1 28  1  0
  1 29  1  0
  1 30  1  0
  2 26  1  0
  2 27  1  0
  2  3  1  0
  3  4  1  0
  3 31  1  0
  3 32  1  0
  4  5  1  0
  4 25  1  0
  4 33  1  6
  5 23  1  0
  5  6  1  1
  5  7  1  0
  6 34  1  0
  6 35  1  0
  6 36  1  0
  7  8  1  0
  7 37  1  0
  7 38  1  0
  8  9  1  0
  8 39  1  0
  8 40  1  0
  9 23  1  0
  9 10  1  6
  9 11  1  0
 10 41  1  0
 10 42  1  0
 10 43  1  0
 11 19  1  0
 11 12  1  0
 11 44  1  6
 12 13  1  0
 12 45  1  0
 12 46  1  0
 13 14  1  0
 13 47  1  0
 13 48  1  0
 14 15  1  0
 14 16  1  0
 14 49  1  1
 15 50  1  0
 16 17  1  0
 16 18  1  0
 16 19  1  0
 17 51  1  0
 17 52  1  0
 17 53  1  0
 18 54  1  0
 18 55  1  0
 18 56  1  0
 19 20  1  0
 19 57  1  1
 20 21  1  0
 20 58  1  0
 20 59  1  0
 21 22  2  0
 21 23  1  0
 23 24  1  1
 24 60  1  0
 24 61  1  0
 24 62  1  0
 25 26  2  0
 25 27  1  0
M  END
>  <i_m_ct_stereo_status>  (214) 
1

>  <s_m_source_file>  (214) 
/var/tmp/pbs.5076255.sched01/tmpqw5sdpkp/8220gfbieb.sdf

>  <i_m_source_file_index>  (214) 
5

>  <i_lp_mmshare_version>  (214) 
48012

>  <i_f3d_flags>  (214) 
0

>  <s_epik_input>  (214) 
W0NIM11bQ0BdMTJbQ0gyXVtDQEhdKEMoPU4xKU8yKVtDQEBdKFtDSDNdKShbQ0gyXVtDSDJdMylbQ0BdNChbQ0gzXSlDKD1PKVtDSDJdW0NAQEhdKFtDQEBIXTVbQ0BAXTM0W0NIM10pQyhbQ0gzXSkoW0NIM10pW0NASF0oW09IXSlbQ0gyXVtDSDJdNQ==

>  <s_epik_cmdline>  (214) 
J2VwaWtfcHl0aG9uJywgJy1waHQnLCAnMi4wJywgJy1waCcsICc3LjAnLCAnLXRuJywgJzgnLCAnLW1hJywgJzIwMCcsICctaW1hZScsICc8aW5maWxlLm1hZT4nLCAnLW9tYWUnLCAnPG91dGZpbGUubWFlPic=

>  <r_lp_tautomer_probability>  (214) 
1

>  <r_epik_Ionization_Penalty>  (214) 
0.00017567

>  <r_epik_Ionization_Penalty_Charging>  (214) 
0

>  <r_epik_Ionization_Penalty_Neutral>  (214) 
0.00017567

>  <r_epik_State_Penalty>  (214) 
-0

>  <r_epik_Charging_Adjusted_Penalty>  (214) 
0

>  <i_epik_Tot_Q>  (214) 
0

>  <i_epik_Tot_abs_Q>  (214) 
0

>  <s_epik_Chemistry_Notes>  (214) 
This compound has an imine and may undergo hydrolysis.

>  <s_lp_Force_Field>  (214) 
OPLS3e

>  <r_lp_Energy>  (214) 
102.799

>  <b_lp_Chiralities_Consistent>  (214) 
1

>  <s_lp_Variant>  (214) 
62:0-1

>  <s_i_glide_gridfile>  (214) 
pfpi4k_grid

>  <i_i_glide_lignum>  (214) 
5

>  <i_i_glide_rotatable_bonds>  (214) 
2

>  <r_i_docking_score>  (214) 
-3.03697

>  <r_i_glide_ligand_efficiency>  (214) 
-0.11248

>  <r_i_glide_ligand_efficiency_sa>  (214) 
-0.337441

>  <r_i_glide_ligand_efficiency_ln>  (214) 
-0.706957

>  <r_i_glide_gscore>  (214) 
-3.03697

>  <r_i_glide_lipo>  (214) 
-0.61368

>  <r_i_glide_hbond>  (214) 
-0.248458

>  <r_i_glide_metal>  (214) 
-0

>  <r_i_glide_rewards>  (214) 
-0.862303

>  <r_i_glide_evdw>  (214) 
-21.4747

>  <r_i_glide_ecoul>  (214) 
-1.70242

>  <r_i_glide_erotb>  (214) 
0.138515

>  <r_i_glide_esite>  (214) 
-0.121951

>  <r_i_glide_emodel>  (214) 
-23.969

>  <r_i_glide_energy>  (214) 
-23.1771

>  <r_i_glide_einternal>  (214) 
6.04075

>  <r_i_glide_intrahb_reward>  (214) 
-0

>  <i_i_glide_confnum>  (214) 
3

>  <i_i_glide_posenum>  (214) 
10

>  <r_i_glide_eff_state_penalty>  (214) 
0

>  <ligand_id>  (214) 
62

>  <original_smiles>  (214) 
CC12CC(C3(C)CCC4(C)C5CCC(O)C(C)(C)C5CC(=O)C34C)C(=N1)O2

>  <smiles>  (214) 
[H]OC1([H])C([H])([H])C([H])([H])C2([H])C([H])(C([H])([H])C(=O)C3(C([H])([H])[H])C(C([H])([H])[H])(C4([H])C5=NC(C([H])([H])[H])(O5)C4([H])[H])C([H])([H])C([H])([H])C23C([H])([H])[H])C1(C([H])([H])[H])C([H])([H])[H]

$$$$
62:0:2
     RDKit          3D

 62 66  0  0  1  0  0  0  0  0999 V2000
    0.4416  -10.1600    5.8512 C   0  0  0  0  0  0  0  0  0  0  0  0
    1.1504   -9.5381    4.6640 C   0  0  2  0  0  0  0  0  0  0  0  0
    1.8387   -8.2070    4.7563 C   0  0  0  0  0  0  0  0  0  0  0  0
    2.2755   -8.1434    3.2934 C   0  0  1  0  0  0  0  0  0  0  0  0
    3.8195   -7.9451    2.9424 C   0  0  1  0  0  0  0  0  0  0  0  0
    4.6602   -8.7628    3.9722 C   0  0  0  0  0  0  0  0  0  0  0  0
    4.1885   -8.4703    1.5065 C   0  0  0  0  0  0  0  0  0  0  0  0
    4.5688   -7.2709    0.5911 C   0  0  0  0  0  0  0  0  0  0  0  0
    3.9691   -6.0504    1.2963 C   0  0  2  0  0  0  0  0  0  0  0  0
    2.4602   -6.0640    0.8789 C   0  0  0  0  0  0  0  0  0  0  0  0
    4.4824   -4.6097    0.8989 C   0  0  2  0  0  0  0  0  0  0  0  0
    5.7966   -4.4837    0.1174 C   0  0  0  0  0  0  0  0  0  0  0  0
    5.9733   -3.0349   -0.4025 C   0  0  0  0  0  0  0  0  0  0  0  0
    5.7905   -1.9524    0.6891 C   0  0  1  0  0  0  0  0  0  0  0  0
    5.8460   -0.6638    0.0892 O   0  0  0  0  0  0  0  0  0  0  0  0
    4.4966   -2.1122    1.5478 C   0  0  0  0  0  0  0  0  0  0  0  0
    4.5803   -1.1414    2.7480 C   0  0  0  0  0  0  0  0  0  0  0  0
    3.2201   -1.7597    0.7408 C   0  0  0  0  0  0  0  0  0  0  0  0
    4.4828   -3.5839    2.0694 C   0  0  1  0  0  0  0  0  0  0  0  0
    3.4714   -3.9294    3.1951 C   0  0  0  0  0  0  0  0  0  0  0  0
    3.6196   -5.3731    3.7158 C   0  0  0  0  0  0  0  0  0  0  0  0
    3.2795   -5.6349    4.8691 O   0  0  0  0  0  0  0  0  0  0  0  0
    4.2763   -6.4242    2.7969 C   0  0  1  0  0  0  0  0  0  0  0  0
    5.8104   -6.3625    3.1188 C   0  0  0  0  0  0  0  0  0  0  0  0
    1.6084   -9.4655    2.9534 C   0  0  0  0  0  0  0  0  0  0  0  0
    0.4296   -9.5358    3.3295 N   0  0  0  0  0  0  0  0  0  0  0  0
    1.9973  -10.3501    3.9337 O   0  0  0  0  0  0  0  0  0  0  0  0
   -0.3781   -9.5406    6.2195 H   0  0  0  0  0  0  0  0  0  0  0  0
    1.1606  -10.2547    6.6748 H   0  0  0  0  0  0  0  0  0  0  0  0
    0.0730  -11.1595    5.6355 H   0  0  0  0  0  0  0  0  0  0  0  0
    1.1381   -7.4109    4.9963 H   0  0  0  0  0  0  0  0  0  0  0  0
    2.6312   -8.1973    5.4976 H   0  0  0  0  0  0  0  0  0  0  0  0
    1.6591   -7.3593    2.8731 H   0  0  0  0  0  0  0  0  0  0  0  0
    5.7028   -8.8903    3.6812 H   0  0  0  0  0  0  0  0  0  0  0  0
    4.2960   -9.7809    4.0915 H   0  0  0  0  0  0  0  0  0  0  0  0
    4.6732   -8.3023    4.9591 H   0  0  0  0  0  0  0  0  0  0  0  0
    5.0460   -9.1469    1.5344 H   0  0  0  0  0  0  0  0  0  0  0  0
    3.3848   -9.0603    1.0674 H   0  0  0  0  0  0  0  0  0  0  0  0
    5.6530   -7.1808    0.5310 H   0  0  0  0  0  0  0  0  0  0  0  0
    4.2121   -7.3939   -0.4316 H   0  0  0  0  0  0  0  0  0  0  0  0
    1.8338   -5.4271    1.5000 H   0  0  0  0  0  0  0  0  0  0  0  0
    2.0260   -7.0620    0.8670 H   0  0  0  0  0  0  0  0  0  0  0  0
    2.3244   -5.7362   -0.1546 H   0  0  0  0  0  0  0  0  0  0  0  0
    3.7548   -4.2494    0.1757 H   0  0  0  0  0  0  0  0  0  0  0  0
    6.6456   -4.7663    0.7384 H   0  0  0  0  0  0  0  0  0  0  0  0
    5.7779   -5.1638   -0.7285 H   0  0  0  0  0  0  0  0  0  0  0  0
    6.9685   -2.9445   -0.8404 H   0  0  0  0  0  0  0  0  0  0  0  0
    5.2703   -2.8677   -1.2178 H   0  0  0  0  0  0  0  0  0  0  0  0
    6.6521   -2.0251    1.3527 H   0  0  0  0  0  0  0  0  0  0  0  0
    5.0118   -0.4679   -0.2803 H   0  0  0  0  0  0  0  0  0  0  0  0
    3.6765   -1.1713    3.3557 H   0  0  0  0  0  0  0  0  0  0  0  0
    4.7086   -0.1088    2.4203 H   0  0  0  0  0  0  0  0  0  0  0  0
    5.4270   -1.3856    3.3930 H   0  0  0  0  0  0  0  0  0  0  0  0
    2.3161   -2.1069    1.2411 H   0  0  0  0  0  0  0  0  0  0  0  0
    3.2231   -2.1995   -0.2599 H   0  0  0  0  0  0  0  0  0  0  0  0
    3.1126   -0.6837    0.5993 H   0  0  0  0  0  0  0  0  0  0  0  0
    5.4432   -3.6455    2.5712 H   0  0  0  0  0  0  0  0  0  0  0  0
    3.6563   -3.2866    4.0551 H   0  0  0  0  0  0  0  0  0  0  0  0
    2.4423   -3.7553    2.8866 H   0  0  0  0  0  0  0  0  0  0  0  0
    6.3996   -7.1098    2.5923 H   0  0  0  0  0  0  0  0  0  0  0  0
    5.9910   -6.5193    4.1848 H   0  0  0  0  0  0  0  0  0  0  0  0
    6.3025   -5.4225    2.9011 H   0  0  0  0  0  0  0  0  0  0  0  0
  2  1  1  1
  1 28  1  0
  1 29  1  0
  1 30  1  0
  2 26  1  0
  2 27  1  0
  2  3  1  0
  3  4  1  0
  3 31  1  0
  3 32  1  0
  4  5  1  0
  4 25  1  0
  4 33  1  6
  5 23  1  0
  5  6  1  1
  5  7  1  0
  6 34  1  0
  6 35  1  0
  6 36  1  0
  7  8  1  0
  7 37  1  0
  7 38  1  0
  8  9  1  0
  8 39  1  0
  8 40  1  0
  9 23  1  0
  9 10  1  1
  9 11  1  0
 10 41  1  0
 10 42  1  0
 10 43  1  0
 11 19  1  0
 11 12  1  0
 11 44  1  6
 12 13  1  0
 12 45  1  0
 12 46  1  0
 13 14  1  0
 13 47  1  0
 13 48  1  0
 14 15  1  0
 14 16  1  0
 14 49  1  1
 15 50  1  0
 16 17  1  0
 16 18  1  0
 16 19  1  0
 17 51  1  0
 17 52  1  0
 17 53  1  0
 18 54  1  0
 18 55  1  0
 18 56  1  0
 19 20  1  0
 19 57  1  1
 20 21  1  0
 20 58  1  0
 20 59  1  0
 21 22  2  0
 21 23  1  0
 23 24  1  6
 24 60  1  0
 24 61  1  0
 24 62  1  0
 25 26  2  0
 25 27  1  0
M  END
>  <i_m_ct_stereo_status>  (215) 
1

>  <s_m_source_file>  (215) 
/var/tmp/pbs.5076255.sched01/tmpqw5sdpkp/8220gfbieb.sdf

>  <i_m_source_file_index>  (215) 
5

>  <i_lp_mmshare_version>  (215) 
48012

>  <i_f3d_flags>  (215) 
0

>  <s_epik_input>  (215) 
W0NIM11bQ0BdMTJbQ0gyXVtDQEhdKEMoPU4xKU8yKVtDQEBdKFtDSDNdKShbQ0gyXVtDSDJdMylbQ0BdNChbQ0gzXSlDKD1PKVtDSDJdW0NAQEhdKFtDQEBIXTVbQ0BAXTM0W0NIM10pQyhbQ0gzXSkoW0NIM10pW0NASF0oW09IXSlbQ0gyXVtDSDJdNQ==

>  <s_epik_cmdline>  (215) 
J2VwaWtfcHl0aG9uJywgJy1waHQnLCAnMi4wJywgJy1waCcsICc3LjAnLCAnLXRuJywgJzgnLCAnLW1hJywgJzIwMCcsICctaW1hZScsICc8aW5maWxlLm1hZT4nLCAnLW9tYWUnLCAnPG91dGZpbGUubWFlPic=

>  <r_lp_tautomer_probability>  (215) 
1

>  <r_epik_Ionization_Penalty>  (215) 
0.00017567

>  <r_epik_Ionization_Penalty_Charging>  (215) 
0

>  <r_epik_Ionization_Penalty_Neutral>  (215) 
0.00017567

>  <r_epik_State_Penalty>  (215) 
-0

>  <r_epik_Charging_Adjusted_Penalty>  (215) 
0

>  <i_epik_Tot_Q>  (215) 
0

>  <i_epik_Tot_abs_Q>  (215) 
0

>  <s_epik_Chemistry_Notes>  (215) 
This compound has an imine and may undergo hydrolysis.

>  <s_lp_Force_Field>  (215) 
OPLS3e

>  <r_lp_Energy>  (215) 
102.799

>  <b_lp_Chiralities_Consistent>  (215) 
1

>  <s_lp_Variant>  (215) 
62:0-1

>  <s_i_glide_gridfile>  (215) 
pfpi4k_grid

>  <i_i_glide_lignum>  (215) 
5

>  <i_i_glide_rotatable_bonds>  (215) 
2

>  <r_i_docking_score>  (215) 
-2.41723

>  <r_i_glide_ligand_efficiency>  (215) 
-0.0895271

>  <r_i_glide_ligand_efficiency_sa>  (215) 
-0.268581

>  <r_i_glide_ligand_efficiency_ln>  (215) 
-0.562692

>  <r_i_glide_gscore>  (215) 
-2.41723

>  <r_i_glide_lipo>  (215) 
-0.492568

>  <r_i_glide_hbond>  (215) 
0

>  <r_i_glide_metal>  (215) 
-0

>  <r_i_glide_rewards>  (215) 
-0.894199

>  <r_i_glide_evdw>  (215) 
-20.6037

>  <r_i_glide_ecoul>  (215) 
-0.729144

>  <r_i_glide_erotb>  (215) 
0.138515

>  <r_i_glide_esite>  (215) 
-0.0294233

>  <r_i_glide_emodel>  (215) 
-24.5856

>  <r_i_glide_energy>  (215) 
-21.3329

>  <r_i_glide_einternal>  (215) 
0.425204

>  <r_i_glide_intrahb_reward>  (215) 
-0

>  <i_i_glide_confnum>  (215) 
3

>  <i_i_glide_posenum>  (215) 
20

>  <r_i_glide_eff_state_penalty>  (215) 
0

>  <ligand_id>  (215) 
62

>  <original_smiles>  (215) 
CC12CC(C3(C)CCC4(C)C5CCC(O)C(C)(C)C5CC(=O)C34C)C(=N1)O2

>  <smiles>  (215) 
[H]OC1([H])C([H])([H])C([H])([H])C2([H])C([H])(C([H])([H])C(=O)C3(C([H])([H])[H])C(C([H])([H])[H])(C4([H])C5=NC(C([H])([H])[H])(O5)C4([H])[H])C([H])([H])C([H])([H])C23C([H])([H])[H])C1(C([H])([H])[H])C([H])([H])[H]

$$$$
64:0:0
     RDKit          3D

 20 21  0  0  1  0  0  0  0  0999 V2000
    5.2899   -8.4741    1.8453 C   0  0  0  0  0  0  0  0  0  0  0  0
    4.0269   -8.6182    0.9837 C   0  0  0  0  0  0  0  0  0  0  0  0
    2.8134   -9.0569    1.7898 C   0  0  0  0  0  0  0  0  0  0  0  0
    2.8456  -10.2483    2.4821 C   0  0  0  0  0  0  0  0  0  0  0  0
    1.7318  -10.6796    3.2452 C   0  0  0  0  0  0  0  0  0  0  0  0
    0.5902   -9.9155    3.2906 C   0  0  0  0  0  0  0  0  0  0  0  0
    0.5595   -8.7437    2.5911 N   0  0  0  0  0  0  0  0  0  0  0  0
   -0.4106   -7.8068    2.4534 C   0  0  0  0  0  0  0  0  0  0  0  0
   -2.1148   -7.8672    3.2830 Br  0  0  0  0  0  0  0  0  0  0  0  0
   -0.0175   -6.7966    1.6812 N   0  0  0  0  0  0  0  0  0  0  0  0
    1.2797   -7.0799    1.2821 N   0  0  0  0  0  0  0  0  0  0  0  0
    1.6347   -8.2551    1.8268 C   0  0  0  0  0  0  0  0  0  0  0  0
    6.1406   -8.1559    1.2422 H   0  0  0  0  0  0  0  0  0  0  0  0
    5.5624   -9.4185    2.3169 H   0  0  0  0  0  0  0  0  0  0  0  0
    5.1420   -7.7362    2.6343 H   0  0  0  0  0  0  0  0  0  0  0  0
    3.8235   -7.6681    0.4868 H   0  0  0  0  0  0  0  0  0  0  0  0
    4.1975   -9.3513    0.1932 H   0  0  0  0  0  0  0  0  0  0  0  0
    3.7314  -10.8747    2.4338 H   0  0  0  0  0  0  0  0  0  0  0  0
    1.7697  -11.6215    3.7852 H   0  0  0  0  0  0  0  0  0  0  0  0
   -0.2962  -10.1990    3.8520 H   0  0  0  0  0  0  0  0  0  0  0  0
  1  2  1  0
  1 13  1  0
  1 14  1  0
  1 15  1  0
  2  3  1  0
  2 16  1  0
  2 17  1  0
  3 12  1  0
  3  4  2  0
  4  5  1  0
  4 18  1  0
  5  6  2  0
  5 19  1  0
  6  7  1  0
  6 20  1  0
  7 12  1  0
  7  8  1  0
  8  9  1  0
  8 10  2  0
 10 11  1  0
 11 12  2  0
M  END
>  <i_m_ct_stereo_status>  (216) 
1

>  <s_m_source_file>  (216) 
/var/tmp/pbs.5076255.sched01/tmpqw5sdpkp/8220gfbieb.sdf

>  <i_m_source_file_index>  (216) 
8

>  <i_lp_mmshare_version>  (216) 
48012

>  <i_f3d_flags>  (216) 
0

>  <s_epik_input>  (216) 
W2NIXTFbY0hdW2NIXWMoW0NIMl1bQ0gzXSljKG4xMilubmMyQnI=

>  <s_epik_cmdline>  (216) 
J2VwaWtfcHl0aG9uJywgJy1waHQnLCAnMi4wJywgJy1waCcsICc3LjAnLCAnLXRuJywgJzgnLCAnLW1hJywgJzIwMCcsICctaW1hZScsICc8aW5maWxlLm1hZT4nLCAnLW9tYWUnLCAnPG91dGZpbGUubWFlPic=

>  <r_lp_tautomer_probability>  (216) 
1

>  <r_epik_Ionization_Penalty>  (216) 
3.31167e-07

>  <r_epik_Ionization_Penalty_Charging>  (216) 
0

>  <r_epik_Ionization_Penalty_Neutral>  (216) 
3.31167e-07

>  <r_epik_State_Penalty>  (216) 
-0

>  <r_epik_Charging_Adjusted_Penalty>  (216) 
0

>  <i_epik_Tot_Q>  (216) 
0

>  <i_epik_Tot_abs_Q>  (216) 
0

>  <s_lp_Force_Field>  (216) 
OPLS3e

>  <r_lp_Energy>  (216) 
12.8128

>  <b_lp_Chiralities_Consistent>  (216) 
1

>  <s_lp_Variant>  (216) 
64:0-1

>  <s_i_glide_gridfile>  (216) 
pfpi4k_grid

>  <i_i_glide_lignum>  (216) 
8

>  <i_i_glide_rotatable_bonds>  (216) 
1

>  <r_i_docking_score>  (216) 
-3.96385

>  <r_i_glide_ligand_efficiency>  (216) 
-0.33032

>  <r_i_glide_ligand_efficiency_sa>  (216) 
-0.756245

>  <r_i_glide_ligand_efficiency_ln>  (216) 
-1.13743

>  <r_i_glide_gscore>  (216) 
-3.96385

>  <r_i_glide_lipo>  (216) 
-0.138318

>  <r_i_glide_hbond>  (216) 
0

>  <r_i_glide_metal>  (216) 
-0

>  <r_i_glide_rewards>  (216) 
-1.86768

>  <r_i_glide_evdw>  (216) 
-20.1888

>  <r_i_glide_ecoul>  (216) 
-4.5001

>  <r_i_glide_erotb>  (216) 
0

>  <r_i_glide_esite>  (216) 
-0.273391

>  <r_i_glide_emodel>  (216) 
-31.6462

>  <r_i_glide_energy>  (216) 
-24.6889

>  <r_i_glide_einternal>  (216) 
0.363511

>  <r_i_glide_intrahb_reward>  (216) 
-0

>  <i_i_glide_confnum>  (216) 
2

>  <i_i_glide_posenum>  (216) 
23

>  <r_i_glide_eff_state_penalty>  (216) 
0

>  <ligand_id>  (216) 
64

>  <original_smiles>  (216) 
CCc1cccn2c(Br)nnc12

>  <smiles>  (216) 
[H]c1c([H])c([H])n2c(Br)nnc2c1C([H])([H])C([H])([H])[H]

$$$$
64:0:1
     RDKit          3D

 20 21  0  0  1  0  0  0  0  0999 V2000
    3.5739    0.4292   -4.1131 C   0  0  0  0  0  0  0  0  0  0  0  0
    3.9539   -1.0439   -4.2687 C   0  0  0  0  0  0  0  0  0  0  0  0
    3.6374   -1.8820   -3.0448 C   0  0  0  0  0  0  0  0  0  0  0  0
    2.5005   -2.6628   -3.0319 C   0  0  0  0  0  0  0  0  0  0  0  0
    2.1849   -3.4479   -1.8984 C   0  0  0  0  0  0  0  0  0  0  0  0
    3.0045   -3.4558   -0.7908 C   0  0  0  0  0  0  0  0  0  0  0  0
    4.1245   -2.6858   -0.8171 N   0  0  0  0  0  0  0  0  0  0  0  0
    5.1089   -2.5021    0.1011 C   0  0  0  0  0  0  0  0  0  0  0  0
    5.1869   -3.3390    1.8100 Br  0  0  0  0  0  0  0  0  0  0  0  0
    6.0372   -1.6607   -0.3425 N   0  0  0  0  0  0  0  0  0  0  0  0
    5.6482   -1.2700   -1.6139 N   0  0  0  0  0  0  0  0  0  0  0  0
    4.4945   -1.8837   -1.9091 C   0  0  0  0  0  0  0  0  0  0  0  0
    3.7953    0.9927   -5.0182 H   0  0  0  0  0  0  0  0  0  0  0  0
    4.1168    0.8918   -3.2897 H   0  0  0  0  0  0  0  0  0  0  0  0
    2.5062    0.5341   -3.9242 H   0  0  0  0  0  0  0  0  0  0  0  0
    3.4138   -1.4516   -5.1209 H   0  0  0  0  0  0  0  0  0  0  0  0
    5.0146   -1.1219   -4.4989 H   0  0  0  0  0  0  0  0  0  0  0  0
    1.8300   -2.6683   -3.8874 H   0  0  0  0  0  0  0  0  0  0  0  0
    1.2863   -4.0611   -1.9068 H   0  0  0  0  0  0  0  0  0  0  0  0
    2.8227   -4.0484    0.0982 H   0  0  0  0  0  0  0  0  0  0  0  0
  1  2  1  0
  1 13  1  0
  1 14  1  0
  1 15  1  0
  2  3  1  0
  2 16  1  0
  2 17  1  0
  3 12  1  0
  3  4  2  0
  4  5  1  0
  4 18  1  0
  5  6  2  0
  5 19  1  0
  6  7  1  0
  6 20  1  0
  7 12  1  0
  7  8  1  0
  8  9  1  0
  8 10  2  0
 10 11  1  0
 11 12  2  0
M  END
>  <i_m_ct_stereo_status>  (217) 
1

>  <s_m_source_file>  (217) 
/var/tmp/pbs.5076255.sched01/tmpqw5sdpkp/8220gfbieb.sdf

>  <i_m_source_file_index>  (217) 
8

>  <i_lp_mmshare_version>  (217) 
48012

>  <i_f3d_flags>  (217) 
0

>  <s_epik_input>  (217) 
W2NIXTFbY0hdW2NIXWMoW0NIMl1bQ0gzXSljKG4xMilubmMyQnI=

>  <s_epik_cmdline>  (217) 
J2VwaWtfcHl0aG9uJywgJy1waHQnLCAnMi4wJywgJy1waCcsICc3LjAnLCAnLXRuJywgJzgnLCAnLW1hJywgJzIwMCcsICctaW1hZScsICc8aW5maWxlLm1hZT4nLCAnLW9tYWUnLCAnPG91dGZpbGUubWFlPic=

>  <r_lp_tautomer_probability>  (217) 
1

>  <r_epik_Ionization_Penalty>  (217) 
3.31167e-07

>  <r_epik_Ionization_Penalty_Charging>  (217) 
0

>  <r_epik_Ionization_Penalty_Neutral>  (217) 
3.31167e-07

>  <r_epik_State_Penalty>  (217) 
-0

>  <r_epik_Charging_Adjusted_Penalty>  (217) 
0

>  <i_epik_Tot_Q>  (217) 
0

>  <i_epik_Tot_abs_Q>  (217) 
0

>  <s_lp_Force_Field>  (217) 
OPLS3e

>  <r_lp_Energy>  (217) 
12.8128

>  <b_lp_Chiralities_Consistent>  (217) 
1

>  <s_lp_Variant>  (217) 
64:0-1

>  <s_i_glide_gridfile>  (217) 
pfpi4k_grid

>  <i_i_glide_lignum>  (217) 
8

>  <i_i_glide_rotatable_bonds>  (217) 
1

>  <r_i_docking_score>  (217) 
-3.6837

>  <r_i_glide_ligand_efficiency>  (217) 
-0.306975

>  <r_i_glide_ligand_efficiency_sa>  (217) 
-0.702798

>  <r_i_glide_ligand_efficiency_ln>  (217) 
-1.05704

>  <r_i_glide_gscore>  (217) 
-3.6837

>  <r_i_glide_lipo>  (217) 
-0.395427

>  <r_i_glide_hbond>  (217) 
0

>  <r_i_glide_metal>  (217) 
-0

>  <r_i_glide_rewards>  (217) 
-1.88198

>  <r_i_glide_evdw>  (217) 
-18.7761

>  <r_i_glide_ecoul>  (217) 
-2.14272

>  <r_i_glide_erotb>  (217) 
0

>  <r_i_glide_esite>  (217) 
-0.146085

>  <r_i_glide_emodel>  (217) 
-27.5435

>  <r_i_glide_energy>  (217) 
-20.9188

>  <r_i_glide_einternal>  (217) 
0.0402027

>  <r_i_glide_intrahb_reward>  (217) 
-0

>  <i_i_glide_confnum>  (217) 
2

>  <i_i_glide_posenum>  (217) 
3

>  <r_i_glide_eff_state_penalty>  (217) 
0

>  <ligand_id>  (217) 
64

>  <original_smiles>  (217) 
CCc1cccn2c(Br)nnc12

>  <smiles>  (217) 
[H]c1c([H])c([H])n2c(Br)nnc2c1C([H])([H])C([H])([H])[H]

$$$$
64:0:2
     RDKit          3D

 20 21  0  0  1  0  0  0  0  0999 V2000
   -2.2545    3.1785    6.0075 C   0  0  0  0  0  0  0  0  0  0  0  0
   -2.3817    2.8930    4.5030 C   0  0  0  0  0  0  0  0  0  0  0  0
   -1.3646    1.8821    3.9966 C   0  0  0  0  0  0  0  0  0  0  0  0
   -0.5372    2.2198    2.9443 C   0  0  0  0  0  0  0  0  0  0  0  0
    0.4141    1.2969    2.4451 C   0  0  0  0  0  0  0  0  0  0  0  0
    0.5331    0.0514    3.0079 C   0  0  0  0  0  0  0  0  0  0  0  0
   -0.2919   -0.2802    4.0423 N   0  0  0  0  0  0  0  0  0  0  0  0
   -0.4044   -1.4246    4.7617 C   0  0  0  0  0  0  0  0  0  0  0  0
    0.6478   -2.9859    4.4912 Br  0  0  0  0  0  0  0  0  0  0  0  0
   -1.3723   -1.3394    5.6705 N   0  0  0  0  0  0  0  0  0  0  0  0
   -1.9135   -0.0686    5.5611 N   0  0  0  0  0  0  0  0  0  0  0  0
   -1.2691    0.5790    4.5759 C   0  0  0  0  0  0  0  0  0  0  0  0
   -2.9916    3.9108    6.3262 H   0  0  0  0  0  0  0  0  0  0  0  0
   -1.2631    3.5639    6.2514 H   0  0  0  0  0  0  0  0  0  0  0  0
   -2.4278    2.2904    6.6131 H   0  0  0  0  0  0  0  0  0  0  0  0
   -3.3824    2.5426    4.2560 H   0  0  0  0  0  0  0  0  0  0  0  0
   -2.2613    3.8300    3.9570 H   0  0  0  0  0  0  0  0  0  0  0  0
   -0.6136    3.2037    2.4853 H   0  0  0  0  0  0  0  0  0  0  0  0
    1.0496    1.5711    1.6055 H   0  0  0  0  0  0  0  0  0  0  0  0
    1.2372   -0.6989    2.6559 H   0  0  0  0  0  0  0  0  0  0  0  0
  1  2  1  0
  1 13  1  0
  1 14  1  0
  1 15  1  0
  2  3  1  0
  2 16  1  0
  2 17  1  0
  3 12  1  0
  3  4  2  0
  4  5  1  0
  4 18  1  0
  5  6  2  0
  5 19  1  0
  6  7  1  0
  6 20  1  0
  7 12  1  0
  7  8  1  0
  8  9  1  0
  8 10  2  0
 10 11  1  0
 11 12  2  0
M  END
>  <i_m_ct_stereo_status>  (218) 
1

>  <s_m_source_file>  (218) 
/var/tmp/pbs.5076255.sched01/tmpqw5sdpkp/8220gfbieb.sdf

>  <i_m_source_file_index>  (218) 
8

>  <i_lp_mmshare_version>  (218) 
48012

>  <i_f3d_flags>  (218) 
0

>  <s_epik_input>  (218) 
W2NIXTFbY0hdW2NIXWMoW0NIMl1bQ0gzXSljKG4xMilubmMyQnI=

>  <s_epik_cmdline>  (218) 
J2VwaWtfcHl0aG9uJywgJy1waHQnLCAnMi4wJywgJy1waCcsICc3LjAnLCAnLXRuJywgJzgnLCAnLW1hJywgJzIwMCcsICctaW1hZScsICc8aW5maWxlLm1hZT4nLCAnLW9tYWUnLCAnPG91dGZpbGUubWFlPic=

>  <r_lp_tautomer_probability>  (218) 
1

>  <r_epik_Ionization_Penalty>  (218) 
3.31167e-07

>  <r_epik_Ionization_Penalty_Charging>  (218) 
0

>  <r_epik_Ionization_Penalty_Neutral>  (218) 
3.31167e-07

>  <r_epik_State_Penalty>  (218) 
-0

>  <r_epik_Charging_Adjusted_Penalty>  (218) 
0

>  <i_epik_Tot_Q>  (218) 
0

>  <i_epik_Tot_abs_Q>  (218) 
0

>  <s_lp_Force_Field>  (218) 
OPLS3e

>  <r_lp_Energy>  (218) 
12.8128

>  <b_lp_Chiralities_Consistent>  (218) 
1

>  <s_lp_Variant>  (218) 
64:0-1

>  <s_i_glide_gridfile>  (218) 
pfpi4k_grid

>  <i_i_glide_lignum>  (218) 
8

>  <i_i_glide_rotatable_bonds>  (218) 
1

>  <r_i_docking_score>  (218) 
-3.59901

>  <r_i_glide_ligand_efficiency>  (218) 
-0.299917

>  <r_i_glide_ligand_efficiency_sa>  (218) 
-0.686639

>  <r_i_glide_ligand_efficiency_ln>  (218) 
-1.03274

>  <r_i_glide_gscore>  (218) 
-3.59901

>  <r_i_glide_lipo>  (218) 
-0.0811572

>  <r_i_glide_hbond>  (218) 
0

>  <r_i_glide_metal>  (218) 
-0

>  <r_i_glide_rewards>  (218) 
-1.86768

>  <r_i_glide_evdw>  (218) 
-16.2652

>  <r_i_glide_ecoul>  (218) 
-4.25442

>  <r_i_glide_erotb>  (218) 
0

>  <r_i_glide_esite>  (218) 
-0.198745

>  <r_i_glide_emodel>  (218) 
-26.6491

>  <r_i_glide_energy>  (218) 
-20.5196

>  <r_i_glide_einternal>  (218) 
0.59525

>  <r_i_glide_intrahb_reward>  (218) 
-0

>  <i_i_glide_confnum>  (218) 
1

>  <i_i_glide_posenum>  (218) 
18

>  <r_i_glide_eff_state_penalty>  (218) 
0

>  <ligand_id>  (218) 
64

>  <original_smiles>  (218) 
CCc1cccn2c(Br)nnc12

>  <smiles>  (218) 
[H]c1c([H])c([H])n2c(Br)nnc2c1C([H])([H])C([H])([H])[H]

$$$$
66:0:0
     RDKit          3D

 85 92  0  0  1  0  0  0  0  0999 V2000
   -0.1825   -1.1702    6.5141 C   0  0  0  0  0  0  0  0  0  0  0  0
    1.0166   -0.2377    6.2303 C   0  0  0  0  0  0  0  0  0  0  0  0
    1.3836    0.5152    7.5293 C   0  0  0  0  0  0  0  0  0  0  0  0
    2.0316   -1.2165    6.0566 O   0  0  0  0  0  0  0  0  0  0  0  0
    3.1468   -0.9986    5.2283 C   0  0  2  0  0  0  0  0  0  0  0  0
    3.7792    0.2478    5.3476 O   0  0  0  0  0  0  0  0  0  0  0  0
    3.1230    1.4743    5.0254 C   0  0  0  0  0  0  0  0  0  0  0  0
    1.8117    1.4016    4.2259 C   0  0  2  0  0  0  0  0  0  0  0  0
    1.2141    2.8281    4.1535 C   0  0  0  0  0  0  0  0  0  0  0  0
    0.2484    2.9000    5.1928 O   0  0  0  0  0  0  0  0  0  0  0  0
   -0.4036    1.6738    5.2377 C   0  0  1  0  0  0  0  0  0  0  0  0
   -1.4629    1.6066    4.2990 O   0  0  0  0  0  0  0  0  0  0  0  0
    0.6934    0.6074    4.9442 C   0  0  2  0  0  0  0  0  0  0  0  0
    2.0733    0.8702    2.7841 C   0  0  0  0  0  0  0  0  0  0  0  0
    3.1172   -0.2280    2.7751 C   0  0  0  0  0  0  0  0  0  0  0  0
    4.1284   -0.2921    1.8987 C   0  0  0  0  0  0  0  0  0  0  0  0
    3.8187   -0.4321    0.4989 C   0  0  0  0  0  0  0  0  0  0  0  0
    4.4641   -1.3581   -0.2431 C   0  0  0  0  0  0  0  0  0  0  0  0
    3.7206   -2.1803   -1.2709 C   0  0  0  0  0  0  0  0  0  0  0  0
    3.9271   -3.7141   -1.0902 C   0  0  1  0  0  0  0  0  0  0  0  0
    4.8254   -4.0623   -2.1261 O   0  0  0  0  0  0  0  0  0  0  0  0
    4.3751   -4.2911    0.3354 C   0  0  1  0  0  0  0  0  0  0  0  0
    5.0497   -5.6623    0.0815 C   0  0  0  0  0  0  0  0  0  0  0  0
    5.5308   -3.3508    0.8744 C   0  0  2  0  0  0  0  0  0  0  0  0
    5.7379   -3.2317    2.3900 C   0  0  0  0  0  0  0  0  0  0  0  0
    4.6781   -3.4096    3.4809 C   0  0  2  0  0  0  0  0  0  0  0  0
    4.5931   -4.9123    3.8526 C   0  0  1  0  0  0  0  0  0  0  0  0
    5.0642   -5.1152    5.1656 O   0  0  0  0  0  0  0  0  0  0  0  0
    3.1198   -5.2565    3.7612 C   0  0  1  0  0  0  0  0  0  0  0  0
    2.4912   -3.9219    4.2069 C   0  0  0  0  0  0  0  0  0  0  0  0
    3.2110   -2.8811    3.3232 C   0  0  2  0  0  0  0  0  0  0  0  0
    2.6133   -3.1825    1.9235 C   0  0  0  0  0  0  0  0  0  0  0  0
    3.0630   -4.4911    1.2566 C   0  0  2  0  0  0  0  0  0  0  0  0
    2.7425   -5.6708    2.3044 C   0  0  0  0  0  0  0  0  0  0  0  0
    3.2756   -7.0941    2.0002 C   0  0  0  0  0  0  0  0  0  0  0  0
    1.2147   -5.9415    2.2995 C   0  0  0  0  0  0  0  0  0  0  0  0
    2.8331   -1.3837    3.7469 C   0  0  1  0  0  0  0  0  0  0  0  0
    5.7706   -1.9882    0.1478 C   0  0  1  0  0  0  0  0  0  0  0  0
    6.5910   -2.1525   -0.9992 O   0  0  0  0  0  0  0  0  0  0  0  0
   -1.0769   -0.6006    6.7638 H   0  0  0  0  0  0  0  0  0  0  0  0
    0.0290   -1.8483    7.3470 H   0  0  0  0  0  0  0  0  0  0  0  0
   -0.4214   -1.7992    5.6461 H   0  0  0  0  0  0  0  0  0  0  0  0
    0.7959    1.4133    7.6902 H   0  0  0  0  0  0  0  0  0  0  0  0
    2.4349    0.7825    7.5719 H   0  0  0  0  0  0  0  0  0  0  0  0
    1.2232   -0.1232    8.3978 H   0  0  0  0  0  0  0  0  0  0  0  0
    3.8936   -1.6791    5.6429 H   0  0  0  0  0  0  0  0  0  0  0  0
    2.9664    2.0402    5.9364 H   0  0  0  0  0  0  0  0  0  0  0  0
    3.8383    2.0716    4.4674 H   0  0  0  0  0  0  0  0  0  0  0  0
    1.9619    3.6201    4.2772 H   0  0  0  0  0  0  0  0  0  0  0  0
    0.7240    3.0005    3.1901 H   0  0  0  0  0  0  0  0  0  0  0  0
   -0.8723    1.5928    6.2251 H   0  0  0  0  0  0  0  0  0  0  0  0
   -1.0916    1.6384    3.4296 H   0  0  0  0  0  0  0  0  0  0  0  0
    0.2206   -0.0698    4.2295 H   0  0  0  0  0  0  0  0  0  0  0  0
    1.1577    0.5400    2.2935 H   0  0  0  0  0  0  0  0  0  0  0  0
    2.4575    1.6817    2.1737 H   0  0  0  0  0  0  0  0  0  0  0  0
    4.8587   -0.9791    2.2316 H   0  0  0  0  0  0  0  0  0  0  0  0
    2.8134   -0.1870    0.1954 H   0  0  0  0  0  0  0  0  0  0  0  0
    2.6528   -1.9868   -1.1571 H   0  0  0  0  0  0  0  0  0  0  0  0
    3.9717   -1.8545   -2.2823 H   0  0  0  0  0  0  0  0  0  0  0  0
    2.9881   -4.1805   -1.3921 H   0  0  0  0  0  0  0  0  0  0  0  0
    4.4657   -4.8570   -2.5059 H   0  0  0  0  0  0  0  0  0  0  0  0
    5.5352   -6.0644    0.9659 H   0  0  0  0  0  0  0  0  0  0  0  0
    5.8776   -5.5680   -0.6104 H   0  0  0  0  0  0  0  0  0  0  0  0
    4.3924   -6.4034   -0.3704 H   0  0  0  0  0  0  0  0  0  0  0  0
    6.4594   -3.8531    0.6013 H   0  0  0  0  0  0  0  0  0  0  0  0
    6.4372   -4.0379    2.5823 H   0  0  0  0  0  0  0  0  0  0  0  0
    6.3029   -2.3374    2.6164 H   0  0  0  0  0  0  0  0  0  0  0  0
    5.0995   -2.9225    4.3609 H   0  0  0  0  0  0  0  0  0  0  0  0
    5.1927   -5.5572    3.2101 H   0  0  0  0  0  0  0  0  0  0  0  0
    5.0812   -6.0510    5.3318 H   0  0  0  0  0  0  0  0  0  0  0  0
    2.8614   -6.0591    4.4603 H   0  0  0  0  0  0  0  0  0  0  0  0
    1.4060   -3.8835    4.1342 H   0  0  0  0  0  0  0  0  0  0  0  0
    2.7232   -3.7485    5.2580 H   0  0  0  0  0  0  0  0  0  0  0  0
    1.5343   -3.1796    2.0446 H   0  0  0  0  0  0  0  0  0  0  0  0
    2.7150   -2.3957    1.2173 H   0  0  0  0  0  0  0  0  0  0  0  0
    2.3061   -4.7030    0.5089 H   0  0  0  0  0  0  0  0  0  0  0  0
    3.0454   -7.4008    0.9829 H   0  0  0  0  0  0  0  0  0  0  0  0
    2.8077   -7.8393    2.6508 H   0  0  0  0  0  0  0  0  0  0  0  0
    4.3393   -7.2272    2.1739 H   0  0  0  0  0  0  0  0  0  0  0  0
    0.8821   -6.3317    1.3362 H   0  0  0  0  0  0  0  0  0  0  0  0
    0.6219   -5.0585    2.5072 H   0  0  0  0  0  0  0  0  0  0  0  0
    0.9231   -6.6746    3.0570 H   0  0  0  0  0  0  0  0  0  0  0  0
    1.7485   -1.4462    3.7043 H   0  0  0  0  0  0  0  0  0  0  0  0
    6.3340   -1.2907    0.7612 H   0  0  0  0  0  0  0  0  0  0  0  0
    6.1690   -2.8167   -1.5426 H   0  0  0  0  0  0  0  0  0  0  0  0
  1  2  1  0
  1 40  1  0
  1 41  1  0
  1 42  1  0
  2 13  1  0
  2  3  1  0
  2  4  1  0
  3 43  1  0
  3 44  1  0
  3 45  1  0
  4  5  1  0
  5 37  1  0
  5  6  1  0
  5 46  1  1
  6  7  1  0
  7  8  1  0
  7 47  1  0
  7 48  1  0
  8 13  1  0
  8  9  1  6
  8 14  1  0
  9 10  1  0
  9 49  1  0
  9 50  1  0
 10 11  1  0
 11 12  1  0
 11 13  1  0
 11 51  1  1
 12 52  1  0
 13 53  1  6
 14 15  1  0
 14 54  1  0
 14 55  1  0
 15 37  1  0
 15 16  2  3
 16 17  1  0
 16 56  1  0
 17 18  2  3
 17 57  1  0
 18 38  1  0
 18 19  1  0
 19 20  1  0
 19 58  1  0
 19 59  1  0
 20 21  1  0
 20 22  1  0
 20 60  1  6
 21 61  1  0
 22 33  1  0
 22 23  1  6
 22 24  1  0
 23 62  1  0
 23 63  1  0
 23 64  1  0
 24 25  1  0
 24 38  1  0
 24 65  1  6
 25 26  1  0
 25 66  1  0
 25 67  1  0
 26 31  1  0
 26 27  1  0
 26 68  1  1
 27 28  1  0
 27 29  1  0
 27 69  1  6
 28 70  1  0
 29 34  1  0
 29 30  1  0
 29 71  1  1
 31 30  1  1
 30 72  1  0
 30 73  1  0
 31 32  1  0
 31 37  1  0
 32 33  1  0
 32 74  1  0
 32 75  1  0
 33 34  1  0
 33 76  1  6
 34 35  1  0
 34 36  1  0
 35 77  1  0
 35 78  1  0
 35 79  1  0
 36 80  1  0
 36 81  1  0
 36 82  1  0
 37 83  1  1
 38 39  1  0
 38 84  1  1
 39 85  1  0
M  END
>  <i_m_ct_stereo_status>  (219) 
1

>  <s_m_source_file>  (219) 
/var/tmp/pbs.5076255.sched01/tmpqw5sdpkp/8220gfbieb.sdf

>  <i_m_source_file_index>  (219) 
10

>  <i_lp_mmshare_version>  (219) 
48012

>  <i_f3d_flags>  (219) 
0

>  <s_epik_input>  (219) 
W0NIMl0xT1tDQEBIXShbT0hdKVtDQEBIXShbQ0BAXTEyMylDKFtDSDNdKShbQ0gzXSlPW0NASF0oT1tDSDJdMilbQ0BASF00W0NAQF01NltDSF03W0NIMl1bQ0BIXThbQ0BAXShbQ0gzXSkoW0NIXShbQ0gyXTYpQyhbQ0gzXSkoW0NIM10pW0NASF0oW0NIMl01KVtDQEBIXTdbT0hdKVtDQEhdKFtPSF0pW0NIMl0vQyhbQ0BASF04W09IXSk9W0NIXVxbQ0hdPUM0XFtDSDJdMw==

>  <s_epik_cmdline>  (219) 
J2VwaWtfcHl0aG9uJywgJy1waHQnLCAnMi4wJywgJy1waCcsICc3LjAnLCAnLXRuJywgJzgnLCAnLW1hJywgJzIwMCcsICctaW1hZScsICc8aW5maWxlLm1hZT4nLCAnLW9tYWUnLCAnPG91dGZpbGUubWFlPic=

>  <r_lp_tautomer_probability>  (219) 
1

>  <r_epik_Ionization_Penalty>  (219) 
1.65888e-06

>  <r_epik_Ionization_Penalty_Charging>  (219) 
0

>  <r_epik_Ionization_Penalty_Neutral>  (219) 
1.65888e-06

>  <r_epik_State_Penalty>  (219) 
-0

>  <r_epik_Charging_Adjusted_Penalty>  (219) 
0

>  <i_epik_Tot_Q>  (219) 
0

>  <i_epik_Tot_abs_Q>  (219) 
0

>  <s_epik_Chemistry_Notes>  (219) 
This compound contains an acetal/aminal-like group ( X-CH(R)-Y where X, Y are N, S, or O) that may be acid/base labile, releasing an aldehyde.

>  <s_lp_Force_Field>  (219) 
OPLS3e

>  <r_lp_Energy>  (219) 
181.742

>  <b_lp_Chiralities_Consistent>  (219) 
1

>  <s_lp_Variant>  (219) 
66:0-1

>  <s_i_glide_gridfile>  (219) 
pfpi4k_grid

>  <i_i_glide_lignum>  (219) 
10

>  <i_i_glide_rotatable_bonds>  (219) 
4

>  <r_i_docking_score>  (219) 
-3.38132

>  <r_i_glide_ligand_efficiency>  (219) 
-0.0867005

>  <r_i_glide_ligand_efficiency_sa>  (219) 
-0.29402

>  <r_i_glide_ligand_efficiency_ln>  (219) 
-0.725051

>  <r_i_glide_gscore>  (219) 
-3.38132

>  <r_i_glide_lipo>  (219) 
-0.321691

>  <r_i_glide_hbond>  (219) 
0

>  <r_i_glide_metal>  (219) 
-0

>  <r_i_glide_rewards>  (219) 
-0.5

>  <r_i_glide_evdw>  (219) 
-28.2465

>  <r_i_glide_ecoul>  (219) 
-7.59317

>  <r_i_glide_erotb>  (219) 
0

>  <r_i_glide_esite>  (219) 
-0.00832859

>  <r_i_glide_emodel>  (219) 
-48.3544

>  <r_i_glide_energy>  (219) 
-35.8396

>  <r_i_glide_einternal>  (219) 
1.40931

>  <r_i_glide_intrahb_reward>  (219) 
-0.5

>  <i_i_glide_confnum>  (219) 
2

>  <i_i_glide_posenum>  (219) 
15

>  <r_i_glide_eff_state_penalty>  (219) 
0

>  <ligand_id>  (219) 
66

>  <original_smiles>  (219) 
CC1(C)OC2OCC3(COC(O)C31)CC1=CC=C3CC(O)C4(C)C(CC5C(O)C6CC5(CC4C6(C)C)C12)C3O

>  <smiles>  (219) 
[H]OC1([H])OC([H])([H])C23C([H])([H])OC([H])(OC(C([H])([H])[H])(C([H])([H])[H])C12[H])C1([H])C(=C([H])C([H])=C2C([H])([H])C([H])(O[H])C4(C([H])([H])[H])C([H])(C2([H])O[H])C([H])([H])C2([H])C([H])(O[H])C5([H])C([H])([H])C12C([H])([H])C4([H])C5(C([H])([H])[H])C([H])([H])[H])C3([H])[H]

$$$$
66:0:1
     RDKit          3D

 85 92  0  0  1  0  0  0  0  0999 V2000
   -0.0352   -1.1029    6.5733 C   0  0  0  0  0  0  0  0  0  0  0  0
    1.1992   -0.2244    6.2736 C   0  0  0  0  0  0  0  0  0  0  0  0
    1.6208    0.5067    7.5700 C   0  0  0  0  0  0  0  0  0  0  0  0
    2.1831   -1.2356    6.0657 O   0  0  0  0  0  0  0  0  0  0  0  0
    3.2941   -1.0536    5.2350 C   0  0  2  0  0  0  0  0  0  0  0  0
    3.9761    0.1673    5.3614 O   0  0  0  0  0  0  0  0  0  0  0  0
    3.3619    1.4198    5.0500 C   0  0  0  0  0  0  0  0  0  0  0  0
    2.0286    1.4086    4.2705 C   0  0  2  0  0  0  0  0  0  0  0  0
    1.4959    2.8584    4.2076 C   0  0  0  0  0  0  0  0  0  0  0  0
    0.5525    2.9625    5.2606 O   0  0  0  0  0  0  0  0  0  0  0  0
   -0.1515    1.7677    5.3176 C   0  0  1  0  0  0  0  0  0  0  0  0
   -1.2220    1.7295    4.3918 O   0  0  0  0  0  0  0  0  0  0  0  0
    0.8823    0.6557    5.0057 C   0  0  2  0  0  0  0  0  0  0  0  0
    2.2567    0.8765    2.8210 C   0  0  0  0  0  0  0  0  0  0  0  0
    3.2407   -0.2766    2.7844 C   0  0  0  0  0  0  0  0  0  0  0  0
    4.2420   -0.3619    1.8997 C   0  0  0  0  0  0  0  0  0  0  0  0
    3.9123   -0.4749    0.4946 C   0  0  0  0  0  0  0  0  0  0  0  0
    4.4979   -1.4324   -0.2529 C   0  0  0  0  0  0  0  0  0  0  0  0
    3.6952   -2.2206   -1.2730 C   0  0  0  0  0  0  0  0  0  0  0  0
    3.8629   -3.7656   -1.1048 C   0  0  1  0  0  0  0  0  0  0  0  0
    4.7370   -4.1341   -2.1526 O   0  0  0  0  0  0  0  0  0  0  0  0
    4.3218   -4.3736    0.3086 C   0  0  1  0  0  0  0  0  0  0  0  0
    4.9510   -5.7674    0.0234 C   0  0  0  0  0  0  0  0  0  0  0  0
    5.5251   -3.4793    0.8328 C   0  0  2  0  0  0  0  0  0  0  0  0
    5.7985   -3.3804    2.3477 C   0  0  0  0  0  0  0  0  0  0  0  0
    4.7193   -3.5158    3.4421 C   0  0  2  0  0  0  0  0  0  0  0  0
    4.5779   -5.0114    3.8134 C   0  0  1  0  0  0  0  0  0  0  0  0
    5.0555   -5.2453    5.1211 O   0  0  0  0  0  0  0  0  0  0  0  0
    3.0837   -5.2945    3.7426 C   0  0  1  0  0  0  0  0  0  0  0  0
    2.5119   -3.9388    4.2009 C   0  0  0  0  0  0  0  0  0  0  0  0
    3.2632   -2.9282    3.3088 C   0  0  2  0  0  0  0  0  0  0  0  0
    2.6181   -3.1938    1.9187 C   0  0  0  0  0  0  0  0  0  0  0  0
    3.0061   -4.5237    1.2469 C   0  0  2  0  0  0  0  0  0  0  0  0
    2.6564   -5.6934    2.2914 C   0  0  0  0  0  0  0  0  0  0  0  0
    3.1302   -7.1319    1.9615 C   0  0  0  0  0  0  0  0  0  0  0  0
    1.1148   -5.8978    2.3003 C   0  0  0  0  0  0  0  0  0  0  0  0
    2.9446   -1.4210    3.7602 C   0  0  1  0  0  0  0  0  0  0  0  0
    5.7951   -2.1174    0.1080 C   0  0  1  0  0  0  0  0  0  0  0  0
    6.5967   -2.2903   -1.0496 O   0  0  0  0  0  0  0  0  0  0  0  0
   -0.9059   -0.5047    6.8452 H   0  0  0  0  0  0  0  0  0  0  0  0
    0.1623   -1.7925    7.3953 H   0  0  0  0  0  0  0  0  0  0  0  0
   -0.3093   -1.7126    5.7083 H   0  0  0  0  0  0  0  0  0  0  0  0
    1.0761    1.4319    7.7458 H   0  0  0  0  0  0  0  0  0  0  0  0
    2.6829    0.7331    7.5996 H   0  0  0  0  0  0  0  0  0  0  0  0
    1.4490   -0.1259    8.4397 H   0  0  0  0  0  0  0  0  0  0  0  0
    4.0129   -1.7701    5.6277 H   0  0  0  0  0  0  0  0  0  0  0  0
    3.2446    1.9858    5.9680 H   0  0  0  0  0  0  0  0  0  0  0  0
    4.0957    1.9897    4.4842 H   0  0  0  0  0  0  0  0  0  0  0  0
    2.2756    3.6129    4.3391 H   0  0  0  0  0  0  0  0  0  0  0  0
    1.0047    3.0664    3.2545 H   0  0  0  0  0  0  0  0  0  0  0  0
   -0.6046    1.6903    6.3046 H   0  0  0  0  0  0  0  0  0  0  0  0
   -0.8645    1.7657    3.5169 H   0  0  0  0  0  0  0  0  0  0  0  0
    0.3909   -0.0050    4.2871 H   0  0  0  0  0  0  0  0  0  0  0  0
    1.3236    0.5881    2.3417 H   0  0  0  0  0  0  0  0  0  0  0  0
    2.6674    1.6767    2.2058 H   0  0  0  0  0  0  0  0  0  0  0  0
    4.9506   -1.0831    2.2089 H   0  0  0  0  0  0  0  0  0  0  0  0
    2.9191   -0.1753    0.2062 H   0  0  0  0  0  0  0  0  0  0  0  0
    2.6371   -1.9877   -1.1479 H   0  0  0  0  0  0  0  0  0  0  0  0
    3.9512   -1.8955   -2.2851 H   0  0  0  0  0  0  0  0  0  0  0  0
    2.9199   -4.2161   -1.4076 H   0  0  0  0  0  0  0  0  0  0  0  0
    4.3873   -4.9507   -2.4969 H   0  0  0  0  0  0  0  0  0  0  0  0
    5.4202   -6.1925    0.9061 H   0  0  0  0  0  0  0  0  0  0  0  0
    5.7815   -5.7035   -0.6778 H   0  0  0  0  0  0  0  0  0  0  0  0
    4.2465   -6.4676   -0.4197 H   0  0  0  0  0  0  0  0  0  0  0  0
    6.4260   -4.0133    0.5279 H   0  0  0  0  0  0  0  0  0  0  0  0
    6.5459   -4.1496    2.5455 H   0  0  0  0  0  0  0  0  0  0  0  0
    6.3539   -2.4721    2.5524 H   0  0  0  0  0  0  0  0  0  0  0  0
    5.1608   -3.0386    4.3169 H   0  0  0  0  0  0  0  0  0  0  0  0
    5.1376   -5.6646    3.1498 H   0  0  0  0  0  0  0  0  0  0  0  0
    6.0005   -5.1818    5.1022 H   0  0  0  0  0  0  0  0  0  0  0  0
    2.8026   -6.0870    4.4374 H   0  0  0  0  0  0  0  0  0  0  0  0
    1.4290   -3.8636    4.1445 H   0  0  0  0  0  0  0  0  0  0  0  0
    2.7561   -3.7854    5.2530 H   0  0  0  0  0  0  0  0  0  0  0  0
    1.5426   -3.1458    2.0534 H   0  0  0  0  0  0  0  0  0  0  0  0
    2.7399   -2.4056    1.2194 H   0  0  0  0  0  0  0  0  0  0  0  0
    2.2314   -4.6884    0.5045 H   0  0  0  0  0  0  0  0  0  0  0  0
    2.8689   -7.4161    0.9437 H   0  0  0  0  0  0  0  0  0  0  0  0
    2.6402   -7.8595    2.6123 H   0  0  0  0  0  0  0  0  0  0  0  0
    4.1901   -7.3045    2.1210 H   0  0  0  0  0  0  0  0  0  0  0  0
    0.7546   -6.2699    1.3381 H   0  0  0  0  0  0  0  0  0  0  0  0
    0.5772   -4.9825    2.5112 H   0  0  0  0  0  0  0  0  0  0  0  0
    0.8017   -6.6176    3.0603 H   0  0  0  0  0  0  0  0  0  0  0  0
    1.8597   -1.4415    3.7277 H   0  0  0  0  0  0  0  0  0  0  0  0
    6.3936   -1.4422    0.7147 H   0  0  0  0  0  0  0  0  0  0  0  0
    6.1756   -2.9648   -1.5771 H   0  0  0  0  0  0  0  0  0  0  0  0
  1  2  1  0
  1 40  1  0
  1 41  1  0
  1 42  1  0
  2 13  1  0
  2  3  1  0
  2  4  1  0
  3 43  1  0
  3 44  1  0
  3 45  1  0
  4  5  1  0
  5 37  1  0
  5  6  1  0
  5 46  1  1
  6  7  1  0
  7  8  1  0
  7 47  1  0
  7 48  1  0
  8 13  1  0
  8  9  1  6
  8 14  1  0
  9 10  1  0
  9 49  1  0
  9 50  1  0
 10 11  1  0
 11 12  1  0
 11 13  1  0
 11 51  1  1
 12 52  1  0
 13 53  1  6
 14 15  1  0
 14 54  1  0
 14 55  1  0
 15 37  1  0
 15 16  2  3
 16 17  1  0
 16 56  1  0
 17 18  2  3
 17 57  1  0
 18 38  1  0
 18 19  1  0
 19 20  1  0
 19 58  1  0
 19 59  1  0
 20 21  1  0
 20 22  1  0
 20 60  1  6
 21 61  1  0
 22 33  1  0
 22 23  1  6
 22 24  1  0
 23 62  1  0
 23 63  1  0
 23 64  1  0
 24 25  1  0
 24 38  1  0
 24 65  1  6
 25 26  1  0
 25 66  1  0
 25 67  1  0
 26 31  1  0
 26 27  1  0
 26 68  1  1
 27 28  1  0
 27 29  1  0
 27 69  1  6
 28 70  1  0
 29 34  1  0
 29 30  1  0
 29 71  1  1
 31 30  1  1
 30 72  1  0
 30 73  1  0
 31 32  1  0
 31 37  1  0
 32 33  1  0
 32 74  1  0
 32 75  1  0
 33 34  1  0
 33 76  1  6
 34 35  1  0
 34 36  1  0
 35 77  1  0
 35 78  1  0
 35 79  1  0
 36 80  1  0
 36 81  1  0
 36 82  1  0
 37 83  1  1
 38 39  1  0
 38 84  1  1
 39 85  1  0
M  END
>  <i_m_ct_stereo_status>  (220) 
1

>  <s_m_source_file>  (220) 
/var/tmp/pbs.5076255.sched01/tmpqw5sdpkp/8220gfbieb.sdf

>  <i_m_source_file_index>  (220) 
10

>  <i_lp_mmshare_version>  (220) 
48012

>  <i_f3d_flags>  (220) 
0

>  <s_epik_input>  (220) 
W0NIMl0xT1tDQEBIXShbT0hdKVtDQEBIXShbQ0BAXTEyMylDKFtDSDNdKShbQ0gzXSlPW0NASF0oT1tDSDJdMilbQ0BASF00W0NAQF01NltDSF03W0NIMl1bQ0BIXThbQ0BAXShbQ0gzXSkoW0NIXShbQ0gyXTYpQyhbQ0gzXSkoW0NIM10pW0NASF0oW0NIMl01KVtDQEBIXTdbT0hdKVtDQEhdKFtPSF0pW0NIMl0vQyhbQ0BASF04W09IXSk9W0NIXVxbQ0hdPUM0XFtDSDJdMw==

>  <s_epik_cmdline>  (220) 
J2VwaWtfcHl0aG9uJywgJy1waHQnLCAnMi4wJywgJy1waCcsICc3LjAnLCAnLXRuJywgJzgnLCAnLW1hJywgJzIwMCcsICctaW1hZScsICc8aW5maWxlLm1hZT4nLCAnLW9tYWUnLCAnPG91dGZpbGUubWFlPic=

>  <r_lp_tautomer_probability>  (220) 
1

>  <r_epik_Ionization_Penalty>  (220) 
1.65888e-06

>  <r_epik_Ionization_Penalty_Charging>  (220) 
0

>  <r_epik_Ionization_Penalty_Neutral>  (220) 
1.65888e-06

>  <r_epik_State_Penalty>  (220) 
-0

>  <r_epik_Charging_Adjusted_Penalty>  (220) 
0

>  <i_epik_Tot_Q>  (220) 
0

>  <i_epik_Tot_abs_Q>  (220) 
0

>  <s_epik_Chemistry_Notes>  (220) 
This compound contains an acetal/aminal-like group ( X-CH(R)-Y where X, Y are N, S, or O) that may be acid/base labile, releasing an aldehyde.

>  <s_lp_Force_Field>  (220) 
OPLS3e

>  <r_lp_Energy>  (220) 
181.742

>  <b_lp_Chiralities_Consistent>  (220) 
1

>  <s_lp_Variant>  (220) 
66:0-1

>  <s_i_glide_gridfile>  (220) 
pfpi4k_grid

>  <i_i_glide_lignum>  (220) 
10

>  <i_i_glide_rotatable_bonds>  (220) 
4

>  <r_i_docking_score>  (220) 
-3.36223

>  <r_i_glide_ligand_efficiency>  (220) 
-0.0862111

>  <r_i_glide_ligand_efficiency_sa>  (220) 
-0.29236

>  <r_i_glide_ligand_efficiency_ln>  (220) 
-0.720958

>  <r_i_glide_gscore>  (220) 
-3.36223

>  <r_i_glide_lipo>  (220) 
-0.348495

>  <r_i_glide_hbond>  (220) 
0

>  <r_i_glide_metal>  (220) 
-0

>  <r_i_glide_rewards>  (220) 
-0.5

>  <r_i_glide_evdw>  (220) 
-27.1537

>  <r_i_glide_ecoul>  (220) 
-7.66988

>  <r_i_glide_erotb>  (220) 
0

>  <r_i_glide_esite>  (220) 
-0.00557278

>  <r_i_glide_emodel>  (220) 
-47.7193

>  <r_i_glide_energy>  (220) 
-34.8235

>  <r_i_glide_einternal>  (220) 
1.24083

>  <r_i_glide_intrahb_reward>  (220) 
-0.5

>  <i_i_glide_confnum>  (220) 
2

>  <i_i_glide_posenum>  (220) 
36

>  <r_i_glide_eff_state_penalty>  (220) 
0

>  <ligand_id>  (220) 
66

>  <original_smiles>  (220) 
CC1(C)OC2OCC3(COC(O)C31)CC1=CC=C3CC(O)C4(C)C(CC5C(O)C6CC5(CC4C6(C)C)C12)C3O

>  <smiles>  (220) 
[H]OC1([H])OC([H])([H])C23C([H])([H])OC([H])(OC(C([H])([H])[H])(C([H])([H])[H])C12[H])C1([H])C(=C([H])C([H])=C2C([H])([H])C([H])(O[H])C4(C([H])([H])[H])C([H])(C2([H])O[H])C([H])([H])C2([H])C([H])(O[H])C5([H])C([H])([H])C12C([H])([H])C4([H])C5(C([H])([H])[H])C([H])([H])[H])C3([H])[H]

$$$$
66:0:2
     RDKit          3D

 85 92  0  0  1  0  0  0  0  0999 V2000
    3.1511   -0.9381    1.2405 C   0  0  0  0  0  0  0  0  0  0  0  0
    4.4736   -1.6868    0.9636 C   0  0  0  0  0  0  0  0  0  0  0  0
    5.6173   -0.6640    0.8182 C   0  0  0  0  0  0  0  0  0  0  0  0
    4.6826   -2.3044    2.2335 O   0  0  0  0  0  0  0  0  0  0  0  0
    5.3808   -3.5053    2.3882 C   0  0  2  0  0  0  0  0  0  0  0  0
    6.5823   -3.6288    1.6766 O   0  0  0  0  0  0  0  0  0  0  0  0
    6.6259   -3.6132    0.2503 C   0  0  0  0  0  0  0  0  0  0  0  0
    5.2990   -3.7865   -0.5189 C   0  0  2  0  0  0  0  0  0  0  0  0
    5.5938   -3.5688   -2.0190 C   0  0  0  0  0  0  0  0  0  0  0  0
    5.2815   -2.2125   -2.2724 O   0  0  0  0  0  0  0  0  0  0  0  0
    4.1026   -1.9480   -1.5947 C   0  0  1  0  0  0  0  0  0  0  0  0
    2.9744   -2.4095   -2.3179 O   0  0  0  0  0  0  0  0  0  0  0  0
    4.2410   -2.6841   -0.2329 C   0  0  2  0  0  0  0  0  0  0  0  0
    4.7286   -5.2185   -0.2827 C   0  0  0  0  0  0  0  0  0  0  0  0
    4.9232   -5.6986    1.1414 C   0  0  0  0  0  0  0  0  0  0  0  0
    5.3805   -6.9183    1.4611 C   0  0  0  0  0  0  0  0  0  0  0  0
    4.6175   -8.0851    1.0676 C   0  0  0  0  0  0  0  0  0  0  0  0
    4.3242   -9.0115    2.0072 C   0  0  0  0  0  0  0  0  0  0  0  0
    2.9441   -9.6430    2.0938 C   0  0  0  0  0  0  0  0  0  0  0  0
    2.3456   -9.6253    3.5462 C   0  0  1  0  0  0  0  0  0  0  0  0
    2.5173  -10.9524    4.0169 O   0  0  0  0  0  0  0  0  0  0  0  0
    2.8859   -8.5349    4.5985 C   0  0  1  0  0  0  0  0  0  0  0  0
    2.5841   -9.1075    6.0149 C   0  0  0  0  0  0  0  0  0  0  0  0
    4.4786   -8.4924    4.4952 C   0  0  2  0  0  0  0  0  0  0  0  0
    5.2695   -7.2067    4.8815 C   0  0  0  0  0  0  0  0  0  0  0  0
    4.6879   -5.7801    4.7527 C   0  0  2  0  0  0  0  0  0  0  0  0
    3.9319   -5.4372    6.0595 C   0  0  1  0  0  0  0  0  0  0  0  0
    4.6190   -4.4555    6.8092 O   0  0  0  0  0  0  0  0  0  0  0  0
    2.5724   -4.9173    5.6060 C   0  0  1  0  0  0  0  0  0  0  0  0
    2.9527   -4.2285    4.2820 C   0  0  0  0  0  0  0  0  0  0  0  0
    3.7708   -5.3137    3.5516 C   0  0  2  0  0  0  0  0  0  0  0  0
    2.6628   -6.3419    3.1710 C   0  0  0  0  0  0  0  0  0  0  0  0
    2.0772   -7.1527    4.3398 C   0  0  2  0  0  0  0  0  0  0  0  0
    1.5480   -6.0871    5.4188 C   0  0  0  0  0  0  0  0  0  0  0  0
    1.0870   -6.6237    6.7984 C   0  0  0  0  0  0  0  0  0  0  0  0
    0.2196   -5.4728    4.8850 C   0  0  0  0  0  0  0  0  0  0  0  0
    4.4279   -4.7252    2.2141 C   0  0  1  0  0  0  0  0  0  0  0  0
    5.1273   -9.2156    3.2717 C   0  0  1  0  0  0  0  0  0  0  0  0
    5.2945  -10.5990    3.5131 O   0  0  0  0  0  0  0  0  0  0  0  0
    2.8443   -0.3157    0.3988 H   0  0  0  0  0  0  0  0  0  0  0  0
    3.2306   -0.2871    2.1111 H   0  0  0  0  0  0  0  0  0  0  0  0
    2.3337   -1.6374    1.4351 H   0  0  0  0  0  0  0  0  0  0  0  0
    5.7031   -0.2567   -0.1867 H   0  0  0  0  0  0  0  0  0  0  0  0
    6.5892   -1.0496    1.1185 H   0  0  0  0  0  0  0  0  0  0  0  0
    5.4381    0.1722    1.4884 H   0  0  0  0  0  0  0  0  0  0  0  0
    5.7235   -3.4535    3.4195 H   0  0  0  0  0  0  0  0  0  0  0  0
    7.1275   -2.7092   -0.0792 H   0  0  0  0  0  0  0  0  0  0  0  0
    7.3096   -4.4079   -0.0405 H   0  0  0  0  0  0  0  0  0  0  0  0
    6.6340   -3.7529   -2.2960 H   0  0  0  0  0  0  0  0  0  0  0  0
    4.9762   -4.2273   -2.6352 H   0  0  0  0  0  0  0  0  0  0  0  0
    3.9867   -0.8686   -1.5046 H   0  0  0  0  0  0  0  0  0  0  0  0
    2.8976   -3.3447   -2.2097 H   0  0  0  0  0  0  0  0  0  0  0  0
    3.2748   -3.1632   -0.0559 H   0  0  0  0  0  0  0  0  0  0  0  0
    3.6787   -5.2832   -0.5536 H   0  0  0  0  0  0  0  0  0  0  0  0
    5.2480   -5.9143   -0.9322 H   0  0  0  0  0  0  0  0  0  0  0  0
    5.6750   -6.9485    2.4810 H   0  0  0  0  0  0  0  0  0  0  0  0
    3.9288   -7.9679    0.2459 H   0  0  0  0  0  0  0  0  0  0  0  0
    2.2686   -9.1096    1.4219 H   0  0  0  0  0  0  0  0  0  0  0  0
    2.9940  -10.6592    1.7031 H   0  0  0  0  0  0  0  0  0  0  0  0
    1.2624   -9.5427    3.4453 H   0  0  0  0  0  0  0  0  0  0  0  0
    1.9452  -11.0871    4.7631 H   0  0  0  0  0  0  0  0  0  0  0  0
    3.0294   -8.4928    6.7915 H   0  0  0  0  0  0  0  0  0  0  0  0
    3.0464  -10.0807    6.1889 H   0  0  0  0  0  0  0  0  0  0  0  0
    1.5199   -9.2508    6.1953 H   0  0  0  0  0  0  0  0  0  0  0  0
    4.8247   -9.1527    5.2903 H   0  0  0  0  0  0  0  0  0  0  0  0
    5.5685   -7.3223    5.9251 H   0  0  0  0  0  0  0  0  0  0  0  0
    6.2521   -7.2135    4.4129 H   0  0  0  0  0  0  0  0  0  0  0  0
    5.5654   -5.1358    4.7445 H   0  0  0  0  0  0  0  0  0  0  0  0
    3.8271   -6.2982    6.7149 H   0  0  0  0  0  0  0  0  0  0  0  0
    4.7207   -3.6841    6.2686 H   0  0  0  0  0  0  0  0  0  0  0  0
    2.1693   -4.1970    6.3190 H   0  0  0  0  0  0  0  0  0  0  0  0
    2.1069   -3.8489    3.7101 H   0  0  0  0  0  0  0  0  0  0  0  0
    3.5709   -3.3560    4.4953 H   0  0  0  0  0  0  0  0  0  0  0  0
    1.8604   -5.8040    2.6721 H   0  0  0  0  0  0  0  0  0  0  0  0
    2.9379   -7.0050    2.3876 H   0  0  0  0  0  0  0  0  0  0  0  0
    1.1300   -7.5271    3.9627 H   0  0  0  0  0  0  0  0  0  0  0  0
    0.3987   -7.4609    6.6944 H   0  0  0  0  0  0  0  0  0  0  0  0
    0.5458   -5.8533    7.3501 H   0  0  0  0  0  0  0  0  0  0  0  0
    1.8971   -6.9104    7.4627 H   0  0  0  0  0  0  0  0  0  0  0  0
   -0.5703   -6.2273    4.8377 H   0  0  0  0  0  0  0  0  0  0  0  0
    0.2970   -5.0433    3.8896 H   0  0  0  0  0  0  0  0  0  0  0  0
   -0.1369   -4.6727    5.5374 H   0  0  0  0  0  0  0  0  0  0  0  0
    3.5424   -4.3211    1.7293 H   0  0  0  0  0  0  0  0  0  0  0  0
    6.1510   -8.8866    3.1034 H   0  0  0  0  0  0  0  0  0  0  0  0
    4.4292  -10.9974    3.4863 H   0  0  0  0  0  0  0  0  0  0  0  0
  1  2  1  0
  1 40  1  0
  1 41  1  0
  1 42  1  0
  2 13  1  0
  2  3  1  0
  2  4  1  0
  3 43  1  0
  3 44  1  0
  3 45  1  0
  4  5  1  0
  5 37  1  0
  5  6  1  0
  5 46  1  1
  6  7  1  0
  7  8  1  0
  7 47  1  0
  7 48  1  0
  8 13  1  0
  8  9  1  6
  8 14  1  0
  9 10  1  0
  9 49  1  0
  9 50  1  0
 10 11  1  0
 11 12  1  0
 11 13  1  0
 11 51  1  1
 12 52  1  0
 13 53  1  1
 14 15  1  0
 14 54  1  0
 14 55  1  0
 15 37  1  0
 15 16  2  3
 16 17  1  0
 16 56  1  0
 17 18  2  3
 17 57  1  0
 18 38  1  0
 18 19  1  0
 19 20  1  0
 19 58  1  0
 19 59  1  0
 20 21  1  0
 20 22  1  0
 20 60  1  6
 21 61  1  0
 22 33  1  0
 22 23  1  1
 22 24  1  0
 23 62  1  0
 23 63  1  0
 23 64  1  0
 24 25  1  0
 24 38  1  0
 24 65  1  1
 25 26  1  0
 25 66  1  0
 25 67  1  0
 26 31  1  0
 26 27  1  0
 26 68  1  1
 27 28  1  0
 27 29  1  0
 27 69  1  1
 28 70  1  0
 29 34  1  0
 29 30  1  0
 29 71  1  1
 31 30  1  1
 30 72  1  0
 30 73  1  0
 31 32  1  0
 31 37  1  0
 32 33  1  0
 32 74  1  0
 32 75  1  0
 33 34  1  0
 33 76  1  6
 34 35  1  0
 34 36  1  0
 35 77  1  0
 35 78  1  0
 35 79  1  0
 36 80  1  0
 36 81  1  0
 36 82  1  0
 37 83  1  6
 38 39  1  0
 38 84  1  6
 39 85  1  0
M  END
>  <i_m_ct_stereo_status>  (221) 
1

>  <s_m_source_file>  (221) 
/var/tmp/pbs.5076255.sched01/tmpqw5sdpkp/8220gfbieb.sdf

>  <i_m_source_file_index>  (221) 
10

>  <i_lp_mmshare_version>  (221) 
48012

>  <i_f3d_flags>  (221) 
0

>  <s_epik_input>  (221) 
W0NIMl0xT1tDQEBIXShbT0hdKVtDQEBIXShbQ0BAXTEyMylDKFtDSDNdKShbQ0gzXSlPW0NASF0oT1tDSDJdMilbQ0BASF00W0NAQF01NltDSF03W0NIMl1bQ0BIXThbQ0BAXShbQ0gzXSkoW0NIXShbQ0gyXTYpQyhbQ0gzXSkoW0NIM10pW0NASF0oW0NIMl01KVtDQEBIXTdbT0hdKVtDQEhdKFtPSF0pW0NIMl0vQyhbQ0BASF04W09IXSk9W0NIXVxbQ0hdPUM0XFtDSDJdMw==

>  <s_epik_cmdline>  (221) 
J2VwaWtfcHl0aG9uJywgJy1waHQnLCAnMi4wJywgJy1waCcsICc3LjAnLCAnLXRuJywgJzgnLCAnLW1hJywgJzIwMCcsICctaW1hZScsICc8aW5maWxlLm1hZT4nLCAnLW9tYWUnLCAnPG91dGZpbGUubWFlPic=

>  <r_lp_tautomer_probability>  (221) 
1

>  <r_epik_Ionization_Penalty>  (221) 
1.65888e-06

>  <r_epik_Ionization_Penalty_Charging>  (221) 
0

>  <r_epik_Ionization_Penalty_Neutral>  (221) 
1.65888e-06

>  <r_epik_State_Penalty>  (221) 
-0

>  <r_epik_Charging_Adjusted_Penalty>  (221) 
0

>  <i_epik_Tot_Q>  (221) 
0

>  <i_epik_Tot_abs_Q>  (221) 
0

>  <s_epik_Chemistry_Notes>  (221) 
This compound contains an acetal/aminal-like group ( X-CH(R)-Y where X, Y are N, S, or O) that may be acid/base labile, releasing an aldehyde.

>  <s_lp_Force_Field>  (221) 
OPLS3e

>  <r_lp_Energy>  (221) 
181.742

>  <b_lp_Chiralities_Consistent>  (221) 
1

>  <s_lp_Variant>  (221) 
66:0-1

>  <s_i_glide_gridfile>  (221) 
pfpi4k_grid

>  <i_i_glide_lignum>  (221) 
10

>  <i_i_glide_rotatable_bonds>  (221) 
4

>  <r_i_docking_score>  (221) 
-3.30806

>  <r_i_glide_ligand_efficiency>  (221) 
-0.084822

>  <r_i_glide_ligand_efficiency_sa>  (221) 
-0.287649

>  <r_i_glide_ligand_efficiency_ln>  (221) 
-0.709342

>  <r_i_glide_gscore>  (221) 
-3.30806

>  <r_i_glide_lipo>  (221) 
-0.603689

>  <r_i_glide_hbond>  (221) 
0

>  <r_i_glide_metal>  (221) 
-0

>  <r_i_glide_rewards>  (221) 
-0.546616

>  <r_i_glide_evdw>  (221) 
-34.493

>  <r_i_glide_ecoul>  (221) 
-2.65594

>  <r_i_glide_erotb>  (221) 
0

>  <r_i_glide_esite>  (221) 
-0.0347103

>  <r_i_glide_emodel>  (221) 
-50.4795

>  <r_i_glide_energy>  (221) 
-37.149

>  <r_i_glide_einternal>  (221) 
0.516559

>  <r_i_glide_intrahb_reward>  (221) 
-0.5

>  <i_i_glide_confnum>  (221) 
2

>  <i_i_glide_posenum>  (221) 
27

>  <r_i_glide_eff_state_penalty>  (221) 
0

>  <ligand_id>  (221) 
66

>  <original_smiles>  (221) 
CC1(C)OC2OCC3(COC(O)C31)CC1=CC=C3CC(O)C4(C)C(CC5C(O)C6CC5(CC4C6(C)C)C12)C3O

>  <smiles>  (221) 
[H]OC1([H])OC([H])([H])C23C([H])([H])OC([H])(OC(C([H])([H])[H])(C([H])([H])[H])C12[H])C1([H])C(=C([H])C([H])=C2C([H])([H])C([H])(O[H])C4(C([H])([H])[H])C([H])(C2([H])O[H])C([H])([H])C2([H])C([H])(O[H])C5([H])C([H])([H])C12C([H])([H])C4([H])C5(C([H])([H])[H])C([H])([H])[H])C3([H])[H]

$$$$
67:0:0
     RDKit          3D

 56 59  0  0  1  0  0  0  0  0999 V2000
    2.5994    3.4397    3.2610 C   0  0  0  0  0  0  0  0  0  0  0  0
    2.0772    2.6737    4.2188 C   0  0  0  0  0  0  0  0  0  0  0  0
    2.9318    2.2275    5.4075 C   0  0  1  0  0  0  0  0  0  0  0  0
    2.7929    3.2926    6.5378 C   0  0  0  0  0  0  0  0  0  0  0  0
    1.4178    3.9554    6.7529 C   0  0  0  0  0  0  0  0  0  0  0  0
    0.2216    3.0095    6.7548 C   0  0  0  0  0  0  0  0  0  0  0  0
   -0.6886    3.2212    7.5422 O   0  0  0  0  0  0  0  0  0  0  0  0
    0.0622    1.8825    5.7094 C   0  0  1  0  0  0  0  0  0  0  0  0
    0.5833    2.2588    4.2505 C   0  0  1  0  0  0  0  0  0  0  0  0
   -0.1839    3.4002    3.8011 O   0  0  0  0  0  0  0  0  0  0  0  0
   -1.5247    3.4884    3.5700 C   0  0  0  0  0  0  0  0  0  0  0  0
   -2.3635    2.2088    3.6431 C   0  0  0  0  0  0  0  0  0  0  0  0
   -2.0742    4.5656    3.2973 O   0  0  0  0  0  0  0  0  0  0  0  0
    0.4524    1.0379    3.2828 C   0  0  1  0  0  0  0  0  0  0  0  0
    0.7011    1.3147    1.7758 C   0  0  0  0  0  0  0  0  0  0  0  0
    1.3419   -0.1243    3.7773 C   0  0  0  0  0  0  0  0  0  0  0  0
    1.6057   -0.1144    5.3188 C   0  0  1  0  0  0  0  0  0  0  0  0
    1.7734   -1.4988    5.6036 O   0  0  0  0  0  0  0  0  0  0  0  0
    2.9201    0.6668    5.7423 C   0  0  1  0  0  0  0  0  0  0  0  0
    4.1465    0.0374    5.0096 C   0  0  0  0  0  0  0  0  0  0  0  0
    3.1745    0.3867    7.2536 C   0  0  0  0  0  0  0  0  0  0  0  0
    1.9976    0.6716    8.2110 C   0  0  0  0  0  0  0  0  0  0  0  0
    0.6607    0.1390    7.6830 C   0  0  1  0  0  0  0  0  0  0  0  0
   -0.3972    0.5448    8.5399 O   0  0  0  0  0  0  0  0  0  0  0  0
    0.3753    0.3898    6.1561 C   0  0  1  0  0  0  0  0  0  0  0  0
   -0.9058   -0.4641    5.8766 C   0  0  0  0  0  0  0  0  0  0  0  0
    2.0078    3.7986    2.4190 H   0  0  0  0  0  0  0  0  0  0  0  0
    3.6527    3.7480    3.2642 H   0  0  0  0  0  0  0  0  0  0  0  0
    3.9614    2.4088    5.0858 H   0  0  0  0  0  0  0  0  0  0  0  0
    3.2422    2.9914    7.4795 H   0  0  0  0  0  0  0  0  0  0  0  0
    3.4229    4.1301    6.2387 H   0  0  0  0  0  0  0  0  0  0  0  0
    1.4087    4.5015    7.6996 H   0  0  0  0  0  0  0  0  0  0  0  0
    1.2300    4.6969    5.9738 H   0  0  0  0  0  0  0  0  0  0  0  0
   -0.9884    1.9009    5.7188 H   0  0  0  0  0  0  0  0  0  0  0  0
   -2.2411    1.6638    4.5512 H   0  0  0  0  0  0  0  0  0  0  0  0
   -2.0925    1.5811    2.7816 H   0  0  0  0  0  0  0  0  0  0  0  0
   -3.4395    2.4576    3.5411 H   0  0  0  0  0  0  0  0  0  0  0  0
   -0.5412    0.6555    3.3216 H   0  0  0  0  0  0  0  0  0  0  0  0
    1.7324    1.5309    1.5042 H   0  0  0  0  0  0  0  0  0  0  0  0
    0.0825    2.1318    1.4062 H   0  0  0  0  0  0  0  0  0  0  0  0
    0.4040    0.4389    1.2018 H   0  0  0  0  0  0  0  0  0  0  0  0
    0.7851   -1.0193    3.5075 H   0  0  0  0  0  0  0  0  0  0  0  0
    2.2647   -0.2022    3.1918 H   0  0  0  0  0  0  0  0  0  0  0  0
    2.4924   -1.8109    5.0791 H   0  0  0  0  0  0  0  0  0  0  0  0
    4.1940   -1.0450    5.1121 H   0  0  0  0  0  0  0  0  0  0  0  0
    5.0780    0.4157    5.4264 H   0  0  0  0  0  0  0  0  0  0  0  0
    4.1741    0.2657    3.9451 H   0  0  0  0  0  0  0  0  0  0  0  0
    3.4315   -0.6661    7.3796 H   0  0  0  0  0  0  0  0  0  0  0  0
    4.0589    0.9263    7.5838 H   0  0  0  0  0  0  0  0  0  0  0  0
    2.2155    0.1933    9.1688 H   0  0  0  0  0  0  0  0  0  0  0  0
    1.9098    1.7234    8.4637 H   0  0  0  0  0  0  0  0  0  0  0  0
    0.7098   -0.9410    7.8297 H   0  0  0  0  0  0  0  0  0  0  0  0
   -0.3744    1.4885    8.6355 H   0  0  0  0  0  0  0  0  0  0  0  0
   -0.7809   -1.4987    6.1875 H   0  0  0  0  0  0  0  0  0  0  0  0
   -1.2168   -0.5225    4.8416 H   0  0  0  0  0  0  0  0  0  0  0  0
   -1.7726   -0.0811    6.4148 H   0  0  0  0  0  0  0  0  0  0  0  0
  1  2  2  0
  1 27  1  0
  1 28  1  0
  2  9  1  0
  2  3  1  0
  3 19  1  0
  3  4  1  0
  3 29  1  6
  4  5  1  0
  4 30  1  0
  4 31  1  0
  5  6  1  0
  5 32  1  0
  5 33  1  0
  6  7  2  0
  6  8  1  0
  8 25  1  0
  8  9  1  0
  8 34  1  6
  9 10  1  6
  9 14  1  0
 10 11  1  0
 11 12  1  0
 11 13  2  0
 12 35  1  0
 12 36  1  0
 12 37  1  0
 14 15  1  0
 14 16  1  0
 14 38  1  6
 15 39  1  0
 15 40  1  0
 15 41  1  0
 16 17  1  0
 16 42  1  0
 16 43  1  0
 17 25  1  0
 17 18  1  1
 17 19  1  0
 18 44  1  0
 19 20  1  6
 19 21  1  0
 20 45  1  0
 20 46  1  0
 20 47  1  0
 21 22  1  0
 21 48  1  0
 21 49  1  0
 22 23  1  0
 22 50  1  0
 22 51  1  0
 23 24  1  0
 23 25  1  0
 23 52  1  6
 24 53  1  0
 25 26  1  6
 26 54  1  0
 26 55  1  0
 26 56  1  0
M  END
>  <i_m_ct_stereo_status>  (222) 
1

>  <s_m_source_file>  (222) 
/var/tmp/pbs.5076255.sched01/tmpqw5sdpkp/8220gfbieb.sdf

>  <i_m_source_file_index>  (222) 
11

>  <i_lp_mmshare_version>  (222) 
48012

>  <i_f3d_flags>  (222) 
0

>  <s_epik_input>  (222) 
Tz1DMVtDSDJdW0NIMl1bQ0BIXShDMj1bQ0gyXSlbQ0BAXShbQ0gzXSkoW0NIMl1bQ0gyXVtDQEhdM1tPSF0pW0NAXShbT0hdKShbQ0gyXVtDQEBIXTRbQ0gzXSlbQ0BdMyhbQ0gzXSlbQ0BASF0xW0NAQF0yNE9DKD1PKVtDSDNd

>  <s_epik_cmdline>  (222) 
J2VwaWtfcHl0aG9uJywgJy1waHQnLCAnMi4wJywgJy1waCcsICc3LjAnLCAnLXRuJywgJzgnLCAnLW1hJywgJzIwMCcsICctaW1hZScsICc8aW5maWxlLm1hZT4nLCAnLW9tYWUnLCAnPG91dGZpbGUubWFlPic=

>  <r_lp_tautomer_probability>  (222) 
1

>  <r_epik_Ionization_Penalty>  (222) 
4.40939e-07

>  <r_epik_Ionization_Penalty_Charging>  (222) 
0

>  <r_epik_Ionization_Penalty_Neutral>  (222) 
4.40939e-07

>  <r_epik_State_Penalty>  (222) 
-0

>  <r_epik_Charging_Adjusted_Penalty>  (222) 
0

>  <i_epik_Tot_Q>  (222) 
0

>  <i_epik_Tot_abs_Q>  (222) 
0

>  <s_epik_Chemistry_Notes>  (222) 
This compound has an ester and may undergo hydrolysis at high or low pH.

>  <s_lp_Force_Field>  (222) 
OPLS3e

>  <r_lp_Energy>  (222) 
69.4503

>  <b_lp_Chiralities_Consistent>  (222) 
1

>  <s_lp_Variant>  (222) 
67:0-1

>  <s_i_glide_gridfile>  (222) 
pfpi4k_grid

>  <i_i_glide_lignum>  (222) 
11

>  <i_i_glide_rotatable_bonds>  (222) 
4

>  <r_i_docking_score>  (222) 
-3.26621

>  <r_i_glide_ligand_efficiency>  (222) 
-0.125623

>  <r_i_glide_ligand_efficiency_sa>  (222) 
-0.372159

>  <r_i_glide_ligand_efficiency_ln>  (222) 
-0.767058

>  <r_i_glide_gscore>  (222) 
-3.26621

>  <r_i_glide_lipo>  (222) 
-0.00321279

>  <r_i_glide_hbond>  (222) 
-0.16

>  <r_i_glide_metal>  (222) 
-0

>  <r_i_glide_rewards>  (222) 
-1.43777

>  <r_i_glide_evdw>  (222) 
-18.8258

>  <r_i_glide_ecoul>  (222) 
-5.33108

>  <r_i_glide_erotb>  (222) 
0.146161

>  <r_i_glide_esite>  (222) 
-0.0704308

>  <r_i_glide_emodel>  (222) 
-31.6219

>  <r_i_glide_energy>  (222) 
-24.1569

>  <r_i_glide_einternal>  (222) 
5.01479

>  <r_i_glide_intrahb_reward>  (222) 
-0.5

>  <i_i_glide_confnum>  (222) 
3

>  <i_i_glide_posenum>  (222) 
21

>  <r_i_glide_eff_state_penalty>  (222) 
0

>  <ligand_id>  (222) 
67

>  <original_smiles>  (222) 
C=C1C2CCC(=O)C3C1(OC(C)=O)C(C)CC1(O)C2(C)CCC(O)C31C

>  <smiles>  (222) 
[H]OC1([H])C([H])([H])C([H])([H])C2(C([H])([H])[H])C3([H])C(=C([H])[H])C4(OC(=O)C([H])([H])[H])C([H])(C(=O)C([H])([H])C3([H])[H])C1(C([H])([H])[H])C2(O[H])C([H])([H])C4([H])C([H])([H])[H]

$$$$
67:0:1
     RDKit          3D

 56 59  0  0  1  0  0  0  0  0999 V2000
    3.7786    1.5408    5.2628 C   0  0  0  0  0  0  0  0  0  0  0  0
    2.4584    1.8189    5.0792 C   0  0  0  0  0  0  0  0  0  0  0  0
    1.4696    1.5631    6.2071 C   0  0  1  0  0  0  0  0  0  0  0  0
    1.2596    2.8725    7.0324 C   0  0  0  0  0  0  0  0  0  0  0  0
    1.2103    4.2465    6.2992 C   0  0  0  0  0  0  0  0  0  0  0  0
    0.4187    4.2971    4.9776 C   0  0  0  0  0  0  0  0  0  0  0  0
   -0.2023    5.3178    4.6764 O   0  0  0  0  0  0  0  0  0  0  0  0
    0.4761    3.1303    3.9559 C   0  0  1  0  0  0  0  0  0  0  0  0
    1.9011    2.4493    3.7881 C   0  0  1  0  0  0  0  0  0  0  0  0
    2.6924    3.5282    3.2469 O   0  0  0  0  0  0  0  0  0  0  0  0
    3.4079    4.4543    3.9619 C   0  0  0  0  0  0  0  0  0  0  0  0
    3.5482    5.7687    3.2417 C   0  0  0  0  0  0  0  0  0  0  0  0
    3.9375    4.3052    5.0557 O   0  0  0  0  0  0  0  0  0  0  0  0
    1.7935    1.2988    2.7376 C   0  0  1  0  0  0  0  0  0  0  0  0
    3.0954    0.6210    2.2389 C   0  0  0  0  0  0  0  0  0  0  0  0
    0.8262    0.2095    3.2637 C   0  0  0  0  0  0  0  0  0  0  0  0
   -0.2390    0.7080    4.2985 C   0  0  1  0  0  0  0  0  0  0  0  0
   -1.3252   -0.2070    4.1453 O   0  0  0  0  0  0  0  0  0  0  0  0
    0.2213    0.6519    5.8208 C   0  0  1  0  0  0  0  0  0  0  0  0
    0.5944   -0.8125    6.2065 C   0  0  0  0  0  0  0  0  0  0  0  0
   -1.0223    0.9822    6.7069 C   0  0  0  0  0  0  0  0  0  0  0  0
   -1.7748    2.2830    6.3638 C   0  0  0  0  0  0  0  0  0  0  0  0
   -1.9773    2.4757    4.8569 C   0  0  1  0  0  0  0  0  0  0  0  0
   -2.6039    3.7124    4.6206 O   0  0  0  0  0  0  0  0  0  0  0  0
   -0.7604    2.1388    3.9271 C   0  0  1  0  0  0  0  0  0  0  0  0
   -1.3620    2.1530    2.4812 C   0  0  0  0  0  0  0  0  0  0  0  0
    4.4819    1.7614    4.4753 H   0  0  0  0  0  0  0  0  0  0  0  0
    4.1810    1.1542    6.1893 H   0  0  0  0  0  0  0  0  0  0  0  0
    2.0206    0.9379    6.9171 H   0  0  0  0  0  0  0  0  0  0  0  0
    0.5052    2.7650    7.8120 H   0  0  0  0  0  0  0  0  0  0  0  0
    2.1728    2.9644    7.6190 H   0  0  0  0  0  0  0  0  0  0  0  0
    0.7603    4.9806    6.9835 H   0  0  0  0  0  0  0  0  0  0  0  0
    2.1983    4.5580    6.1047 H   0  0  0  0  0  0  0  0  0  0  0  0
    0.3878    3.6762    3.0134 H   0  0  0  0  0  0  0  0  0  0  0  0
    2.5750    6.0803    2.8593 H   0  0  0  0  0  0  0  0  0  0  0  0
    4.2628    5.6680    2.4254 H   0  0  0  0  0  0  0  0  0  0  0  0
    3.9273    6.5286    3.9265 H   0  0  0  0  0  0  0  0  0  0  0  0
    1.3767    1.7511    1.8353 H   0  0  0  0  0  0  0  0  0  0  0  0
    3.6091    0.0538    3.0171 H   0  0  0  0  0  0  0  0  0  0  0  0
    3.7998    1.3413    1.8331 H   0  0  0  0  0  0  0  0  0  0  0  0
    2.8818   -0.0796    1.4277 H   0  0  0  0  0  0  0  0  0  0  0  0
    0.3379   -0.2272    2.3959 H   0  0  0  0  0  0  0  0  0  0  0  0
    1.3951   -0.6244    3.6780 H   0  0  0  0  0  0  0  0  0  0  0  0
   -1.9402    0.1580    3.5226 H   0  0  0  0  0  0  0  0  0  0  0  0
   -0.1702   -1.5357    5.9275 H   0  0  0  0  0  0  0  0  0  0  0  0
    0.7251   -0.9078    7.2843 H   0  0  0  0  0  0  0  0  0  0  0  0
    1.5307   -1.1399    5.7590 H   0  0  0  0  0  0  0  0  0  0  0  0
   -1.7444    0.1683    6.6194 H   0  0  0  0  0  0  0  0  0  0  0  0
   -0.7380    0.9842    7.7591 H   0  0  0  0  0  0  0  0  0  0  0  0
   -2.7450    2.2563    6.8599 H   0  0  0  0  0  0  0  0  0  0  0  0
   -1.3057    3.1632    6.7903 H   0  0  0  0  0  0  0  0  0  0  0  0
   -2.7472    1.7817    4.5649 H   0  0  0  0  0  0  0  0  0  0  0  0
   -2.8695    3.7297    3.7079 H   0  0  0  0  0  0  0  0  0  0  0  0
   -2.2165    1.4965    2.3903 H   0  0  0  0  0  0  0  0  0  0  0  0
   -0.6870    1.8315    1.6920 H   0  0  0  0  0  0  0  0  0  0  0  0
   -1.7037    3.1524    2.2101 H   0  0  0  0  0  0  0  0  0  0  0  0
  1  2  2  0
  1 27  1  0
  1 28  1  0
  2  9  1  0
  2  3  1  0
  3 19  1  0
  3  4  1  0
  3 29  1  1
  4  5  1  0
  4 30  1  0
  4 31  1  0
  5  6  1  0
  5 32  1  0
  5 33  1  0
  6  7  2  0
  6  8  1  0
  8 25  1  0
  8  9  1  0
  8 34  1  6
  9 10  1  6
  9 14  1  0
 10 11  1  0
 11 12  1  0
 11 13  2  0
 12 35  1  0
 12 36  1  0
 12 37  1  0
 14 15  1  0
 14 16  1  0
 14 38  1  6
 15 39  1  0
 15 40  1  0
 15 41  1  0
 16 17  1  0
 16 42  1  0
 16 43  1  0
 17 25  1  0
 17 18  1  1
 17 19  1  0
 18 44  1  0
 19 20  1  1
 19 21  1  0
 20 45  1  0
 20 46  1  0
 20 47  1  0
 21 22  1  0
 21 48  1  0
 21 49  1  0
 22 23  1  0
 22 50  1  0
 22 51  1  0
 23 24  1  0
 23 25  1  0
 23 52  1  6
 24 53  1  0
 25 26  1  6
 26 54  1  0
 26 55  1  0
 26 56  1  0
M  END
>  <i_m_ct_stereo_status>  (223) 
1

>  <s_m_source_file>  (223) 
/var/tmp/pbs.5076255.sched01/tmpqw5sdpkp/8220gfbieb.sdf

>  <i_m_source_file_index>  (223) 
11

>  <i_lp_mmshare_version>  (223) 
48012

>  <i_f3d_flags>  (223) 
0

>  <s_epik_input>  (223) 
Tz1DMVtDSDJdW0NIMl1bQ0BIXShDMj1bQ0gyXSlbQ0BAXShbQ0gzXSkoW0NIMl1bQ0gyXVtDQEhdM1tPSF0pW0NAXShbT0hdKShbQ0gyXVtDQEBIXTRbQ0gzXSlbQ0BdMyhbQ0gzXSlbQ0BASF0xW0NAQF0yNE9DKD1PKVtDSDNd

>  <s_epik_cmdline>  (223) 
J2VwaWtfcHl0aG9uJywgJy1waHQnLCAnMi4wJywgJy1waCcsICc3LjAnLCAnLXRuJywgJzgnLCAnLW1hJywgJzIwMCcsICctaW1hZScsICc8aW5maWxlLm1hZT4nLCAnLW9tYWUnLCAnPG91dGZpbGUubWFlPic=

>  <r_lp_tautomer_probability>  (223) 
1

>  <r_epik_Ionization_Penalty>  (223) 
4.40939e-07

>  <r_epik_Ionization_Penalty_Charging>  (223) 
0

>  <r_epik_Ionization_Penalty_Neutral>  (223) 
4.40939e-07

>  <r_epik_State_Penalty>  (223) 
-0

>  <r_epik_Charging_Adjusted_Penalty>  (223) 
0

>  <i_epik_Tot_Q>  (223) 
0

>  <i_epik_Tot_abs_Q>  (223) 
0

>  <s_epik_Chemistry_Notes>  (223) 
This compound has an ester and may undergo hydrolysis at high or low pH.

>  <s_lp_Force_Field>  (223) 
OPLS3e

>  <r_lp_Energy>  (223) 
69.4503

>  <b_lp_Chiralities_Consistent>  (223) 
1

>  <s_lp_Variant>  (223) 
67:0-1

>  <s_i_glide_gridfile>  (223) 
pfpi4k_grid

>  <i_i_glide_lignum>  (223) 
11

>  <i_i_glide_rotatable_bonds>  (223) 
4

>  <r_i_docking_score>  (223) 
-2.90296

>  <r_i_glide_ligand_efficiency>  (223) 
-0.111652

>  <r_i_glide_ligand_efficiency_sa>  (223) 
-0.33077

>  <r_i_glide_ligand_efficiency_ln>  (223) 
-0.681751

>  <r_i_glide_gscore>  (223) 
-2.90296

>  <r_i_glide_lipo>  (223) 
-0.169331

>  <r_i_glide_hbond>  (223) 
-0.186627

>  <r_i_glide_metal>  (223) 
-0

>  <r_i_glide_rewards>  (223) 
-0.949984

>  <r_i_glide_evdw>  (223) 
-20.0681

>  <r_i_glide_ecoul>  (223) 
-4.7876

>  <r_i_glide_erotb>  (223) 
0.146161

>  <r_i_glide_esite>  (223) 
-0.0216321

>  <r_i_glide_emodel>  (223) 
-21.7206

>  <r_i_glide_energy>  (223) 
-24.8557

>  <r_i_glide_einternal>  (223) 
12.7482

>  <r_i_glide_intrahb_reward>  (223) 
-0

>  <i_i_glide_confnum>  (223) 
2

>  <i_i_glide_posenum>  (223) 
29

>  <r_i_glide_eff_state_penalty>  (223) 
0

>  <ligand_id>  (223) 
67

>  <original_smiles>  (223) 
C=C1C2CCC(=O)C3C1(OC(C)=O)C(C)CC1(O)C2(C)CCC(O)C31C

>  <smiles>  (223) 
[H]OC1([H])C([H])([H])C([H])([H])C2(C([H])([H])[H])C3([H])C(=C([H])[H])C4(OC(=O)C([H])([H])[H])C([H])(C(=O)C([H])([H])C3([H])[H])C1(C([H])([H])[H])C2(O[H])C([H])([H])C4([H])C([H])([H])[H]

$$$$
67:0:2
     RDKit          3D

 56 59  0  0  1  0  0  0  0  0999 V2000
   -1.8909   -1.0332    5.2980 C   0  0  0  0  0  0  0  0  0  0  0  0
   -0.9568   -0.0573    5.2490 C   0  0  0  0  0  0  0  0  0  0  0  0
   -1.3827    1.3479    4.8168 C   0  0  1  0  0  0  0  0  0  0  0  0
   -1.8098    2.1476    6.0887 C   0  0  0  0  0  0  0  0  0  0  0  0
   -1.0198    1.9049    7.3964 C   0  0  0  0  0  0  0  0  0  0  0  0
    0.4900    1.8582    7.2763 C   0  0  0  0  0  0  0  0  0  0  0  0
    1.1369    2.3307    8.1934 O   0  0  0  0  0  0  0  0  0  0  0  0
    1.1943    1.1137    6.1114 C   0  0  1  0  0  0  0  0  0  0  0  0
    0.4938   -0.2592    5.6915 C   0  0  1  0  0  0  0  0  0  0  0  0
    0.5046   -1.1283    6.8410 O   0  0  0  0  0  0  0  0  0  0  0  0
    1.5268   -1.7232    7.5066 C   0  0  0  0  0  0  0  0  0  0  0  0
    2.9584   -1.4823    7.0698 C   0  0  0  0  0  0  0  0  0  0  0  0
    1.3008   -2.4602    8.4584 O   0  0  0  0  0  0  0  0  0  0  0  0
    1.2074   -0.9143    4.4817 C   0  0  1  0  0  0  0  0  0  0  0  0
    0.7959   -2.3634    4.1135 C   0  0  0  0  0  0  0  0  0  0  0  0
    1.1546    0.0056    3.2571 C   0  0  0  0  0  0  0  0  0  0  0  0
    1.0230    1.5224    3.6131 C   0  0  1  0  0  0  0  0  0  0  0  0
    1.6726    2.1560    2.5019 O   0  0  0  0  0  0  0  0  0  0  0  0
   -0.4827    2.0268    3.6936 C   0  0  1  0  0  0  0  0  0  0  0  0
   -1.1713    1.7330    2.3325 C   0  0  0  0  0  0  0  0  0  0  0  0
   -0.4756    3.5698    3.8393 C   0  0  0  0  0  0  0  0  0  0  0  0
    0.4005    4.1755    4.9388 C   0  0  0  0  0  0  0  0  0  0  0  0
    1.7825    3.5118    5.0290 C   0  0  1  0  0  0  0  0  0  0  0  0
    2.4520    4.0090    6.1744 O   0  0  0  0  0  0  0  0  0  0  0  0
    1.7992    1.9466    4.9091 C   0  0  1  0  0  0  0  0  0  0  0  0
    3.3237    1.6022    4.8241 C   0  0  0  0  0  0  0  0  0  0  0  0
   -1.6475   -2.0440    5.6016 H   0  0  0  0  0  0  0  0  0  0  0  0
   -2.9408   -0.8841    4.9592 H   0  0  0  0  0  0  0  0  0  0  0  0
   -2.3562    1.2273    4.3172 H   0  0  0  0  0  0  0  0  0  0  0  0
   -1.9645    3.2086    5.9058 H   0  0  0  0  0  0  0  0  0  0  0  0
   -2.8159    1.8044    6.3433 H   0  0  0  0  0  0  0  0  0  0  0  0
   -1.2899    2.6748    8.1314 H   0  0  0  0  0  0  0  0  0  0  0  0
   -1.3243    0.9538    7.8419 H   0  0  0  0  0  0  0  0  0  0  0  0
    2.0475    0.9181    6.6712 H   0  0  0  0  0  0  0  0  0  0  0  0
    3.2407   -0.4717    7.0098 H   0  0  0  0  0  0  0  0  0  0  0  0
    3.1395   -1.9481    6.1253 H   0  0  0  0  0  0  0  0  0  0  0  0
    3.6801   -1.9312    7.7376 H   0  0  0  0  0  0  0  0  0  0  0  0
    2.2507   -0.9766    4.6785 H   0  0  0  0  0  0  0  0  0  0  0  0
   -0.1888   -2.4586    3.6815 H   0  0  0  0  0  0  0  0  0  0  0  0
    0.8373   -3.0273    4.9730 H   0  0  0  0  0  0  0  0  0  0  0  0
    1.5025   -2.7779    3.3900 H   0  0  0  0  0  0  0  0  0  0  0  0
    2.1081   -0.1384    2.7459 H   0  0  0  0  0  0  0  0  0  0  0  0
    0.4248   -0.3243    2.5187 H   0  0  0  0  0  0  0  0  0  0  0  0
    1.0920    2.8210    2.1431 H   0  0  0  0  0  0  0  0  0  0  0  0
   -0.5769    2.0787    1.4878 H   0  0  0  0  0  0  0  0  0  0  0  0
   -2.1281    2.2428    2.2703 H   0  0  0  0  0  0  0  0  0  0  0  0
   -1.3730    0.6773    2.1683 H   0  0  0  0  0  0  0  0  0  0  0  0
   -0.0648    4.0136    2.9318 H   0  0  0  0  0  0  0  0  0  0  0  0
   -1.4852    3.9564    3.8753 H   0  0  0  0  0  0  0  0  0  0  0  0
    0.5326    5.2444    4.7391 H   0  0  0  0  0  0  0  0  0  0  0  0
   -0.0963    4.1448    5.9012 H   0  0  0  0  0  0  0  0  0  0  0  0
    2.3580    3.9164    4.1848 H   0  0  0  0  0  0  0  0  0  0  0  0
    2.5062    4.9515    6.1091 H   0  0  0  0  0  0  0  0  0  0  0  0
    3.8150    2.1667    4.0284 H   0  0  0  0  0  0  0  0  0  0  0  0
    3.5630    0.5749    4.6194 H   0  0  0  0  0  0  0  0  0  0  0  0
    3.8496    1.8500    5.7392 H   0  0  0  0  0  0  0  0  0  0  0  0
  1  2  2  0
  1 27  1  0
  1 28  1  0
  2  9  1  0
  2  3  1  0
  3 19  1  0
  3  4  1  0
  3 29  1  6
  4  5  1  0
  4 30  1  0
  4 31  1  0
  5  6  1  0
  5 32  1  0
  5 33  1  0
  6  7  2  0
  6  8  1  0
  8 25  1  0
  8  9  1  0
  8 34  1  1
  9 10  1  1
  9 14  1  0
 10 11  1  0
 11 12  1  0
 11 13  2  0
 12 35  1  0
 12 36  1  0
 12 37  1  0
 14 15  1  0
 14 16  1  0
 14 38  1  1
 15 39  1  0
 15 40  1  0
 15 41  1  0
 16 17  1  0
 16 42  1  0
 16 43  1  0
 17 25  1  0
 17 18  1  6
 17 19  1  0
 18 44  1  0
 19 20  1  6
 19 21  1  0
 20 45  1  0
 20 46  1  0
 20 47  1  0
 21 22  1  0
 21 48  1  0
 21 49  1  0
 22 23  1  0
 22 50  1  0
 22 51  1  0
 23 24  1  0
 23 25  1  0
 23 52  1  6
 24 53  1  0
 25 26  1  6
 26 54  1  0
 26 55  1  0
 26 56  1  0
M  END
>  <i_m_ct_stereo_status>  (224) 
1

>  <s_m_source_file>  (224) 
/var/tmp/pbs.5076255.sched01/tmpqw5sdpkp/8220gfbieb.sdf

>  <i_m_source_file_index>  (224) 
11

>  <i_lp_mmshare_version>  (224) 
48012

>  <i_f3d_flags>  (224) 
0

>  <s_epik_input>  (224) 
Tz1DMVtDSDJdW0NIMl1bQ0BIXShDMj1bQ0gyXSlbQ0BAXShbQ0gzXSkoW0NIMl1bQ0gyXVtDQEhdM1tPSF0pW0NAXShbT0hdKShbQ0gyXVtDQEBIXTRbQ0gzXSlbQ0BdMyhbQ0gzXSlbQ0BASF0xW0NAQF0yNE9DKD1PKVtDSDNd

>  <s_epik_cmdline>  (224) 
J2VwaWtfcHl0aG9uJywgJy1waHQnLCAnMi4wJywgJy1waCcsICc3LjAnLCAnLXRuJywgJzgnLCAnLW1hJywgJzIwMCcsICctaW1hZScsICc8aW5maWxlLm1hZT4nLCAnLW9tYWUnLCAnPG91dGZpbGUubWFlPic=

>  <r_lp_tautomer_probability>  (224) 
1

>  <r_epik_Ionization_Penalty>  (224) 
4.40939e-07

>  <r_epik_Ionization_Penalty_Charging>  (224) 
0

>  <r_epik_Ionization_Penalty_Neutral>  (224) 
4.40939e-07

>  <r_epik_State_Penalty>  (224) 
-0

>  <r_epik_Charging_Adjusted_Penalty>  (224) 
0

>  <i_epik_Tot_Q>  (224) 
0

>  <i_epik_Tot_abs_Q>  (224) 
0

>  <s_epik_Chemistry_Notes>  (224) 
This compound has an ester and may undergo hydrolysis at high or low pH.

>  <s_lp_Force_Field>  (224) 
OPLS3e

>  <r_lp_Energy>  (224) 
69.4503

>  <b_lp_Chiralities_Consistent>  (224) 
1

>  <s_lp_Variant>  (224) 
67:0-1

>  <s_i_glide_gridfile>  (224) 
pfpi4k_grid

>  <i_i_glide_lignum>  (224) 
11

>  <i_i_glide_rotatable_bonds>  (224) 
4

>  <r_i_docking_score>  (224) 
-2.39184

>  <r_i_glide_ligand_efficiency>  (224) 
-0.0919938

>  <r_i_glide_ligand_efficiency_sa>  (224) 
-0.272531

>  <r_i_glide_ligand_efficiency_ln>  (224) 
-0.561715

>  <r_i_glide_gscore>  (224) 
-2.39184

>  <r_i_glide_lipo>  (224) 
-0.0345002

>  <r_i_glide_hbond>  (224) 
-0.0616216

>  <r_i_glide_metal>  (224) 
-0

>  <r_i_glide_rewards>  (224) 
-0.937773

>  <r_i_glide_evdw>  (224) 
-22.2824

>  <r_i_glide_ecoul>  (224) 
-2.56914

>  <r_i_glide_erotb>  (224) 
0.146161

>  <r_i_glide_esite>  (224) 
-0.00461368

>  <r_i_glide_emodel>  (224) 
-25.167

>  <r_i_glide_energy>  (224) 
-24.8515

>  <r_i_glide_einternal>  (224) 
6.09147

>  <r_i_glide_intrahb_reward>  (224) 
-0

>  <i_i_glide_confnum>  (224) 
3

>  <i_i_glide_posenum>  (224) 
18

>  <r_i_glide_eff_state_penalty>  (224) 
0

>  <ligand_id>  (224) 
67

>  <original_smiles>  (224) 
C=C1C2CCC(=O)C3C1(OC(C)=O)C(C)CC1(O)C2(C)CCC(O)C31C

>  <smiles>  (224) 
[H]OC1([H])C([H])([H])C([H])([H])C2(C([H])([H])[H])C3([H])C(=C([H])[H])C4(OC(=O)C([H])([H])[H])C([H])(C(=O)C([H])([H])C3([H])[H])C1(C([H])([H])[H])C2(O[H])C([H])([H])C4([H])C([H])([H])[H]

$$$$
68:0:0
     RDKit          3D

 83 89  0  0  1  0  0  0  0  0999 V2000
   -2.0789    3.8516    3.0202 C   0  0  0  0  0  0  0  0  0  0  0  0
   -1.6104    3.9607    4.2767 C   0  0  0  0  0  0  0  0  0  0  0  0
   -1.4552    2.8355    5.3093 C   0  0  1  0  0  0  0  0  0  0  0  0
   -2.7065    2.9831    6.2142 C   0  0  0  0  0  0  0  0  0  0  0  0
   -1.4998    1.4432    4.6312 C   0  0  0  0  0  0  0  0  0  0  0  0
   -0.8691    0.2583    5.4048 C   0  0  1  0  0  0  0  0  0  0  0  0
   -0.8604   -1.0399    4.5670 C   0  0  0  0  0  0  0  0  0  0  0  0
    0.2975    0.5260    6.4667 C   0  0  2  0  0  0  0  0  0  0  0  0
    0.0143   -0.6119    7.2763 O   0  0  0  0  0  0  0  0  0  0  0  0
   -0.0745    1.7724    7.2046 C   0  0  2  0  0  0  0  0  0  0  0  0
   -0.1491    2.9735    6.1882 C   0  0  1  0  0  0  0  0  0  0  0  0
    1.1771    3.5722    5.4460 C   0  0  2  0  0  0  0  0  0  0  0  0
    0.9410    4.9416    5.6766 O   0  0  0  0  0  0  0  0  0  0  0  0
    1.3452    3.5012    3.9064 C   0  0  0  0  0  0  0  0  0  0  0  0
    2.5073    4.0649    3.5284 C   0  0  0  0  0  0  0  0  0  0  0  0
    3.4042    4.2343    4.7052 C   0  0  1  0  0  0  0  0  0  0  0  0
    3.7893    5.7589    4.9289 C   0  0  1  0  0  0  0  0  0  0  0  0
    2.9302    6.8556    4.2556 C   0  0  0  0  0  0  0  0  0  0  0  0
    4.1775    6.1599    6.3657 C   0  0  0  0  0  0  0  0  0  0  0  0
    3.4092    5.3713    7.4103 C   0  0  0  0  0  0  0  0  0  0  0  0
    3.5340    3.8846    7.0756 C   0  0  1  0  0  0  0  0  0  0  0  0
    3.7444    3.1695    8.2580 O   0  0  0  0  0  0  0  0  0  0  0  0
    2.6963    3.3284    5.8324 C   0  0  1  0  0  0  0  0  0  0  0  0
    2.8582    1.7319    5.6330 C   0  0  2  0  0  0  0  0  0  0  0  0
    3.3240    1.2081    4.2025 C   0  0  0  0  0  0  0  0  0  0  0  0
    2.2933    1.2822    3.0872 C   0  0  1  0  0  0  0  0  0  0  0  0
    2.7162    0.5134    1.8377 C   0  0  0  0  0  0  0  0  0  0  0  0
    1.0278    0.9739    3.5781 O   0  0  0  0  0  0  0  0  0  0  0  0
    1.1615    2.2937    3.0385 C   0  0  1  0  0  0  0  0  0  0  0  0
    1.9269    0.6950    6.4809 C   0  0  2  0  0  0  0  0  0  0  0  0
    2.6585   -0.6715    6.5198 C   0  0  0  0  0  0  0  0  0  0  0  0
    2.3476   -1.7040    5.7203 C   0  0  0  0  0  0  0  0  0  0  0  0
    3.7780   -0.8248    7.5412 C   0  0  0  0  0  0  0  0  0  0  0  0
    2.0792    1.2977    7.7894 O   0  0  0  0  0  0  0  0  0  0  0  0
    0.8920    1.8307    8.3917 C   0  0  0  0  0  0  0  0  0  0  0  0
    0.9692    3.2378    9.0246 C   0  0  0  0  0  0  0  0  0  0  0  0
    0.5359    0.9103    9.5982 C   0  0  0  0  0  0  0  0  0  0  0  0
   -2.4587    2.9222    2.6181 H   0  0  0  0  0  0  0  0  0  0  0  0
   -2.0858    4.7010    2.3552 H   0  0  0  0  0  0  0  0  0  0  0  0
   -1.2810    4.9373    4.5982 H   0  0  0  0  0  0  0  0  0  0  0  0
   -2.9135    2.1033    6.8189 H   0  0  0  0  0  0  0  0  0  0  0  0
   -3.6042    3.1394    5.6178 H   0  0  0  0  0  0  0  0  0  0  0  0
   -2.6377    3.8374    6.8905 H   0  0  0  0  0  0  0  0  0  0  0  0
   -2.5469    1.2002    4.4664 H   0  0  0  0  0  0  0  0  0  0  0  0
   -1.1476    1.4568    3.6145 H   0  0  0  0  0  0  0  0  0  0  0  0
   -1.7248    0.0546    6.0500 H   0  0  0  0  0  0  0  0  0  0  0  0
   -0.1485   -1.0451    3.7410 H   0  0  0  0  0  0  0  0  0  0  0  0
   -1.8382   -1.1697    4.1064 H   0  0  0  0  0  0  0  0  0  0  0  0
   -0.6884   -1.9373    5.1667 H   0  0  0  0  0  0  0  0  0  0  0  0
    0.5417   -1.3255    6.9343 H   0  0  0  0  0  0  0  0  0  0  0  0
   -1.0512    1.6495    7.6593 H   0  0  0  0  0  0  0  0  0  0  0  0
   -0.4378    3.7660    6.8810 H   0  0  0  0  0  0  0  0  0  0  0  0
    1.5229    5.4285    5.0851 H   0  0  0  0  0  0  0  0  0  0  0  0
    2.9461    3.9142    2.5500 H   0  0  0  0  0  0  0  0  0  0  0  0
    4.3483    3.7441    4.4770 H   0  0  0  0  0  0  0  0  0  0  0  0
    4.7261    5.8714    4.3836 H   0  0  0  0  0  0  0  0  0  0  0  0
    1.9802    7.0410    4.7438 H   0  0  0  0  0  0  0  0  0  0  0  0
    2.7512    6.6443    3.2046 H   0  0  0  0  0  0  0  0  0  0  0  0
    3.4694    7.8030    4.2743 H   0  0  0  0  0  0  0  0  0  0  0  0
    5.2442    6.0009    6.5201 H   0  0  0  0  0  0  0  0  0  0  0  0
    4.0135    7.2199    6.5318 H   0  0  0  0  0  0  0  0  0  0  0  0
    3.8465    5.5854    8.3884 H   0  0  0  0  0  0  0  0  0  0  0  0
    2.3779    5.7131    7.4918 H   0  0  0  0  0  0  0  0  0  0  0  0
    4.5664    3.7845    6.7326 H   0  0  0  0  0  0  0  0  0  0  0  0
    3.9439    2.2667    8.0372 H   0  0  0  0  0  0  0  0  0  0  0  0
    3.8197    1.5976    6.1253 H   0  0  0  0  0  0  0  0  0  0  0  0
    4.2132    1.7334    3.8716 H   0  0  0  0  0  0  0  0  0  0  0  0
    3.6564    0.1776    4.2789 H   0  0  0  0  0  0  0  0  0  0  0  0
    3.5862    0.9759    1.3798 H   0  0  0  0  0  0  0  0  0  0  0  0
    1.9025    0.5206    1.1100 H   0  0  0  0  0  0  0  0  0  0  0  0
    2.9504   -0.5227    2.0705 H   0  0  0  0  0  0  0  0  0  0  0  0
    0.6520    2.4774    2.0848 H   0  0  0  0  0  0  0  0  0  0  0  0
    1.5822   -1.6233    4.9730 H   0  0  0  0  0  0  0  0  0  0  0  0
    2.8682   -2.6501    5.7936 H   0  0  0  0  0  0  0  0  0  0  0  0
    3.4014   -0.7406    8.5619 H   0  0  0  0  0  0  0  0  0  0  0  0
    4.5539   -0.0716    7.4026 H   0  0  0  0  0  0  0  0  0  0  0  0
    4.2624   -1.7986    7.4486 H   0  0  0  0  0  0  0  0  0  0  0  0
    0.0140    3.5136    9.4732 H   0  0  0  0  0  0  0  0  0  0  0  0
    1.2119    4.0120    8.3100 H   0  0  0  0  0  0  0  0  0  0  0  0
    1.7138    3.2819    9.8217 H   0  0  0  0  0  0  0  0  0  0  0  0
   -0.5364    0.9093    9.8110 H   0  0  0  0  0  0  0  0  0  0  0  0
    1.0307    1.2334   10.5166 H   0  0  0  0  0  0  0  0  0  0  0  0
    0.8571   -0.1230    9.4685 H   0  0  0  0  0  0  0  0  0  0  0  0
  1  2  2  0
  1 38  1  0
  1 39  1  0
  2  3  1  0
  2 40  1  0
  3 11  1  0
  3  4  1  1
  3  5  1  0
  4 41  1  0
  4 42  1  0
  4 43  1  0
  5  6  1  0
  5 44  1  0
  5 45  1  0
  6  7  1  0
  6  8  1  0
  6 46  1  1
  7 47  1  0
  7 48  1  0
  7 49  1  0
  8 30  1  0
  8  9  1  1
  8 10  1  0
  9 50  1  0
 10 35  1  0
 10 11  1  0
 10 51  1  1
 11 12  1  0
 11 52  1  1
 23 12  1  1
 12 13  1  6
 12 14  1  0
 13 53  1  0
 14 29  1  0
 14 15  2  0
 15 16  1  0
 15 54  1  0
 16 23  1  0
 16 17  1  0
 16 55  1  6
 17 18  1  0
 17 19  1  0
 17 56  1  6
 18 57  1  0
 18 58  1  0
 18 59  1  0
 19 20  1  0
 19 60  1  0
 19 61  1  0
 20 21  1  0
 20 62  1  0
 20 63  1  0
 21 22  1  0
 21 23  1  0
 21 64  1  6
 22 65  1  0
 23 24  1  0
 24 25  1  0
 24 30  1  0
 24 66  1  1
 25 26  1  0
 25 67  1  0
 25 68  1  0
 26 29  1  0
 26 27  1  6
 26 28  1  0
 27 69  1  0
 27 70  1  0
 27 71  1  0
 28 29  1  0
 29 72  1  6
 30 31  1  1
 30 34  1  0
 31 32  2  0
 31 33  1  0
 32 73  1  0
 32 74  1  0
 33 75  1  0
 33 76  1  0
 33 77  1  0
 34 35  1  0
 35 36  1  0
 35 37  1  0
 36 78  1  0
 36 79  1  0
 36 80  1  0
 37 81  1  0
 37 82  1  0
 37 83  1  0
M  END
>  <i_m_ct_stereo_status>  (225) 
1

>  <s_m_source_file>  (225) 
/var/tmp/pbs.5076255.sched01/tmpqw5sdpkp/8220gfbieb.sdf

>  <i_m_source_file_index>  (225) 
12

>  <i_lp_mmshare_version>  (225) 
48012

>  <i_f3d_flags>  (225) 
0

>  <s_epik_input>  (225) 
W0NIMl09W0NIXVtDQEBdMShbQ0gzXSlbQ0gyXVtDQEBIXShbQ0gzXSlbQ0BdKFtPSF0pKFtDQEBIXTJbQ0BIXTFbQ0BdMyhbQ0BAXTQ1NilbT0hdKVtDQF0oQyg9W0NIMl0pW0NIM10pKE9DMihbQ0gzXSlbQ0gzXSlbQ0BIXTZbQ0gyXVtDQF03KFtDSDNdKVtDQEBIXShPNylDMz1bQ0hdW0NASF00W0NAQEhdKFtDSDNdKVtDSDJdW0NIMl1bQ0BIXTVbT0hd

>  <s_epik_cmdline>  (225) 
J2VwaWtfcHl0aG9uJywgJy1waHQnLCAnMi4wJywgJy1waCcsICc3LjAnLCAnLXRuJywgJzgnLCAnLW1hJywgJzIwMCcsICctaW1hZScsICc8aW5maWxlLm1hZT4nLCAnLW9tYWUnLCAnPG91dGZpbGUubWFlPic=

>  <r_lp_tautomer_probability>  (225) 
1

>  <r_epik_Ionization_Penalty>  (225) 
2.57702e-07

>  <r_epik_Ionization_Penalty_Charging>  (225) 
0

>  <r_epik_Ionization_Penalty_Neutral>  (225) 
2.57702e-07

>  <r_epik_State_Penalty>  (225) 
-0

>  <r_epik_Charging_Adjusted_Penalty>  (225) 
0

>  <i_epik_Tot_Q>  (225) 
0

>  <i_epik_Tot_abs_Q>  (225) 
0

>  <s_lp_Force_Field>  (225) 
OPLS3e

>  <r_lp_Energy>  (225) 
213.387

>  <b_lp_Chiralities_Consistent>  (225) 
1

>  <s_lp_Variant>  (225) 
68:0-1

>  <s_i_glide_gridfile>  (225) 
pfpi4k_grid

>  <i_i_glide_lignum>  (225) 
12

>  <i_i_glide_rotatable_bonds>  (225) 
5

>  <r_i_docking_score>  (225) 
-1.78464

>  <r_i_glide_ligand_efficiency>  (225) 
-0.0482335

>  <r_i_glide_ligand_efficiency_sa>  (225) 
-0.160725

>  <r_i_glide_ligand_efficiency_ln>  (225) 
-0.387047

>  <r_i_glide_gscore>  (225) 
-1.78464

>  <r_i_glide_lipo>  (225) 
-0.156287

>  <r_i_glide_hbond>  (225) 
0

>  <r_i_glide_metal>  (225) 
-0

>  <r_i_glide_rewards>  (225) 
0

>  <r_i_glide_evdw>  (225) 
-27.2755

>  <r_i_glide_ecoul>  (225) 
-2.81123

>  <r_i_glide_erotb>  (225) 
0.157107

>  <r_i_glide_esite>  (225) 
0

>  <r_i_glide_emodel>  (225) 
-32.2815

>  <r_i_glide_energy>  (225) 
-30.0868

>  <r_i_glide_einternal>  (225) 
1.44124

>  <r_i_glide_intrahb_reward>  (225) 
-0

>  <i_i_glide_confnum>  (225) 
2

>  <i_i_glide_posenum>  (225) 
16

>  <r_i_glide_eff_state_penalty>  (225) 
0

>  <ligand_id>  (225) 
68

>  <original_smiles>  (225) 
C=CC1(C)CC(C)C2(O)C3C1C1(O)C4=CC5C(C)CCC(O)C51C(CC1(C)OC41)C2(C(=C)C)OC3(C)C

>  <smiles>  (225) 
[H]OC1([H])C([H])([H])C([H])([H])C([H])(C([H])([H])[H])C2([H])C([H])=C3C4([H])OC4(C([H])([H])[H])C([H])([H])C4([H])C5(C(=C([H])[H])C([H])([H])[H])OC(C([H])([H])[H])(C([H])([H])[H])C6([H])C([H])(C3(O[H])C124)C(C([H])=C([H])[H])(C([H])([H])[H])C([H])([H])C([H])(C([H])([H])[H])C56O[H]

$$$$
68:0:1
     RDKit          3D

 83 89  0  0  1  0  0  0  0  0999 V2000
   -2.1028    3.7204    2.9506 C   0  0  0  0  0  0  0  0  0  0  0  0
   -1.6563    3.8794    4.2062 C   0  0  0  0  0  0  0  0  0  0  0  0
   -1.4925    2.7943    5.2823 C   0  0  1  0  0  0  0  0  0  0  0  0
   -2.7556    2.9457    6.1713 C   0  0  0  0  0  0  0  0  0  0  0  0
   -1.5096    1.3803    4.6451 C   0  0  0  0  0  0  0  0  0  0  0  0
   -0.8664    0.2293    5.4605 C   0  0  1  0  0  0  0  0  0  0  0  0
   -0.8538   -1.0901    4.6585 C   0  0  0  0  0  0  0  0  0  0  0  0
    0.2921    0.5531    6.5203 C   0  0  2  0  0  0  0  0  0  0  0  0
    0.0221   -0.5619    7.3647 O   0  0  0  0  0  0  0  0  0  0  0  0
   -0.1101    1.8156    7.2183 C   0  0  2  0  0  0  0  0  0  0  0  0
   -0.1944    2.9851    6.1650 C   0  0  1  0  0  0  0  0  0  0  0  0
    1.1261    3.5904    5.4141 C   0  0  2  0  0  0  0  0  0  0  0  0
    0.8596    4.9595    5.6013 O   0  0  0  0  0  0  0  0  0  0  0  0
    1.3140    3.4594    3.8807 C   0  0  0  0  0  0  0  0  0  0  0  0
    2.4650    4.0419    3.4947 C   0  0  0  0  0  0  0  0  0  0  0  0
    3.3450    4.2677    4.6759 C   0  0  1  0  0  0  0  0  0  0  0  0
    3.7058    5.8012    4.8493 C   0  0  1  0  0  0  0  0  0  0  0  0
    2.8286    6.8554    4.1345 C   0  0  0  0  0  0  0  0  0  0  0  0
    4.0664    6.2554    6.2769 C   0  0  0  0  0  0  0  0  0  0  0  0
    3.3089    5.4845    7.3411 C   0  0  0  0  0  0  0  0  0  0  0  0
    3.4609    3.9908    7.0565 C   0  0  1  0  0  0  0  0  0  0  0  0
    3.6724    3.3148    8.2620 O   0  0  0  0  0  0  0  0  0  0  0  0
    2.6469    3.3786    5.8204 C   0  0  1  0  0  0  0  0  0  0  0  0
    2.8519    1.7808    5.6691 C   0  0  2  0  0  0  0  0  0  0  0  0
    3.3576    1.2647    4.2543 C   0  0  0  0  0  0  0  0  0  0  0  0
    2.3140    1.2373    3.1420 C   0  0  1  0  0  0  0  0  0  0  0  0
    2.7554    0.4454    1.9169 C   0  0  0  0  0  0  0  0  0  0  0  0
    1.0559    0.9278    3.6354 O   0  0  0  0  0  0  0  0  0  0  0  0
    1.1557    2.2233    3.0506 C   0  0  1  0  0  0  0  0  0  0  0  0
    1.9177    0.7458    6.5239 C   0  0  2  0  0  0  0  0  0  0  0  0
    2.6638   -0.6127    6.6228 C   0  0  0  0  0  0  0  0  0  0  0  0
    3.5383   -0.8738    7.6147 C   0  0  0  0  0  0  0  0  0  0  0  0
    2.3769   -1.6997    5.5937 C   0  0  0  0  0  0  0  0  0  0  0  0
    2.0428    1.4003    7.8176 O   0  0  0  0  0  0  0  0  0  0  0  0
    0.8431    1.9299    8.4098 C   0  0  0  0  0  0  0  0  0  0  0  0
    0.8909    3.3596    8.9997 C   0  0  0  0  0  0  0  0  0  0  0  0
    0.4972    1.0417    9.6438 C   0  0  0  0  0  0  0  0  0  0  0  0
   -2.4543    2.7705    2.5701 H   0  0  0  0  0  0  0  0  0  0  0  0
   -2.1215    4.5519    2.2630 H   0  0  0  0  0  0  0  0  0  0  0  0
   -1.3564    4.8745    4.5050 H   0  0  0  0  0  0  0  0  0  0  0  0
   -2.9500    2.0826    6.8013 H   0  0  0  0  0  0  0  0  0  0  0  0
   -3.6484    3.0663    5.5621 H   0  0  0  0  0  0  0  0  0  0  0  0
   -2.7062    3.8212    6.8197 H   0  0  0  0  0  0  0  0  0  0  0  0
   -2.5496    1.1147    4.4702 H   0  0  0  0  0  0  0  0  0  0  0  0
   -1.1399    1.3697    3.6336 H   0  0  0  0  0  0  0  0  0  0  0  0
   -1.7261    0.0375    6.1074 H   0  0  0  0  0  0  0  0  0  0  0  0
   -0.0955   -1.1317    3.8767 H   0  0  0  0  0  0  0  0  0  0  0  0
   -1.8116   -1.2170    4.1570 H   0  0  0  0  0  0  0  0  0  0  0  0
   -0.7518   -1.9747    5.2898 H   0  0  0  0  0  0  0  0  0  0  0  0
    0.5696   -1.2792    7.0575 H   0  0  0  0  0  0  0  0  0  0  0  0
   -1.0890    1.6914    7.6705 H   0  0  0  0  0  0  0  0  0  0  0  0
   -0.5079    3.7914    6.8320 H   0  0  0  0  0  0  0  0  0  0  0  0
    1.4658    5.4367    5.0241 H   0  0  0  0  0  0  0  0  0  0  0  0
    2.9144    3.8681    2.5251 H   0  0  0  0  0  0  0  0  0  0  0  0
    4.3058    3.7993    4.4745 H   0  0  0  0  0  0  0  0  0  0  0  0
    4.6423    5.9108    4.3049 H   0  0  0  0  0  0  0  0  0  0  0  0
    1.8699    7.0378    4.6072 H   0  0  0  0  0  0  0  0  0  0  0  0
    2.6646    6.5971    3.0909 H   0  0  0  0  0  0  0  0  0  0  0  0
    3.3490    7.8124    4.1229 H   0  0  0  0  0  0  0  0  0  0  0  0
    5.1368    6.1183    6.4447 H   0  0  0  0  0  0  0  0  0  0  0  0
    3.8874    7.3163    6.4069 H   0  0  0  0  0  0  0  0  0  0  0  0
    3.7326    5.7378    8.3159 H   0  0  0  0  0  0  0  0  0  0  0  0
    2.2711    5.8089    7.4009 H   0  0  0  0  0  0  0  0  0  0  0  0
    4.4995    3.8961    6.7263 H   0  0  0  0  0  0  0  0  0  0  0  0
    3.8935    2.4088    8.0656 H   0  0  0  0  0  0  0  0  0  0  0  0
    3.7976    1.6622    6.1973 H   0  0  0  0  0  0  0  0  0  0  0  0
    4.1983    1.8507    3.9007 H   0  0  0  0  0  0  0  0  0  0  0  0
    3.8164    0.2885    4.3598 H   0  0  0  0  0  0  0  0  0  0  0  0
    3.6169    0.9163    1.4492 H   0  0  0  0  0  0  0  0  0  0  0  0
    1.9461    0.4098    1.1874 H   0  0  0  0  0  0  0  0  0  0  0  0
    3.0091   -0.5762    2.1875 H   0  0  0  0  0  0  0  0  0  0  0  0
    0.6487    2.3663    2.0888 H   0  0  0  0  0  0  0  0  0  0  0  0
    3.7810   -0.1611    8.3924 H   0  0  0  0  0  0  0  0  0  0  0  0
    4.0456   -1.8242    7.6706 H   0  0  0  0  0  0  0  0  0  0  0  0
    2.5652   -1.4183    4.5597 H   0  0  0  0  0  0  0  0  0  0  0  0
    1.3495   -2.0057    5.6628 H   0  0  0  0  0  0  0  0  0  0  0  0
    2.9571   -2.5959    5.8044 H   0  0  0  0  0  0  0  0  0  0  0  0
   -0.0732    3.6316    9.4331 H   0  0  0  0  0  0  0  0  0  0  0  0
    1.1260    4.1153    8.2634 H   0  0  0  0  0  0  0  0  0  0  0  0
    1.6276    3.4406    9.8012 H   0  0  0  0  0  0  0  0  0  0  0  0
   -0.5768    1.0263    9.8489 H   0  0  0  0  0  0  0  0  0  0  0  0
    0.9774    1.4037   10.5554 H   0  0  0  0  0  0  0  0  0  0  0  0
    0.8389    0.0116    9.5497 H   0  0  0  0  0  0  0  0  0  0  0  0
  1  2  2  0
  1 38  1  0
  1 39  1  0
  2  3  1  0
  2 40  1  0
  3 11  1  0
  3  4  1  1
  3  5  1  0
  4 41  1  0
  4 42  1  0
  4 43  1  0
  5  6  1  0
  5 44  1  0
  5 45  1  0
  6  7  1  0
  6  8  1  0
  6 46  1  1
  7 47  1  0
  7 48  1  0
  7 49  1  0
  8 30  1  0
  8  9  1  1
  8 10  1  0
  9 50  1  0
 10 35  1  0
 10 11  1  0
 10 51  1  1
 11 12  1  0
 11 52  1  1
 23 12  1  1
 12 13  1  6
 12 14  1  0
 13 53  1  0
 14 29  1  0
 14 15  2  0
 15 16  1  0
 15 54  1  0
 16 23  1  0
 16 17  1  0
 16 55  1  6
 17 18  1  0
 17 19  1  0
 17 56  1  6
 18 57  1  0
 18 58  1  0
 18 59  1  0
 19 20  1  0
 19 60  1  0
 19 61  1  0
 20 21  1  0
 20 62  1  0
 20 63  1  0
 21 22  1  0
 21 23  1  0
 21 64  1  6
 22 65  1  0
 23 24  1  0
 24 25  1  0
 24 30  1  0
 24 66  1  1
 25 26  1  0
 25 67  1  0
 25 68  1  0
 26 29  1  0
 26 27  1  6
 26 28  1  0
 27 69  1  0
 27 70  1  0
 27 71  1  0
 28 29  1  0
 29 72  1  6
 30 31  1  1
 30 34  1  0
 31 32  2  0
 31 33  1  0
 32 73  1  0
 32 74  1  0
 33 75  1  0
 33 76  1  0
 33 77  1  0
 34 35  1  0
 35 36  1  0
 35 37  1  0
 36 78  1  0
 36 79  1  0
 36 80  1  0
 37 81  1  0
 37 82  1  0
 37 83  1  0
M  END
>  <i_m_ct_stereo_status>  (226) 
1

>  <s_m_source_file>  (226) 
/var/tmp/pbs.5076255.sched01/tmpqw5sdpkp/8220gfbieb.sdf

>  <i_m_source_file_index>  (226) 
12

>  <i_lp_mmshare_version>  (226) 
48012

>  <i_f3d_flags>  (226) 
0

>  <s_epik_input>  (226) 
W0NIMl09W0NIXVtDQEBdMShbQ0gzXSlbQ0gyXVtDQEBIXShbQ0gzXSlbQ0BdKFtPSF0pKFtDQEBIXTJbQ0BIXTFbQ0BdMyhbQ0BAXTQ1NilbT0hdKVtDQF0oQyg9W0NIMl0pW0NIM10pKE9DMihbQ0gzXSlbQ0gzXSlbQ0BIXTZbQ0gyXVtDQF03KFtDSDNdKVtDQEBIXShPNylDMz1bQ0hdW0NASF00W0NAQEhdKFtDSDNdKVtDSDJdW0NIMl1bQ0BIXTVbT0hd

>  <s_epik_cmdline>  (226) 
J2VwaWtfcHl0aG9uJywgJy1waHQnLCAnMi4wJywgJy1waCcsICc3LjAnLCAnLXRuJywgJzgnLCAnLW1hJywgJzIwMCcsICctaW1hZScsICc8aW5maWxlLm1hZT4nLCAnLW9tYWUnLCAnPG91dGZpbGUubWFlPic=

>  <r_lp_tautomer_probability>  (226) 
1

>  <r_epik_Ionization_Penalty>  (226) 
2.57702e-07

>  <r_epik_Ionization_Penalty_Charging>  (226) 
0

>  <r_epik_Ionization_Penalty_Neutral>  (226) 
2.57702e-07

>  <r_epik_State_Penalty>  (226) 
-0

>  <r_epik_Charging_Adjusted_Penalty>  (226) 
0

>  <i_epik_Tot_Q>  (226) 
0

>  <i_epik_Tot_abs_Q>  (226) 
0

>  <s_lp_Force_Field>  (226) 
OPLS3e

>  <r_lp_Energy>  (226) 
213.387

>  <b_lp_Chiralities_Consistent>  (226) 
1

>  <s_lp_Variant>  (226) 
68:0-1

>  <s_i_glide_gridfile>  (226) 
pfpi4k_grid

>  <i_i_glide_lignum>  (226) 
12

>  <i_i_glide_rotatable_bonds>  (226) 
5

>  <r_i_docking_score>  (226) 
-1.76607

>  <r_i_glide_ligand_efficiency>  (226) 
-0.0477316

>  <r_i_glide_ligand_efficiency_sa>  (226) 
-0.159052

>  <r_i_glide_ligand_efficiency_ln>  (226) 
-0.383019

>  <r_i_glide_gscore>  (226) 
-1.76607

>  <r_i_glide_lipo>  (226) 
-0.156324

>  <r_i_glide_hbond>  (226) 
0

>  <r_i_glide_metal>  (226) 
-0

>  <r_i_glide_rewards>  (226) 
0

>  <r_i_glide_evdw>  (226) 
-27.228

>  <r_i_glide_ecoul>  (226) 
-2.703

>  <r_i_glide_erotb>  (226) 
0.157107

>  <r_i_glide_esite>  (226) 
0

>  <r_i_glide_emodel>  (226) 
-31.3403

>  <r_i_glide_energy>  (226) 
-29.931

>  <r_i_glide_einternal>  (226) 
2.00114

>  <r_i_glide_intrahb_reward>  (226) 
-0

>  <i_i_glide_confnum>  (226) 
4

>  <i_i_glide_posenum>  (226) 
13

>  <r_i_glide_eff_state_penalty>  (226) 
0

>  <ligand_id>  (226) 
68

>  <original_smiles>  (226) 
C=CC1(C)CC(C)C2(O)C3C1C1(O)C4=CC5C(C)CCC(O)C51C(CC1(C)OC41)C2(C(=C)C)OC3(C)C

>  <smiles>  (226) 
[H]OC1([H])C([H])([H])C([H])([H])C([H])(C([H])([H])[H])C2([H])C([H])=C3C4([H])OC4(C([H])([H])[H])C([H])([H])C4([H])C5(C(=C([H])[H])C([H])([H])[H])OC(C([H])([H])[H])(C([H])([H])[H])C6([H])C([H])(C3(O[H])C124)C(C([H])=C([H])[H])(C([H])([H])[H])C([H])([H])C([H])(C([H])([H])[H])C56O[H]

$$$$
68:0:2
     RDKit          3D

 83 89  0  0  1  0  0  0  0  0999 V2000
   -2.1029    3.7379    2.9553 C   0  0  0  0  0  0  0  0  0  0  0  0
   -1.6501    3.8999    4.2131 C   0  0  0  0  0  0  0  0  0  0  0  0
   -1.4871    2.8158    5.2867 C   0  0  1  0  0  0  0  0  0  0  0  0
   -2.7485    2.9745    6.1767 C   0  0  0  0  0  0  0  0  0  0  0  0
   -1.5057    1.4004    4.6561 C   0  0  0  0  0  0  0  0  0  0  0  0
   -0.8650    0.2535    5.4765 C   0  0  1  0  0  0  0  0  0  0  0  0
   -0.8265   -1.0741    4.6862 C   0  0  0  0  0  0  0  0  0  0  0  0
    0.2903    0.5803    6.5355 C   0  0  2  0  0  0  0  0  0  0  0  0
    0.0196   -0.5258    7.3881 O   0  0  0  0  0  0  0  0  0  0  0  0
   -0.1083    1.8438    7.2291 C   0  0  2  0  0  0  0  0  0  0  0  0
   -0.1907    3.0067    6.1706 C   0  0  1  0  0  0  0  0  0  0  0  0
    1.1324    3.5995    5.4196 C   0  0  2  0  0  0  0  0  0  0  0  0
    0.8746    4.9733    5.6018 O   0  0  0  0  0  0  0  0  0  0  0  0
    1.3176    3.4763    3.8846 C   0  0  0  0  0  0  0  0  0  0  0  0
    2.4728    4.0447    3.4972 C   0  0  0  0  0  0  0  0  0  0  0  0
    3.3569    4.2687    4.6744 C   0  0  1  0  0  0  0  0  0  0  0  0
    3.7154    5.8066    4.8458 C   0  0  1  0  0  0  0  0  0  0  0  0
    2.8429    6.8622    4.1262 C   0  0  0  0  0  0  0  0  0  0  0  0
    4.0828    6.2649    6.2698 C   0  0  0  0  0  0  0  0  0  0  0  0
    3.3167    5.5043    7.3363 C   0  0  0  0  0  0  0  0  0  0  0  0
    3.4638    4.0070    7.0639 C   0  0  1  0  0  0  0  0  0  0  0  0
    3.6764    3.3353    8.2735 O   0  0  0  0  0  0  0  0  0  0  0  0
    2.6521    3.3931    5.8297 C   0  0  1  0  0  0  0  0  0  0  0  0
    2.8404    1.7938    5.6881 C   0  0  2  0  0  0  0  0  0  0  0  0
    3.3248    1.2286    4.2789 C   0  0  0  0  0  0  0  0  0  0  0  0
    2.3029    1.2473    3.1514 C   0  0  1  0  0  0  0  0  0  0  0  0
    2.7496    0.4466    1.9308 C   0  0  0  0  0  0  0  0  0  0  0  0
    1.0375    0.9373    3.6398 O   0  0  0  0  0  0  0  0  0  0  0  0
    1.1563    2.2386    3.0561 C   0  0  1  0  0  0  0  0  0  0  0  0
    1.9158    0.7730    6.5628 C   0  0  2  0  0  0  0  0  0  0  0  0
    2.6715   -0.5788    6.6546 C   0  0  0  0  0  0  0  0  0  0  0  0
    2.3873   -1.6413    5.8854 C   0  0  0  0  0  0  0  0  0  0  0  0
    3.7812   -0.6798    7.6917 C   0  0  0  0  0  0  0  0  0  0  0  0
    2.0361    1.4205    7.8570 O   0  0  0  0  0  0  0  0  0  0  0  0
    0.8400    1.9596    8.4262 C   0  0  0  0  0  0  0  0  0  0  0  0
    0.8974    3.3896    9.0086 C   0  0  0  0  0  0  0  0  0  0  0  0
    0.4935    1.0748    9.6622 C   0  0  0  0  0  0  0  0  0  0  0  0
   -2.4611    2.7890    2.5805 H   0  0  0  0  0  0  0  0  0  0  0  0
   -2.1177    4.5664    2.2648 H   0  0  0  0  0  0  0  0  0  0  0  0
   -1.3433    4.8935    4.5020 H   0  0  0  0  0  0  0  0  0  0  0  0
   -2.9477    2.1128    6.8096 H   0  0  0  0  0  0  0  0  0  0  0  0
   -3.6436    3.0959    5.5681 H   0  0  0  0  0  0  0  0  0  0  0  0
   -2.6987    3.8521    6.8240 H   0  0  0  0  0  0  0  0  0  0  0  0
   -2.5463    1.1349    4.4843 H   0  0  0  0  0  0  0  0  0  0  0  0
   -1.1409    1.3843    3.6444 H   0  0  0  0  0  0  0  0  0  0  0  0
   -1.7222    0.0577    6.1210 H   0  0  0  0  0  0  0  0  0  0  0  0
   -0.1065   -1.0947    3.8677 H   0  0  0  0  0  0  0  0  0  0  0  0
   -1.7980   -1.2437    4.2255 H   0  0  0  0  0  0  0  0  0  0  0  0
   -0.6375   -1.9411    5.3246 H   0  0  0  0  0  0  0  0  0  0  0  0
    0.6766   -0.5038    8.0791 H   0  0  0  0  0  0  0  0  0  0  0  0
   -1.0881    1.7226    7.6782 H   0  0  0  0  0  0  0  0  0  0  0  0
   -0.4995    3.8181    6.8316 H   0  0  0  0  0  0  0  0  0  0  0  0
    1.4656    5.4472    5.0097 H   0  0  0  0  0  0  0  0  0  0  0  0
    2.9215    3.8698    2.5264 H   0  0  0  0  0  0  0  0  0  0  0  0
    4.3086    3.7867    4.4623 H   0  0  0  0  0  0  0  0  0  0  0  0
    4.6531    5.9166    4.3008 H   0  0  0  0  0  0  0  0  0  0  0  0
    1.8854    7.0511    4.5991 H   0  0  0  0  0  0  0  0  0  0  0  0
    2.6778    6.6029    3.0834 H   0  0  0  0  0  0  0  0  0  0  0  0
    3.3649    7.8198    4.1124 H   0  0  0  0  0  0  0  0  0  0  0  0
    5.1502    6.1278    6.4383 H   0  0  0  0  0  0  0  0  0  0  0  0
    3.9033    7.3286    6.3954 H   0  0  0  0  0  0  0  0  0  0  0  0
    3.7447    5.7655    8.3066 H   0  0  0  0  0  0  0  0  0  0  0  0
    2.2812    5.8358    7.3959 H   0  0  0  0  0  0  0  0  0  0  0  0
    4.5031    3.9061    6.7383 H   0  0  0  0  0  0  0  0  0  0  0  0
    2.8320    3.1633    8.6784 H   0  0  0  0  0  0  0  0  0  0  0  0
    3.7973    1.6956    6.1992 H   0  0  0  0  0  0  0  0  0  0  0  0
    4.2098    1.7531    3.9356 H   0  0  0  0  0  0  0  0  0  0  0  0
    3.6733    0.2071    4.3918 H   0  0  0  0  0  0  0  0  0  0  0  0
    3.6118    0.9154    1.4633 H   0  0  0  0  0  0  0  0  0  0  0  0
    1.9413    0.4115    1.1978 H   0  0  0  0  0  0  0  0  0  0  0  0
    3.0019   -0.5764    2.1999 H   0  0  0  0  0  0  0  0  0  0  0  0
    0.6508    2.3811    2.0928 H   0  0  0  0  0  0  0  0  0  0  0  0
    1.6230   -1.5958    5.1346 H   0  0  0  0  0  0  0  0  0  0  0  0
    2.9232   -2.5751    5.9897 H   0  0  0  0  0  0  0  0  0  0  0  0
    3.3925   -0.5701    8.7047 H   0  0  0  0  0  0  0  0  0  0  0  0
    4.5439    0.0842    7.5368 H   0  0  0  0  0  0  0  0  0  0  0  0
    4.2829   -1.6477    7.6342 H   0  0  0  0  0  0  0  0  0  0  0  0
   -0.0678    3.6659    9.4336 H   0  0  0  0  0  0  0  0  0  0  0  0
    1.1309    4.1445    8.2692 H   0  0  0  0  0  0  0  0  0  0  0  0
    1.6214    3.4764    9.8215 H   0  0  0  0  0  0  0  0  0  0  0  0
   -0.5806    1.0596    9.8663 H   0  0  0  0  0  0  0  0  0  0  0  0
    0.9733    1.4442   10.5706 H   0  0  0  0  0  0  0  0  0  0  0  0
    0.8416    0.0451    9.5855 H   0  0  0  0  0  0  0  0  0  0  0  0
  1  2  2  0
  1 38  1  0
  1 39  1  0
  2  3  1  0
  2 40  1  0
  3 11  1  0
  3  4  1  1
  3  5  1  0
  4 41  1  0
  4 42  1  0
  4 43  1  0
  5  6  1  0
  5 44  1  0
  5 45  1  0
  6  7  1  0
  6  8  1  0
  6 46  1  1
  7 47  1  0
  7 48  1  0
  7 49  1  0
  8 30  1  0
  8  9  1  1
  8 10  1  0
  9 50  1  0
 10 35  1  0
 10 11  1  0
 10 51  1  1
 11 12  1  0
 11 52  1  1
 23 12  1  1
 12 13  1  6
 12 14  1  0
 13 53  1  0
 14 29  1  0
 14 15  2  0
 15 16  1  0
 15 54  1  0
 16 23  1  0
 16 17  1  0
 16 55  1  6
 17 18  1  0
 17 19  1  0
 17 56  1  6
 18 57  1  0
 18 58  1  0
 18 59  1  0
 19 20  1  0
 19 60  1  0
 19 61  1  0
 20 21  1  0
 20 62  1  0
 20 63  1  0
 21 22  1  0
 21 23  1  0
 21 64  1  6
 22 65  1  0
 23 24  1  0
 24 25  1  0
 24 30  1  0
 24 66  1  1
 25 26  1  0
 25 67  1  0
 25 68  1  0
 26 29  1  0
 26 27  1  6
 26 28  1  0
 27 69  1  0
 27 70  1  0
 27 71  1  0
 28 29  1  0
 29 72  1  6
 30 31  1  1
 30 34  1  0
 31 32  2  0
 31 33  1  0
 32 73  1  0
 32 74  1  0
 33 75  1  0
 33 76  1  0
 33 77  1  0
 34 35  1  0
 35 36  1  0
 35 37  1  0
 36 78  1  0
 36 79  1  0
 36 80  1  0
 37 81  1  0
 37 82  1  0
 37 83  1  0
M  END
>  <i_m_ct_stereo_status>  (227) 
1

>  <s_m_source_file>  (227) 
/var/tmp/pbs.5076255.sched01/tmpqw5sdpkp/8220gfbieb.sdf

>  <i_m_source_file_index>  (227) 
12

>  <i_lp_mmshare_version>  (227) 
48012

>  <i_f3d_flags>  (227) 
0

>  <s_epik_input>  (227) 
W0NIMl09W0NIXVtDQEBdMShbQ0gzXSlbQ0gyXVtDQEBIXShbQ0gzXSlbQ0BdKFtPSF0pKFtDQEBIXTJbQ0BIXTFbQ0BdMyhbQ0BAXTQ1NilbT0hdKVtDQF0oQyg9W0NIMl0pW0NIM10pKE9DMihbQ0gzXSlbQ0gzXSlbQ0BIXTZbQ0gyXVtDQF03KFtDSDNdKVtDQEBIXShPNylDMz1bQ0hdW0NASF00W0NAQEhdKFtDSDNdKVtDSDJdW0NIMl1bQ0BIXTVbT0hd

>  <s_epik_cmdline>  (227) 
J2VwaWtfcHl0aG9uJywgJy1waHQnLCAnMi4wJywgJy1waCcsICc3LjAnLCAnLXRuJywgJzgnLCAnLW1hJywgJzIwMCcsICctaW1hZScsICc8aW5maWxlLm1hZT4nLCAnLW9tYWUnLCAnPG91dGZpbGUubWFlPic=

>  <r_lp_tautomer_probability>  (227) 
1

>  <r_epik_Ionization_Penalty>  (227) 
2.57702e-07

>  <r_epik_Ionization_Penalty_Charging>  (227) 
0

>  <r_epik_Ionization_Penalty_Neutral>  (227) 
2.57702e-07

>  <r_epik_State_Penalty>  (227) 
-0

>  <r_epik_Charging_Adjusted_Penalty>  (227) 
0

>  <i_epik_Tot_Q>  (227) 
0

>  <i_epik_Tot_abs_Q>  (227) 
0

>  <s_lp_Force_Field>  (227) 
OPLS3e

>  <r_lp_Energy>  (227) 
213.387

>  <b_lp_Chiralities_Consistent>  (227) 
1

>  <s_lp_Variant>  (227) 
68:0-1

>  <s_i_glide_gridfile>  (227) 
pfpi4k_grid

>  <i_i_glide_lignum>  (227) 
12

>  <i_i_glide_rotatable_bonds>  (227) 
5

>  <r_i_docking_score>  (227) 
-1.74014

>  <r_i_glide_ligand_efficiency>  (227) 
-0.0470308

>  <r_i_glide_ligand_efficiency_sa>  (227) 
-0.156717

>  <r_i_glide_ligand_efficiency_ln>  (227) 
-0.377396

>  <r_i_glide_gscore>  (227) 
-1.74014

>  <r_i_glide_lipo>  (227) 
-0.151567

>  <r_i_glide_hbond>  (227) 
0

>  <r_i_glide_metal>  (227) 
-0

>  <r_i_glide_rewards>  (227) 
0

>  <r_i_glide_evdw>  (227) 
-27.1604

>  <r_i_glide_ecoul>  (227) 
-2.58439

>  <r_i_glide_erotb>  (227) 
0.157107

>  <r_i_glide_esite>  (227) 
0

>  <r_i_glide_emodel>  (227) 
-32.0776

>  <r_i_glide_energy>  (227) 
-29.7448

>  <r_i_glide_einternal>  (227) 
1.04248

>  <r_i_glide_intrahb_reward>  (227) 
-0

>  <i_i_glide_confnum>  (227) 
2

>  <i_i_glide_posenum>  (227) 
19

>  <r_i_glide_eff_state_penalty>  (227) 
0

>  <ligand_id>  (227) 
68

>  <original_smiles>  (227) 
C=CC1(C)CC(C)C2(O)C3C1C1(O)C4=CC5C(C)CCC(O)C51C(CC1(C)OC41)C2(C(=C)C)OC3(C)C

>  <smiles>  (227) 
[H]OC1([H])C([H])([H])C([H])([H])C([H])(C([H])([H])[H])C2([H])C([H])=C3C4([H])OC4(C([H])([H])[H])C([H])([H])C4([H])C5(C(=C([H])[H])C([H])([H])[H])OC(C([H])([H])[H])(C([H])([H])[H])C6([H])C([H])(C3(O[H])C124)C(C([H])=C([H])[H])(C([H])([H])[H])C([H])([H])C([H])(C([H])([H])[H])C56O[H]

$$$$
69:0:0
     RDKit          3D

 45 51  0  0  1  0  0  0  0  0999 V2000
    3.0392   -2.9489   -3.4045 C   0  0  0  0  0  0  0  0  0  0  0  0
    3.5070   -1.4870   -3.4647 C   0  0  0  0  0  0  0  0  0  0  0  0
    4.2477   -1.0791   -2.1836 C   0  0  0  0  0  0  0  0  0  0  0  0
    3.4307   -1.3380   -0.9631 N   0  0  2  0  0  0  0  0  0  0  0  0
    4.0260   -0.7753    0.2906 C   0  0  0  0  0  0  0  0  0  0  0  0
    4.7175   -1.8027    1.2320 C   0  0  2  0  0  0  0  0  0  0  0  0
    5.3206   -2.9649    0.4305 C   0  0  1  0  0  0  0  0  0  0  0  0
    5.8445   -4.1373    1.3095 C   0  0  2  0  0  0  0  0  0  0  0  0
    5.4729   -5.3636    0.4800 C   0  0  0  0  0  0  0  0  0  0  0  0
    4.0093   -4.9428    0.3114 C   0  0  2  0  0  0  0  0  0  0  0  0
    4.2431   -3.6288   -0.4506 C   0  0  1  0  0  0  0  0  0  0  0  0
    3.0260   -2.7527   -0.8287 C   0  0  2  0  0  0  0  0  0  0  0  0
    2.2728   -3.2060   -2.0992 C   0  0  0  0  0  0  0  0  0  0  0  0
    3.6173   -4.7869    1.8133 C   0  0  2  0  0  0  0  0  0  0  0  0
    2.9104   -3.5500    2.3454 C   0  0  1  0  0  0  0  0  0  0  0  0
    3.2050   -3.5139    3.8449 C   0  0  0  0  0  0  0  0  0  0  0  0
    4.5287   -3.2099    3.2920 N   0  0  2  0  0  0  0  0  0  0  0  0
    3.8132   -2.2953    2.3878 C   0  0  1  0  0  0  0  0  0  0  0  0
    4.9243   -4.4112    2.4990 C   0  0  2  0  0  0  0  0  0  0  0  0
    3.8851   -3.6340   -3.4809 H   0  0  0  0  0  0  0  0  0  0  0  0
    2.3907   -3.1643   -4.2574 H   0  0  0  0  0  0  0  0  0  0  0  0
    4.1568   -1.3466   -4.3295 H   0  0  0  0  0  0  0  0  0  0  0  0
    2.6512   -0.8296   -3.6169 H   0  0  0  0  0  0  0  0  0  0  0  0
    5.1972   -1.6109   -2.1360 H   0  0  0  0  0  0  0  0  0  0  0  0
    4.5054   -0.0271   -2.2622 H   0  0  0  0  0  0  0  0  0  0  0  0
    4.7304    0.0144    0.0396 H   0  0  0  0  0  0  0  0  0  0  0  0
    3.2275   -0.2707    0.8264 H   0  0  0  0  0  0  0  0  0  0  0  0
    5.5487   -1.2640    1.6925 H   0  0  0  0  0  0  0  0  0  0  0  0
    6.1254   -2.5878   -0.2026 H   0  0  0  0  0  0  0  0  0  0  0  0
    6.8984   -4.0581    1.5772 H   0  0  0  0  0  0  0  0  0  0  0  0
    6.0260   -5.4236   -0.4547 H   0  0  0  0  0  0  0  0  0  0  0  0
    5.5932   -6.3060    1.0196 H   0  0  0  0  0  0  0  0  0  0  0  0
    3.3984   -5.6606   -0.2381 H   0  0  0  0  0  0  0  0  0  0  0  0
    4.7296   -3.8895   -1.3897 H   0  0  0  0  0  0  0  0  0  0  0  0
    2.2917   -2.7623   -0.0314 H   0  0  0  0  0  0  0  0  0  0  0  0
    1.3295   -2.6700   -2.1783 H   0  0  0  0  0  0  0  0  0  0  0  0
    1.9797   -4.2517   -2.0047 H   0  0  0  0  0  0  0  0  0  0  0  0
    3.2069   -5.7133    2.2224 H   0  0  0  0  0  0  0  0  0  0  0  0
    1.8656   -3.3904    2.1039 H   0  0  0  0  0  0  0  0  0  0  0  0
    2.7122   -2.7288    4.4325 H   0  0  0  0  0  0  0  0  0  0  0  0
    3.1345   -4.4780    4.3411 H   0  0  0  0  0  0  0  0  0  0  0  0
    3.3508   -1.4507    2.9183 H   0  0  0  0  0  0  0  0  0  0  0  0
    5.2971   -5.2037    3.1390 H   0  0  0  0  0  0  0  0  0  0  0  0
    2.5333   -0.8721   -1.0735 H   0  0  0  0  0  0  0  0  0  0  0  0
    5.1947   -2.8228    3.9156 H   0  0  0  0  0  0  0  0  0  0  0  0
  1 13  1  0
  1  2  1  0
  1 20  1  0
  1 21  1  0
  2  3  1  0
  2 22  1  0
  2 23  1  0
  3  4  1  0
  3 24  1  0
  3 25  1  0
  4 12  1  0
  4  5  1  0
  4 44  1  6
  5  6  1  0
  5 26  1  0
  5 27  1  0
  6 18  1  0
  6  7  1  0
  6 28  1  1
  7 11  1  0
  7  8  1  0
  7 29  1  6
  8 19  1  0
  8  9  1  0
  8 30  1  1
  9 10  1  0
  9 31  1  0
  9 32  1  0
 10 11  1  0
 10 14  1  0
 10 33  1  6
 11 12  1  0
 11 34  1  6
 12 13  1  0
 12 35  1  1
 13 36  1  0
 13 37  1  0
 14 19  1  0
 14 15  1  0
 14 38  1  1
 15 18  1  0
 15 16  1  0
 15 39  1  1
 16 17  1  0
 16 40  1  0
 16 41  1  0
 17 18  1  0
 17 19  1  0
 17 45  1  1
 18 42  1  1
 19 43  1  1
M  CHG  2   4   1  17   1
M  END
>  <i_m_ct_stereo_status>  (228) 
1

>  <s_m_source_file>  (228) 
/var/tmp/pbs.5076255.sched01/tmpqw5sdpkp/8220gfbieb.sdf

>  <i_m_source_file_index>  (228) 
13

>  <i_lp_mmshare_version>  (228) 
48012

>  <i_f3d_flags>  (228) 
0

>  <s_epik_input>  (228) 
W0NIMl0xW0NIMl1bQ0gyXVtDSDJdW0NASF0oTjEyKVtDQEhdM1tDQEhdNFtDQEBIXShbQ0gyXTIpW0NASF01W0NASF02W0NASF03W0NAQEhdM1tDSDJdW0NAQEhdNFtDQEhdN041W0NIMl02

>  <s_epik_cmdline>  (228) 
J2VwaWtfcHl0aG9uJywgJy1waHQnLCAnMi4wJywgJy1waCcsICc3LjAnLCAnLXRuJywgJzgnLCAnLW1hJywgJzIwMCcsICctaW1hZScsICc8aW5maWxlLm1hZT4nLCAnLW9tYWUnLCAnPG91dGZpbGUubWFlPic=

>  <r_epik_Ionization_Penalty>  (228) 
0.00783119

>  <r_epik_Ionization_Penalty_Charging>  (228) 
0.00783119

>  <r_epik_Ionization_Penalty_Neutral>  (228) 
0

>  <r_epik_State_Penalty>  (228) 
0.00563449

>  <r_epik_Charging_Adjusted_Penalty>  (228) 
0.0134657

>  <i_epik_Tot_Q>  (228) 
2

>  <i_epik_Tot_abs_Q>  (228) 
2

>  <s_lp_Force_Field>  (228) 
OPLS3e

>  <r_lp_Energy>  (228) 
116.235

>  <b_lp_Chiralities_Consistent>  (228) 
1

>  <s_lp_Variant>  (228) 
69:0-1

>  <s_i_glide_gridfile>  (228) 
pfpi4k_grid

>  <i_i_glide_lignum>  (228) 
13

>  <i_i_glide_rotatable_bonds>  (228) 
0

>  <r_i_docking_score>  (228) 
-4.69265

>  <r_i_glide_ligand_efficiency>  (228) 
-0.246982

>  <r_i_glide_ligand_efficiency_sa>  (228) 
-0.659046

>  <r_i_glide_ligand_efficiency_ln>  (228) 
-1.18969

>  <r_i_glide_gscore>  (228) 
-4.69265

>  <r_i_glide_lipo>  (228) 
-0.775534

>  <r_i_glide_hbond>  (228) 
-0.18569

>  <r_i_glide_metal>  (228) 
-0

>  <r_i_glide_rewards>  (228) 
-1.64726

>  <r_i_glide_evdw>  (228) 
-21.1817

>  <r_i_glide_ecoul>  (228) 
-6.1672

>  <r_i_glide_erotb>  (228) 
0

>  <r_i_glide_esite>  (228) 
-0.1

>  <r_i_glide_emodel>  (228) 
-35.7673

>  <r_i_glide_energy>  (228) 
-27.3489

>  <r_i_glide_einternal>  (228) 
0

>  <r_i_glide_intrahb_reward>  (228) 
-0

>  <i_i_glide_confnum>  (228) 
2

>  <i_i_glide_posenum>  (228) 
19

>  <r_i_glide_eff_state_penalty>  (228) 
0

>  <ligand_id>  (228) 
69

>  <original_smiles>  (228) 
C1CCN2CC3C4C5CC(C4C2C1)C1C2CN(C32)C51

>  <smiles>  (228) 
[H]C1([H])C([H])([H])C([H])([H])[N+]2([H])C([H])([H])C3([H])C4([H])C([H])(C5([H])C([H])([H])C4([H])C4([H])C5([H])C5([H])C([H])([H])[N+]4([H])C35[H])C2([H])C1([H])[H]

$$$$
69:0:1
     RDKit          3D

 45 51  0  0  1  0  0  0  0  0999 V2000
    3.8260   -2.5387    2.6601 C   0  0  0  0  0  0  0  0  0  0  0  0
    2.8999   -3.7637    2.6317 C   0  0  0  0  0  0  0  0  0  0  0  0
    2.7302   -4.3065    1.1958 C   0  0  0  0  0  0  0  0  0  0  0  0
    2.2447   -3.2455    0.2632 N   0  0  2  0  0  0  0  0  0  0  0  0
    1.8417   -3.7271   -1.0859 C   0  0  0  0  0  0  0  0  0  0  0  0
    2.8026   -3.4530   -2.2369 C   0  0  2  0  0  0  0  0  0  0  0  0
    4.2291   -3.4662   -1.7028 C   0  0  1  0  0  0  0  0  0  0  0  0
    5.2631   -3.0163   -2.7417 C   0  0  2  0  0  0  0  0  0  0  0  0
    6.2367   -2.2714   -1.8125 C   0  0  0  0  0  0  0  0  0  0  0  0
    5.1538   -1.3381   -1.2458 C   0  0  2  0  0  0  0  0  0  0  0  0
    4.4057   -2.4458   -0.5386 C   0  0  1  0  0  0  0  0  0  0  0  0
    3.1501   -2.0577    0.2234 C   0  0  2  0  0  0  0  0  0  0  0  0
    3.3554   -1.4830    1.6444 C   0  0  0  0  0  0  0  0  0  0  0  0
    4.4534   -0.7596   -2.5219 C   0  0  2  0  0  0  0  0  0  0  0  0
    2.9736   -0.8212   -2.8196 C   0  0  1  0  0  0  0  0  0  0  0  0
    2.8238   -0.6940   -4.3220 C   0  0  0  0  0  0  0  0  0  0  0  0
    3.3655   -2.0424   -4.1841 N   0  0  2  0  0  0  0  0  0  0  0  0
    2.4546   -2.2581   -3.0831 C   0  0  1  0  0  0  0  0  0  0  0  0
    4.6827   -1.8514   -3.5476 C   0  0  2  0  0  0  0  0  0  0  0  0
    4.8476   -2.8401    2.4269 H   0  0  0  0  0  0  0  0  0  0  0  0
    3.8503   -2.1111    3.6673 H   0  0  0  0  0  0  0  0  0  0  0  0
    3.3113   -4.5460    3.2736 H   0  0  0  0  0  0  0  0  0  0  0  0
    1.9318   -3.5024    3.0665 H   0  0  0  0  0  0  0  0  0  0  0  0
    3.6528   -4.7794    0.8447 H   0  0  0  0  0  0  0  0  0  0  0  0
    1.9753   -5.1042    1.2332 H   0  0  0  0  0  0  0  0  0  0  0  0
    1.5871   -4.7805   -1.0344 H   0  0  0  0  0  0  0  0  0  0  0  0
    0.8998   -3.2444   -1.3150 H   0  0  0  0  0  0  0  0  0  0  0  0
    2.6525   -4.2456   -2.9632 H   0  0  0  0  0  0  0  0  0  0  0  0
    4.4544   -4.4685   -1.3478 H   0  0  0  0  0  0  0  0  0  0  0  0
    5.6636   -3.8164   -3.3573 H   0  0  0  0  0  0  0  0  0  0  0  0
    6.7141   -2.9472   -1.1000 H   0  0  0  0  0  0  0  0  0  0  0  0
    7.0537   -1.7329   -2.2717 H   0  0  0  0  0  0  0  0  0  0  0  0
    5.5453   -0.5606   -0.5876 H   0  0  0  0  0  0  0  0  0  0  0  0
    5.0846   -2.9018    0.1859 H   0  0  0  0  0  0  0  0  0  0  0  0
    2.6178   -1.2629   -0.3113 H   0  0  0  0  0  0  0  0  0  0  0  0
    2.4107   -1.0706    1.9995 H   0  0  0  0  0  0  0  0  0  0  0  0
    4.0490   -0.6439    1.6232 H   0  0  0  0  0  0  0  0  0  0  0  0
    4.9017    0.1910   -2.8303 H   0  0  0  0  0  0  0  0  0  0  0  0
    2.2520   -0.1802   -2.3275 H   0  0  0  0  0  0  0  0  0  0  0  0
    1.8119   -0.5822   -4.7109 H   0  0  0  0  0  0  0  0  0  0  0  0
    3.4798    0.0508   -4.7998 H   0  0  0  0  0  0  0  0  0  0  0  0
    1.4265   -2.3832   -3.4542 H   0  0  0  0  0  0  0  0  0  0  0  0
    5.3369   -1.4901   -4.3133 H   0  0  0  0  0  0  0  0  0  0  0  0
    1.4670   -2.8640    0.7303 H   0  0  0  0  0  0  0  0  0  0  0  0
    3.1921   -2.6439   -4.9708 H   0  0  0  0  0  0  0  0  0  0  0  0
  1 13  1  0
  1  2  1  0
  1 20  1  0
  1 21  1  0
  2  3  1  0
  2 22  1  0
  2 23  1  0
  3  4  1  0
  3 24  1  0
  3 25  1  0
  4 12  1  0
  4  5  1  0
  4 44  1  1
  5  6  1  0
  5 26  1  0
  5 27  1  0
  6 18  1  0
  6  7  1  0
  6 28  1  6
  7 11  1  0
  7  8  1  0
  7 29  1  1
  8 19  1  0
  8  9  1  0
  8 30  1  6
  9 10  1  0
  9 31  1  0
  9 32  1  0
 10 11  1  0
 10 14  1  0
 10 33  1  1
 11 12  1  0
 11 34  1  1
 12 13  1  0
 12 35  1  6
 13 36  1  0
 13 37  1  0
 14 19  1  0
 14 15  1  0
 14 38  1  6
 15 18  1  0
 15 16  1  0
 15 39  1  1
 16 17  1  0
 16 40  1  0
 16 41  1  0
 17 18  1  0
 17 19  1  0
 17 45  1  6
 18 42  1  6
 19 43  1  6
M  CHG  2   4   1  17   1
M  END
>  <i_m_ct_stereo_status>  (229) 
1

>  <s_m_source_file>  (229) 
/var/tmp/pbs.5076255.sched01/tmpqw5sdpkp/8220gfbieb.sdf

>  <i_m_source_file_index>  (229) 
13

>  <i_lp_mmshare_version>  (229) 
48012

>  <i_f3d_flags>  (229) 
0

>  <s_epik_input>  (229) 
W0NIMl0xW0NIMl1bQ0gyXVtDSDJdW0NASF0oTjEyKVtDQEhdM1tDQEhdNFtDQEBIXShbQ0gyXTIpW0NASF01W0NASF02W0NASF03W0NAQEhdM1tDSDJdW0NAQEhdNFtDQEhdN041W0NIMl02

>  <s_epik_cmdline>  (229) 
J2VwaWtfcHl0aG9uJywgJy1waHQnLCAnMi4wJywgJy1waCcsICc3LjAnLCAnLXRuJywgJzgnLCAnLW1hJywgJzIwMCcsICctaW1hZScsICc8aW5maWxlLm1hZT4nLCAnLW9tYWUnLCAnPG91dGZpbGUubWFlPic=

>  <r_epik_Ionization_Penalty>  (229) 
0.00783119

>  <r_epik_Ionization_Penalty_Charging>  (229) 
0.00783119

>  <r_epik_Ionization_Penalty_Neutral>  (229) 
0

>  <r_epik_State_Penalty>  (229) 
0.00563449

>  <r_epik_Charging_Adjusted_Penalty>  (229) 
0.0134657

>  <i_epik_Tot_Q>  (229) 
2

>  <i_epik_Tot_abs_Q>  (229) 
2

>  <s_lp_Force_Field>  (229) 
OPLS3e

>  <r_lp_Energy>  (229) 
116.235

>  <b_lp_Chiralities_Consistent>  (229) 
1

>  <s_lp_Variant>  (229) 
69:0-1

>  <s_i_glide_gridfile>  (229) 
pfpi4k_grid

>  <i_i_glide_lignum>  (229) 
13

>  <i_i_glide_rotatable_bonds>  (229) 
0

>  <r_i_docking_score>  (229) 
-2.87325

>  <r_i_glide_ligand_efficiency>  (229) 
-0.151223

>  <r_i_glide_ligand_efficiency_sa>  (229) 
-0.403525

>  <r_i_glide_ligand_efficiency_ln>  (229) 
-0.72843

>  <r_i_glide_gscore>  (229) 
-2.87325

>  <r_i_glide_lipo>  (229) 
-0.461472

>  <r_i_glide_hbond>  (229) 
0

>  <r_i_glide_metal>  (229) 
-0

>  <r_i_glide_rewards>  (229) 
-1.64726

>  <r_i_glide_evdw>  (229) 
-3.90113

>  <r_i_glide_ecoul>  (229) 
-3.34867

>  <r_i_glide_erotb>  (229) 
0

>  <r_i_glide_esite>  (229) 
-0.0671563

>  <r_i_glide_emodel>  (229) 
-11.2167

>  <r_i_glide_energy>  (229) 
-7.2498

>  <r_i_glide_einternal>  (229) 
0

>  <r_i_glide_intrahb_reward>  (229) 
-0

>  <i_i_glide_confnum>  (229) 
2

>  <i_i_glide_posenum>  (229) 
6

>  <r_i_glide_eff_state_penalty>  (229) 
0

>  <ligand_id>  (229) 
69

>  <original_smiles>  (229) 
C1CCN2CC3C4C5CC(C4C2C1)C1C2CN(C32)C51

>  <smiles>  (229) 
[H]C1([H])C([H])([H])C([H])([H])[N+]2([H])C([H])([H])C3([H])C4([H])C([H])(C5([H])C([H])([H])C4([H])C4([H])C5([H])C5([H])C([H])([H])[N+]4([H])C35[H])C2([H])C1([H])[H]

$$$$
69:0:2
     RDKit          3D

 45 51  0  0  1  0  0  0  0  0999 V2000
    4.5113   -3.9465    2.1115 C   0  0  0  0  0  0  0  0  0  0  0  0
    3.4451   -5.0356    1.9409 C   0  0  0  0  0  0  0  0  0  0  0  0
    3.0083   -5.1744    0.4694 C   0  0  0  0  0  0  0  0  0  0  0  0
    2.5606   -3.8588   -0.0681 N   0  0  2  0  0  0  0  0  0  0  0  0
    1.8830   -3.8644   -1.3861 C   0  0  0  0  0  0  0  0  0  0  0  0
    2.8126   -3.4608   -2.5808 C   0  0  2  0  0  0  0  0  0  0  0  0
    4.3151   -3.7627   -2.2906 C   0  0  1  0  0  0  0  0  0  0  0  0
    5.2256   -3.2227   -3.3612 C   0  0  2  0  0  0  0  0  0  0  0  0
    6.3941   -2.8382   -2.4481 C   0  0  0  0  0  0  0  0  0  0  0  0
    5.5214   -1.9620   -1.5303 C   0  0  2  0  0  0  0  0  0  0  0  0
    4.7101   -3.0834   -0.9798 C   0  0  1  0  0  0  0  0  0  0  0  0
    3.5758   -2.7987    0.0132 C   0  0  2  0  0  0  0  0  0  0  0  0
    4.0428   -2.6351    1.4634 C   0  0  0  0  0  0  0  0  0  0  0  0
    4.7692   -1.0560   -2.5529 C   0  0  2  0  0  0  0  0  0  0  0  0
    3.2869   -0.8713   -2.6473 C   0  0  1  0  0  0  0  0  0  0  0  0
    2.9657   -0.3805   -4.0592 C   0  0  0  0  0  0  0  0  0  0  0  0
    3.2980   -1.7783   -4.2788 N   0  0  2  0  0  0  0  0  0  0  0  0
    2.5478   -2.1040   -3.1079 C   0  0  1  0  0  0  0  0  0  0  0  0
    4.6894   -1.8570   -3.8222 C   0  0  2  0  0  0  0  0  0  0  0  0
    5.4568   -4.2732    1.6823 H   0  0  0  0  0  0  0  0  0  0  0  0
    4.7054   -3.7772    3.1725 H   0  0  0  0  0  0  0  0  0  0  0  0
    3.8351   -5.9834    2.3137 H   0  0  0  0  0  0  0  0  0  0  0  0
    2.5835   -4.8007    2.5740 H   0  0  0  0  0  0  0  0  0  0  0  0
    3.8226   -5.6059   -0.1136 H   0  0  0  0  0  0  0  0  0  0  0  0
    2.2108   -5.9139    0.4322 H   0  0  0  0  0  0  0  0  0  0  0  0
    1.4737   -4.8616   -1.5094 H   0  0  0  0  0  0  0  0  0  0  0  0
    0.9577   -3.2949   -1.4152 H   0  0  0  0  0  0  0  0  0  0  0  0
    2.5125   -4.0978   -3.4156 H   0  0  0  0  0  0  0  0  0  0  0  0
    4.6373   -4.7921   -2.1814 H   0  0  0  0  0  0  0  0  0  0  0  0
    5.4515   -3.9064   -4.1757 H   0  0  0  0  0  0  0  0  0  0  0  0
    6.8736   -3.7031   -1.9714 H   0  0  0  0  0  0  0  0  0  0  0  0
    7.1863   -2.2654   -2.9282 H   0  0  0  0  0  0  0  0  0  0  0  0
    6.0903   -1.4165   -0.7901 H   0  0  0  0  0  0  0  0  0  0  0  0
    5.3794   -3.7954   -0.4906 H   0  0  0  0  0  0  0  0  0  0  0  0
    3.0600   -1.8887   -0.2559 H   0  0  0  0  0  0  0  0  0  0  0  0
    3.2173   -2.2275    2.0487 H   0  0  0  0  0  0  0  0  0  0  0  0
    4.8361   -1.8929    1.4977 H   0  0  0  0  0  0  0  0  0  0  0  0
    5.2841   -0.1046   -2.6845 H   0  0  0  0  0  0  0  0  0  0  0  0
    2.7556   -0.3725   -1.8838 H   0  0  0  0  0  0  0  0  0  0  0  0
    1.9490   -0.0678   -4.3186 H   0  0  0  0  0  0  0  0  0  0  0  0
    3.6704    0.3741   -4.4281 H   0  0  0  0  0  0  0  0  0  0  0  0
    1.5018   -2.0509   -3.3257 H   0  0  0  0  0  0  0  0  0  0  0  0
    5.1689   -1.2892   -4.5831 H   0  0  0  0  0  0  0  0  0  0  0  0
    1.8391   -3.5662    0.5653 H   0  0  0  0  0  0  0  0  0  0  0  0
    2.9662   -2.1346   -5.1408 H   0  0  0  0  0  0  0  0  0  0  0  0
  1 13  1  0
  1  2  1  0
  1 20  1  0
  1 21  1  0
  2  3  1  0
  2 22  1  0
  2 23  1  0
  3  4  1  0
  3 24  1  0
  3 25  1  0
  4 12  1  0
  4  5  1  0
  4 44  1  1
  5  6  1  0
  5 26  1  0
  5 27  1  0
  6 18  1  0
  6  7  1  0
  6 28  1  6
  7 11  1  0
  7  8  1  0
  7 29  1  1
  8 19  1  0
  8  9  1  0
  8 30  1  6
  9 10  1  0
  9 31  1  0
  9 32  1  0
 10 11  1  0
 10 14  1  0
 10 33  1  1
 11 12  1  0
 11 34  1  1
 12 13  1  0
 12 35  1  6
 13 36  1  0
 13 37  1  0
 14 19  1  0
 14 15  1  0
 14 38  1  6
 15 18  1  0
 15 16  1  0
 15 39  1  1
 16 17  1  0
 16 40  1  0
 16 41  1  0
 17 18  1  0
 17 19  1  0
 17 45  1  6
 18 42  1  6
 19 43  1  6
M  CHG  2   4   1  17   1
M  END
>  <i_m_ct_stereo_status>  (230) 
1

>  <s_m_source_file>  (230) 
/var/tmp/pbs.5076255.sched01/tmpqw5sdpkp/8220gfbieb.sdf

>  <i_m_source_file_index>  (230) 
13

>  <i_lp_mmshare_version>  (230) 
48012

>  <i_f3d_flags>  (230) 
0

>  <s_epik_input>  (230) 
W0NIMl0xW0NIMl1bQ0gyXVtDSDJdW0NASF0oTjEyKVtDQEhdM1tDQEhdNFtDQEBIXShbQ0gyXTIpW0NASF01W0NASF02W0NASF03W0NAQEhdM1tDSDJdW0NAQEhdNFtDQEhdN041W0NIMl02

>  <s_epik_cmdline>  (230) 
J2VwaWtfcHl0aG9uJywgJy1waHQnLCAnMi4wJywgJy1waCcsICc3LjAnLCAnLXRuJywgJzgnLCAnLW1hJywgJzIwMCcsICctaW1hZScsICc8aW5maWxlLm1hZT4nLCAnLW9tYWUnLCAnPG91dGZpbGUubWFlPic=

>  <r_epik_Ionization_Penalty>  (230) 
0.00783119

>  <r_epik_Ionization_Penalty_Charging>  (230) 
0.00783119

>  <r_epik_Ionization_Penalty_Neutral>  (230) 
0

>  <r_epik_State_Penalty>  (230) 
0.00563449

>  <r_epik_Charging_Adjusted_Penalty>  (230) 
0.0134657

>  <i_epik_Tot_Q>  (230) 
2

>  <i_epik_Tot_abs_Q>  (230) 
2

>  <s_lp_Force_Field>  (230) 
OPLS3e

>  <r_lp_Energy>  (230) 
116.235

>  <b_lp_Chiralities_Consistent>  (230) 
1

>  <s_lp_Variant>  (230) 
69:0-1

>  <s_i_glide_gridfile>  (230) 
pfpi4k_grid

>  <i_i_glide_lignum>  (230) 
13

>  <i_i_glide_rotatable_bonds>  (230) 
0

>  <r_i_docking_score>  (230) 
-2.70717

>  <r_i_glide_ligand_efficiency>  (230) 
-0.142482

>  <r_i_glide_ligand_efficiency_sa>  (230) 
-0.3802

>  <r_i_glide_ligand_efficiency_ln>  (230) 
-0.686325

>  <r_i_glide_gscore>  (230) 
-2.70717

>  <r_i_glide_lipo>  (230) 
-0.560225

>  <r_i_glide_hbond>  (230) 
0

>  <r_i_glide_metal>  (230) 
-0

>  <r_i_glide_rewards>  (230) 
-1.64726

>  <r_i_glide_evdw>  (230) 
4.11118

>  <r_i_glide_ecoul>  (230) 
-4.2838

>  <r_i_glide_erotb>  (230) 
0

>  <r_i_glide_esite>  (230) 
-0.0626692

>  <r_i_glide_emodel>  (230) 
-2.93203

>  <r_i_glide_energy>  (230) 
-0.172618

>  <r_i_glide_einternal>  (230) 
0

>  <r_i_glide_intrahb_reward>  (230) 
-0

>  <i_i_glide_confnum>  (230) 
1

>  <i_i_glide_posenum>  (230) 
2

>  <r_i_glide_eff_state_penalty>  (230) 
0

>  <ligand_id>  (230) 
69

>  <original_smiles>  (230) 
C1CCN2CC3C4C5CC(C4C2C1)C1C2CN(C32)C51

>  <smiles>  (230) 
[H]C1([H])C([H])([H])C([H])([H])[N+]2([H])C([H])([H])C3([H])C4([H])C([H])(C5([H])C([H])([H])C4([H])C4([H])C5([H])C5([H])C([H])([H])[N+]4([H])C35[H])C2([H])C1([H])[H]

$$$$
70:0:0
     RDKit          3D

 45 48  0  0  1  0  0  0  0  0999 V2000
    4.2737   -0.9126   -4.3388 C   0  0  0  0  0  0  0  0  0  0  0  0
    4.8569   -1.5443   -3.1207 N   0  0  2  0  0  0  0  0  0  0  0  0
    4.6830   -3.0028   -2.9347 C   0  0  2  0  0  0  0  0  0  0  0  0
    3.1687   -3.2409   -2.9731 C   0  0  0  0  0  0  0  0  0  0  0  0
    2.4100   -2.3997   -1.9685 C   0  0  0  0  0  0  0  0  0  0  0  0
    3.0228   -1.0146   -1.7028 C   0  0  0  0  0  0  0  0  0  0  0  0
    4.5094   -0.8886   -1.8583 C   0  0  1  0  0  0  0  0  0  0  0  0
    5.3987   -1.4155   -0.6832 C   0  0  1  0  0  0  0  0  0  0  0  0
    4.7847   -2.3479    0.3863 C   0  0  1  0  0  0  0  0  0  0  0  0
    4.5559   -3.6101   -0.4011 C   0  0  0  0  0  0  0  0  0  0  0  0
    3.8291   -4.6744   -0.0622 C   0  0  0  0  0  0  0  0  0  0  0  0
    2.9825   -4.8568    1.1865 C   0  0  0  0  0  0  0  0  0  0  0  0
    1.8784   -5.6972    0.9136 O   0  0  0  0  0  0  0  0  0  0  0  0
    5.4573   -3.4358   -1.6241 C   0  0  2  0  0  0  0  0  0  0  0  0
    6.3929   -2.3640   -1.1629 N   0  0  0  0  0  0  0  0  0  0  0  0
    7.1150   -2.7280    0.0770 C   0  0  1  0  0  0  0  0  0  0  0  0
    8.4273   -1.9313    0.3223 C   0  0  0  0  0  0  0  0  0  0  0  0
    9.5462   -2.7773    0.1822 O   0  0  0  0  0  0  0  0  0  0  0  0
    6.0390   -2.6252    1.2062 C   0  0  1  0  0  0  0  0  0  0  0  0
    6.1592   -1.5141    2.0738 O   0  0  0  0  0  0  0  0  0  0  0  0
    3.1877   -0.9548   -4.4154 H   0  0  0  0  0  0  0  0  0  0  0  0
    4.6284   -1.4547   -5.1914 H   0  0  0  0  0  0  0  0  0  0  0  0
    4.5720    0.1332   -4.4644 H   0  0  0  0  0  0  0  0  0  0  0  0
    5.1314   -3.4999   -3.7880 H   0  0  0  0  0  0  0  0  0  0  0  0
    2.7632   -3.0459   -3.9624 H   0  0  0  0  0  0  0  0  0  0  0  0
    2.8828   -4.2425   -2.7707 H   0  0  0  0  0  0  0  0  0  0  0  0
    1.4181   -2.3032   -2.3703 H   0  0  0  0  0  0  0  0  0  0  0  0
    2.2545   -2.8617   -1.0016 H   0  0  0  0  0  0  0  0  0  0  0  0
    2.5486   -0.3068   -2.3908 H   0  0  0  0  0  0  0  0  0  0  0  0
    2.7655   -0.6966   -0.6950 H   0  0  0  0  0  0  0  0  0  0  0  0
    4.7552    0.1465   -1.9994 H   0  0  0  0  0  0  0  0  0  0  0  0
    5.8751   -0.5510   -0.2034 H   0  0  0  0  0  0  0  0  0  0  0  0
    3.9294   -1.9794    0.9589 H   0  0  0  0  0  0  0  0  0  0  0  0
    3.8502   -5.5251   -0.7160 H   0  0  0  0  0  0  0  0  0  0  0  0
    3.5811   -5.3083    1.9798 H   0  0  0  0  0  0  0  0  0  0  0  0
    2.6130   -3.9020    1.5576 H   0  0  0  0  0  0  0  0  0  0  0  0
    2.2075   -6.5543    0.6715 H   0  0  0  0  0  0  0  0  0  0  0  0
    5.9744   -4.3631   -1.8133 H   0  0  0  0  0  0  0  0  0  0  0  0
    7.4048   -3.7768   -0.0247 H   0  0  0  0  0  0  0  0  0  0  0  0
    8.5609   -1.1340   -0.3834 H   0  0  0  0  0  0  0  0  0  0  0  0
    8.4654   -1.3805    1.2568 H   0  0  0  0  0  0  0  0  0  0  0  0
   10.1072   -2.3903   -0.4922 H   0  0  0  0  0  0  0  0  0  0  0  0
    5.9899   -3.5569    1.7777 H   0  0  0  0  0  0  0  0  0  0  0  0
    5.4859   -1.5745    2.7351 H   0  0  0  0  0  0  0  0  0  0  0  0
    5.8574   -1.4432   -3.1376 H   0  0  0  0  0  0  0  0  0  0  0  0
  1  2  1  0
  1 21  1  0
  1 22  1  0
  1 23  1  0
  2  7  1  0
  2  3  1  0
  2 45  1  6
  3 14  1  0
  3  4  1  0
  3 24  1  6
  4  5  1  0
  4 25  1  0
  4 26  1  0
  5  6  1  0
  5 27  1  0
  5 28  1  0
  6  7  1  0
  6 29  1  0
  6 30  1  0
  7  8  1  0
  7 31  1  6
  8 15  1  0
  8  9  1  0
  8 32  1  1
  9 19  1  0
  9 10  1  0
  9 33  1  1
 10 11  2  3
 10 14  1  0
 11 12  1  0
 11 34  1  0
 12 13  1  0
 12 35  1  0
 12 36  1  0
 13 37  1  0
 14 15  1  0
 14 38  1  6
 15 16  1  0
 16 17  1  0
 16 19  1  0
 16 39  1  6
 17 18  1  0
 17 40  1  0
 17 41  1  0
 18 42  1  0
 19 20  1  0
 19 43  1  1
 20 44  1  0
M  CHG  1   2   1
M  END
>  <i_m_ct_stereo_status>  (231) 
1

>  <s_m_source_file>  (231) 
/var/tmp/pbs.5076255.sched01/tmpqw5sdpkp/8220gfbieb.sdf

>  <i_m_source_file_index>  (231) 
14

>  <i_lp_mmshare_version>  (231) 
48012

>  <i_f3d_flags>  (231) 
0

>  <s_epik_input>  (231) 
W0NIMl0xW0NIMl1bQ0gyXVtDQEhdKE4yW0NIM10pW0NASF0oTjNbQ0BASF00W0NAQEhdMTIpW0NAQEhdKC9DND1bQ0hdXFtDSDJdW09IXSlbQ0BIXShbT0hdKVtDQEBIXTNbQ0gyXVtPSF0=

>  <s_epik_cmdline>  (231) 
J2VwaWtfcHl0aG9uJywgJy1waHQnLCAnMi4wJywgJy1waCcsICc3LjAnLCAnLXRuJywgJzgnLCAnLW1hJywgJzIwMCcsICctaW1hZScsICc8aW5maWxlLm1hZT4nLCAnLW9tYWUnLCAnPG91dGZpbGUubWFlPic=

>  <r_epik_Ionization_Penalty>  (231) 
0.0743436

>  <r_epik_Ionization_Penalty_Charging>  (231) 
0.0612249

>  <r_epik_Ionization_Penalty_Neutral>  (231) 
0.0131188

>  <r_epik_State_Penalty>  (231) 
0.144665

>  <r_epik_Charging_Adjusted_Penalty>  (231) 
0.20589

>  <i_epik_Tot_Q>  (231) 
1

>  <i_epik_Tot_abs_Q>  (231) 
1

>  <s_lp_Force_Field>  (231) 
OPLS3e

>  <r_lp_Energy>  (231) 
67.1253

>  <b_lp_Chiralities_Consistent>  (231) 
1

>  <s_lp_Variant>  (231) 
70:0-1

>  <s_i_glide_gridfile>  (231) 
pfpi4k_grid

>  <i_i_glide_lignum>  (231) 
14

>  <i_i_glide_rotatable_bonds>  (231) 
5

>  <r_i_docking_score>  (231) 
-3.53589

>  <r_i_glide_ligand_efficiency>  (231) 
-0.176794

>  <r_i_glide_ligand_efficiency_sa>  (231) 
-0.479894

>  <r_i_glide_ligand_efficiency_ln>  (231) 
-0.884916

>  <r_i_glide_gscore>  (231) 
-3.53589

>  <r_i_glide_lipo>  (231) 
-0.501005

>  <r_i_glide_hbond>  (231) 
-0.499076

>  <r_i_glide_metal>  (231) 
-0

>  <r_i_glide_rewards>  (231) 
-1.49065

>  <r_i_glide_evdw>  (231) 
-5.60166

>  <r_i_glide_ecoul>  (231) 
-7.19633

>  <r_i_glide_erotb>  (231) 
0.319645

>  <r_i_glide_esite>  (231) 
-0.00526271

>  <r_i_glide_emodel>  (231) 
-14.3522

>  <r_i_glide_energy>  (231) 
-12.798

>  <r_i_glide_einternal>  (231) 
7.1673

>  <r_i_glide_intrahb_reward>  (231) 
-0

>  <i_i_glide_confnum>  (231) 
6

>  <i_i_glide_posenum>  (231) 
28

>  <r_i_glide_eff_state_penalty>  (231) 
0

>  <ligand_id>  (231) 
70

>  <original_smiles>  (231) 
CN1C2CCCC1C1C3C(=CCO)C2N1C(CO)C3O

>  <smiles>  (231) 
[H]OC([H])([H])C([H])=C1C2([H])N3C([H])(C([H])([H])O[H])C([H])(O[H])C1([H])C3([H])C1([H])C([H])([H])C([H])([H])C([H])([H])C2([H])[N+]1([H])C([H])([H])[H]

$$$$
70:0:1
     RDKit          3D

 45 48  0  0  1  0  0  0  0  0999 V2000
    4.0669   -0.7688   -4.5365 C   0  0  0  0  0  0  0  0  0  0  0  0
    4.6867   -1.4426   -3.3734 N   0  0  2  0  0  0  0  0  0  0  0  0
    4.6057   -2.9068   -3.2615 C   0  0  2  0  0  0  0  0  0  0  0  0
    3.1156   -3.2239   -3.1889 C   0  0  0  0  0  0  0  0  0  0  0  0
    2.4155   -2.4395   -2.0852 C   0  0  0  0  0  0  0  0  0  0  0  0
    3.0034   -1.0414   -1.7984 C   0  0  0  0  0  0  0  0  0  0  0  0
    4.4471   -0.8322   -2.0800 C   0  0  1  0  0  0  0  0  0  0  0  0
    5.4516   -1.3740   -1.0104 C   0  0  1  0  0  0  0  0  0  0  0  0
    4.9797   -2.3673    0.0704 C   0  0  1  0  0  0  0  0  0  0  0  0
    4.7520   -3.5936   -0.7516 C   0  0  0  0  0  0  0  0  0  0  0  0
    4.1247   -4.7144   -0.3810 C   0  0  0  0  0  0  0  0  0  0  0  0
    3.3447   -4.9953    0.8943 C   0  0  0  0  0  0  0  0  0  0  0  0
    2.0378   -5.4398    0.5897 O   0  0  0  0  0  0  0  0  0  0  0  0
    5.5231   -3.3516   -2.0460 C   0  0  2  0  0  0  0  0  0  0  0  0
    6.4467   -2.2622   -1.6090 N   0  0  0  0  0  0  0  0  0  0  0  0
    7.2849   -2.6608   -0.4500 C   0  0  1  0  0  0  0  0  0  0  0  0
    8.5597   -1.8297   -0.2626 C   0  0  0  0  0  0  0  0  0  0  0  0
    9.5568   -2.4739    0.4809 O   0  0  0  0  0  0  0  0  0  0  0  0
    6.3112   -2.6486    0.7612 C   0  0  1  0  0  0  0  0  0  0  0  0
    6.5227   -1.6276    1.7050 O   0  0  0  0  0  0  0  0  0  0  0  0
    2.9687   -0.7954   -4.5714 H   0  0  0  0  0  0  0  0  0  0  0  0
    4.4217   -1.2265   -5.4592 H   0  0  0  0  0  0  0  0  0  0  0  0
    4.3741    0.2833   -4.6136 H   0  0  0  0  0  0  0  0  0  0  0  0
    5.0029   -3.3512   -4.1679 H   0  0  0  0  0  0  0  0  0  0  0  0
    2.6348   -2.9878   -4.1380 H   0  0  0  0  0  0  0  0  0  0  0  0
    2.9139   -4.2534   -3.0368 H   0  0  0  0  0  0  0  0  0  0  0  0
    1.3977   -2.3327   -2.4106 H   0  0  0  0  0  0  0  0  0  0  0  0
    2.3368   -2.9624   -1.1360 H   0  0  0  0  0  0  0  0  0  0  0  0
    2.4402   -0.3415   -2.4263 H   0  0  0  0  0  0  0  0  0  0  0  0
    2.8172   -0.7790   -0.7563 H   0  0  0  0  0  0  0  0  0  0  0  0
    4.6078    0.2290   -2.1929 H   0  0  0  0  0  0  0  0  0  0  0  0
    5.9245   -0.5128   -0.5220 H   0  0  0  0  0  0  0  0  0  0  0  0
    4.1578   -2.0782    0.7271 H   0  0  0  0  0  0  0  0  0  0  0  0
    4.2289   -5.5355   -1.0946 H   0  0  0  0  0  0  0  0  0  0  0  0
    3.8514   -5.7830    1.4422 H   0  0  0  0  0  0  0  0  0  0  0  0
    3.2944   -4.1231    1.5397 H   0  0  0  0  0  0  0  0  0  0  0  0
    2.0932   -6.1425   -0.0430 H   0  0  0  0  0  0  0  0  0  0  0  0
    6.0685   -4.2559   -2.3216 H   0  0  0  0  0  0  0  0  0  0  0  0
    7.6306   -3.6753   -0.6493 H   0  0  0  0  0  0  0  0  0  0  0  0
    9.0214   -1.6908   -1.2336 H   0  0  0  0  0  0  0  0  0  0  0  0
    8.3866   -0.8377    0.1435 H   0  0  0  0  0  0  0  0  0  0  0  0
   10.3499   -2.0077    0.2204 H   0  0  0  0  0  0  0  0  0  0  0  0
    6.3369   -3.6072    1.2769 H   0  0  0  0  0  0  0  0  0  0  0  0
    6.7096   -0.8034    1.2756 H   0  0  0  0  0  0  0  0  0  0  0  0
    5.6573   -1.3058   -3.4537 H   0  0  0  0  0  0  0  0  0  0  0  0
  1  2  1  0
  1 21  1  0
  1 22  1  0
  1 23  1  0
  2  7  1  0
  2  3  1  0
  2 45  1  6
  3 14  1  0
  3  4  1  0
  3 24  1  6
  4  5  1  0
  4 25  1  0
  4 26  1  0
  5  6  1  0
  5 27  1  0
  5 28  1  0
  6  7  1  0
  6 29  1  0
  6 30  1  0
  7  8  1  0
  7 31  1  6
  8 15  1  0
  8  9  1  0
  8 32  1  1
  9 19  1  0
  9 10  1  0
  9 33  1  1
 10 11  2  3
 10 14  1  0
 11 12  1  0
 11 34  1  0
 12 13  1  0
 12 35  1  0
 12 36  1  0
 13 37  1  0
 14 15  1  0
 14 38  1  6
 15 16  1  0
 16 17  1  0
 16 19  1  0
 16 39  1  6
 17 18  1  0
 17 40  1  0
 17 41  1  0
 18 42  1  0
 19 20  1  0
 19 43  1  1
 20 44  1  0
M  CHG  1   2   1
M  END
>  <i_m_ct_stereo_status>  (232) 
1

>  <s_m_source_file>  (232) 
/var/tmp/pbs.5076255.sched01/tmpqw5sdpkp/8220gfbieb.sdf

>  <i_m_source_file_index>  (232) 
14

>  <i_lp_mmshare_version>  (232) 
48012

>  <i_f3d_flags>  (232) 
0

>  <s_epik_input>  (232) 
W0NIMl0xW0NIMl1bQ0gyXVtDQEhdKE4yW0NIM10pW0NASF0oTjNbQ0BASF00W0NAQEhdMTIpW0NAQEhdKC9DND1bQ0hdXFtDSDJdW09IXSlbQ0BIXShbT0hdKVtDQEBIXTNbQ0gyXVtPSF0=

>  <s_epik_cmdline>  (232) 
J2VwaWtfcHl0aG9uJywgJy1waHQnLCAnMi4wJywgJy1waCcsICc3LjAnLCAnLXRuJywgJzgnLCAnLW1hJywgJzIwMCcsICctaW1hZScsICc8aW5maWxlLm1hZT4nLCAnLW9tYWUnLCAnPG91dGZpbGUubWFlPic=

>  <r_epik_Ionization_Penalty>  (232) 
0.0743436

>  <r_epik_Ionization_Penalty_Charging>  (232) 
0.0612249

>  <r_epik_Ionization_Penalty_Neutral>  (232) 
0.0131188

>  <r_epik_State_Penalty>  (232) 
0.144665

>  <r_epik_Charging_Adjusted_Penalty>  (232) 
0.20589

>  <i_epik_Tot_Q>  (232) 
1

>  <i_epik_Tot_abs_Q>  (232) 
1

>  <s_lp_Force_Field>  (232) 
OPLS3e

>  <r_lp_Energy>  (232) 
67.1253

>  <b_lp_Chiralities_Consistent>  (232) 
1

>  <s_lp_Variant>  (232) 
70:0-1

>  <s_i_glide_gridfile>  (232) 
pfpi4k_grid

>  <i_i_glide_lignum>  (232) 
14

>  <i_i_glide_rotatable_bonds>  (232) 
5

>  <r_i_docking_score>  (232) 
-3.49177

>  <r_i_glide_ligand_efficiency>  (232) 
-0.174589

>  <r_i_glide_ligand_efficiency_sa>  (232) 
-0.473907

>  <r_i_glide_ligand_efficiency_ln>  (232) 
-0.873876

>  <r_i_glide_gscore>  (232) 
-3.49177

>  <r_i_glide_lipo>  (232) 
-0.613399

>  <r_i_glide_hbond>  (232) 
-0.176031

>  <r_i_glide_metal>  (232) 
-0

>  <r_i_glide_rewards>  (232) 
-1.49065

>  <r_i_glide_evdw>  (232) 
-11.6932

>  <r_i_glide_ecoul>  (232) 
-6.31117

>  <r_i_glide_erotb>  (232) 
0.319645

>  <r_i_glide_esite>  (232) 
0

>  <r_i_glide_emodel>  (232) 
-20.6716

>  <r_i_glide_energy>  (232) 
-18.0043

>  <r_i_glide_einternal>  (232) 
1.48233

>  <r_i_glide_intrahb_reward>  (232) 
-0

>  <i_i_glide_confnum>  (232) 
6

>  <i_i_glide_posenum>  (232) 
19

>  <r_i_glide_eff_state_penalty>  (232) 
0

>  <ligand_id>  (232) 
70

>  <original_smiles>  (232) 
CN1C2CCCC1C1C3C(=CCO)C2N1C(CO)C3O

>  <smiles>  (232) 
[H]OC([H])([H])C([H])=C1C2([H])N3C([H])(C([H])([H])O[H])C([H])(O[H])C1([H])C3([H])C1([H])C([H])([H])C([H])([H])C([H])([H])C2([H])[N+]1([H])C([H])([H])[H]

$$$$
70:0:2
     RDKit          3D

 45 48  0  0  1  0  0  0  0  0999 V2000
    3.7783   -3.2334   -3.7716 C   0  0  0  0  0  0  0  0  0  0  0  0
    3.6284   -3.4420   -2.3065 N   0  0  2  0  0  0  0  0  0  0  0  0
    3.2576   -2.2545   -1.5003 C   0  0  2  0  0  0  0  0  0  0  0  0
    4.3988   -1.2082   -1.6545 C   0  0  0  0  0  0  0  0  0  0  0  0
    5.8188   -1.7884   -1.3750 C   0  0  0  0  0  0  0  0  0  0  0  0
    6.0197   -3.2843   -1.7073 C   0  0  0  0  0  0  0  0  0  0  0  0
    4.7364   -4.1349   -1.6080 C   0  0  1  0  0  0  0  0  0  0  0  0
    4.2336   -4.5526   -0.1694 C   0  0  1  0  0  0  0  0  0  0  0  0
    4.7468   -3.8364    1.0959 C   0  0  1  0  0  0  0  0  0  0  0  0
    4.0906   -2.4830    0.9557 C   0  0  0  0  0  0  0  0  0  0  0  0
    4.3704   -1.3457    1.6204 C   0  0  0  0  0  0  0  0  0  0  0  0
    5.4701   -1.1626    2.6521 C   0  0  0  0  0  0  0  0  0  0  0  0
    5.0144   -0.3449    3.7058 O   0  0  0  0  0  0  0  0  0  0  0  0
    2.9453   -2.7234   -0.0155 C   0  0  2  0  0  0  0  0  0  0  0  0
    2.8298   -4.2068    0.0442 N   0  0  0  0  0  0  0  0  0  0  0  0
    2.5611   -4.7115    1.4044 C   0  0  1  0  0  0  0  0  0  0  0  0
    1.9452   -6.1296    1.4253 C   0  0  0  0  0  0  0  0  0  0  0  0
    1.2699   -6.3344    2.6481 O   0  0  0  0  0  0  0  0  0  0  0  0
    3.9100   -4.5511    2.1660 C   0  0  1  0  0  0  0  0  0  0  0  0
    4.5113   -5.7661    2.5706 O   0  0  0  0  0  0  0  0  0  0  0  0
    4.6326   -2.6079   -4.0222 H   0  0  0  0  0  0  0  0  0  0  0  0
    2.8870   -2.7553   -4.1830 H   0  0  0  0  0  0  0  0  0  0  0  0
    3.9049   -4.1908   -4.2764 H   0  0  0  0  0  0  0  0  0  0  0  0
    2.3464   -1.8558   -1.9428 H   0  0  0  0  0  0  0  0  0  0  0  0
    4.3823   -0.8160   -2.6726 H   0  0  0  0  0  0  0  0  0  0  0  0
    4.2177   -0.3354   -1.0284 H   0  0  0  0  0  0  0  0  0  0  0  0
    6.5366   -1.2373   -1.9621 H   0  0  0  0  0  0  0  0  0  0  0  0
    6.1185   -1.6090   -0.3441 H   0  0  0  0  0  0  0  0  0  0  0  0
    6.3917   -3.3532   -2.7316 H   0  0  0  0  0  0  0  0  0  0  0  0
    6.8109   -3.7098   -1.0914 H   0  0  0  0  0  0  0  0  0  0  0  0
    4.9472   -5.0590   -2.1463 H   0  0  0  0  0  0  0  0  0  0  0  0
    4.3758   -5.6315   -0.0842 H   0  0  0  0  0  0  0  0  0  0  0  0
    5.8257   -3.8160    1.2648 H   0  0  0  0  0  0  0  0  0  0  0  0
    3.7820   -0.4645    1.4041 H   0  0  0  0  0  0  0  0  0  0  0  0
    5.8143   -2.1191    3.0487 H   0  0  0  0  0  0  0  0  0  0  0  0
    6.3228   -0.6632    2.1887 H   0  0  0  0  0  0  0  0  0  0  0  0
    4.2226   -0.7118    4.0679 H   0  0  0  0  0  0  0  0  0  0  0  0
    2.0434   -2.2539    0.3806 H   0  0  0  0  0  0  0  0  0  0  0  0
    1.8240   -4.0454    1.8606 H   0  0  0  0  0  0  0  0  0  0  0  0
    1.2017   -6.2268    0.6340 H   0  0  0  0  0  0  0  0  0  0  0  0
    2.6736   -6.9239    1.2481 H   0  0  0  0  0  0  0  0  0  0  0  0
    1.9132   -6.4616    3.3307 H   0  0  0  0  0  0  0  0  0  0  0  0
    3.7867   -3.9431    3.0631 H   0  0  0  0  0  0  0  0  0  0  0  0
    4.6322   -6.3202    1.8162 H   0  0  0  0  0  0  0  0  0  0  0  0
    2.8526   -4.0826   -2.1964 H   0  0  0  0  0  0  0  0  0  0  0  0
  1  2  1  0
  1 21  1  0
  1 22  1  0
  1 23  1  0
  2  7  1  0
  2  3  1  0
  2 45  1  6
  3 14  1  0
  3  4  1  0
  3 24  1  6
  4  5  1  0
  4 25  1  0
  4 26  1  0
  5  6  1  0
  5 27  1  0
  5 28  1  0
  6  7  1  0
  6 29  1  0
  6 30  1  0
  7  8  1  0
  7 31  1  6
  8 15  1  0
  8  9  1  0
  8 32  1  1
  9 19  1  0
  9 10  1  0
  9 33  1  1
 10 11  2  3
 10 14  1  0
 11 12  1  0
 11 34  1  0
 12 13  1  0
 12 35  1  0
 12 36  1  0
 13 37  1  0
 14 15  1  0
 14 38  1  1
 15 16  1  0
 16 17  1  0
 16 19  1  0
 16 39  1  1
 17 18  1  0
 17 40  1  0
 17 41  1  0
 18 42  1  0
 19 20  1  0
 19 43  1  1
 20 44  1  0
M  CHG  1   2   1
M  END
>  <i_m_ct_stereo_status>  (233) 
1

>  <s_m_source_file>  (233) 
/var/tmp/pbs.5076255.sched01/tmpqw5sdpkp/8220gfbieb.sdf

>  <i_m_source_file_index>  (233) 
14

>  <i_lp_mmshare_version>  (233) 
48012

>  <i_f3d_flags>  (233) 
0

>  <s_epik_input>  (233) 
W0NIMl0xW0NIMl1bQ0gyXVtDQEhdKE4yW0NIM10pW0NASF0oTjNbQ0BASF00W0NAQEhdMTIpW0NAQEhdKC9DND1bQ0hdXFtDSDJdW09IXSlbQ0BIXShbT0hdKVtDQEBIXTNbQ0gyXVtPSF0=

>  <s_epik_cmdline>  (233) 
J2VwaWtfcHl0aG9uJywgJy1waHQnLCAnMi4wJywgJy1waCcsICc3LjAnLCAnLXRuJywgJzgnLCAnLW1hJywgJzIwMCcsICctaW1hZScsICc8aW5maWxlLm1hZT4nLCAnLW9tYWUnLCAnPG91dGZpbGUubWFlPic=

>  <r_epik_Ionization_Penalty>  (233) 
0.0743436

>  <r_epik_Ionization_Penalty_Charging>  (233) 
0.0612249

>  <r_epik_Ionization_Penalty_Neutral>  (233) 
0.0131188

>  <r_epik_State_Penalty>  (233) 
0.144665

>  <r_epik_Charging_Adjusted_Penalty>  (233) 
0.20589

>  <i_epik_Tot_Q>  (233) 
1

>  <i_epik_Tot_abs_Q>  (233) 
1

>  <s_lp_Force_Field>  (233) 
OPLS3e

>  <r_lp_Energy>  (233) 
67.1253

>  <b_lp_Chiralities_Consistent>  (233) 
1

>  <s_lp_Variant>  (233) 
70:0-1

>  <s_i_glide_gridfile>  (233) 
pfpi4k_grid

>  <i_i_glide_lignum>  (233) 
14

>  <i_i_glide_rotatable_bonds>  (233) 
5

>  <r_i_docking_score>  (233) 
-3.10201

>  <r_i_glide_ligand_efficiency>  (233) 
-0.1551

>  <r_i_glide_ligand_efficiency_sa>  (233) 
-0.421007

>  <r_i_glide_ligand_efficiency_ln>  (233) 
-0.77633

>  <r_i_glide_gscore>  (233) 
-3.10201

>  <r_i_glide_lipo>  (233) 
-0.45605

>  <r_i_glide_hbond>  (233) 
0

>  <r_i_glide_metal>  (233) 
-0

>  <r_i_glide_rewards>  (233) 
-1.49065

>  <r_i_glide_evdw>  (233) 
-17.7885

>  <r_i_glide_ecoul>  (233) 
-4.63656

>  <r_i_glide_erotb>  (233) 
0.456636

>  <r_i_glide_esite>  (233) 
-0.0270267

>  <r_i_glide_emodel>  (233) 
-26.4254

>  <r_i_glide_energy>  (233) 
-22.4251

>  <r_i_glide_einternal>  (233) 
1.1742

>  <r_i_glide_intrahb_reward>  (233) 
-0

>  <i_i_glide_confnum>  (233) 
1

>  <i_i_glide_posenum>  (233) 
7

>  <r_i_glide_eff_state_penalty>  (233) 
0

>  <ligand_id>  (233) 
70

>  <original_smiles>  (233) 
CN1C2CCCC1C1C3C(=CCO)C2N1C(CO)C3O

>  <smiles>  (233) 
[H]OC([H])([H])C([H])=C1C2([H])N3C([H])(C([H])([H])O[H])C([H])(O[H])C1([H])C3([H])C1([H])C([H])([H])C([H])([H])C([H])([H])C2([H])[N+]1([H])C([H])([H])[H]

$$$$
70:1:0
     RDKit          3D

 45 48  0  0  1  0  0  0  0  0999 V2000
    3.3495   -6.1773    3.0341 C   0  0  0  0  0  0  0  0  0  0  0  0
    3.7945   -4.9019    2.4123 N   0  0  2  0  0  0  0  0  0  0  0  0
    2.9697   -4.3777    1.2972 C   0  0  2  0  0  0  0  0  0  0  0  0
    3.0033   -5.4431    0.1699 C   0  0  0  0  0  0  0  0  0  0  0  0
    4.4365   -5.8980   -0.2470 C   0  0  0  0  0  0  0  0  0  0  0  0
    5.4904   -5.8685    0.8901 C   0  0  0  0  0  0  0  0  0  0  0  0
    5.2142   -4.8201    1.9941 C   0  0  1  0  0  0  0  0  0  0  0  0
    5.5514   -3.3086    1.7002 C   0  0  1  0  0  0  0  0  0  0  0  0
    5.7740   -2.8105    0.2631 C   0  0  1  0  0  0  0  0  0  0  0  0
    4.3726   -2.8927   -0.2926 C   0  0  0  0  0  0  0  0  0  0  0  0
    4.0325   -2.7908   -1.5889 C   0  0  0  0  0  0  0  0  0  0  0  0
    2.6325   -2.7709   -2.1672 C   0  0  0  0  0  0  0  0  0  0  0  0
    2.6301   -3.4543   -3.4005 O   0  0  0  0  0  0  0  0  0  0  0  0
    3.4704   -2.9235    0.9299 C   0  0  2  0  0  0  0  0  0  0  0  0
    4.4121   -2.4268    1.9765 N   0  0  0  0  0  0  0  0  0  0  0  0
    4.9622   -1.0846    1.6816 C   0  0  1  0  0  0  0  0  0  0  0  0
    5.5136   -0.3669    2.9330 C   0  0  0  0  0  0  0  0  0  0  0  0
    4.4465    0.0872    3.7330 O   0  0  0  0  0  0  0  0  0  0  0  0
    5.9933   -1.3118    0.5348 C   0  0  1  0  0  0  0  0  0  0  0  0
    7.3464   -1.0731    0.8683 O   0  0  0  0  0  0  0  0  0  0  0  0
    3.4477   -7.0366    2.3735 H   0  0  0  0  0  0  0  0  0  0  0  0
    2.3049   -6.1119    3.3294 H   0  0  0  0  0  0  0  0  0  0  0  0
    3.9297   -6.3908    3.9289 H   0  0  0  0  0  0  0  0  0  0  0  0
    1.9506   -4.2807    1.6625 H   0  0  0  0  0  0  0  0  0  0  0  0
    2.4516   -6.3224    0.5024 H   0  0  0  0  0  0  0  0  0  0  0  0
    2.4495   -5.1036   -0.6983 H   0  0  0  0  0  0  0  0  0  0  0  0
    4.3854   -6.9036   -0.6683 H   0  0  0  0  0  0  0  0  0  0  0  0
    4.8022   -5.2932   -1.0746 H   0  0  0  0  0  0  0  0  0  0  0  0
    5.4992   -6.8584    1.3518 H   0  0  0  0  0  0  0  0  0  0  0  0
    6.4931   -5.7366    0.4826 H   0  0  0  0  0  0  0  0  0  0  0  0
    5.8118   -5.1025    2.8587 H   0  0  0  0  0  0  0  0  0  0  0  0
    6.4090   -3.0443    2.3185 H   0  0  0  0  0  0  0  0  0  0  0  0
    6.5439   -3.3041   -0.3359 H   0  0  0  0  0  0  0  0  0  0  0  0
    4.8264   -2.6711   -2.3111 H   0  0  0  0  0  0  0  0  0  0  0  0
    1.8833   -3.1865   -1.4913 H   0  0  0  0  0  0  0  0  0  0  0  0
    2.3337   -1.7388   -2.3398 H   0  0  0  0  0  0  0  0  0  0  0  0
    2.6140   -4.3974   -3.2304 H   0  0  0  0  0  0  0  0  0  0  0  0
    2.6308   -2.2427    0.7818 H   0  0  0  0  0  0  0  0  0  0  0  0
    4.1609   -0.4595    1.2833 H   0  0  0  0  0  0  0  0  0  0  0  0
    6.1767   -1.0047    3.5165 H   0  0  0  0  0  0  0  0  0  0  0  0
    6.0815    0.5196    2.6706 H   0  0  0  0  0  0  0  0  0  0  0  0
    3.9156   -0.6587    3.9666 H   0  0  0  0  0  0  0  0  0  0  0  0
    5.7573   -0.6932   -0.3304 H   0  0  0  0  0  0  0  0  0  0  0  0
    7.4503   -0.1878    1.2163 H   0  0  0  0  0  0  0  0  0  0  0  0
    3.7211   -4.1853    3.1186 H   0  0  0  0  0  0  0  0  0  0  0  0
  1  2  1  0
  1 21  1  0
  1 22  1  0
  1 23  1  0
  2  7  1  0
  2  3  1  0
  2 45  1  1
  3 14  1  0
  3  4  1  0
  3 24  1  1
  4  5  1  0
  4 25  1  0
  4 26  1  0
  5  6  1  0
  5 27  1  0
  5 28  1  0
  6  7  1  0
  6 29  1  0
  6 30  1  0
  7  8  1  0
  7 31  1  1
  8 15  1  0
  8  9  1  0
  8 32  1  1
  9 19  1  0
  9 10  1  0
  9 33  1  6
 10 11  2  3
 10 14  1  0
 11 12  1  0
 11 34  1  0
 12 13  1  0
 12 35  1  0
 12 36  1  0
 13 37  1  0
 14 15  1  0
 14 38  1  6
 15 16  1  0
 16 17  1  0
 16 19  1  0
 16 39  1  6
 17 18  1  0
 17 40  1  0
 17 41  1  0
 18 42  1  0
 19 20  1  0
 19 43  1  6
 20 44  1  0
M  CHG  1   2   1
M  END
>  <i_m_ct_stereo_status>  (234) 
1

>  <s_m_source_file>  (234) 
/var/tmp/pbs.5076255.sched01/tmpqw5sdpkp/8220gfbieb.sdf

>  <i_m_source_file_index>  (234) 
15

>  <i_lp_mmshare_version>  (234) 
48012

>  <i_f3d_flags>  (234) 
0

>  <s_epik_input>  (234) 
W0NIMl0xW0NIMl1bQ0gyXVtDQEhdKE4yW0NIM10pW0NASF0oTjNbQ0BASF00W0NAQEhdMTIpW0NAQEhdKC9DND1bQ0hdXFtDSDJdW09IXSlbQ0BIXShbT0hdKVtDQEBIXTNbQ0gyXVtPSF0=

>  <s_epik_cmdline>  (234) 
J2VwaWtfcHl0aG9uJywgJy1waHQnLCAnMi4wJywgJy1waCcsICc3LjAnLCAnLXRuJywgJzgnLCAnLW1hJywgJzIwMCcsICctaW1hZScsICc8aW5maWxlLm1hZT4nLCAnLW9tYWUnLCAnPG91dGZpbGUubWFlPic=

>  <r_epik_Ionization_Penalty>  (234) 
0.0743436

>  <r_epik_Ionization_Penalty_Charging>  (234) 
0.0612249

>  <r_epik_Ionization_Penalty_Neutral>  (234) 
0.0131188

>  <r_epik_State_Penalty>  (234) 
0.144665

>  <r_epik_Charging_Adjusted_Penalty>  (234) 
0.20589

>  <i_epik_Tot_Q>  (234) 
1

>  <i_epik_Tot_abs_Q>  (234) 
1

>  <s_lp_Force_Field>  (234) 
OPLS3e

>  <r_lp_Energy>  (234) 
66.4241

>  <b_lp_Chiralities_Consistent>  (234) 
1

>  <s_lp_Variant>  (234) 
70:0-2

>  <s_i_glide_gridfile>  (234) 
pfpi4k_grid

>  <i_i_glide_lignum>  (234) 
15

>  <i_i_glide_rotatable_bonds>  (234) 
5

>  <r_i_docking_score>  (234) 
-4.47658

>  <r_i_glide_ligand_efficiency>  (234) 
-0.223829

>  <r_i_glide_ligand_efficiency_sa>  (234) 
-0.607565

>  <r_i_glide_ligand_efficiency_ln>  (234) 
-1.12034

>  <r_i_glide_gscore>  (234) 
-4.47658

>  <r_i_glide_lipo>  (234) 
-0.551647

>  <r_i_glide_hbond>  (234) 
-0.608

>  <r_i_glide_metal>  (234) 
-0

>  <r_i_glide_rewards>  (234) 
-1.49065

>  <r_i_glide_evdw>  (234) 
-14.4452

>  <r_i_glide_ecoul>  (234) 
-10.4043

>  <r_i_glide_erotb>  (234) 
0.456636

>  <r_i_glide_esite>  (234) 
0

>  <r_i_glide_emodel>  (234) 
-30.1122

>  <r_i_glide_energy>  (234) 
-24.8496

>  <r_i_glide_einternal>  (234) 
4.38916

>  <r_i_glide_intrahb_reward>  (234) 
-0

>  <i_i_glide_confnum>  (234) 
3

>  <i_i_glide_posenum>  (234) 
38

>  <r_i_glide_eff_state_penalty>  (234) 
0

>  <ligand_id>  (234) 
70

>  <original_smiles>  (234) 
CN1C2CCCC1C1C3C(=CCO)C2N1C(CO)C3O

>  <smiles>  (234) 
[H]OC([H])([H])C([H])=C1C2([H])N3C([H])(C([H])([H])O[H])C([H])(O[H])C1([H])C3([H])C1([H])C([H])([H])C([H])([H])C([H])([H])C2([H])[N+]1([H])C([H])([H])[H]

$$$$
70:1:1
     RDKit          3D

 45 48  0  0  1  0  0  0  0  0999 V2000
    3.4782   -6.8475    2.1528 C   0  0  0  0  0  0  0  0  0  0  0  0
    3.6649   -5.4344    1.7322 N   0  0  2  0  0  0  0  0  0  0  0  0
    3.6907   -5.1666    0.2737 C   0  0  2  0  0  0  0  0  0  0  0  0
    4.9007   -5.9485   -0.3042 C   0  0  0  0  0  0  0  0  0  0  0  0
    6.2509   -5.6847    0.4339 C   0  0  0  0  0  0  0  0  0  0  0  0
    6.1309   -5.3666    1.9401 C   0  0  0  0  0  0  0  0  0  0  0  0
    4.7963   -4.7015    2.3465 C   0  0  1  0  0  0  0  0  0  0  0  0
    4.6079   -3.1668    2.0479 C   0  0  1  0  0  0  0  0  0  0  0  0
    5.5218   -2.4431    1.0421 C   0  0  1  0  0  0  0  0  0  0  0  0
    5.0457   -3.0264   -0.2642 C   0  0  0  0  0  0  0  0  0  0  0  0
    5.6537   -2.8968   -1.4583 C   0  0  0  0  0  0  0  0  0  0  0  0
    5.1294   -3.3790   -2.7942 C   0  0  0  0  0  0  0  0  0  0  0  0
    4.6179   -2.2967   -3.5305 O   0  0  0  0  0  0  0  0  0  0  0  0
    3.6741   -3.6007    0.0428 C   0  0  2  0  0  0  0  0  0  0  0  0
    3.3632   -2.8958    1.3235 N   0  0  0  0  0  0  0  0  0  0  0  0
    3.3783   -1.4233    1.1977 C   0  0  1  0  0  0  0  0  0  0  0  0
    2.5888   -0.6943    2.3097 C   0  0  0  0  0  0  0  0  0  0  0  0
    1.1993   -0.8302    2.0730 O   0  0  0  0  0  0  0  0  0  0  0  0
    4.8890   -1.0466    1.0939 C   0  0  1  0  0  0  0  0  0  0  0  0
    5.3986   -0.3258    2.1984 O   0  0  0  0  0  0  0  0  0  0  0  0
    4.3323   -7.4851    1.9101 H   0  0  0  0  0  0  0  0  0  0  0  0
    2.6009   -7.2794    1.6660 H   0  0  0  0  0  0  0  0  0  0  0  0
    3.3224   -6.9104    3.2314 H   0  0  0  0  0  0  0  0  0  0  0  0
    2.7727   -5.5695   -0.1586 H   0  0  0  0  0  0  0  0  0  0  0  0
    4.6689   -7.0141   -0.2575 H   0  0  0  0  0  0  0  0  0  0  0  0
    5.0108   -5.7544   -1.3664 H   0  0  0  0  0  0  0  0  0  0  0  0
    6.9150   -6.5395    0.3268 H   0  0  0  0  0  0  0  0  0  0  0  0
    6.7889   -4.8716   -0.0458 H   0  0  0  0  0  0  0  0  0  0  0  0
    6.2233   -6.3124    2.4781 H   0  0  0  0  0  0  0  0  0  0  0  0
    6.9787   -4.7659    2.2683 H   0  0  0  0  0  0  0  0  0  0  0  0
    4.7054   -4.8132    3.4262 H   0  0  0  0  0  0  0  0  0  0  0  0
    4.6181   -2.6500    3.0104 H   0  0  0  0  0  0  0  0  0  0  0  0
    6.5994   -2.4759    1.2129 H   0  0  0  0  0  0  0  0  0  0  0  0
    6.5981   -2.3830   -1.4921 H   0  0  0  0  0  0  0  0  0  0  0  0
    5.9528   -3.8299   -3.3495 H   0  0  0  0  0  0  0  0  0  0  0  0
    4.3529   -4.1357   -2.6870 H   0  0  0  0  0  0  0  0  0  0  0  0
    3.7966   -2.0302   -3.1355 H   0  0  0  0  0  0  0  0  0  0  0  0
    2.9737   -3.3348   -0.7495 H   0  0  0  0  0  0  0  0  0  0  0  0
    2.9060   -1.1488    0.2546 H   0  0  0  0  0  0  0  0  0  0  0  0
    2.8207   -1.0846    3.3033 H   0  0  0  0  0  0  0  0  0  0  0  0
    2.8236    0.3713    2.3185 H   0  0  0  0  0  0  0  0  0  0  0  0
    1.0276   -0.6551    1.1474 H   0  0  0  0  0  0  0  0  0  0  0  0
    5.0819   -0.4616    0.1946 H   0  0  0  0  0  0  0  0  0  0  0  0
    6.3367   -0.2405    2.1008 H   0  0  0  0  0  0  0  0  0  0  0  0
    2.8609   -4.9132    2.0548 H   0  0  0  0  0  0  0  0  0  0  0  0
  1  2  1  0
  1 21  1  0
  1 22  1  0
  1 23  1  0
  2  7  1  0
  2  3  1  0
  2 45  1  1
  3 14  1  0
  3  4  1  0
  3 24  1  6
  4  5  1  0
  4 25  1  0
  4 26  1  0
  5  6  1  0
  5 27  1  0
  5 28  1  0
  6  7  1  0
  6 29  1  0
  6 30  1  0
  7  8  1  0
  7 31  1  1
  8 15  1  0
  8  9  1  0
  8 32  1  1
  9 19  1  0
  9 10  1  0
  9 33  1  1
 10 11  2  3
 10 14  1  0
 11 12  1  0
 11 34  1  0
 12 13  1  0
 12 35  1  0
 12 36  1  0
 13 37  1  0
 14 15  1  0
 14 38  1  6
 15 16  1  0
 16 17  1  0
 16 19  1  0
 16 39  1  6
 17 18  1  0
 17 40  1  0
 17 41  1  0
 18 42  1  0
 19 20  1  0
 19 43  1  6
 20 44  1  0
M  CHG  1   2   1
M  END
>  <i_m_ct_stereo_status>  (235) 
1

>  <s_m_source_file>  (235) 
/var/tmp/pbs.5076255.sched01/tmpqw5sdpkp/8220gfbieb.sdf

>  <i_m_source_file_index>  (235) 
15

>  <i_lp_mmshare_version>  (235) 
48012

>  <i_f3d_flags>  (235) 
0

>  <s_epik_input>  (235) 
W0NIMl0xW0NIMl1bQ0gyXVtDQEhdKE4yW0NIM10pW0NASF0oTjNbQ0BASF00W0NAQEhdMTIpW0NAQEhdKC9DND1bQ0hdXFtDSDJdW09IXSlbQ0BIXShbT0hdKVtDQEBIXTNbQ0gyXVtPSF0=

>  <s_epik_cmdline>  (235) 
J2VwaWtfcHl0aG9uJywgJy1waHQnLCAnMi4wJywgJy1waCcsICc3LjAnLCAnLXRuJywgJzgnLCAnLW1hJywgJzIwMCcsICctaW1hZScsICc8aW5maWxlLm1hZT4nLCAnLW9tYWUnLCAnPG91dGZpbGUubWFlPic=

>  <r_epik_Ionization_Penalty>  (235) 
0.0743436

>  <r_epik_Ionization_Penalty_Charging>  (235) 
0.0612249

>  <r_epik_Ionization_Penalty_Neutral>  (235) 
0.0131188

>  <r_epik_State_Penalty>  (235) 
0.144665

>  <r_epik_Charging_Adjusted_Penalty>  (235) 
0.20589

>  <i_epik_Tot_Q>  (235) 
1

>  <i_epik_Tot_abs_Q>  (235) 
1

>  <s_lp_Force_Field>  (235) 
OPLS3e

>  <r_lp_Energy>  (235) 
66.4241

>  <b_lp_Chiralities_Consistent>  (235) 
1

>  <s_lp_Variant>  (235) 
70:0-2

>  <s_i_glide_gridfile>  (235) 
pfpi4k_grid

>  <i_i_glide_lignum>  (235) 
15

>  <i_i_glide_rotatable_bonds>  (235) 
5

>  <r_i_docking_score>  (235) 
-4.00369

>  <r_i_glide_ligand_efficiency>  (235) 
-0.200184

>  <r_i_glide_ligand_efficiency_sa>  (235) 
-0.543384

>  <r_i_glide_ligand_efficiency_ln>  (235) 
-1.00199

>  <r_i_glide_gscore>  (235) 
-4.00369

>  <r_i_glide_lipo>  (235) 
-0.615667

>  <r_i_glide_hbond>  (235) 
-0.422902

>  <r_i_glide_metal>  (235) 
-0

>  <r_i_glide_rewards>  (235) 
-1.49065

>  <r_i_glide_evdw>  (235) 
-17.0914

>  <r_i_glide_ecoul>  (235) 
-7.17684

>  <r_i_glide_erotb>  (235) 
0.456636

>  <r_i_glide_esite>  (235) 
0

>  <r_i_glide_emodel>  (235) 
-28.3486

>  <r_i_glide_energy>  (235) 
-24.2682

>  <r_i_glide_einternal>  (235) 
5.10422

>  <r_i_glide_intrahb_reward>  (235) 
-0

>  <i_i_glide_confnum>  (235) 
6

>  <i_i_glide_posenum>  (235) 
12

>  <r_i_glide_eff_state_penalty>  (235) 
0

>  <ligand_id>  (235) 
70

>  <original_smiles>  (235) 
CN1C2CCCC1C1C3C(=CCO)C2N1C(CO)C3O

>  <smiles>  (235) 
[H]OC([H])([H])C([H])=C1C2([H])N3C([H])(C([H])([H])O[H])C([H])(O[H])C1([H])C3([H])C1([H])C([H])([H])C([H])([H])C([H])([H])C2([H])[N+]1([H])C([H])([H])[H]

$$$$
70:1:2
     RDKit          3D

 45 48  0  0  1  0  0  0  0  0999 V2000
    4.7798   -6.1925    0.3770 C   0  0  0  0  0  0  0  0  0  0  0  0
    4.3601   -4.7900    0.6172 N   0  0  2  0  0  0  0  0  0  0  0  0
    3.7808   -4.0646   -0.5376 C   0  0  2  0  0  0  0  0  0  0  0  0
    4.8754   -4.0260   -1.6435 C   0  0  0  0  0  0  0  0  0  0  0  0
    6.2475   -3.4550   -1.1726 C   0  0  0  0  0  0  0  0  0  0  0  0
    6.5952   -3.7464    0.3109 C   0  0  0  0  0  0  0  0  0  0  0  0
    5.3645   -3.8971    1.2442 C   0  0  1  0  0  0  0  0  0  0  0  0
    4.6239   -2.5888    1.7173 C   0  0  1  0  0  0  0  0  0  0  0  0
    4.8362   -1.2487    0.9899 C   0  0  1  0  0  0  0  0  0  0  0  0
    4.1255   -1.5012   -0.3222 C   0  0  0  0  0  0  0  0  0  0  0  0
    4.2101   -0.7451   -1.4371 C   0  0  0  0  0  0  0  0  0  0  0  0
    3.4108   -0.9039   -2.7214 C   0  0  0  0  0  0  0  0  0  0  0  0
    3.6841    0.1449   -3.6218 O   0  0  0  0  0  0  0  0  0  0  0  0
    3.2080   -2.6790   -0.0329 C   0  0  2  0  0  0  0  0  0  0  0  0
    3.1819   -2.6509    1.4613 N   0  0  0  0  0  0  0  0  0  0  0  0
    2.6890   -1.3707    2.0112 C   0  0  1  0  0  0  0  0  0  0  0  0
    2.1794   -1.4718    3.4688 C   0  0  0  0  0  0  0  0  0  0  0  0
    0.9457   -2.1590    3.4972 O   0  0  0  0  0  0  0  0  0  0  0  0
    3.8651   -0.3710    1.7982 C   0  0  1  0  0  0  0  0  0  0  0  0
    4.4532    0.1060    2.9964 O   0  0  0  0  0  0  0  0  0  0  0  0
    5.6332   -6.2439   -0.2946 H   0  0  0  0  0  0  0  0  0  0  0  0
    3.9685   -6.7678   -0.0699 H   0  0  0  0  0  0  0  0  0  0  0  0
    5.0623   -6.6822    1.3087 H   0  0  0  0  0  0  0  0  0  0  0  0
    2.9308   -4.6457   -0.8935 H   0  0  0  0  0  0  0  0  0  0  0  0
    5.0235   -5.0399   -2.0159 H   0  0  0  0  0  0  0  0  0  0  0  0
    4.5300   -3.5043   -2.5229 H   0  0  0  0  0  0  0  0  0  0  0  0
    7.0380   -3.8404   -1.8171 H   0  0  0  0  0  0  0  0  0  0  0  0
    6.2941   -2.3818   -1.3374 H   0  0  0  0  0  0  0  0  0  0  0  0
    7.1585   -4.6811    0.3382 H   0  0  0  0  0  0  0  0  0  0  0  0
    7.2793   -2.9923    0.7020 H   0  0  0  0  0  0  0  0  0  0  0  0
    5.7062   -4.3995    2.1487 H   0  0  0  0  0  0  0  0  0  0  0  0
    4.8259   -2.4802    2.7861 H   0  0  0  0  0  0  0  0  0  0  0  0
    5.8573   -0.8637    0.9089 H   0  0  0  0  0  0  0  0  0  0  0  0
    4.8846    0.0937   -1.4165 H   0  0  0  0  0  0  0  0  0  0  0  0
    3.6857   -1.8020   -3.2625 H   0  0  0  0  0  0  0  0  0  0  0  0
    2.3423   -0.9550   -2.5102 H   0  0  0  0  0  0  0  0  0  0  0  0
    3.1258    0.8863   -3.4113 H   0  0  0  0  0  0  0  0  0  0  0  0
    2.2186   -2.5046   -0.4547 H   0  0  0  0  0  0  0  0  0  0  0  0
    1.8496   -1.0284    1.4045 H   0  0  0  0  0  0  0  0  0  0  0  0
    2.8857   -1.9920    4.1168 H   0  0  0  0  0  0  0  0  0  0  0  0
    2.0180   -0.4788    3.8929 H   0  0  0  0  0  0  0  0  0  0  0  0
    0.3486   -1.7190    2.9109 H   0  0  0  0  0  0  0  0  0  0  0  0
    3.5386    0.5017    1.2325 H   0  0  0  0  0  0  0  0  0  0  0  0
    4.7483   -0.6219    3.5184 H   0  0  0  0  0  0  0  0  0  0  0  0
    3.6069   -4.8198    1.2910 H   0  0  0  0  0  0  0  0  0  0  0  0
  1  2  1  0
  1 21  1  0
  1 22  1  0
  1 23  1  0
  2  7  1  0
  2  3  1  0
  2 45  1  1
  3 14  1  0
  3  4  1  0
  3 24  1  6
  4  5  1  0
  4 25  1  0
  4 26  1  0
  5  6  1  0
  5 27  1  0
  5 28  1  0
  6  7  1  0
  6 29  1  0
  6 30  1  0
  7  8  1  0
  7 31  1  1
  8 15  1  0
  8  9  1  0
  8 32  1  1
  9 19  1  0
  9 10  1  0
  9 33  1  6
 10 11  2  3
 10 14  1  0
 11 12  1  0
 11 34  1  0
 12 13  1  0
 12 35  1  0
 12 36  1  0
 13 37  1  0
 14 15  1  0
 14 38  1  6
 15 16  1  0
 16 17  1  0
 16 19  1  0
 16 39  1  6
 17 18  1  0
 17 40  1  0
 17 41  1  0
 18 42  1  0
 19 20  1  0
 19 43  1  6
 20 44  1  0
M  CHG  1   2   1
M  END
>  <i_m_ct_stereo_status>  (236) 
1

>  <s_m_source_file>  (236) 
/var/tmp/pbs.5076255.sched01/tmpqw5sdpkp/8220gfbieb.sdf

>  <i_m_source_file_index>  (236) 
15

>  <i_lp_mmshare_version>  (236) 
48012

>  <i_f3d_flags>  (236) 
0

>  <s_epik_input>  (236) 
W0NIMl0xW0NIMl1bQ0gyXVtDQEhdKE4yW0NIM10pW0NASF0oTjNbQ0BASF00W0NAQEhdMTIpW0NAQEhdKC9DND1bQ0hdXFtDSDJdW09IXSlbQ0BIXShbT0hdKVtDQEBIXTNbQ0gyXVtPSF0=

>  <s_epik_cmdline>  (236) 
J2VwaWtfcHl0aG9uJywgJy1waHQnLCAnMi4wJywgJy1waCcsICc3LjAnLCAnLXRuJywgJzgnLCAnLW1hJywgJzIwMCcsICctaW1hZScsICc8aW5maWxlLm1hZT4nLCAnLW9tYWUnLCAnPG91dGZpbGUubWFlPic=

>  <r_epik_Ionization_Penalty>  (236) 
0.0743436

>  <r_epik_Ionization_Penalty_Charging>  (236) 
0.0612249

>  <r_epik_Ionization_Penalty_Neutral>  (236) 
0.0131188

>  <r_epik_State_Penalty>  (236) 
0.144665

>  <r_epik_Charging_Adjusted_Penalty>  (236) 
0.20589

>  <i_epik_Tot_Q>  (236) 
1

>  <i_epik_Tot_abs_Q>  (236) 
1

>  <s_lp_Force_Field>  (236) 
OPLS3e

>  <r_lp_Energy>  (236) 
66.4241

>  <b_lp_Chiralities_Consistent>  (236) 
1

>  <s_lp_Variant>  (236) 
70:0-2

>  <s_i_glide_gridfile>  (236) 
pfpi4k_grid

>  <i_i_glide_lignum>  (236) 
15

>  <i_i_glide_rotatable_bonds>  (236) 
5

>  <r_i_docking_score>  (236) 
-3.98555

>  <r_i_glide_ligand_efficiency>  (236) 
-0.199277

>  <r_i_glide_ligand_efficiency_sa>  (236) 
-0.540922

>  <r_i_glide_ligand_efficiency_ln>  (236) 
-0.997451

>  <r_i_glide_gscore>  (236) 
-3.98555

>  <r_i_glide_lipo>  (236) 
-0.555693

>  <r_i_glide_hbond>  (236) 
-0.32

>  <r_i_glide_metal>  (236) 
-0

>  <r_i_glide_rewards>  (236) 
-1.49065

>  <r_i_glide_evdw>  (236) 
-16.4399

>  <r_i_glide_ecoul>  (236) 
-8.35891

>  <r_i_glide_erotb>  (236) 
0.456636

>  <r_i_glide_esite>  (236) 
0

>  <r_i_glide_emodel>  (236) 
-28.7246

>  <r_i_glide_energy>  (236) 
-24.7989

>  <r_i_glide_einternal>  (236) 
5.24395

>  <r_i_glide_intrahb_reward>  (236) 
-0

>  <i_i_glide_confnum>  (236) 
3

>  <i_i_glide_posenum>  (236) 
29

>  <r_i_glide_eff_state_penalty>  (236) 
0

>  <ligand_id>  (236) 
70

>  <original_smiles>  (236) 
CN1C2CCCC1C1C3C(=CCO)C2N1C(CO)C3O

>  <smiles>  (236) 
[H]OC([H])([H])C([H])=C1C2([H])N3C([H])(C([H])([H])O[H])C([H])(O[H])C1([H])C3([H])C1([H])C([H])([H])C([H])([H])C([H])([H])C2([H])[N+]1([H])C([H])([H])[H]

$$$$
70:2:0
     RDKit          3D

 45 48  0  0  1  0  0  0  0  0999 V2000
    4.3324   -1.1257   -4.3779 C   0  0  0  0  0  0  0  0  0  0  0  0
    4.8498   -1.7910   -3.1807 N   0  0  0  0  0  0  0  0  0  0  0  0
    4.4800   -3.1979   -2.9979 C   0  0  2  0  0  0  0  0  0  0  0  0
    2.9379   -3.2855   -2.9975 C   0  0  0  0  0  0  0  0  0  0  0  0
    2.3193   -2.3656   -1.9806 C   0  0  0  0  0  0  0  0  0  0  0  0
    3.0525   -1.0255   -1.7710 C   0  0  0  0  0  0  0  0  0  0  0  0
    4.5769   -1.0674   -1.9510 C   0  0  1  0  0  0  0  0  0  0  0  0
    5.4222   -1.6788   -0.7814 C   0  0  1  0  0  0  0  0  0  0  0  0
    4.7419   -2.5431    0.3050 C   0  0  1  0  0  0  0  0  0  0  0  0
    4.3549   -3.7809   -0.4598 C   0  0  0  0  0  0  0  0  0  0  0  0
    3.5214   -4.7731   -0.0611 C   0  0  0  0  0  0  0  0  0  0  0  0
    2.7262   -4.8289    1.2257 C   0  0  0  0  0  0  0  0  0  0  0  0
    1.6344   -5.7196    1.0833 O   0  0  0  0  0  0  0  0  0  0  0  0
    5.2167   -3.7461   -1.7113 C   0  0  2  0  0  0  0  0  0  0  0  0
    6.2804   -2.7845   -1.2556 N   0  0  2  0  0  0  0  0  0  0  0  0
    7.0099   -3.2420   -0.0265 C   0  0  1  0  0  0  0  0  0  0  0  0
    8.4180   -2.6118    0.1588 C   0  0  0  0  0  0  0  0  0  0  0  0
    9.4258   -3.4675   -0.2911 O   0  0  0  0  0  0  0  0  0  0  0  0
    5.9696   -2.9675    1.1124 C   0  0  1  0  0  0  0  0  0  0  0  0
    6.2091   -1.9192    2.0297 O   0  0  0  0  0  0  0  0  0  0  0  0
    4.5547   -1.7375   -5.2213 H   0  0  0  0  0  0  0  0  0  0  0  0
    4.8201   -0.1760   -4.5566 H   0  0  0  0  0  0  0  0  0  0  0  0
    3.2570   -0.9752   -4.4325 H   0  0  0  0  0  0  0  0  0  0  0  0
    4.8236   -3.7519   -3.8699 H   0  0  0  0  0  0  0  0  0  0  0  0
    2.5319   -3.0246   -3.9756 H   0  0  0  0  0  0  0  0  0  0  0  0
    2.5176   -4.2581   -2.7957 H   0  0  0  0  0  0  0  0  0  0  0  0
    1.3355   -2.2530   -2.3909 H   0  0  0  0  0  0  0  0  0  0  0  0
    2.1218   -2.8064   -1.0035 H   0  0  0  0  0  0  0  0  0  0  0  0
    2.6194   -0.2663   -2.4414 H   0  0  0  0  0  0  0  0  0  0  0  0
    2.8505   -0.7105   -0.7457 H   0  0  0  0  0  0  0  0  0  0  0  0
    4.9151   -0.0466   -2.1022 H   0  0  0  0  0  0  0  0  0  0  0  0
    6.0238   -0.8728   -0.3482 H   0  0  0  0  0  0  0  0  0  0  0  0
    3.9535   -2.0742    0.8941 H   0  0  0  0  0  0  0  0  0  0  0  0
    3.4161   -5.6169   -0.7121 H   0  0  0  0  0  0  0  0  0  0  0  0
    3.3631   -5.1832    2.0359 H   0  0  0  0  0  0  0  0  0  0  0  0
    2.3575   -3.8406    1.5038 H   0  0  0  0  0  0  0  0  0  0  0  0
    1.9704   -6.6032    1.0257 H   0  0  0  0  0  0  0  0  0  0  0  0
    5.6307   -4.7136   -1.9274 H   0  0  0  0  0  0  0  0  0  0  0  0
    7.1550   -4.3213   -0.1087 H   0  0  0  0  0  0  0  0  0  0  0  0
    8.5176   -1.6024   -0.2587 H   0  0  0  0  0  0  0  0  0  0  0  0
    8.6738   -2.5567    1.2063 H   0  0  0  0  0  0  0  0  0  0  0  0
    9.9244   -3.0099   -0.9762 H   0  0  0  0  0  0  0  0  0  0  0  0
    5.8080   -3.8832    1.6838 H   0  0  0  0  0  0  0  0  0  0  0  0
    6.4997   -1.1396    1.5816 H   0  0  0  0  0  0  0  0  0  0  0  0
    6.8836   -2.5446   -2.0304 H   0  0  0  0  0  0  0  0  0  0  0  0
  1  2  1  0
  1 21  1  0
  1 22  1  0
  1 23  1  0
  2  7  1  0
  2  3  1  0
  3 14  1  0
  3  4  1  0
  3 24  1  6
  4  5  1  0
  4 25  1  0
  4 26  1  0
  5  6  1  0
  5 27  1  0
  5 28  1  0
  6  7  1  0
  6 29  1  0
  6 30  1  0
  7  8  1  0
  7 31  1  6
  8 15  1  0
  8  9  1  0
  8 32  1  1
  9 19  1  0
  9 10  1  0
  9 33  1  1
 10 11  2  3
 10 14  1  0
 11 12  1  0
 11 34  1  0
 12 13  1  0
 12 35  1  0
 12 36  1  0
 13 37  1  0
 14 15  1  0
 14 38  1  6
 15 16  1  0
 15 45  1  6
 16 17  1  0
 16 19  1  0
 16 39  1  6
 17 18  1  0
 17 40  1  0
 17 41  1  0
 18 42  1  0
 19 20  1  0
 19 43  1  1
 20 44  1  0
M  CHG  1  15   1
M  END
>  <i_m_ct_stereo_status>  (237) 
1

>  <s_m_source_file>  (237) 
/var/tmp/pbs.5076255.sched01/tmpqw5sdpkp/8220gfbieb.sdf

>  <i_m_source_file_index>  (237) 
16

>  <i_lp_mmshare_version>  (237) 
48012

>  <i_f3d_flags>  (237) 
0

>  <s_epik_input>  (237) 
W0NIMl0xW0NIMl1bQ0gyXVtDQEhdKE4yW0NIM10pW0NASF0oTjNbQ0BASF00W0NAQEhdMTIpW0NAQEhdKC9DND1bQ0hdXFtDSDJdW09IXSlbQ0BIXShbT0hdKVtDQEBIXTNbQ0gyXVtPSF0=

>  <s_epik_cmdline>  (237) 
J2VwaWtfcHl0aG9uJywgJy1waHQnLCAnMi4wJywgJy1waCcsICc3LjAnLCAnLXRuJywgJzgnLCAnLW1hJywgJzIwMCcsICctaW1hZScsICc8aW5maWxlLm1hZT4nLCAnLW9tYWUnLCAnPG91dGZpbGUubWFlPic=

>  <r_epik_Ionization_Penalty>  (237) 
0.254853

>  <r_epik_Ionization_Penalty_Charging>  (237) 
0.254036

>  <r_epik_Ionization_Penalty_Neutral>  (237) 
0.000816334

>  <r_epik_State_Penalty>  (237) 
1.15171

>  <r_epik_Charging_Adjusted_Penalty>  (237) 
1.40574

>  <i_epik_Tot_Q>  (237) 
1

>  <i_epik_Tot_abs_Q>  (237) 
1

>  <s_lp_Force_Field>  (237) 
OPLS3e

>  <r_lp_Energy>  (237) 
69.4592

>  <b_lp_Chiralities_Consistent>  (237) 
1

>  <s_lp_Variant>  (237) 
70:0-3

>  <s_i_glide_gridfile>  (237) 
pfpi4k_grid

>  <i_i_glide_lignum>  (237) 
16

>  <i_i_glide_rotatable_bonds>  (237) 
5

>  <r_i_docking_score>  (237) 
-3.52806

>  <r_i_glide_ligand_efficiency>  (237) 
-0.176403

>  <r_i_glide_ligand_efficiency_sa>  (237) 
-0.478831

>  <r_i_glide_ligand_efficiency_ln>  (237) 
-0.882957

>  <r_i_glide_gscore>  (237) 
-3.52806

>  <r_i_glide_lipo>  (237) 
-0.454208

>  <r_i_glide_hbond>  (237) 
-0.44593

>  <r_i_glide_metal>  (237) 
-0

>  <r_i_glide_rewards>  (237) 
-1.49065

>  <r_i_glide_evdw>  (237) 
2.45039

>  <r_i_glide_ecoul>  (237) 
-10.4867

>  <r_i_glide_erotb>  (237) 
0.319645

>  <r_i_glide_esite>  (237) 
-0.00642168

>  <r_i_glide_emodel>  (237) 
-7.06072

>  <r_i_glide_energy>  (237) 
-8.03633

>  <r_i_glide_einternal>  (237) 
4.47508

>  <r_i_glide_intrahb_reward>  (237) 
-0

>  <i_i_glide_confnum>  (237) 
5

>  <i_i_glide_posenum>  (237) 
33

>  <r_i_glide_eff_state_penalty>  (237) 
0

>  <ligand_id>  (237) 
70

>  <original_smiles>  (237) 
CN1C2CCCC1C1C3C(=CCO)C2N1C(CO)C3O

>  <smiles>  (237) 
[H]OC([H])([H])C([H])=C1C2([H])C([H])(O[H])C([H])(C([H])([H])O[H])[N+]3([H])C1([H])C1([H])N(C([H])([H])[H])C([H])(C([H])([H])C([H])([H])C1([H])[H])C23[H]

$$$$
70:3:0
     RDKit          3D

 45 48  0  0  1  0  0  0  0  0999 V2000
    2.4194   -6.3538    1.9091 C   0  0  0  0  0  0  0  0  0  0  0  0
    2.8840   -5.0182    1.5436 N   0  0  0  0  0  0  0  0  0  0  0  0
    3.1795   -4.7998    0.1236 C   0  0  2  0  0  0  0  0  0  0  0  0
    4.3303   -5.7852   -0.2875 C   0  0  0  0  0  0  0  0  0  0  0  0
    5.5955   -5.7411    0.6003 C   0  0  0  0  0  0  0  0  0  0  0  0
    5.3005   -5.3886    2.0711 C   0  0  0  0  0  0  0  0  0  0  0  0
    4.0373   -4.5053    2.3016 C   0  0  1  0  0  0  0  0  0  0  0  0
    4.1758   -2.9554    2.0399 C   0  0  1  0  0  0  0  0  0  0  0  0
    5.3014   -2.4076    1.1331 C   0  0  1  0  0  0  0  0  0  0  0  0
    4.8991   -2.9159   -0.2481 C   0  0  0  0  0  0  0  0  0  0  0  0
    5.6713   -2.9065   -1.3491 C   0  0  0  0  0  0  0  0  0  0  0  0
    5.3409   -3.3037   -2.7799 C   0  0  0  0  0  0  0  0  0  0  0  0
    3.9598   -3.4528   -3.0155 O   0  0  0  0  0  0  0  0  0  0  0  0
    3.4215   -3.2538   -0.1042 C   0  0  2  0  0  0  0  0  0  0  0  0
    3.1072   -2.4633    1.1358 N   0  0  2  0  0  0  0  0  0  0  0  0
    3.3744   -1.0048    0.9705 C   0  0  1  0  0  0  0  0  0  0  0  0
    2.5583   -0.1223    1.9369 C   0  0  0  0  0  0  0  0  0  0  0  0
    1.1698   -0.2952    1.6822 O   0  0  0  0  0  0  0  0  0  0  0  0
    4.9265   -0.9124    1.1106 C   0  0  1  0  0  0  0  0  0  0  0  0
    5.3820   -0.3025    2.3042 O   0  0  0  0  0  0  0  0  0  0  0  0
    1.5578   -6.6346    1.3033 H   0  0  0  0  0  0  0  0  0  0  0  0
    2.1026   -6.3658    2.9514 H   0  0  0  0  0  0  0  0  0  0  0  0
    3.1751   -7.1290    1.7858 H   0  0  0  0  0  0  0  0  0  0  0  0
    2.2889   -5.0750   -0.4432 H   0  0  0  0  0  0  0  0  0  0  0  0
    3.9404   -6.8030   -0.2734 H   0  0  0  0  0  0  0  0  0  0  0  0
    4.6271   -5.6297   -1.3173 H   0  0  0  0  0  0  0  0  0  0  0  0
    6.1042   -6.7018    0.5526 H   0  0  0  0  0  0  0  0  0  0  0  0
    6.3186   -5.0415    0.1927 H   0  0  0  0  0  0  0  0  0  0  0  0
    5.1618   -6.3215    2.6180 H   0  0  0  0  0  0  0  0  0  0  0  0
    6.1775   -4.9249    2.5243 H   0  0  0  0  0  0  0  0  0  0  0  0
    3.7716   -4.6127    3.3516 H   0  0  0  0  0  0  0  0  0  0  0  0
    4.1197   -2.4409    3.0066 H   0  0  0  0  0  0  0  0  0  0  0  0
    6.3296   -2.6222    1.4552 H   0  0  0  0  0  0  0  0  0  0  0  0
    6.6906   -2.5938   -1.2021 H   0  0  0  0  0  0  0  0  0  0  0  0
    5.7108   -2.5293   -3.4471 H   0  0  0  0  0  0  0  0  0  0  0  0
    5.8655   -4.2281   -3.0074 H   0  0  0  0  0  0  0  0  0  0  0  0
    3.6953   -4.3353   -2.7448 H   0  0  0  0  0  0  0  0  0  0  0  0
    2.8172   -2.8584   -0.9190 H   0  0  0  0  0  0  0  0  0  0  0  0
    3.0923   -0.7134   -0.0463 H   0  0  0  0  0  0  0  0  0  0  0  0
    2.7632   -0.3362    2.9903 H   0  0  0  0  0  0  0  0  0  0  0  0
    2.8286    0.9239    1.7633 H   0  0  0  0  0  0  0  0  0  0  0  0
    1.0151   -0.2389    0.7461 H   0  0  0  0  0  0  0  0  0  0  0  0
    5.3602   -0.3795    0.2583 H   0  0  0  0  0  0  0  0  0  0  0  0
    6.3311   -0.2643    2.2643 H   0  0  0  0  0  0  0  0  0  0  0  0
    2.1807   -2.6673    1.4675 H   0  0  0  0  0  0  0  0  0  0  0  0
  1  2  1  0
  1 21  1  0
  1 22  1  0
  1 23  1  0
  2  7  1  0
  2  3  1  0
  3 14  1  0
  3  4  1  0
  3 24  1  6
  4  5  1  0
  4 25  1  0
  4 26  1  0
  5  6  1  0
  5 27  1  0
  5 28  1  0
  6  7  1  0
  6 29  1  0
  6 30  1  0
  7  8  1  0
  7 31  1  1
  8 15  1  0
  8  9  1  0
  8 32  1  1
  9 19  1  0
  9 10  1  0
  9 33  1  1
 10 11  2  3
 10 14  1  0
 11 12  1  0
 11 34  1  0
 12 13  1  0
 12 35  1  0
 12 36  1  0
 13 37  1  0
 14 15  1  0
 14 38  1  6
 15 16  1  0
 15 45  1  1
 16 17  1  0
 16 19  1  0
 16 39  1  6
 17 18  1  0
 17 40  1  0
 17 41  1  0
 18 42  1  0
 19 20  1  0
 19 43  1  6
 20 44  1  0
M  CHG  1  15   1
M  END
>  <i_m_ct_stereo_status>  (238) 
1

>  <s_m_source_file>  (238) 
/var/tmp/pbs.5076255.sched01/tmpqw5sdpkp/8220gfbieb.sdf

>  <i_m_source_file_index>  (238) 
17

>  <i_lp_mmshare_version>  (238) 
48012

>  <i_f3d_flags>  (238) 
0

>  <s_epik_input>  (238) 
W0NIMl0xW0NIMl1bQ0gyXVtDQEhdKE4yW0NIM10pW0NASF0oTjNbQ0BASF00W0NAQEhdMTIpW0NAQEhdKC9DND1bQ0hdXFtDSDJdW09IXSlbQ0BIXShbT0hdKVtDQEBIXTNbQ0gyXVtPSF0=

>  <s_epik_cmdline>  (238) 
J2VwaWtfcHl0aG9uJywgJy1waHQnLCAnMi4wJywgJy1waCcsICc3LjAnLCAnLXRuJywgJzgnLCAnLW1hJywgJzIwMCcsICctaW1hZScsICc8aW5maWxlLm1hZT4nLCAnLW9tYWUnLCAnPG91dGZpbGUubWFlPic=

>  <r_epik_Ionization_Penalty>  (238) 
0.254853

>  <r_epik_Ionization_Penalty_Charging>  (238) 
0.254036

>  <r_epik_Ionization_Penalty_Neutral>  (238) 
0.000816334

>  <r_epik_State_Penalty>  (238) 
1.15171

>  <r_epik_Charging_Adjusted_Penalty>  (238) 
1.40574

>  <i_epik_Tot_Q>  (238) 
1

>  <i_epik_Tot_abs_Q>  (238) 
1

>  <s_lp_Force_Field>  (238) 
OPLS3e

>  <r_lp_Energy>  (238) 
68.0476

>  <b_lp_Chiralities_Consistent>  (238) 
1

>  <s_lp_Variant>  (238) 
70:0-4

>  <s_i_glide_gridfile>  (238) 
pfpi4k_grid

>  <i_i_glide_lignum>  (238) 
17

>  <i_i_glide_rotatable_bonds>  (238) 
5

>  <r_i_docking_score>  (238) 
-4.63175

>  <r_i_glide_ligand_efficiency>  (238) 
-0.231588

>  <r_i_glide_ligand_efficiency_sa>  (238) 
-0.628626

>  <r_i_glide_ligand_efficiency_ln>  (238) 
-1.15918

>  <r_i_glide_gscore>  (238) 
-4.63175

>  <r_i_glide_lipo>  (238) 
-0.559351

>  <r_i_glide_hbond>  (238) 
-0.652696

>  <r_i_glide_metal>  (238) 
-0

>  <r_i_glide_rewards>  (238) 
-1.49065

>  <r_i_glide_evdw>  (238) 
-15.641

>  <r_i_glide_ecoul>  (238) 
-10.5469

>  <r_i_glide_erotb>  (238) 
0.456636

>  <r_i_glide_esite>  (238) 
-0.0216076

>  <r_i_glide_emodel>  (238) 
-32.881

>  <r_i_glide_energy>  (238) 
-26.1879

>  <r_i_glide_einternal>  (238) 
3.90772

>  <r_i_glide_intrahb_reward>  (238) 
-0

>  <i_i_glide_confnum>  (238) 
2

>  <i_i_glide_posenum>  (238) 
38

>  <r_i_glide_eff_state_penalty>  (238) 
0

>  <ligand_id>  (238) 
70

>  <original_smiles>  (238) 
CN1C2CCCC1C1C3C(=CCO)C2N1C(CO)C3O

>  <smiles>  (238) 
[H]OC([H])([H])C([H])=C1C2([H])C([H])(O[H])C([H])(C([H])([H])O[H])[N+]3([H])C1([H])C1([H])N(C([H])([H])[H])C([H])(C([H])([H])C([H])([H])C1([H])[H])C23[H]

$$$$
70:3:1
     RDKit          3D

 45 48  0  0  1  0  0  0  0  0999 V2000
    3.0608   -6.3622    2.1279 C   0  0  0  0  0  0  0  0  0  0  0  0
    3.3052   -5.0098    1.6289 N   0  0  0  0  0  0  0  0  0  0  0  0
    3.4069   -4.8635    0.1733 C   0  0  2  0  0  0  0  0  0  0  0  0
    4.6138   -5.7313   -0.3134 C   0  0  0  0  0  0  0  0  0  0  0  0
    5.9548   -5.4626    0.4145 C   0  0  0  0  0  0  0  0  0  0  0  0
    5.7893   -5.0486    1.8862 C   0  0  0  0  0  0  0  0  0  0  0  0
    4.4577   -4.3141    2.2153 C   0  0  1  0  0  0  0  0  0  0  0  0
    4.3552   -2.7866    1.8505 C   0  0  1  0  0  0  0  0  0  0  0  0
    5.3045   -2.1644    0.8123 C   0  0  1  0  0  0  0  0  0  0  0  0
    4.8398   -2.8095   -0.4789 C   0  0  0  0  0  0  0  0  0  0  0  0
    5.4830   -2.7518   -1.6621 C   0  0  0  0  0  0  0  0  0  0  0  0
    4.9939   -3.3029   -2.9851 C   0  0  0  0  0  0  0  0  0  0  0  0
    4.5747   -2.2494   -3.8199 O   0  0  0  0  0  0  0  0  0  0  0  0
    3.4391   -3.3194   -0.1790 C   0  0  2  0  0  0  0  0  0  0  0  0
    3.1437   -2.4950    1.0459 N   0  0  2  0  0  0  0  0  0  0  0  0
    3.2029   -1.0219    0.7960 C   0  0  1  0  0  0  0  0  0  0  0  0
    2.3971   -0.1796    1.8194 C   0  0  0  0  0  0  0  0  0  0  0  0
    1.0158   -0.4334    1.6980 O   0  0  0  0  0  0  0  0  0  0  0  0
    4.7323   -0.7363    0.7605 C   0  0  1  0  0  0  0  0  0  0  0  0
    5.2248    0.0317    1.8397 O   0  0  0  0  0  0  0  0  0  0  0  0
    2.1768   -6.7840    1.6497 H   0  0  0  0  0  0  0  0  0  0  0  0
    2.8722   -6.3404    3.2014 H   0  0  0  0  0  0  0  0  0  0  0  0
    3.8902   -7.0475    1.9542 H   0  0  0  0  0  0  0  0  0  0  0  0
    2.4975   -5.2825   -0.2600 H   0  0  0  0  0  0  0  0  0  0  0  0
    4.3557   -6.7851   -0.1985 H   0  0  0  0  0  0  0  0  0  0  0  0
    4.7728   -5.6151   -1.3805 H   0  0  0  0  0  0  0  0  0  0  0  0
    6.5860   -6.3489    0.3682 H   0  0  0  0  0  0  0  0  0  0  0  0
    6.5307   -4.7065   -0.1140 H   0  0  0  0  0  0  0  0  0  0  0  0
    5.8416   -5.9524    2.4943 H   0  0  0  0  0  0  0  0  0  0  0  0
    6.6478   -4.4529    2.1994 H   0  0  0  0  0  0  0  0  0  0  0  0
    4.3351   -4.3796    3.2964 H   0  0  0  0  0  0  0  0  0  0  0  0
    4.3505   -2.2255    2.7882 H   0  0  0  0  0  0  0  0  0  0  0  0
    6.3775   -2.2242    1.0118 H   0  0  0  0  0  0  0  0  0  0  0  0
    6.4469   -2.2663   -1.6884 H   0  0  0  0  0  0  0  0  0  0  0  0
    5.8222   -3.8314   -3.4611 H   0  0  0  0  0  0  0  0  0  0  0  0
    4.1817   -4.0173   -2.8555 H   0  0  0  0  0  0  0  0  0  0  0  0
    3.7589   -1.9030   -3.4840 H   0  0  0  0  0  0  0  0  0  0  0  0
    2.7598   -3.0872   -1.0009 H   0  0  0  0  0  0  0  0  0  0  0  0
    2.8022   -0.8104   -0.1958 H   0  0  0  0  0  0  0  0  0  0  0  0
    2.6984   -0.3426    2.8578 H   0  0  0  0  0  0  0  0  0  0  0  0
    2.5610    0.8782    1.6039 H   0  0  0  0  0  0  0  0  0  0  0  0
    0.7984   -0.4124    0.7459 H   0  0  0  0  0  0  0  0  0  0  0  0
    4.9969   -0.2312   -0.1691 H   0  0  0  0  0  0  0  0  0  0  0  0
    4.9490   -0.3446    2.6625 H   0  0  0  0  0  0  0  0  0  0  0  0
    2.2976   -2.7875    1.5043 H   0  0  0  0  0  0  0  0  0  0  0  0
  1  2  1  0
  1 21  1  0
  1 22  1  0
  1 23  1  0
  2  7  1  0
  2  3  1  0
  3 14  1  0
  3  4  1  0
  3 24  1  6
  4  5  1  0
  4 25  1  0
  4 26  1  0
  5  6  1  0
  5 27  1  0
  5 28  1  0
  6  7  1  0
  6 29  1  0
  6 30  1  0
  7  8  1  0
  7 31  1  1
  8 15  1  0
  8  9  1  0
  8 32  1  1
  9 19  1  0
  9 10  1  0
  9 33  1  1
 10 11  2  3
 10 14  1  0
 11 12  1  0
 11 34  1  0
 12 13  1  0
 12 35  1  0
 12 36  1  0
 13 37  1  0
 14 15  1  0
 14 38  1  6
 15 16  1  0
 15 45  1  1
 16 17  1  0
 16 19  1  0
 16 39  1  6
 17 18  1  0
 17 40  1  0
 17 41  1  0
 18 42  1  0
 19 20  1  0
 19 43  1  6
 20 44  1  0
M  CHG  1  15   1
M  END
>  <i_m_ct_stereo_status>  (239) 
1

>  <s_m_source_file>  (239) 
/var/tmp/pbs.5076255.sched01/tmpqw5sdpkp/8220gfbieb.sdf

>  <i_m_source_file_index>  (239) 
17

>  <i_lp_mmshare_version>  (239) 
48012

>  <i_f3d_flags>  (239) 
0

>  <s_epik_input>  (239) 
W0NIMl0xW0NIMl1bQ0gyXVtDQEhdKE4yW0NIM10pW0NASF0oTjNbQ0BASF00W0NAQEhdMTIpW0NAQEhdKC9DND1bQ0hdXFtDSDJdW09IXSlbQ0BIXShbT0hdKVtDQEBIXTNbQ0gyXVtPSF0=

>  <s_epik_cmdline>  (239) 
J2VwaWtfcHl0aG9uJywgJy1waHQnLCAnMi4wJywgJy1waCcsICc3LjAnLCAnLXRuJywgJzgnLCAnLW1hJywgJzIwMCcsICctaW1hZScsICc8aW5maWxlLm1hZT4nLCAnLW9tYWUnLCAnPG91dGZpbGUubWFlPic=

>  <r_epik_Ionization_Penalty>  (239) 
0.254853

>  <r_epik_Ionization_Penalty_Charging>  (239) 
0.254036

>  <r_epik_Ionization_Penalty_Neutral>  (239) 
0.000816334

>  <r_epik_State_Penalty>  (239) 
1.15171

>  <r_epik_Charging_Adjusted_Penalty>  (239) 
1.40574

>  <i_epik_Tot_Q>  (239) 
1

>  <i_epik_Tot_abs_Q>  (239) 
1

>  <s_lp_Force_Field>  (239) 
OPLS3e

>  <r_lp_Energy>  (239) 
68.0476

>  <b_lp_Chiralities_Consistent>  (239) 
1

>  <s_lp_Variant>  (239) 
70:0-4

>  <s_i_glide_gridfile>  (239) 
pfpi4k_grid

>  <i_i_glide_lignum>  (239) 
17

>  <i_i_glide_rotatable_bonds>  (239) 
5

>  <r_i_docking_score>  (239) 
-4.33627

>  <r_i_glide_ligand_efficiency>  (239) 
-0.216814

>  <r_i_glide_ligand_efficiency_sa>  (239) 
-0.588523

>  <r_i_glide_ligand_efficiency_ln>  (239) 
-1.08523

>  <r_i_glide_gscore>  (239) 
-4.33627

>  <r_i_glide_lipo>  (239) 
-0.598071

>  <r_i_glide_hbond>  (239) 
-0.414315

>  <r_i_glide_metal>  (239) 
-0

>  <r_i_glide_rewards>  (239) 
-1.49065

>  <r_i_glide_evdw>  (239) 
-11.8704

>  <r_i_glide_ecoul>  (239) 
-11.1565

>  <r_i_glide_erotb>  (239) 
0.456636

>  <r_i_glide_esite>  (239) 
-0.0228744

>  <r_i_glide_emodel>  (239) 
-30.1243

>  <r_i_glide_energy>  (239) 
-23.0269

>  <r_i_glide_einternal>  (239) 
2.05024

>  <r_i_glide_intrahb_reward>  (239) 
-0

>  <i_i_glide_confnum>  (239) 
2

>  <i_i_glide_posenum>  (239) 
1

>  <r_i_glide_eff_state_penalty>  (239) 
0

>  <ligand_id>  (239) 
70

>  <original_smiles>  (239) 
CN1C2CCCC1C1C3C(=CCO)C2N1C(CO)C3O

>  <smiles>  (239) 
[H]OC([H])([H])C([H])=C1C2([H])C([H])(O[H])C([H])(C([H])([H])O[H])[N+]3([H])C1([H])C1([H])N(C([H])([H])[H])C([H])(C([H])([H])C([H])([H])C1([H])[H])C23[H]

$$$$
70:3:2
     RDKit          3D

 45 48  0  0  1  0  0  0  0  0999 V2000
    3.8116   -3.2359   -3.8022 C   0  0  0  0  0  0  0  0  0  0  0  0
    3.6736   -3.4457   -2.3640 N   0  0  0  0  0  0  0  0  0  0  0  0
    3.2899   -2.2968   -1.5538 C   0  0  2  0  0  0  0  0  0  0  0  0
    4.4275   -1.2400   -1.6870 C   0  0  0  0  0  0  0  0  0  0  0  0
    5.8420   -1.7874   -1.3731 C   0  0  0  0  0  0  0  0  0  0  0  0
    6.0664   -3.2614   -1.7551 C   0  0  0  0  0  0  0  0  0  0  0  0
    4.7917   -4.1336   -1.6988 C   0  0  1  0  0  0  0  0  0  0  0  0
    4.3007   -4.6316   -0.2824 C   0  0  1  0  0  0  0  0  0  0  0  0
    4.7755   -3.9270    1.0027 C   0  0  1  0  0  0  0  0  0  0  0  0
    4.0763   -2.5787    0.9038 C   0  0  0  0  0  0  0  0  0  0  0  0
    4.3289   -1.4961    1.6717 C   0  0  0  0  0  0  0  0  0  0  0  0
    3.5897   -0.1754    1.6561 C   0  0  0  0  0  0  0  0  0  0  0  0
    3.3495    0.2563    2.9773 O   0  0  0  0  0  0  0  0  0  0  0  0
    2.9465   -2.7953   -0.0864 C   0  0  2  0  0  0  0  0  0  0  0  0
    2.8770   -4.3012   -0.0490 N   0  0  2  0  0  0  0  0  0  0  0  0
    2.5736   -4.8324    1.3232 C   0  0  1  0  0  0  0  0  0  0  0  0
    1.9557   -6.2522    1.3238 C   0  0  0  0  0  0  0  0  0  0  0  0
    0.6260   -6.2597    0.8303 O   0  0  0  0  0  0  0  0  0  0  0  0
    3.9506   -4.7110    2.0500 C   0  0  1  0  0  0  0  0  0  0  0  0
    4.5598   -5.9509    2.3887 O   0  0  0  0  0  0  0  0  0  0  0  0
    2.9081   -2.7774   -4.2000 H   0  0  0  0  0  0  0  0  0  0  0  0
    3.9426   -4.1931   -4.3067 H   0  0  0  0  0  0  0  0  0  0  0  0
    4.6544   -2.6004   -4.0606 H   0  0  0  0  0  0  0  0  0  0  0  0
    2.3867   -1.8804   -2.0002 H   0  0  0  0  0  0  0  0  0  0  0  0
    4.4192   -0.8454   -2.7062 H   0  0  0  0  0  0  0  0  0  0  0  0
    4.2223   -0.3629   -1.0745 H   0  0  0  0  0  0  0  0  0  0  0  0
    6.5578   -1.2141   -1.9314 H   0  0  0  0  0  0  0  0  0  0  0  0
    6.1062   -1.6283   -0.3311 H   0  0  0  0  0  0  0  0  0  0  0  0
    6.4554   -3.3003   -2.7751 H   0  0  0  0  0  0  0  0  0  0  0  0
    6.8597   -3.6943   -1.1432 H   0  0  0  0  0  0  0  0  0  0  0  0
    5.0157   -5.0274   -2.2793 H   0  0  0  0  0  0  0  0  0  0  0  0
    4.4612   -5.7124   -0.2444 H   0  0  0  0  0  0  0  0  0  0  0  0
    5.8473   -3.8814    1.1837 H   0  0  0  0  0  0  0  0  0  0  0  0
    5.1571   -1.5667    2.3605 H   0  0  0  0  0  0  0  0  0  0  0  0
    4.2223    0.5638    1.1658 H   0  0  0  0  0  0  0  0  0  0  0  0
    2.6541   -0.2335    1.1046 H   0  0  0  0  0  0  0  0  0  0  0  0
    3.0713    1.1596    2.9491 H   0  0  0  0  0  0  0  0  0  0  0  0
    2.0404   -2.3454    0.3060 H   0  0  0  0  0  0  0  0  0  0  0  0
    1.8684   -4.1659    1.8196 H   0  0  0  0  0  0  0  0  0  0  0  0
    2.5572   -6.9878    0.7848 H   0  0  0  0  0  0  0  0  0  0  0  0
    1.9107   -6.6054    2.3555 H   0  0  0  0  0  0  0  0  0  0  0  0
    0.3111   -7.1562    0.8628 H   0  0  0  0  0  0  0  0  0  0  0  0
    3.8443   -4.1417    2.9759 H   0  0  0  0  0  0  0  0  0  0  0  0
    4.7307   -6.4476    1.6062 H   0  0  0  0  0  0  0  0  0  0  0  0
    2.2885   -4.6659   -0.7850 H   0  0  0  0  0  0  0  0  0  0  0  0
  1  2  1  0
  1 21  1  0
  1 22  1  0
  1 23  1  0
  2  7  1  0
  2  3  1  0
  3 14  1  0
  3  4  1  0
  3 24  1  6
  4  5  1  0
  4 25  1  0
  4 26  1  0
  5  6  1  0
  5 27  1  0
  5 28  1  0
  6  7  1  0
  6 29  1  0
  6 30  1  0
  7  8  1  0
  7 31  1  6
  8 15  1  0
  8  9  1  0
  8 32  1  1
  9 19  1  0
  9 10  1  0
  9 33  1  1
 10 11  2  3
 10 14  1  0
 11 12  1  0
 11 34  1  0
 12 13  1  0
 12 35  1  0
 12 36  1  0
 13 37  1  0
 14 15  1  0
 14 38  1  1
 15 16  1  0
 15 45  1  6
 16 17  1  0
 16 19  1  0
 16 39  1  1
 17 18  1  0
 17 40  1  0
 17 41  1  0
 18 42  1  0
 19 20  1  0
 19 43  1  1
 20 44  1  0
M  CHG  1  15   1
M  END
>  <i_m_ct_stereo_status>  (240) 
1

>  <s_m_source_file>  (240) 
/var/tmp/pbs.5076255.sched01/tmpqw5sdpkp/8220gfbieb.sdf

>  <i_m_source_file_index>  (240) 
17

>  <i_lp_mmshare_version>  (240) 
48012

>  <i_f3d_flags>  (240) 
0

>  <s_epik_input>  (240) 
W0NIMl0xW0NIMl1bQ0gyXVtDQEhdKE4yW0NIM10pW0NASF0oTjNbQ0BASF00W0NAQEhdMTIpW0NAQEhdKC9DND1bQ0hdXFtDSDJdW09IXSlbQ0BIXShbT0hdKVtDQEBIXTNbQ0gyXVtPSF0=

>  <s_epik_cmdline>  (240) 
J2VwaWtfcHl0aG9uJywgJy1waHQnLCAnMi4wJywgJy1waCcsICc3LjAnLCAnLXRuJywgJzgnLCAnLW1hJywgJzIwMCcsICctaW1hZScsICc8aW5maWxlLm1hZT4nLCAnLW9tYWUnLCAnPG91dGZpbGUubWFlPic=

>  <r_epik_Ionization_Penalty>  (240) 
0.254853

>  <r_epik_Ionization_Penalty_Charging>  (240) 
0.254036

>  <r_epik_Ionization_Penalty_Neutral>  (240) 
0.000816334

>  <r_epik_State_Penalty>  (240) 
1.15171

>  <r_epik_Charging_Adjusted_Penalty>  (240) 
1.40574

>  <i_epik_Tot_Q>  (240) 
1

>  <i_epik_Tot_abs_Q>  (240) 
1

>  <s_lp_Force_Field>  (240) 
OPLS3e

>  <r_lp_Energy>  (240) 
68.0476

>  <b_lp_Chiralities_Consistent>  (240) 
1

>  <s_lp_Variant>  (240) 
70:0-4

>  <s_i_glide_gridfile>  (240) 
pfpi4k_grid

>  <i_i_glide_lignum>  (240) 
17

>  <i_i_glide_rotatable_bonds>  (240) 
5

>  <r_i_docking_score>  (240) 
-3.55065

>  <r_i_glide_ligand_efficiency>  (240) 
-0.177532

>  <r_i_glide_ligand_efficiency_sa>  (240) 
-0.481897

>  <r_i_glide_ligand_efficiency_ln>  (240) 
-0.88861

>  <r_i_glide_gscore>  (240) 
-3.55065

>  <r_i_glide_lipo>  (240) 
-0.34964

>  <r_i_glide_hbond>  (240) 
-0.16

>  <r_i_glide_metal>  (240) 
-0

>  <r_i_glide_rewards>  (240) 
-1.49065

>  <r_i_glide_evdw>  (240) 
-16.9741

>  <r_i_glide_ecoul>  (240) 
-7.48162

>  <r_i_glide_erotb>  (240) 
0.456636

>  <r_i_glide_esite>  (240) 
-0.036039

>  <r_i_glide_emodel>  (240) 
-30.3813

>  <r_i_glide_energy>  (240) 
-24.4557

>  <r_i_glide_einternal>  (240) 
1.67735

>  <r_i_glide_intrahb_reward>  (240) 
-0

>  <i_i_glide_confnum>  (240) 
5

>  <i_i_glide_posenum>  (240) 
23

>  <r_i_glide_eff_state_penalty>  (240) 
0

>  <ligand_id>  (240) 
70

>  <original_smiles>  (240) 
CN1C2CCCC1C1C3C(=CCO)C2N1C(CO)C3O

>  <smiles>  (240) 
[H]OC([H])([H])C([H])=C1C2([H])C([H])(O[H])C([H])(C([H])([H])O[H])[N+]3([H])C1([H])C1([H])N(C([H])([H])[H])C([H])(C([H])([H])C([H])([H])C1([H])[H])C23[H]

$$$$
70:4:0
     RDKit          3D

 44 47  0  0  1  0  0  0  0  0999 V2000
    4.2051   -0.8501   -4.5957 C   0  0  0  0  0  0  0  0  0  0  0  0
    4.7691   -1.4777   -3.4121 N   0  0  0  0  0  0  0  0  0  0  0  0
    4.6570   -2.9053   -3.2522 C   0  0  2  0  0  0  0  0  0  0  0  0
    3.1555   -3.1846   -3.2059 C   0  0  0  0  0  0  0  0  0  0  0  0
    2.3991   -2.3771   -2.1531 C   0  0  0  0  0  0  0  0  0  0  0  0
    3.0214   -0.9910   -1.8628 C   0  0  0  0  0  0  0  0  0  0  0  0
    4.5064   -0.8608   -2.1470 C   0  0  1  0  0  0  0  0  0  0  0  0
    5.4929   -1.3769   -1.0257 C   0  0  1  0  0  0  0  0  0  0  0  0
    4.9634   -2.3275    0.0638 C   0  0  1  0  0  0  0  0  0  0  0  0
    4.7090   -3.5653   -0.7373 C   0  0  0  0  0  0  0  0  0  0  0  0
    4.0385   -4.6561   -0.3502 C   0  0  0  0  0  0  0  0  0  0  0  0
    3.2323   -4.8497    0.9291 C   0  0  0  0  0  0  0  0  0  0  0  0
    1.9771   -5.4545    0.6537 O   0  0  0  0  0  0  0  0  0  0  0  0
    5.5233   -3.3815   -2.0178 C   0  0  2  0  0  0  0  0  0  0  0  0
    6.4632   -2.3108   -1.5772 N   0  0  0  0  0  0  0  0  0  0  0  0
    7.2644   -2.7036   -0.4048 C   0  0  1  0  0  0  0  0  0  0  0  0
    8.5790   -1.9150   -0.2220 C   0  0  0  0  0  0  0  0  0  0  0  0
    9.4974   -2.7097    0.4922 O   0  0  0  0  0  0  0  0  0  0  0  0
    6.2703   -2.6349    0.7928 C   0  0  1  0  0  0  0  0  0  0  0  0
    6.5120   -1.5620    1.6704 O   0  0  0  0  0  0  0  0  0  0  0  0
    4.5677   -1.3573   -5.4740 H   0  0  0  0  0  0  0  0  0  0  0  0
    4.5453    0.1837   -4.6886 H   0  0  0  0  0  0  0  0  0  0  0  0
    3.1137   -0.8553   -4.6210 H   0  0  0  0  0  0  0  0  0  0  0  0
    5.0514   -3.4048   -4.1376 H   0  0  0  0  0  0  0  0  0  0  0  0
    2.7096   -3.0304   -4.1932 H   0  0  0  0  0  0  0  0  0  0  0  0
    2.9303   -4.2444   -3.0215 H   0  0  0  0  0  0  0  0  0  0  0  0
    1.4061   -2.2962   -2.5560 H   0  0  0  0  0  0  0  0  0  0  0  0
    2.2763   -2.9163   -1.2148 H   0  0  0  0  0  0  0  0  0  0  0  0
    2.4949   -0.2793   -2.4924 H   0  0  0  0  0  0  0  0  0  0  0  0
    2.8510   -0.6688   -0.8389 H   0  0  0  0  0  0  0  0  0  0  0  0
    4.7121    0.2071   -2.2658 H   0  0  0  0  0  0  0  0  0  0  0  0
    5.9843   -0.5157   -0.5725 H   0  0  0  0  0  0  0  0  0  0  0  0
    4.1391   -1.9821    0.6820 H   0  0  0  0  0  0  0  0  0  0  0  0
    4.0966   -5.5042   -1.0046 H   0  0  0  0  0  0  0  0  0  0  0  0
    3.8012   -5.5028    1.5971 H   0  0  0  0  0  0  0  0  0  0  0  0
    3.0739   -3.8994    1.4462 H   0  0  0  0  0  0  0  0  0  0  0  0
    2.1421   -6.3101    0.2962 H   0  0  0  0  0  0  0  0  0  0  0  0
    6.0650   -4.2661   -2.2818 H   0  0  0  0  0  0  0  0  0  0  0  0
    7.5740   -3.7421   -0.5621 H   0  0  0  0  0  0  0  0  0  0  0  0
    9.0179   -1.7409   -1.2048 H   0  0  0  0  0  0  0  0  0  0  0  0
    8.4470   -0.9362    0.2392 H   0  0  0  0  0  0  0  0  0  0  0  0
    9.1823   -2.8064    1.3792 H   0  0  0  0  0  0  0  0  0  0  0  0
    6.2535   -3.5746    1.3482 H   0  0  0  0  0  0  0  0  0  0  0  0
    5.8859   -1.6059    2.3671 H   0  0  0  0  0  0  0  0  0  0  0  0
  1  2  1  0
  1 21  1  0
  1 22  1  0
  1 23  1  0
  2  7  1  0
  2  3  1  0
  3 14  1  0
  3  4  1  0
  3 24  1  6
  4  5  1  0
  4 25  1  0
  4 26  1  0
  5  6  1  0
  5 27  1  0
  5 28  1  0
  6  7  1  0
  6 29  1  0
  6 30  1  0
  7  8  1  0
  7 31  1  6
  8 15  1  0
  8  9  1  0
  8 32  1  1
  9 19  1  0
  9 10  1  0
  9 33  1  1
 10 11  2  3
 10 14  1  0
 11 12  1  0
 11 34  1  0
 12 13  1  0
 12 35  1  0
 12 36  1  0
 13 37  1  0
 14 15  1  0
 14 38  1  6
 15 16  1  0
 16 17  1  0
 16 19  1  0
 16 39  1  6
 17 18  1  0
 17 40  1  0
 17 41  1  0
 18 42  1  0
 19 20  1  0
 19 43  1  1
 20 44  1  0
M  END
>  <i_m_ct_stereo_status>  (241) 
1

>  <s_m_source_file>  (241) 
/var/tmp/pbs.5076255.sched01/tmpqw5sdpkp/8220gfbieb.sdf

>  <i_m_source_file_index>  (241) 
18

>  <i_lp_mmshare_version>  (241) 
48012

>  <i_f3d_flags>  (241) 
0

>  <s_epik_input>  (241) 
W0NIMl0xW0NIMl1bQ0gyXVtDQEhdKE4yW0NIM10pW0NASF0oTjNbQ0BASF00W0NAQEhdMTIpW0NAQEhdKC9DND1bQ0hdXFtDSDJdW09IXSlbQ0BIXShbT0hdKVtDQEBIXTNbQ0gyXVtPSF0=

>  <s_epik_cmdline>  (241) 
J2VwaWtfcHl0aG9uJywgJy1waHQnLCAnMi4wJywgJy1waCcsICc3LjAnLCAnLXRuJywgJzgnLCAnLW1hJywgJzIwMCcsICctaW1hZScsICc8aW5maWxlLm1hZT4nLCAnLW9tYWUnLCAnPG91dGZpbGUubWFlPic=

>  <r_epik_Ionization_Penalty>  (241) 
1.99939

>  <r_epik_Ionization_Penalty_Charging>  (241) 
0

>  <r_epik_Ionization_Penalty_Neutral>  (241) 
1.99939

>  <r_epik_State_Penalty>  (241) 
1.54674

>  <r_epik_Charging_Adjusted_Penalty>  (241) 
1.54674

>  <i_epik_Tot_Q>  (241) 
0

>  <i_epik_Tot_abs_Q>  (241) 
0

>  <s_lp_Force_Field>  (241) 
OPLS3e

>  <r_lp_Energy>  (241) 
71.9969

>  <b_lp_Chiralities_Consistent>  (241) 
1

>  <s_lp_Variant>  (241) 
70:0-5

>  <s_i_glide_gridfile>  (241) 
pfpi4k_grid

>  <i_i_glide_lignum>  (241) 
18

>  <i_i_glide_rotatable_bonds>  (241) 
5

>  <r_i_docking_score>  (241) 
-2.85598

>  <r_i_glide_ligand_efficiency>  (241) 
-0.142799

>  <r_i_glide_ligand_efficiency_sa>  (241) 
-0.387616

>  <r_i_glide_ligand_efficiency_ln>  (241) 
-0.714758

>  <r_i_glide_gscore>  (241) 
-2.85598

>  <r_i_glide_lipo>  (241) 
-0.547452

>  <r_i_glide_hbond>  (241) 
-0.178931

>  <r_i_glide_metal>  (241) 
-0

>  <r_i_glide_rewards>  (241) 
-1.49753

>  <r_i_glide_evdw>  (241) 
-9.17547

>  <r_i_glide_ecoul>  (241) 
-4.2186

>  <r_i_glide_erotb>  (241) 
0.459492

>  <r_i_glide_esite>  (241) 
0

>  <r_i_glide_emodel>  (241) 
-11.6477

>  <r_i_glide_energy>  (241) 
-13.3941

>  <r_i_glide_einternal>  (241) 
1.69553

>  <r_i_glide_intrahb_reward>  (241) 
-0

>  <i_i_glide_confnum>  (241) 
4

>  <i_i_glide_posenum>  (241) 
13

>  <r_i_glide_eff_state_penalty>  (241) 
0

>  <ligand_id>  (241) 
70

>  <original_smiles>  (241) 
CN1C2CCCC1C1C3C(=CCO)C2N1C(CO)C3O

>  <smiles>  (241) 
[H]OC([H])([H])C([H])=C1C2([H])N3C([H])(C([H])([H])O[H])C([H])(O[H])C1([H])C3([H])C1([H])N(C([H])([H])[H])C2([H])C([H])([H])C([H])([H])C1([H])[H]

$$$$
70:5:0
     RDKit          3D

 44 47  0  0  1  0  0  0  0  0999 V2000
    3.1443   -6.7149    2.1173 C   0  0  0  0  0  0  0  0  0  0  0  0
    3.3953   -5.3449    1.6709 N   0  0  0  0  0  0  0  0  0  0  0  0
    3.5611   -5.1429    0.2304 C   0  0  2  0  0  0  0  0  0  0  0  0
    4.7692   -5.9984   -0.2549 C   0  0  0  0  0  0  0  0  0  0  0  0
    6.0830   -5.7720    0.5421 C   0  0  0  0  0  0  0  0  0  0  0  0
    5.8784   -5.3539    2.0178 C   0  0  0  0  0  0  0  0  0  0  0  0
    4.5212   -4.6502    2.3056 C   0  0  1  0  0  0  0  0  0  0  0  0
    4.4333   -3.1118    1.9711 C   0  0  1  0  0  0  0  0  0  0  0  0
    5.4551   -2.4649    1.0236 C   0  0  1  0  0  0  0  0  0  0  0  0
    5.0474   -3.0797   -0.2988 C   0  0  0  0  0  0  0  0  0  0  0  0
    5.7365   -3.0085   -1.4480 C   0  0  0  0  0  0  0  0  0  0  0  0
    5.2832   -3.4990   -2.8141 C   0  0  0  0  0  0  0  0  0  0  0  0
    4.6276   -2.4680   -3.5168 O   0  0  0  0  0  0  0  0  0  0  0  0
    3.6273   -3.5863   -0.0780 C   0  0  2  0  0  0  0  0  0  0  0  0
    3.2629   -2.8009    1.1410 N   0  0  0  0  0  0  0  0  0  0  0  0
    3.3572   -1.3419    0.9639 C   0  0  1  0  0  0  0  0  0  0  0  0
    2.5231   -0.5348    1.9864 C   0  0  0  0  0  0  0  0  0  0  0  0
    1.1455   -0.6248    1.6863 O   0  0  0  0  0  0  0  0  0  0  0  0
    4.8830   -1.0434    0.9754 C   0  0  1  0  0  0  0  0  0  0  0  0
    5.3116   -0.2635    2.0747 O   0  0  0  0  0  0  0  0  0  0  0  0
    2.2899   -7.1367    1.5874 H   0  0  0  0  0  0  0  0  0  0  0  0
    2.9176   -6.7413    3.1844 H   0  0  0  0  0  0  0  0  0  0  0  0
    3.9980   -7.3665    1.9466 H   0  0  0  0  0  0  0  0  0  0  0  0
    2.6711   -5.5219   -0.2699 H   0  0  0  0  0  0  0  0  0  0  0  0
    4.4867   -7.0480   -0.1964 H   0  0  0  0  0  0  0  0  0  0  0  0
    4.9755   -5.8610   -1.3064 H   0  0  0  0  0  0  0  0  0  0  0  0
    6.6940   -6.6719    0.5016 H   0  0  0  0  0  0  0  0  0  0  0  0
    6.7025   -5.0222    0.0570 H   0  0  0  0  0  0  0  0  0  0  0  0
    5.9266   -6.2558    2.6287 H   0  0  0  0  0  0  0  0  0  0  0  0
    6.7168   -4.7462    2.3633 H   0  0  0  0  0  0  0  0  0  0  0  0
    4.3889   -4.7256    3.3842 H   0  0  0  0  0  0  0  0  0  0  0  0
    4.3920   -2.5772    2.9215 H   0  0  0  0  0  0  0  0  0  0  0  0
    6.5180   -2.5421    1.2735 H   0  0  0  0  0  0  0  0  0  0  0  0
    6.7106   -2.5413   -1.4284 H   0  0  0  0  0  0  0  0  0  0  0  0
    6.1639   -3.8301   -3.3660 H   0  0  0  0  0  0  0  0  0  0  0  0
    4.6018   -4.3435   -2.7548 H   0  0  0  0  0  0  0  0  0  0  0  0
    3.7836   -2.3366   -3.1087 H   0  0  0  0  0  0  0  0  0  0  0  0
    3.0008   -3.3303   -0.9356 H   0  0  0  0  0  0  0  0  0  0  0  0
    2.9817   -1.0860   -0.0262 H   0  0  0  0  0  0  0  0  0  0  0  0
    2.6729   -0.8798    3.0134 H   0  0  0  0  0  0  0  0  0  0  0  0
    2.7920    0.5228    1.9521 H   0  0  0  0  0  0  0  0  0  0  0  0
    1.0160   -0.6566    0.7177 H   0  0  0  0  0  0  0  0  0  0  0  0
    5.1759   -0.5036    0.0758 H   0  0  0  0  0  0  0  0  0  0  0  0
    4.9751   -0.6506    2.8754 H   0  0  0  0  0  0  0  0  0  0  0  0
  1  2  1  0
  1 21  1  0
  1 22  1  0
  1 23  1  0
  2  7  1  0
  2  3  1  0
  3 14  1  0
  3  4  1  0
  3 24  1  6
  4  5  1  0
  4 25  1  0
  4 26  1  0
  5  6  1  0
  5 27  1  0
  5 28  1  0
  6  7  1  0
  6 29  1  0
  6 30  1  0
  7  8  1  0
  7 31  1  1
  8 15  1  0
  8  9  1  0
  8 32  1  1
  9 19  1  0
  9 10  1  0
  9 33  1  1
 10 11  2  3
 10 14  1  0
 11 12  1  0
 11 34  1  0
 12 13  1  0
 12 35  1  0
 12 36  1  0
 13 37  1  0
 14 15  1  0
 14 38  1  6
 15 16  1  0
 16 17  1  0
 16 19  1  0
 16 39  1  6
 17 18  1  0
 17 40  1  0
 17 41  1  0
 18 42  1  0
 19 20  1  0
 19 43  1  6
 20 44  1  0
M  END
>  <i_m_ct_stereo_status>  (242) 
1

>  <s_m_source_file>  (242) 
/var/tmp/pbs.5076255.sched01/tmpqw5sdpkp/8220gfbieb.sdf

>  <i_m_source_file_index>  (242) 
19

>  <i_lp_mmshare_version>  (242) 
48012

>  <i_f3d_flags>  (242) 
0

>  <s_epik_input>  (242) 
W0NIMl0xW0NIMl1bQ0gyXVtDQEhdKE4yW0NIM10pW0NASF0oTjNbQ0BASF00W0NAQEhdMTIpW0NAQEhdKC9DND1bQ0hdXFtDSDJdW09IXSlbQ0BIXShbT0hdKVtDQEBIXTNbQ0gyXVtPSF0=

>  <s_epik_cmdline>  (242) 
J2VwaWtfcHl0aG9uJywgJy1waHQnLCAnMi4wJywgJy1waCcsICc3LjAnLCAnLXRuJywgJzgnLCAnLW1hJywgJzIwMCcsICctaW1hZScsICc8aW5maWxlLm1hZT4nLCAnLW9tYWUnLCAnPG91dGZpbGUubWFlPic=

>  <r_epik_Ionization_Penalty>  (242) 
1.99939

>  <r_epik_Ionization_Penalty_Charging>  (242) 
0

>  <r_epik_Ionization_Penalty_Neutral>  (242) 
1.99939

>  <r_epik_State_Penalty>  (242) 
1.54674

>  <r_epik_Charging_Adjusted_Penalty>  (242) 
1.54674

>  <i_epik_Tot_Q>  (242) 
0

>  <i_epik_Tot_abs_Q>  (242) 
0

>  <s_lp_Force_Field>  (242) 
OPLS3e

>  <r_lp_Energy>  (242) 
73.0393

>  <b_lp_Chiralities_Consistent>  (242) 
1

>  <s_lp_Variant>  (242) 
70:0-6

>  <s_i_glide_gridfile>  (242) 
pfpi4k_grid

>  <i_i_glide_lignum>  (242) 
19

>  <i_i_glide_rotatable_bonds>  (242) 
5

>  <r_i_docking_score>  (242) 
-3.9094

>  <r_i_glide_ligand_efficiency>  (242) 
-0.19547

>  <r_i_glide_ligand_efficiency_sa>  (242) 
-0.530588

>  <r_i_glide_ligand_efficiency_ln>  (242) 
-0.978395

>  <r_i_glide_gscore>  (242) 
-3.9094

>  <r_i_glide_lipo>  (242) 
-0.576624

>  <r_i_glide_hbond>  (242) 
-0.323695

>  <r_i_glide_metal>  (242) 
-0

>  <r_i_glide_rewards>  (242) 
-1.49753

>  <r_i_glide_evdw>  (242) 
-16.0506

>  <r_i_glide_ecoul>  (242) 
-7.79013

>  <r_i_glide_erotb>  (242) 
0.459492

>  <r_i_glide_esite>  (242) 
0

>  <r_i_glide_emodel>  (242) 
-27.4401

>  <r_i_glide_energy>  (242) 
-23.8408

>  <r_i_glide_einternal>  (242) 
5.91606

>  <r_i_glide_intrahb_reward>  (242) 
-0

>  <i_i_glide_confnum>  (242) 
6

>  <i_i_glide_posenum>  (242) 
34

>  <r_i_glide_eff_state_penalty>  (242) 
0

>  <ligand_id>  (242) 
70

>  <original_smiles>  (242) 
CN1C2CCCC1C1C3C(=CCO)C2N1C(CO)C3O

>  <smiles>  (242) 
[H]OC([H])([H])C([H])=C1C2([H])N3C([H])(C([H])([H])O[H])C([H])(O[H])C1([H])C3([H])C1([H])N(C([H])([H])[H])C2([H])C([H])([H])C([H])([H])C1([H])[H]

$$$$
70:5:1
     RDKit          3D

 44 47  0  0  1  0  0  0  0  0999 V2000
    3.3788   -6.1943    3.0983 C   0  0  0  0  0  0  0  0  0  0  0  0
    3.7991   -4.9376    2.4790 N   0  0  0  0  0  0  0  0  0  0  0  0
    3.0367   -4.4876    1.3153 C   0  0  2  0  0  0  0  0  0  0  0  0
    3.1366   -5.5647    0.2010 C   0  0  0  0  0  0  0  0  0  0  0  0
    4.5924   -6.0077   -0.1410 C   0  0  0  0  0  0  0  0  0  0  0  0
    5.6046   -5.8779    1.0308 C   0  0  0  0  0  0  0  0  0  0  0  0
    5.2109   -4.8275    2.1074 C   0  0  1  0  0  0  0  0  0  0  0  0
    5.5407   -3.3146    1.7900 C   0  0  1  0  0  0  0  0  0  0  0  0
    5.8268   -2.8683    0.3453 C   0  0  1  0  0  0  0  0  0  0  0  0
    4.4627   -3.0074   -0.2735 C   0  0  0  0  0  0  0  0  0  0  0  0
    4.1897   -2.9567   -1.5911 C   0  0  0  0  0  0  0  0  0  0  0  0
    2.8188   -2.9785   -2.2325 C   0  0  0  0  0  0  0  0  0  0  0  0
    2.6490   -1.8190   -3.0103 O   0  0  0  0  0  0  0  0  0  0  0  0
    3.4936   -3.0248    0.9029 C   0  0  2  0  0  0  0  0  0  0  0  0
    4.3712   -2.4475    1.9639 N   0  0  0  0  0  0  0  0  0  0  0  0
    4.8939   -1.1088    1.6484 C   0  0  1  0  0  0  0  0  0  0  0  0
    5.3482   -0.3364    2.9079 C   0  0  0  0  0  0  0  0  0  0  0  0
    4.2327    0.2054    3.5914 O   0  0  0  0  0  0  0  0  0  0  0  0
    5.9915   -1.3570    0.5620 C   0  0  1  0  0  0  0  0  0  0  0  0
    7.3295   -1.0750    0.9217 O   0  0  0  0  0  0  0  0  0  0  0  0
    2.3148   -6.1612    3.3396 H   0  0  0  0  0  0  0  0  0  0  0  0
    3.9190   -6.3654    4.0300 H   0  0  0  0  0  0  0  0  0  0  0  0
    3.5505   -7.0511    2.4516 H   0  0  0  0  0  0  0  0  0  0  0  0
    1.9885   -4.4161    1.6076 H   0  0  0  0  0  0  0  0  0  0  0  0
    2.5796   -6.4428    0.5202 H   0  0  0  0  0  0  0  0  0  0  0  0
    2.6098   -5.2244   -0.6839 H   0  0  0  0  0  0  0  0  0  0  0  0
    4.5838   -7.0405   -0.4972 H   0  0  0  0  0  0  0  0  0  0  0  0
    4.9719   -5.4473   -0.9933 H   0  0  0  0  0  0  0  0  0  0  0  0
    5.6767   -6.8488    1.5209 H   0  0  0  0  0  0  0  0  0  0  0  0
    6.6113   -5.6892    0.6535 H   0  0  0  0  0  0  0  0  0  0  0  0
    5.8013   -5.0809    2.9932 H   0  0  0  0  0  0  0  0  0  0  0  0
    6.3463   -3.0093    2.4550 H   0  0  0  0  0  0  0  0  0  0  0  0
    6.6420   -3.3628   -0.1861 H   0  0  0  0  0  0  0  0  0  0  0  0
    5.0190   -2.8834   -2.2793 H   0  0  0  0  0  0  0  0  0  0  0  0
    2.7421   -3.8456   -2.8860 H   0  0  0  0  0  0  0  0  0  0  0  0
    2.0167   -3.0519   -1.4923 H   0  0  0  0  0  0  0  0  0  0  0  0
    2.1401   -1.2096   -2.4889 H   0  0  0  0  0  0  0  0  0  0  0  0
    2.6369   -2.3874    0.6942 H   0  0  0  0  0  0  0  0  0  0  0  0
    4.0941   -0.5303    1.1829 H   0  0  0  0  0  0  0  0  0  0  0  0
    5.9188   -0.9619    3.5958 H   0  0  0  0  0  0  0  0  0  0  0  0
    5.9849    0.4989    2.6388 H   0  0  0  0  0  0  0  0  0  0  0  0
    3.8102    0.8395    3.0315 H   0  0  0  0  0  0  0  0  0  0  0  0
    5.7760   -0.7781   -0.3335 H   0  0  0  0  0  0  0  0  0  0  0  0
    7.4059   -0.1795    1.2622 H   0  0  0  0  0  0  0  0  0  0  0  0
  1  2  1  0
  1 21  1  0
  1 22  1  0
  1 23  1  0
  2  7  1  0
  2  3  1  0
  3 14  1  0
  3  4  1  0
  3 24  1  1
  4  5  1  0
  4 25  1  0
  4 26  1  0
  5  6  1  0
  5 27  1  0
  5 28  1  0
  6  7  1  0
  6 29  1  0
  6 30  1  0
  7  8  1  0
  7 31  1  1
  8 15  1  0
  8  9  1  0
  8 32  1  1
  9 19  1  0
  9 10  1  0
  9 33  1  6
 10 11  2  3
 10 14  1  0
 11 12  1  0
 11 34  1  0
 12 13  1  0
 12 35  1  0
 12 36  1  0
 13 37  1  0
 14 15  1  0
 14 38  1  6
 15 16  1  0
 16 17  1  0
 16 19  1  0
 16 39  1  6
 17 18  1  0
 17 40  1  0
 17 41  1  0
 18 42  1  0
 19 20  1  0
 19 43  1  6
 20 44  1  0
M  END
>  <i_m_ct_stereo_status>  (243) 
1

>  <s_m_source_file>  (243) 
/var/tmp/pbs.5076255.sched01/tmpqw5sdpkp/8220gfbieb.sdf

>  <i_m_source_file_index>  (243) 
19

>  <i_lp_mmshare_version>  (243) 
48012

>  <i_f3d_flags>  (243) 
0

>  <s_epik_input>  (243) 
W0NIMl0xW0NIMl1bQ0gyXVtDQEhdKE4yW0NIM10pW0NASF0oTjNbQ0BASF00W0NAQEhdMTIpW0NAQEhdKC9DND1bQ0hdXFtDSDJdW09IXSlbQ0BIXShbT0hdKVtDQEBIXTNbQ0gyXVtPSF0=

>  <s_epik_cmdline>  (243) 
J2VwaWtfcHl0aG9uJywgJy1waHQnLCAnMi4wJywgJy1waCcsICc3LjAnLCAnLXRuJywgJzgnLCAnLW1hJywgJzIwMCcsICctaW1hZScsICc8aW5maWxlLm1hZT4nLCAnLW9tYWUnLCAnPG91dGZpbGUubWFlPic=

>  <r_epik_Ionization_Penalty>  (243) 
1.99939

>  <r_epik_Ionization_Penalty_Charging>  (243) 
0

>  <r_epik_Ionization_Penalty_Neutral>  (243) 
1.99939

>  <r_epik_State_Penalty>  (243) 
1.54674

>  <r_epik_Charging_Adjusted_Penalty>  (243) 
1.54674

>  <i_epik_Tot_Q>  (243) 
0

>  <i_epik_Tot_abs_Q>  (243) 
0

>  <s_lp_Force_Field>  (243) 
OPLS3e

>  <r_lp_Energy>  (243) 
73.0393

>  <b_lp_Chiralities_Consistent>  (243) 
1

>  <s_lp_Variant>  (243) 
70:0-6

>  <s_i_glide_gridfile>  (243) 
pfpi4k_grid

>  <i_i_glide_lignum>  (243) 
19

>  <i_i_glide_rotatable_bonds>  (243) 
5

>  <r_i_docking_score>  (243) 
-3.80536

>  <r_i_glide_ligand_efficiency>  (243) 
-0.190268

>  <r_i_glide_ligand_efficiency_sa>  (243) 
-0.516467

>  <r_i_glide_ligand_efficiency_ln>  (243) 
-0.952356

>  <r_i_glide_gscore>  (243) 
-3.80536

>  <r_i_glide_lipo>  (243) 
-0.561739

>  <r_i_glide_hbond>  (243) 
-0.403809

>  <r_i_glide_metal>  (243) 
-0

>  <r_i_glide_rewards>  (243) 
-1.49753

>  <r_i_glide_evdw>  (243) 
-13.8656

>  <r_i_glide_ecoul>  (243) 
-7.38999

>  <r_i_glide_erotb>  (243) 
0.459492

>  <r_i_glide_esite>  (243) 
0

>  <r_i_glide_emodel>  (243) 
-25.9158

>  <r_i_glide_energy>  (243) 
-21.2555

>  <r_i_glide_einternal>  (243) 
4.17252

>  <r_i_glide_intrahb_reward>  (243) 
-0

>  <i_i_glide_confnum>  (243) 
6

>  <i_i_glide_posenum>  (243) 
27

>  <r_i_glide_eff_state_penalty>  (243) 
0

>  <ligand_id>  (243) 
70

>  <original_smiles>  (243) 
CN1C2CCCC1C1C3C(=CCO)C2N1C(CO)C3O

>  <smiles>  (243) 
[H]OC([H])([H])C([H])=C1C2([H])N3C([H])(C([H])([H])O[H])C([H])(O[H])C1([H])C3([H])C1([H])N(C([H])([H])[H])C2([H])C([H])([H])C([H])([H])C1([H])[H]

$$$$
70:5:2
     RDKit          3D

 44 47  0  0  1  0  0  0  0  0999 V2000
    3.4123   -6.7815    2.2666 C   0  0  0  0  0  0  0  0  0  0  0  0
    3.5994   -5.3977    1.8334 N   0  0  0  0  0  0  0  0  0  0  0  0
    3.6684   -5.1646    0.3878 C   0  0  2  0  0  0  0  0  0  0  0  0
    4.8705   -5.9715   -0.1877 C   0  0  0  0  0  0  0  0  0  0  0  0
    6.2199   -5.7250    0.5511 C   0  0  0  0  0  0  0  0  0  0  0  0
    6.0880   -5.3306    2.0409 C   0  0  0  0  0  0  0  0  0  0  0  0
    4.7326   -4.6791    2.4232 C   0  0  1  0  0  0  0  0  0  0  0  0
    4.5759   -3.1385    2.1139 C   0  0  1  0  0  0  0  0  0  0  0  0
    5.5173   -2.4450    1.1152 C   0  0  1  0  0  0  0  0  0  0  0  0
    5.0566   -3.0435   -0.1938 C   0  0  0  0  0  0  0  0  0  0  0  0
    5.6809   -2.9357   -1.3790 C   0  0  0  0  0  0  0  0  0  0  0  0
    5.1681   -3.4327   -2.7177 C   0  0  0  0  0  0  0  0  0  0  0  0
    4.6187   -2.3655   -3.4567 O   0  0  0  0  0  0  0  0  0  0  0  0
    3.6718   -3.5981    0.1082 C   0  0  2  0  0  0  0  0  0  0  0  0
    3.3493   -2.8471    1.3594 N   0  0  0  0  0  0  0  0  0  0  0  0
    3.3890   -1.3830    1.2074 C   0  0  1  0  0  0  0  0  0  0  0  0
    2.5914   -0.6288    2.2972 C   0  0  0  0  0  0  0  0  0  0  0  0
    1.2007   -0.7760    2.0724 O   0  0  0  0  0  0  0  0  0  0  0  0
    4.9076   -1.0351    1.1335 C   0  0  1  0  0  0  0  0  0  0  0  0
    5.4070   -0.2917    2.2330 O   0  0  0  0  0  0  0  0  0  0  0  0
    2.5393   -7.2201    1.7805 H   0  0  0  0  0  0  0  0  0  0  0  0
    3.2465   -6.8314    3.3442 H   0  0  0  0  0  0  0  0  0  0  0  0
    4.2735   -7.4065    2.0360 H   0  0  0  0  0  0  0  0  0  0  0  0
    2.7579   -5.5639   -0.0640 H   0  0  0  0  0  0  0  0  0  0  0  0
    4.6193   -7.0286   -0.1313 H   0  0  0  0  0  0  0  0  0  0  0  0
    4.9999   -5.8015   -1.2492 H   0  0  0  0  0  0  0  0  0  0  0  0
    6.8477   -6.6159    0.4947 H   0  0  0  0  0  0  0  0  0  0  0  0
    6.7952   -4.9536    0.0396 H   0  0  0  0  0  0  0  0  0  0  0  0
    6.2003   -6.2408    2.6277 H   0  0  0  0  0  0  0  0  0  0  0  0
    6.9283   -4.7033    2.3403 H   0  0  0  0  0  0  0  0  0  0  0  0
    4.6603   -4.7738    3.5047 H   0  0  0  0  0  0  0  0  0  0  0  0
    4.5749   -2.6137    3.0729 H   0  0  0  0  0  0  0  0  0  0  0  0
    6.5923   -2.4976    1.3077 H   0  0  0  0  0  0  0  0  0  0  0  0
    6.6368   -2.4359   -1.4013 H   0  0  0  0  0  0  0  0  0  0  0  0
    6.0092   -3.8542   -3.2702 H   0  0  0  0  0  0  0  0  0  0  0  0
    4.4153   -4.2154   -2.6096 H   0  0  0  0  0  0  0  0  0  0  0  0
    3.7944   -2.1273   -3.0496 H   0  0  0  0  0  0  0  0  0  0  0  0
    2.9851   -3.3495   -0.7021 H   0  0  0  0  0  0  0  0  0  0  0  0
    2.9375   -1.1246    0.2515 H   0  0  0  0  0  0  0  0  0  0  0  0
    2.8280   -0.9767    3.3056 H   0  0  0  0  0  0  0  0  0  0  0  0
    2.8176    0.4390    2.2614 H   0  0  0  0  0  0  0  0  0  0  0  0
    1.0339   -0.6561    1.1400 H   0  0  0  0  0  0  0  0  0  0  0  0
    5.1287   -0.4733    0.2261 H   0  0  0  0  0  0  0  0  0  0  0  0
    6.3490   -0.2396    2.1541 H   0  0  0  0  0  0  0  0  0  0  0  0
  1  2  1  0
  1 21  1  0
  1 22  1  0
  1 23  1  0
  2  7  1  0
  2  3  1  0
  3 14  1  0
  3  4  1  0
  3 24  1  6
  4  5  1  0
  4 25  1  0
  4 26  1  0
  5  6  1  0
  5 27  1  0
  5 28  1  0
  6  7  1  0
  6 29  1  0
  6 30  1  0
  7  8  1  0
  7 31  1  1
  8 15  1  0
  8  9  1  0
  8 32  1  1
  9 19  1  0
  9 10  1  0
  9 33  1  1
 10 11  2  3
 10 14  1  0
 11 12  1  0
 11 34  1  0
 12 13  1  0
 12 35  1  0
 12 36  1  0
 13 37  1  0
 14 15  1  0
 14 38  1  6
 15 16  1  0
 16 17  1  0
 16 19  1  0
 16 39  1  6
 17 18  1  0
 17 40  1  0
 17 41  1  0
 18 42  1  0
 19 20  1  0
 19 43  1  6
 20 44  1  0
M  END
>  <i_m_ct_stereo_status>  (244) 
1

>  <s_m_source_file>  (244) 
/var/tmp/pbs.5076255.sched01/tmpqw5sdpkp/8220gfbieb.sdf

>  <i_m_source_file_index>  (244) 
19

>  <i_lp_mmshare_version>  (244) 
48012

>  <i_f3d_flags>  (244) 
0

>  <s_epik_input>  (244) 
W0NIMl0xW0NIMl1bQ0gyXVtDQEhdKE4yW0NIM10pW0NASF0oTjNbQ0BASF00W0NAQEhdMTIpW0NAQEhdKC9DND1bQ0hdXFtDSDJdW09IXSlbQ0BIXShbT0hdKVtDQEBIXTNbQ0gyXVtPSF0=

>  <s_epik_cmdline>  (244) 
J2VwaWtfcHl0aG9uJywgJy1waHQnLCAnMi4wJywgJy1waCcsICc3LjAnLCAnLXRuJywgJzgnLCAnLW1hJywgJzIwMCcsICctaW1hZScsICc8aW5maWxlLm1hZT4nLCAnLW9tYWUnLCAnPG91dGZpbGUubWFlPic=

>  <r_epik_Ionization_Penalty>  (244) 
1.99939

>  <r_epik_Ionization_Penalty_Charging>  (244) 
0

>  <r_epik_Ionization_Penalty_Neutral>  (244) 
1.99939

>  <r_epik_State_Penalty>  (244) 
1.54674

>  <r_epik_Charging_Adjusted_Penalty>  (244) 
1.54674

>  <i_epik_Tot_Q>  (244) 
0

>  <i_epik_Tot_abs_Q>  (244) 
0

>  <s_lp_Force_Field>  (244) 
OPLS3e

>  <r_lp_Energy>  (244) 
73.0393

>  <b_lp_Chiralities_Consistent>  (244) 
1

>  <s_lp_Variant>  (244) 
70:0-6

>  <s_i_glide_gridfile>  (244) 
pfpi4k_grid

>  <i_i_glide_lignum>  (244) 
19

>  <i_i_glide_rotatable_bonds>  (244) 
5

>  <r_i_docking_score>  (244) 
-3.76633

>  <r_i_glide_ligand_efficiency>  (244) 
-0.188317

>  <r_i_glide_ligand_efficiency_sa>  (244) 
-0.51117

>  <r_i_glide_ligand_efficiency_ln>  (244) 
-0.942589

>  <r_i_glide_gscore>  (244) 
-3.76633

>  <r_i_glide_lipo>  (244) 
-0.600737

>  <r_i_glide_hbond>  (244) 
-0.431299

>  <r_i_glide_metal>  (244) 
-0

>  <r_i_glide_rewards>  (244) 
-1.49753

>  <r_i_glide_evdw>  (244) 
-18.1178

>  <r_i_glide_ecoul>  (244) 
-5.26915

>  <r_i_glide_erotb>  (244) 
0.459492

>  <r_i_glide_esite>  (244) 
0

>  <r_i_glide_emodel>  (244) 
-27.3257

>  <r_i_glide_energy>  (244) 
-23.387

>  <r_i_glide_einternal>  (244) 
5.26338

>  <r_i_glide_intrahb_reward>  (244) 
-0

>  <i_i_glide_confnum>  (244) 
6

>  <i_i_glide_posenum>  (244) 
31

>  <r_i_glide_eff_state_penalty>  (244) 
0

>  <ligand_id>  (244) 
70

>  <original_smiles>  (244) 
CN1C2CCCC1C1C3C(=CCO)C2N1C(CO)C3O

>  <smiles>  (244) 
[H]OC([H])([H])C([H])=C1C2([H])N3C([H])(C([H])([H])O[H])C([H])(O[H])C1([H])C3([H])C1([H])N(C([H])([H])[H])C2([H])C([H])([H])C([H])([H])C1([H])[H]

$$$$
71:0:0
     RDKit          3D

 69 74  0  0  1  0  0  0  0  0999 V2000
    3.1119    3.0106    7.2074 C   0  0  0  0  0  0  0  0  0  0  0  0
    1.7349    3.1217    6.5205 C   0  0  0  0  0  0  0  0  0  0  0  0
    0.8345    3.6200    7.6883 C   0  0  0  0  0  0  0  0  0  0  0  0
    1.9406    4.3391    5.5323 C   0  0  1  0  0  0  0  0  0  0  0  0
    2.8165    4.2492    4.2657 C   0  0  0  0  0  0  0  0  0  0  0  0
    1.5422    4.0161    3.4096 C   0  0  2  0  0  0  0  0  0  0  0  0
    0.8226    4.7647    4.5711 C   0  0  0  0  0  0  0  0  0  0  0  0
   -0.1976    5.4428    4.6776 O   0  0  0  0  0  0  0  0  0  0  0  0
    0.9822    2.5879    3.3867 C   0  0  0  0  0  0  0  0  0  0  0  0
   -0.3513    2.4241    3.3883 C   0  0  0  0  0  0  0  0  0  0  0  0
   -1.0494    1.4884    4.3150 C   0  0  1  0  0  0  0  0  0  0  0  0
   -1.3018    0.1130    3.6842 C   0  0  0  0  0  0  0  0  0  0  0  0
   -2.1770   -0.6628    4.4849 O   0  0  0  0  0  0  0  0  0  0  0  0
   -0.4121    1.6952    5.7313 C   0  0  1  0  0  0  0  0  0  0  0  0
   -1.2024    1.1034    6.7364 O   0  0  0  0  0  0  0  0  0  0  0  0
    1.1716    1.6611    6.0136 C   0  0  1  0  0  0  0  0  0  0  0  0
    2.0296    0.7209    5.0108 C   0  0  2  0  0  0  0  0  0  0  0  0
    1.9675    1.5145    3.6508 C   0  0  0  0  0  0  0  0  0  0  0  0
    2.7884    1.4197    2.7470 O   0  0  0  0  0  0  0  0  0  0  0  0
    1.7059   -0.8669    5.0164 C   0  0  2  0  0  0  0  0  0  0  0  0
    1.4709   -1.6513    6.3448 C   0  0  2  0  0  0  0  0  0  0  0  0
    0.1228   -1.6195    7.0682 C   0  0  1  0  0  0  0  0  0  0  0  0
   -0.2141   -2.9049    7.5260 O   0  0  0  0  0  0  0  0  0  0  0  0
    0.2763   -0.7402    8.1358 O   0  0  0  0  0  0  0  0  0  0  0  0
    1.6208   -0.7617    8.6075 C   0  0  0  0  0  0  0  0  0  0  0  0
    2.4765   -1.2677    7.4318 C   0  0  2  0  0  0  0  0  0  0  0  0
    3.6021   -0.3075    6.9198 C   0  0  1  0  0  0  0  0  0  0  0  0
    4.8659   -0.8764    7.2248 O   0  0  0  0  0  0  0  0  0  0  0  0
    3.4714    0.0766    5.3892 C   0  0  2  0  0  0  0  0  0  0  0  0
    4.8088    0.7466    4.9679 C   0  0  0  0  0  0  0  0  0  0  0  0
    3.1289   -1.1819    4.4924 C   0  0  0  0  0  0  0  0  0  0  0  0
    3.8272   -2.5261    4.8471 C   0  0  0  0  0  0  0  0  0  0  0  0
    3.3010   -1.2192    2.9475 C   0  0  0  0  0  0  0  0  0  0  0  0
    3.4957    3.9934    7.4871 H   0  0  0  0  0  0  0  0  0  0  0  0
    3.8581    2.5977    6.5456 H   0  0  0  0  0  0  0  0  0  0  0  0
    3.0699    2.4505    8.1405 H   0  0  0  0  0  0  0  0  0  0  0  0
   -0.0972    4.0758    7.3562 H   0  0  0  0  0  0  0  0  0  0  0  0
    1.3308    4.3918    8.2779 H   0  0  0  0  0  0  0  0  0  0  0  0
    0.5863    2.8136    8.3801 H   0  0  0  0  0  0  0  0  0  0  0  0
    2.2523    5.2182    6.0925 H   0  0  0  0  0  0  0  0  0  0  0  0
    3.2960    5.2046    4.0481 H   0  0  0  0  0  0  0  0  0  0  0  0
    3.5677    3.4672    4.2903 H   0  0  0  0  0  0  0  0  0  0  0  0
    1.5502    4.5416    2.4542 H   0  0  0  0  0  0  0  0  0  0  0  0
   -0.9574    3.2801    3.1518 H   0  0  0  0  0  0  0  0  0  0  0  0
   -2.0491    1.9201    4.3987 H   0  0  0  0  0  0  0  0  0  0  0  0
   -1.7862    0.2739    2.7180 H   0  0  0  0  0  0  0  0  0  0  0  0
   -0.3980   -0.4089    3.4396 H   0  0  0  0  0  0  0  0  0  0  0  0
   -3.0489   -0.3064    4.3315 H   0  0  0  0  0  0  0  0  0  0  0  0
   -0.6947    2.7299    5.8817 H   0  0  0  0  0  0  0  0  0  0  0  0
   -0.9525    1.4831    7.5705 H   0  0  0  0  0  0  0  0  0  0  0  0
    1.2246    1.1337    6.9499 H   0  0  0  0  0  0  0  0  0  0  0  0
    1.0711   -1.2565    4.2477 H   0  0  0  0  0  0  0  0  0  0  0  0
    1.6155   -2.7014    6.1014 H   0  0  0  0  0  0  0  0  0  0  0  0
   -0.6792   -1.3092    6.4076 H   0  0  0  0  0  0  0  0  0  0  0  0
    0.5734   -3.3173    7.8620 H   0  0  0  0  0  0  0  0  0  0  0  0
    1.8963    0.2357    8.9642 H   0  0  0  0  0  0  0  0  0  0  0  0
    1.7028   -1.4425    9.4585 H   0  0  0  0  0  0  0  0  0  0  0  0
    2.9383   -2.1887    7.7932 H   0  0  0  0  0  0  0  0  0  0  0  0
    3.5921    0.5798    7.5290 H   0  0  0  0  0  0  0  0  0  0  0  0
    4.9433   -1.6959    6.7526 H   0  0  0  0  0  0  0  0  0  0  0  0
    5.5244   -0.0137    4.6502 H   0  0  0  0  0  0  0  0  0  0  0  0
    5.3034    1.2915    5.7716 H   0  0  0  0  0  0  0  0  0  0  0  0
    4.7199    1.4264    4.1254 H   0  0  0  0  0  0  0  0  0  0  0  0
    4.8660   -2.5400    4.5070 H   0  0  0  0  0  0  0  0  0  0  0  0
    3.3177   -3.3715    4.3828 H   0  0  0  0  0  0  0  0  0  0  0  0
    3.8586   -2.7740    5.8989 H   0  0  0  0  0  0  0  0  0  0  0  0
    4.1577   -0.6350    2.6140 H   0  0  0  0  0  0  0  0  0  0  0  0
    2.4102   -0.8912    2.4169 H   0  0  0  0  0  0  0  0  0  0  0  0
    3.4524   -2.2208    2.5476 H   0  0  0  0  0  0  0  0  0  0  0  0
  1  2  1  0
  1 34  1  0
  1 35  1  0
  1 36  1  0
  2 16  1  0
  2  3  1  0
  2  4  1  0
  3 37  1  0
  3 38  1  0
  3 39  1  0
  4  7  1  0
  4  5  1  0
  4 40  1  1
  5  6  1  0
  5 41  1  0
  5 42  1  0
  6  7  1  0
  6  9  1  0
  6 43  1  6
  7  8  2  0
  9 18  1  0
  9 10  2  0
 10 11  1  0
 10 44  1  0
 11 12  1  0
 11 14  1  0
 11 45  1  1
 12 13  1  0
 12 46  1  0
 12 47  1  0
 13 48  1  0
 14 15  1  0
 14 16  1  0
 14 49  1  1
 15 50  1  0
 16 17  1  0
 16 51  1  1
 17 29  1  0
 17 18  1  6
 17 20  1  0
 18 19  2  0
 20 31  1  0
 20 21  1  0
 20 52  1  6
 21 26  1  0
 21 22  1  0
 21 53  1  6
 22 23  1  0
 22 24  1  0
 22 54  1  6
 23 55  1  0
 24 25  1  0
 25 26  1  0
 25 56  1  0
 25 57  1  0
 26 27  1  0
 26 58  1  1
 27 28  1  0
 27 29  1  0
 27 59  1  1
 28 60  1  0
 29 30  1  6
 29 31  1  0
 30 61  1  0
 30 62  1  0
 30 63  1  0
 31 32  1  0
 31 33  1  0
 32 64  1  0
 32 65  1  0
 32 66  1  0
 33 67  1  0
 33 68  1  0
 33 69  1  0
M  END
>  <i_m_ct_stereo_status>  (245) 
1

>  <s_m_source_file>  (245) 
/var/tmp/pbs.5076255.sched01/tmpqw5sdpkp/8220gfbieb.sdf

>  <i_m_source_file_index>  (245) 
20

>  <i_lp_mmshare_version>  (245) 
48012

>  <i_f3d_flags>  (245) 
0

>  <s_epik_input>  (245) 
W09IXVtDSDJdW0NAQEhdKFtDQEhdMVtPSF0pW0NIXT1DKEMyPU8pW0NAQEhdKEMzPU8pW0NIMl1bQ0BASF0zQyhbQ0gzXSkoW0NIM10pW0NAQEhdMVtDQEBdMjRbQ0BASF01W0NASF02W0NASF0oW0NIMl1PW0NAQEhdNltPSF0pW0NAQEhdKFtPSF0pW0NAQF00KFtDSDNdKUM1KFtDSDNdKVtDSDNd

>  <s_epik_cmdline>  (245) 
J2VwaWtfcHl0aG9uJywgJy1waHQnLCAnMi4wJywgJy1waCcsICc3LjAnLCAnLXRuJywgJzgnLCAnLW1hJywgJzIwMCcsICctaW1hZScsICc8aW5maWxlLm1hZT4nLCAnLW9tYWUnLCAnPG91dGZpbGUubWFlPic=

>  <r_lp_tautomer_probability>  (245) 
1

>  <r_epik_Ionization_Penalty>  (245) 
2.6304e-07

>  <r_epik_Ionization_Penalty_Charging>  (245) 
0

>  <r_epik_Ionization_Penalty_Neutral>  (245) 
2.6304e-07

>  <r_epik_State_Penalty>  (245) 
-0

>  <r_epik_Charging_Adjusted_Penalty>  (245) 
0

>  <i_epik_Tot_Q>  (245) 
0

>  <i_epik_Tot_abs_Q>  (245) 
0

>  <s_epik_Chemistry_Notes>  (245) 
This compound contains an acetal/aminal-like group ( X-CH(R)-Y where X, Y are N, S, or O) that may be acid/base labile, releasing an aldehyde.

>  <s_lp_Force_Field>  (245) 
OPLS3e

>  <r_lp_Energy>  (245) 
140.039

>  <b_lp_Chiralities_Consistent>  (245) 
1

>  <s_lp_Variant>  (245) 
71:0-1

>  <s_i_glide_gridfile>  (245) 
pfpi4k_grid

>  <i_i_glide_lignum>  (245) 
20

>  <i_i_glide_rotatable_bonds>  (245) 
5

>  <r_i_docking_score>  (245) 
-2.40228

>  <r_i_glide_ligand_efficiency>  (245) 
-0.0727965

>  <r_i_glide_ligand_efficiency_sa>  (245) 
-0.233497

>  <r_i_glide_ligand_efficiency_ln>  (245) 
-0.534256

>  <r_i_glide_gscore>  (245) 
-2.40228

>  <r_i_glide_lipo>  (245) 
-0.0457835

>  <r_i_glide_hbond>  (245) 
0

>  <r_i_glide_metal>  (245) 
-0

>  <r_i_glide_rewards>  (245) 
-0.26891

>  <r_i_glide_evdw>  (245) 
-17.7548

>  <r_i_glide_ecoul>  (245) 
-8.07456

>  <r_i_glide_erotb>  (245) 
0.0948982

>  <r_i_glide_esite>  (245) 
-0.0835662

>  <r_i_glide_emodel>  (245) 
-29.3075

>  <r_i_glide_energy>  (245) 
-25.8293

>  <r_i_glide_einternal>  (245) 
0.631956

>  <r_i_glide_intrahb_reward>  (245) 
-0

>  <i_i_glide_confnum>  (245) 
3

>  <i_i_glide_posenum>  (245) 
20

>  <r_i_glide_eff_state_penalty>  (245) 
0

>  <ligand_id>  (245) 
71

>  <original_smiles>  (245) 
CC1(C)C2CC(C2=O)C2=CC(CO)C(O)C1C1(C2=O)C2C3C(O)OCC3C(O)C1(C)C2(C)C

>  <smiles>  (245) 
[H]OC([H])([H])C1([H])C([H])=C2C(=O)C3(C([H])(C1([H])O[H])C(C([H])([H])[H])(C([H])([H])[H])C1([H])C(=O)C2([H])C1([H])[H])C1([H])C2([H])C([H])(O[H])OC([H])([H])C2([H])C([H])(O[H])C3(C([H])([H])[H])C1(C([H])([H])[H])C([H])([H])[H]

$$$$
71:0:1
     RDKit          3D

 69 74  0  0  1  0  0  0  0  0999 V2000
    2.6021    3.4713    6.4506 C   0  0  0  0  0  0  0  0  0  0  0  0
    1.2306    2.9619    5.9811 C   0  0  0  0  0  0  0  0  0  0  0  0
    0.2642    3.6354    6.9973 C   0  0  0  0  0  0  0  0  0  0  0  0
    1.0457    3.6923    4.5896 C   0  0  1  0  0  0  0  0  0  0  0  0
    1.8543    3.3290    3.3317 C   0  0  0  0  0  0  0  0  0  0  0  0
    0.6653    2.4726    2.8180 C   0  0  2  0  0  0  0  0  0  0  0  0
   -0.1911    3.4141    3.7270 C   0  0  0  0  0  0  0  0  0  0  0  0
   -1.3518    3.8207    3.7317 O   0  0  0  0  0  0  0  0  0  0  0  0
    0.5496    1.0624    3.4191 C   0  0  0  0  0  0  0  0  0  0  0  0
   -0.6853    0.5858    3.6705 C   0  0  0  0  0  0  0  0  0  0  0  0
   -1.0541   -0.0492    4.9724 C   0  0  1  0  0  0  0  0  0  0  0  0
   -0.9279   -1.5784    4.9569 C   0  0  0  0  0  0  0  0  0  0  0  0
   -1.5207   -2.2035    6.0817 O   0  0  0  0  0  0  0  0  0  0  0  0
   -0.4519    0.8648    6.0833 C   0  0  1  0  0  0  0  0  0  0  0  0
   -1.0169    0.5500    7.3265 O   0  0  0  0  0  0  0  0  0  0  0  0
    1.0842    1.3336    6.1288 C   0  0  1  0  0  0  0  0  0  0  0  0
    2.1396    0.3149    5.4379 C   0  0  2  0  0  0  0  0  0  0  0  0
    1.8055    0.4721    3.9013 C   0  0  0  0  0  0  0  0  0  0  0  0
    2.5968    0.2439    2.9911 O   0  0  0  0  0  0  0  0  0  0  0  0
    2.2804   -1.1632    6.0791 C   0  0  2  0  0  0  0  0  0  0  0  0
    2.3344   -1.3927    7.6227 C   0  0  2  0  0  0  0  0  0  0  0  0
    1.0516   -1.4222    8.4665 C   0  0  1  0  0  0  0  0  0  0  0  0
    1.1021   -2.4567    9.4008 O   0  0  0  0  0  0  0  0  0  0  0  0
    0.9841   -0.1753    9.0865 O   0  0  0  0  0  0  0  0  0  0  0  0
    2.2966    0.3209    9.3407 C   0  0  0  0  0  0  0  0  0  0  0  0
    3.2210   -0.3802    8.3265 C   0  0  2  0  0  0  0  0  0  0  0  0
    4.0040    0.5443    7.3383 C   0  0  1  0  0  0  0  0  0  0  0  0
    5.3821    0.4611    7.6576 O   0  0  0  0  0  0  0  0  0  0  0  0
    3.7146    0.2530    5.8120 C   0  0  2  0  0  0  0  0  0  0  0  0
    4.7916    1.0037    4.9865 C   0  0  0  0  0  0  0  0  0  0  0  0
    3.7159   -1.3027    5.5049 C   0  0  0  0  0  0  0  0  0  0  0  0
    4.7748   -2.1747    6.2236 C   0  0  0  0  0  0  0  0  0  0  0  0
    3.8330   -1.8999    4.0749 C   0  0  0  0  0  0  0  0  0  0  0  0
    2.7007    4.5485    6.2905 H   0  0  0  0  0  0  0  0  0  0  0  0
    3.4105    3.0339    5.8895 H   0  0  0  0  0  0  0  0  0  0  0  0
    2.7537    3.3364    7.5228 H   0  0  0  0  0  0  0  0  0  0  0  0
   -0.7658    3.6774    6.6561 H   0  0  0  0  0  0  0  0  0  0  0  0
    0.5424    4.6752    7.1809 H   0  0  0  0  0  0  0  0  0  0  0  0
    0.2818    3.1352    7.9676 H   0  0  0  0  0  0  0  0  0  0  0  0
    1.1126    4.7754    4.7334 H   0  0  0  0  0  0  0  0  0  0  0  0
    2.0303    4.2094    2.7102 H   0  0  0  0  0  0  0  0  0  0  0  0
    2.8061    2.8405    3.5386 H   0  0  0  0  0  0  0  0  0  0  0  0
    0.5006    2.5286    1.7336 H   0  0  0  0  0  0  0  0  0  0  0  0
   -1.5181    1.0950    3.2363 H   0  0  0  0  0  0  0  0  0  0  0  0
   -2.1359    0.1094    5.0243 H   0  0  0  0  0  0  0  0  0  0  0  0
   -1.4065   -1.9599    4.0727 H   0  0  0  0  0  0  0  0  0  0  0  0
    0.1005   -1.9124    4.7713 H   0  0  0  0  0  0  0  0  0  0  0  0
   -1.2291   -3.1186    6.0926 H   0  0  0  0  0  0  0  0  0  0  0  0
   -1.0064    1.7700    5.8725 H   0  0  0  0  0  0  0  0  0  0  0  0
   -0.6732    1.1836    7.9779 H   0  0  0  0  0  0  0  0  0  0  0  0
    1.3185    1.2439    7.1701 H   0  0  0  0  0  0  0  0  0  0  0  0
    1.7486   -1.9720    5.6047 H   0  0  0  0  0  0  0  0  0  0  0  0
    2.7545   -2.3854    7.7610 H   0  0  0  0  0  0  0  0  0  0  0  0
    0.1707   -1.5988    7.8595 H   0  0  0  0  0  0  0  0  0  0  0  0
    1.9517   -2.4183    9.8517 H   0  0  0  0  0  0  0  0  0  0  0  0
    2.2929    1.4074    9.2701 H   0  0  0  0  0  0  0  0  0  0  0  0
    2.5977    0.0746   10.3615 H   0  0  0  0  0  0  0  0  0  0  0  0
    3.9412   -0.9382    8.9289 H   0  0  0  0  0  0  0  0  0  0  0  0
    3.7601    1.5652    7.5747 H   0  0  0  0  0  0  0  0  0  0  0  0
    5.8523    1.0991    7.1176 H   0  0  0  0  0  0  0  0  0  0  0  0
    5.6846    0.3854    4.8723 H   0  0  0  0  0  0  0  0  0  0  0  0
    5.1355    1.9324    5.4526 H   0  0  0  0  0  0  0  0  0  0  0  0
    4.4921    1.2595    3.9810 H   0  0  0  0  0  0  0  0  0  0  0  0
    5.7644   -2.0651    5.7753 H   0  0  0  0  0  0  0  0  0  0  0  0
    4.5182   -3.2390    6.1932 H   0  0  0  0  0  0  0  0  0  0  0  0
    4.9222   -1.9614    7.2706 H   0  0  0  0  0  0  0  0  0  0  0  0
    4.4756   -1.3060    3.4331 H   0  0  0  0  0  0  0  0  0  0  0  0
    2.8689   -2.0372    3.5957 H   0  0  0  0  0  0  0  0  0  0  0  0
    4.2544   -2.9095    4.0582 H   0  0  0  0  0  0  0  0  0  0  0  0
  1  2  1  0
  1 34  1  0
  1 35  1  0
  1 36  1  0
  2 16  1  0
  2  3  1  0
  2  4  1  0
  3 37  1  0
  3 38  1  0
  3 39  1  0
  4  7  1  0
  4  5  1  0
  4 40  1  1
  5  6  1  0
  5 41  1  0
  5 42  1  0
  6  7  1  0
  6  9  1  0
  6 43  1  6
  7  8  2  0
  9 18  1  0
  9 10  2  0
 10 11  1  0
 10 44  1  0
 11 12  1  0
 11 14  1  0
 11 45  1  1
 12 13  1  0
 12 46  1  0
 12 47  1  0
 13 48  1  0
 14 15  1  0
 14 16  1  0
 14 49  1  6
 15 50  1  0
 16 17  1  0
 16 51  1  1
 17 29  1  0
 17 18  1  6
 17 20  1  0
 18 19  2  0
 20 31  1  0
 20 21  1  0
 20 52  1  6
 21 26  1  0
 21 22  1  0
 21 53  1  6
 22 23  1  0
 22 24  1  0
 22 54  1  6
 23 55  1  0
 24 25  1  0
 25 26  1  0
 25 56  1  0
 25 57  1  0
 26 27  1  0
 26 58  1  1
 27 28  1  0
 27 29  1  0
 27 59  1  1
 28 60  1  0
 29 30  1  6
 29 31  1  0
 30 61  1  0
 30 62  1  0
 30 63  1  0
 31 32  1  0
 31 33  1  0
 32 64  1  0
 32 65  1  0
 32 66  1  0
 33 67  1  0
 33 68  1  0
 33 69  1  0
M  END
>  <i_m_ct_stereo_status>  (246) 
1

>  <s_m_source_file>  (246) 
/var/tmp/pbs.5076255.sched01/tmpqw5sdpkp/8220gfbieb.sdf

>  <i_m_source_file_index>  (246) 
20

>  <i_lp_mmshare_version>  (246) 
48012

>  <i_f3d_flags>  (246) 
0

>  <s_epik_input>  (246) 
W09IXVtDSDJdW0NAQEhdKFtDQEhdMVtPSF0pW0NIXT1DKEMyPU8pW0NAQEhdKEMzPU8pW0NIMl1bQ0BASF0zQyhbQ0gzXSkoW0NIM10pW0NAQEhdMVtDQEBdMjRbQ0BASF01W0NASF02W0NASF0oW0NIMl1PW0NAQEhdNltPSF0pW0NAQEhdKFtPSF0pW0NAQF00KFtDSDNdKUM1KFtDSDNdKVtDSDNd

>  <s_epik_cmdline>  (246) 
J2VwaWtfcHl0aG9uJywgJy1waHQnLCAnMi4wJywgJy1waCcsICc3LjAnLCAnLXRuJywgJzgnLCAnLW1hJywgJzIwMCcsICctaW1hZScsICc8aW5maWxlLm1hZT4nLCAnLW9tYWUnLCAnPG91dGZpbGUubWFlPic=

>  <r_lp_tautomer_probability>  (246) 
1

>  <r_epik_Ionization_Penalty>  (246) 
2.6304e-07

>  <r_epik_Ionization_Penalty_Charging>  (246) 
0

>  <r_epik_Ionization_Penalty_Neutral>  (246) 
2.6304e-07

>  <r_epik_State_Penalty>  (246) 
-0

>  <r_epik_Charging_Adjusted_Penalty>  (246) 
0

>  <i_epik_Tot_Q>  (246) 
0

>  <i_epik_Tot_abs_Q>  (246) 
0

>  <s_epik_Chemistry_Notes>  (246) 
This compound contains an acetal/aminal-like group ( X-CH(R)-Y where X, Y are N, S, or O) that may be acid/base labile, releasing an aldehyde.

>  <s_lp_Force_Field>  (246) 
OPLS3e

>  <r_lp_Energy>  (246) 
140.039

>  <b_lp_Chiralities_Consistent>  (246) 
1

>  <s_lp_Variant>  (246) 
71:0-1

>  <s_i_glide_gridfile>  (246) 
pfpi4k_grid

>  <i_i_glide_lignum>  (246) 
20

>  <i_i_glide_rotatable_bonds>  (246) 
5

>  <r_i_docking_score>  (246) 
-2.28957

>  <r_i_glide_ligand_efficiency>  (246) 
-0.069381

>  <r_i_glide_ligand_efficiency_sa>  (246) 
-0.222542

>  <r_i_glide_ligand_efficiency_ln>  (246) 
-0.509189

>  <r_i_glide_gscore>  (246) 
-2.28957

>  <r_i_glide_lipo>  (246) 
-0.0328615

>  <r_i_glide_hbond>  (246) 
0

>  <r_i_glide_metal>  (246) 
-0

>  <r_i_glide_rewards>  (246) 
-0.26891

>  <r_i_glide_evdw>  (246) 
-16.8545

>  <r_i_glide_ecoul>  (246) 
-7.59068

>  <r_i_glide_erotb>  (246) 
0.0948982

>  <r_i_glide_esite>  (246) 
-0.101377

>  <r_i_glide_emodel>  (246) 
-27.3038

>  <r_i_glide_energy>  (246) 
-24.4451

>  <r_i_glide_einternal>  (246) 
1.10688

>  <r_i_glide_intrahb_reward>  (246) 
-0

>  <i_i_glide_confnum>  (246) 
4

>  <i_i_glide_posenum>  (246) 
2

>  <r_i_glide_eff_state_penalty>  (246) 
0

>  <ligand_id>  (246) 
71

>  <original_smiles>  (246) 
CC1(C)C2CC(C2=O)C2=CC(CO)C(O)C1C1(C2=O)C2C3C(O)OCC3C(O)C1(C)C2(C)C

>  <smiles>  (246) 
[H]OC([H])([H])C1([H])C([H])=C2C(=O)C3(C([H])(C1([H])O[H])C(C([H])([H])[H])(C([H])([H])[H])C1([H])C(=O)C2([H])C1([H])[H])C1([H])C2([H])C([H])(O[H])OC([H])([H])C2([H])C([H])(O[H])C3(C([H])([H])[H])C1(C([H])([H])[H])C([H])([H])[H]

$$$$
71:0:2
     RDKit          3D

 69 74  0  0  1  0  0  0  0  0999 V2000
    2.0445   -0.5904    6.7576 C   0  0  0  0  0  0  0  0  0  0  0  0
    2.7364    0.2246    5.6535 C   0  0  0  0  0  0  0  0  0  0  0  0
    4.1576    0.4326    6.2472 C   0  0  0  0  0  0  0  0  0  0  0  0
    2.8540   -0.8177    4.4755 C   0  0  1  0  0  0  0  0  0  0  0  0
    1.6457   -1.3117    3.6520 C   0  0  0  0  0  0  0  0  0  0  0  0
    1.9936   -0.2922    2.5294 C   0  0  2  0  0  0  0  0  0  0  0  0
    3.4339   -0.3886    3.1134 C   0  0  0  0  0  0  0  0  0  0  0  0
    4.5696   -0.2494    2.6595 O   0  0  0  0  0  0  0  0  0  0  0  0
    1.5167    1.1462    2.7598 C   0  0  0  0  0  0  0  0  0  0  0  0
    2.3156    2.1513    2.3835 C   0  0  0  0  0  0  0  0  0  0  0  0
    2.6480    3.3168    3.2596 C   0  0  1  0  0  0  0  0  0  0  0  0
    1.7550    4.5359    2.9975 C   0  0  0  0  0  0  0  0  0  0  0  0
    2.1369    5.6526    3.7680 O   0  0  0  0  0  0  0  0  0  0  0  0
    2.9970    2.7059    4.6566 C   0  0  1  0  0  0  0  0  0  0  0  0
    3.6562    3.6353    5.4816 O   0  0  0  0  0  0  0  0  0  0  0  0
    2.0398    1.6970    5.4494 C   0  0  1  0  0  0  0  0  0  0  0  0
    0.4610    1.8694    5.1142 C   0  0  2  0  0  0  0  0  0  0  0  0
    0.3425    1.3088    3.6494 C   0  0  0  0  0  0  0  0  0  0  0  0
   -0.6743    0.8162    3.1529 O   0  0  0  0  0  0  0  0  0  0  0  0
   -0.2235    3.2859    5.4846 C   0  0  2  0  0  0  0  0  0  0  0  0
    0.0618    4.0159    6.8312 C   0  0  2  0  0  0  0  0  0  0  0  0
    1.3165    4.8719    7.0436 C   0  0  1  0  0  0  0  0  0  0  0  0
    0.9801    6.0635    7.7220 O   0  0  0  0  0  0  0  0  0  0  0  0
    2.1916    4.0971    7.7971 O   0  0  0  0  0  0  0  0  0  0  0  0
    1.4781    3.2183    8.6539 C   0  0  0  0  0  0  0  0  0  0  0  0
    0.0834    3.0569    8.0234 C   0  0  2  0  0  0  0  0  0  0  0  0
   -0.3409    1.6073    7.6348 C   0  0  1  0  0  0  0  0  0  0  0  0
   -1.3838    1.2258    8.4959 O   0  0  0  0  0  0  0  0  0  0  0  0
   -0.7220    1.4156    6.1190 C   0  0  2  0  0  0  0  0  0  0  0  0
   -1.4298    0.0365    5.9918 C   0  0  0  0  0  0  0  0  0  0  0  0
   -1.6127    2.6064    5.5758 C   0  0  0  0  0  0  0  0  0  0  0  0
   -2.7110    3.1591    6.5298 C   0  0  0  0  0  0  0  0  0  0  0  0
   -2.4387    2.5419    4.2652 C   0  0  0  0  0  0  0  0  0  0  0  0
    2.4788   -1.5875    6.8458 H   0  0  0  0  0  0  0  0  0  0  0  0
    1.0002   -0.7604    6.5386 H   0  0  0  0  0  0  0  0  0  0  0  0
    2.1632   -0.1450    7.7450 H   0  0  0  0  0  0  0  0  0  0  0  0
    4.9029    0.7025    5.5038 H   0  0  0  0  0  0  0  0  0  0  0  0
    4.5348   -0.4787    6.7118 H   0  0  0  0  0  0  0  0  0  0  0  0
    4.1658    1.2029    7.0203 H   0  0  0  0  0  0  0  0  0  0  0  0
    3.4100   -1.6919    4.8156 H   0  0  0  0  0  0  0  0  0  0  0  0
    1.7828   -2.3507    3.3373 H   0  0  0  0  0  0  0  0  0  0  0  0
    0.6910   -1.2164    4.1660 H   0  0  0  0  0  0  0  0  0  0  0  0
    1.8546   -0.6754    1.5178 H   0  0  0  0  0  0  0  0  0  0  0  0
    3.1357    1.8831    1.7411 H   0  0  0  0  0  0  0  0  0  0  0  0
    3.6048    3.6831    2.8801 H   0  0  0  0  0  0  0  0  0  0  0  0
    1.9124    4.8596    1.9634 H   0  0  0  0  0  0  0  0  0  0  0  0
    0.7073    4.2948    3.0407 H   0  0  0  0  0  0  0  0  0  0  0  0
    1.5836    6.3902    3.5510 H   0  0  0  0  0  0  0  0  0  0  0  0
    3.8594    2.1143    4.3684 H   0  0  0  0  0  0  0  0  0  0  0  0
    4.1490    4.2193    4.9261 H   0  0  0  0  0  0  0  0  0  0  0  0
    2.1198    2.0689    6.4599 H   0  0  0  0  0  0  0  0  0  0  0  0
   -0.2995    4.0005    4.6811 H   0  0  0  0  0  0  0  0  0  0  0  0
   -0.7598    4.7170    6.9700 H   0  0  0  0  0  0  0  0  0  0  0  0
    1.7813    5.1659    6.1111 H   0  0  0  0  0  0  0  0  0  0  0  0
    0.5057    5.8372    8.5103 H   0  0  0  0  0  0  0  0  0  0  0  0
    2.0340    2.2814    8.7554 H   0  0  0  0  0  0  0  0  0  0  0  0
    1.4031    3.6707    9.6448 H   0  0  0  0  0  0  0  0  0  0  0  0
   -0.6064    3.4535    8.7712 H   0  0  0  0  0  0  0  0  0  0  0  0
    0.4473    0.9331    7.9199 H   0  0  0  0  0  0  0  0  0  0  0  0
   -1.9132    1.9891    8.6808 H   0  0  0  0  0  0  0  0  0  0  0  0
   -2.5006    0.1493    6.1704 H   0  0  0  0  0  0  0  0  0  0  0  0
   -1.0743   -0.7007    6.7092 H   0  0  0  0  0  0  0  0  0  0  0  0
   -1.3535   -0.4266    5.0144 H   0  0  0  0  0  0  0  0  0  0  0  0
   -3.5804    2.5039    6.5818 H   0  0  0  0  0  0  0  0  0  0  0  0
   -3.0582    4.1350    6.1970 H   0  0  0  0  0  0  0  0  0  0  0  0
   -2.4128    3.3116    7.5596 H   0  0  0  0  0  0  0  0  0  0  0  0
   -2.8081    1.5387    4.0805 H   0  0  0  0  0  0  0  0  0  0  0  0
   -1.8802    2.8785    3.3932 H   0  0  0  0  0  0  0  0  0  0  0  0
   -3.3216    3.1810    4.2608 H   0  0  0  0  0  0  0  0  0  0  0  0
  1  2  1  0
  1 34  1  0
  1 35  1  0
  1 36  1  0
  2 16  1  0
  2  3  1  0
  2  4  1  0
  3 37  1  0
  3 38  1  0
  3 39  1  0
  4  7  1  0
  4  5  1  0
  4 40  1  1
  5  6  1  0
  5 41  1  0
  5 42  1  0
  6  7  1  0
  6  9  1  0
  6 43  1  6
  7  8  2  0
  9 18  1  0
  9 10  2  0
 10 11  1  0
 10 44  1  0
 11 12  1  0
 11 14  1  0
 11 45  1  6
 12 13  1  0
 12 46  1  0
 12 47  1  0
 13 48  1  0
 14 15  1  0
 14 16  1  0
 14 49  1  6
 15 50  1  0
 16 17  1  0
 16 51  1  1
 17 29  1  0
 17 18  1  6
 17 20  1  0
 18 19  2  0
 20 31  1  0
 20 21  1  0
 20 52  1  6
 21 26  1  0
 21 22  1  0
 21 53  1  1
 22 23  1  0
 22 24  1  0
 22 54  1  6
 23 55  1  0
 24 25  1  0
 25 26  1  0
 25 56  1  0
 25 57  1  0
 26 27  1  0
 26 58  1  1
 27 28  1  0
 27 29  1  0
 27 59  1  1
 28 60  1  0
 29 30  1  1
 29 31  1  0
 30 61  1  0
 30 62  1  0
 30 63  1  0
 31 32  1  0
 31 33  1  0
 32 64  1  0
 32 65  1  0
 32 66  1  0
 33 67  1  0
 33 68  1  0
 33 69  1  0
M  END
>  <i_m_ct_stereo_status>  (247) 
1

>  <s_m_source_file>  (247) 
/var/tmp/pbs.5076255.sched01/tmpqw5sdpkp/8220gfbieb.sdf

>  <i_m_source_file_index>  (247) 
20

>  <i_lp_mmshare_version>  (247) 
48012

>  <i_f3d_flags>  (247) 
0

>  <s_epik_input>  (247) 
W09IXVtDSDJdW0NAQEhdKFtDQEhdMVtPSF0pW0NIXT1DKEMyPU8pW0NAQEhdKEMzPU8pW0NIMl1bQ0BASF0zQyhbQ0gzXSkoW0NIM10pW0NAQEhdMVtDQEBdMjRbQ0BASF01W0NASF02W0NASF0oW0NIMl1PW0NAQEhdNltPSF0pW0NAQEhdKFtPSF0pW0NAQF00KFtDSDNdKUM1KFtDSDNdKVtDSDNd

>  <s_epik_cmdline>  (247) 
J2VwaWtfcHl0aG9uJywgJy1waHQnLCAnMi4wJywgJy1waCcsICc3LjAnLCAnLXRuJywgJzgnLCAnLW1hJywgJzIwMCcsICctaW1hZScsICc8aW5maWxlLm1hZT4nLCAnLW9tYWUnLCAnPG91dGZpbGUubWFlPic=

>  <r_lp_tautomer_probability>  (247) 
1

>  <r_epik_Ionization_Penalty>  (247) 
2.6304e-07

>  <r_epik_Ionization_Penalty_Charging>  (247) 
0

>  <r_epik_Ionization_Penalty_Neutral>  (247) 
2.6304e-07

>  <r_epik_State_Penalty>  (247) 
-0

>  <r_epik_Charging_Adjusted_Penalty>  (247) 
0

>  <i_epik_Tot_Q>  (247) 
0

>  <i_epik_Tot_abs_Q>  (247) 
0

>  <s_epik_Chemistry_Notes>  (247) 
This compound contains an acetal/aminal-like group ( X-CH(R)-Y where X, Y are N, S, or O) that may be acid/base labile, releasing an aldehyde.

>  <s_lp_Force_Field>  (247) 
OPLS3e

>  <r_lp_Energy>  (247) 
140.039

>  <b_lp_Chiralities_Consistent>  (247) 
1

>  <s_lp_Variant>  (247) 
71:0-1

>  <s_i_glide_gridfile>  (247) 
pfpi4k_grid

>  <i_i_glide_lignum>  (247) 
20

>  <i_i_glide_rotatable_bonds>  (247) 
5

>  <r_i_docking_score>  (247) 
-1.88372

>  <r_i_glide_ligand_efficiency>  (247) 
-0.0570823

>  <r_i_glide_ligand_efficiency_sa>  (247) 
-0.183093

>  <r_i_glide_ligand_efficiency_ln>  (247) 
-0.418929

>  <r_i_glide_gscore>  (247) 
-1.88372

>  <r_i_glide_lipo>  (247) 
-0.182447

>  <r_i_glide_hbond>  (247) 
-0.0262314

>  <r_i_glide_metal>  (247) 
-0

>  <r_i_glide_rewards>  (247) 
-0.279294

>  <r_i_glide_evdw>  (247) 
-19.2499

>  <r_i_glide_ecoul>  (247) 
-3.365

>  <r_i_glide_erotb>  (247) 
0.0948982

>  <r_i_glide_esite>  (247) 
-0.0233939

>  <r_i_glide_emodel>  (247) 
-24.7009

>  <r_i_glide_energy>  (247) 
-22.6149

>  <r_i_glide_einternal>  (247) 
1.72297

>  <r_i_glide_intrahb_reward>  (247) 
-0

>  <i_i_glide_confnum>  (247) 
4

>  <i_i_glide_posenum>  (247) 
7

>  <r_i_glide_eff_state_penalty>  (247) 
0

>  <ligand_id>  (247) 
71

>  <original_smiles>  (247) 
CC1(C)C2CC(C2=O)C2=CC(CO)C(O)C1C1(C2=O)C2C3C(O)OCC3C(O)C1(C)C2(C)C

>  <smiles>  (247) 
[H]OC([H])([H])C1([H])C([H])=C2C(=O)C3(C([H])(C1([H])O[H])C(C([H])([H])[H])(C([H])([H])[H])C1([H])C(=O)C2([H])C1([H])[H])C1([H])C2([H])C([H])(O[H])OC([H])([H])C2([H])C([H])(O[H])C3(C([H])([H])[H])C1(C([H])([H])[H])C([H])([H])[H]

$$$$
72:0:0
     RDKit          3D

 16 16  0  0  1  0  0  0  0  0999 V2000
   -7.0272   -4.4668   -4.2695 C   0  0  0  0  0  0  0  0  0  0  0  0
   -6.5897   -5.0066   -5.6294 C   0  0  0  0  0  0  0  0  0  0  0  0
   -7.7411   -4.9485   -6.6532 C   0  0  0  0  0  0  0  0  0  0  0  0
   -5.9820   -6.4016   -5.5188 C   0  0  0  0  0  0  0  0  0  0  0  0
   -4.7348   -6.6579   -5.1190 N   0  0  0  0  0  0  0  0  0  0  0  0
   -4.4799   -7.9787   -5.1224 C   0  0  0  0  0  0  0  0  0  0  0  0
   -5.4400   -8.8158   -5.5321 N   0  0  0  0  0  0  0  0  0  0  0  0
   -6.7990   -7.8939   -5.9162 S   0  0  0  0  0  0  0  0  0  0  0  0
   -6.1941   -4.4322   -3.5690 H   0  0  0  0  0  0  0  0  0  0  0  0
   -7.8259   -5.0525   -3.8314 H   0  0  0  0  0  0  0  0  0  0  0  0
   -7.4093   -3.4545   -4.3725 H   0  0  0  0  0  0  0  0  0  0  0  0
   -5.7919   -4.3502   -5.9773 H   0  0  0  0  0  0  0  0  0  0  0  0
   -7.4033   -5.3063   -7.6248 H   0  0  0  0  0  0  0  0  0  0  0  0
   -8.1371   -3.9370   -6.7827 H   0  0  0  0  0  0  0  0  0  0  0  0
   -8.5735   -5.5842   -6.3485 H   0  0  0  0  0  0  0  0  0  0  0  0
   -3.5161   -8.3719   -4.8129 H   0  0  0  0  0  0  0  0  0  0  0  0
  1  2  1  0
  1  9  1  0
  1 10  1  0
  1 11  1  0
  2  3  1  0
  2  4  1  0
  2 12  1  0
  3 13  1  0
  3 14  1  0
  3 15  1  0
  4  8  1  0
  4  5  2  0
  5  6  1  0
  6  7  2  0
  6 16  1  0
  7  8  1  0
M  END
>  <i_m_ct_stereo_status>  (248) 
1

>  <s_m_source_file>  (248) 
/var/tmp/pbs.5076255.sched01/tmpqw5sdpkp/8220gfbieb.sdf

>  <i_m_source_file_index>  (248) 
21

>  <i_lp_mmshare_version>  (248) 
48012

>  <i_f3d_flags>  (248) 
0

>  <s_epik_input>  (248) 
W0NIM11bQ0hdKFtDSDNdKWMxbltjSF1uczE=

>  <s_epik_cmdline>  (248) 
J2VwaWtfcHl0aG9uJywgJy1waHQnLCAnMi4wJywgJy1waCcsICc3LjAnLCAnLXRuJywgJzgnLCAnLW1hJywgJzIwMCcsICctaW1hZScsICc8aW5maWxlLm1hZT4nLCAnLW9tYWUnLCAnPG91dGZpbGUubWFlPic=

>  <r_lp_tautomer_probability>  (248) 
1

>  <r_epik_Ionization_Penalty>  (248) 
2.26544e-08

>  <r_epik_Ionization_Penalty_Charging>  (248) 
0

>  <r_epik_Ionization_Penalty_Neutral>  (248) 
2.26544e-08

>  <r_epik_State_Penalty>  (248) 
-0

>  <r_epik_Charging_Adjusted_Penalty>  (248) 
0

>  <i_epik_Tot_Q>  (248) 
0

>  <i_epik_Tot_abs_Q>  (248) 
0

>  <s_lp_Force_Field>  (248) 
OPLS3e

>  <r_lp_Energy>  (248) 
3.99189

>  <b_lp_Chiralities_Consistent>  (248) 
1

>  <s_lp_Variant>  (248) 
72:0-1

>  <s_i_glide_gridfile>  (248) 
pfpi4k_grid

>  <i_i_glide_lignum>  (248) 
21

>  <i_i_glide_rotatable_bonds>  (248) 
1

>  <r_i_docking_score>  (248) 
-6.57025

>  <r_i_glide_ligand_efficiency>  (248) 
-0.821281

>  <r_i_glide_ligand_efficiency_sa>  (248) 
-1.64256

>  <r_i_glide_ligand_efficiency_ln>  (248) 
-2.13358

>  <r_i_glide_gscore>  (248) 
-6.57025

>  <r_i_glide_lipo>  (248) 
-1.42827

>  <r_i_glide_hbond>  (248) 
-0.32

>  <r_i_glide_metal>  (248) 
-0

>  <r_i_glide_rewards>  (248) 
-3.57847

>  <r_i_glide_evdw>  (248) 
-16.0817

>  <r_i_glide_ecoul>  (248) 
-2.92941

>  <r_i_glide_erotb>  (248) 
0

>  <r_i_glide_esite>  (248) 
0

>  <r_i_glide_emodel>  (248) 
-26.8308

>  <r_i_glide_energy>  (248) 
-19.0112

>  <r_i_glide_einternal>  (248) 
1.39218

>  <r_i_glide_intrahb_reward>  (248) 
-0

>  <i_i_glide_confnum>  (248) 
2

>  <i_i_glide_posenum>  (248) 
16

>  <r_i_glide_eff_state_penalty>  (248) 
0

>  <ligand_id>  (248) 
72

>  <original_smiles>  (248) 
CC(C)c1ncns1

>  <smiles>  (248) 
[H]c1nsc(C([H])(C([H])([H])[H])C([H])([H])[H])n1

$$$$
72:0:1
     RDKit          3D

 16 16  0  0  1  0  0  0  0  0999 V2000
  -10.1975   -4.2338   -5.8644 C   0  0  0  0  0  0  0  0  0  0  0  0
   -8.8049   -3.8846   -6.3906 C   0  0  0  0  0  0  0  0  0  0  0  0
   -8.7560   -3.8554   -7.9217 C   0  0  0  0  0  0  0  0  0  0  0  0
   -7.7331   -4.7987   -5.8198 C   0  0  0  0  0  0  0  0  0  0  0  0
   -7.6307   -6.1017   -6.0843 N   0  0  0  0  0  0  0  0  0  0  0  0
   -6.5806   -6.6478   -5.4478 C   0  0  0  0  0  0  0  0  0  0  0  0
   -5.8091   -5.8544   -4.6851 N   0  0  0  0  0  0  0  0  0  0  0  0
   -6.4631   -4.2994   -4.7237 S   0  0  0  0  0  0  0  0  0  0  0  0
  -10.1957   -4.1555   -4.7810 H   0  0  0  0  0  0  0  0  0  0  0  0
  -10.4809   -5.2496   -6.1473 H   0  0  0  0  0  0  0  0  0  0  0  0
  -10.9664   -3.5523   -6.2339 H   0  0  0  0  0  0  0  0  0  0  0  0
   -8.5845   -2.8774   -6.0283 H   0  0  0  0  0  0  0  0  0  0  0  0
   -7.7842   -3.5255   -8.2809 H   0  0  0  0  0  0  0  0  0  0  0  0
   -9.4892   -3.1596   -8.3148 H   0  0  0  0  0  0  0  0  0  0  0  0
   -8.9612   -4.8429   -8.3386 H   0  0  0  0  0  0  0  0  0  0  0  0
   -6.3558   -7.7036   -5.5503 H   0  0  0  0  0  0  0  0  0  0  0  0
  1  2  1  0
  1  9  1  0
  1 10  1  0
  1 11  1  0
  2  3  1  0
  2  4  1  0
  2 12  1  0
  3 13  1  0
  3 14  1  0
  3 15  1  0
  4  8  1  0
  4  5  2  0
  5  6  1  0
  6  7  2  0
  6 16  1  0
  7  8  1  0
M  END
>  <i_m_ct_stereo_status>  (249) 
1

>  <s_m_source_file>  (249) 
/var/tmp/pbs.5076255.sched01/tmpqw5sdpkp/8220gfbieb.sdf

>  <i_m_source_file_index>  (249) 
21

>  <i_lp_mmshare_version>  (249) 
48012

>  <i_f3d_flags>  (249) 
0

>  <s_epik_input>  (249) 
W0NIM11bQ0hdKFtDSDNdKWMxbltjSF1uczE=

>  <s_epik_cmdline>  (249) 
J2VwaWtfcHl0aG9uJywgJy1waHQnLCAnMi4wJywgJy1waCcsICc3LjAnLCAnLXRuJywgJzgnLCAnLW1hJywgJzIwMCcsICctaW1hZScsICc8aW5maWxlLm1hZT4nLCAnLW9tYWUnLCAnPG91dGZpbGUubWFlPic=

>  <r_lp_tautomer_probability>  (249) 
1

>  <r_epik_Ionization_Penalty>  (249) 
2.26544e-08

>  <r_epik_Ionization_Penalty_Charging>  (249) 
0

>  <r_epik_Ionization_Penalty_Neutral>  (249) 
2.26544e-08

>  <r_epik_State_Penalty>  (249) 
-0

>  <r_epik_Charging_Adjusted_Penalty>  (249) 
0

>  <i_epik_Tot_Q>  (249) 
0

>  <i_epik_Tot_abs_Q>  (249) 
0

>  <s_lp_Force_Field>  (249) 
OPLS3e

>  <r_lp_Energy>  (249) 
3.99189

>  <b_lp_Chiralities_Consistent>  (249) 
1

>  <s_lp_Variant>  (249) 
72:0-1

>  <s_i_glide_gridfile>  (249) 
pfpi4k_grid

>  <i_i_glide_lignum>  (249) 
21

>  <i_i_glide_rotatable_bonds>  (249) 
1

>  <r_i_docking_score>  (249) 
-4.93641

>  <r_i_glide_ligand_efficiency>  (249) 
-0.617051

>  <r_i_glide_ligand_efficiency_sa>  (249) 
-1.2341

>  <r_i_glide_ligand_efficiency_ln>  (249) 
-1.60302

>  <r_i_glide_gscore>  (249) 
-4.93641

>  <r_i_glide_lipo>  (249) 
-1.26779

>  <r_i_glide_hbond>  (249) 
0

>  <r_i_glide_metal>  (249) 
-0

>  <r_i_glide_rewards>  (249) 
-2.71084

>  <r_i_glide_evdw>  (249) 
-19.2206

>  <r_i_glide_ecoul>  (249) 
0.021655

>  <r_i_glide_erotb>  (249) 
0

>  <r_i_glide_esite>  (249) 
0

>  <r_i_glide_emodel>  (249) 
-25.4827

>  <r_i_glide_energy>  (249) 
-19.1989

>  <r_i_glide_einternal>  (249) 
0.523719

>  <r_i_glide_intrahb_reward>  (249) 
-0

>  <i_i_glide_confnum>  (249) 
2

>  <i_i_glide_posenum>  (249) 
11

>  <r_i_glide_eff_state_penalty>  (249) 
0

>  <ligand_id>  (249) 
72

>  <original_smiles>  (249) 
CC(C)c1ncns1

>  <smiles>  (249) 
[H]c1nsc(C([H])(C([H])([H])[H])C([H])([H])[H])n1

$$$$
72:0:2
     RDKit          3D

 16 16  0  0  1  0  0  0  0  0999 V2000
    2.1989   -2.9200   -3.7273 C   0  0  0  0  0  0  0  0  0  0  0  0
    2.9620   -1.6743   -3.2571 C   0  0  0  0  0  0  0  0  0  0  0  0
    3.1723   -0.6431   -4.3764 C   0  0  0  0  0  0  0  0  0  0  0  0
    4.2647   -2.0575   -2.5878 C   0  0  0  0  0  0  0  0  0  0  0  0
    5.1834   -2.8619   -3.1215 N   0  0  0  0  0  0  0  0  0  0  0  0
    6.2375   -3.0090   -2.3082 C   0  0  0  0  0  0  0  0  0  0  0  0
    6.2643   -2.3085   -1.1629 N   0  0  0  0  0  0  0  0  0  0  0  0
    4.8025   -1.4674   -1.0326 S   0  0  0  0  0  0  0  0  0  0  0  0
    2.0232   -3.6091   -2.9007 H   0  0  0  0  0  0  0  0  0  0  0  0
    2.7686   -3.4566   -4.4857 H   0  0  0  0  0  0  0  0  0  0  0  0
    1.2338   -2.6611   -4.1632 H   0  0  0  0  0  0  0  0  0  0  0  0
    2.3561   -1.1956   -2.4856 H   0  0  0  0  0  0  0  0  0  0  0  0
    3.6542    0.2581   -3.9960 H   0  0  0  0  0  0  0  0  0  0  0  0
    2.2204   -0.3436   -4.8163 H   0  0  0  0  0  0  0  0  0  0  0  0
    3.7958   -1.0462   -5.1733 H   0  0  0  0  0  0  0  0  0  0  0  0
    7.0807   -3.6206   -2.6054 H   0  0  0  0  0  0  0  0  0  0  0  0
  1  2  1  0
  1  9  1  0
  1 10  1  0
  1 11  1  0
  2  3  1  0
  2  4  1  0
  2 12  1  0
  3 13  1  0
  3 14  1  0
  3 15  1  0
  4  8  1  0
  4  5  2  0
  5  6  1  0
  6  7  2  0
  6 16  1  0
  7  8  1  0
M  END
>  <i_m_ct_stereo_status>  (250) 
1

>  <s_m_source_file>  (250) 
/var/tmp/pbs.5076255.sched01/tmpqw5sdpkp/8220gfbieb.sdf

>  <i_m_source_file_index>  (250) 
21

>  <i_lp_mmshare_version>  (250) 
48012

>  <i_f3d_flags>  (250) 
0

>  <s_epik_input>  (250) 
W0NIM11bQ0hdKFtDSDNdKWMxbltjSF1uczE=

>  <s_epik_cmdline>  (250) 
J2VwaWtfcHl0aG9uJywgJy1waHQnLCAnMi4wJywgJy1waCcsICc3LjAnLCAnLXRuJywgJzgnLCAnLW1hJywgJzIwMCcsICctaW1hZScsICc8aW5maWxlLm1hZT4nLCAnLW9tYWUnLCAnPG91dGZpbGUubWFlPic=

>  <r_lp_tautomer_probability>  (250) 
1

>  <r_epik_Ionization_Penalty>  (250) 
2.26544e-08

>  <r_epik_Ionization_Penalty_Charging>  (250) 
0

>  <r_epik_Ionization_Penalty_Neutral>  (250) 
2.26544e-08

>  <r_epik_State_Penalty>  (250) 
-0

>  <r_epik_Charging_Adjusted_Penalty>  (250) 
0

>  <i_epik_Tot_Q>  (250) 
0

>  <i_epik_Tot_abs_Q>  (250) 
0

>  <s_lp_Force_Field>  (250) 
OPLS3e

>  <r_lp_Energy>  (250) 
3.99189

>  <b_lp_Chiralities_Consistent>  (250) 
1

>  <s_lp_Variant>  (250) 
72:0-1

>  <s_i_glide_gridfile>  (250) 
pfpi4k_grid

>  <i_i_glide_lignum>  (250) 
21

>  <i_i_glide_rotatable_bonds>  (250) 
1

>  <r_i_docking_score>  (250) 
-4.25914

>  <r_i_glide_ligand_efficiency>  (250) 
-0.532392

>  <r_i_glide_ligand_efficiency_sa>  (250) 
-1.06478

>  <r_i_glide_ligand_efficiency_ln>  (250) 
-1.38309

>  <r_i_glide_gscore>  (250) 
-4.25914

>  <r_i_glide_lipo>  (250) 
-0.56056

>  <r_i_glide_hbond>  (250) 
-0.0447872

>  <r_i_glide_metal>  (250) 
-0

>  <r_i_glide_rewards>  (250) 
-2.4094

>  <r_i_glide_evdw>  (250) 
-18.6004

>  <r_i_glide_ecoul>  (250) 
-2.09581

>  <r_i_glide_erotb>  (250) 
0

>  <r_i_glide_esite>  (250) 
0

>  <r_i_glide_emodel>  (250) 
-25.7507

>  <r_i_glide_energy>  (250) 
-20.6962

>  <r_i_glide_einternal>  (250) 
0.985743

>  <r_i_glide_intrahb_reward>  (250) 
-0

>  <i_i_glide_confnum>  (250) 
1

>  <i_i_glide_posenum>  (250) 
31

>  <r_i_glide_eff_state_penalty>  (250) 
0

>  <ligand_id>  (250) 
72

>  <original_smiles>  (250) 
CC(C)c1ncns1

>  <smiles>  (250) 
[H]c1nsc(C([H])(C([H])([H])[H])C([H])([H])[H])n1

$$$$
73:0:0
     RDKit          3D

 51 56  0  0  1  0  0  0  0  0999 V2000
    7.4336   -5.1111    0.5495 C   0  0  0  0  0  0  0  0  0  0  0  0
    6.2594   -4.4874    0.3448 C   0  0  0  0  0  0  0  0  0  0  0  0
    5.0015   -5.1387   -0.1748 C   0  0  1  0  0  0  0  0  0  0  0  0
    4.1461   -5.7024    0.9786 C   0  0  1  0  0  0  0  0  0  0  0  0
    4.8039   -6.7807    1.6230 O   0  0  0  0  0  0  0  0  0  0  0  0
    3.5969   -4.6533    2.0241 C   0  0  1  0  0  0  0  0  0  0  0  0
    2.1800   -5.1779    2.4273 C   0  0  0  0  0  0  0  0  0  0  0  0
    4.3481   -4.5566    3.3869 C   0  0  1  0  0  0  0  0  0  0  0  0
    5.7481   -4.6436    3.3095 O   0  0  0  0  0  0  0  0  0  0  0  0
    3.9731   -3.1911    3.9590 C   0  0  0  0  0  0  0  0  0  0  0  0
    3.7496   -2.2668    2.7519 C   0  0  0  0  0  0  0  0  0  0  0  0
    3.5590   -3.1592    1.4869 C   0  0  2  0  0  0  0  0  0  0  0  0
    2.2312   -2.8791    1.0716 O   0  0  0  0  0  0  0  0  0  0  0  0
    4.4801   -2.8318    0.2213 C   0  0  2  0  0  0  0  0  0  0  0  0
    4.2139   -1.3627   -0.3063 C   0  0  0  0  0  0  0  0  0  0  0  0
    4.9887   -0.8182   -1.5440 C   0  0  0  0  0  0  0  0  0  0  0  0
    4.9393   -1.7444   -2.7153 C   0  0  0  0  0  0  0  0  0  0  0  0
    3.8629   -2.5047   -2.8851 C   0  0  0  0  0  0  0  0  0  0  0  0
    2.4284   -2.2431   -3.0995 C   0  0  0  0  0  0  0  0  0  0  0  0
    4.4690   -3.6756   -2.2895 C   0  0  2  0  0  0  0  0  0  0  0  0
    5.4309   -4.2433   -3.1166 O   0  0  0  0  0  0  0  0  0  0  0  0
    5.7823   -2.9648   -2.5687 C   0  0  1  0  0  0  0  0  0  0  0  0
    4.1920   -3.9887   -0.8033 C   0  0  1  0  0  0  0  0  0  0  0  0
    6.0054   -3.0154    0.5019 C   0  0  1  0  0  0  0  0  0  0  0  0
    6.5399   -2.4482    1.6556 O   0  0  0  0  0  0  0  0  0  0  0  0
    8.3006   -4.5718    0.8893 H   0  0  0  0  0  0  0  0  0  0  0  0
    7.5235   -6.1729    0.3748 H   0  0  0  0  0  0  0  0  0  0  0  0
    5.2320   -5.9189   -0.9024 H   0  0  0  0  0  0  0  0  0  0  0  0
    3.2838   -6.1512    0.4768 H   0  0  0  0  0  0  0  0  0  0  0  0
    4.1624   -7.2665    2.1268 H   0  0  0  0  0  0  0  0  0  0  0  0
    1.6817   -4.5218    3.1385 H   0  0  0  0  0  0  0  0  0  0  0  0
    2.2360   -6.1596    2.8937 H   0  0  0  0  0  0  0  0  0  0  0  0
    1.5159   -5.2836    1.5714 H   0  0  0  0  0  0  0  0  0  0  0  0
    4.0440   -5.3513    4.0670 H   0  0  0  0  0  0  0  0  0  0  0  0
    5.9497   -5.4928    2.9334 H   0  0  0  0  0  0  0  0  0  0  0  0
    3.0451   -3.2861    4.5255 H   0  0  0  0  0  0  0  0  0  0  0  0
    4.7185   -2.8104    4.6563 H   0  0  0  0  0  0  0  0  0  0  0  0
    2.8795   -1.6380    2.9489 H   0  0  0  0  0  0  0  0  0  0  0  0
    4.5689   -1.5619    2.6682 H   0  0  0  0  0  0  0  0  0  0  0  0
    2.2039   -2.0242    0.6625 H   0  0  0  0  0  0  0  0  0  0  0  0
    3.1546   -1.2114   -0.5179 H   0  0  0  0  0  0  0  0  0  0  0  0
    4.4436   -0.6696    0.5038 H   0  0  0  0  0  0  0  0  0  0  0  0
    4.5481    0.1258   -1.8683 H   0  0  0  0  0  0  0  0  0  0  0  0
    6.0226   -0.6261   -1.2490 H   0  0  0  0  0  0  0  0  0  0  0  0
    2.2724   -2.3407   -4.1768 H   0  0  0  0  0  0  0  0  0  0  0  0
    2.2068   -1.2151   -2.7921 H   0  0  0  0  0  0  0  0  0  0  0  0
    1.7945   -2.9684   -2.5676 H   0  0  0  0  0  0  0  0  0  0  0  0
    6.7493   -2.9233   -2.0710 H   0  0  0  0  0  0  0  0  0  0  0  0
    3.1398   -4.2392   -0.8054 H   0  0  0  0  0  0  0  0  0  0  0  0
    6.6284   -2.5215   -0.2220 H   0  0  0  0  0  0  0  0  0  0  0  0
    6.1651   -2.9036    2.4095 H   0  0  0  0  0  0  0  0  0  0  0  0
  1  2  2  0
  1 26  1  0
  1 27  1  0
  2 24  1  0
  2  3  1  0
  3 23  1  0
  3  4  1  0
  3 28  1  6
  4  5  1  0
  4  6  1  0
  4 29  1  6
  5 30  1  0
  6 12  1  0
  6  7  1  1
  6  8  1  0
  7 31  1  0
  7 32  1  0
  7 33  1  0
  8  9  1  0
  8 10  1  0
  8 34  1  1
  9 35  1  0
 10 11  1  0
 10 36  1  0
 10 37  1  0
 11 12  1  0
 11 38  1  0
 11 39  1  0
 12 13  1  6
 12 14  1  0
 13 40  1  0
 14 23  1  0
 14 15  1  6
 14 24  1  0
 15 16  1  0
 15 41  1  0
 15 42  1  0
 16 17  1  0
 16 43  1  0
 16 44  1  0
 17 22  1  0
 17 18  2  0
 18 19  1  0
 18 20  1  0
 19 45  1  0
 19 46  1  0
 19 47  1  0
 20 22  1  0
 20 21  1  6
 20 23  1  0
 21 22  1  0
 22 48  1  1
 23 49  1  6
 24 25  1  0
 24 50  1  6
 25 51  1  0
M  END
>  <i_m_ct_stereo_status>  (251) 
1

>  <s_m_source_file>  (251) 
/var/tmp/pbs.5076255.sched01/tmpqw5sdpkp/8220gfbieb.sdf

>  <i_m_source_file_index>  (251) 
22

>  <i_lp_mmshare_version>  (251) 
48012

>  <i_f3d_flags>  (251) 
0

>  <s_epik_input>  (251) 
W0NIMl0xW0NIMl1bQ0BIXShbT0hdKVtDQEBdKFtDSDNdKShbQ0BAXTEoW0NAXTIzNClbT0hdKVtDQEhdKFtPSF0pW0NASF0oQyg9W0NIMl0pW0NAQEhdNFtPSF0pW0NAQEhdM0M1NltDSF0oTzYpQyhbQ0gyXVtDSDJdMik9QzVbQ0gzXQ==

>  <s_epik_cmdline>  (251) 
J2VwaWtfcHl0aG9uJywgJy1waHQnLCAnMi4wJywgJy1waCcsICc3LjAnLCAnLXRuJywgJzgnLCAnLW1hJywgJzIwMCcsICctaW1hZScsICc8aW5maWxlLm1hZT4nLCAnLW9tYWUnLCAnPG91dGZpbGUubWFlPic=

>  <r_lp_tautomer_probability>  (251) 
1

>  <r_epik_Ionization_Penalty>  (251) 
1.19898e-06

>  <r_epik_Ionization_Penalty_Charging>  (251) 
0

>  <r_epik_Ionization_Penalty_Neutral>  (251) 
1.19898e-06

>  <r_epik_State_Penalty>  (251) 
-0

>  <r_epik_Charging_Adjusted_Penalty>  (251) 
0

>  <i_epik_Tot_Q>  (251) 
0

>  <i_epik_Tot_abs_Q>  (251) 
0

>  <s_lp_Force_Field>  (251) 
OPLS3e

>  <r_lp_Energy>  (251) 
95.4016

>  <b_lp_Chiralities_Consistent>  (251) 
1

>  <s_lp_Variant>  (251) 
73:0-1

>  <s_i_glide_gridfile>  (251) 
pfpi4k_grid

>  <i_i_glide_lignum>  (251) 
22

>  <i_i_glide_rotatable_bonds>  (251) 
4

>  <r_i_docking_score>  (251) 
-3.71373

>  <r_i_glide_ligand_efficiency>  (251) 
-0.148549

>  <r_i_glide_ligand_efficiency_sa>  (251) 
-0.434361

>  <r_i_glide_ligand_efficiency_ln>  (251) 
-0.880266

>  <r_i_glide_gscore>  (251) 
-3.71373

>  <r_i_glide_lipo>  (251) 
-0.638696

>  <r_i_glide_hbond>  (251) 
-0.0308

>  <r_i_glide_metal>  (251) 
-0

>  <r_i_glide_rewards>  (251) 
-2.04715

>  <r_i_glide_evdw>  (251) 
-17.0167

>  <r_i_glide_ecoul>  (251) 
-0.974988

>  <r_i_glide_erotb>  (251) 
0

>  <r_i_glide_esite>  (251) 
0

>  <r_i_glide_emodel>  (251) 
-30.7494

>  <r_i_glide_energy>  (251) 
-17.9917

>  <r_i_glide_einternal>  (251) 
0.744014

>  <r_i_glide_intrahb_reward>  (251) 
-1

>  <i_i_glide_confnum>  (251) 
2

>  <i_i_glide_posenum>  (251) 
4

>  <r_i_glide_eff_state_penalty>  (251) 
0

>  <ligand_id>  (251) 
73

>  <original_smiles>  (251) 
C=C1C2C(O)C3(C)C(O)CCC3(O)C3(CCC4=C(C)C5(OC45)C23)C1O

>  <smiles>  (251) 
[H]OC1([H])C(=C([H])[H])C2([H])C([H])(O[H])C3(C([H])([H])[H])C([H])(O[H])C([H])([H])C([H])([H])C3(O[H])C13C([H])([H])C([H])([H])C1=C(C([H])([H])[H])C4(OC14[H])C23[H]

$$$$
73:0:1
     RDKit          3D

 51 56  0  0  1  0  0  0  0  0999 V2000
    7.4267   -5.1070    0.5356 C   0  0  0  0  0  0  0  0  0  0  0  0
    6.2690   -4.4869    0.3353 C   0  0  0  0  0  0  0  0  0  0  0  0
    4.9948   -5.1296   -0.1926 C   0  0  1  0  0  0  0  0  0  0  0  0
    4.1409   -5.6963    0.9616 C   0  0  1  0  0  0  0  0  0  0  0  0
    4.7978   -6.7803    1.5948 O   0  0  0  0  0  0  0  0  0  0  0  0
    3.5942   -4.6491    2.0099 C   0  0  1  0  0  0  0  0  0  0  0  0
    2.1774   -5.1721    2.4166 C   0  0  0  0  0  0  0  0  0  0  0  0
    4.3443   -4.5553    3.3746 C   0  0  1  0  0  0  0  0  0  0  0  0
    5.7426   -4.6440    3.2987 O   0  0  0  0  0  0  0  0  0  0  0  0
    3.9709   -3.1888    3.9490 C   0  0  0  0  0  0  0  0  0  0  0  0
    3.7455   -2.2639    2.7432 C   0  0  0  0  0  0  0  0  0  0  0  0
    3.5562   -3.1528    1.4747 C   0  0  2  0  0  0  0  0  0  0  0  0
    2.2312   -2.8703    1.0596 O   0  0  0  0  0  0  0  0  0  0  0  0
    4.4851   -2.8245    0.2129 C   0  0  2  0  0  0  0  0  0  0  0  0
    4.2161   -1.3539   -0.3137 C   0  0  0  0  0  0  0  0  0  0  0  0
    4.9917   -0.8179   -1.5502 C   0  0  0  0  0  0  0  0  0  0  0  0
    4.9484   -1.7445   -2.7224 C   0  0  0  0  0  0  0  0  0  0  0  0
    3.8636   -2.5021   -2.8990 C   0  0  0  0  0  0  0  0  0  0  0  0
    2.4339   -2.2430   -3.1219 C   0  0  0  0  0  0  0  0  0  0  0  0
    4.4655   -3.6766   -2.3045 C   0  0  2  0  0  0  0  0  0  0  0  0
    5.4268   -4.2424   -3.1384 O   0  0  0  0  0  0  0  0  0  0  0  0
    5.7828   -2.9703   -2.5779 C   0  0  1  0  0  0  0  0  0  0  0  0
    4.1961   -3.9804   -0.8247 C   0  0  1  0  0  0  0  0  0  0  0  0
    6.0020   -3.0115    0.4962 C   0  0  1  0  0  0  0  0  0  0  0  0
    6.5445   -2.4539    1.6582 O   0  0  0  0  0  0  0  0  0  0  0  0
    8.3061   -4.5753    0.8779 H   0  0  0  0  0  0  0  0  0  0  0  0
    7.5287   -6.1706    0.3554 H   0  0  0  0  0  0  0  0  0  0  0  0
    5.2284   -5.9076   -0.9215 H   0  0  0  0  0  0  0  0  0  0  0  0
    3.2748   -6.1427    0.4660 H   0  0  0  0  0  0  0  0  0  0  0  0
    4.9184   -7.4705    0.9549 H   0  0  0  0  0  0  0  0  0  0  0  0
    1.6748   -4.5179    3.1277 H   0  0  0  0  0  0  0  0  0  0  0  0
    2.2356   -6.1548    2.8831 H   0  0  0  0  0  0  0  0  0  0  0  0
    1.5118   -5.2799    1.5616 H   0  0  0  0  0  0  0  0  0  0  0  0
    4.0446   -5.3506    4.0569 H   0  0  0  0  0  0  0  0  0  0  0  0
    5.9354   -5.5024    2.9355 H   0  0  0  0  0  0  0  0  0  0  0  0
    3.0425   -3.2823    4.5152 H   0  0  0  0  0  0  0  0  0  0  0  0
    4.7148   -2.8057    4.6482 H   0  0  0  0  0  0  0  0  0  0  0  0
    2.8782   -1.6323    2.9416 H   0  0  0  0  0  0  0  0  0  0  0  0
    4.5657   -1.5604    2.6585 H   0  0  0  0  0  0  0  0  0  0  0  0
    2.2055   -2.0146    0.6500 H   0  0  0  0  0  0  0  0  0  0  0  0
    3.1584   -1.2055   -0.5235 H   0  0  0  0  0  0  0  0  0  0  0  0
    4.4411   -0.6627    0.4961 H   0  0  0  0  0  0  0  0  0  0  0  0
    4.5478    0.1215   -1.8790 H   0  0  0  0  0  0  0  0  0  0  0  0
    6.0238   -0.6141   -1.2608 H   0  0  0  0  0  0  0  0  0  0  0  0
    2.2631   -2.3387   -4.1983 H   0  0  0  0  0  0  0  0  0  0  0  0
    2.2237   -1.2134   -2.8136 H   0  0  0  0  0  0  0  0  0  0  0  0
    1.8067   -2.9697   -2.5919 H   0  0  0  0  0  0  0  0  0  0  0  0
    6.7552   -2.9498   -2.0976 H   0  0  0  0  0  0  0  0  0  0  0  0
    3.1414   -4.2290   -0.8216 H   0  0  0  0  0  0  0  0  0  0  0  0
    6.6241   -2.5203   -0.2334 H   0  0  0  0  0  0  0  0  0  0  0  0
    6.1518   -2.8922    2.4115 H   0  0  0  0  0  0  0  0  0  0  0  0
  1  2  2  0
  1 26  1  0
  1 27  1  0
  2 24  1  0
  2  3  1  0
  3 23  1  0
  3  4  1  0
  3 28  1  6
  4  5  1  0
  4  6  1  0
  4 29  1  6
  5 30  1  0
  6 12  1  0
  6  7  1  1
  6  8  1  0
  7 31  1  0
  7 32  1  0
  7 33  1  0
  8  9  1  0
  8 10  1  0
  8 34  1  1
  9 35  1  0
 10 11  1  0
 10 36  1  0
 10 37  1  0
 11 12  1  0
 11 38  1  0
 11 39  1  0
 12 13  1  6
 12 14  1  0
 13 40  1  0
 14 23  1  0
 14 15  1  6
 14 24  1  0
 15 16  1  0
 15 41  1  0
 15 42  1  0
 16 17  1  0
 16 43  1  0
 16 44  1  0
 17 22  1  0
 17 18  2  0
 18 19  1  0
 18 20  1  0
 19 45  1  0
 19 46  1  0
 19 47  1  0
 20 22  1  0
 20 21  1  6
 20 23  1  0
 21 22  1  0
 22 48  1  1
 23 49  1  6
 24 25  1  0
 24 50  1  6
 25 51  1  0
M  END
>  <i_m_ct_stereo_status>  (252) 
1

>  <s_m_source_file>  (252) 
/var/tmp/pbs.5076255.sched01/tmpqw5sdpkp/8220gfbieb.sdf

>  <i_m_source_file_index>  (252) 
22

>  <i_lp_mmshare_version>  (252) 
48012

>  <i_f3d_flags>  (252) 
0

>  <s_epik_input>  (252) 
W0NIMl0xW0NIMl1bQ0BIXShbT0hdKVtDQEBdKFtDSDNdKShbQ0BAXTEoW0NAXTIzNClbT0hdKVtDQEhdKFtPSF0pW0NASF0oQyg9W0NIMl0pW0NAQEhdNFtPSF0pW0NAQEhdM0M1NltDSF0oTzYpQyhbQ0gyXVtDSDJdMik9QzVbQ0gzXQ==

>  <s_epik_cmdline>  (252) 
J2VwaWtfcHl0aG9uJywgJy1waHQnLCAnMi4wJywgJy1waCcsICc3LjAnLCAnLXRuJywgJzgnLCAnLW1hJywgJzIwMCcsICctaW1hZScsICc8aW5maWxlLm1hZT4nLCAnLW9tYWUnLCAnPG91dGZpbGUubWFlPic=

>  <r_lp_tautomer_probability>  (252) 
1

>  <r_epik_Ionization_Penalty>  (252) 
1.19898e-06

>  <r_epik_Ionization_Penalty_Charging>  (252) 
0

>  <r_epik_Ionization_Penalty_Neutral>  (252) 
1.19898e-06

>  <r_epik_State_Penalty>  (252) 
-0

>  <r_epik_Charging_Adjusted_Penalty>  (252) 
0

>  <i_epik_Tot_Q>  (252) 
0

>  <i_epik_Tot_abs_Q>  (252) 
0

>  <s_lp_Force_Field>  (252) 
OPLS3e

>  <r_lp_Energy>  (252) 
95.4016

>  <b_lp_Chiralities_Consistent>  (252) 
1

>  <s_lp_Variant>  (252) 
73:0-1

>  <s_i_glide_gridfile>  (252) 
pfpi4k_grid

>  <i_i_glide_lignum>  (252) 
22

>  <i_i_glide_rotatable_bonds>  (252) 
4

>  <r_i_docking_score>  (252) 
-3.68855

>  <r_i_glide_ligand_efficiency>  (252) 
-0.147542

>  <r_i_glide_ligand_efficiency_sa>  (252) 
-0.431415

>  <r_i_glide_ligand_efficiency_ln>  (252) 
-0.874296

>  <r_i_glide_gscore>  (252) 
-3.68855

>  <r_i_glide_lipo>  (252) 
-0.65504

>  <r_i_glide_hbond>  (252) 
-0.0333735

>  <r_i_glide_metal>  (252) 
-0

>  <r_i_glide_rewards>  (252) 
-2.04715

>  <r_i_glide_evdw>  (252) 
-17.1045

>  <r_i_glide_ecoul>  (252) 
-0.651702

>  <r_i_glide_erotb>  (252) 
0

>  <r_i_glide_esite>  (252) 
0

>  <r_i_glide_emodel>  (252) 
-30.6603

>  <r_i_glide_energy>  (252) 
-17.7562

>  <r_i_glide_einternal>  (252) 
0.75383

>  <r_i_glide_intrahb_reward>  (252) 
-1

>  <i_i_glide_confnum>  (252) 
1

>  <i_i_glide_posenum>  (252) 
7

>  <r_i_glide_eff_state_penalty>  (252) 
0

>  <ligand_id>  (252) 
73

>  <original_smiles>  (252) 
C=C1C2C(O)C3(C)C(O)CCC3(O)C3(CCC4=C(C)C5(OC45)C23)C1O

>  <smiles>  (252) 
[H]OC1([H])C(=C([H])[H])C2([H])C([H])(O[H])C3(C([H])([H])[H])C([H])(O[H])C([H])([H])C([H])([H])C3(O[H])C13C([H])([H])C([H])([H])C1=C(C([H])([H])[H])C4(OC14[H])C23[H]

$$$$
73:0:2
     RDKit          3D

 51 56  0  0  1  0  0  0  0  0999 V2000
    7.7056   -5.0684    1.5007 C   0  0  0  0  0  0  0  0  0  0  0  0
    6.4298   -4.7455    1.1753 C   0  0  0  0  0  0  0  0  0  0  0  0
    5.5949   -5.4901    0.1731 C   0  0  1  0  0  0  0  0  0  0  0  0
    4.8157   -6.6502    0.8216 C   0  0  1  0  0  0  0  0  0  0  0  0
    5.6818   -7.6729    1.2923 O   0  0  0  0  0  0  0  0  0  0  0  0
    3.7462   -6.2366    1.8943 C   0  0  1  0  0  0  0  0  0  0  0  0
    2.5563   -7.2388    1.6989 C   0  0  0  0  0  0  0  0  0  0  0  0
    4.1361   -6.4031    3.3946 C   0  0  1  0  0  0  0  0  0  0  0  0
    5.4499   -6.0143    3.7464 O   0  0  0  0  0  0  0  0  0  0  0  0
    3.1599   -5.4962    4.1421 C   0  0  0  0  0  0  0  0  0  0  0  0
    2.8470   -4.3144    3.2064 C   0  0  0  0  0  0  0  0  0  0  0  0
    3.2807   -4.7249    1.7732 C   0  0  2  0  0  0  0  0  0  0  0  0
    2.0914   -4.7180    1.0127 O   0  0  0  0  0  0  0  0  0  0  0  0
    4.2485   -3.7109    0.9708 C   0  0  2  0  0  0  0  0  0  0  0  0
    3.5898   -2.2873    0.7805 C   0  0  0  0  0  0  0  0  0  0  0  0
    4.3465   -1.1408    0.0282 C   0  0  0  0  0  0  0  0  0  0  0  0
    4.9191   -1.5940   -1.3106 C   0  0  0  0  0  0  0  0  0  0  0  0
    4.2438   -2.4802   -2.0343 C   0  0  0  0  0  0  0  0  0  0  0  0
    2.8431   -2.5889   -2.5504 C   0  0  0  0  0  0  0  0  0  0  0  0
    5.0899   -3.5772   -1.5597 C   0  0  2  0  0  0  0  0  0  0  0  0
    6.3704   -3.5561   -2.1396 O   0  0  0  0  0  0  0  0  0  0  0  0
    6.1030   -2.4812   -1.2232 C   0  0  1  0  0  0  0  0  0  0  0  0
    4.6082   -4.4619   -0.3606 C   0  0  1  0  0  0  0  0  0  0  0  0
    5.6462   -3.5557    1.6455 C   0  0  1  0  0  0  0  0  0  0  0  0
    5.6038   -3.3930    3.0295 O   0  0  0  0  0  0  0  0  0  0  0  0
    8.2933   -4.4809    2.1825 H   0  0  0  0  0  0  0  0  0  0  0  0
    8.1514   -5.9627    1.0818 H   0  0  0  0  0  0  0  0  0  0  0  0
    6.1816   -5.8774   -0.6337 H   0  0  0  0  0  0  0  0  0  0  0  0
    4.2920   -7.1007   -0.0224 H   0  0  0  0  0  0  0  0  0  0  0  0
    5.1638   -8.4143    1.5435 H   0  0  0  0  0  0  0  0  0  0  0  0
    1.7411   -7.0456    2.3857 H   0  0  0  0  0  0  0  0  0  0  0  0
    2.8685   -8.2703    1.8451 H   0  0  0  0  0  0  0  0  0  0  0  0
    2.1239   -7.1766    0.7057 H   0  0  0  0  0  0  0  0  0  0  0  0
    4.0208   -7.4351    3.7124 H   0  0  0  0  0  0  0  0  0  0  0  0
    5.5914   -5.1261    3.4477 H   0  0  0  0  0  0  0  0  0  0  0  0
    2.2382   -6.0405    4.3539 H   0  0  0  0  0  0  0  0  0  0  0  0
    3.5492   -5.1761    5.1052 H   0  0  0  0  0  0  0  0  0  0  0  0
    1.7852   -4.0663    3.2560 H   0  0  0  0  0  0  0  0  0  0  0  0
    3.3320   -3.4168    3.5772 H   0  0  0  0  0  0  0  0  0  0  0  0
    2.3354   -4.8523    0.1169 H   0  0  0  0  0  0  0  0  0  0  0  0
    2.6134   -2.3872    0.2977 H   0  0  0  0  0  0  0  0  0  0  0  0
    3.3720   -1.8848    1.7700 H   0  0  0  0  0  0  0  0  0  0  0  0
    3.6675   -0.3124   -0.1430 H   0  0  0  0  0  0  0  0  0  0  0  0
    5.1569   -0.7320    0.6302 H   0  0  0  0  0  0  0  0  0  0  0  0
    2.9163   -2.3584   -3.6231 H   0  0  0  0  0  0  0  0  0  0  0  0
    2.2322   -1.8195   -2.0848 H   0  0  0  0  0  0  0  0  0  0  0  0
    2.3913   -3.5862   -2.4165 H   0  0  0  0  0  0  0  0  0  0  0  0
    6.8361   -2.3810   -0.4284 H   0  0  0  0  0  0  0  0  0  0  0  0
    3.7424   -4.9823   -0.7488 H   0  0  0  0  0  0  0  0  0  0  0  0
    6.1721   -2.6584    1.3531 H   0  0  0  0  0  0  0  0  0  0  0  0
    5.4120   -2.4973    3.2109 H   0  0  0  0  0  0  0  0  0  0  0  0
  1  2  2  0
  1 26  1  0
  1 27  1  0
  2 24  1  0
  2  3  1  0
  3 23  1  0
  3  4  1  0
  3 28  1  6
  4  5  1  0
  4  6  1  0
  4 29  1  6
  5 30  1  0
  6 12  1  0
  6  7  1  6
  6  8  1  0
  7 31  1  0
  7 32  1  0
  7 33  1  0
  8  9  1  0
  8 10  1  0
  8 34  1  1
  9 35  1  0
 10 11  1  0
 10 36  1  0
 10 37  1  0
 11 12  1  0
 11 38  1  0
 11 39  1  0
 12 13  1  6
 12 14  1  0
 13 40  1  0
 14 23  1  0
 14 15  1  6
 14 24  1  0
 15 16  1  0
 15 41  1  0
 15 42  1  0
 16 17  1  0
 16 43  1  0
 16 44  1  0
 17 22  1  0
 17 18  2  0
 18 19  1  0
 18 20  1  0
 19 45  1  0
 19 46  1  0
 19 47  1  0
 20 22  1  0
 20 21  1  6
 20 23  1  0
 21 22  1  0
 22 48  1  1
 23 49  1  6
 24 25  1  0
 24 50  1  6
 25 51  1  0
M  END
>  <i_m_ct_stereo_status>  (253) 
1

>  <s_m_source_file>  (253) 
/var/tmp/pbs.5076255.sched01/tmpqw5sdpkp/8220gfbieb.sdf

>  <i_m_source_file_index>  (253) 
22

>  <i_lp_mmshare_version>  (253) 
48012

>  <i_f3d_flags>  (253) 
0

>  <s_epik_input>  (253) 
W0NIMl0xW0NIMl1bQ0BIXShbT0hdKVtDQEBdKFtDSDNdKShbQ0BAXTEoW0NAXTIzNClbT0hdKVtDQEhdKFtPSF0pW0NASF0oQyg9W0NIMl0pW0NAQEhdNFtPSF0pW0NAQEhdM0M1NltDSF0oTzYpQyhbQ0gyXVtDSDJdMik9QzVbQ0gzXQ==

>  <s_epik_cmdline>  (253) 
J2VwaWtfcHl0aG9uJywgJy1waHQnLCAnMi4wJywgJy1waCcsICc3LjAnLCAnLXRuJywgJzgnLCAnLW1hJywgJzIwMCcsICctaW1hZScsICc8aW5maWxlLm1hZT4nLCAnLW9tYWUnLCAnPG91dGZpbGUubWFlPic=

>  <r_lp_tautomer_probability>  (253) 
1

>  <r_epik_Ionization_Penalty>  (253) 
1.19898e-06

>  <r_epik_Ionization_Penalty_Charging>  (253) 
0

>  <r_epik_Ionization_Penalty_Neutral>  (253) 
1.19898e-06

>  <r_epik_State_Penalty>  (253) 
-0

>  <r_epik_Charging_Adjusted_Penalty>  (253) 
0

>  <i_epik_Tot_Q>  (253) 
0

>  <i_epik_Tot_abs_Q>  (253) 
0

>  <s_lp_Force_Field>  (253) 
OPLS3e

>  <r_lp_Energy>  (253) 
95.4016

>  <b_lp_Chiralities_Consistent>  (253) 
1

>  <s_lp_Variant>  (253) 
73:0-1

>  <s_i_glide_gridfile>  (253) 
pfpi4k_grid

>  <i_i_glide_lignum>  (253) 
22

>  <i_i_glide_rotatable_bonds>  (253) 
4

>  <r_i_docking_score>  (253) 
-3.30197

>  <r_i_glide_ligand_efficiency>  (253) 
-0.132079

>  <r_i_glide_ligand_efficiency_sa>  (253) 
-0.386201

>  <r_i_glide_ligand_efficiency_ln>  (253) 
-0.782666

>  <r_i_glide_gscore>  (253) 
-3.30197

>  <r_i_glide_lipo>  (253) 
-0.536885

>  <r_i_glide_hbond>  (253) 
-0.0263514

>  <r_i_glide_metal>  (253) 
-0

>  <r_i_glide_rewards>  (253) 
-1.54715

>  <r_i_glide_evdw>  (253) 
-16.1728

>  <r_i_glide_ecoul>  (253) 
-2.55294

>  <r_i_glide_erotb>  (253) 
0

>  <r_i_glide_esite>  (253) 
0

>  <r_i_glide_emodel>  (253) 
-26.1124

>  <r_i_glide_energy>  (253) 
-18.7257

>  <r_i_glide_einternal>  (253) 
0.870595

>  <r_i_glide_intrahb_reward>  (253) 
-0.5

>  <i_i_glide_confnum>  (253) 
2

>  <i_i_glide_posenum>  (253) 
1

>  <r_i_glide_eff_state_penalty>  (253) 
0

>  <ligand_id>  (253) 
73

>  <original_smiles>  (253) 
C=C1C2C(O)C3(C)C(O)CCC3(O)C3(CCC4=C(C)C5(OC45)C23)C1O

>  <smiles>  (253) 
[H]OC1([H])C(=C([H])[H])C2([H])C([H])(O[H])C3(C([H])([H])[H])C([H])(O[H])C([H])([H])C([H])([H])C3(O[H])C13C([H])([H])C([H])([H])C1=C(C([H])([H])[H])C4(OC14[H])C23[H]

$$$$
73:1:0
     RDKit          3D

 51 56  0  0  1  0  0  0  0  0999 V2000
    3.1348   -4.9146    2.3808 C   0  0  0  0  0  0  0  0  0  0  0  0
    3.7566   -3.7341    2.1329 C   0  0  0  0  0  0  0  0  0  0  0  0
    5.1952   -3.4223    2.4719 C   0  0  1  0  0  0  0  0  0  0  0  0
    6.1538   -3.8282    1.3247 C   0  0  1  0  0  0  0  0  0  0  0  0
    6.1946   -5.2399    1.1794 O   0  0  0  0  0  0  0  0  0  0  0  0
    5.9420   -3.0951   -0.0547 C   0  0  1  0  0  0  0  0  0  0  0  0
    7.3794   -2.9176   -0.6516 C   0  0  0  0  0  0  0  0  0  0  0  0
    5.1701   -3.8749   -1.1579 C   0  0  1  0  0  0  0  0  0  0  0  0
    4.1001   -4.6552   -0.7025 O   0  0  0  0  0  0  0  0  0  0  0  0
    4.6766   -2.8169   -2.1384 C   0  0  0  0  0  0  0  0  0  0  0  0
    4.4202   -1.5505   -1.3020 C   0  0  0  0  0  0  0  0  0  0  0  0
    5.1604   -1.7164    0.0604 C   0  0  2  0  0  0  0  0  0  0  0  0
    6.1295   -0.6718    0.0771 O   0  0  0  0  0  0  0  0  0  0  0  0
    4.2821   -1.4910    1.3957 C   0  0  2  0  0  0  0  0  0  0  0  0
    3.7091   -0.0143    1.4566 C   0  0  0  0  0  0  0  0  0  0  0  0
    2.8779    0.5021    2.6764 C   0  0  0  0  0  0  0  0  0  0  0  0
    3.5010    0.1449    4.0062 C   0  0  0  0  0  0  0  0  0  0  0  0
    3.4604   -1.1323    4.3999 C   0  0  0  0  0  0  0  0  0  0  0  0
    2.3717   -2.0966    4.8097 C   0  0  0  0  0  0  0  0  0  0  0  0
    4.8527   -1.3546    3.9901 C   0  0  1  0  0  0  0  0  0  0  0  0
    5.7632   -0.7584    4.8676 O   0  0  0  0  0  0  0  0  0  0  0  0
    4.9920    0.1568    4.0632 C   0  0  2  0  0  0  0  0  0  0  0  0
    5.2299   -1.8968    2.5894 C   0  0  1  0  0  0  0  0  0  0  0  0
    3.1063   -2.5023    1.5643 C   0  0  1  0  0  0  0  0  0  0  0  0
    2.2483   -2.7577    0.4785 O   0  0  0  0  0  0  0  0  0  0  0  0
    2.1002   -5.0492    2.1337 H   0  0  0  0  0  0  0  0  0  0  0  0
    3.6833   -5.7296    2.8257 H   0  0  0  0  0  0  0  0  0  0  0  0
    5.4848   -3.9166    3.4016 H   0  0  0  0  0  0  0  0  0  0  0  0
    7.1456   -3.5632    1.6820 H   0  0  0  0  0  0  0  0  0  0  0  0
    5.3562   -5.5012    0.8270 H   0  0  0  0  0  0  0  0  0  0  0  0
    7.3767   -2.4121   -1.6142 H   0  0  0  0  0  0  0  0  0  0  0  0
    7.8588   -3.8808   -0.8076 H   0  0  0  0  0  0  0  0  0  0  0  0
    8.0403   -2.3566    0.0089 H   0  0  0  0  0  0  0  0  0  0  0  0
    5.8151   -4.5852   -1.6776 H   0  0  0  0  0  0  0  0  0  0  0  0
    3.6952   -5.1061   -1.4383 H   0  0  0  0  0  0  0  0  0  0  0  0
    5.4600   -2.6171   -2.8728 H   0  0  0  0  0  0  0  0  0  0  0  0
    3.8039   -3.1359   -2.7101 H   0  0  0  0  0  0  0  0  0  0  0  0
    4.7589   -0.6784   -1.8619 H   0  0  0  0  0  0  0  0  0  0  0  0
    3.3498   -1.4072   -1.1970 H   0  0  0  0  0  0  0  0  0  0  0  0
    5.6732    0.1490    0.0423 H   0  0  0  0  0  0  0  0  0  0  0  0
    4.5138    0.6947    1.2893 H   0  0  0  0  0  0  0  0  0  0  0  0
    3.0754    0.1178    0.5848 H   0  0  0  0  0  0  0  0  0  0  0  0
    2.7677    1.5855    2.5814 H   0  0  0  0  0  0  0  0  0  0  0  0
    1.8733    0.0920    2.6443 H   0  0  0  0  0  0  0  0  0  0  0  0
    2.6634   -3.1175    4.5828 H   0  0  0  0  0  0  0  0  0  0  0  0
    1.3964   -1.8780    4.3652 H   0  0  0  0  0  0  0  0  0  0  0  0
    2.2865   -2.0088    5.8950 H   0  0  0  0  0  0  0  0  0  0  0  0
    5.5550    0.7771    3.3699 H   0  0  0  0  0  0  0  0  0  0  0  0
    6.2409   -1.5180    2.4409 H   0  0  0  0  0  0  0  0  0  0  0  0
    2.4057   -2.1533    2.3068 H   0  0  0  0  0  0  0  0  0  0  0  0
    1.8690   -1.9378    0.1397 H   0  0  0  0  0  0  0  0  0  0  0  0
  1  2  2  0
  1 26  1  0
  1 27  1  0
  2 24  1  0
  2  3  1  0
  3 23  1  0
  3  4  1  0
  3 28  1  1
  4  5  1  0
  4  6  1  0
  4 29  1  1
  5 30  1  0
  6 12  1  0
  6  7  1  6
  6  8  1  0
  7 31  1  0
  7 32  1  0
  7 33  1  0
  8  9  1  0
  8 10  1  0
  8 34  1  6
  9 35  1  0
 10 11  1  0
 10 36  1  0
 10 37  1  0
 11 12  1  0
 11 38  1  0
 11 39  1  0
 12 13  1  6
 12 14  1  0
 13 40  1  0
 14 23  1  0
 14 15  1  1
 14 24  1  0
 15 16  1  0
 15 41  1  0
 15 42  1  0
 16 17  1  0
 16 43  1  0
 16 44  1  0
 17 22  1  0
 17 18  2  0
 18 19  1  0
 18 20  1  0
 19 45  1  0
 19 46  1  0
 19 47  1  0
 20 22  1  0
 20 21  1  1
 20 23  1  0
 21 22  1  0
 22 48  1  6
 23 49  1  6
 24 25  1  0
 24 50  1  1
 25 51  1  0
M  END
>  <i_m_ct_stereo_status>  (254) 
1

>  <s_m_source_file>  (254) 
/var/tmp/pbs.5076255.sched01/tmpqw5sdpkp/8220gfbieb.sdf

>  <i_m_source_file_index>  (254) 
23

>  <i_lp_mmshare_version>  (254) 
48012

>  <i_f3d_flags>  (254) 
0

>  <s_epik_input>  (254) 
W0NIMl0xW0NIMl1bQ0BIXShbT0hdKVtDQEBdKFtDSDNdKShbQ0BAXTEoW0NAXTIzNClbT0hdKVtDQEhdKFtPSF0pW0NASF0oQyg9W0NIMl0pW0NAQEhdNFtPSF0pW0NAQEhdM0M1NltDSF0oTzYpQyhbQ0gyXVtDSDJdMik9QzVbQ0gzXQ==

>  <s_epik_cmdline>  (254) 
J2VwaWtfcHl0aG9uJywgJy1waHQnLCAnMi4wJywgJy1waCcsICc3LjAnLCAnLXRuJywgJzgnLCAnLW1hJywgJzIwMCcsICctaW1hZScsICc8aW5maWxlLm1hZT4nLCAnLW9tYWUnLCAnPG91dGZpbGUubWFlPic=

>  <r_lp_tautomer_probability>  (254) 
1

>  <r_epik_Ionization_Penalty>  (254) 
1.19898e-06

>  <r_epik_Ionization_Penalty_Charging>  (254) 
0

>  <r_epik_Ionization_Penalty_Neutral>  (254) 
1.19898e-06

>  <r_epik_State_Penalty>  (254) 
-0

>  <r_epik_Charging_Adjusted_Penalty>  (254) 
0

>  <i_epik_Tot_Q>  (254) 
0

>  <i_epik_Tot_abs_Q>  (254) 
0

>  <s_lp_Force_Field>  (254) 
OPLS3e

>  <r_lp_Energy>  (254) 
94.8177

>  <b_lp_Chiralities_Consistent>  (254) 
1

>  <s_lp_Variant>  (254) 
73:0-2

>  <s_i_glide_gridfile>  (254) 
pfpi4k_grid

>  <i_i_glide_lignum>  (254) 
23

>  <i_i_glide_rotatable_bonds>  (254) 
4

>  <r_i_docking_score>  (254) 
-4.71185

>  <r_i_glide_ligand_efficiency>  (254) 
-0.188474

>  <r_i_glide_ligand_efficiency_sa>  (254) 
-0.551101

>  <r_i_glide_ligand_efficiency_ln>  (254) 
-1.11685

>  <r_i_glide_gscore>  (254) 
-4.71185

>  <r_i_glide_lipo>  (254) 
-0.548476

>  <r_i_glide_hbond>  (254) 
-0.16863

>  <r_i_glide_metal>  (254) 
-0

>  <r_i_glide_rewards>  (254) 
-1.54715

>  <r_i_glide_evdw>  (254) 
-20.3426

>  <r_i_glide_ecoul>  (254) 
-9.5364

>  <r_i_glide_erotb>  (254) 
0

>  <r_i_glide_esite>  (254) 
0

>  <r_i_glide_emodel>  (254) 
-43.6021

>  <r_i_glide_energy>  (254) 
-29.879

>  <r_i_glide_einternal>  (254) 
0.890059

>  <r_i_glide_intrahb_reward>  (254) 
-0.5

>  <i_i_glide_confnum>  (254) 
1

>  <i_i_glide_posenum>  (254) 
37

>  <r_i_glide_eff_state_penalty>  (254) 
0

>  <ligand_id>  (254) 
73

>  <original_smiles>  (254) 
C=C1C2C(O)C3(C)C(O)CCC3(O)C3(CCC4=C(C)C5(OC45)C23)C1O

>  <smiles>  (254) 
[H]OC1([H])C(=C([H])[H])C2([H])C([H])(O[H])C3(C([H])([H])[H])C([H])(O[H])C([H])([H])C([H])([H])C3(O[H])C13C([H])([H])C([H])([H])C1=C(C([H])([H])[H])C4(OC14[H])C23[H]

$$$$
73:1:1
     RDKit          3D

 51 56  0  0  1  0  0  0  0  0999 V2000
    2.0867   -3.6180   -1.3364 C   0  0  0  0  0  0  0  0  0  0  0  0
    3.0902   -3.8334   -0.4658 C   0  0  0  0  0  0  0  0  0  0  0  0
    4.3909   -4.5436   -0.7700 C   0  0  1  0  0  0  0  0  0  0  0  0
    5.4178   -3.5888   -1.3916 C   0  0  1  0  0  0  0  0  0  0  0  0
    4.9864   -3.1237   -2.6699 O   0  0  0  0  0  0  0  0  0  0  0  0
    5.9206   -2.4623   -0.4543 C   0  0  1  0  0  0  0  0  0  0  0  0
    7.4462   -2.2982   -0.7846 C   0  0  0  0  0  0  0  0  0  0  0  0
    5.3004   -1.0635   -0.6874 C   0  0  1  0  0  0  0  0  0  0  0  0
    3.9290   -1.0511   -0.9952 O   0  0  0  0  0  0  0  0  0  0  0  0
    5.5427   -0.3216    0.6137 C   0  0  0  0  0  0  0  0  0  0  0  0
    5.5009   -1.3560    1.7434 C   0  0  0  0  0  0  0  0  0  0  0  0
    5.6576   -2.7570    1.0821 C   0  0  2  0  0  0  0  0  0  0  0  0
    6.8497   -3.3182    1.5814 O   0  0  0  0  0  0  0  0  0  0  0  0
    4.5434   -3.8564    1.4646 C   0  0  2  0  0  0  0  0  0  0  0  0
    4.5511   -4.1715    3.0185 C   0  0  0  0  0  0  0  0  0  0  0  0
    3.6053   -5.2593    3.6227 C   0  0  0  0  0  0  0  0  0  0  0  0
    3.6402   -6.5845    2.8417 C   0  0  0  0  0  0  0  0  0  0  0  0
    3.0284   -6.5924    1.6494 C   0  0  0  0  0  0  0  0  0  0  0  0
    1.6069   -6.4789    1.1641 C   0  0  0  0  0  0  0  0  0  0  0  0
    4.3034   -6.4408    0.9442 C   0  0  1  0  0  0  0  0  0  0  0  0
    5.0606   -7.6161    0.9358 O   0  0  0  0  0  0  0  0  0  0  0  0
    4.9403   -6.9540    2.2400 C   0  0  2  0  0  0  0  0  0  0  0  0
    4.9053   -5.0663    0.5464 C   0  0  1  0  0  0  0  0  0  0  0  0
    3.1055   -3.4695    0.9960 C   0  0  1  0  0  0  0  0  0  0  0  0
    2.5714   -2.1830    1.2805 O   0  0  0  0  0  0  0  0  0  0  0  0
    1.1841   -3.1131   -1.0470 H   0  0  0  0  0  0  0  0  0  0  0  0
    2.1587   -3.9478   -2.3624 H   0  0  0  0  0  0  0  0  0  0  0  0
    4.3042   -5.3659   -1.4444 H   0  0  0  0  0  0  0  0  0  0  0  0
    6.2474   -4.2497   -1.6178 H   0  0  0  0  0  0  0  0  0  0  0  0
    4.6704   -3.8663   -3.1424 H   0  0  0  0  0  0  0  0  0  0  0  0
    7.9286   -1.5380   -0.1758 H   0  0  0  0  0  0  0  0  0  0  0  0
    7.5818   -2.0345   -1.8308 H   0  0  0  0  0  0  0  0  0  0  0  0
    8.0175   -3.2164   -0.6442 H   0  0  0  0  0  0  0  0  0  0  0  0
    5.7823   -0.5568   -1.5205 H   0  0  0  0  0  0  0  0  0  0  0  0
    3.8163   -1.5848   -1.7593 H   0  0  0  0  0  0  0  0  0  0  0  0
    6.5410    0.1044    0.5497 H   0  0  0  0  0  0  0  0  0  0  0  0
    4.8466    0.4980    0.7679 H   0  0  0  0  0  0  0  0  0  0  0  0
    6.2915   -1.1375    2.4646 H   0  0  0  0  0  0  0  0  0  0  0  0
    4.5709   -1.2478    2.2912 H   0  0  0  0  0  0  0  0  0  0  0  0
    6.7530   -3.3916    2.5114 H   0  0  0  0  0  0  0  0  0  0  0  0
    5.5599   -4.4069    3.3553 H   0  0  0  0  0  0  0  0  0  0  0  0
    4.3108   -3.2345    3.5354 H   0  0  0  0  0  0  0  0  0  0  0  0
    3.9097   -5.4370    4.6526 H   0  0  0  0  0  0  0  0  0  0  0  0
    2.5910   -4.8935    3.6571 H   0  0  0  0  0  0  0  0  0  0  0  0
    1.5780   -6.0607    0.1515 H   0  0  0  0  0  0  0  0  0  0  0  0
    0.9588   -5.8948    1.8307 H   0  0  0  0  0  0  0  0  0  0  0  0
    1.2053   -7.4981    1.1068 H   0  0  0  0  0  0  0  0  0  0  0  0
    5.8620   -6.5963    2.6698 H   0  0  0  0  0  0  0  0  0  0  0  0
    5.9534   -5.2747    0.4897 H   0  0  0  0  0  0  0  0  0  0  0  0
    2.3761   -4.1103    1.4663 H   0  0  0  0  0  0  0  0  0  0  0  0
    2.1837   -1.8294    0.5031 H   0  0  0  0  0  0  0  0  0  0  0  0
  1  2  2  0
  1 26  1  0
  1 27  1  0
  2 24  1  0
  2  3  1  0
  3 23  1  0
  3  4  1  0
  3 28  1  6
  4  5  1  0
  4  6  1  0
  4 29  1  6
  5 30  1  0
  6 12  1  0
  6  7  1  1
  6  8  1  0
  7 31  1  0
  7 32  1  0
  7 33  1  0
  8  9  1  0
  8 10  1  0
  8 34  1  6
  9 35  1  0
 10 11  1  0
 10 36  1  0
 10 37  1  0
 11 12  1  0
 11 38  1  0
 11 39  1  0
 12 13  1  1
 12 14  1  0
 13 40  1  0
 14 23  1  0
 14 15  1  1
 14 24  1  0
 15 16  1  0
 15 41  1  0
 15 42  1  0
 16 17  1  0
 16 43  1  0
 16 44  1  0
 17 22  1  0
 17 18  2  0
 18 19  1  0
 18 20  1  0
 19 45  1  0
 19 46  1  0
 19 47  1  0
 20 22  1  0
 20 21  1  6
 20 23  1  0
 21 22  1  0
 22 48  1  1
 23 49  1  6
 24 25  1  0
 24 50  1  1
 25 51  1  0
M  END
>  <i_m_ct_stereo_status>  (255) 
1

>  <s_m_source_file>  (255) 
/var/tmp/pbs.5076255.sched01/tmpqw5sdpkp/8220gfbieb.sdf

>  <i_m_source_file_index>  (255) 
23

>  <i_lp_mmshare_version>  (255) 
48012

>  <i_f3d_flags>  (255) 
0

>  <s_epik_input>  (255) 
W0NIMl0xW0NIMl1bQ0BIXShbT0hdKVtDQEBdKFtDSDNdKShbQ0BAXTEoW0NAXTIzNClbT0hdKVtDQEhdKFtPSF0pW0NASF0oQyg9W0NIMl0pW0NAQEhdNFtPSF0pW0NAQEhdM0M1NltDSF0oTzYpQyhbQ0gyXVtDSDJdMik9QzVbQ0gzXQ==

>  <s_epik_cmdline>  (255) 
J2VwaWtfcHl0aG9uJywgJy1waHQnLCAnMi4wJywgJy1waCcsICc3LjAnLCAnLXRuJywgJzgnLCAnLW1hJywgJzIwMCcsICctaW1hZScsICc8aW5maWxlLm1hZT4nLCAnLW9tYWUnLCAnPG91dGZpbGUubWFlPic=

>  <r_lp_tautomer_probability>  (255) 
1

>  <r_epik_Ionization_Penalty>  (255) 
1.19898e-06

>  <r_epik_Ionization_Penalty_Charging>  (255) 
0

>  <r_epik_Ionization_Penalty_Neutral>  (255) 
1.19898e-06

>  <r_epik_State_Penalty>  (255) 
-0

>  <r_epik_Charging_Adjusted_Penalty>  (255) 
0

>  <i_epik_Tot_Q>  (255) 
0

>  <i_epik_Tot_abs_Q>  (255) 
0

>  <s_lp_Force_Field>  (255) 
OPLS3e

>  <r_lp_Energy>  (255) 
94.8177

>  <b_lp_Chiralities_Consistent>  (255) 
1

>  <s_lp_Variant>  (255) 
73:0-2

>  <s_i_glide_gridfile>  (255) 
pfpi4k_grid

>  <i_i_glide_lignum>  (255) 
23

>  <i_i_glide_rotatable_bonds>  (255) 
4

>  <r_i_docking_score>  (255) 
-3.31815

>  <r_i_glide_ligand_efficiency>  (255) 
-0.132726

>  <r_i_glide_ligand_efficiency_sa>  (255) 
-0.388093

>  <r_i_glide_ligand_efficiency_ln>  (255) 
-0.7865

>  <r_i_glide_gscore>  (255) 
-3.31815

>  <r_i_glide_lipo>  (255) 
-0.66713

>  <r_i_glide_hbond>  (255) 
0

>  <r_i_glide_metal>  (255) 
-0

>  <r_i_glide_rewards>  (255) 
-1.54715

>  <r_i_glide_evdw>  (255) 
-16.7119

>  <r_i_glide_ecoul>  (255) 
-1.78844

>  <r_i_glide_erotb>  (255) 
0

>  <r_i_glide_esite>  (255) 
0

>  <r_i_glide_emodel>  (255) 
-28.3475

>  <r_i_glide_energy>  (255) 
-18.5003

>  <r_i_glide_einternal>  (255) 
1.95059

>  <r_i_glide_intrahb_reward>  (255) 
-0.5

>  <i_i_glide_confnum>  (255) 
2

>  <i_i_glide_posenum>  (255) 
5

>  <r_i_glide_eff_state_penalty>  (255) 
0

>  <ligand_id>  (255) 
73

>  <original_smiles>  (255) 
C=C1C2C(O)C3(C)C(O)CCC3(O)C3(CCC4=C(C)C5(OC45)C23)C1O

>  <smiles>  (255) 
[H]OC1([H])C(=C([H])[H])C2([H])C([H])(O[H])C3(C([H])([H])[H])C([H])(O[H])C([H])([H])C([H])([H])C3(O[H])C13C([H])([H])C([H])([H])C1=C(C([H])([H])[H])C4(OC14[H])C23[H]

$$$$
73:1:2
     RDKit          3D

 51 56  0  0  1  0  0  0  0  0999 V2000
    2.0320   -3.6733   -1.3824 C   0  0  0  0  0  0  0  0  0  0  0  0
    2.8814   -3.8751   -0.3565 C   0  0  0  0  0  0  0  0  0  0  0  0
    4.2083   -4.6172   -0.4307 C   0  0  1  0  0  0  0  0  0  0  0  0
    5.3546   -3.6656   -0.8314 C   0  0  1  0  0  0  0  0  0  0  0  0
    5.2371   -3.2421   -2.1888 O   0  0  0  0  0  0  0  0  0  0  0  0
    5.6578   -2.4999    0.1634 C   0  0  1  0  0  0  0  0  0  0  0  0
    7.2161   -2.3298    0.1298 C   0  0  0  0  0  0  0  0  0  0  0  0
    5.1123   -1.0912   -0.1958 C   0  0  1  0  0  0  0  0  0  0  0  0
    3.8149   -1.0754   -0.7336 O   0  0  0  0  0  0  0  0  0  0  0  0
    5.0971   -0.3203    1.1212 C   0  0  0  0  0  0  0  0  0  0  0  0
    4.8279   -1.3463    2.2284 C   0  0  0  0  0  0  0  0  0  0  0  0
    5.0950   -2.7593    1.6320 C   0  0  2  0  0  0  0  0  0  0  0  0
    6.1646   -3.2673    2.3948 O   0  0  0  0  0  0  0  0  0  0  0  0
    3.9479   -3.8789    1.8129 C   0  0  2  0  0  0  0  0  0  0  0  0
    3.6474   -4.1554    3.3503 C   0  0  0  0  0  0  0  0  0  0  0  0
    2.5981   -5.2291    3.7910 C   0  0  0  0  0  0  0  0  0  0  0  0
    2.7647   -6.5692    3.0581 C   0  0  0  0  0  0  0  0  0  0  0  0
    2.3981   -6.5884    1.7699 C   0  0  0  0  0  0  0  0  0  0  0  0
    1.0938   -6.5016    1.0272 C   0  0  0  0  0  0  0  0  0  0  0  0
    3.7839   -6.4671    1.3060 C   0  0  1  0  0  0  0  0  0  0  0  0
    4.5309   -7.6419    1.4830 O   0  0  0  0  0  0  0  0  0  0  0  0
    4.1588   -6.9473    2.7155 C   0  0  2  0  0  0  0  0  0  0  0  0
    4.4581   -5.1070    0.9846 C   0  0  1  0  0  0  0  0  0  0  0  0
    2.6360   -3.4951    1.0823 C   0  0  1  0  0  0  0  0  0  0  0  0
    2.1251   -2.1903    1.2826 O   0  0  0  0  0  0  0  0  0  0  0  0
    1.0893   -3.1677   -1.2518 H   0  0  0  0  0  0  0  0  0  0  0  0
    2.2715   -4.0106   -2.3764 H   0  0  0  0  0  0  0  0  0  0  0  0
    4.2015   -5.4430   -1.1102 H   0  0  0  0  0  0  0  0  0  0  0  0
    6.2219   -4.3203   -0.8481 H   0  0  0  0  0  0  0  0  0  0  0  0
    4.8797   -3.9522   -2.6791 H   0  0  0  0  0  0  0  0  0  0  0  0
    7.5681   -1.5552    0.8061 H   0  0  0  0  0  0  0  0  0  0  0  0
    7.5558   -2.0696   -0.8697 H   0  0  0  0  0  0  0  0  0  0  0  0
    7.7463   -3.2441    0.3947 H   0  0  0  0  0  0  0  0  0  0  0  0
    5.7383   -0.5884   -0.9245 H   0  0  0  0  0  0  0  0  0  0  0  0
    3.4822   -0.2051   -0.7178 H   0  0  0  0  0  0  0  0  0  0  0  0
    6.0826    0.1234    1.2791 H   0  0  0  0  0  0  0  0  0  0  0  0
    4.3889    0.5067    1.1332 H   0  0  0  0  0  0  0  0  0  0  0  0
    5.4658   -1.1314    3.0873 H   0  0  0  0  0  0  0  0  0  0  0  0
    3.8233   -1.2251    2.6066 H   0  0  0  0  0  0  0  0  0  0  0  0
    6.3947   -4.1090    2.0645 H   0  0  0  0  0  0  0  0  0  0  0  0
    4.5746   -4.3692    3.8800 H   0  0  0  0  0  0  0  0  0  0  0  0
    3.3199   -3.2079    3.7907 H   0  0  0  0  0  0  0  0  0  0  0  0
    2.6992   -5.3791    4.8644 H   0  0  0  0  0  0  0  0  0  0  0  0
    1.5970   -4.8560    3.6304 H   0  0  0  0  0  0  0  0  0  0  0  0
    1.2588   -6.0962    0.0189 H   0  0  0  0  0  0  0  0  0  0  0  0
    0.3339   -5.9091    1.5528 H   0  0  0  0  0  0  0  0  0  0  0  0
    0.7093   -7.5173    0.9089 H   0  0  0  0  0  0  0  0  0  0  0  0
    4.9804   -6.5819    3.3145 H   0  0  0  0  0  0  0  0  0  0  0  0
    5.4930   -5.3139    1.1482 H   0  0  0  0  0  0  0  0  0  0  0  0
    1.8203   -4.1122    1.4296 H   0  0  0  0  0  0  0  0  0  0  0  0
    1.8603   -1.8287    0.4415 H   0  0  0  0  0  0  0  0  0  0  0  0
  1  2  2  0
  1 26  1  0
  1 27  1  0
  2 24  1  0
  2  3  1  0
  3 23  1  0
  3  4  1  0
  3 28  1  6
  4  5  1  0
  4  6  1  0
  4 29  1  6
  5 30  1  0
  6 12  1  0
  6  7  1  1
  6  8  1  0
  7 31  1  0
  7 32  1  0
  7 33  1  0
  8  9  1  0
  8 10  1  0
  8 34  1  6
  9 35  1  0
 10 11  1  0
 10 36  1  0
 10 37  1  0
 11 12  1  0
 11 38  1  0
 11 39  1  0
 12 13  1  1
 12 14  1  0
 13 40  1  0
 14 23  1  0
 14 15  1  1
 14 24  1  0
 15 16  1  0
 15 41  1  0
 15 42  1  0
 16 17  1  0
 16 43  1  0
 16 44  1  0
 17 22  1  0
 17 18  2  0
 18 19  1  0
 18 20  1  0
 19 45  1  0
 19 46  1  0
 19 47  1  0
 20 22  1  0
 20 21  1  6
 20 23  1  0
 21 22  1  0
 22 48  1  1
 23 49  1  6
 24 25  1  0
 24 50  1  1
 25 51  1  0
M  END
>  <i_m_ct_stereo_status>  (256) 
1

>  <s_m_source_file>  (256) 
/var/tmp/pbs.5076255.sched01/tmpqw5sdpkp/8220gfbieb.sdf

>  <i_m_source_file_index>  (256) 
23

>  <i_lp_mmshare_version>  (256) 
48012

>  <i_f3d_flags>  (256) 
0

>  <s_epik_input>  (256) 
W0NIMl0xW0NIMl1bQ0BIXShbT0hdKVtDQEBdKFtDSDNdKShbQ0BAXTEoW0NAXTIzNClbT0hdKVtDQEhdKFtPSF0pW0NASF0oQyg9W0NIMl0pW0NAQEhdNFtPSF0pW0NAQEhdM0M1NltDSF0oTzYpQyhbQ0gyXVtDSDJdMik9QzVbQ0gzXQ==

>  <s_epik_cmdline>  (256) 
J2VwaWtfcHl0aG9uJywgJy1waHQnLCAnMi4wJywgJy1waCcsICc3LjAnLCAnLXRuJywgJzgnLCAnLW1hJywgJzIwMCcsICctaW1hZScsICc8aW5maWxlLm1hZT4nLCAnLW9tYWUnLCAnPG91dGZpbGUubWFlPic=

>  <r_lp_tautomer_probability>  (256) 
1

>  <r_epik_Ionization_Penalty>  (256) 
1.19898e-06

>  <r_epik_Ionization_Penalty_Charging>  (256) 
0

>  <r_epik_Ionization_Penalty_Neutral>  (256) 
1.19898e-06

>  <r_epik_State_Penalty>  (256) 
-0

>  <r_epik_Charging_Adjusted_Penalty>  (256) 
0

>  <i_epik_Tot_Q>  (256) 
0

>  <i_epik_Tot_abs_Q>  (256) 
0

>  <s_lp_Force_Field>  (256) 
OPLS3e

>  <r_lp_Energy>  (256) 
94.8177

>  <b_lp_Chiralities_Consistent>  (256) 
1

>  <s_lp_Variant>  (256) 
73:0-2

>  <s_i_glide_gridfile>  (256) 
pfpi4k_grid

>  <i_i_glide_lignum>  (256) 
23

>  <i_i_glide_rotatable_bonds>  (256) 
4

>  <r_i_docking_score>  (256) 
-2.72415

>  <r_i_glide_ligand_efficiency>  (256) 
-0.108966

>  <r_i_glide_ligand_efficiency_sa>  (256) 
-0.318618

>  <r_i_glide_ligand_efficiency_ln>  (256) 
-0.645704

>  <r_i_glide_gscore>  (256) 
-2.72415

>  <r_i_glide_lipo>  (256) 
-0.544759

>  <r_i_glide_hbond>  (256) 
0

>  <r_i_glide_metal>  (256) 
-0

>  <r_i_glide_rewards>  (256) 
-1.04715

>  <r_i_glide_evdw>  (256) 
-16.6628

>  <r_i_glide_ecoul>  (256) 
-1.99397

>  <r_i_glide_erotb>  (256) 
0

>  <r_i_glide_esite>  (256) 
0

>  <r_i_glide_emodel>  (256) 
-22.2874

>  <r_i_glide_energy>  (256) 
-18.6567

>  <r_i_glide_einternal>  (256) 
2.1391

>  <r_i_glide_intrahb_reward>  (256) 
-0

>  <i_i_glide_confnum>  (256) 
2

>  <i_i_glide_posenum>  (256) 
21

>  <r_i_glide_eff_state_penalty>  (256) 
0

>  <ligand_id>  (256) 
73

>  <original_smiles>  (256) 
C=C1C2C(O)C3(C)C(O)CCC3(O)C3(CCC4=C(C)C5(OC45)C23)C1O

>  <smiles>  (256) 
[H]OC1([H])C(=C([H])[H])C2([H])C([H])(O[H])C3(C([H])([H])[H])C([H])(O[H])C([H])([H])C([H])([H])C3(O[H])C13C([H])([H])C([H])([H])C1=C(C([H])([H])[H])C4(OC14[H])C23[H]

$$$$
74:0:0
     RDKit          3D

 48 51  0  0  1  0  0  0  0  0999 V2000
    4.0972   -7.2754    2.5322 C   0  0  0  0  0  0  0  0  0  0  0  0
    4.0457   -5.8005    2.0544 C   0  0  2  0  0  0  0  0  0  0  0  0
    2.7996   -5.6335    1.1450 C   0  0  0  0  0  0  0  0  0  0  0  0
    2.8066   -4.4106    0.1959 C   0  0  0  0  0  0  0  0  0  0  0  0
    4.1328   -4.3401   -0.6143 C   0  0  2  0  0  0  0  0  0  0  0  0
    5.3011   -4.2094    0.3800 C   0  0  1  0  0  0  0  0  0  0  0  0
    5.3407   -2.7906    0.9842 C   0  0  0  0  0  0  0  0  0  0  0  0
    5.1408   -1.7126   -0.0612 C   0  0  0  0  0  0  0  0  0  0  0  0
    4.6495   -1.9324   -1.2989 C   0  0  0  0  0  0  0  0  0  0  0  0
    4.5885   -0.8386   -2.3373 C   0  0  0  0  0  0  0  0  0  0  0  0
    3.2630   -0.7675   -3.1064 C   0  0  1  0  0  0  0  0  0  0  0  0
    3.3680    0.1786   -4.1419 O   0  0  0  0  0  0  0  0  0  0  0  0
    2.8791   -2.1148   -3.7002 C   0  0  0  0  0  0  0  0  0  0  0  0
    2.8468   -3.1487   -2.5684 C   0  0  0  0  0  0  0  0  0  0  0  0
    4.2117   -3.3038   -1.8034 C   0  0  2  0  0  0  0  0  0  0  0  0
    5.2918   -3.8188   -2.7879 C   0  0  0  0  0  0  0  0  0  0  0  0
    5.3546   -5.4217    1.3540 C   0  0  1  0  0  0  0  0  0  0  0  0
    6.2656   -5.2017    2.5307 C   0  0  0  0  0  0  0  0  0  0  0  0
    5.4383   -4.6437    3.5348 O   0  0  0  0  0  0  0  0  0  0  0  0
    4.0689   -4.8867    3.2733 C   0  0  0  0  0  0  0  0  0  0  0  0
    3.1873   -7.5443    3.0774 H   0  0  0  0  0  0  0  0  0  0  0  0
    4.9175   -7.4677    3.2187 H   0  0  0  0  0  0  0  0  0  0  0  0
    4.2115   -7.9671    1.6935 H   0  0  0  0  0  0  0  0  0  0  0  0
    2.7142   -6.5127    0.5002 H   0  0  0  0  0  0  0  0  0  0  0  0
    1.8857   -5.6264    1.7504 H   0  0  0  0  0  0  0  0  0  0  0  0
    1.9599   -4.5430   -0.4810 H   0  0  0  0  0  0  0  0  0  0  0  0
    2.6259   -3.4871    0.7489 H   0  0  0  0  0  0  0  0  0  0  0  0
    4.2583   -5.3277   -1.0553 H   0  0  0  0  0  0  0  0  0  0  0  0
    6.2311   -4.3027   -0.1799 H   0  0  0  0  0  0  0  0  0  0  0  0
    4.5776   -2.6437    1.7423 H   0  0  0  0  0  0  0  0  0  0  0  0
    6.3021   -2.6175    1.4676 H   0  0  0  0  0  0  0  0  0  0  0  0
    5.4559   -0.7200    0.2203 H   0  0  0  0  0  0  0  0  0  0  0  0
    4.7896    0.0927   -1.8479 H   0  0  0  0  0  0  0  0  0  0  0  0
    5.4037   -1.0103   -3.0262 H   0  0  0  0  0  0  0  0  0  0  0  0
    2.4726   -0.4634   -2.4237 H   0  0  0  0  0  0  0  0  0  0  0  0
    3.0445    1.0016   -3.7920 H   0  0  0  0  0  0  0  0  0  0  0  0
    1.9029   -2.0725   -4.1882 H   0  0  0  0  0  0  0  0  0  0  0  0
    3.5604   -2.4009   -4.4977 H   0  0  0  0  0  0  0  0  0  0  0  0
    2.0400   -2.8626   -1.8848 H   0  0  0  0  0  0  0  0  0  0  0  0
    2.5168   -4.0813   -3.0174 H   0  0  0  0  0  0  0  0  0  0  0  0
    5.0290   -4.8072   -3.1680 H   0  0  0  0  0  0  0  0  0  0  0  0
    6.2744   -3.8692   -2.3280 H   0  0  0  0  0  0  0  0  0  0  0  0
    5.4506   -3.1841   -3.6504 H   0  0  0  0  0  0  0  0  0  0  0  0
    5.7155   -6.2601    0.7593 H   0  0  0  0  0  0  0  0  0  0  0  0
    6.6821   -6.1237    2.9008 H   0  0  0  0  0  0  0  0  0  0  0  0
    7.0948   -4.5524    2.3181 H   0  0  0  0  0  0  0  0  0  0  0  0
    3.5949   -3.9278    3.1192 H   0  0  0  0  0  0  0  0  0  0  0  0
    3.6198   -5.3257    4.1498 H   0  0  0  0  0  0  0  0  0  0  0  0
  2  1  1  1
  1 21  1  0
  1 22  1  0
  1 23  1  0
  2 17  1  0
  2 20  1  0
  2  3  1  0
  3  4  1  0
  3 24  1  0
  3 25  1  0
  4  5  1  0
  4 26  1  0
  4 27  1  0
  5 15  1  0
  5  6  1  0
  5 28  1  6
  6  7  1  0
  6 17  1  0
  6 29  1  6
  7  8  1  0
  7 30  1  0
  7 31  1  0
  8  9  2  0
  8 32  1  0
  9 15  1  0
  9 10  1  0
 10 11  1  0
 10 33  1  0
 10 34  1  0
 11 12  1  0
 11 13  1  0
 11 35  1  1
 12 36  1  0
 13 14  1  0
 13 37  1  0
 13 38  1  0
 14 15  1  0
 14 39  1  0
 14 40  1  0
 15 16  1  6
 16 41  1  0
 16 42  1  0
 16 43  1  0
 17 18  1  0
 17 44  1  6
 18 19  1  0
 18 45  1  0
 18 46  1  0
 19 20  1  0
 20 47  1  0
 20 48  1  0
M  END
>  <i_m_ct_stereo_status>  (257) 
1

>  <s_m_source_file>  (257) 
/var/tmp/pbs.5076255.sched01/tmpqw5sdpkp/8220gfbieb.sdf

>  <i_m_source_file_index>  (257) 
24

>  <i_lp_mmshare_version>  (257) 
48012

>  <i_f3d_flags>  (257) 
0

>  <s_epik_input>  (257) 
W0NIMl0xT1tDSDJdW0NAQEhdKFtDQEBdMTJbQ0gzXSlbQ0BIXTNbQ0BASF0oW0NIMl1bQ0gyXTIpW0NAXTQoW0NIM10pQyg9W0NIXVtDSDJdMylbQ0gyXVtDQEBIXShbT0hdKVtDSDJdW0NIMl00

>  <s_epik_cmdline>  (257) 
J2VwaWtfcHl0aG9uJywgJy1waHQnLCAnMi4wJywgJy1waCcsICc3LjAnLCAnLXRuJywgJzgnLCAnLW1hJywgJzIwMCcsICctaW1hZScsICc8aW5maWxlLm1hZT4nLCAnLW9tYWUnLCAnPG91dGZpbGUubWFlPic=

>  <r_lp_tautomer_probability>  (257) 
1

>  <r_epik_Ionization_Penalty>  (257) 
1.21007e-06

>  <r_epik_Ionization_Penalty_Charging>  (257) 
0

>  <r_epik_Ionization_Penalty_Neutral>  (257) 
1.21007e-06

>  <r_epik_State_Penalty>  (257) 
-0

>  <r_epik_Charging_Adjusted_Penalty>  (257) 
0

>  <i_epik_Tot_Q>  (257) 
0

>  <i_epik_Tot_abs_Q>  (257) 
0

>  <s_lp_Force_Field>  (257) 
OPLS3e

>  <r_lp_Energy>  (257) 
29.7655

>  <b_lp_Chiralities_Consistent>  (257) 
1

>  <s_lp_Variant>  (257) 
74:0-1

>  <s_i_glide_gridfile>  (257) 
pfpi4k_grid

>  <i_i_glide_lignum>  (257) 
24

>  <i_i_glide_rotatable_bonds>  (257) 
1

>  <r_i_docking_score>  (257) 
-4.10481

>  <r_i_glide_ligand_efficiency>  (257) 
-0.20524

>  <r_i_glide_ligand_efficiency_sa>  (257) 
-0.557108

>  <r_i_glide_ligand_efficiency_ln>  (257) 
-1.0273

>  <r_i_glide_gscore>  (257) 
-4.10481

>  <r_i_glide_lipo>  (257) 
-0.519716

>  <r_i_glide_hbond>  (257) 
-0.32

>  <r_i_glide_metal>  (257) 
-0

>  <r_i_glide_rewards>  (257) 
-1.52445

>  <r_i_glide_evdw>  (257) 
-21.7261

>  <r_i_glide_ecoul>  (257) 
-4.36223

>  <r_i_glide_erotb>  (257) 
0

>  <r_i_glide_esite>  (257) 
0

>  <r_i_glide_emodel>  (257) 
-31.4979

>  <r_i_glide_energy>  (257) 
-26.0883

>  <r_i_glide_einternal>  (257) 
0.953045

>  <r_i_glide_intrahb_reward>  (257) 
-0

>  <i_i_glide_confnum>  (257) 
2

>  <i_i_glide_posenum>  (257) 
15

>  <r_i_glide_eff_state_penalty>  (257) 
0

>  <ligand_id>  (257) 
74

>  <original_smiles>  (257) 
CC12CCC3C(CC=C4CC(O)CCC43C)C1COC2

>  <smiles>  (257) 
[H]OC1([H])C([H])([H])C2=C([H])C([H])([H])C3([H])C([H])(C([H])([H])C([H])([H])C4(C([H])([H])[H])C([H])([H])OC([H])([H])C34[H])C2(C([H])([H])[H])C([H])([H])C1([H])[H]

$$$$
74:0:1
     RDKit          3D

 48 51  0  0  1  0  0  0  0  0999 V2000
    4.1318   -3.8780   -4.3141 C   0  0  0  0  0  0  0  0  0  0  0  0
    4.3733   -3.2949   -2.9164 C   0  0  2  0  0  0  0  0  0  0  0  0
    5.3315   -4.2094   -2.1704 C   0  0  0  0  0  0  0  0  0  0  0  0
    5.3902   -4.0599   -0.6473 C   0  0  0  0  0  0  0  0  0  0  0  0
    3.9653   -4.1106   -0.0612 C   0  0  2  0  0  0  0  0  0  0  0  0
    3.1668   -2.9382   -0.6631 C   0  0  1  0  0  0  0  0  0  0  0  0
    3.6562   -1.5858   -0.0830 C   0  0  0  0  0  0  0  0  0  0  0  0
    3.8087   -1.6393    1.4237 C   0  0  0  0  0  0  0  0  0  0  0  0
    3.8774   -2.7701    2.1382 C   0  0  0  0  0  0  0  0  0  0  0  0
    3.9059   -2.7444    3.6636 C   0  0  0  0  0  0  0  0  0  0  0  0
    4.9558   -3.7026    4.2426 C   0  0  1  0  0  0  0  0  0  0  0  0
    4.8366   -3.7376    5.6481 O   0  0  0  0  0  0  0  0  0  0  0  0
    4.8339   -5.1270    3.6824 C   0  0  0  0  0  0  0  0  0  0  0  0
    4.9146   -5.0877    2.1439 C   0  0  0  0  0  0  0  0  0  0  0  0
    3.8337   -4.1746    1.5032 C   0  0  2  0  0  0  0  0  0  0  0  0
    2.4480   -4.7839    1.8124 C   0  0  0  0  0  0  0  0  0  0  0  0
    3.0678   -3.0605   -2.2093 C   0  0  1  0  0  0  0  0  0  0  0  0
    2.6367   -1.8028   -2.9215 C   0  0  0  0  0  0  0  0  0  0  0  0
    3.7701   -1.0359   -3.1833 O   0  0  0  0  0  0  0  0  0  0  0  0
    4.8925   -1.8799   -3.1029 C   0  0  0  0  0  0  0  0  0  0  0  0
    5.0554   -4.0180   -4.8880 H   0  0  0  0  0  0  0  0  0  0  0  0
    3.4828   -3.2507   -4.9332 H   0  0  0  0  0  0  0  0  0  0  0  0
    3.6377   -4.8497   -4.3320 H   0  0  0  0  0  0  0  0  0  0  0  0
    5.0252   -5.2239   -2.3785 H   0  0  0  0  0  0  0  0  0  0  0  0
    6.3127   -4.0847   -2.6181 H   0  0  0  0  0  0  0  0  0  0  0  0
    5.9833   -4.9041   -0.2965 H   0  0  0  0  0  0  0  0  0  0  0  0
    5.9234   -3.1520   -0.3739 H   0  0  0  0  0  0  0  0  0  0  0  0
    3.5338   -5.0312   -0.4605 H   0  0  0  0  0  0  0  0  0  0  0  0
    2.1276   -3.0254   -0.3680 H   0  0  0  0  0  0  0  0  0  0  0  0
    4.5991   -1.2572   -0.5015 H   0  0  0  0  0  0  0  0  0  0  0  0
    2.9469   -0.7958   -0.3104 H   0  0  0  0  0  0  0  0  0  0  0  0
    3.8011   -0.6751    1.9179 H   0  0  0  0  0  0  0  0  0  0  0  0
    4.0763   -1.7253    4.0181 H   0  0  0  0  0  0  0  0  0  0  0  0
    2.9166   -3.0235    4.0186 H   0  0  0  0  0  0  0  0  0  0  0  0
    5.9311   -3.3069    3.9847 H   0  0  0  0  0  0  0  0  0  0  0  0
    4.9826   -2.8684    5.9813 H   0  0  0  0  0  0  0  0  0  0  0  0
    5.6123   -5.7773    4.0833 H   0  0  0  0  0  0  0  0  0  0  0  0
    3.9067   -5.5841    4.0254 H   0  0  0  0  0  0  0  0  0  0  0  0
    5.9178   -4.7457    1.8833 H   0  0  0  0  0  0  0  0  0  0  0  0
    4.8262   -6.0963    1.7406 H   0  0  0  0  0  0  0  0  0  0  0  0
    2.3128   -5.7680    1.3533 H   0  0  0  0  0  0  0  0  0  0  0  0
    1.6862   -4.1084    1.4554 H   0  0  0  0  0  0  0  0  0  0  0  0
    2.2216   -4.8719    2.8721 H   0  0  0  0  0  0  0  0  0  0  0  0
    2.3601   -3.8585   -2.4372 H   0  0  0  0  0  0  0  0  0  0  0  0
    2.0858   -2.0082   -3.8479 H   0  0  0  0  0  0  0  0  0  0  0  0
    2.0277   -1.1721   -2.3234 H   0  0  0  0  0  0  0  0  0  0  0  0
    5.5824   -1.5225   -2.3349 H   0  0  0  0  0  0  0  0  0  0  0  0
    5.4125   -1.8523   -4.0384 H   0  0  0  0  0  0  0  0  0  0  0  0
  2  1  1  6
  1 21  1  0
  1 22  1  0
  1 23  1  0
  2 17  1  0
  2 20  1  0
  2  3  1  0
  3  4  1  0
  3 24  1  0
  3 25  1  0
  4  5  1  0
  4 26  1  0
  4 27  1  0
  5 15  1  0
  5  6  1  0
  5 28  1  6
  6  7  1  0
  6 17  1  0
  6 29  1  1
  7  8  1  0
  7 30  1  0
  7 31  1  0
  8  9  2  0
  8 32  1  0
  9 15  1  0
  9 10  1  0
 10 11  1  0
 10 33  1  0
 10 34  1  0
 11 12  1  0
 11 13  1  0
 11 35  1  1
 12 36  1  0
 13 14  1  0
 13 37  1  0
 13 38  1  0
 14 15  1  0
 14 39  1  0
 14 40  1  0
 15 16  1  6
 16 41  1  0
 16 42  1  0
 16 43  1  0
 17 18  1  0
 17 44  1  1
 18 19  1  0
 18 45  1  0
 18 46  1  0
 19 20  1  0
 20 47  1  0
 20 48  1  0
M  END
>  <i_m_ct_stereo_status>  (258) 
1

>  <s_m_source_file>  (258) 
/var/tmp/pbs.5076255.sched01/tmpqw5sdpkp/8220gfbieb.sdf

>  <i_m_source_file_index>  (258) 
24

>  <i_lp_mmshare_version>  (258) 
48012

>  <i_f3d_flags>  (258) 
0

>  <s_epik_input>  (258) 
W0NIMl0xT1tDSDJdW0NAQEhdKFtDQEBdMTJbQ0gzXSlbQ0BIXTNbQ0BASF0oW0NIMl1bQ0gyXTIpW0NAXTQoW0NIM10pQyg9W0NIXVtDSDJdMylbQ0gyXVtDQEBIXShbT0hdKVtDSDJdW0NIMl00

>  <s_epik_cmdline>  (258) 
J2VwaWtfcHl0aG9uJywgJy1waHQnLCAnMi4wJywgJy1waCcsICc3LjAnLCAnLXRuJywgJzgnLCAnLW1hJywgJzIwMCcsICctaW1hZScsICc8aW5maWxlLm1hZT4nLCAnLW9tYWUnLCAnPG91dGZpbGUubWFlPic=

>  <r_lp_tautomer_probability>  (258) 
1

>  <r_epik_Ionization_Penalty>  (258) 
1.21007e-06

>  <r_epik_Ionization_Penalty_Charging>  (258) 
0

>  <r_epik_Ionization_Penalty_Neutral>  (258) 
1.21007e-06

>  <r_epik_State_Penalty>  (258) 
-0

>  <r_epik_Charging_Adjusted_Penalty>  (258) 
0

>  <i_epik_Tot_Q>  (258) 
0

>  <i_epik_Tot_abs_Q>  (258) 
0

>  <s_lp_Force_Field>  (258) 
OPLS3e

>  <r_lp_Energy>  (258) 
29.7655

>  <b_lp_Chiralities_Consistent>  (258) 
1

>  <s_lp_Variant>  (258) 
74:0-1

>  <s_i_glide_gridfile>  (258) 
pfpi4k_grid

>  <i_i_glide_lignum>  (258) 
24

>  <i_i_glide_rotatable_bonds>  (258) 
1

>  <r_i_docking_score>  (258) 
-2.05674

>  <r_i_glide_ligand_efficiency>  (258) 
-0.102837

>  <r_i_glide_ligand_efficiency_sa>  (258) 
-0.279142

>  <r_i_glide_ligand_efficiency_ln>  (258) 
-0.514734

>  <r_i_glide_gscore>  (258) 
-2.05674

>  <r_i_glide_lipo>  (258) 
-0.164194

>  <r_i_glide_hbond>  (258) 
0

>  <r_i_glide_metal>  (258) 
-0

>  <r_i_glide_rewards>  (258) 
-1.52445

>  <r_i_glide_evdw>  (258) 
-6.34775

>  <r_i_glide_ecoul>  (258) 
-0.33803

>  <r_i_glide_erotb>  (258) 
0

>  <r_i_glide_esite>  (258) 
0

>  <r_i_glide_emodel>  (258) 
-9.28483

>  <r_i_glide_energy>  (258) 
-6.68578

>  <r_i_glide_einternal>  (258) 
0.31977

>  <r_i_glide_intrahb_reward>  (258) 
-0

>  <i_i_glide_confnum>  (258) 
2

>  <i_i_glide_posenum>  (258) 
34

>  <r_i_glide_eff_state_penalty>  (258) 
0

>  <ligand_id>  (258) 
74

>  <original_smiles>  (258) 
CC12CCC3C(CC=C4CC(O)CCC43C)C1COC2

>  <smiles>  (258) 
[H]OC1([H])C([H])([H])C2=C([H])C([H])([H])C3([H])C([H])(C([H])([H])C([H])([H])C4(C([H])([H])[H])C([H])([H])OC([H])([H])C34[H])C2(C([H])([H])[H])C([H])([H])C1([H])[H]

$$$$
74:0:2
     RDKit          3D

 48 51  0  0  1  0  0  0  0  0999 V2000
    4.3362   -3.9548   -4.0692 C   0  0  0  0  0  0  0  0  0  0  0  0
    4.4453   -3.3337   -2.6458 C   0  0  2  0  0  0  0  0  0  0  0  0
    5.3237   -4.2206   -1.7886 C   0  0  0  0  0  0  0  0  0  0  0  0
    5.2723   -4.0016   -0.2681 C   0  0  0  0  0  0  0  0  0  0  0  0
    3.8082   -4.0592    0.2131 C   0  0  2  0  0  0  0  0  0  0  0  0
    3.0367   -2.9174   -0.5103 C   0  0  1  0  0  0  0  0  0  0  0  0
    3.4772   -1.5387    0.0711 C   0  0  0  0  0  0  0  0  0  0  0  0
    3.5089   -1.5507    1.5927 C   0  0  0  0  0  0  0  0  0  0  0  0
    3.5286   -2.6486    2.3427 C   0  0  0  0  0  0  0  0  0  0  0  0
    3.4544   -2.5709    3.8666 C   0  0  0  0  0  0  0  0  0  0  0  0
    4.4825   -3.4792    4.5512 C   0  0  1  0  0  0  0  0  0  0  0  0
    4.2525   -3.4622    5.9470 O   0  0  0  0  0  0  0  0  0  0  0  0
    4.4140   -4.9324    4.0411 C   0  0  0  0  0  0  0  0  0  0  0  0
    4.6069   -4.9474    2.5137 C   0  0  0  0  0  0  0  0  0  0  0  0
    3.5720   -4.0792    1.7673 C   0  0  2  0  0  0  0  0  0  0  0  0
    2.1819   -4.7079    2.0009 C   0  0  0  0  0  0  0  0  0  0  0  0
    3.0594   -3.0866   -2.0513 C   0  0  1  0  0  0  0  0  0  0  0  0
    2.6743   -1.8517   -2.8454 C   0  0  0  0  0  0  0  0  0  0  0  0
    3.8702   -1.0645   -3.0424 O   0  0  0  0  0  0  0  0  0  0  0  0
    4.9931   -1.9251   -2.8382 C   0  0  0  0  0  0  0  0  0  0  0  0
    5.3064   -4.0951   -4.5434 H   0  0  0  0  0  0  0  0  0  0  0  0
    3.7378   -3.3547   -4.7688 H   0  0  0  0  0  0  0  0  0  0  0  0
    3.8602   -4.9380   -4.0910 H   0  0  0  0  0  0  0  0  0  0  0  0
    5.0215   -5.2451   -1.9603 H   0  0  0  0  0  0  0  0  0  0  0  0
    6.3381   -4.0706   -2.1470 H   0  0  0  0  0  0  0  0  0  0  0  0
    5.8614   -4.8216    0.1632 H   0  0  0  0  0  0  0  0  0  0  0  0
    5.7833   -3.0683    0.0251 H   0  0  0  0  0  0  0  0  0  0  0  0
    3.4317   -4.9948   -0.1956 H   0  0  0  0  0  0  0  0  0  0  0  0
    1.9899   -3.0341   -0.2619 H   0  0  0  0  0  0  0  0  0  0  0  0
    4.4526   -1.2067   -0.2735 H   0  0  0  0  0  0  0  0  0  0  0  0
    2.7772   -0.7643   -0.2268 H   0  0  0  0  0  0  0  0  0  0  0  0
    3.4619   -0.5626    2.0482 H   0  0  0  0  0  0  0  0  0  0  0  0
    3.5817   -1.5373    4.1950 H   0  0  0  0  0  0  0  0  0  0  0  0
    2.4435   -2.8508    4.1573 H   0  0  0  0  0  0  0  0  0  0  0  0
    5.4825   -3.0875    4.3719 H   0  0  0  0  0  0  0  0  0  0  0  0
    4.9409   -3.9290    6.3762 H   0  0  0  0  0  0  0  0  0  0  0  0
    5.1802   -5.5499    4.5196 H   0  0  0  0  0  0  0  0  0  0  0  0
    3.4585   -5.3848    4.3236 H   0  0  0  0  0  0  0  0  0  0  0  0
    5.6125   -4.5883    2.3174 H   0  0  0  0  0  0  0  0  0  0  0  0
    4.5667   -5.9683    2.1435 H   0  0  0  0  0  0  0  0  0  0  0  0
    2.0849   -5.7038    1.5492 H   0  0  0  0  0  0  0  0  0  0  0  0
    1.4269   -4.0753    1.5755 H   0  0  0  0  0  0  0  0  0  0  0  0
    1.8932   -4.7971    3.0537 H   0  0  0  0  0  0  0  0  0  0  0  0
    2.3608   -3.8974   -2.3007 H   0  0  0  0  0  0  0  0  0  0  0  0
    2.2078   -2.1345   -3.8189 H   0  0  0  0  0  0  0  0  0  0  0  0
    1.9745   -1.2102   -2.3310 H   0  0  0  0  0  0  0  0  0  0  0  0
    5.6217   -1.5244   -2.0068 H   0  0  0  0  0  0  0  0  0  0  0  0
    5.4348   -1.9052   -3.8519 H   0  0  0  0  0  0  0  0  0  0  0  0
  2  1  1  6
  1 21  1  0
  1 22  1  0
  1 23  1  0
  2 17  1  0
  2 20  1  0
  2  3  1  0
  3  4  1  0
  3 24  1  0
  3 25  1  0
  4  5  1  0
  4 26  1  0
  4 27  1  0
  5 15  1  0
  5  6  1  0
  5 28  1  6
  6  7  1  0
  6 17  1  0
  6 29  1  1
  7  8  1  0
  7 30  1  0
  7 31  1  0
  8  9  2  0
  8 32  1  0
  9 15  1  0
  9 10  1  0
 10 11  1  0
 10 33  1  0
 10 34  1  0
 11 12  1  0
 11 13  1  0
 11 35  1  1
 12 36  1  0
 13 14  1  0
 13 37  1  0
 13 38  1  0
 14 15  1  0
 14 39  1  0
 14 40  1  0
 15 16  1  6
 16 41  1  0
 16 42  1  0
 16 43  1  0
 17 18  1  0
 17 44  1  1
 18 19  1  0
 18 45  1  0
 18 46  1  0
 19 20  1  0
 20 47  1  0
 20 48  1  0
M  END
>  <i_m_ct_stereo_status>  (259) 
1

>  <s_m_source_file>  (259) 
/var/tmp/pbs.5076255.sched01/tmpqw5sdpkp/8220gfbieb.sdf

>  <i_m_source_file_index>  (259) 
24

>  <i_lp_mmshare_version>  (259) 
48012

>  <i_f3d_flags>  (259) 
0

>  <s_epik_input>  (259) 
W0NIMl0xT1tDSDJdW0NAQEhdKFtDQEBdMTJbQ0gzXSlbQ0BIXTNbQ0BASF0oW0NIMl1bQ0gyXTIpW0NAXTQoW0NIM10pQyg9W0NIXVtDSDJdMylbQ0gyXVtDQEBIXShbT0hdKVtDSDJdW0NIMl00

>  <s_epik_cmdline>  (259) 
J2VwaWtfcHl0aG9uJywgJy1waHQnLCAnMi4wJywgJy1waCcsICc3LjAnLCAnLXRuJywgJzgnLCAnLW1hJywgJzIwMCcsICctaW1hZScsICc8aW5maWxlLm1hZT4nLCAnLW9tYWUnLCAnPG91dGZpbGUubWFlPic=

>  <r_lp_tautomer_probability>  (259) 
1

>  <r_epik_Ionization_Penalty>  (259) 
1.21007e-06

>  <r_epik_Ionization_Penalty_Charging>  (259) 
0

>  <r_epik_Ionization_Penalty_Neutral>  (259) 
1.21007e-06

>  <r_epik_State_Penalty>  (259) 
-0

>  <r_epik_Charging_Adjusted_Penalty>  (259) 
0

>  <i_epik_Tot_Q>  (259) 
0

>  <i_epik_Tot_abs_Q>  (259) 
0

>  <s_lp_Force_Field>  (259) 
OPLS3e

>  <r_lp_Energy>  (259) 
29.7655

>  <b_lp_Chiralities_Consistent>  (259) 
1

>  <s_lp_Variant>  (259) 
74:0-1

>  <s_i_glide_gridfile>  (259) 
pfpi4k_grid

>  <i_i_glide_lignum>  (259) 
24

>  <i_i_glide_rotatable_bonds>  (259) 
1

>  <r_i_docking_score>  (259) 
-2.0482

>  <r_i_glide_ligand_efficiency>  (259) 
-0.10241

>  <r_i_glide_ligand_efficiency_sa>  (259) 
-0.277983

>  <r_i_glide_ligand_efficiency_ln>  (259) 
-0.512597

>  <r_i_glide_gscore>  (259) 
-2.0482

>  <r_i_glide_lipo>  (259) 
-0.106532

>  <r_i_glide_hbond>  (259) 
0

>  <r_i_glide_metal>  (259) 
-0

>  <r_i_glide_rewards>  (259) 
-1.52445

>  <r_i_glide_evdw>  (259) 
-6.7895

>  <r_i_glide_ecoul>  (259) 
-0.518273

>  <r_i_glide_erotb>  (259) 
0

>  <r_i_glide_esite>  (259) 
0

>  <r_i_glide_emodel>  (259) 
-9.8016

>  <r_i_glide_energy>  (259) 
-7.30778

>  <r_i_glide_einternal>  (259) 
0.37756

>  <r_i_glide_intrahb_reward>  (259) 
-0

>  <i_i_glide_confnum>  (259) 
2

>  <i_i_glide_posenum>  (259) 
6

>  <r_i_glide_eff_state_penalty>  (259) 
0

>  <ligand_id>  (259) 
74

>  <original_smiles>  (259) 
CC12CCC3C(CC=C4CC(O)CCC43C)C1COC2

>  <smiles>  (259) 
[H]OC1([H])C([H])([H])C2=C([H])C([H])([H])C3([H])C([H])(C([H])([H])C([H])([H])C4(C([H])([H])[H])C([H])([H])OC([H])([H])C34[H])C2(C([H])([H])[H])C([H])([H])C1([H])[H]

$$$$
75:0:0
     RDKit          3D

 54 57  0  0  1  0  0  0  0  0999 V2000
    3.8178   -0.5772   -3.1719 C   0  0  0  0  0  0  0  0  0  0  0  0
    4.2006   -1.5758   -2.3578 C   0  0  0  0  0  0  0  0  0  0  0  0
    5.2563   -1.4737   -1.2768 C   0  0  0  0  0  0  0  0  0  0  0  0
    5.3864   -2.9074   -0.6880 C   0  0  1  0  0  0  0  0  0  0  0  0
    6.8038   -3.1804   -0.1904 C   0  0  0  0  0  0  0  0  0  0  0  0
    6.9028   -4.5495    0.4771 C   0  0  0  0  0  0  0  0  0  0  0  0
    6.0534   -4.6417    1.7695 C   0  0  2  0  0  0  0  0  0  0  0  0
    6.3381   -5.9708    2.5874 C   0  0  0  0  0  0  0  0  0  0  0  0
    7.8556   -6.3079    2.6111 C   0  0  0  0  0  0  0  0  0  0  0  0
    5.9334   -5.8088    4.0791 C   0  0  0  0  0  0  0  0  0  0  0  0
    5.5899   -7.1674    1.9274 C   0  0  1  0  0  0  0  0  0  0  0  0
    5.7180   -8.3419    2.7068 O   0  0  0  0  0  0  0  0  0  0  0  0
    4.0978   -6.9013    1.6924 C   0  0  0  0  0  0  0  0  0  0  0  0
    3.8737   -5.6277    0.8661 C   0  0  0  0  0  0  0  0  0  0  0  0
    4.5307   -4.3450    1.4544 C   0  0  1  0  0  0  0  0  0  0  0  0
    3.7995   -3.9427    2.7747 C   0  0  0  0  0  0  0  0  0  0  0  0
    4.3656   -3.0970    0.4867 C   0  0  2  0  0  0  0  0  0  0  0  0
    2.9148   -2.8334   -0.0140 C   0  0  0  0  0  0  0  0  0  0  0  0
    2.6075   -3.2920   -1.4574 C   0  0  0  0  0  0  0  0  0  0  0  0
    3.7708   -3.0252   -2.4289 C   0  0  1  0  0  0  0  0  0  0  0  0
    3.4189   -3.4491   -3.7309 O   0  0  0  0  0  0  0  0  0  0  0  0
    5.0164   -3.7426   -1.9329 C   0  0  0  0  0  0  0  0  0  0  0  0
    3.0789   -0.7365   -3.9419 H   0  0  0  0  0  0  0  0  0  0  0  0
    4.2181    0.4197   -3.0470 H   0  0  0  0  0  0  0  0  0  0  0  0
    6.1820   -1.1759   -1.7654 H   0  0  0  0  0  0  0  0  0  0  0  0
    5.0065   -0.7103   -0.5368 H   0  0  0  0  0  0  0  0  0  0  0  0
    7.5108   -3.1196   -1.0180 H   0  0  0  0  0  0  0  0  0  0  0  0
    7.0956   -2.4095    0.5250 H   0  0  0  0  0  0  0  0  0  0  0  0
    6.6024   -5.3340   -0.2179 H   0  0  0  0  0  0  0  0  0  0  0  0
    7.9610   -4.7002    0.6758 H   0  0  0  0  0  0  0  0  0  0  0  0
    6.4192   -3.8178    2.3849 H   0  0  0  0  0  0  0  0  0  0  0  0
    8.0818   -7.1147    3.3108 H   0  0  0  0  0  0  0  0  0  0  0  0
    8.4574   -5.4471    2.9111 H   0  0  0  0  0  0  0  0  0  0  0  0
    8.2136   -6.6541    1.6399 H   0  0  0  0  0  0  0  0  0  0  0  0
    6.4326   -6.5368    4.7192 H   0  0  0  0  0  0  0  0  0  0  0  0
    4.8739   -5.9648    4.2537 H   0  0  0  0  0  0  0  0  0  0  0  0
    6.1985   -4.8232    4.4652 H   0  0  0  0  0  0  0  0  0  0  0  0
    6.0496   -7.3760    0.9611 H   0  0  0  0  0  0  0  0  0  0  0  0
    5.3098   -9.0604    2.2485 H   0  0  0  0  0  0  0  0  0  0  0  0
    3.6652   -7.7438    1.1524 H   0  0  0  0  0  0  0  0  0  0  0  0
    3.5587   -6.8578    2.6359 H   0  0  0  0  0  0  0  0  0  0  0  0
    4.2819   -5.8407   -0.1144 H   0  0  0  0  0  0  0  0  0  0  0  0
    2.8037   -5.4842    0.7206 H   0  0  0  0  0  0  0  0  0  0  0  0
    2.9564   -3.2740    2.6187 H   0  0  0  0  0  0  0  0  0  0  0  0
    4.4669   -3.4110    3.4557 H   0  0  0  0  0  0  0  0  0  0  0  0
    3.3844   -4.7884    3.3146 H   0  0  0  0  0  0  0  0  0  0  0  0
    4.5797   -2.2532    1.1492 H   0  0  0  0  0  0  0  0  0  0  0  0
    2.1671   -3.2657    0.6458 H   0  0  0  0  0  0  0  0  0  0  0  0
    2.7360   -1.7602    0.0355 H   0  0  0  0  0  0  0  0  0  0  0  0
    2.3574   -4.3489   -1.4384 H   0  0  0  0  0  0  0  0  0  0  0  0
    1.7121   -2.7916   -1.8285 H   0  0  0  0  0  0  0  0  0  0  0  0
    3.0392   -4.3152   -3.6370 H   0  0  0  0  0  0  0  0  0  0  0  0
    5.8039   -3.6692   -2.6897 H   0  0  0  0  0  0  0  0  0  0  0  0
    4.8495   -4.7990   -1.7673 H   0  0  0  0  0  0  0  0  0  0  0  0
  1  2  2  0
  1 23  1  0
  1 24  1  0
  2 20  1  0
  2  3  1  0
  4  3  1  6
  3 25  1  0
  3 26  1  0
  4 17  1  0
  4 22  1  0
  4  5  1  0
  5  6  1  0
  5 27  1  0
  5 28  1  0
  6  7  1  0
  6 29  1  0
  6 30  1  0
  7 15  1  0
  7  8  1  0
  7 31  1  1
  8  9  1  0
  8 10  1  0
  8 11  1  0
  9 32  1  0
  9 33  1  0
  9 34  1  0
 10 35  1  0
 10 36  1  0
 10 37  1  0
 11 12  1  0
 11 13  1  0
 11 38  1  6
 12 39  1  0
 13 14  1  0
 13 40  1  0
 13 41  1  0
 14 15  1  0
 14 42  1  0
 14 43  1  0
 15 16  1  1
 15 17  1  0
 16 44  1  0
 16 45  1  0
 16 46  1  0
 17 18  1  0
 17 47  1  1
 18 19  1  0
 18 48  1  0
 18 49  1  0
 19 20  1  0
 19 50  1  0
 19 51  1  0
 20 21  1  6
 20 22  1  0
 21 52  1  0
 22 53  1  0
 22 54  1  0
M  END
>  <i_m_ct_stereo_status>  (260) 
1

>  <s_m_source_file>  (260) 
/var/tmp/pbs.5076255.sched01/tmpqw5sdpkp/8220gfbieb.sdf

>  <i_m_source_file_index>  (260) 
25

>  <i_lp_mmshare_version>  (260) 
48012

>  <i_f3d_flags>  (260) 
0

>  <s_epik_input>  (260) 
W0NIMl09QyhbQ0gyXTEpW0NAQF0oW09IXSkoW0NIMl0yKVtDSDJdW0NIMl1bQ0BIXShbQ0BdMTIzKVtDQF00KFtDSDNdKVtDQEhdKFtDSDJdW0NIMl0zKUMoW0NIM10pKFtDSDNdKVtDQEBIXShbT0hdKVtDSDJdW0NIMl00

>  <s_epik_cmdline>  (260) 
J2VwaWtfcHl0aG9uJywgJy1waHQnLCAnMi4wJywgJy1waCcsICc3LjAnLCAnLXRuJywgJzgnLCAnLW1hJywgJzIwMCcsICctaW1hZScsICc8aW5maWxlLm1hZT4nLCAnLW9tYWUnLCAnPG91dGZpbGUubWFlPic=

>  <r_lp_tautomer_probability>  (260) 
1

>  <r_epik_Ionization_Penalty>  (260) 
3.25029e-06

>  <r_epik_Ionization_Penalty_Charging>  (260) 
0

>  <r_epik_Ionization_Penalty_Neutral>  (260) 
3.25029e-06

>  <r_epik_State_Penalty>  (260) 
-0

>  <r_epik_Charging_Adjusted_Penalty>  (260) 
0

>  <i_epik_Tot_Q>  (260) 
0

>  <i_epik_Tot_abs_Q>  (260) 
0

>  <s_lp_Force_Field>  (260) 
OPLS3e

>  <r_lp_Energy>  (260) 
65.6918

>  <b_lp_Chiralities_Consistent>  (260) 
1

>  <s_lp_Variant>  (260) 
75:0-1

>  <s_i_glide_gridfile>  (260) 
pfpi4k_grid

>  <i_i_glide_lignum>  (260) 
25

>  <i_i_glide_rotatable_bonds>  (260) 
2

>  <r_i_docking_score>  (260) 
-4.39245

>  <r_i_glide_ligand_efficiency>  (260) 
-0.199657

>  <r_i_glide_ligand_efficiency_sa>  (260) 
-0.559447

>  <r_i_glide_ligand_efficiency_ln>  (260) 
-1.07368

>  <r_i_glide_gscore>  (260) 
-4.39245

>  <r_i_glide_lipo>  (260) 
-0.756426

>  <r_i_glide_hbond>  (260) 
-0.318943

>  <r_i_glide_metal>  (260) 
-0

>  <r_i_glide_rewards>  (260) 
-1.33318

>  <r_i_glide_evdw>  (260) 
-26.9275

>  <r_i_glide_ecoul>  (260) 
-4.2502

>  <r_i_glide_erotb>  (260) 
0

>  <r_i_glide_esite>  (260) 
0

>  <r_i_glide_emodel>  (260) 
-38.8566

>  <r_i_glide_energy>  (260) 
-31.1777

>  <r_i_glide_einternal>  (260) 
0.534872

>  <r_i_glide_intrahb_reward>  (260) 
-0

>  <i_i_glide_confnum>  (260) 
2

>  <i_i_glide_posenum>  (260) 
19

>  <r_i_glide_eff_state_penalty>  (260) 
0

>  <ligand_id>  (260) 
75

>  <original_smiles>  (260) 
C=C1CC23CCC4C(C)(C)C(O)CCC4(C)C2CCC1(O)C3

>  <smiles>  (260) 
[H]OC1([H])C([H])([H])C([H])([H])C2(C([H])([H])[H])C3([H])C([H])([H])C([H])([H])C4(O[H])C(=C([H])[H])C([H])([H])C3(C([H])([H])C([H])([H])C2([H])C1(C([H])([H])[H])C([H])([H])[H])C4([H])[H]

$$$$
75:0:1
     RDKit          3D

 54 57  0  0  1  0  0  0  0  0999 V2000
    4.1158   -0.6198   -3.1433 C   0  0  0  0  0  0  0  0  0  0  0  0
    4.4198   -1.6412   -2.3290 C   0  0  0  0  0  0  0  0  0  0  0  0
    5.4865   -1.6214   -1.2527 C   0  0  0  0  0  0  0  0  0  0  0  0
    5.5001   -3.0491   -0.6518 C   0  0  1  0  0  0  0  0  0  0  0  0
    6.8966   -3.4286   -0.1601 C   0  0  0  0  0  0  0  0  0  0  0  0
    6.8957   -4.7994    0.5141 C   0  0  0  0  0  0  0  0  0  0  0  0
    6.0448   -4.8100    1.8084 C   0  0  2  0  0  0  0  0  0  0  0  0
    6.2272   -6.1477    2.6409 C   0  0  0  0  0  0  0  0  0  0  0  0
    7.7157   -6.5991    2.6692 C   0  0  0  0  0  0  0  0  0  0  0  0
    5.8383   -5.9428    4.1318 C   0  0  0  0  0  0  0  0  0  0  0  0
    5.3906   -7.2866    1.9935 C   0  0  1  0  0  0  0  0  0  0  0  0
    5.4233   -8.4573    2.7843 O   0  0  0  0  0  0  0  0  0  0  0  0
    3.9220   -6.9128    1.7567 C   0  0  0  0  0  0  0  0  0  0  0  0
    3.7931   -5.6329    0.9185 C   0  0  0  0  0  0  0  0  0  0  0  0
    4.5456   -4.3992    1.4960 C   0  0  1  0  0  0  0  0  0  0  0  0
    3.8532   -3.9297    2.8139 C   0  0  0  0  0  0  0  0  0  0  0  0
    4.4685   -3.1500    0.5188 C   0  0  2  0  0  0  0  0  0  0  0  0
    3.0364   -2.7722    0.0137 C   0  0  0  0  0  0  0  0  0  0  0  0
    2.6965   -3.2183   -1.4260 C   0  0  0  0  0  0  0  0  0  0  0  0
    3.8779   -3.0505   -2.3963 C   0  0  1  0  0  0  0  0  0  0  0  0
    3.5071   -3.4545   -3.7002 O   0  0  0  0  0  0  0  0  0  0  0  0
    5.0663   -3.8583   -1.8916 C   0  0  0  0  0  0  0  0  0  0  0  0
    3.3687   -0.7283   -3.9188 H   0  0  0  0  0  0  0  0  0  0  0  0
    4.5979    0.3428   -3.0310 H   0  0  0  0  0  0  0  0  0  0  0  0
    6.4321   -1.4479   -1.7544 H   0  0  0  0  0  0  0  0  0  0  0  0
    5.3192   -0.8284   -0.5249 H   0  0  0  0  0  0  0  0  0  0  0  0
    7.6084   -3.4248   -0.9863 H   0  0  0  0  0  0  0  0  0  0  0  0
    7.2493   -2.6808    0.5508 H   0  0  0  0  0  0  0  0  0  0  0  0
    6.5371   -5.5643   -0.1740 H   0  0  0  0  0  0  0  0  0  0  0  0
    7.9413   -5.0242    0.7138 H   0  0  0  0  0  0  0  0  0  0  0  0
    6.4773   -4.0164    2.4165 H   0  0  0  0  0  0  0  0  0  0  0  0
    7.8853   -7.4108    3.3798 H   0  0  0  0  0  0  0  0  0  0  0  0
    8.3768   -5.7786    2.9569 H   0  0  0  0  0  0  0  0  0  0  0  0
    8.0465   -6.9823    1.7005 H   0  0  0  0  0  0  0  0  0  0  0  0
    6.2768   -6.7028    4.7789 H   0  0  0  0  0  0  0  0  0  0  0  0
    4.7674   -6.0164    4.3055 H   0  0  0  0  0  0  0  0  0  0  0  0
    6.1764   -4.9774    4.5098 H   0  0  0  0  0  0  0  0  0  0  0  0
    5.8271   -7.5473    1.0301 H   0  0  0  0  0  0  0  0  0  0  0  0
    6.3115   -8.7804    2.8171 H   0  0  0  0  0  0  0  0  0  0  0  0
    3.4312   -7.7273    1.2257 H   0  0  0  0  0  0  0  0  0  0  0  0
    3.3879   -6.8210    2.6984 H   0  0  0  0  0  0  0  0  0  0  0  0
    4.1851   -5.8841   -0.0603 H   0  0  0  0  0  0  0  0  0  0  0  0
    2.7390   -5.4070    0.7703 H   0  0  0  0  0  0  0  0  0  0  0  0
    3.0637   -3.2002    2.6515 H   0  0  0  0  0  0  0  0  0  0  0  0
    4.5600   -3.4467    3.4885 H   0  0  0  0  0  0  0  0  0  0  0  0
    3.3744   -4.7374    3.3600 H   0  0  0  0  0  0  0  0  0  0  0  0
    4.7521   -2.3210    1.1728 H   0  0  0  0  0  0  0  0  0  0  0  0
    2.2528   -3.1337    0.6756 H   0  0  0  0  0  0  0  0  0  0  0  0
    2.9501   -1.6874    0.0504 H   0  0  0  0  0  0  0  0  0  0  0  0
    2.3824   -4.2565   -1.4107 H   0  0  0  0  0  0  0  0  0  0  0  0
    1.8376   -2.6614   -1.7976 H   0  0  0  0  0  0  0  0  0  0  0  0
    3.0940   -4.3032   -3.6072 H   0  0  0  0  0  0  0  0  0  0  0  0
    5.8559   -3.8500   -2.6491 H   0  0  0  0  0  0  0  0  0  0  0  0
    4.8236   -4.8983   -1.7215 H   0  0  0  0  0  0  0  0  0  0  0  0
  1  2  2  0
  1 23  1  0
  1 24  1  0
  2 20  1  0
  2  3  1  0
  4  3  1  6
  3 25  1  0
  3 26  1  0
  4 17  1  0
  4 22  1  0
  4  5  1  0
  5  6  1  0
  5 27  1  0
  5 28  1  0
  6  7  1  0
  6 29  1  0
  6 30  1  0
  7 15  1  0
  7  8  1  0
  7 31  1  1
  8  9  1  0
  8 10  1  0
  8 11  1  0
  9 32  1  0
  9 33  1  0
  9 34  1  0
 10 35  1  0
 10 36  1  0
 10 37  1  0
 11 12  1  0
 11 13  1  0
 11 38  1  6
 12 39  1  0
 13 14  1  0
 13 40  1  0
 13 41  1  0
 14 15  1  0
 14 42  1  0
 14 43  1  0
 15 16  1  1
 15 17  1  0
 16 44  1  0
 16 45  1  0
 16 46  1  0
 17 18  1  0
 17 47  1  1
 18 19  1  0
 18 48  1  0
 18 49  1  0
 19 20  1  0
 19 50  1  0
 19 51  1  0
 20 21  1  6
 20 22  1  0
 21 52  1  0
 22 53  1  0
 22 54  1  0
M  END
>  <i_m_ct_stereo_status>  (261) 
1

>  <s_m_source_file>  (261) 
/var/tmp/pbs.5076255.sched01/tmpqw5sdpkp/8220gfbieb.sdf

>  <i_m_source_file_index>  (261) 
25

>  <i_lp_mmshare_version>  (261) 
48012

>  <i_f3d_flags>  (261) 
0

>  <s_epik_input>  (261) 
W0NIMl09QyhbQ0gyXTEpW0NAQF0oW09IXSkoW0NIMl0yKVtDSDJdW0NIMl1bQ0BIXShbQ0BdMTIzKVtDQF00KFtDSDNdKVtDQEhdKFtDSDJdW0NIMl0zKUMoW0NIM10pKFtDSDNdKVtDQEBIXShbT0hdKVtDSDJdW0NIMl00

>  <s_epik_cmdline>  (261) 
J2VwaWtfcHl0aG9uJywgJy1waHQnLCAnMi4wJywgJy1waCcsICc3LjAnLCAnLXRuJywgJzgnLCAnLW1hJywgJzIwMCcsICctaW1hZScsICc8aW5maWxlLm1hZT4nLCAnLW9tYWUnLCAnPG91dGZpbGUubWFlPic=

>  <r_lp_tautomer_probability>  (261) 
1

>  <r_epik_Ionization_Penalty>  (261) 
3.25029e-06

>  <r_epik_Ionization_Penalty_Charging>  (261) 
0

>  <r_epik_Ionization_Penalty_Neutral>  (261) 
3.25029e-06

>  <r_epik_State_Penalty>  (261) 
-0

>  <r_epik_Charging_Adjusted_Penalty>  (261) 
0

>  <i_epik_Tot_Q>  (261) 
0

>  <i_epik_Tot_abs_Q>  (261) 
0

>  <s_lp_Force_Field>  (261) 
OPLS3e

>  <r_lp_Energy>  (261) 
65.6918

>  <b_lp_Chiralities_Consistent>  (261) 
1

>  <s_lp_Variant>  (261) 
75:0-1

>  <s_i_glide_gridfile>  (261) 
pfpi4k_grid

>  <i_i_glide_lignum>  (261) 
25

>  <i_i_glide_rotatable_bonds>  (261) 
2

>  <r_i_docking_score>  (261) 
-4.31724

>  <r_i_glide_ligand_efficiency>  (261) 
-0.196238

>  <r_i_glide_ligand_efficiency_sa>  (261) 
-0.549867

>  <r_i_glide_ligand_efficiency_ln>  (261) 
-1.05529

>  <r_i_glide_gscore>  (261) 
-4.31724

>  <r_i_glide_lipo>  (261) 
-0.765279

>  <r_i_glide_hbond>  (261) 
-0.319008

>  <r_i_glide_metal>  (261) 
-0

>  <r_i_glide_rewards>  (261) 
-1.33318

>  <r_i_glide_evdw>  (261) 
-26.9185

>  <r_i_glide_ecoul>  (261) 
-3.69231

>  <r_i_glide_erotb>  (261) 
0

>  <r_i_glide_esite>  (261) 
0

>  <r_i_glide_emodel>  (261) 
-38.1683

>  <r_i_glide_energy>  (261) 
-30.6108

>  <r_i_glide_einternal>  (261) 
0.51527

>  <r_i_glide_intrahb_reward>  (261) 
-0

>  <i_i_glide_confnum>  (261) 
1

>  <i_i_glide_posenum>  (261) 
38

>  <r_i_glide_eff_state_penalty>  (261) 
0

>  <ligand_id>  (261) 
75

>  <original_smiles>  (261) 
C=C1CC23CCC4C(C)(C)C(O)CCC4(C)C2CCC1(O)C3

>  <smiles>  (261) 
[H]OC1([H])C([H])([H])C([H])([H])C2(C([H])([H])[H])C3([H])C([H])([H])C([H])([H])C4(O[H])C(=C([H])[H])C([H])([H])C3(C([H])([H])C([H])([H])C2([H])C1(C([H])([H])[H])C([H])([H])[H])C4([H])[H]

$$$$
75:0:2
     RDKit          3D

 54 57  0  0  1  0  0  0  0  0999 V2000
    3.8257   -0.3756   -3.1980 C   0  0  0  0  0  0  0  0  0  0  0  0
    4.2093   -1.3807   -2.3916 C   0  0  0  0  0  0  0  0  0  0  0  0
    5.2400   -1.2804   -1.2872 C   0  0  0  0  0  0  0  0  0  0  0  0
    5.4059   -2.7227   -0.7380 C   0  0  1  0  0  0  0  0  0  0  0  0
    6.8211   -2.9536   -0.2036 C   0  0  0  0  0  0  0  0  0  0  0  0
    6.9521   -4.3316    0.4370 C   0  0  0  0  0  0  0  0  0  0  0  0
    6.0704   -4.4845    1.7028 C   0  0  2  0  0  0  0  0  0  0  0  0
    6.3786   -5.8171    2.5046 C   0  0  0  0  0  0  0  0  0  0  0  0
    7.9052   -6.1069    2.5611 C   0  0  0  0  0  0  0  0  0  0  0  0
    5.9242   -5.7042    3.9857 C   0  0  0  0  0  0  0  0  0  0  0  0
    5.6903   -7.0225    1.8059 C   0  0  1  0  0  0  0  0  0  0  0  0
    5.8369   -8.2055    2.5639 O   0  0  0  0  0  0  0  0  0  0  0  0
    4.1990   -6.8073    1.5236 C   0  0  0  0  0  0  0  0  0  0  0  0
    3.9542   -5.5254    0.7172 C   0  0  0  0  0  0  0  0  0  0  0  0
    4.5474   -4.2355    1.3516 C   0  0  1  0  0  0  0  0  0  0  0  0
    3.7641   -3.8873    2.6583 C   0  0  0  0  0  0  0  0  0  0  0  0
    4.3672   -2.9742    0.4060 C   0  0  2  0  0  0  0  0  0  0  0  0
    2.9247   -2.7498   -0.1274 C   0  0  0  0  0  0  0  0  0  0  0  0
    2.6669   -3.1846   -1.5892 C   0  0  0  0  0  0  0  0  0  0  0  0
    3.8351   -2.8351   -2.5299 C   0  0  1  0  0  0  0  0  0  0  0  0
    3.5230   -3.1806   -3.8680 O   0  0  0  0  0  0  0  0  0  0  0  0
    5.0941   -3.5299   -2.0205 C   0  0  0  0  0  0  0  0  0  0  0  0
    3.1181   -0.5406   -3.9999 H   0  0  0  0  0  0  0  0  0  0  0  0
    4.2007    0.6265   -3.0513 H   0  0  0  0  0  0  0  0  0  0  0  0
    6.1692   -0.9611   -1.7491 H   0  0  0  0  0  0  0  0  0  0  0  0
    4.9575   -0.5399   -0.5360 H   0  0  0  0  0  0  0  0  0  0  0  0
    7.5513   -2.8464   -1.0060 H   0  0  0  0  0  0  0  0  0  0  0  0
    7.0637   -2.1904    0.5388 H   0  0  0  0  0  0  0  0  0  0  0  0
    6.6968   -5.1030   -0.2888 H   0  0  0  0  0  0  0  0  0  0  0  0
    8.0099   -4.4479    0.6633 H   0  0  0  0  0  0  0  0  0  0  0  0
    6.3859   -3.6605    2.3442 H   0  0  0  0  0  0  0  0  0  0  0  0
    8.1457   -6.9165    3.2530 H   0  0  0  0  0  0  0  0  0  0  0  0
    8.4717   -5.2318    2.8872 H   0  0  0  0  0  0  0  0  0  0  0  0
    8.3008   -6.4189    1.5936 H   0  0  0  0  0  0  0  0  0  0  0  0
    6.4278   -6.4297    4.6261 H   0  0  0  0  0  0  0  0  0  0  0  0
    4.8658   -5.9030    4.1219 H   0  0  0  0  0  0  0  0  0  0  0  0
    6.1388   -4.7182    4.4019 H   0  0  0  0  0  0  0  0  0  0  0  0
    6.1914   -7.2026    0.8595 H   0  0  0  0  0  0  0  0  0  0  0  0
    6.7590   -8.3983    2.6496 H   0  0  0  0  0  0  0  0  0  0  0  0
    3.8200   -7.6552    0.9526 H   0  0  0  0  0  0  0  0  0  0  0  0
    3.6264   -6.8064    2.4484 H   0  0  0  0  0  0  0  0  0  0  0  0
    4.3975   -5.6991   -0.2562 H   0  0  0  0  0  0  0  0  0  0  0  0
    2.8847   -5.4152    0.5425 H   0  0  0  0  0  0  0  0  0  0  0  0
    2.9025   -3.2443    2.4927 H   0  0  0  0  0  0  0  0  0  0  0  0
    4.3905   -3.3490    3.3711 H   0  0  0  0  0  0  0  0  0  0  0  0
    3.3621   -4.7584    3.1659 H   0  0  0  0  0  0  0  0  0  0  0  0
    4.5301   -2.1389    1.0915 H   0  0  0  0  0  0  0  0  0  0  0  0
    2.1739   -3.2205    0.4996 H   0  0  0  0  0  0  0  0  0  0  0  0
    2.7102   -1.6839   -0.0572 H   0  0  0  0  0  0  0  0  0  0  0  0
    2.4727   -4.2508   -1.6076 H   0  0  0  0  0  0  0  0  0  0  0  0
    1.7563   -2.7056   -1.9507 H   0  0  0  0  0  0  0  0  0  0  0  0
    2.5852   -3.2929   -3.9140 H   0  0  0  0  0  0  0  0  0  0  0  0
    5.9043   -3.4145   -2.7436 H   0  0  0  0  0  0  0  0  0  0  0  0
    4.9588   -4.5991   -1.8865 H   0  0  0  0  0  0  0  0  0  0  0  0
  1  2  2  0
  1 23  1  0
  1 24  1  0
  2 20  1  0
  2  3  1  0
  4  3  1  6
  3 25  1  0
  3 26  1  0
  4 17  1  0
  4 22  1  0
  4  5  1  0
  5  6  1  0
  5 27  1  0
  5 28  1  0
  6  7  1  0
  6 29  1  0
  6 30  1  0
  7 15  1  0
  7  8  1  0
  7 31  1  1
  8  9  1  0
  8 10  1  0
  8 11  1  0
  9 32  1  0
  9 33  1  0
  9 34  1  0
 10 35  1  0
 10 36  1  0
 10 37  1  0
 11 12  1  0
 11 13  1  0
 11 38  1  6
 12 39  1  0
 13 14  1  0
 13 40  1  0
 13 41  1  0
 14 15  1  0
 14 42  1  0
 14 43  1  0
 15 16  1  1
 15 17  1  0
 16 44  1  0
 16 45  1  0
 16 46  1  0
 17 18  1  0
 17 47  1  1
 18 19  1  0
 18 48  1  0
 18 49  1  0
 19 20  1  0
 19 50  1  0
 19 51  1  0
 20 21  1  6
 20 22  1  0
 21 52  1  0
 22 53  1  0
 22 54  1  0
M  END
>  <i_m_ct_stereo_status>  (262) 
1

>  <s_m_source_file>  (262) 
/var/tmp/pbs.5076255.sched01/tmpqw5sdpkp/8220gfbieb.sdf

>  <i_m_source_file_index>  (262) 
25

>  <i_lp_mmshare_version>  (262) 
48012

>  <i_f3d_flags>  (262) 
0

>  <s_epik_input>  (262) 
W0NIMl09QyhbQ0gyXTEpW0NAQF0oW09IXSkoW0NIMl0yKVtDSDJdW0NIMl1bQ0BIXShbQ0BdMTIzKVtDQF00KFtDSDNdKVtDQEhdKFtDSDJdW0NIMl0zKUMoW0NIM10pKFtDSDNdKVtDQEBIXShbT0hdKVtDSDJdW0NIMl00

>  <s_epik_cmdline>  (262) 
J2VwaWtfcHl0aG9uJywgJy1waHQnLCAnMi4wJywgJy1waCcsICc3LjAnLCAnLXRuJywgJzgnLCAnLW1hJywgJzIwMCcsICctaW1hZScsICc8aW5maWxlLm1hZT4nLCAnLW9tYWUnLCAnPG91dGZpbGUubWFlPic=

>  <r_lp_tautomer_probability>  (262) 
1

>  <r_epik_Ionization_Penalty>  (262) 
3.25029e-06

>  <r_epik_Ionization_Penalty_Charging>  (262) 
0

>  <r_epik_Ionization_Penalty_Neutral>  (262) 
3.25029e-06

>  <r_epik_State_Penalty>  (262) 
-0

>  <r_epik_Charging_Adjusted_Penalty>  (262) 
0

>  <i_epik_Tot_Q>  (262) 
0

>  <i_epik_Tot_abs_Q>  (262) 
0

>  <s_lp_Force_Field>  (262) 
OPLS3e

>  <r_lp_Energy>  (262) 
65.6918

>  <b_lp_Chiralities_Consistent>  (262) 
1

>  <s_lp_Variant>  (262) 
75:0-1

>  <s_i_glide_gridfile>  (262) 
pfpi4k_grid

>  <i_i_glide_lignum>  (262) 
25

>  <i_i_glide_rotatable_bonds>  (262) 
2

>  <r_i_docking_score>  (262) 
-3.94338

>  <r_i_glide_ligand_efficiency>  (262) 
-0.179244

>  <r_i_glide_ligand_efficiency_sa>  (262) 
-0.50225

>  <r_i_glide_ligand_efficiency_ln>  (262) 
-0.963905

>  <r_i_glide_gscore>  (262) 
-3.94338

>  <r_i_glide_lipo>  (262) 
-0.836098

>  <r_i_glide_hbond>  (262) 
0

>  <r_i_glide_metal>  (262) 
-0

>  <r_i_glide_rewards>  (262) 
-1.33318

>  <r_i_glide_evdw>  (262) 
-27.2013

>  <r_i_glide_ecoul>  (262) 
-2.76021

>  <r_i_glide_erotb>  (262) 
0

>  <r_i_glide_esite>  (262) 
0

>  <r_i_glide_emodel>  (262) 
-36.6129

>  <r_i_glide_energy>  (262) 
-29.9615

>  <r_i_glide_einternal>  (262) 
0.806192

>  <r_i_glide_intrahb_reward>  (262) 
-0

>  <i_i_glide_confnum>  (262) 
2

>  <i_i_glide_posenum>  (262) 
37

>  <r_i_glide_eff_state_penalty>  (262) 
0

>  <ligand_id>  (262) 
75

>  <original_smiles>  (262) 
C=C1CC23CCC4C(C)(C)C(O)CCC4(C)C2CCC1(O)C3

>  <smiles>  (262) 
[H]OC1([H])C([H])([H])C([H])([H])C2(C([H])([H])[H])C3([H])C([H])([H])C([H])([H])C4(O[H])C(=C([H])[H])C([H])([H])C3(C([H])([H])C([H])([H])C2([H])C1(C([H])([H])[H])C([H])([H])[H])C4([H])[H]

$$$$
76:0:0
     RDKit          3D

 30 33  0  0  1  0  0  0  0  0999 V2000
    0.6691   -5.9314    1.5518 O   0  0  0  0  0  0  0  0  0  0  0  0
    1.2001   -6.9684    1.9327 C   0  0  0  0  0  0  0  0  0  0  0  0
    0.3285   -8.0676    2.3762 C   0  0  0  0  0  0  0  0  0  0  0  0
   -0.9998   -8.1137    2.4520 N   0  0  0  0  0  0  0  0  0  0  0  0
   -1.2617   -9.4149    2.8802 C   0  0  0  0  0  0  0  0  0  0  0  0
   -0.0780  -10.0880    3.1011 C   0  0  0  0  0  0  0  0  0  0  0  0
    0.9132   -9.1955    2.7459 N   0  0  0  0  0  0  0  0  0  0  0  0
    2.2773   -9.4690    2.8140 C   0  0  0  0  0  0  0  0  0  0  0  0
    3.1036   -8.4390    2.4705 C   0  0  0  0  0  0  0  0  0  0  0  0
    4.5426   -8.6112    2.5838 C   0  0  0  0  0  0  0  0  0  0  0  0
    5.2041   -9.7324    2.1450 C   0  0  0  0  0  0  0  0  0  0  0  0
    6.6138   -9.6428    2.3441 C   0  0  0  0  0  0  0  0  0  0  0  0
    7.0086   -8.4606    2.9268 C   0  0  0  0  0  0  0  0  0  0  0  0
    5.6351   -7.4756    3.3538 S   0  0  0  0  0  0  0  0  0  0  0  0
    2.5453   -7.2051    1.9712 N   0  0  0  0  0  0  0  0  0  0  0  0
    3.3978   -6.1587    1.4989 C   0  0  0  0  0  0  0  0  0  0  0  0
    4.2976   -6.4394    0.4437 C   0  0  0  0  0  0  0  0  0  0  0  0
    5.1495   -5.5125   -0.0524 N   0  0  0  0  0  0  0  0  0  0  0  0
    5.0867   -4.2810    0.4916 C   0  0  0  0  0  0  0  0  0  0  0  0
    4.1868   -3.9784    1.5300 C   0  0  0  0  0  0  0  0  0  0  0  0
    3.3553   -4.9143    2.0415 N   0  0  0  0  0  0  0  0  0  0  0  0
   -2.2730   -9.7509    3.0340 H   0  0  0  0  0  0  0  0  0  0  0  0
    0.1306  -11.0791    3.4683 H   0  0  0  0  0  0  0  0  0  0  0  0
    2.5214  -10.4465    3.1866 H   0  0  0  0  0  0  0  0  0  0  0  0
    4.7433  -10.5946    1.6832 H   0  0  0  0  0  0  0  0  0  0  0  0
    7.2812  -10.4416    2.0578 H   0  0  0  0  0  0  0  0  0  0  0  0
    8.0101   -8.1246    3.1647 H   0  0  0  0  0  0  0  0  0  0  0  0
    4.3567   -7.4266    0.0181 H   0  0  0  0  0  0  0  0  0  0  0  0
    5.7540   -3.5396    0.0803 H   0  0  0  0  0  0  0  0  0  0  0  0
    4.1253   -2.9865    1.9531 H   0  0  0  0  0  0  0  0  0  0  0  0
  1  2  2  0
  2 15  1  0
  2  3  1  0
  3  7  1  0
  3  4  2  0
  4  5  1  0
  5  6  2  0
  5 22  1  0
  6  7  1  0
  6 23  1  0
  7  8  1  0
  8  9  2  0
  8 24  1  0
  9 10  1  0
  9 15  1  0
 10 14  1  0
 10 11  2  0
 11 12  1  0
 11 25  1  0
 12 13  2  0
 12 26  1  0
 13 14  1  0
 13 27  1  0
 15 16  1  0
 16 21  1  0
 16 17  2  0
 17 18  1  0
 17 28  1  0
 18 19  2  0
 19 20  1  0
 19 29  1  0
 20 21  2  0
 20 30  1  0
M  END
>  <i_m_ct_stereo_status>  (263) 
1

>  <s_m_source_file>  (263) 
/var/tmp/pbs.5076255.sched01/tmpqw5sdpkp/8220gfbieb.sdf

>  <i_m_source_file_index>  (263) 
26

>  <i_lp_mmshare_version>  (263) 
48012

>  <i_f3d_flags>  (263) 
0

>  <s_epik_input>  (263) 
bjFbY0hdW2NIXW5bY0hdYzEtbihjMj1PKWMoW2NIXW4oYzIzKVtjSF1bY0hdbjMpLWM0W2NIXVtjSF1bY0hdczQ=

>  <s_epik_cmdline>  (263) 
J2VwaWtfcHl0aG9uJywgJy1waHQnLCAnMi4wJywgJy1waCcsICc3LjAnLCAnLXRuJywgJzgnLCAnLW1hJywgJzIwMCcsICctaW1hZScsICc8aW5maWxlLm1hZT4nLCAnLW9tYWUnLCAnPG91dGZpbGUubWFlPic=

>  <r_epik_Ionization_Penalty>  (263) 
0.00653855

>  <r_epik_Ionization_Penalty_Charging>  (263) 
0.00653832

>  <r_epik_Ionization_Penalty_Neutral>  (263) 
2.28713e-07

>  <r_epik_State_Penalty>  (263) 
0.00484127

>  <r_epik_Charging_Adjusted_Penalty>  (263) 
0.0113796

>  <i_epik_Tot_Q>  (263) 
0

>  <i_epik_Tot_abs_Q>  (263) 
0

>  <s_lp_Force_Field>  (263) 
OPLS3e

>  <r_lp_Energy>  (263) 
58.3373

>  <b_lp_Chiralities_Consistent>  (263) 
1

>  <s_lp_Variant>  (263) 
76:0-1

>  <s_i_glide_gridfile>  (263) 
pfpi4k_grid

>  <i_i_glide_lignum>  (263) 
26

>  <i_i_glide_rotatable_bonds>  (263) 
2

>  <r_i_docking_score>  (263) 
-3.31414

>  <r_i_glide_ligand_efficiency>  (263) 
-0.157816

>  <r_i_glide_ligand_efficiency_sa>  (263) 
-0.435403

>  <r_i_glide_ligand_efficiency_ln>  (263) 
-0.819415

>  <r_i_glide_gscore>  (263) 
-3.31414

>  <r_i_glide_lipo>  (263) 
-0.28023

>  <r_i_glide_hbond>  (263) 
-0.162378

>  <r_i_glide_metal>  (263) 
-0

>  <r_i_glide_rewards>  (263) 
-1.45288

>  <r_i_glide_evdw>  (263) 
-21.819

>  <r_i_glide_ecoul>  (263) 
-4.64756

>  <r_i_glide_erotb>  (263) 
0.419715

>  <r_i_glide_esite>  (263) 
-0.0502917

>  <r_i_glide_emodel>  (263) 
-32.8714

>  <r_i_glide_energy>  (263) 
-26.4665

>  <r_i_glide_einternal>  (263) 
0.717233

>  <r_i_glide_intrahb_reward>  (263) 
-0

>  <i_i_glide_confnum>  (263) 
2

>  <i_i_glide_posenum>  (263) 
2

>  <r_i_glide_eff_state_penalty>  (263) 
0

>  <ligand_id>  (263) 
76

>  <original_smiles>  (263) 
O=c1c2nccn2cc(-c2cccs2)n1-c1cnccn1

>  <smiles>  (263) 
[H]c1nc([H])c(-n2c(-c3sc([H])c([H])c3[H])c([H])n3c([H])c([H])nc3c2=O)nc1[H]

$$$$
76:0:1
     RDKit          3D

 30 33  0  0  1  0  0  0  0  0999 V2000
    2.4230   -6.4750    1.5566 O   0  0  0  0  0  0  0  0  0  0  0  0
    2.1232   -7.5375    2.1132 C   0  0  0  0  0  0  0  0  0  0  0  0
    0.6892   -7.8139    2.3558 C   0  0  0  0  0  0  0  0  0  0  0  0
   -0.3834   -7.0633    2.0942 N   0  0  0  0  0  0  0  0  0  0  0  0
   -1.4554   -7.8590    2.5093 C   0  0  0  0  0  0  0  0  0  0  0  0
   -0.9862   -9.0388    3.0350 C   0  0  0  0  0  0  0  0  0  0  0  0
    0.3871   -8.9693    2.9078 N   0  0  0  0  0  0  0  0  0  0  0  0
    1.2589   -9.9659    3.3483 C   0  0  0  0  0  0  0  0  0  0  0  0
    2.5821   -9.7031    3.1924 C   0  0  0  0  0  0  0  0  0  0  0  0
    3.5568  -10.6447    3.7002 C   0  0  0  0  0  0  0  0  0  0  0  0
    3.6035  -11.9538    3.2998 C   0  0  0  0  0  0  0  0  0  0  0  0
    4.6838  -12.6647    3.9189 C   0  0  0  0  0  0  0  0  0  0  0  0
    5.4266  -11.8866    4.7692 C   0  0  0  0  0  0  0  0  0  0  0  0
    4.8063  -10.2611    4.8606 S   0  0  0  0  0  0  0  0  0  0  0  0
    3.0105   -8.4997    2.5196 N   0  0  0  0  0  0  0  0  0  0  0  0
    4.4010   -8.2627    2.2766 C   0  0  0  0  0  0  0  0  0  0  0  0
    5.1447   -9.2275    1.5447 C   0  0  0  0  0  0  0  0  0  0  0  0
    6.4598   -9.0843    1.2655 N   0  0  0  0  0  0  0  0  0  0  0  0
    7.0445   -7.9434    1.6808 C   0  0  0  0  0  0  0  0  0  0  0  0
    6.3226   -6.9661    2.4047 C   0  0  0  0  0  0  0  0  0  0  0  0
    5.0220   -7.1378    2.7175 N   0  0  0  0  0  0  0  0  0  0  0  0
   -2.4750   -7.5234    2.4109 H   0  0  0  0  0  0  0  0  0  0  0  0
   -1.4896   -9.8661    3.4745 H   0  0  0  0  0  0  0  0  0  0  0  0
    0.7857  -10.8066    3.8302 H   0  0  0  0  0  0  0  0  0  0  0  0
    2.9457  -12.4299    2.5842 H   0  0  0  0  0  0  0  0  0  0  0  0
    4.8654  -13.7090    3.7116 H   0  0  0  0  0  0  0  0  0  0  0  0
    6.2871  -12.1686    5.3571 H   0  0  0  0  0  0  0  0  0  0  0  0
    4.6707  -10.1302    1.1979 H   0  0  0  0  0  0  0  0  0  0  0  0
    8.0827   -7.8062    1.4278 H   0  0  0  0  0  0  0  0  0  0  0  0
    6.7825   -6.0420    2.7207 H   0  0  0  0  0  0  0  0  0  0  0  0
  1  2  2  0
  2 15  1  0
  2  3  1  0
  3  7  1  0
  3  4  2  0
  4  5  1  0
  5  6  2  0
  5 22  1  0
  6  7  1  0
  6 23  1  0
  7  8  1  0
  8  9  2  0
  8 24  1  0
  9 10  1  0
  9 15  1  0
 10 14  1  0
 10 11  2  0
 11 12  1  0
 11 25  1  0
 12 13  2  0
 12 26  1  0
 13 14  1  0
 13 27  1  0
 15 16  1  0
 16 21  1  0
 16 17  2  0
 17 18  1  0
 17 28  1  0
 18 19  2  0
 19 20  1  0
 19 29  1  0
 20 21  2  0
 20 30  1  0
M  END
>  <i_m_ct_stereo_status>  (264) 
1

>  <s_m_source_file>  (264) 
/var/tmp/pbs.5076255.sched01/tmpqw5sdpkp/8220gfbieb.sdf

>  <i_m_source_file_index>  (264) 
26

>  <i_lp_mmshare_version>  (264) 
48012

>  <i_f3d_flags>  (264) 
0

>  <s_epik_input>  (264) 
bjFbY0hdW2NIXW5bY0hdYzEtbihjMj1PKWMoW2NIXW4oYzIzKVtjSF1bY0hdbjMpLWM0W2NIXVtjSF1bY0hdczQ=

>  <s_epik_cmdline>  (264) 
J2VwaWtfcHl0aG9uJywgJy1waHQnLCAnMi4wJywgJy1waCcsICc3LjAnLCAnLXRuJywgJzgnLCAnLW1hJywgJzIwMCcsICctaW1hZScsICc8aW5maWxlLm1hZT4nLCAnLW9tYWUnLCAnPG91dGZpbGUubWFlPic=

>  <r_epik_Ionization_Penalty>  (264) 
0.00653855

>  <r_epik_Ionization_Penalty_Charging>  (264) 
0.00653832

>  <r_epik_Ionization_Penalty_Neutral>  (264) 
2.28713e-07

>  <r_epik_State_Penalty>  (264) 
0.00484127

>  <r_epik_Charging_Adjusted_Penalty>  (264) 
0.0113796

>  <i_epik_Tot_Q>  (264) 
0

>  <i_epik_Tot_abs_Q>  (264) 
0

>  <s_lp_Force_Field>  (264) 
OPLS3e

>  <r_lp_Energy>  (264) 
58.3373

>  <b_lp_Chiralities_Consistent>  (264) 
1

>  <s_lp_Variant>  (264) 
76:0-1

>  <s_i_glide_gridfile>  (264) 
pfpi4k_grid

>  <i_i_glide_lignum>  (264) 
26

>  <i_i_glide_rotatable_bonds>  (264) 
2

>  <r_i_docking_score>  (264) 
-3.31341

>  <r_i_glide_ligand_efficiency>  (264) 
-0.157782

>  <r_i_glide_ligand_efficiency_sa>  (264) 
-0.435307

>  <r_i_glide_ligand_efficiency_ln>  (264) 
-0.819235

>  <r_i_glide_gscore>  (264) 
-3.31341

>  <r_i_glide_lipo>  (264) 
-0.206914

>  <r_i_glide_hbond>  (264) 
-0.0979703

>  <r_i_glide_metal>  (264) 
-0

>  <r_i_glide_rewards>  (264) 
-1.39554

>  <r_i_glide_evdw>  (264) 
-26.2184

>  <r_i_glide_ecoul>  (264) 
-4.28262

>  <r_i_glide_erotb>  (264) 
0.419715

>  <r_i_glide_esite>  (264) 
-0.0793865

>  <r_i_glide_emodel>  (264) 
-37.0409

>  <r_i_glide_energy>  (264) 
-30.501

>  <r_i_glide_einternal>  (264) 
0.696236

>  <r_i_glide_intrahb_reward>  (264) 
-0

>  <i_i_glide_confnum>  (264) 
5

>  <i_i_glide_posenum>  (264) 
16

>  <r_i_glide_eff_state_penalty>  (264) 
0

>  <ligand_id>  (264) 
76

>  <original_smiles>  (264) 
O=c1c2nccn2cc(-c2cccs2)n1-c1cnccn1

>  <smiles>  (264) 
[H]c1nc([H])c(-n2c(-c3sc([H])c([H])c3[H])c([H])n3c([H])c([H])nc3c2=O)nc1[H]

$$$$
76:0:2
     RDKit          3D

 30 33  0  0  1  0  0  0  0  0999 V2000
    1.4081   -5.8846    0.8005 O   0  0  0  0  0  0  0  0  0  0  0  0
    2.3878   -6.4793    1.2800 C   0  0  0  0  0  0  0  0  0  0  0  0
    3.7493   -6.0372    0.8932 C   0  0  0  0  0  0  0  0  0  0  0  0
    4.1420   -5.0110    0.1435 N   0  0  0  0  0  0  0  0  0  0  0  0
    5.5386   -5.0796    0.1442 C   0  0  0  0  0  0  0  0  0  0  0  0
    5.9510   -6.1406    0.9280 C   0  0  0  0  0  0  0  0  0  0  0  0
    4.7749   -6.7241    1.3648 N   0  0  0  0  0  0  0  0  0  0  0  0
    4.7346   -7.8388    2.1965 C   0  0  0  0  0  0  0  0  0  0  0  0
    3.4988   -8.2413    2.5929 C   0  0  0  0  0  0  0  0  0  0  0  0
    3.3846   -9.3626    3.4935 C   0  0  0  0  0  0  0  0  0  0  0  0
    3.7068  -10.6457    3.1276 C   0  0  0  0  0  0  0  0  0  0  0  0
    3.4346  -11.5890    4.1674 C   0  0  0  0  0  0  0  0  0  0  0  0
    2.9198  -11.0030    5.2910 C   0  0  0  0  0  0  0  0  0  0  0  0
    2.7667   -9.2768    5.1233 S   0  0  0  0  0  0  0  0  0  0  0  0
    2.3183   -7.5599    2.1215 N   0  0  0  0  0  0  0  0  0  0  0  0
    1.0252   -7.9191    2.6167 C   0  0  0  0  0  0  0  0  0  0  0  0
    0.5716   -9.2564    2.4748 C   0  0  0  0  0  0  0  0  0  0  0  0
   -0.6407   -9.6630    2.8970 N   0  0  0  0  0  0  0  0  0  0  0  0
   -1.4102   -8.7394    3.5056 C   0  0  0  0  0  0  0  0  0  0  0  0
   -0.9849   -7.4078    3.6551 C   0  0  0  0  0  0  0  0  0  0  0  0
    0.2181   -6.9989    3.2102 N   0  0  0  0  0  0  0  0  0  0  0  0
    6.1264   -4.3698   -0.4190 H   0  0  0  0  0  0  0  0  0  0  0  0
    6.9268   -6.5127    1.1883 H   0  0  0  0  0  0  0  0  0  0  0  0
    5.6924   -8.2372    2.4857 H   0  0  0  0  0  0  0  0  0  0  0  0
    4.0814  -10.9595    2.1629 H   0  0  0  0  0  0  0  0  0  0  0  0
    3.6078  -12.6527    4.0539 H   0  0  0  0  0  0  0  0  0  0  0  0
    2.6193  -11.4821    6.2128 H   0  0  0  0  0  0  0  0  0  0  0  0
    1.1801  -10.0127    1.9964 H   0  0  0  0  0  0  0  0  0  0  0  0
   -2.3629   -9.0604    3.8955 H   0  0  0  0  0  0  0  0  0  0  0  0
   -1.6145   -6.6662    4.1256 H   0  0  0  0  0  0  0  0  0  0  0  0
  1  2  2  0
  2 15  1  0
  2  3  1  0
  3  7  1  0
  3  4  2  0
  4  5  1  0
  5  6  2  0
  5 22  1  0
  6  7  1  0
  6 23  1  0
  7  8  1  0
  8  9  2  0
  8 24  1  0
  9 10  1  0
  9 15  1  0
 10 14  1  0
 10 11  2  0
 11 12  1  0
 11 25  1  0
 12 13  2  0
 12 26  1  0
 13 14  1  0
 13 27  1  0
 15 16  1  0
 16 21  1  0
 16 17  2  0
 17 18  1  0
 17 28  1  0
 18 19  2  0
 19 20  1  0
 19 29  1  0
 20 21  2  0
 20 30  1  0
M  END
>  <i_m_ct_stereo_status>  (265) 
1

>  <s_m_source_file>  (265) 
/var/tmp/pbs.5076255.sched01/tmpqw5sdpkp/8220gfbieb.sdf

>  <i_m_source_file_index>  (265) 
26

>  <i_lp_mmshare_version>  (265) 
48012

>  <i_f3d_flags>  (265) 
0

>  <s_epik_input>  (265) 
bjFbY0hdW2NIXW5bY0hdYzEtbihjMj1PKWMoW2NIXW4oYzIzKVtjSF1bY0hdbjMpLWM0W2NIXVtjSF1bY0hdczQ=

>  <s_epik_cmdline>  (265) 
J2VwaWtfcHl0aG9uJywgJy1waHQnLCAnMi4wJywgJy1waCcsICc3LjAnLCAnLXRuJywgJzgnLCAnLW1hJywgJzIwMCcsICctaW1hZScsICc8aW5maWxlLm1hZT4nLCAnLW9tYWUnLCAnPG91dGZpbGUubWFlPic=

>  <r_epik_Ionization_Penalty>  (265) 
0.00653855

>  <r_epik_Ionization_Penalty_Charging>  (265) 
0.00653832

>  <r_epik_Ionization_Penalty_Neutral>  (265) 
2.28713e-07

>  <r_epik_State_Penalty>  (265) 
0.00484127

>  <r_epik_Charging_Adjusted_Penalty>  (265) 
0.0113796

>  <i_epik_Tot_Q>  (265) 
0

>  <i_epik_Tot_abs_Q>  (265) 
0

>  <s_lp_Force_Field>  (265) 
OPLS3e

>  <r_lp_Energy>  (265) 
58.3373

>  <b_lp_Chiralities_Consistent>  (265) 
1

>  <s_lp_Variant>  (265) 
76:0-1

>  <s_i_glide_gridfile>  (265) 
pfpi4k_grid

>  <i_i_glide_lignum>  (265) 
26

>  <i_i_glide_rotatable_bonds>  (265) 
2

>  <r_i_docking_score>  (265) 
-3.23179

>  <r_i_glide_ligand_efficiency>  (265) 
-0.153895

>  <r_i_glide_ligand_efficiency_sa>  (265) 
-0.424583

>  <r_i_glide_ligand_efficiency_ln>  (265) 
-0.799053

>  <r_i_glide_gscore>  (265) 
-3.23179

>  <r_i_glide_lipo>  (265) 
-0.154822

>  <r_i_glide_hbond>  (265) 
-0.158094

>  <r_i_glide_metal>  (265) 
-0

>  <r_i_glide_rewards>  (265) 
-1.57363

>  <r_i_glide_evdw>  (265) 
-24.0561

>  <r_i_glide_ecoul>  (265) 
-3.49498

>  <r_i_glide_erotb>  (265) 
0.419715

>  <r_i_glide_esite>  (265) 
-0.0379001

>  <r_i_glide_emodel>  (265) 
-33.3841

>  <r_i_glide_energy>  (265) 
-27.5511

>  <r_i_glide_einternal>  (265) 
1.69226

>  <r_i_glide_intrahb_reward>  (265) 
-0

>  <i_i_glide_confnum>  (265) 
3

>  <i_i_glide_posenum>  (265) 
18

>  <r_i_glide_eff_state_penalty>  (265) 
0

>  <ligand_id>  (265) 
76

>  <original_smiles>  (265) 
O=c1c2nccn2cc(-c2cccs2)n1-c1cnccn1

>  <smiles>  (265) 
[H]c1nc([H])c(-n2c(-c3sc([H])c([H])c3[H])c([H])n3c([H])c([H])nc3c2=O)nc1[H]

$$$$
77:0:0
     RDKit          3D

 54 59  0  0  1  0  0  0  0  0999 V2000
   -2.2761    3.7671    3.0377 C   0  0  0  0  0  0  0  0  0  0  0  0
   -1.3851    3.3082    3.9388 C   0  0  0  0  0  0  0  0  0  0  0  0
   -1.7607    2.1617    4.8385 C   0  0  2  0  0  0  0  0  0  0  0  0
   -1.3878    2.3630    6.3354 C   0  0  0  0  0  0  0  0  0  0  0  0
    0.0307    1.9115    6.7949 C   0  0  2  0  0  0  0  0  0  0  0  0
   -0.0697    1.5938    8.1984 O   0  0  0  0  0  0  0  0  0  0  0  0
   -0.4458    2.6340    9.1065 C   0  0  0  0  0  0  0  0  0  0  0  0
    1.2737    2.9462    6.7175 C   0  0  0  0  0  0  0  0  0  0  0  0
    2.0570    2.5287    5.4756 C   0  0  1  0  0  0  0  0  0  0  0  0
    2.5160    1.1142    6.0134 C   0  0  0  0  0  0  0  0  0  0  0  0
    1.6803    0.1534    6.3220 C   0  0  0  0  0  0  0  0  0  0  0  0
    0.3002    0.5183    6.0510 C   0  0  1  0  0  0  0  0  0  0  0  0
   -0.5894   -0.4331    6.6834 O   0  0  0  0  0  0  0  0  0  0  0  0
   -0.4690   -1.8276    6.3810 C   0  0  0  0  0  0  0  0  0  0  0  0
    0.2109    0.5457    4.4420 C   0  0  1  0  0  0  0  0  0  0  0  0
   -1.2987    0.8476    4.1774 C   0  0  1  0  0  0  0  0  0  0  0  0
   -2.1746   -0.2107    4.5220 O   0  0  0  0  0  0  0  0  0  0  0  0
    1.1806    1.4963    3.4978 C   0  0  2  0  0  0  0  0  0  0  0  0
    0.7182    1.1316    2.0447 C   0  0  0  0  0  0  0  0  0  0  0  0
    2.7682    2.0697    3.5342 C   0  0  1  0  0  0  0  0  0  0  0  0
    2.1309    3.2493    2.8922 C   0  0  0  0  0  0  0  0  0  0  0  0
    1.2162    2.8744    4.1082 C   0  0  2  0  0  0  0  0  0  0  0  0
    0.0016    3.8902    4.1532 C   0  0  1  0  0  0  0  0  0  0  0  0
    0.1889    4.9978    3.2798 O   0  0  0  0  0  0  0  0  0  0  0  0
    3.3947    2.7012    4.8405 C   0  0  1  0  0  0  0  0  0  0  0  0
    3.8291    4.0503    4.8999 O   0  0  0  0  0  0  0  0  0  0  0  0
   -2.0563    4.5801    2.3653 H   0  0  0  0  0  0  0  0  0  0  0  0
   -3.2544    3.3145    2.9372 H   0  0  0  0  0  0  0  0  0  0  0  0
   -2.8517    2.1609    4.8129 H   0  0  0  0  0  0  0  0  0  0  0  0
   -1.5861    3.3927    6.6371 H   0  0  0  0  0  0  0  0  0  0  0  0
   -2.1084    1.7741    6.9052 H   0  0  0  0  0  0  0  0  0  0  0  0
   -0.3927    2.2447   10.1221 H   0  0  0  0  0  0  0  0  0  0  0  0
   -1.4723    2.9718    8.9566 H   0  0  0  0  0  0  0  0  0  0  0  0
    0.2120    3.5021    9.0680 H   0  0  0  0  0  0  0  0  0  0  0  0
    1.0014    3.9956    6.7505 H   0  0  0  0  0  0  0  0  0  0  0  0
    1.9158    2.8372    7.5922 H   0  0  0  0  0  0  0  0  0  0  0  0
    3.5236    0.8927    6.3392 H   0  0  0  0  0  0  0  0  0  0  0  0
    1.9669   -0.7689    6.8078 H   0  0  0  0  0  0  0  0  0  0  0  0
   -1.3336   -2.3470    6.7973 H   0  0  0  0  0  0  0  0  0  0  0  0
    0.4139   -2.2785    6.8251 H   0  0  0  0  0  0  0  0  0  0  0  0
   -0.4770   -2.0434    5.3145 H   0  0  0  0  0  0  0  0  0  0  0  0
    0.4046   -0.4731    4.1131 H   0  0  0  0  0  0  0  0  0  0  0  0
   -1.4890    0.9257    3.1101 H   0  0  0  0  0  0  0  0  0  0  0  0
   -2.9593   -0.0783    3.9886 H   0  0  0  0  0  0  0  0  0  0  0  0
    1.5416    1.1565    1.3285 H   0  0  0  0  0  0  0  0  0  0  0  0
   -0.0387    1.8248    1.6748 H   0  0  0  0  0  0  0  0  0  0  0  0
    0.3200    0.1207    1.9538 H   0  0  0  0  0  0  0  0  0  0  0  0
    3.4587    1.5560    2.8649 H   0  0  0  0  0  0  0  0  0  0  0  0
    2.6539    4.1995    2.9418 H   0  0  0  0  0  0  0  0  0  0  0  0
    1.7816    3.1944    1.8690 H   0  0  0  0  0  0  0  0  0  0  0  0
   -0.0732    4.3937    5.1038 H   0  0  0  0  0  0  0  0  0  0  0  0
    0.2165    4.6909    2.3548 H   0  0  0  0  0  0  0  0  0  0  0  0
    4.3059    2.1653    5.1214 H   0  0  0  0  0  0  0  0  0  0  0  0
    3.1595    4.5936    4.5248 H   0  0  0  0  0  0  0  0  0  0  0  0
  1  2  2  0
  1 27  1  0
  1 28  1  0
  2 23  1  0
  2  3  1  0
  3 16  1  0
  3  4  1  0
  3 29  1  1
  4  5  1  0
  4 30  1  0
  4 31  1  0
  5 12  1  0
  5  6  1  1
  5  8  1  0
  6  7  1  0
  7 32  1  0
  7 33  1  0
  7 34  1  0
  9  8  1  1
  8 35  1  0
  8 36  1  0
  9 22  1  0
  9 25  1  0
  9 10  1  0
 10 11  2  0
 10 37  1  0
 11 12  1  0
 11 38  1  0
 12 13  1  1
 12 15  1  0
 13 14  1  0
 14 39  1  0
 14 40  1  0
 14 41  1  0
 15 16  1  0
 15 18  1  0
 15 42  1  6
 16 17  1  0
 16 43  1  6
 17 44  1  0
 18 22  1  0
 18 19  1  6
 18 20  1  0
 19 45  1  0
 19 46  1  0
 19 47  1  0
 20 21  1  0
 20 25  1  0
 20 48  1  6
 22 21  1  6
 21 49  1  0
 21 50  1  0
 22 23  1  0
 23 24  1  0
 23 51  1  1
 24 52  1  0
 25 26  1  0
 25 53  1  1
 26 54  1  0
M  END
>  <i_m_ct_stereo_status>  (266) 
1

>  <s_m_source_file>  (266) 
/var/tmp/pbs.5076255.sched01/tmpqw5sdpkp/8220gfbieb.sdf

>  <i_m_source_file_index>  (266) 
27

>  <i_lp_mmshare_version>  (266) 
48012

>  <i_f3d_flags>  (266) 
0

>  <s_epik_input>  (266) 
W09IXVtDQEhdMUMoPVtDSDJdKVtDQEBIXShbQ0BASF0yW09IXSlbQ0gyXVtDQEBdKFtDSDJdMykoT1tDSDNdKVtDQEBdKFtDSF09W0NIXTQpKE9bQ0gzXSlbQ0BASF0yW0NAQF0oW0NIM10pKFtDQF0xNVtDQEBdMzQ2KVtDQEBIXShbQ0gyXTUpW0NASF02W09IXQ==

>  <s_epik_cmdline>  (266) 
J2VwaWtfcHl0aG9uJywgJy1waHQnLCAnMi4wJywgJy1waCcsICc3LjAnLCAnLXRuJywgJzgnLCAnLW1hJywgJzIwMCcsICctaW1hZScsICc8aW5maWxlLm1hZT4nLCAnLW9tYWUnLCAnPG91dGZpbGUubWFlPic=

>  <r_lp_tautomer_probability>  (266) 
1

>  <r_epik_Ionization_Penalty>  (266) 
2.20185e-07

>  <r_epik_Ionization_Penalty_Charging>  (266) 
0

>  <r_epik_Ionization_Penalty_Neutral>  (266) 
2.20185e-07

>  <r_epik_State_Penalty>  (266) 
-0

>  <r_epik_Charging_Adjusted_Penalty>  (266) 
0

>  <i_epik_Tot_Q>  (266) 
0

>  <i_epik_Tot_abs_Q>  (266) 
0

>  <s_lp_Force_Field>  (266) 
OPLS3e

>  <r_lp_Energy>  (266) 
235.175

>  <b_lp_Chiralities_Consistent>  (266) 
1

>  <s_lp_Variant>  (266) 
77:0-1

>  <s_i_glide_gridfile>  (266) 
pfpi4k_grid

>  <i_i_glide_lignum>  (266) 
27

>  <i_i_glide_rotatable_bonds>  (266) 
5

>  <r_i_docking_score>  (266) 
-3.77989

>  <r_i_glide_ligand_efficiency>  (266) 
-0.14538

>  <r_i_glide_ligand_efficiency_sa>  (266) 
-0.430689

>  <r_i_glide_ligand_efficiency_ln>  (266) 
-0.887694

>  <r_i_glide_gscore>  (266) 
-3.77989

>  <r_i_glide_lipo>  (266) 
-0.00683509

>  <r_i_glide_hbond>  (266) 
-0.178759

>  <r_i_glide_metal>  (266) 
-0

>  <r_i_glide_rewards>  (266) 
-0.951518

>  <r_i_glide_evdw>  (266) 
-15.7757

>  <r_i_glide_ecoul>  (266) 
-12.3599

>  <r_i_glide_erotb>  (266) 
0

>  <r_i_glide_esite>  (266) 
0

>  <r_i_glide_emodel>  (266) 
-35.3101

>  <r_i_glide_energy>  (266) 
-28.1356

>  <r_i_glide_einternal>  (266) 
0.569701

>  <r_i_glide_intrahb_reward>  (266) 
-0

>  <i_i_glide_confnum>  (266) 
2

>  <i_i_glide_posenum>  (266) 
6

>  <r_i_glide_eff_state_penalty>  (266) 
0

>  <ligand_id>  (266) 
77

>  <original_smiles>  (266) 
C=C1C2CC3(OC)CC45C=CC3(OC)C(C2O)C2(C)C(CC42C1O)C5O

>  <smiles>  (266) 
[H]OC1([H])C(=C([H])[H])C2([H])C([H])([H])C3(OC([H])([H])[H])C([H])([H])C45C([H])=C([H])C3(OC([H])([H])[H])C([H])(C2([H])O[H])C2(C([H])([H])[H])C([H])(C([H])([H])C142)C5([H])O[H]

$$$$
77:0:1
     RDKit          3D

 54 59  0  0  1  0  0  0  0  0999 V2000
   -2.4026    3.6023    2.8458 C   0  0  0  0  0  0  0  0  0  0  0  0
   -1.6231    3.3169    3.8999 C   0  0  0  0  0  0  0  0  0  0  0  0
   -1.8976    2.0756    4.6971 C   0  0  2  0  0  0  0  0  0  0  0  0
   -1.8979    2.3012    6.2392 C   0  0  0  0  0  0  0  0  0  0  0  0
   -0.5384    2.1570    6.9878 C   0  0  2  0  0  0  0  0  0  0  0  0
   -0.8509    1.7705    8.3385 O   0  0  0  0  0  0  0  0  0  0  0  0
   -1.6250    2.6668    9.1413 C   0  0  0  0  0  0  0  0  0  0  0  0
    0.4244    3.4480    7.1557 C   0  0  0  0  0  0  0  0  0  0  0  0
    1.5246    3.2654    6.1071 C   0  0  1  0  0  0  0  0  0  0  0  0
    2.1704    1.9704    6.7445 C   0  0  0  0  0  0  0  0  0  0  0  0
    1.5290    0.8365    6.8789 C   0  0  0  0  0  0  0  0  0  0  0  0
    0.1858    0.8919    6.3206 C   0  0  1  0  0  0  0  0  0  0  0  0
   -0.5718   -0.2563    6.7706 O   0  0  0  0  0  0  0  0  0  0  0  0
   -0.0732   -1.5739    6.5327 C   0  0  0  0  0  0  0  0  0  0  0  0
    0.4242    0.9598    4.7348 C   0  0  1  0  0  0  0  0  0  0  0  0
   -1.0261    0.9268    4.1539 C   0  0  1  0  0  0  0  0  0  0  0  0
   -1.7255   -0.2876    4.3474 O   0  0  0  0  0  0  0  0  0  0  0  0
    1.3244    2.1359    3.9993 C   0  0  2  0  0  0  0  0  0  0  0  0
    1.2677    1.7332    2.4871 C   0  0  0  0  0  0  0  0  0  0  0  0
    2.7031    3.0500    4.3510 C   0  0  1  0  0  0  0  0  0  0  0  0
    1.9445    4.0856    3.5903 C   0  0  0  0  0  0  0  0  0  0  0  0
    0.9181    3.4604    4.5959 C   0  0  2  0  0  0  0  0  0  0  0  0
   -0.4768    4.1823    4.3919 C   0  0  1  0  0  0  0  0  0  0  0  0
   -0.3906    5.3372    3.5695 O   0  0  0  0  0  0  0  0  0  0  0  0
    2.8910    3.7594    5.7550 C   0  0  1  0  0  0  0  0  0  0  0  0
    2.9966    5.1669    5.9001 O   0  0  0  0  0  0  0  0  0  0  0  0
   -2.2486    4.4683    2.2222 H   0  0  0  0  0  0  0  0  0  0  0  0
   -3.2073    2.9386    2.5465 H   0  0  0  0  0  0  0  0  0  0  0  0
   -2.9225    1.8357    4.4258 H   0  0  0  0  0  0  0  0  0  0  0  0
   -2.3800    3.2478    6.4785 H   0  0  0  0  0  0  0  0  0  0  0  0
   -2.5646    1.5382    6.6452 H   0  0  0  0  0  0  0  0  0  0  0  0
   -1.6919    2.2598   10.1491 H   0  0  0  0  0  0  0  0  0  0  0  0
   -2.6477    2.7766    8.7796 H   0  0  0  0  0  0  0  0  0  0  0  0
   -1.1834    3.6594    9.2319 H   0  0  0  0  0  0  0  0  0  0  0  0
   -0.0770    4.4104    7.1261 H   0  0  0  0  0  0  0  0  0  0  0  0
    0.8859    3.4531    8.1450 H   0  0  0  0  0  0  0  0  0  0  0  0
    3.1138    1.9689    7.2762 H   0  0  0  0  0  0  0  0  0  0  0  0
    1.9193   -0.0097    7.4180 H   0  0  0  0  0  0  0  0  0  0  0  0
   -0.8653   -2.2874    6.7635 H   0  0  0  0  0  0  0  0  0  0  0  0
    0.7703   -1.8187    7.1744 H   0  0  0  0  0  0  0  0  0  0  0  0
    0.2092   -1.7484    5.4964 H   0  0  0  0  0  0  0  0  0  0  0  0
    0.9074    0.0255    4.4581 H   0  0  0  0  0  0  0  0  0  0  0  0
   -1.0141    0.9958    3.0696 H   0  0  0  0  0  0  0  0  0  0  0  0
   -2.5435   -0.2067    3.8735 H   0  0  0  0  0  0  0  0  0  0  0  0
    2.1906    1.9777    1.9555 H   0  0  0  0  0  0  0  0  0  0  0  0
    0.4579    2.2480    1.9678 H   0  0  0  0  0  0  0  0  0  0  0  0
    1.1361    0.6635    2.3279 H   0  0  0  0  0  0  0  0  0  0  0  0
    3.6241    2.7466    3.8443 H   0  0  0  0  0  0  0  0  0  0  0  0
    2.2089    5.1310    3.7390 H   0  0  0  0  0  0  0  0  0  0  0  0
    1.8024    4.0019    2.5159 H   0  0  0  0  0  0  0  0  0  0  0  0
   -0.8507    4.6239    5.3001 H   0  0  0  0  0  0  0  0  0  0  0  0
   -0.1448    5.0584    2.6901 H   0  0  0  0  0  0  0  0  0  0  0  0
    3.8197    3.4304    6.2288 H   0  0  0  0  0  0  0  0  0  0  0  0
    3.8167    5.4430    5.5244 H   0  0  0  0  0  0  0  0  0  0  0  0
  1  2  2  0
  1 27  1  0
  1 28  1  0
  2 23  1  0
  2  3  1  0
  3 16  1  0
  3  4  1  0
  3 29  1  6
  4  5  1  0
  4 30  1  0
  4 31  1  0
  5 12  1  0
  5  6  1  1
  5  8  1  0
  6  7  1  0
  7 32  1  0
  7 33  1  0
  7 34  1  0
  9  8  1  1
  8 35  1  0
  8 36  1  0
  9 22  1  0
  9 25  1  0
  9 10  1  0
 10 11  2  0
 10 37  1  0
 11 12  1  0
 11 38  1  0
 12 13  1  6
 12 15  1  0
 13 14  1  0
 14 39  1  0
 14 40  1  0
 14 41  1  0
 15 16  1  0
 15 18  1  0
 15 42  1  6
 16 17  1  0
 16 43  1  6
 17 44  1  0
 18 22  1  0
 18 19  1  6
 18 20  1  0
 19 45  1  0
 19 46  1  0
 19 47  1  0
 20 21  1  0
 20 25  1  0
 20 48  1  6
 22 21  1  6
 21 49  1  0
 21 50  1  0
 22 23  1  0
 23 24  1  0
 23 51  1  1
 24 52  1  0
 25 26  1  0
 25 53  1  1
 26 54  1  0
M  END
>  <i_m_ct_stereo_status>  (267) 
1

>  <s_m_source_file>  (267) 
/var/tmp/pbs.5076255.sched01/tmpqw5sdpkp/8220gfbieb.sdf

>  <i_m_source_file_index>  (267) 
27

>  <i_lp_mmshare_version>  (267) 
48012

>  <i_f3d_flags>  (267) 
0

>  <s_epik_input>  (267) 
W09IXVtDQEhdMUMoPVtDSDJdKVtDQEBIXShbQ0BASF0yW09IXSlbQ0gyXVtDQEBdKFtDSDJdMykoT1tDSDNdKVtDQEBdKFtDSF09W0NIXTQpKE9bQ0gzXSlbQ0BASF0yW0NAQF0oW0NIM10pKFtDQF0xNVtDQEBdMzQ2KVtDQEBIXShbQ0gyXTUpW0NASF02W09IXQ==

>  <s_epik_cmdline>  (267) 
J2VwaWtfcHl0aG9uJywgJy1waHQnLCAnMi4wJywgJy1waCcsICc3LjAnLCAnLXRuJywgJzgnLCAnLW1hJywgJzIwMCcsICctaW1hZScsICc8aW5maWxlLm1hZT4nLCAnLW9tYWUnLCAnPG91dGZpbGUubWFlPic=

>  <r_lp_tautomer_probability>  (267) 
1

>  <r_epik_Ionization_Penalty>  (267) 
2.20185e-07

>  <r_epik_Ionization_Penalty_Charging>  (267) 
0

>  <r_epik_Ionization_Penalty_Neutral>  (267) 
2.20185e-07

>  <r_epik_State_Penalty>  (267) 
-0

>  <r_epik_Charging_Adjusted_Penalty>  (267) 
0

>  <i_epik_Tot_Q>  (267) 
0

>  <i_epik_Tot_abs_Q>  (267) 
0

>  <s_lp_Force_Field>  (267) 
OPLS3e

>  <r_lp_Energy>  (267) 
235.175

>  <b_lp_Chiralities_Consistent>  (267) 
1

>  <s_lp_Variant>  (267) 
77:0-1

>  <s_i_glide_gridfile>  (267) 
pfpi4k_grid

>  <i_i_glide_lignum>  (267) 
27

>  <i_i_glide_rotatable_bonds>  (267) 
5

>  <r_i_docking_score>  (267) 
-3.31519

>  <r_i_glide_ligand_efficiency>  (267) 
-0.127507

>  <r_i_glide_ligand_efficiency_sa>  (267) 
-0.37774

>  <r_i_glide_ligand_efficiency_ln>  (267) 
-0.778562

>  <r_i_glide_gscore>  (267) 
-3.31519

>  <r_i_glide_lipo>  (267) 
-0.0168755

>  <r_i_glide_hbond>  (267) 
-0.208452

>  <r_i_glide_metal>  (267) 
-0

>  <r_i_glide_rewards>  (267) 
-0.951518

>  <r_i_glide_evdw>  (267) 
-17.2674

>  <r_i_glide_ecoul>  (267) 
-8.49985

>  <r_i_glide_erotb>  (267) 
0

>  <r_i_glide_esite>  (267) 
0

>  <r_i_glide_emodel>  (267) 
-32.0168

>  <r_i_glide_energy>  (267) 
-25.7673

>  <r_i_glide_einternal>  (267) 
0.702264

>  <r_i_glide_intrahb_reward>  (267) 
-0

>  <i_i_glide_confnum>  (267) 
2

>  <i_i_glide_posenum>  (267) 
1

>  <r_i_glide_eff_state_penalty>  (267) 
0

>  <ligand_id>  (267) 
77

>  <original_smiles>  (267) 
C=C1C2CC3(OC)CC45C=CC3(OC)C(C2O)C2(C)C(CC42C1O)C5O

>  <smiles>  (267) 
[H]OC1([H])C(=C([H])[H])C2([H])C([H])([H])C3(OC([H])([H])[H])C([H])([H])C45C([H])=C([H])C3(OC([H])([H])[H])C([H])(C2([H])O[H])C2(C([H])([H])[H])C([H])(C([H])([H])C142)C5([H])O[H]

$$$$
77:0:2
     RDKit          3D

 54 59  0  0  1  0  0  0  0  0999 V2000
   -2.3048    3.7935    2.8867 C   0  0  0  0  0  0  0  0  0  0  0  0
   -1.5245    3.4015    3.9204 C   0  0  0  0  0  0  0  0  0  0  0  0
   -1.8559    2.1324    4.6543 C   0  0  2  0  0  0  0  0  0  0  0  0
   -1.8064    2.2549    6.2097 C   0  0  0  0  0  0  0  0  0  0  0  0
   -0.4420    1.9929    6.9157 C   0  0  2  0  0  0  0  0  0  0  0  0
   -0.7469    1.5310    8.2472 O   0  0  0  0  0  0  0  0  0  0  0  0
   -1.4507    2.4167    9.1235 C   0  0  0  0  0  0  0  0  0  0  0  0
    0.5952    3.2173    7.1417 C   0  0  0  0  0  0  0  0  0  0  0  0
    1.6590    3.0488    6.0548 C   0  0  1  0  0  0  0  0  0  0  0  0
    2.2443    1.6781    6.5904 C   0  0  0  0  0  0  0  0  0  0  0  0
    1.5486    0.5765    6.6694 C   0  0  0  0  0  0  0  0  0  0  0  0
    0.1969    0.7370    6.1512 C   0  0  1  0  0  0  0  0  0  0  0  0
   -0.6133   -0.3956    6.5420 O   0  0  0  0  0  0  0  0  0  0  0  0
   -0.2050   -1.7193    6.1876 C   0  0  0  0  0  0  0  0  0  0  0  0
    0.4046    0.8972    4.5620 C   0  0  1  0  0  0  0  0  0  0  0  0
   -1.0567    0.9806    4.0171 C   0  0  1  0  0  0  0  0  0  0  0  0
   -1.7843   -0.2217    4.1328 O   0  0  0  0  0  0  0  0  0  0  0  0
    1.3542    2.0673    3.8881 C   0  0  2  0  0  0  0  0  0  0  0  0
    1.2408    1.7611    2.3539 C   0  0  0  0  0  0  0  0  0  0  0  0
    2.7865    2.8839    4.2613 C   0  0  1  0  0  0  0  0  0  0  0  0
    2.0684    3.9991    3.5834 C   0  0  0  0  0  0  0  0  0  0  0  0
    1.0304    3.3704    4.5754 C   0  0  2  0  0  0  0  0  0  0  0  0
   -0.3290    4.1727    4.4442 C   0  0  1  0  0  0  0  0  0  0  0  0
   -0.1810    5.3698    3.6900 O   0  0  0  0  0  0  0  0  0  0  0  0
    3.0422    3.4874    5.7025 C   0  0  1  0  0  0  0  0  0  0  0  0
    3.2382    4.8705    5.9198 O   0  0  0  0  0  0  0  0  0  0  0  0
   -2.1131    4.6896    2.3206 H   0  0  0  0  0  0  0  0  0  0  0  0
   -3.1530    3.2032    2.5761 H   0  0  0  0  0  0  0  0  0  0  0  0
   -2.9001    1.9635    4.4031 H   0  0  0  0  0  0  0  0  0  0  0  0
   -2.2313    3.2055    6.5251 H   0  0  0  0  0  0  0  0  0  0  0  0
   -2.5078    1.5060    6.5884 H   0  0  0  0  0  0  0  0  0  0  0  0
   -1.5156    1.9502   10.1056 H   0  0  0  0  0  0  0  0  0  0  0  0
   -2.4747    2.6033    8.7969 H   0  0  0  0  0  0  0  0  0  0  0  0
   -0.9539    3.3779    9.2659 H   0  0  0  0  0  0  0  0  0  0  0  0
    0.1443    4.2021    7.1855 H   0  0  0  0  0  0  0  0  0  0  0  0
    1.0739    3.1305    8.1182 H   0  0  0  0  0  0  0  0  0  0  0  0
    3.1991    1.5923    7.0963 H   0  0  0  0  0  0  0  0  0  0  0  0
    1.8960   -0.3307    7.1448 H   0  0  0  0  0  0  0  0  0  0  0  0
   -1.0287   -2.3992    6.4054 H   0  0  0  0  0  0  0  0  0  0  0  0
    0.6524   -2.0616    6.7642 H   0  0  0  0  0  0  0  0  0  0  0  0
    0.0174   -1.8354    5.1285 H   0  0  0  0  0  0  0  0  0  0  0  0
    0.8332   -0.0458    4.2178 H   0  0  0  0  0  0  0  0  0  0  0  0
   -1.0642    1.1230    2.9389 H   0  0  0  0  0  0  0  0  0  0  0  0
   -2.6345   -0.0642    3.7239 H   0  0  0  0  0  0  0  0  0  0  0  0
    2.1597    1.9918    1.8136 H   0  0  0  0  0  0  0  0  0  0  0  0
    0.4460    2.3490    1.8948 H   0  0  0  0  0  0  0  0  0  0  0  0
    1.0464    0.7118    2.1327 H   0  0  0  0  0  0  0  0  0  0  0  0
    3.6733    2.5604    3.7157 H   0  0  0  0  0  0  0  0  0  0  0  0
    2.4013    5.0136    3.7829 H   0  0  0  0  0  0  0  0  0  0  0  0
    1.8955    3.9885    2.5088 H   0  0  0  0  0  0  0  0  0  0  0  0
   -0.6611    4.5718    5.3906 H   0  0  0  0  0  0  0  0  0  0  0  0
    0.0539    5.1268    2.7966 H   0  0  0  0  0  0  0  0  0  0  0  0
    3.9612    3.0781    6.1316 H   0  0  0  0  0  0  0  0  0  0  0  0
    2.5266    5.3359    5.5090 H   0  0  0  0  0  0  0  0  0  0  0  0
  1  2  2  0
  1 27  1  0
  1 28  1  0
  2 23  1  0
  2  3  1  0
  3 16  1  0
  3  4  1  0
  3 29  1  1
  4  5  1  0
  4 30  1  0
  4 31  1  0
  5 12  1  0
  5  6  1  1
  5  8  1  0
  6  7  1  0
  7 32  1  0
  7 33  1  0
  7 34  1  0
  9  8  1  1
  8 35  1  0
  8 36  1  0
  9 22  1  0
  9 25  1  0
  9 10  1  0
 10 11  2  0
 10 37  1  0
 11 12  1  0
 11 38  1  0
 12 13  1  6
 12 15  1  0
 13 14  1  0
 14 39  1  0
 14 40  1  0
 14 41  1  0
 15 16  1  0
 15 18  1  0
 15 42  1  6
 16 17  1  0
 16 43  1  6
 17 44  1  0
 18 22  1  0
 18 19  1  6
 18 20  1  0
 19 45  1  0
 19 46  1  0
 19 47  1  0
 20 21  1  0
 20 25  1  0
 20 48  1  6
 22 21  1  6
 21 49  1  0
 21 50  1  0
 22 23  1  0
 23 24  1  0
 23 51  1  1
 24 52  1  0
 25 26  1  0
 25 53  1  1
 26 54  1  0
M  END
>  <i_m_ct_stereo_status>  (268) 
1

>  <s_m_source_file>  (268) 
/var/tmp/pbs.5076255.sched01/tmpqw5sdpkp/8220gfbieb.sdf

>  <i_m_source_file_index>  (268) 
27

>  <i_lp_mmshare_version>  (268) 
48012

>  <i_f3d_flags>  (268) 
0

>  <s_epik_input>  (268) 
W09IXVtDQEhdMUMoPVtDSDJdKVtDQEBIXShbQ0BASF0yW09IXSlbQ0gyXVtDQEBdKFtDSDJdMykoT1tDSDNdKVtDQEBdKFtDSF09W0NIXTQpKE9bQ0gzXSlbQ0BASF0yW0NAQF0oW0NIM10pKFtDQF0xNVtDQEBdMzQ2KVtDQEBIXShbQ0gyXTUpW0NASF02W09IXQ==

>  <s_epik_cmdline>  (268) 
J2VwaWtfcHl0aG9uJywgJy1waHQnLCAnMi4wJywgJy1waCcsICc3LjAnLCAnLXRuJywgJzgnLCAnLW1hJywgJzIwMCcsICctaW1hZScsICc8aW5maWxlLm1hZT4nLCAnLW9tYWUnLCAnPG91dGZpbGUubWFlPic=

>  <r_lp_tautomer_probability>  (268) 
1

>  <r_epik_Ionization_Penalty>  (268) 
2.20185e-07

>  <r_epik_Ionization_Penalty_Charging>  (268) 
0

>  <r_epik_Ionization_Penalty_Neutral>  (268) 
2.20185e-07

>  <r_epik_State_Penalty>  (268) 
-0

>  <r_epik_Charging_Adjusted_Penalty>  (268) 
0

>  <i_epik_Tot_Q>  (268) 
0

>  <i_epik_Tot_abs_Q>  (268) 
0

>  <s_lp_Force_Field>  (268) 
OPLS3e

>  <r_lp_Energy>  (268) 
235.175

>  <b_lp_Chiralities_Consistent>  (268) 
1

>  <s_lp_Variant>  (268) 
77:0-1

>  <s_i_glide_gridfile>  (268) 
pfpi4k_grid

>  <i_i_glide_lignum>  (268) 
27

>  <i_i_glide_rotatable_bonds>  (268) 
5

>  <r_i_docking_score>  (268) 
-3.27212

>  <r_i_glide_ligand_efficiency>  (268) 
-0.125851

>  <r_i_glide_ligand_efficiency_sa>  (268) 
-0.372832

>  <r_i_glide_ligand_efficiency_ln>  (268) 
-0.768446

>  <r_i_glide_gscore>  (268) 
-3.27212

>  <r_i_glide_lipo>  (268) 
-0.00620255

>  <r_i_glide_hbond>  (268) 
-0.119255

>  <r_i_glide_metal>  (268) 
-0

>  <r_i_glide_rewards>  (268) 
-0.951518

>  <r_i_glide_evdw>  (268) 
-17.1779

>  <r_i_glide_ecoul>  (268) 
-8.90834

>  <r_i_glide_erotb>  (268) 
0

>  <r_i_glide_esite>  (268) 
0

>  <r_i_glide_emodel>  (268) 
-32.4118

>  <r_i_glide_energy>  (268) 
-26.0862

>  <r_i_glide_einternal>  (268) 
0.38762

>  <r_i_glide_intrahb_reward>  (268) 
-0

>  <i_i_glide_confnum>  (268) 
1

>  <i_i_glide_posenum>  (268) 
19

>  <r_i_glide_eff_state_penalty>  (268) 
0

>  <ligand_id>  (268) 
77

>  <original_smiles>  (268) 
C=C1C2CC3(OC)CC45C=CC3(OC)C(C2O)C2(C)C(CC42C1O)C5O

>  <smiles>  (268) 
[H]OC1([H])C(=C([H])[H])C2([H])C([H])([H])C3(OC([H])([H])[H])C([H])([H])C45C([H])=C([H])C3(OC([H])([H])[H])C([H])(C2([H])O[H])C2(C([H])([H])[H])C([H])(C([H])([H])C142)C5([H])O[H]

$$$$
78:0:0
     RDKit          3D

 65 70  0  0  1  0  0  0  0  0999 V2000
   -1.9426    3.3024    3.1530 C   0  0  0  0  0  0  0  0  0  0  0  0
   -0.5963    3.2764    3.9362 C   0  0  0  0  0  0  0  0  0  0  0  0
   -0.1138    4.7551    3.7682 C   0  0  0  0  0  0  0  0  0  0  0  0
   -1.0987    2.9450    5.3090 O   0  0  0  0  0  0  0  0  0  0  0  0
   -0.3186    2.1997    6.3368 C   0  0  2  0  0  0  0  0  0  0  0  0
   -0.2705    3.5164    7.2853 C   0  0  1  0  0  0  0  0  0  0  0  0
   -1.5751    4.0254    7.5424 O   0  0  0  0  0  0  0  0  0  0  0  0
    0.2175    3.1672    8.6950 C   0  0  0  0  0  0  0  0  0  0  0  0
    0.1378    1.6422    8.7612 C   0  0  2  0  0  0  0  0  0  0  0  0
   -0.5825    1.2697    9.9194 O   0  0  0  0  0  0  0  0  0  0  0  0
    1.6153    1.0913    8.8575 C   0  0  0  0  0  0  0  0  0  0  0  0
    1.9391    0.2574    9.6879 O   0  0  0  0  0  0  0  0  0  0  0  0
    2.4224    1.5550    7.8733 O   0  0  0  0  0  0  0  0  0  0  0  0
    3.4561    0.8560    7.1478 C   0  0  0  0  0  0  0  0  0  0  0  0
    3.1584    0.5768    5.5782 C   0  0  2  0  0  0  0  0  0  0  0  0
    4.4332   -0.2776    5.2516 C   0  0  0  0  0  0  0  0  0  0  0  0
    3.1655    1.7458    4.3661 C   0  0  2  0  0  0  0  0  0  0  0  0
    3.1680    2.9603    5.1483 C   0  0  1  0  0  0  0  0  0  0  0  0
    3.4720    4.1748    4.4955 O   0  0  0  0  0  0  0  0  0  0  0  0
    1.7536    2.8248    5.6035 C   0  0  0  0  0  0  0  0  0  0  0  0
    0.8349    1.4018    5.4735 C   0  0  2  0  0  0  0  0  0  0  0  0
    0.0029    0.9884    4.1447 C   0  0  2  0  0  0  0  0  0  0  0  0
   -1.3473    0.6245    4.4442 O   0  0  0  0  0  0  0  0  0  0  0  0
    0.2146   -0.1563    3.1985 C   0  0  0  0  0  0  0  0  0  0  0  0
    1.0351   -1.1727    3.3441 C   0  0  0  0  0  0  0  0  0  0  0  0
    1.8319   -1.1678    4.5102 C   0  0  0  0  0  0  0  0  0  0  0  0
    2.5452   -2.1630    4.6921 O   0  0  0  0  0  0  0  0  0  0  0  0
    1.7262   -0.0356    5.6355 C   0  0  1  0  0  0  0  0  0  0  0  0
    1.3342   -1.1074    6.7456 C   0  0  0  0  0  0  0  0  0  0  0  0
    0.3686    2.1479    3.3050 C   0  0  2  0  0  0  0  0  0  0  0  0
    2.0332    2.0581    3.1611 C   0  0  2  0  0  0  0  0  0  0  0  0
    2.5191    1.0413    1.7626 Cl  0  0  0  0  0  0  0  0  0  0  0  0
   -0.7696    1.2494    7.4832 C   0  0  1  0  0  0  0  0  0  0  0  0
   -2.1617    1.3676    7.7214 O   0  0  0  0  0  0  0  0  0  0  0  0
   -1.7844    3.5627    2.1026 H   0  0  0  0  0  0  0  0  0  0  0  0
   -2.6299    4.0432    3.5673 H   0  0  0  0  0  0  0  0  0  0  0  0
   -2.4808    2.3567    3.1479 H   0  0  0  0  0  0  0  0  0  0  0  0
    0.9258    4.8068    3.4444 H   0  0  0  0  0  0  0  0  0  0  0  0
   -0.1967    5.3104    4.7045 H   0  0  0  0  0  0  0  0  0  0  0  0
   -0.6569    5.3221    3.0091 H   0  0  0  0  0  0  0  0  0  0  0  0
    0.2420    4.4001    6.9002 H   0  0  0  0  0  0  0  0  0  0  0  0
   -1.4993    4.7408    8.1698 H   0  0  0  0  0  0  0  0  0  0  0  0
    1.2278    3.5573    8.8436 H   0  0  0  0  0  0  0  0  0  0  0  0
   -0.3763    3.6480    9.4814 H   0  0  0  0  0  0  0  0  0  0  0  0
   -0.1571    1.6376   10.6838 H   0  0  0  0  0  0  0  0  0  0  0  0
    4.3852    1.4128    7.2682 H   0  0  0  0  0  0  0  0  0  0  0  0
    3.6433   -0.0912    7.6613 H   0  0  0  0  0  0  0  0  0  0  0  0
    4.4842   -0.5888    4.2026 H   0  0  0  0  0  0  0  0  0  0  0  0
    4.5200   -1.1780    5.8712 H   0  0  0  0  0  0  0  0  0  0  0  0
    5.3488    0.2953    5.4226 H   0  0  0  0  0  0  0  0  0  0  0  0
    4.1384    1.7073    3.8720 H   0  0  0  0  0  0  0  0  0  0  0  0
    3.9025    2.9335    5.9525 H   0  0  0  0  0  0  0  0  0  0  0  0
    2.9681    4.2538    3.6900 H   0  0  0  0  0  0  0  0  0  0  0  0
    1.9215    3.2106    6.5901 H   0  0  0  0  0  0  0  0  0  0  0  0
    1.3063    3.7051    5.2369 H   0  0  0  0  0  0  0  0  0  0  0  0
   -1.8946    0.8131    3.6852 H   0  0  0  0  0  0  0  0  0  0  0  0
   -0.3703   -0.1324    2.2976 H   0  0  0  0  0  0  0  0  0  0  0  0
    1.1496   -1.9675    2.6239 H   0  0  0  0  0  0  0  0  0  0  0  0
    0.9137   -0.8400    7.6842 H   0  0  0  0  0  0  0  0  0  0  0  0
    2.1738   -1.7452    7.0202 H   0  0  0  0  0  0  0  0  0  0  0  0
    0.5388   -1.7689    6.3906 H   0  0  0  0  0  0  0  0  0  0  0  0
    0.0168    2.0641    2.2718 H   0  0  0  0  0  0  0  0  0  0  0  0
    2.2730    3.0340    2.7425 H   0  0  0  0  0  0  0  0  0  0  0  0
   -0.7100    0.2173    7.1804 H   0  0  0  0  0  0  0  0  0  0  0  0
   -2.3154    2.2911    7.9249 H   0  0  0  0  0  0  0  0  0  0  0  0
  1  2  1  0
  1 35  1  0
  1 36  1  0
  1 37  1  0
  2 30  1  0
  2  3  1  0
  2  4  1  0
  3 38  1  0
  3 39  1  0
  3 40  1  0
  5  4  1  6
  5 21  1  0
  5 33  1  0
  5  6  1  0
  6  7  1  0
  6  8  1  0
  6 41  1  6
  7 42  1  0
  8  9  1  0
  8 43  1  0
  8 44  1  0
  9 10  1  1
  9 11  1  0
  9 33  1  0
 10 45  1  0
 11 12  2  0
 11 13  1  0
 13 14  1  0
 14 15  1  0
 14 46  1  0
 14 47  1  0
 15 28  1  0
 15 16  1  6
 15 17  1  0
 16 48  1  0
 16 49  1  0
 16 50  1  0
 17 31  1  0
 17 18  1  0
 17 51  1  6
 18 19  1  0
 18 20  1  0
 18 52  1  1
 19 53  1  0
 21 20  1  6
 20 54  1  0
 20 55  1  0
 21 28  1  0
 21 22  1  0
 22 23  1  1
 22 24  1  0
 22 30  1  0
 23 56  1  0
 24 25  2  0
 24 57  1  0
 25 26  1  0
 25 58  1  0
 26 27  2  0
 26 28  1  0
 28 29  1  1
 29 59  1  0
 29 60  1  0
 29 61  1  0
 30 31  1  0
 30 62  1  6
 31 32  1  0
 31 63  1  6
 33 34  1  0
 33 64  1  6
 34 65  1  0
M  END
>  <i_m_ct_stereo_status>  (269) 
1

>  <s_m_source_file>  (269) 
/var/tmp/pbs.5076255.sched01/tmpqw5sdpkp/8220gfbieb.sdf

>  <i_m_source_file_index>  (269) 
28

>  <i_lp_mmshare_version>  (269) 
48012

>  <i_f3d_flags>  (269) 
0

>  <s_epik_input>  (269) 
W0NAQF0xMjNbQ0BAXTQ1W0NAQF02KFtPSF0pW0NAQEhdKEMoTzEpKFtDSDNdKVtDSDNdKVtDQEhdKENsKVtDQEBIXShbQ0BASF0oW09IXSlbQ0gyXTQpW0NAXShbQ0gzXSkoW0NAXTUoW0NIM10pQyg9TylbQ0hdPVtDSF02KVtDSDJdT0MoPU8pW0NAXShbT0hdKShbQ0BIXTNbT0hdKVtDSDJdW0NAQEhdMltPSF0=

>  <s_epik_cmdline>  (269) 
J2VwaWtfcHl0aG9uJywgJy1waHQnLCAnMi4wJywgJy1waCcsICc3LjAnLCAnLXRuJywgJzgnLCAnLW1hJywgJzIwMCcsICctaW1hZScsICc8aW5maWxlLm1hZT4nLCAnLW9tYWUnLCAnPG91dGZpbGUubWFlPic=

>  <r_lp_tautomer_probability>  (269) 
1

>  <r_epik_Ionization_Penalty>  (269) 
2.50212e-05

>  <r_epik_Ionization_Penalty_Charging>  (269) 
0

>  <r_epik_Ionization_Penalty_Neutral>  (269) 
2.50212e-05

>  <r_epik_State_Penalty>  (269) 
-0

>  <r_epik_Charging_Adjusted_Penalty>  (269) 
0

>  <i_epik_Tot_Q>  (269) 
0

>  <i_epik_Tot_abs_Q>  (269) 
0

>  <s_epik_Chemistry_Notes>  (269) 
This compound has an ester and may undergo hydrolysis at high or low pH.

>  <s_lp_Force_Field>  (269) 
OPLS3e

>  <r_lp_Energy>  (269) 
388.33

>  <b_lp_Chiralities_Consistent>  (269) 
1

>  <s_lp_Variant>  (269) 
78:0-1

>  <s_i_glide_gridfile>  (269) 
pfpi4k_grid

>  <i_i_glide_lignum>  (269) 
28

>  <i_i_glide_rotatable_bonds>  (269) 
5

>  <r_i_docking_score>  (269) 
-2.93095

>  <r_i_glide_ligand_efficiency>  (269) 
-0.0862043

>  <r_i_glide_ligand_efficiency_sa>  (269) 
-0.279268

>  <r_i_glide_ligand_efficiency_ln>  (269) 
-0.647528

>  <r_i_glide_gscore>  (269) 
-2.93095

>  <r_i_glide_lipo>  (269) 
-0.0137084

>  <r_i_glide_hbond>  (269) 
0

>  <r_i_glide_metal>  (269) 
-0

>  <r_i_glide_rewards>  (269) 
-0.507157

>  <r_i_glide_evdw>  (269) 
-24.8983

>  <r_i_glide_ecoul>  (269) 
-7.76748

>  <r_i_glide_erotb>  (269) 
0

>  <r_i_glide_esite>  (269) 
-4.49016e-05

>  <r_i_glide_emodel>  (269) 
-44.1077

>  <r_i_glide_energy>  (269) 
-32.6657

>  <r_i_glide_einternal>  (269) 
2.44909

>  <r_i_glide_intrahb_reward>  (269) 
-0.5

>  <i_i_glide_confnum>  (269) 
1

>  <i_i_glide_posenum>  (269) 
23

>  <r_i_glide_eff_state_penalty>  (269) 
0

>  <ligand_id>  (269) 
78

>  <original_smiles>  (269) 
CC1(C)OC23C(O)CC(O)(C(=O)OCC4(C)C5C(O)CC26C(O)(C=CC(=O)C46C)C1C5Cl)C3O

>  <smiles>  (269) 
[H]OC1([H])C([H])([H])C23C4(O[H])C([H])=C([H])C(=O)C2(C([H])([H])[H])C2(C([H])([H])[H])C([H])([H])OC(=O)C5(O[H])C([H])([H])C([H])(O[H])C3(OC(C([H])([H])[H])(C([H])([H])[H])C4([H])C([H])(Cl)C12[H])C5([H])O[H]

$$$$
78:0:1
     RDKit          3D

 65 70  0  0  1  0  0  0  0  0999 V2000
    1.9872    0.9729    2.0167 C   0  0  0  0  0  0  0  0  0  0  0  0
    1.3462    0.8206    3.4237 C   0  0  0  0  0  0  0  0  0  0  0  0
    0.6706   -0.5837    3.3137 C   0  0  0  0  0  0  0  0  0  0  0  0
    2.5756    0.8525    4.2945 O   0  0  0  0  0  0  0  0  0  0  0  0
    2.6167    1.3480    5.7046 C   0  0  2  0  0  0  0  0  0  0  0  0
    2.9421   -0.1480    6.2476 C   0  0  1  0  0  0  0  0  0  0  0  0
    4.0538   -0.7443    5.5864 O   0  0  0  0  0  0  0  0  0  0  0  0
    3.3933   -0.0987    7.7134 C   0  0  0  0  0  0  0  0  0  0  0  0
    3.6872    1.3818    7.9939 C   0  0  2  0  0  0  0  0  0  0  0  0
    4.9694    1.5094    8.5957 O   0  0  0  0  0  0  0  0  0  0  0  0
    2.5944    1.8934    9.0134 C   0  0  0  0  0  0  0  0  0  0  0  0
    2.8849    2.5334   10.0227 O   0  0  0  0  0  0  0  0  0  0  0  0
    1.3253    1.6391    8.6188 O   0  0  0  0  0  0  0  0  0  0  0  0
    0.1593    2.4735    8.7652 C   0  0  0  0  0  0  0  0  0  0  0  0
   -0.4623    3.0928    7.4010 C   0  0  2  0  0  0  0  0  0  0  0  0
   -1.5787    3.9927    8.0321 C   0  0  0  0  0  0  0  0  0  0  0  0
   -1.2999    2.2201    6.2225 C   0  0  2  0  0  0  0  0  0  0  0  0
   -1.0057    0.8628    6.6325 C   0  0  1  0  0  0  0  0  0  0  0  0
   -1.7976   -0.1769    6.0803 O   0  0  0  0  0  0  0  0  0  0  0  0
    0.4273    0.8946    6.1995 C   0  0  0  0  0  0  0  0  0  0  0  0
    1.2823    2.3140    5.8166 C   0  0  2  0  0  0  0  0  0  0  0  0
    1.2494    3.0111    4.3480 C   0  0  2  0  0  0  0  0  0  0  0  0
    2.5599    3.3089    3.8739 O   0  0  0  0  0  0  0  0  0  0  0  0
    0.6813    4.3457    3.9370 C   0  0  0  0  0  0  0  0  0  0  0  0
    0.2159    5.2900    4.7092 C   0  0  0  0  0  0  0  0  0  0  0  0
    0.2297    5.0289    6.0922 C   0  0  0  0  0  0  0  0  0  0  0  0
   -0.1538    5.9678    6.8050 O   0  0  0  0  0  0  0  0  0  0  0  0
    0.8146    3.6821    6.7191 C   0  0  1  0  0  0  0  0  0  0  0  0
    1.8963    4.4888    7.5596 C   0  0  0  0  0  0  0  0  0  0  0  0
    0.3353    2.0562    3.6817 C   0  0  2  0  0  0  0  0  0  0  0  0
   -1.0999    2.1646    4.5442 C   0  0  2  0  0  0  0  0  0  0  0  0
   -2.1966    3.3986    3.8527 Cl  0  0  0  0  0  0  0  0  0  0  0  0
    3.7643    2.0203    6.5189 C   0  0  1  0  0  0  0  0  0  0  0  0
    5.0497    1.7449    5.9723 O   0  0  0  0  0  0  0  0  0  0  0  0
    1.2336    0.9412    1.2238 H   0  0  0  0  0  0  0  0  0  0  0  0
    2.6923    0.1606    1.8206 H   0  0  0  0  0  0  0  0  0  0  0  0
    2.5407    1.8990    1.8825 H   0  0  0  0  0  0  0  0  0  0  0  0
   -0.3654   -0.5724    3.6484 H   0  0  0  0  0  0  0  0  0  0  0  0
    1.2085   -1.3231    3.9089 H   0  0  0  0  0  0  0  0  0  0  0  0
    0.6355   -0.9758    2.2951 H   0  0  0  0  0  0  0  0  0  0  0  0
    2.1852   -0.9123    6.0816 H   0  0  0  0  0  0  0  0  0  0  0  0
    4.7440   -0.0840    5.5806 H   0  0  0  0  0  0  0  0  0  0  0  0
    2.6056   -0.5153    8.3423 H   0  0  0  0  0  0  0  0  0  0  0  0
    4.2607   -0.7387    7.9001 H   0  0  0  0  0  0  0  0  0  0  0  0
    5.5994    1.0935    8.0155 H   0  0  0  0  0  0  0  0  0  0  0  0
   -0.5995    1.9045    9.3005 H   0  0  0  0  0  0  0  0  0  0  0  0
    0.4121    3.2865    9.4489 H   0  0  0  0  0  0  0  0  0  0  0  0
   -2.1709    4.5181    7.2812 H   0  0  0  0  0  0  0  0  0  0  0  0
   -1.1801    4.7317    8.7325 H   0  0  0  0  0  0  0  0  0  0  0  0
   -2.2927    3.3884    8.5953 H   0  0  0  0  0  0  0  0  0  0  0  0
   -2.3676    2.3565    6.3985 H   0  0  0  0  0  0  0  0  0  0  0  0
   -1.1322    0.7166    7.7012 H   0  0  0  0  0  0  0  0  0  0  0  0
   -1.7677   -0.1221    5.1291 H   0  0  0  0  0  0  0  0  0  0  0  0
    0.8006    0.3027    7.0114 H   0  0  0  0  0  0  0  0  0  0  0  0
    0.4741    0.1139    5.4890 H   0  0  0  0  0  0  0  0  0  0  0  0
    2.5024    3.5287    2.9515 H   0  0  0  0  0  0  0  0  0  0  0  0
    0.6763    4.5478    2.8835 H   0  0  0  0  0  0  0  0  0  0  0  0
   -0.1496    6.2332    4.3235 H   0  0  0  0  0  0  0  0  0  0  0  0
    2.7400    4.0248    8.0124 H   0  0  0  0  0  0  0  0  0  0  0  0
    1.4454    5.0512    8.3809 H   0  0  0  0  0  0  0  0  0  0  0  0
    2.4317    5.2130    6.9391 H   0  0  0  0  0  0  0  0  0  0  0  0
    0.0548    2.3770    2.6741 H   0  0  0  0  0  0  0  0  0  0  0  0
   -1.6261    1.2814    4.1938 H   0  0  0  0  0  0  0  0  0  0  0  0
    3.7005    3.1008    6.4729 H   0  0  0  0  0  0  0  0  0  0  0  0
    5.6589    2.3501    6.3786 H   0  0  0  0  0  0  0  0  0  0  0  0
  1  2  1  0
  1 35  1  0
  1 36  1  0
  1 37  1  0
  2 30  1  0
  2  3  1  0
  2  4  1  0
  3 38  1  0
  3 39  1  0
  3 40  1  0
  5  4  1  6
  5 21  1  0
  5 33  1  0
  5  6  1  0
  6  7  1  0
  6  8  1  0
  6 41  1  1
  7 42  1  0
  8  9  1  0
  8 43  1  0
  8 44  1  0
  9 10  1  1
  9 11  1  0
  9 33  1  0
 10 45  1  0
 11 12  2  0
 11 13  1  0
 13 14  1  0
 14 15  1  0
 14 46  1  0
 14 47  1  0
 15 28  1  0
 15 16  1  1
 15 17  1  0
 16 48  1  0
 16 49  1  0
 16 50  1  0
 17 31  1  0
 17 18  1  0
 17 51  1  6
 18 19  1  0
 18 20  1  0
 18 52  1  1
 19 53  1  0
 21 20  1  6
 20 54  1  0
 20 55  1  0
 21 28  1  0
 21 22  1  0
 22 23  1  6
 22 24  1  0
 22 30  1  0
 23 56  1  0
 24 25  2  0
 24 57  1  0
 25 26  1  0
 25 58  1  0
 26 27  2  0
 26 28  1  0
 28 29  1  1
 29 59  1  0
 29 60  1  0
 29 61  1  0
 30 31  1  0
 30 62  1  6
 31 32  1  0
 31 63  1  6
 33 34  1  0
 33 64  1  1
 34 65  1  0
M  END
>  <i_m_ct_stereo_status>  (270) 
1

>  <s_m_source_file>  (270) 
/var/tmp/pbs.5076255.sched01/tmpqw5sdpkp/8220gfbieb.sdf

>  <i_m_source_file_index>  (270) 
28

>  <i_lp_mmshare_version>  (270) 
48012

>  <i_f3d_flags>  (270) 
0

>  <s_epik_input>  (270) 
W0NAQF0xMjNbQ0BAXTQ1W0NAQF02KFtPSF0pW0NAQEhdKEMoTzEpKFtDSDNdKVtDSDNdKVtDQEhdKENsKVtDQEBIXShbQ0BASF0oW09IXSlbQ0gyXTQpW0NAXShbQ0gzXSkoW0NAXTUoW0NIM10pQyg9TylbQ0hdPVtDSF02KVtDSDJdT0MoPU8pW0NAXShbT0hdKShbQ0BIXTNbT0hdKVtDSDJdW0NAQEhdMltPSF0=

>  <s_epik_cmdline>  (270) 
J2VwaWtfcHl0aG9uJywgJy1waHQnLCAnMi4wJywgJy1waCcsICc3LjAnLCAnLXRuJywgJzgnLCAnLW1hJywgJzIwMCcsICctaW1hZScsICc8aW5maWxlLm1hZT4nLCAnLW9tYWUnLCAnPG91dGZpbGUubWFlPic=

>  <r_lp_tautomer_probability>  (270) 
1

>  <r_epik_Ionization_Penalty>  (270) 
2.50212e-05

>  <r_epik_Ionization_Penalty_Charging>  (270) 
0

>  <r_epik_Ionization_Penalty_Neutral>  (270) 
2.50212e-05

>  <r_epik_State_Penalty>  (270) 
-0

>  <r_epik_Charging_Adjusted_Penalty>  (270) 
0

>  <i_epik_Tot_Q>  (270) 
0

>  <i_epik_Tot_abs_Q>  (270) 
0

>  <s_epik_Chemistry_Notes>  (270) 
This compound has an ester and may undergo hydrolysis at high or low pH.

>  <s_lp_Force_Field>  (270) 
OPLS3e

>  <r_lp_Energy>  (270) 
388.33

>  <b_lp_Chiralities_Consistent>  (270) 
1

>  <s_lp_Variant>  (270) 
78:0-1

>  <s_i_glide_gridfile>  (270) 
pfpi4k_grid

>  <i_i_glide_lignum>  (270) 
28

>  <i_i_glide_rotatable_bonds>  (270) 
5

>  <r_i_docking_score>  (270) 
-2.72621

>  <r_i_glide_ligand_efficiency>  (270) 
-0.0801826

>  <r_i_glide_ligand_efficiency_sa>  (270) 
-0.259761

>  <r_i_glide_ligand_efficiency_ln>  (270) 
-0.602296

>  <r_i_glide_gscore>  (270) 
-2.72621

>  <r_i_glide_lipo>  (270) 
0

>  <r_i_glide_hbond>  (270) 
-0.149952

>  <r_i_glide_metal>  (270) 
-0

>  <r_i_glide_rewards>  (270) 
-0.507157

>  <r_i_glide_evdw>  (270) 
-24.7429

>  <r_i_glide_ecoul>  (270) 
-5.49105

>  <r_i_glide_erotb>  (270) 
0

>  <r_i_glide_esite>  (270) 
-0.00829442

>  <r_i_glide_emodel>  (270) 
-41.9422

>  <r_i_glide_energy>  (270) 
-30.234

>  <r_i_glide_einternal>  (270) 
0.455938

>  <r_i_glide_intrahb_reward>  (270) 
-0.5

>  <i_i_glide_confnum>  (270) 
1

>  <i_i_glide_posenum>  (270) 
1

>  <r_i_glide_eff_state_penalty>  (270) 
0

>  <ligand_id>  (270) 
78

>  <original_smiles>  (270) 
CC1(C)OC23C(O)CC(O)(C(=O)OCC4(C)C5C(O)CC26C(O)(C=CC(=O)C46C)C1C5Cl)C3O

>  <smiles>  (270) 
[H]OC1([H])C([H])([H])C23C4(O[H])C([H])=C([H])C(=O)C2(C([H])([H])[H])C2(C([H])([H])[H])C([H])([H])OC(=O)C5(O[H])C([H])([H])C([H])(O[H])C3(OC(C([H])([H])[H])(C([H])([H])[H])C4([H])C([H])(Cl)C12[H])C5([H])O[H]

$$$$
78:0:2
     RDKit          3D

 65 70  0  0  1  0  0  0  0  0999 V2000
   -2.2578    3.2767    3.4351 C   0  0  0  0  0  0  0  0  0  0  0  0
   -0.8665    3.3888    4.1190 C   0  0  0  0  0  0  0  0  0  0  0  0
   -0.4611    4.8607    3.7834 C   0  0  0  0  0  0  0  0  0  0  0  0
   -1.2431    3.1590    5.5613 O   0  0  0  0  0  0  0  0  0  0  0  0
   -0.3511    2.5413    6.5927 C   0  0  2  0  0  0  0  0  0  0  0  0
   -0.2936    3.9376    7.4139 C   0  0  1  0  0  0  0  0  0  0  0  0
   -1.6005    4.4068    7.7324 O   0  0  0  0  0  0  0  0  0  0  0  0
    0.3225    3.7375    8.8015 C   0  0  0  0  0  0  0  0  0  0  0  0
    0.3175    2.2187    9.0114 C   0  0  2  0  0  0  0  0  0  0  0  0
   -0.2440    1.9168   10.2793 O   0  0  0  0  0  0  0  0  0  0  0  0
    1.8273    1.7451    9.0168 C   0  0  0  0  0  0  0  0  0  0  0  0
    2.2807    0.9992    9.8786 O   0  0  0  0  0  0  0  0  0  0  0  0
    2.5290    2.1634    7.9389 O   0  0  0  0  0  0  0  0  0  0  0  0
    3.5387    1.4486    7.1991 C   0  0  0  0  0  0  0  0  0  0  0  0
    3.1471    1.0100    5.6885 C   0  0  2  0  0  0  0  0  0  0  0  0
    4.4316    0.1854    5.3337 C   0  0  0  0  0  0  0  0  0  0  0  0
    2.9980    2.0632    4.3777 C   0  0  2  0  0  0  0  0  0  0  0  0
    3.0010    3.3466    5.0473 C   0  0  1  0  0  0  0  0  0  0  0  0
    3.2107    4.5049    4.2590 O   0  0  0  0  0  0  0  0  0  0  0  0
    1.6299    3.1942    5.6313 C   0  0  0  0  0  0  0  0  0  0  0  0
    0.7717    1.7228    5.7004 C   0  0  2  0  0  0  0  0  0  0  0  0
   -0.1350    1.1526    4.4766 C   0  0  2  0  0  0  0  0  0  0  0  0
   -1.4346    0.7560    4.9143 O   0  0  0  0  0  0  0  0  0  0  0  0
    0.0699   -0.0729    3.6217 C   0  0  0  0  0  0  0  0  0  0  0  0
    0.9559   -1.0179    3.7901 C   0  0  0  0  0  0  0  0  0  0  0  0
    1.8290   -0.8785    4.8885 C   0  0  0  0  0  0  0  0  0  0  0  0
    2.5956   -1.8303    5.0828 O   0  0  0  0  0  0  0  0  0  0  0  0
    1.7508    0.3488    5.9122 C   0  0  1  0  0  0  0  0  0  0  0  0
    1.4943   -0.6363    7.1355 C   0  0  0  0  0  0  0  0  0  0  0  0
    0.1090    2.2506    3.5140 C   0  0  2  0  0  0  0  0  0  0  0  0
    1.7628    2.2250    3.2414 C   0  0  2  0  0  0  0  0  0  0  0  0
    2.1963    1.1384    1.8866 Cl  0  0  0  0  0  0  0  0  0  0  0  0
   -0.6692    1.6779    7.8561 C   0  0  1  0  0  0  0  0  0  0  0  0
   -2.0257    1.7594    8.2679 O   0  0  0  0  0  0  0  0  0  0  0  0
   -2.1881    3.4492    2.3592 H   0  0  0  0  0  0  0  0  0  0  0  0
   -2.9425    4.0218    3.8384 H   0  0  0  0  0  0  0  0  0  0  0  0
   -2.7413    2.3117    3.5670 H   0  0  0  0  0  0  0  0  0  0  0  0
    0.5475    4.9275    3.3753 H   0  0  0  0  0  0  0  0  0  0  0  0
   -0.5048    5.4920    4.6724 H   0  0  0  0  0  0  0  0  0  0  0  0
   -1.0872    5.3264    3.0224 H   0  0  0  0  0  0  0  0  0  0  0  0
    0.1408    4.8024    6.9062 H   0  0  0  0  0  0  0  0  0  0  0  0
   -1.5007    5.1749    8.2839 H   0  0  0  0  0  0  0  0  0  0  0  0
    1.3189    4.1830    8.8311 H   0  0  0  0  0  0  0  0  0  0  0  0
   -0.2301    4.2607    9.5862 H   0  0  0  0  0  0  0  0  0  0  0  0
   -1.1354    2.2606   10.3144 H   0  0  0  0  0  0  0  0  0  0  0  0
    4.4456    2.0494    7.1924 H   0  0  0  0  0  0  0  0  0  0  0  0
    3.8114    0.5590    7.7723 H   0  0  0  0  0  0  0  0  0  0  0  0
    4.4122   -0.2135    4.3159 H   0  0  0  0  0  0  0  0  0  0  0  0
    4.6039   -0.6449    6.0237 H   0  0  0  0  0  0  0  0  0  0  0  0
    5.3205    0.8172    5.3834 H   0  0  0  0  0  0  0  0  0  0  0  0
    3.9267    2.0192    3.8097 H   0  0  0  0  0  0  0  0  0  0  0  0
    3.7910    3.4220    5.7915 H   0  0  0  0  0  0  0  0  0  0  0  0
    2.6264    4.4946    3.5065 H   0  0  0  0  0  0  0  0  0  0  0  0
    1.8537    3.6770    6.5634 H   0  0  0  0  0  0  0  0  0  0  0  0
    1.1130    4.0176    5.2216 H   0  0  0  0  0  0  0  0  0  0  0  0
   -2.0192    0.7957    4.1640 H   0  0  0  0  0  0  0  0  0  0  0  0
   -0.6015   -0.1614    2.7767 H   0  0  0  0  0  0  0  0  0  0  0  0
    1.0424   -1.8761    3.1358 H   0  0  0  0  0  0  0  0  0  0  0  0
    1.1305   -0.3062    8.0789 H   0  0  0  0  0  0  0  0  0  0  0  0
    2.3872   -1.2059    7.3993 H   0  0  0  0  0  0  0  0  0  0  0  0
    0.7098   -1.3645    6.9089 H   0  0  0  0  0  0  0  0  0  0  0  0
   -0.3111    2.0519    2.5255 H   0  0  0  0  0  0  0  0  0  0  0  0
    1.9108    3.1778    2.7372 H   0  0  0  0  0  0  0  0  0  0  0  0
   -0.5834    0.6289    7.6263 H   0  0  0  0  0  0  0  0  0  0  0  0
   -2.2241    2.6904    8.3722 H   0  0  0  0  0  0  0  0  0  0  0  0
  1  2  1  0
  1 35  1  0
  1 36  1  0
  1 37  1  0
  2 30  1  0
  2  3  1  0
  2  4  1  0
  3 38  1  0
  3 39  1  0
  3 40  1  0
  5  4  1  6
  5 21  1  0
  5 33  1  0
  5  6  1  0
  6  7  1  0
  6  8  1  0
  6 41  1  6
  7 42  1  0
  8  9  1  0
  8 43  1  0
  8 44  1  0
  9 10  1  1
  9 11  1  0
  9 33  1  0
 10 45  1  0
 11 12  2  0
 11 13  1  0
 13 14  1  0
 14 15  1  0
 14 46  1  0
 14 47  1  0
 15 28  1  0
 15 16  1  6
 15 17  1  0
 16 48  1  0
 16 49  1  0
 16 50  1  0
 17 31  1  0
 17 18  1  0
 17 51  1  6
 18 19  1  0
 18 20  1  0
 18 52  1  1
 19 53  1  0
 21 20  1  6
 20 54  1  0
 20 55  1  0
 21 28  1  0
 21 22  1  0
 22 23  1  1
 22 24  1  0
 22 30  1  0
 23 56  1  0
 24 25  2  0
 24 57  1  0
 25 26  1  0
 25 58  1  0
 26 27  2  0
 26 28  1  0
 28 29  1  1
 29 59  1  0
 29 60  1  0
 29 61  1  0
 30 31  1  0
 30 62  1  6
 31 32  1  0
 31 63  1  6
 33 34  1  0
 33 64  1  6
 34 65  1  0
M  END
>  <i_m_ct_stereo_status>  (271) 
1

>  <s_m_source_file>  (271) 
/var/tmp/pbs.5076255.sched01/tmpqw5sdpkp/8220gfbieb.sdf

>  <i_m_source_file_index>  (271) 
28

>  <i_lp_mmshare_version>  (271) 
48012

>  <i_f3d_flags>  (271) 
0

>  <s_epik_input>  (271) 
W0NAQF0xMjNbQ0BAXTQ1W0NAQF02KFtPSF0pW0NAQEhdKEMoTzEpKFtDSDNdKVtDSDNdKVtDQEhdKENsKVtDQEBIXShbQ0BASF0oW09IXSlbQ0gyXTQpW0NAXShbQ0gzXSkoW0NAXTUoW0NIM10pQyg9TylbQ0hdPVtDSF02KVtDSDJdT0MoPU8pW0NAXShbT0hdKShbQ0BIXTNbT0hdKVtDSDJdW0NAQEhdMltPSF0=

>  <s_epik_cmdline>  (271) 
J2VwaWtfcHl0aG9uJywgJy1waHQnLCAnMi4wJywgJy1waCcsICc3LjAnLCAnLXRuJywgJzgnLCAnLW1hJywgJzIwMCcsICctaW1hZScsICc8aW5maWxlLm1hZT4nLCAnLW9tYWUnLCAnPG91dGZpbGUubWFlPic=

>  <r_lp_tautomer_probability>  (271) 
1

>  <r_epik_Ionization_Penalty>  (271) 
2.50212e-05

>  <r_epik_Ionization_Penalty_Charging>  (271) 
0

>  <r_epik_Ionization_Penalty_Neutral>  (271) 
2.50212e-05

>  <r_epik_State_Penalty>  (271) 
-0

>  <r_epik_Charging_Adjusted_Penalty>  (271) 
0

>  <i_epik_Tot_Q>  (271) 
0

>  <i_epik_Tot_abs_Q>  (271) 
0

>  <s_epik_Chemistry_Notes>  (271) 
This compound has an ester and may undergo hydrolysis at high or low pH.

>  <s_lp_Force_Field>  (271) 
OPLS3e

>  <r_lp_Energy>  (271) 
388.33

>  <b_lp_Chiralities_Consistent>  (271) 
1

>  <s_lp_Variant>  (271) 
78:0-1

>  <s_i_glide_gridfile>  (271) 
pfpi4k_grid

>  <i_i_glide_lignum>  (271) 
28

>  <i_i_glide_rotatable_bonds>  (271) 
5

>  <r_i_docking_score>  (271) 
-2.69565

>  <r_i_glide_ligand_efficiency>  (271) 
-0.0792839

>  <r_i_glide_ligand_efficiency_sa>  (271) 
-0.256849

>  <r_i_glide_ligand_efficiency_ln>  (271) 
-0.595545

>  <r_i_glide_gscore>  (271) 
-2.69565

>  <r_i_glide_lipo>  (271) 
-0.0146197

>  <r_i_glide_hbond>  (271) 
0

>  <r_i_glide_metal>  (271) 
-0

>  <r_i_glide_rewards>  (271) 
-0.507157

>  <r_i_glide_evdw>  (271) 
-25.8741

>  <r_i_glide_ecoul>  (271) 
-5.86736

>  <r_i_glide_erotb>  (271) 
0

>  <r_i_glide_esite>  (271) 
-6.50321e-05

>  <r_i_glide_emodel>  (271) 
-43.4059

>  <r_i_glide_energy>  (271) 
-31.7415

>  <r_i_glide_einternal>  (271) 
0.861903

>  <r_i_glide_intrahb_reward>  (271) 
-0.5

>  <i_i_glide_confnum>  (271) 
1

>  <i_i_glide_posenum>  (271) 
6

>  <r_i_glide_eff_state_penalty>  (271) 
0

>  <ligand_id>  (271) 
78

>  <original_smiles>  (271) 
CC1(C)OC23C(O)CC(O)(C(=O)OCC4(C)C5C(O)CC26C(O)(C=CC(=O)C46C)C1C5Cl)C3O

>  <smiles>  (271) 
[H]OC1([H])C([H])([H])C23C4(O[H])C([H])=C([H])C(=O)C2(C([H])([H])[H])C2(C([H])([H])[H])C([H])([H])OC(=O)C5(O[H])C([H])([H])C([H])(O[H])C3(OC(C([H])([H])[H])(C([H])([H])[H])C4([H])C([H])(Cl)C12[H])C5([H])O[H]

$$$$
82:0:0
     RDKit          3D

 47 52  0  0  1  0  0  0  0  0999 V2000
   -3.8695    3.7384    2.5707 C   0  0  0  0  0  0  0  0  0  0  0  0
   -3.4342    3.0910    3.8719 C   0  0  0  0  0  0  0  0  0  0  0  0
   -2.2650    3.1673    4.5488 C   0  0  0  0  0  0  0  0  0  0  0  0
   -1.1110    4.0281    4.1774 C   0  0  0  0  0  0  0  0  0  0  0  0
   -1.0607    5.0099    3.4534 O   0  0  0  0  0  0  0  0  0  0  0  0
   -0.0131    3.5885    5.1188 C   0  0  1  0  0  0  0  0  0  0  0  0
   -0.9274    3.5749    6.4063 C   0  0  0  0  0  0  0  0  0  0  0  0
   -1.9937    2.5598    5.9364 C   0  0  2  0  0  0  0  0  0  0  0  0
   -1.3083    1.1362    5.9197 C   0  0  0  0  0  0  0  0  0  0  0  0
   -1.9049    0.0860    6.1115 O   0  0  0  0  0  0  0  0  0  0  0  0
    0.2036    1.2980    5.6851 C   0  0  2  0  0  0  0  0  0  0  0  0
    0.3784    2.2154    4.5194 C   0  0  2  0  0  0  0  0  0  0  0  0
    1.8613    2.2752    4.1529 C   0  0  1  0  0  0  0  0  0  0  0  0
    2.1642    3.7585    3.9961 C   0  0  0  0  0  0  0  0  0  0  0  0
    1.4465    4.1059    5.2855 C   0  0  2  0  0  0  0  0  0  0  0  0
    2.1107    3.1535    6.1830 O   0  0  0  0  0  0  0  0  0  0  0  0
    2.4052    1.8768    5.4983 C   0  0  1  0  0  0  0  0  0  0  0  0
    1.5254    0.5844    5.8197 C   0  0  1  0  0  0  0  0  0  0  0  0
    1.8294    0.1484    7.1288 O   0  0  0  0  0  0  0  0  0  0  0  0
    1.8083   -0.5782    4.8250 C   0  0  1  0  0  0  0  0  0  0  0  0
    0.7550   -1.5300    4.9431 O   0  0  0  0  0  0  0  0  0  0  0  0
    1.0867   -2.8595    4.5709 C   0  0  0  0  0  0  0  0  0  0  0  0
    1.8771   -0.1456    3.3312 C   0  0  0  0  0  0  0  0  0  0  0  0
    2.3331    1.3063    3.0626 C   0  0  1  0  0  0  0  0  0  0  0  0
    1.7987    1.7081    1.8173 O   0  0  0  0  0  0  0  0  0  0  0  0
   -4.3079    2.9866    1.9153 H   0  0  0  0  0  0  0  0  0  0  0  0
   -3.0328    4.2249    2.0710 H   0  0  0  0  0  0  0  0  0  0  0  0
   -4.6522    4.4798    2.7238 H   0  0  0  0  0  0  0  0  0  0  0  0
   -4.2097    2.5578    4.3658 H   0  0  0  0  0  0  0  0  0  0  0  0
   -0.4290    3.3419    7.3587 H   0  0  0  0  0  0  0  0  0  0  0  0
   -1.3631    4.5617    6.5828 H   0  0  0  0  0  0  0  0  0  0  0  0
   -2.8815    2.5764    6.5765 H   0  0  0  0  0  0  0  0  0  0  0  0
    0.4040    1.7720    6.6331 H   0  0  0  0  0  0  0  0  0  0  0  0
   -0.1880    1.8754    3.6492 H   0  0  0  0  0  0  0  0  0  0  0  0
    3.2323    3.9843    4.0172 H   0  0  0  0  0  0  0  0  0  0  0  0
    1.7098    4.2101    3.1047 H   0  0  0  0  0  0  0  0  0  0  0  0
    1.5233    5.1437    5.5910 H   0  0  0  0  0  0  0  0  0  0  0  0
    3.4752    1.6820    5.4858 H   0  0  0  0  0  0  0  0  0  0  0  0
    2.7420   -0.0889    7.1409 H   0  0  0  0  0  0  0  0  0  0  0  0
    2.7645   -1.0189    5.1059 H   0  0  0  0  0  0  0  0  0  0  0  0
    0.1805   -3.4651    4.4716 H   0  0  0  0  0  0  0  0  0  0  0  0
    1.7167   -3.3131    5.3368 H   0  0  0  0  0  0  0  0  0  0  0  0
    1.6188   -2.9022    3.6198 H   0  0  0  0  0  0  0  0  0  0  0  0
    2.5248   -0.8234    2.7718 H   0  0  0  0  0  0  0  0  0  0  0  0
    0.8852   -0.2728    2.8910 H   0  0  0  0  0  0  0  0  0  0  0  0
    3.4177    1.3566    3.0306 H   0  0  0  0  0  0  0  0  0  0  0  0
    1.3692    2.5520    1.8924 H   0  0  0  0  0  0  0  0  0  0  0  0
  1  2  1  0
  1 26  1  0
  1 27  1  0
  1 28  1  0
  2  3  2  3
  2 29  1  0
  3  8  1  0
  3  4  1  0
  4  5  2  0
  6  4  1  6
  6 12  1  0
  6 15  1  0
  6  7  1  0
  7  8  1  0
  7 30  1  0
  7 31  1  0
  8  9  1  0
  8 32  1  1
  9 10  2  0
  9 11  1  0
 11 18  1  0
 11 12  1  0
 11 33  1  1
 12 13  1  0
 12 34  1  6
 13 17  1  0
 13 24  1  0
 13 14  1  6
 14 15  1  0
 14 35  1  0
 14 36  1  0
 15 16  1  0
 15 37  1  1
 16 17  1  0
 17 18  1  0
 17 38  1  6
 18 19  1  1
 18 20  1  0
 19 39  1  0
 20 21  1  0
 20 23  1  0
 20 40  1  1
 21 22  1  0
 22 41  1  0
 22 42  1  0
 22 43  1  0
 23 24  1  0
 23 44  1  0
 23 45  1  0
 24 25  1  0
 24 46  1  6
 25 47  1  0
M  END
>  <i_m_ct_stereo_status>  (272) 
1

>  <s_m_source_file>  (272) 
/var/tmp/pbs.5076255.sched01/tmpqw5sdpkp/8220gfbieb.sdf

>  <i_m_source_file_index>  (272) 
32

>  <i_lp_mmshare_version>  (272) 
48012

>  <i_f3d_flags>  (272) 
0

>  <s_epik_input>  (272) 
W0NIM10vW0NIXT1DKFxDMT1PKVtDQEhdKFtDSDJdMilDKD1PKVtDQEhdM1tDQF0oW09IXSkoW0NAQEhdKFtDQEBdNDVbQ0BASF0zW0NAQF0xMjYpT1tDQEhdNltDSDJdNClbQ0BASF0oT1tDSDNdKVtDSDJdW0NASF01W09IXQ==

>  <s_epik_cmdline>  (272) 
J2VwaWtfcHl0aG9uJywgJy1waHQnLCAnMi4wJywgJy1waCcsICc3LjAnLCAnLXRuJywgJzgnLCAnLW1hJywgJzIwMCcsICctaW1hZScsICc8aW5maWxlLm1hZT4nLCAnLW9tYWUnLCAnPG91dGZpbGUubWFlPic=

>  <r_lp_tautomer_probability>  (272) 
1

>  <r_epik_Ionization_Penalty>  (272) 
1.55601e-06

>  <r_epik_Ionization_Penalty_Charging>  (272) 
0

>  <r_epik_Ionization_Penalty_Neutral>  (272) 
1.55601e-06

>  <r_epik_State_Penalty>  (272) 
-0

>  <r_epik_Charging_Adjusted_Penalty>  (272) 
0

>  <i_epik_Tot_Q>  (272) 
0

>  <i_epik_Tot_abs_Q>  (272) 
0

>  <s_lp_Force_Field>  (272) 
OPLS3e

>  <r_lp_Energy>  (272) 
105.883

>  <b_lp_Chiralities_Consistent>  (272) 
1

>  <s_lp_Variant>  (272) 
82:0-1

>  <s_i_glide_gridfile>  (272) 
pfpi4k_grid

>  <i_i_glide_lignum>  (272) 
32

>  <i_i_glide_rotatable_bonds>  (272) 
3

>  <r_i_docking_score>  (272) 
-3.29365

>  <r_i_glide_ligand_efficiency>  (272) 
-0.131746

>  <r_i_glide_ligand_efficiency_sa>  (272) 
-0.385227

>  <r_i_glide_ligand_efficiency_ln>  (272) 
-0.780693

>  <r_i_glide_gscore>  (272) 
-3.29365

>  <r_i_glide_lipo>  (272) 
-0.306895

>  <r_i_glide_hbond>  (272) 
-0.319578

>  <r_i_glide_metal>  (272) 
-0

>  <r_i_glide_rewards>  (272) 
-1.04745

>  <r_i_glide_evdw>  (272) 
-13.7927

>  <r_i_glide_ecoul>  (272) 
-5.51323

>  <r_i_glide_erotb>  (272) 
0

>  <r_i_glide_esite>  (272) 
-0.103104

>  <r_i_glide_emodel>  (272) 
-22.4733

>  <r_i_glide_energy>  (272) 
-19.306

>  <r_i_glide_einternal>  (272) 
1.81599

>  <r_i_glide_intrahb_reward>  (272) 
-0

>  <i_i_glide_confnum>  (272) 
2

>  <i_i_glide_posenum>  (272) 
29

>  <r_i_glide_eff_state_penalty>  (272) 
0

>  <ligand_id>  (272) 
82

>  <original_smiles>  (272) 
CC=C1C(=O)C23CC1C(=O)C1C2C24CC3OC2C1(O)C(OC)CC4O

>  <smiles>  (272) 
[H]OC1([H])C([H])([H])C([H])(OC([H])([H])[H])C2(O[H])C3([H])OC4([H])C([H])([H])C13C1([H])C2([H])C(=O)C2([H])C(=C([H])C([H])([H])[H])C(=O)C41C2([H])[H]

$$$$
82:0:1
     RDKit          3D

 47 52  0  0  1  0  0  0  0  0999 V2000
   -3.5983    3.9756    2.4365 C   0  0  0  0  0  0  0  0  0  0  0  0
   -3.3484    3.1472    3.6896 C   0  0  0  0  0  0  0  0  0  0  0  0
   -2.2577    3.1152    4.4892 C   0  0  0  0  0  0  0  0  0  0  0  0
   -1.0534    3.9914    4.3758 C   0  0  0  0  0  0  0  0  0  0  0  0
   -0.8911    5.0165    3.7220 O   0  0  0  0  0  0  0  0  0  0  0  0
   -0.0680    3.4216    5.3770 C   0  0  1  0  0  0  0  0  0  0  0  0
   -1.1253    3.2493    6.5272 C   0  0  0  0  0  0  0  0  0  0  0  0
   -2.1261    2.3115    5.8116 C   0  0  2  0  0  0  0  0  0  0  0  0
   -1.4293    0.8951    5.6786 C   0  0  0  0  0  0  0  0  0  0  0  0
   -2.0258   -0.1824    5.7012 O   0  0  0  0  0  0  0  0  0  0  0  0
    0.0978    1.0763    5.6387 C   0  0  2  0  0  0  0  0  0  0  0  0
    0.4001    2.1484    4.6421 C   0  0  2  0  0  0  0  0  0  0  0  0
    1.9181    2.2428    4.4688 C   0  0  1  0  0  0  0  0  0  0  0  0
    2.2332    3.7222    4.5532 C   0  0  0  0  0  0  0  0  0  0  0  0
    1.3564    3.8996    5.7816 C   0  0  2  0  0  0  0  0  0  0  0  0
    1.9234    2.8302    6.6134 O   0  0  0  0  0  0  0  0  0  0  0  0
    2.3040    1.6555    5.8091 C   0  0  1  0  0  0  0  0  0  0  0  0
    1.3969    0.3396    5.8360 C   0  0  1  0  0  0  0  0  0  0  0  0
    1.5445   -0.2764    7.1030 O   0  0  0  0  0  0  0  0  0  0  0  0
    1.8053   -0.6774    4.7270 C   0  0  1  0  0  0  0  0  0  0  0  0
    0.7472   -1.6257    4.5891 O   0  0  0  0  0  0  0  0  0  0  0  0
    1.1129   -2.8554    3.9718 C   0  0  0  0  0  0  0  0  0  0  0  0
    2.0450   -0.0415    3.3259 C   0  0  0  0  0  0  0  0  0  0  0  0
    2.5288    1.4237    3.3204 C   0  0  1  0  0  0  0  0  0  0  0  0
    2.2126    2.0094    2.0833 O   0  0  0  0  0  0  0  0  0  0  0  0
   -3.9555    3.3143    1.6468 H   0  0  0  0  0  0  0  0  0  0  0  0
   -2.7094    4.4843    2.0851 H   0  0  0  0  0  0  0  0  0  0  0  0
   -4.3836    4.7168    2.5741 H   0  0  0  0  0  0  0  0  0  0  0  0
   -4.1752    2.5518    3.9777 H   0  0  0  0  0  0  0  0  0  0  0  0
   -0.7479    2.8883    7.4855 H   0  0  0  0  0  0  0  0  0  0  0  0
   -1.5982    4.2046    6.7826 H   0  0  0  0  0  0  0  0  0  0  0  0
   -3.0716    2.2524    6.3474 H   0  0  0  0  0  0  0  0  0  0  0  0
    0.1738    1.4168    6.6625 H   0  0  0  0  0  0  0  0  0  0  0  0
   -0.0538    1.9322    3.6701 H   0  0  0  0  0  0  0  0  0  0  0  0
    3.2883    3.9349    4.7387 H   0  0  0  0  0  0  0  0  0  0  0  0
    1.8902    4.2930    3.6903 H   0  0  0  0  0  0  0  0  0  0  0  0
    1.3951    4.8871    6.2398 H   0  0  0  0  0  0  0  0  0  0  0  0
    3.3687    1.4530    5.8958 H   0  0  0  0  0  0  0  0  0  0  0  0
    2.4497   -0.5271    7.1928 H   0  0  0  0  0  0  0  0  0  0  0  0
    2.7181   -1.1711    5.0592 H   0  0  0  0  0  0  0  0  0  0  0  0
    0.2159   -3.4138    3.7042 H   0  0  0  0  0  0  0  0  0  0  0  0
    1.7020   -3.4621    4.6607 H   0  0  0  0  0  0  0  0  0  0  0  0
    1.6894   -2.7097    3.0585 H   0  0  0  0  0  0  0  0  0  0  0  0
    2.7637   -0.6436    2.7639 H   0  0  0  0  0  0  0  0  0  0  0  0
    1.1139   -0.0989    2.7612 H   0  0  0  0  0  0  0  0  0  0  0  0
    3.6133    1.4445    3.4364 H   0  0  0  0  0  0  0  0  0  0  0  0
    1.2977    2.2522    2.0529 H   0  0  0  0  0  0  0  0  0  0  0  0
  1  2  1  0
  1 26  1  0
  1 27  1  0
  1 28  1  0
  2  3  2  3
  2 29  1  0
  3  8  1  0
  3  4  1  0
  4  5  2  0
  6  4  1  6
  6 12  1  0
  6 15  1  0
  6  7  1  0
  7  8  1  0
  7 30  1  0
  7 31  1  0
  8  9  1  0
  8 32  1  1
  9 10  2  0
  9 11  1  0
 11 18  1  0
 11 12  1  0
 11 33  1  1
 12 13  1  0
 12 34  1  6
 13 17  1  0
 13 24  1  0
 13 14  1  1
 14 15  1  0
 14 35  1  0
 14 36  1  0
 15 16  1  0
 15 37  1  1
 16 17  1  0
 17 18  1  0
 17 38  1  6
 18 19  1  1
 18 20  1  0
 19 39  1  0
 20 21  1  0
 20 23  1  0
 20 40  1  1
 21 22  1  0
 22 41  1  0
 22 42  1  0
 22 43  1  0
 23 24  1  0
 23 44  1  0
 23 45  1  0
 24 25  1  0
 24 46  1  1
 25 47  1  0
M  END
>  <i_m_ct_stereo_status>  (273) 
1

>  <s_m_source_file>  (273) 
/var/tmp/pbs.5076255.sched01/tmpqw5sdpkp/8220gfbieb.sdf

>  <i_m_source_file_index>  (273) 
32

>  <i_lp_mmshare_version>  (273) 
48012

>  <i_f3d_flags>  (273) 
0

>  <s_epik_input>  (273) 
W0NIM10vW0NIXT1DKFxDMT1PKVtDQEhdKFtDSDJdMilDKD1PKVtDQEhdM1tDQF0oW09IXSkoW0NAQEhdKFtDQEBdNDVbQ0BASF0zW0NAQF0xMjYpT1tDQEhdNltDSDJdNClbQ0BASF0oT1tDSDNdKVtDSDJdW0NASF01W09IXQ==

>  <s_epik_cmdline>  (273) 
J2VwaWtfcHl0aG9uJywgJy1waHQnLCAnMi4wJywgJy1waCcsICc3LjAnLCAnLXRuJywgJzgnLCAnLW1hJywgJzIwMCcsICctaW1hZScsICc8aW5maWxlLm1hZT4nLCAnLW9tYWUnLCAnPG91dGZpbGUubWFlPic=

>  <r_lp_tautomer_probability>  (273) 
1

>  <r_epik_Ionization_Penalty>  (273) 
1.55601e-06

>  <r_epik_Ionization_Penalty_Charging>  (273) 
0

>  <r_epik_Ionization_Penalty_Neutral>  (273) 
1.55601e-06

>  <r_epik_State_Penalty>  (273) 
-0

>  <r_epik_Charging_Adjusted_Penalty>  (273) 
0

>  <i_epik_Tot_Q>  (273) 
0

>  <i_epik_Tot_abs_Q>  (273) 
0

>  <s_lp_Force_Field>  (273) 
OPLS3e

>  <r_lp_Energy>  (273) 
105.883

>  <b_lp_Chiralities_Consistent>  (273) 
1

>  <s_lp_Variant>  (273) 
82:0-1

>  <s_i_glide_gridfile>  (273) 
pfpi4k_grid

>  <i_i_glide_lignum>  (273) 
32

>  <i_i_glide_rotatable_bonds>  (273) 
3

>  <r_i_docking_score>  (273) 
-2.94496

>  <r_i_glide_ligand_efficiency>  (273) 
-0.117798

>  <r_i_glide_ligand_efficiency_sa>  (273) 
-0.344445

>  <r_i_glide_ligand_efficiency_ln>  (273) 
-0.698044

>  <r_i_glide_gscore>  (273) 
-2.94496

>  <r_i_glide_lipo>  (273) 
-0.140751

>  <r_i_glide_hbond>  (273) 
-0.208015

>  <r_i_glide_metal>  (273) 
-0

>  <r_i_glide_rewards>  (273) 
-1.04745

>  <r_i_glide_evdw>  (273) 
-17.1216

>  <r_i_glide_ecoul>  (273) 
-3.99425

>  <r_i_glide_erotb>  (273) 
0

>  <r_i_glide_esite>  (273) 
-0.0935291

>  <r_i_glide_emodel>  (273) 
-24.5434

>  <r_i_glide_energy>  (273) 
-21.1159

>  <r_i_glide_einternal>  (273) 
0.352722

>  <r_i_glide_intrahb_reward>  (273) 
-0

>  <i_i_glide_confnum>  (273) 
1

>  <i_i_glide_posenum>  (273) 
1

>  <r_i_glide_eff_state_penalty>  (273) 
0

>  <ligand_id>  (273) 
82

>  <original_smiles>  (273) 
CC=C1C(=O)C23CC1C(=O)C1C2C24CC3OC2C1(O)C(OC)CC4O

>  <smiles>  (273) 
[H]OC1([H])C([H])([H])C([H])(OC([H])([H])[H])C2(O[H])C3([H])OC4([H])C([H])([H])C13C1([H])C2([H])C(=O)C2([H])C(=C([H])C([H])([H])[H])C(=O)C41C2([H])[H]

$$$$
82:0:2
     RDKit          3D

 47 52  0  0  1  0  0  0  0  0999 V2000
   -3.0508    4.2025    2.5307 C   0  0  0  0  0  0  0  0  0  0  0  0
   -2.9856    3.2773    3.7331 C   0  0  0  0  0  0  0  0  0  0  0  0
   -1.9710    3.1017    4.6020 C   0  0  0  0  0  0  0  0  0  0  0  0
   -0.6805    3.8706    4.6364 C   0  0  0  0  0  0  0  0  0  0  0  0
   -0.3653    4.9163    4.0637 O   0  0  0  0  0  0  0  0  0  0  0  0
    0.1698    3.1482    5.6676 C   0  0  1  0  0  0  0  0  0  0  0  0
   -0.9861    3.0124    6.7198 C   0  0  0  0  0  0  0  0  0  0  0  0
   -2.0052    2.2097    5.8732 C   0  0  2  0  0  0  0  0  0  0  0  0
   -1.4290    0.7456    5.6981 C   0  0  0  0  0  0  0  0  0  0  0  0
   -2.1143   -0.2743    5.6199 O   0  0  0  0  0  0  0  0  0  0  0  0
    0.1055    0.7864    5.7848 C   0  0  2  0  0  0  0  0  0  0  0  0
    0.5859    1.8827    4.8867 C   0  0  2  0  0  0  0  0  0  0  0  0
    2.1173    1.8427    4.8469 C   0  0  1  0  0  0  0  0  0  0  0  0
    2.5532    3.2780    5.0521 C   0  0  0  0  0  0  0  0  0  0  0  0
    1.5944    3.4648    6.2151 C   0  0  2  0  0  0  0  0  0  0  0  0
    1.9988    2.3031    7.0186 O   0  0  0  0  0  0  0  0  0  0  0  0
    2.3324    1.1465    6.1708 C   0  0  1  0  0  0  0  0  0  0  0  0
    1.3110   -0.0723    6.0521 C   0  0  1  0  0  0  0  0  0  0  0  0
    1.3259   -0.7353    7.3057 O   0  0  0  0  0  0  0  0  0  0  0  0
    1.7091   -1.0632    4.9125 C   0  0  1  0  0  0  0  0  0  0  0  0
    0.6281   -1.9204    4.5412 O   0  0  0  0  0  0  0  0  0  0  0  0
    0.3186   -2.9752    5.4420 C   0  0  0  0  0  0  0  0  0  0  0  0
    2.1263   -0.3774    3.5805 C   0  0  0  0  0  0  0  0  0  0  0  0
    2.7630    1.0252    3.7100 C   0  0  1  0  0  0  0  0  0  0  0  0
    2.6172    1.7035    2.4795 O   0  0  0  0  0  0  0  0  0  0  0  0
   -3.4146    3.6314    1.6776 H   0  0  0  0  0  0  0  0  0  0  0  0
   -2.0876    4.6336    2.2692 H   0  0  0  0  0  0  0  0  0  0  0  0
   -3.7516    5.0194    2.6871 H   0  0  0  0  0  0  0  0  0  0  0  0
   -3.8928    2.7211    3.8970 H   0  0  0  0  0  0  0  0  0  0  0  0
   -0.7275    2.5549    7.6770 H   0  0  0  0  0  0  0  0  0  0  0  0
   -1.3944    3.9882    7.0070 H   0  0  0  0  0  0  0  0  0  0  0  0
   -2.9952    2.2024    6.3236 H   0  0  0  0  0  0  0  0  0  0  0  0
    0.1213    1.0605    6.8317 H   0  0  0  0  0  0  0  0  0  0  0  0
    0.2032    1.7688    3.8679 H   0  0  0  0  0  0  0  0  0  0  0  0
    3.6025    3.3802    5.3354 H   0  0  0  0  0  0  0  0  0  0  0  0
    2.3334    3.9293    4.2078 H   0  0  0  0  0  0  0  0  0  0  0  0
    1.6812    4.4131    6.7441 H   0  0  0  0  0  0  0  0  0  0  0  0
    3.3632    0.8354    6.3252 H   0  0  0  0  0  0  0  0  0  0  0  0
    2.1896   -1.0932    7.4306 H   0  0  0  0  0  0  0  0  0  0  0  0
    2.5576   -1.6576    5.2483 H   0  0  0  0  0  0  0  0  0  0  0  0
   -0.3739   -3.6689    4.9637 H   0  0  0  0  0  0  0  0  0  0  0  0
   -0.1625   -2.6085    6.3490 H   0  0  0  0  0  0  0  0  0  0  0  0
    1.2145   -3.5331    5.7133 H   0  0  0  0  0  0  0  0  0  0  0  0
    2.8155   -1.0290    3.0367 H   0  0  0  0  0  0  0  0  0  0  0  0
    1.2447   -0.2974    2.9415 H   0  0  0  0  0  0  0  0  0  0  0  0
    3.8327    0.9303    3.9175 H   0  0  0  0  0  0  0  0  0  0  0  0
    3.1995    2.4522    2.4764 H   0  0  0  0  0  0  0  0  0  0  0  0
  1  2  1  0
  1 26  1  0
  1 27  1  0
  1 28  1  0
  2  3  2  3
  2 29  1  0
  3  8  1  0
  3  4  1  0
  4  5  2  0
  6  4  1  6
  6 12  1  0
  6 15  1  0
  6  7  1  0
  7  8  1  0
  7 30  1  0
  7 31  1  0
  8  9  1  0
  8 32  1  1
  9 10  2  0
  9 11  1  0
 11 18  1  0
 11 12  1  0
 11 33  1  1
 12 13  1  0
 12 34  1  6
 13 17  1  0
 13 24  1  0
 13 14  1  1
 14 15  1  0
 14 35  1  0
 14 36  1  0
 15 16  1  0
 15 37  1  1
 16 17  1  0
 17 18  1  0
 17 38  1  6
 18 19  1  1
 18 20  1  0
 19 39  1  0
 20 21  1  0
 20 23  1  0
 20 40  1  1
 21 22  1  0
 22 41  1  0
 22 42  1  0
 22 43  1  0
 23 24  1  0
 23 44  1  0
 23 45  1  0
 24 25  1  0
 24 46  1  1
 25 47  1  0
M  END
>  <i_m_ct_stereo_status>  (274) 
1

>  <s_m_source_file>  (274) 
/var/tmp/pbs.5076255.sched01/tmpqw5sdpkp/8220gfbieb.sdf

>  <i_m_source_file_index>  (274) 
32

>  <i_lp_mmshare_version>  (274) 
48012

>  <i_f3d_flags>  (274) 
0

>  <s_epik_input>  (274) 
W0NIM10vW0NIXT1DKFxDMT1PKVtDQEhdKFtDSDJdMilDKD1PKVtDQEhdM1tDQF0oW09IXSkoW0NAQEhdKFtDQEBdNDVbQ0BASF0zW0NAQF0xMjYpT1tDQEhdNltDSDJdNClbQ0BASF0oT1tDSDNdKVtDSDJdW0NASF01W09IXQ==

>  <s_epik_cmdline>  (274) 
J2VwaWtfcHl0aG9uJywgJy1waHQnLCAnMi4wJywgJy1waCcsICc3LjAnLCAnLXRuJywgJzgnLCAnLW1hJywgJzIwMCcsICctaW1hZScsICc8aW5maWxlLm1hZT4nLCAnLW9tYWUnLCAnPG91dGZpbGUubWFlPic=

>  <r_lp_tautomer_probability>  (274) 
1

>  <r_epik_Ionization_Penalty>  (274) 
1.55601e-06

>  <r_epik_Ionization_Penalty_Charging>  (274) 
0

>  <r_epik_Ionization_Penalty_Neutral>  (274) 
1.55601e-06

>  <r_epik_State_Penalty>  (274) 
-0

>  <r_epik_Charging_Adjusted_Penalty>  (274) 
0

>  <i_epik_Tot_Q>  (274) 
0

>  <i_epik_Tot_abs_Q>  (274) 
0

>  <s_lp_Force_Field>  (274) 
OPLS3e

>  <r_lp_Energy>  (274) 
105.883

>  <b_lp_Chiralities_Consistent>  (274) 
1

>  <s_lp_Variant>  (274) 
82:0-1

>  <s_i_glide_gridfile>  (274) 
pfpi4k_grid

>  <i_i_glide_lignum>  (274) 
32

>  <i_i_glide_rotatable_bonds>  (274) 
3

>  <r_i_docking_score>  (274) 
-2.50867

>  <r_i_glide_ligand_efficiency>  (274) 
-0.100347

>  <r_i_glide_ligand_efficiency_sa>  (274) 
-0.293416

>  <r_i_glide_ligand_efficiency_ln>  (274) 
-0.594631

>  <r_i_glide_gscore>  (274) 
-2.50867

>  <r_i_glide_lipo>  (274) 
-0.0141125

>  <r_i_glide_hbond>  (274) 
-0.122691

>  <r_i_glide_metal>  (274) 
-0

>  <r_i_glide_rewards>  (274) 
-1.04745

>  <r_i_glide_evdw>  (274) 
-17.203

>  <r_i_glide_ecoul>  (274) 
-2.55289

>  <r_i_glide_erotb>  (274) 
0

>  <r_i_glide_esite>  (274) 
-0.0813399

>  <r_i_glide_emodel>  (274) 
-22.7272

>  <r_i_glide_energy>  (274) 
-19.7559

>  <r_i_glide_einternal>  (274) 
0.566936

>  <r_i_glide_intrahb_reward>  (274) 
-0

>  <i_i_glide_confnum>  (274) 
1

>  <i_i_glide_posenum>  (274) 
31

>  <r_i_glide_eff_state_penalty>  (274) 
0

>  <ligand_id>  (274) 
82

>  <original_smiles>  (274) 
CC=C1C(=O)C23CC1C(=O)C1C2C24CC3OC2C1(O)C(OC)CC4O

>  <smiles>  (274) 
[H]OC1([H])C([H])([H])C([H])(OC([H])([H])[H])C2(O[H])C3([H])OC4([H])C([H])([H])C13C1([H])C2([H])C(=O)C2([H])C(=C([H])C([H])([H])[H])C(=O)C41C2([H])[H]

$$$$
82:1:0
     RDKit          3D

 47 52  0  0  1  0  0  0  0  0999 V2000
   -3.4779    3.2519    9.3482 C   0  0  0  0  0  0  0  0  0  0  0  0
   -2.5286    4.2134    8.6721 C   0  0  0  0  0  0  0  0  0  0  0  0
   -1.2646    3.9338    8.3056 C   0  0  0  0  0  0  0  0  0  0  0  0
   -0.3472    4.9626    7.7229 C   0  0  0  0  0  0  0  0  0  0  0  0
   -0.5230    6.1627    7.5490 O   0  0  0  0  0  0  0  0  0  0  0  0
    0.8814    4.1784    7.2898 C   0  0  1  0  0  0  0  0  0  0  0  0
    0.9575    3.2975    8.5895 C   0  0  0  0  0  0  0  0  0  0  0  0
   -0.4485    2.6387    8.5405 C   0  0  2  0  0  0  0  0  0  0  0  0
   -0.4400    1.6128    7.3347 C   0  0  0  0  0  0  0  0  0  0  0  0
   -1.1372    0.5985    7.2710 O   0  0  0  0  0  0  0  0  0  0  0  0
    0.5974    2.0469    6.2893 C   0  0  2  0  0  0  0  0  0  0  0  0
    0.3522    3.4960    6.0115 C   0  0  2  0  0  0  0  0  0  0  0  0
    1.2467    3.9265    4.8501 C   0  0  1  0  0  0  0  0  0  0  0  0
    1.8821    5.2278    5.2983 C   0  0  0  0  0  0  0  0  0  0  0  0
    2.2255    4.6551    6.6604 C   0  0  2  0  0  0  0  0  0  0  0  0
    2.9260    3.4409    6.2134 O   0  0  0  0  0  0  0  0  0  0  0  0
    2.3115    2.8647    5.0054 C   0  0  1  0  0  0  0  0  0  0  0  0
    1.4155    1.5474    5.1230 C   0  0  1  0  0  0  0  0  0  0  0  0
    2.3061    0.4848    5.4096 O   0  0  0  0  0  0  0  0  0  0  0  0
    0.6363    1.2453    3.8042 C   0  0  1  0  0  0  0  0  0  0  0  0
   -0.4383    0.3291    4.0165 O   0  0  0  0  0  0  0  0  0  0  0  0
   -0.0792   -1.0408    4.1333 C   0  0  0  0  0  0  0  0  0  0  0  0
   -0.0415    2.4892    3.1672 C   0  0  0  0  0  0  0  0  0  0  0  0
    0.6278    3.8558    3.4478 C   0  0  1  0  0  0  0  0  0  0  0  0
   -0.3356    4.8785    3.2821 O   0  0  0  0  0  0  0  0  0  0  0  0
   -4.3907    3.1530    8.7596 H   0  0  0  0  0  0  0  0  0  0  0  0
   -3.7500    3.6234   10.3360 H   0  0  0  0  0  0  0  0  0  0  0  0
   -3.0380    2.2655    9.4717 H   0  0  0  0  0  0  0  0  0  0  0  0
   -2.9176    5.2075    8.5068 H   0  0  0  0  0  0  0  0  0  0  0  0
    1.7941    2.5992    8.6643 H   0  0  0  0  0  0  0  0  0  0  0  0
    1.0617    3.9145    9.4915 H   0  0  0  0  0  0  0  0  0  0  0  0
   -0.7135    2.1542    9.4819 H   0  0  0  0  0  0  0  0  0  0  0  0
    1.4558    1.8788    6.9221 H   0  0  0  0  0  0  0  0  0  0  0  0
   -0.6882    3.6838    5.7331 H   0  0  0  0  0  0  0  0  0  0  0  0
    2.7603    5.5075    4.7129 H   0  0  0  0  0  0  0  0  0  0  0  0
    1.1850    6.0630    5.3383 H   0  0  0  0  0  0  0  0  0  0  0  0
    2.8235    5.3012    7.3020 H   0  0  0  0  0  0  0  0  0  0  0  0
    3.0209    2.8405    4.1777 H   0  0  0  0  0  0  0  0  0  0  0  0
    2.8472    0.3351    4.6486 H   0  0  0  0  0  0  0  0  0  0  0  0
    1.3322    0.8499    3.0625 H   0  0  0  0  0  0  0  0  0  0  0  0
   -0.9809   -1.6565    4.0970 H   0  0  0  0  0  0  0  0  0  0  0  0
    0.4180   -1.2578    5.0806 H   0  0  0  0  0  0  0  0  0  0  0  0
    0.5668   -1.3562    3.3141 H   0  0  0  0  0  0  0  0  0  0  0  0
   -0.1128    2.3436    2.0852 H   0  0  0  0  0  0  0  0  0  0  0  0
   -1.0768    2.5403    3.5147 H   0  0  0  0  0  0  0  0  0  0  0  0
    1.4233    4.0349    2.7231 H   0  0  0  0  0  0  0  0  0  0  0  0
   -0.3878    4.9736    2.3185 H   0  0  0  0  0  0  0  0  0  0  0  0
  1  2  1  0
  1 26  1  0
  1 27  1  0
  1 28  1  0
  2  3  2  3
  2 29  1  0
  3  8  1  0
  3  4  1  0
  4  5  2  0
  6  4  1  1
  6 12  1  0
  6 15  1  0
  6  7  1  0
  7  8  1  0
  7 30  1  0
  7 31  1  0
  8  9  1  0
  8 32  1  1
  9 10  2  0
  9 11  1  0
 11 18  1  0
 11 12  1  0
 11 33  1  1
 12 13  1  0
 12 34  1  6
 13 17  1  0
 13 24  1  0
 13 14  1  1
 14 15  1  0
 14 35  1  0
 14 36  1  0
 15 16  1  0
 15 37  1  1
 16 17  1  0
 17 18  1  0
 17 38  1  6
 18 19  1  1
 18 20  1  0
 19 39  1  0
 20 21  1  0
 20 23  1  0
 20 40  1  6
 21 22  1  0
 22 41  1  0
 22 42  1  0
 22 43  1  0
 23 24  1  0
 23 44  1  0
 23 45  1  0
 24 25  1  0
 24 46  1  6
 25 47  1  0
M  END
>  <i_m_ct_stereo_status>  (275) 
1

>  <s_m_source_file>  (275) 
/var/tmp/pbs.5076255.sched01/tmpqw5sdpkp/8220gfbieb.sdf

>  <i_m_source_file_index>  (275) 
33

>  <i_lp_mmshare_version>  (275) 
48012

>  <i_f3d_flags>  (275) 
0

>  <s_epik_input>  (275) 
W0NIM10vW0NIXT1DKFxDMT1PKVtDQEhdKFtDSDJdMilDKD1PKVtDQEhdM1tDQF0oW09IXSkoW0NAQEhdKFtDQEBdNDVbQ0BASF0zW0NAQF0xMjYpT1tDQEhdNltDSDJdNClbQ0BASF0oT1tDSDNdKVtDSDJdW0NASF01W09IXQ==

>  <s_epik_cmdline>  (275) 
J2VwaWtfcHl0aG9uJywgJy1waHQnLCAnMi4wJywgJy1waCcsICc3LjAnLCAnLXRuJywgJzgnLCAnLW1hJywgJzIwMCcsICctaW1hZScsICc8aW5maWxlLm1hZT4nLCAnLW9tYWUnLCAnPG91dGZpbGUubWFlPic=

>  <r_lp_tautomer_probability>  (275) 
1

>  <r_epik_Ionization_Penalty>  (275) 
1.55601e-06

>  <r_epik_Ionization_Penalty_Charging>  (275) 
0

>  <r_epik_Ionization_Penalty_Neutral>  (275) 
1.55601e-06

>  <r_epik_State_Penalty>  (275) 
-0

>  <r_epik_Charging_Adjusted_Penalty>  (275) 
0

>  <i_epik_Tot_Q>  (275) 
0

>  <i_epik_Tot_abs_Q>  (275) 
0

>  <s_lp_Force_Field>  (275) 
OPLS3e

>  <r_lp_Energy>  (275) 
103.27

>  <b_lp_Chiralities_Consistent>  (275) 
1

>  <s_lp_Variant>  (275) 
82:0-2

>  <s_i_glide_gridfile>  (275) 
pfpi4k_grid

>  <i_i_glide_lignum>  (275) 
33

>  <i_i_glide_rotatable_bonds>  (275) 
3

>  <r_i_docking_score>  (275) 
-3.50906

>  <r_i_glide_ligand_efficiency>  (275) 
-0.140363

>  <r_i_glide_ligand_efficiency_sa>  (275) 
-0.410423

>  <r_i_glide_ligand_efficiency_ln>  (275) 
-0.831753

>  <r_i_glide_gscore>  (275) 
-3.50906

>  <r_i_glide_lipo>  (275) 
-0.0592142

>  <r_i_glide_hbond>  (275) 
-0.288249

>  <r_i_glide_metal>  (275) 
-0

>  <r_i_glide_rewards>  (275) 
-1.04745

>  <r_i_glide_evdw>  (275) 
-13.6499

>  <r_i_glide_ecoul>  (275) 
-9.44883

>  <r_i_glide_erotb>  (275) 
0

>  <r_i_glide_esite>  (275) 
-0.0143354

>  <r_i_glide_emodel>  (275) 
-28.6339

>  <r_i_glide_energy>  (275) 
-23.0987

>  <r_i_glide_einternal>  (275) 
0.597402

>  <r_i_glide_intrahb_reward>  (275) 
-0

>  <i_i_glide_confnum>  (275) 
2

>  <i_i_glide_posenum>  (275) 
1

>  <r_i_glide_eff_state_penalty>  (275) 
0

>  <ligand_id>  (275) 
82

>  <original_smiles>  (275) 
CC=C1C(=O)C23CC1C(=O)C1C2C24CC3OC2C1(O)C(OC)CC4O

>  <smiles>  (275) 
[H]OC1([H])C([H])([H])C([H])(OC([H])([H])[H])C2(O[H])C3([H])OC4([H])C([H])([H])C13C1([H])C2([H])C(=O)C2([H])C(=C([H])C([H])([H])[H])C(=O)C41C2([H])[H]

$$$$
82:1:1
     RDKit          3D

 47 52  0  0  1  0  0  0  0  0999 V2000
    4.9147    0.8039    4.8369 C   0  0  0  0  0  0  0  0  0  0  0  0
    4.9867   -0.7044    4.7963 C   0  0  0  0  0  0  0  0  0  0  0  0
    4.2606   -1.5039    3.9908 C   0  0  0  0  0  0  0  0  0  0  0  0
    4.3153   -2.9926    4.0714 C   0  0  0  0  0  0  0  0  0  0  0  0
    4.9025   -3.7158    4.8739 O   0  0  0  0  0  0  0  0  0  0  0  0
    3.5017   -3.4668    2.8801 C   0  0  1  0  0  0  0  0  0  0  0  0
    2.3353   -2.4300    3.0789 C   0  0  0  0  0  0  0  0  0  0  0  0
    3.1459   -1.1079    2.9913 C   0  0  2  0  0  0  0  0  0  0  0  0
    3.6133   -0.9423    1.4875 C   0  0  0  0  0  0  0  0  0  0  0  0
    3.8540    0.1298    0.9361 O   0  0  0  0  0  0  0  0  0  0  0  0
    3.6990   -2.3205    0.8179 C   0  0  2  0  0  0  0  0  0  0  0  0
    4.5004   -3.2003    1.7324 C   0  0  2  0  0  0  0  0  0  0  0  0
    4.7606   -4.5308    1.0284 C   0  0  1  0  0  0  0  0  0  0  0  0
    4.4188   -5.5978    2.0481 C   0  0  0  0  0  0  0  0  0  0  0  0
    3.1198   -4.9048    2.4215 C   0  0  2  0  0  0  0  0  0  0  0  0
    2.5509   -4.7664    1.0730 O   0  0  0  0  0  0  0  0  0  0  0  0
    3.5948   -4.4710    0.0734 C   0  0  1  0  0  0  0  0  0  0  0  0
    3.7359   -3.0002   -0.5270 C   0  0  1  0  0  0  0  0  0  0  0  0
    2.6157   -2.8331   -1.3771 O   0  0  0  0  0  0  0  0  0  0  0  0
    5.0503   -2.8345   -1.3537 C   0  0  1  0  0  0  0  0  0  0  0  0
    5.4053   -1.4681   -1.5811 O   0  0  0  0  0  0  0  0  0  0  0  0
    4.5628   -0.7500   -2.4719 C   0  0  0  0  0  0  0  0  0  0  0  0
    6.3148   -3.4488   -0.6909 C   0  0  0  0  0  0  0  0  0  0  0  0
    6.0755   -4.6596    0.2419 C   0  0  1  0  0  0  0  0  0  0  0  0
    7.1680   -4.7614    1.1339 O   0  0  0  0  0  0  0  0  0  0  0  0
    5.9088    1.2135    4.6592 H   0  0  0  0  0  0  0  0  0  0  0  0
    4.5789    1.1456    5.8180 H   0  0  0  0  0  0  0  0  0  0  0  0
    4.2387    1.2042    4.0816 H   0  0  0  0  0  0  0  0  0  0  0  0
    5.6757   -1.1482    5.4991 H   0  0  0  0  0  0  0  0  0  0  0  0
    1.4945   -2.5066    2.3848 H   0  0  0  0  0  0  0  0  0  0  0  0
    1.8660   -2.5397    4.0641 H   0  0  0  0  0  0  0  0  0  0  0  0
    2.5737   -0.2473    3.3363 H   0  0  0  0  0  0  0  0  0  0  0  0
    2.6407   -2.5282    0.8568 H   0  0  0  0  0  0  0  0  0  0  0  0
    5.4646   -2.7512    1.9922 H   0  0  0  0  0  0  0  0  0  0  0  0
    4.2734   -6.5891    1.6128 H   0  0  0  0  0  0  0  0  0  0  0  0
    5.1288   -5.6583    2.8729 H   0  0  0  0  0  0  0  0  0  0  0  0
    2.4874   -5.4556    3.1171 H   0  0  0  0  0  0  0  0  0  0  0  0
    3.6424   -5.2434   -0.6870 H   0  0  0  0  0  0  0  0  0  0  0  0
    2.1025   -2.0679   -1.1221 H   0  0  0  0  0  0  0  0  0  0  0  0
    4.9099   -3.3399   -2.3076 H   0  0  0  0  0  0  0  0  0  0  0  0
    5.0054    0.2186   -2.7058 H   0  0  0  0  0  0  0  0  0  0  0  0
    3.5792   -0.5656   -2.0422 H   0  0  0  0  0  0  0  0  0  0  0  0
    4.4374   -1.2912   -3.4073 H   0  0  0  0  0  0  0  0  0  0  0  0
    7.0290   -3.7231   -1.4712 H   0  0  0  0  0  0  0  0  0  0  0  0
    6.8123   -2.6676   -0.1137 H   0  0  0  0  0  0  0  0  0  0  0  0
    6.0276   -5.5867   -0.3267 H   0  0  0  0  0  0  0  0  0  0  0  0
    7.0530   -5.5354    1.6620 H   0  0  0  0  0  0  0  0  0  0  0  0
  1  2  1  0
  1 26  1  0
  1 27  1  0
  1 28  1  0
  2  3  2  3
  2 29  1  0
  3  8  1  0
  3  4  1  0
  4  5  2  0
  6  4  1  1
  6 12  1  0
  6 15  1  0
  6  7  1  0
  7  8  1  0
  7 30  1  0
  7 31  1  0
  8  9  1  0
  8 32  1  1
  9 10  2  0
  9 11  1  0
 11 18  1  0
 11 12  1  0
 11 33  1  1
 12 13  1  0
 12 34  1  1
 13 17  1  0
 13 24  1  0
 13 14  1  1
 14 15  1  0
 14 35  1  0
 14 36  1  0
 15 16  1  0
 15 37  1  1
 16 17  1  0
 17 18  1  0
 17 38  1  6
 18 19  1  6
 18 20  1  0
 19 39  1  0
 20 21  1  0
 20 23  1  0
 20 40  1  6
 21 22  1  0
 22 41  1  0
 22 42  1  0
 22 43  1  0
 23 24  1  0
 23 44  1  0
 23 45  1  0
 24 25  1  0
 24 46  1  6
 25 47  1  0
M  END
>  <i_m_ct_stereo_status>  (276) 
1

>  <s_m_source_file>  (276) 
/var/tmp/pbs.5076255.sched01/tmpqw5sdpkp/8220gfbieb.sdf

>  <i_m_source_file_index>  (276) 
33

>  <i_lp_mmshare_version>  (276) 
48012

>  <i_f3d_flags>  (276) 
0

>  <s_epik_input>  (276) 
W0NIM10vW0NIXT1DKFxDMT1PKVtDQEhdKFtDSDJdMilDKD1PKVtDQEhdM1tDQF0oW09IXSkoW0NAQEhdKFtDQEBdNDVbQ0BASF0zW0NAQF0xMjYpT1tDQEhdNltDSDJdNClbQ0BASF0oT1tDSDNdKVtDSDJdW0NASF01W09IXQ==

>  <s_epik_cmdline>  (276) 
J2VwaWtfcHl0aG9uJywgJy1waHQnLCAnMi4wJywgJy1waCcsICc3LjAnLCAnLXRuJywgJzgnLCAnLW1hJywgJzIwMCcsICctaW1hZScsICc8aW5maWxlLm1hZT4nLCAnLW9tYWUnLCAnPG91dGZpbGUubWFlPic=

>  <r_lp_tautomer_probability>  (276) 
1

>  <r_epik_Ionization_Penalty>  (276) 
1.55601e-06

>  <r_epik_Ionization_Penalty_Charging>  (276) 
0

>  <r_epik_Ionization_Penalty_Neutral>  (276) 
1.55601e-06

>  <r_epik_State_Penalty>  (276) 
-0

>  <r_epik_Charging_Adjusted_Penalty>  (276) 
0

>  <i_epik_Tot_Q>  (276) 
0

>  <i_epik_Tot_abs_Q>  (276) 
0

>  <s_lp_Force_Field>  (276) 
OPLS3e

>  <r_lp_Energy>  (276) 
103.27

>  <b_lp_Chiralities_Consistent>  (276) 
1

>  <s_lp_Variant>  (276) 
82:0-2

>  <s_i_glide_gridfile>  (276) 
pfpi4k_grid

>  <i_i_glide_lignum>  (276) 
33

>  <i_i_glide_rotatable_bonds>  (276) 
3

>  <r_i_docking_score>  (276) 
-3.12464

>  <r_i_glide_ligand_efficiency>  (276) 
-0.124986

>  <r_i_glide_ligand_efficiency_sa>  (276) 
-0.36546

>  <r_i_glide_ligand_efficiency_ln>  (276) 
-0.740634

>  <r_i_glide_gscore>  (276) 
-3.12464

>  <r_i_glide_lipo>  (276) 
-0.384501

>  <r_i_glide_hbond>  (276) 
0

>  <r_i_glide_metal>  (276) 
-0

>  <r_i_glide_rewards>  (276) 
-1.05988

>  <r_i_glide_evdw>  (276) 
-18.9013

>  <r_i_glide_ecoul>  (276) 
-4.8214

>  <r_i_glide_erotb>  (276) 
0

>  <r_i_glide_esite>  (276) 
-0.0119883

>  <r_i_glide_emodel>  (276) 
-28.1986

>  <r_i_glide_energy>  (276) 
-23.7227

>  <r_i_glide_einternal>  (276) 
1.53688

>  <r_i_glide_intrahb_reward>  (276) 
-0

>  <i_i_glide_confnum>  (276) 
2

>  <i_i_glide_posenum>  (276) 
36

>  <r_i_glide_eff_state_penalty>  (276) 
0

>  <ligand_id>  (276) 
82

>  <original_smiles>  (276) 
CC=C1C(=O)C23CC1C(=O)C1C2C24CC3OC2C1(O)C(OC)CC4O

>  <smiles>  (276) 
[H]OC1([H])C([H])([H])C([H])(OC([H])([H])[H])C2(O[H])C3([H])OC4([H])C([H])([H])C13C1([H])C2([H])C(=O)C2([H])C(=C([H])C([H])([H])[H])C(=O)C41C2([H])[H]

$$$$
82:1:2
     RDKit          3D

 47 52  0  0  1  0  0  0  0  0999 V2000
    4.0744    0.7897    4.7739 C   0  0  0  0  0  0  0  0  0  0  0  0
    4.3171   -0.7032    4.8444 C   0  0  0  0  0  0  0  0  0  0  0  0
    3.6994   -1.6367    4.0996 C   0  0  0  0  0  0  0  0  0  0  0  0
    3.9231   -3.1034    4.2813 C   0  0  0  0  0  0  0  0  0  0  0  0
    4.5857   -3.6946    5.1359 O   0  0  0  0  0  0  0  0  0  0  0  0
    3.1910   -3.7483    3.1176 C   0  0  1  0  0  0  0  0  0  0  0  0
    1.9099   -2.8462    3.2375 C   0  0  0  0  0  0  0  0  0  0  0  0
    2.5602   -1.4484    3.0612 C   0  0  2  0  0  0  0  0  0  0  0  0
    3.0356   -1.3266    1.5525 C   0  0  0  0  0  0  0  0  0  0  0  0
    3.2086   -0.2676    0.9521 O   0  0  0  0  0  0  0  0  0  0  0  0
    3.2866   -2.7355    0.9807 C   0  0  2  0  0  0  0  0  0  0  0  0
    4.1683   -3.4490    1.9598 C   0  0  2  0  0  0  0  0  0  0  0  0
    4.5985   -4.7874    1.3538 C   0  0  1  0  0  0  0  0  0  0  0  0
    4.3663   -5.8104    2.4464 C   0  0  0  0  0  0  0  0  0  0  0  0
    2.9874   -5.2510    2.7580 C   0  0  2  0  0  0  0  0  0  0  0  0
    2.4274   -5.2806    1.3989 O   0  0  0  0  0  0  0  0  0  0  0  0
    3.4470   -4.9447    0.3913 C   0  0  1  0  0  0  0  0  0  0  0  0
    3.4199   -3.5127   -0.3054 C   0  0  1  0  0  0  0  0  0  0  0  0
    2.2760   -3.5536   -1.1429 O   0  0  0  0  0  0  0  0  0  0  0  0
    4.7152   -3.2397   -1.1415 C   0  0  1  0  0  0  0  0  0  0  0  0
    4.9125   -1.8594   -1.4539 O   0  0  0  0  0  0  0  0  0  0  0  0
    3.9544   -1.2587   -2.3132 C   0  0  0  0  0  0  0  0  0  0  0  0
    6.0360   -3.6287   -0.4197 C   0  0  0  0  0  0  0  0  0  0  0  0
    5.9364   -4.8033    0.5858 C   0  0  1  0  0  0  0  0  0  0  0  0
    7.0175   -4.7233    1.4915 O   0  0  0  0  0  0  0  0  0  0  0  0
    5.0077    1.3133    4.5644 H   0  0  0  0  0  0  0  0  0  0  0  0
    3.6875    1.1539    5.7256 H   0  0  0  0  0  0  0  0  0  0  0  0
    3.3626    1.0487    3.9938 H   0  0  0  0  0  0  0  0  0  0  0  0
    5.0451   -1.0128    5.5825 H   0  0  0  0  0  0  0  0  0  0  0  0
    1.0979   -3.0627    2.5410 H   0  0  0  0  0  0  0  0  0  0  0  0
    1.4385   -2.9439    4.2233 H   0  0  0  0  0  0  0  0  0  0  0  0
    1.8868   -0.6384    3.3457 H   0  0  0  0  0  0  0  0  0  0  0  0
    2.2560   -3.0538    1.0237 H   0  0  0  0  0  0  0  0  0  0  0  0
    5.0648   -2.8659    2.1950 H   0  0  0  0  0  0  0  0  0  0  0  0
    4.3438   -6.8404    2.0835 H   0  0  0  0  0  0  0  0  0  0  0  0
    5.0658   -5.7303    3.2774 H   0  0  0  0  0  0  0  0  0  0  0  0
    2.4091   -5.8206    3.4864 H   0  0  0  0  0  0  0  0  0  0  0  0
    3.5867   -5.7640   -0.3100 H   0  0  0  0  0  0  0  0  0  0  0  0
    2.4593   -4.1468   -1.8569 H   0  0  0  0  0  0  0  0  0  0  0  0
    4.6601   -3.8177   -2.0632 H   0  0  0  0  0  0  0  0  0  0  0  0
    4.2952   -0.2671   -2.6218 H   0  0  0  0  0  0  0  0  0  0  0  0
    2.9962   -1.1267   -1.8116 H   0  0  0  0  0  0  0  0  0  0  0  0
    3.8073   -1.8646   -3.2053 H   0  0  0  0  0  0  0  0  0  0  0  0
    6.8057   -3.8377   -1.1682 H   0  0  0  0  0  0  0  0  0  0  0  0
    6.4109   -2.7545    0.1173 H   0  0  0  0  0  0  0  0  0  0  0  0
    6.0172   -5.7580    0.0624 H   0  0  0  0  0  0  0  0  0  0  0  0
    6.8728   -3.9926    2.0721 H   0  0  0  0  0  0  0  0  0  0  0  0
  1  2  1  0
  1 26  1  0
  1 27  1  0
  1 28  1  0
  2  3  2  3
  2 29  1  0
  3  8  1  0
  3  4  1  0
  4  5  2  0
  6  4  1  1
  6 12  1  0
  6 15  1  0
  6  7  1  0
  7  8  1  0
  7 30  1  0
  7 31  1  0
  8  9  1  0
  8 32  1  1
  9 10  2  0
  9 11  1  0
 11 18  1  0
 11 12  1  0
 11 33  1  1
 12 13  1  0
 12 34  1  1
 13 17  1  0
 13 24  1  0
 13 14  1  1
 14 15  1  0
 14 35  1  0
 14 36  1  0
 15 16  1  0
 15 37  1  1
 16 17  1  0
 17 18  1  0
 17 38  1  6
 18 19  1  6
 18 20  1  0
 19 39  1  0
 20 21  1  0
 20 23  1  0
 20 40  1  6
 21 22  1  0
 22 41  1  0
 22 42  1  0
 22 43  1  0
 23 24  1  0
 23 44  1  0
 23 45  1  0
 24 25  1  0
 24 46  1  6
 25 47  1  0
M  END
>  <i_m_ct_stereo_status>  (277) 
1

>  <s_m_source_file>  (277) 
/var/tmp/pbs.5076255.sched01/tmpqw5sdpkp/8220gfbieb.sdf

>  <i_m_source_file_index>  (277) 
33

>  <i_lp_mmshare_version>  (277) 
48012

>  <i_f3d_flags>  (277) 
0

>  <s_epik_input>  (277) 
W0NIM10vW0NIXT1DKFxDMT1PKVtDQEhdKFtDSDJdMilDKD1PKVtDQEhdM1tDQF0oW09IXSkoW0NAQEhdKFtDQEBdNDVbQ0BASF0zW0NAQF0xMjYpT1tDQEhdNltDSDJdNClbQ0BASF0oT1tDSDNdKVtDSDJdW0NASF01W09IXQ==

>  <s_epik_cmdline>  (277) 
J2VwaWtfcHl0aG9uJywgJy1waHQnLCAnMi4wJywgJy1waCcsICc3LjAnLCAnLXRuJywgJzgnLCAnLW1hJywgJzIwMCcsICctaW1hZScsICc8aW5maWxlLm1hZT4nLCAnLW9tYWUnLCAnPG91dGZpbGUubWFlPic=

>  <r_lp_tautomer_probability>  (277) 
1

>  <r_epik_Ionization_Penalty>  (277) 
1.55601e-06

>  <r_epik_Ionization_Penalty_Charging>  (277) 
0

>  <r_epik_Ionization_Penalty_Neutral>  (277) 
1.55601e-06

>  <r_epik_State_Penalty>  (277) 
-0

>  <r_epik_Charging_Adjusted_Penalty>  (277) 
0

>  <i_epik_Tot_Q>  (277) 
0

>  <i_epik_Tot_abs_Q>  (277) 
0

>  <s_lp_Force_Field>  (277) 
OPLS3e

>  <r_lp_Energy>  (277) 
103.27

>  <b_lp_Chiralities_Consistent>  (277) 
1

>  <s_lp_Variant>  (277) 
82:0-2

>  <s_i_glide_gridfile>  (277) 
pfpi4k_grid

>  <i_i_glide_lignum>  (277) 
33

>  <i_i_glide_rotatable_bonds>  (277) 
3

>  <r_i_docking_score>  (277) 
-2.87297

>  <r_i_glide_ligand_efficiency>  (277) 
-0.114919

>  <r_i_glide_ligand_efficiency_sa>  (277) 
-0.336024

>  <r_i_glide_ligand_efficiency_ln>  (277) 
-0.680979

>  <r_i_glide_gscore>  (277) 
-2.87297

>  <r_i_glide_lipo>  (277) 
-0.276432

>  <r_i_glide_hbond>  (277) 
0

>  <r_i_glide_metal>  (277) 
-0

>  <r_i_glide_rewards>  (277) 
-1.04745

>  <r_i_glide_evdw>  (277) 
-18.897

>  <r_i_glide_ecoul>  (277) 
-3.7958

>  <r_i_glide_erotb>  (277) 
0

>  <r_i_glide_esite>  (277) 
-0.0348678

>  <r_i_glide_emodel>  (277) 
-27.5521

>  <r_i_glide_energy>  (277) 
-22.6928

>  <r_i_glide_einternal>  (277) 
0.119417

>  <r_i_glide_intrahb_reward>  (277) 
-0

>  <i_i_glide_confnum>  (277) 
2

>  <i_i_glide_posenum>  (277) 
3

>  <r_i_glide_eff_state_penalty>  (277) 
0

>  <ligand_id>  (277) 
82

>  <original_smiles>  (277) 
CC=C1C(=O)C23CC1C(=O)C1C2C24CC3OC2C1(O)C(OC)CC4O

>  <smiles>  (277) 
[H]OC1([H])C([H])([H])C([H])(OC([H])([H])[H])C2(O[H])C3([H])OC4([H])C([H])([H])C13C1([H])C2([H])C(=O)C2([H])C(=C([H])C([H])([H])[H])C(=O)C41C2([H])[H]

$$$$
84:0:0
     RDKit          3D

 88 95  0  0  1  0  0  0  0  0999 V2000
    7.8634   -6.1400    5.9496 C   0  0  0  0  0  0  0  0  0  0  0  0
    7.0401   -5.0681    5.9991 C   0  0  0  0  0  0  0  0  0  0  0  0
    5.5147   -4.9157    6.0536 C   0  0  0  0  0  0  0  0  0  0  0  0
    4.6525   -6.1594    6.0859 N   0  0  2  0  0  0  0  0  0  0  0  0
    4.9126   -7.0829    4.8999 C   0  0  0  0  0  0  0  0  0  0  0  0
    3.9904   -8.2475    4.3862 C   0  0  0  0  0  0  0  0  0  0  0  0
    3.2105   -8.1845    3.0389 C   0  0  2  0  0  0  0  0  0  0  0  0
    3.9457   -8.9461    2.0817 O   0  0  0  0  0  0  0  0  0  0  0  0
    3.2189   -6.7571    2.5310 C   0  0  1  0  0  0  0  0  0  0  0  0
    2.5689   -6.6375    1.2723 O   0  0  0  0  0  0  0  0  0  0  0  0
    2.9365   -5.4647    0.5505 C   0  0  0  0  0  0  0  0  0  0  0  0
    2.4825   -5.9268    3.5903 C   0  0  0  0  0  0  0  0  0  0  0  0
    1.3386   -6.5400    4.4589 C   0  0  1  0  0  0  0  0  0  0  0  0
    0.6982   -7.4630    3.4190 C   0  0  0  0  0  0  0  0  0  0  0  0
    1.6998   -8.6177    3.0727 C   0  0  2  0  0  0  0  0  0  0  0  0
    1.4330   -9.9205    3.7713 N   0  0  2  0  0  0  0  0  0  0  0  0
    0.2753  -10.6463    3.1802 C   0  0  0  0  0  0  0  0  0  0  0  0
    1.4181   -9.9345    5.2595 C   0  0  0  0  0  0  0  0  0  0  0  0
    0.7060   -8.7609    5.9612 C   0  0  0  0  0  0  0  0  0  0  0  0
    1.2752   -7.2935    5.8737 C   0  0  1  0  0  0  0  0  0  0  0  0
    2.4397   -7.2040    6.8669 C   0  0  0  0  0  0  0  0  0  0  0  0
    3.3022   -5.9448    6.7430 C   0  0  2  0  0  0  0  0  0  0  0  0
    2.4987   -4.5404    6.8478 C   0  0  2  0  0  0  0  0  0  0  0  0
    1.7174   -4.5304    8.2189 C   0  0  1  0  0  0  0  0  0  0  0  0
    2.0273   -3.3409    8.9439 O   0  0  0  0  0  0  0  0  0  0  0  0
    3.2626   -3.3435    9.6470 C   0  0  0  0  0  0  0  0  0  0  0  0
    0.2053   -4.6098    8.0062 C   0  0  0  0  0  0  0  0  0  0  0  0
   -0.3833   -3.6051    7.3489 C   0  0  0  0  0  0  0  0  0  0  0  0
    0.4867   -2.9416    6.3278 C   0  0  2  0  0  0  0  0  0  0  0  0
   -0.3676   -2.2236    5.2425 C   0  0  1  0  0  0  0  0  0  0  0  0
   -1.3792   -1.3876    5.7866 O   0  0  0  0  0  0  0  0  0  0  0  0
    0.5053   -1.4404    4.2441 C   0  0  1  0  0  0  0  0  0  0  0  0
    0.7436   -0.1214    4.6849 O   0  0  0  0  0  0  0  0  0  0  0  0
    1.8317   -2.1269    4.0224 C   0  0  0  0  0  0  0  0  0  0  0  0
    2.2416   -3.2396    4.6571 C   0  0  0  0  0  0  0  0  0  0  0  0
    1.4763   -4.0453    5.7191 C   0  0  1  0  0  0  0  0  0  0  0  0
    0.6601   -5.3254    5.1741 C   0  0  2  0  0  0  0  0  0  0  0  0
    0.0944   -6.3406    6.1890 C   0  0  2  0  0  0  0  0  0  0  0  0
   -0.3644   -5.9549    7.6411 C   0  0  1  0  0  0  0  0  0  0  0  0
   -0.1731   -6.9364    8.6411 O   0  0  0  0  0  0  0  0  0  0  0  0
    7.5349   -7.1813    5.9666 H   0  0  0  0  0  0  0  0  0  0  0  0
    8.9315   -5.9447    5.8763 H   0  0  0  0  0  0  0  0  0  0  0  0
    7.4933   -4.0996    6.0148 H   0  0  0  0  0  0  0  0  0  0  0  0
    5.3027   -4.3173    6.9399 H   0  0  0  0  0  0  0  0  0  0  0  0
    5.1980   -4.2817    5.2274 H   0  0  0  0  0  0  0  0  0  0  0  0
    5.4758   -6.5877    4.1092 H   0  0  0  0  0  0  0  0  0  0  0  0
    5.6372   -7.7666    5.3558 H   0  0  0  0  0  0  0  0  0  0  0  0
    4.6481   -9.1132    4.2694 H   0  0  0  0  0  0  0  0  0  0  0  0
    3.3811   -8.5854    5.1579 H   0  0  0  0  0  0  0  0  0  0  0  0
    3.8832   -9.8831    2.2428 H   0  0  0  0  0  0  0  0  0  0  0  0
    4.2402   -6.4144    2.3840 H   0  0  0  0  0  0  0  0  0  0  0  0
    2.3824   -5.4529   -0.3796 H   0  0  0  0  0  0  0  0  0  0  0  0
    3.9984   -5.4385    0.3049 H   0  0  0  0  0  0  0  0  0  0  0  0
    2.6909   -4.5322    1.0575 H   0  0  0  0  0  0  0  0  0  0  0  0
    3.2212   -5.5090    4.2250 H   0  0  0  0  0  0  0  0  0  0  0  0
    2.0738   -5.0830    3.0454 H   0  0  0  0  0  0  0  0  0  0  0  0
   -0.2758   -7.8553    3.7111 H   0  0  0  0  0  0  0  0  0  0  0  0
    0.4823   -6.9150    2.5000 H   0  0  0  0  0  0  0  0  0  0  0  0
    1.4935   -8.8391    2.0306 H   0  0  0  0  0  0  0  0  0  0  0  0
   -0.6744  -10.1517    3.4143 H   0  0  0  0  0  0  0  0  0  0  0  0
    0.2405  -11.6682    3.5801 H   0  0  0  0  0  0  0  0  0  0  0  0
    0.3488  -10.7361    2.0882 H   0  0  0  0  0  0  0  0  0  0  0  0
    0.8894  -10.8375    5.5600 H   0  0  0  0  0  0  0  0  0  0  0  0
    2.3972  -10.1601    5.6782 H   0  0  0  0  0  0  0  0  0  0  0  0
   -0.3365   -8.8160    5.6381 H   0  0  0  0  0  0  0  0  0  0  0  0
    0.6381   -9.0604    7.0026 H   0  0  0  0  0  0  0  0  0  0  0  0
    2.0586   -7.2198    7.8744 H   0  0  0  0  0  0  0  0  0  0  0  0
    3.0251   -8.1124    6.9775 H   0  0  0  0  0  0  0  0  0  0  0  0
    3.7248   -5.9551    7.7442 H   0  0  0  0  0  0  0  0  0  0  0  0
    3.2455   -3.7428    6.9153 H   0  0  0  0  0  0  0  0  0  0  0  0
    1.9688   -5.3621    8.8723 H   0  0  0  0  0  0  0  0  0  0  0  0
    3.4102   -2.3704   10.1155 H   0  0  0  0  0  0  0  0  0  0  0  0
    4.1125   -3.5142    8.9909 H   0  0  0  0  0  0  0  0  0  0  0  0
    3.2749   -4.0963   10.4331 H   0  0  0  0  0  0  0  0  0  0  0  0
   -1.4021   -3.7210    7.0172 H   0  0  0  0  0  0  0  0  0  0  0  0
    1.0734   -2.1837    6.8518 H   0  0  0  0  0  0  0  0  0  0  0  0
   -0.8963   -2.9714    4.6601 H   0  0  0  0  0  0  0  0  0  0  0  0
   -1.6882   -0.8245    5.0876 H   0  0  0  0  0  0  0  0  0  0  0  0
    0.0019   -1.3708    3.2797 H   0  0  0  0  0  0  0  0  0  0  0  0
    1.1119    0.3702    3.9629 H   0  0  0  0  0  0  0  0  0  0  0  0
    2.4969   -1.6355    3.3294 H   0  0  0  0  0  0  0  0  0  0  0  0
    3.2574   -3.5372    4.4612 H   0  0  0  0  0  0  0  0  0  0  0  0
   -0.1497   -5.0182    4.5192 H   0  0  0  0  0  0  0  0  0  0  0  0
   -0.7803   -6.7096    5.6610 H   0  0  0  0  0  0  0  0  0  0  0  0
   -1.4461   -5.8130    7.6591 H   0  0  0  0  0  0  0  0  0  0  0  0
    0.7241   -7.2469    8.6052 H   0  0  0  0  0  0  0  0  0  0  0  0
    2.1957  -10.5280    3.5164 H   0  0  0  0  0  0  0  0  0  0  0  0
    5.1404   -6.6699    6.8103 H   0  0  0  0  0  0  0  0  0  0  0  0
  1  2  2  0
  1 41  1  0
  1 42  1  0
  2  3  1  0
  2 43  1  0
  3  4  1  0
  3 44  1  0
  3 45  1  0
  4 22  1  0
  4  5  1  0
  4 88  1  1
  5  6  1  0
  5 46  1  0
  5 47  1  0
  6  7  1  0
  6 48  1  0
  6 49  1  0
  7 15  1  0
  7  8  1  6
  7  9  1  0
  8 50  1  0
  9 10  1  0
  9 12  1  0
  9 51  1  6
 10 11  1  0
 11 52  1  0
 11 53  1  0
 11 54  1  0
 13 12  1  6
 12 55  1  0
 12 56  1  0
 13 20  1  0
 13 37  1  0
 13 14  1  0
 14 15  1  0
 14 57  1  0
 14 58  1  0
 15 16  1  0
 15 59  1  6
 16 17  1  0
 16 18  1  0
 16 87  1  6
 17 60  1  0
 17 61  1  0
 17 62  1  0
 18 19  1  0
 18 63  1  0
 18 64  1  0
 20 19  1  6
 19 65  1  0
 19 66  1  0
 20 38  1  0
 20 21  1  0
 21 22  1  0
 21 67  1  0
 21 68  1  0
 22 23  1  0
 22 69  1  1
 23 36  1  0
 23 24  1  0
 23 70  1  1
 24 25  1  0
 24 27  1  0
 24 71  1  1
 25 26  1  0
 26 72  1  0
 26 73  1  0
 26 74  1  0
 27 39  1  0
 27 28  2  0
 28 29  1  0
 28 75  1  0
 29 36  1  0
 29 30  1  0
 29 76  1  1
 30 31  1  0
 30 32  1  0
 30 77  1  6
 31 78  1  0
 32 33  1  0
 32 34  1  0
 32 79  1  6
 33 80  1  0
 34 35  2  0
 34 81  1  0
 36 35  1  6
 35 82  1  0
 36 37  1  0
 37 38  1  0
 37 83  1  6
 38 39  1  0
 38 84  1  6
 39 40  1  0
 39 85  1  6
 40 86  1  0
M  CHG  2   4   1  16   1
M  END
>  <i_m_ct_stereo_status>  (278) 
1

>  <s_m_source_file>  (278) 
/var/tmp/pbs.5076255.sched01/tmpqw5sdpkp/8220gfbieb.sdf

>  <i_m_source_file_index>  (278) 
35

>  <i_lp_mmshare_version>  (278) 
48012

>  <i_f3d_flags>  (278) 
1

>  <s_epik_input>  (278) 
W0NIMl0xW0NIMl1OKFtDSDNdKVtDSF0oW0NIMl0yKVtDQEBdKFtPSF0pKFtDQEhdKFtDSDJdMylPW0NIM10pW0NIMl1bQ0gyXU4oW0NIMl1bQ0hdPVtDSDJdKVtDQEhdKFtDSDJdNClbQ0BASF0oW0NAQF01NltDQEBIXTdbQ0BIXThbQ0BdMTRbQ0BdMjM3KVtDQEBIXShPW0NIM10pQyhbQ0BASF04W09IXSk9W0NIXVtDQEBIXTVbQ0BASF0oW09IXSlbQ0BASF0oW09IXSlbQ0hdPVtDSF02

>  <s_epik_cmdline>  (278) 
J2VwaWtfcHl0aG9uJywgJy1waHQnLCAnMi4wJywgJy1waCcsICc3LjAnLCAnLXRuJywgJzgnLCAnLW1hJywgJzIwMCcsICctaW1hZScsICc8aW5maWxlLm1hZT4nLCAnLW9tYWUnLCAnPG91dGZpbGUubWFlPic=

>  <r_epik_Ionization_Penalty>  (278) 
0.0812168

>  <r_epik_Ionization_Penalty_Charging>  (278) 
0.0812157

>  <r_epik_Ionization_Penalty_Neutral>  (278) 
1.0642e-06

>  <r_epik_State_Penalty>  (278) 
0.0628976

>  <r_epik_Charging_Adjusted_Penalty>  (278) 
0.144113

>  <i_epik_Tot_Q>  (278) 
2

>  <i_epik_Tot_abs_Q>  (278) 
2

>  <s_lp_Force_Field>  (278) 
OPLS3e

>  <r_lp_Energy>  (278) 
242.623

>  <b_lp_Chiralities_Consistent>  (278) 
1

>  <s_lp_Variant>  (278) 
84:0-1

>  <s_i_glide_gridfile>  (278) 
pfpi4k_grid

>  <i_i_glide_lignum>  (278) 
35

>  <i_i_glide_rotatable_bonds>  (278) 
8

>  <r_i_docking_score>  (278) 
-3.19685

>  <r_i_glide_ligand_efficiency>  (278) 
-0.0799212

>  <r_i_glide_ligand_efficiency_sa>  (278) 
-0.273327

>  <r_i_glide_ligand_efficiency_ln>  (278) 
-0.681794

>  <r_i_glide_gscore>  (278) 
-3.19685

>  <r_i_glide_lipo>  (278) 
-0.0359763

>  <r_i_glide_hbond>  (278) 
-0.272081

>  <r_i_glide_metal>  (278) 
-0

>  <r_i_glide_rewards>  (278) 
0

>  <r_i_glide_evdw>  (278) 
-20.4516

>  <r_i_glide_ecoul>  (278) 
-12.818

>  <r_i_glide_erotb>  (278) 
0.0579847

>  <r_i_glide_esite>  (278) 
-0.00148658

>  <r_i_glide_emodel>  (278) 
-37.7854

>  <r_i_glide_energy>  (278) 
-33.2697

>  <r_i_glide_einternal>  (278) 
5.42596

>  <r_i_glide_intrahb_reward>  (278) 
-0

>  <i_i_glide_confnum>  (278) 
2

>  <i_i_glide_posenum>  (278) 
10

>  <r_i_glide_eff_state_penalty>  (278) 
0

>  <ligand_id>  (278) 
84

>  <original_smiles>  (278) 
C=CCN1CCC2(O)C(OC)CC34CC2N(C)CCC32CC1C1C(OC)C3=CC5C(O)C(O)C=CC51C4C2C3O

>  <smiles>  (278) 
[H]OC1([H])C([H])=C([H])C23C([H])(C([H])=C4C([H])(O[H])C5([H])C2([H])C26C([H])([H])C([H])(OC([H])([H])[H])C7(O[H])C([H])([H])C([H])([H])[N+]([H])(C([H])([H])C([H])=C([H])[H])C([H])(C([H])([H])C52C([H])([H])C([H])([H])[N+]([H])(C([H])([H])[H])C7([H])C6([H])[H])C3([H])C4([H])OC([H])([H])[H])C1([H])O[H]

$$$$
84:0:1
     RDKit          3D

 88 95  0  0  1  0  0  0  0  0999 V2000
    6.3950   -5.0067    7.9075 C   0  0  0  0  0  0  0  0  0  0  0  0
    6.3231   -4.3833    6.7134 C   0  0  0  0  0  0  0  0  0  0  0  0
    5.5968   -4.8061    5.4436 C   0  0  0  0  0  0  0  0  0  0  0  0
    4.7924   -6.0566    5.5526 N   0  0  2  0  0  0  0  0  0  0  0  0
    5.0451   -6.9770    4.3437 C   0  0  0  0  0  0  0  0  0  0  0  0
    4.0928   -8.1562    3.8660 C   0  0  0  0  0  0  0  0  0  0  0  0
    3.1303   -8.0754    2.6016 C   0  0  2  0  0  0  0  0  0  0  0  0
    3.7742   -8.8003    1.5552 O   0  0  0  0  0  0  0  0  0  0  0  0
    3.0584   -6.6361    2.1174 C   0  0  1  0  0  0  0  0  0  0  0  0
    2.2730   -6.4899    0.9300 O   0  0  0  0  0  0  0  0  0  0  0  0
    2.5531   -5.3075    0.1817 C   0  0  0  0  0  0  0  0  0  0  0  0
    2.4115   -5.8480    3.2657 C   0  0  0  0  0  0  0  0  0  0  0  0
    1.3333   -6.4996    4.2003 C   0  0  1  0  0  0  0  0  0  0  0  0
    0.6208   -7.4192    3.2030 C   0  0  0  0  0  0  0  0  0  0  0  0
    1.6209   -8.5523    2.7494 C   0  0  2  0  0  0  0  0  0  0  0  0
    1.4141   -9.8683    3.4254 N   0  0  2  0  0  0  0  0  0  0  0  0
    0.2172  -10.5916    2.9436 C   0  0  0  0  0  0  0  0  0  0  0  0
    1.5509   -9.9267    4.9136 C   0  0  0  0  0  0  0  0  0  0  0  0
    0.8800   -8.7769    5.7070 C   0  0  0  0  0  0  0  0  0  0  0  0
    1.4026   -7.2880    5.5995 C   0  0  1  0  0  0  0  0  0  0  0  0
    2.6553   -7.1926    6.4847 C   0  0  0  0  0  0  0  0  0  0  0  0
    3.4714   -5.9191    6.3116 C   0  0  2  0  0  0  0  0  0  0  0  0
    2.6759   -4.5334    6.5320 C   0  0  2  0  0  0  0  0  0  0  0  0
    2.0270   -4.5659    7.9757 C   0  0  1  0  0  0  0  0  0  0  0  0
    2.3585   -3.3807    8.7064 O   0  0  0  0  0  0  0  0  0  0  0  0
    3.6533   -3.3605    9.2914 C   0  0  0  0  0  0  0  0  0  0  0  0
    0.5045   -4.6710    7.8898 C   0  0  0  0  0  0  0  0  0  0  0  0
   -0.1553   -3.6613    7.3214 C   0  0  0  0  0  0  0  0  0  0  0  0
    0.6038   -2.9557    6.2318 C   0  0  2  0  0  0  0  0  0  0  0  0
   -0.3550   -2.2297    5.2476 C   0  0  1  0  0  0  0  0  0  0  0  0
   -1.3279   -1.4207    5.8973 O   0  0  0  0  0  0  0  0  0  0  0  0
    0.4123   -1.4058    4.1936 C   0  0  1  0  0  0  0  0  0  0  0  0
    0.6716   -0.0926    4.6401 O   0  0  0  0  0  0  0  0  0  0  0  0
    1.7239   -2.0658    3.8353 C   0  0  0  0  0  0  0  0  0  0  0  0
    2.2017   -3.1868    4.3951 C   0  0  0  0  0  0  0  0  0  0  0  0
    1.5504   -4.0300    5.5152 C   0  0  1  0  0  0  0  0  0  0  0  0
    0.6943   -5.3015    5.0067 C   0  0  2  0  0  0  0  0  0  0  0  0
    0.2322   -6.3569    6.0475 C   0  0  2  0  0  0  0  0  0  0  0  0
   -0.0941   -6.0113    7.5423 C   0  0  1  0  0  0  0  0  0  0  0  0
    0.1753   -7.0238    8.4962 O   0  0  0  0  0  0  0  0  0  0  0  0
    5.9208   -5.9557    8.1331 H   0  0  0  0  0  0  0  0  0  0  0  0
    6.9543   -4.5376    8.7132 H   0  0  0  0  0  0  0  0  0  0  0  0
    6.8614   -3.4526    6.6083 H   0  0  0  0  0  0  0  0  0  0  0  0
    4.9927   -3.9836    5.0787 H   0  0  0  0  0  0  0  0  0  0  0  0
    6.3891   -4.8997    4.7052 H   0  0  0  0  0  0  0  0  0  0  0  0
    5.3795   -6.4076    3.4809 H   0  0  0  0  0  0  0  0  0  0  0  0
    5.9621   -7.4850    4.6502 H   0  0  0  0  0  0  0  0  0  0  0  0
    4.7505   -9.0123    3.7009 H   0  0  0  0  0  0  0  0  0  0  0  0
    3.5319   -8.5132    4.6701 H   0  0  0  0  0  0  0  0  0  0  0  0
    3.7842   -9.7260    1.7328 H   0  0  0  0  0  0  0  0  0  0  0  0
    4.0547   -6.2594    1.8841 H   0  0  0  0  0  0  0  0  0  0  0  0
    1.9182   -5.2847   -0.7019 H   0  0  0  0  0  0  0  0  0  0  0  0
    3.5915   -5.2717   -0.1528 H   0  0  0  0  0  0  0  0  0  0  0  0
    2.3508   -4.3930    0.7405 H   0  0  0  0  0  0  0  0  0  0  0  0
    3.2159   -5.4361    3.8313 H   0  0  0  0  0  0  0  0  0  0  0  0
    1.9342   -5.0043    2.7741 H   0  0  0  0  0  0  0  0  0  0  0  0
   -0.3122   -7.8213    3.5794 H   0  0  0  0  0  0  0  0  0  0  0  0
    0.3080   -6.8391    2.3349 H   0  0  0  0  0  0  0  0  0  0  0  0
    1.3190   -8.7349    1.7210 H   0  0  0  0  0  0  0  0  0  0  0  0
   -0.7045  -10.1142    3.2718 H   0  0  0  0  0  0  0  0  0  0  0  0
    0.2178  -11.6127    3.3177 H   0  0  0  0  0  0  0  0  0  0  0  0
    0.2040  -10.6577    1.8569 H   0  0  0  0  0  0  0  0  0  0  0  0
    1.0586  -10.8366    5.2485 H   0  0  0  0  0  0  0  0  0  0  0  0
    2.5695  -10.1179    5.2391 H   0  0  0  0  0  0  0  0  0  0  0  0
   -0.1878   -8.8313    5.4825 H   0  0  0  0  0  0  0  0  0  0  0  0
    0.9130   -9.0824    6.7589 H   0  0  0  0  0  0  0  0  0  0  0  0
    2.3528   -7.2466    7.5218 H   0  0  0  0  0  0  0  0  0  0  0  0
    3.2744   -8.0829    6.5191 H   0  0  0  0  0  0  0  0  0  0  0  0
    3.9559   -5.9552    7.2771 H   0  0  0  0  0  0  0  0  0  0  0  0
    3.4156   -3.7409    6.5678 H   0  0  0  0  0  0  0  0  0  0  0  0
    2.3595   -5.4023    8.5876 H   0  0  0  0  0  0  0  0  0  0  0  0
    3.8271   -2.4037    9.7844 H   0  0  0  0  0  0  0  0  0  0  0  0
    4.4213   -3.4564    8.5310 H   0  0  0  0  0  0  0  0  0  0  0  0
    3.7814   -4.1530   10.0323 H   0  0  0  0  0  0  0  0  0  0  0  0
   -1.1994   -3.7842    7.0814 H   0  0  0  0  0  0  0  0  0  0  0  0
    1.2241   -2.1984    6.7159 H   0  0  0  0  0  0  0  0  0  0  0  0
   -0.9297   -2.9748    4.7063 H   0  0  0  0  0  0  0  0  0  0  0  0
   -1.6429   -0.7947    5.2655 H   0  0  0  0  0  0  0  0  0  0  0  0
   -0.1854   -1.3207    3.2840 H   0  0  0  0  0  0  0  0  0  0  0  0
    1.0191    0.4059    3.9172 H   0  0  0  0  0  0  0  0  0  0  0  0
    2.3155   -1.5544    3.0870 H   0  0  0  0  0  0  0  0  0  0  0  0
    3.1912   -3.4593    4.0814 H   0  0  0  0  0  0  0  0  0  0  0  0
   -0.1742   -4.9845    4.4367 H   0  0  0  0  0  0  0  0  0  0  0  0
   -0.6872   -6.7567    5.6231 H   0  0  0  0  0  0  0  0  0  0  0  0
   -1.1695   -5.8712    7.6483 H   0  0  0  0  0  0  0  0  0  0  0  0
    1.0684   -7.3029    8.4054 H   0  0  0  0  0  0  0  0  0  0  0  0
    2.1744  -10.4445    3.0938 H   0  0  0  0  0  0  0  0  0  0  0  0
    5.3224   -6.5691    6.2372 H   0  0  0  0  0  0  0  0  0  0  0  0
  1  2  2  0
  1 41  1  0
  1 42  1  0
  2  3  1  0
  2 43  1  0
  3  4  1  0
  3 44  1  0
  3 45  1  0
  4 22  1  0
  4  5  1  0
  4 88  1  1
  5  6  1  0
  5 46  1  0
  5 47  1  0
  6  7  1  0
  6 48  1  0
  6 49  1  0
  7 15  1  0
  7  8  1  6
  7  9  1  0
  8 50  1  0
  9 10  1  0
  9 12  1  0
  9 51  1  6
 10 11  1  0
 11 52  1  0
 11 53  1  0
 11 54  1  0
 13 12  1  6
 12 55  1  0
 12 56  1  0
 13 20  1  0
 13 37  1  0
 13 14  1  0
 14 15  1  0
 14 57  1  0
 14 58  1  0
 15 16  1  0
 15 59  1  6
 16 17  1  0
 16 18  1  0
 16 87  1  6
 17 60  1  0
 17 61  1  0
 17 62  1  0
 18 19  1  0
 18 63  1  0
 18 64  1  0
 20 19  1  6
 19 65  1  0
 19 66  1  0
 20 38  1  0
 20 21  1  0
 21 22  1  0
 21 67  1  0
 21 68  1  0
 22 23  1  0
 22 69  1  1
 23 36  1  0
 23 24  1  0
 23 70  1  1
 24 25  1  0
 24 27  1  0
 24 71  1  1
 25 26  1  0
 26 72  1  0
 26 73  1  0
 26 74  1  0
 27 39  1  0
 27 28  2  0
 28 29  1  0
 28 75  1  0
 29 36  1  0
 29 30  1  0
 29 76  1  1
 30 31  1  0
 30 32  1  0
 30 77  1  6
 31 78  1  0
 32 33  1  0
 32 34  1  0
 32 79  1  6
 33 80  1  0
 34 35  2  0
 34 81  1  0
 36 35  1  6
 35 82  1  0
 36 37  1  0
 37 38  1  0
 37 83  1  6
 38 39  1  0
 38 84  1  6
 39 40  1  0
 39 85  1  6
 40 86  1  0
M  CHG  2   4   1  16   1
M  END
>  <i_m_ct_stereo_status>  (279) 
1

>  <s_m_source_file>  (279) 
/var/tmp/pbs.5076255.sched01/tmpqw5sdpkp/8220gfbieb.sdf

>  <i_m_source_file_index>  (279) 
35

>  <i_lp_mmshare_version>  (279) 
48012

>  <i_f3d_flags>  (279) 
1

>  <s_epik_input>  (279) 
W0NIMl0xW0NIMl1OKFtDSDNdKVtDSF0oW0NIMl0yKVtDQEBdKFtPSF0pKFtDQEhdKFtDSDJdMylPW0NIM10pW0NIMl1bQ0gyXU4oW0NIMl1bQ0hdPVtDSDJdKVtDQEhdKFtDSDJdNClbQ0BASF0oW0NAQF01NltDQEBIXTdbQ0BIXThbQ0BdMTRbQ0BdMjM3KVtDQEBIXShPW0NIM10pQyhbQ0BASF04W09IXSk9W0NIXVtDQEBIXTVbQ0BASF0oW09IXSlbQ0BASF0oW09IXSlbQ0hdPVtDSF02

>  <s_epik_cmdline>  (279) 
J2VwaWtfcHl0aG9uJywgJy1waHQnLCAnMi4wJywgJy1waCcsICc3LjAnLCAnLXRuJywgJzgnLCAnLW1hJywgJzIwMCcsICctaW1hZScsICc8aW5maWxlLm1hZT4nLCAnLW9tYWUnLCAnPG91dGZpbGUubWFlPic=

>  <r_epik_Ionization_Penalty>  (279) 
0.0812168

>  <r_epik_Ionization_Penalty_Charging>  (279) 
0.0812157

>  <r_epik_Ionization_Penalty_Neutral>  (279) 
1.0642e-06

>  <r_epik_State_Penalty>  (279) 
0.0628976

>  <r_epik_Charging_Adjusted_Penalty>  (279) 
0.144113

>  <i_epik_Tot_Q>  (279) 
2

>  <i_epik_Tot_abs_Q>  (279) 
2

>  <s_lp_Force_Field>  (279) 
OPLS3e

>  <r_lp_Energy>  (279) 
242.623

>  <b_lp_Chiralities_Consistent>  (279) 
1

>  <s_lp_Variant>  (279) 
84:0-1

>  <s_i_glide_gridfile>  (279) 
pfpi4k_grid

>  <i_i_glide_lignum>  (279) 
35

>  <i_i_glide_rotatable_bonds>  (279) 
8

>  <r_i_docking_score>  (279) 
-2.95624

>  <r_i_glide_ligand_efficiency>  (279) 
-0.073906

>  <r_i_glide_ligand_efficiency_sa>  (279) 
-0.252755

>  <r_i_glide_ligand_efficiency_ln>  (279) 
-0.630479

>  <r_i_glide_gscore>  (279) 
-2.95624

>  <r_i_glide_lipo>  (279) 
-0.0724801

>  <r_i_glide_hbond>  (279) 
-0.0567212

>  <r_i_glide_metal>  (279) 
-0

>  <r_i_glide_rewards>  (279) 
0

>  <r_i_glide_evdw>  (279) 
-21.4421

>  <r_i_glide_ecoul>  (279) 
-12.0861

>  <r_i_glide_erotb>  (279) 
0.0579847

>  <r_i_glide_esite>  (279) 
0

>  <r_i_glide_emodel>  (279) 
-37.3388

>  <r_i_glide_energy>  (279) 
-33.5283

>  <r_i_glide_einternal>  (279) 
7.52839

>  <r_i_glide_intrahb_reward>  (279) 
-0

>  <i_i_glide_confnum>  (279) 
1

>  <i_i_glide_posenum>  (279) 
7

>  <r_i_glide_eff_state_penalty>  (279) 
0

>  <ligand_id>  (279) 
84

>  <original_smiles>  (279) 
C=CCN1CCC2(O)C(OC)CC34CC2N(C)CCC32CC1C1C(OC)C3=CC5C(O)C(O)C=CC51C4C2C3O

>  <smiles>  (279) 
[H]OC1([H])C([H])=C([H])C23C([H])(C([H])=C4C([H])(O[H])C5([H])C2([H])C26C([H])([H])C([H])(OC([H])([H])[H])C7(O[H])C([H])([H])C([H])([H])[N+]([H])(C([H])([H])C([H])=C([H])[H])C([H])(C([H])([H])C52C([H])([H])C([H])([H])[N+]([H])(C([H])([H])[H])C7([H])C6([H])[H])C3([H])C4([H])OC([H])([H])[H])C1([H])O[H]

$$$$
84:0:2
     RDKit          3D

 88 95  0  0  1  0  0  0  0  0999 V2000
    7.9700   -5.9042    4.7685 C   0  0  0  0  0  0  0  0  0  0  0  0
    7.0790   -5.0996    5.3941 C   0  0  0  0  0  0  0  0  0  0  0  0
    5.6245   -5.3166    5.8032 C   0  0  0  0  0  0  0  0  0  0  0  0
    5.0510   -6.6878    5.6437 N   0  0  2  0  0  0  0  0  0  0  0  0
    5.0636   -7.1679    4.1723 C   0  0  0  0  0  0  0  0  0  0  0  0
    4.1833   -8.3272    3.5771 C   0  0  0  0  0  0  0  0  0  0  0  0
    2.9651   -8.1025    2.6139 C   0  0  2  0  0  0  0  0  0  0  0  0
    3.4320   -8.3918    1.3022 O   0  0  0  0  0  0  0  0  0  0  0  0
    2.5770   -6.6398    2.6472 C   0  0  1  0  0  0  0  0  0  0  0  0
    1.4910   -6.3165    1.7727 O   0  0  0  0  0  0  0  0  0  0  0  0
    1.8961   -5.6643    0.5750 C   0  0  0  0  0  0  0  0  0  0  0  0
    2.1314   -6.3495    4.0862 C   0  0  0  0  0  0  0  0  0  0  0  0
    1.4626   -7.4479    4.9789 C   0  0  1  0  0  0  0  0  0  0  0  0
    0.6501   -8.1832    3.9126 C   0  0  0  0  0  0  0  0  0  0  0  0
    1.6356   -8.8997    2.9205 C   0  0  2  0  0  0  0  0  0  0  0  0
    1.8192  -10.3680    3.1672 N   0  0  2  0  0  0  0  0  0  0  0  0
    0.6294  -11.1687    2.7510 C   0  0  0  0  0  0  0  0  0  0  0  0
    2.3391  -10.7982    4.5082 C   0  0  0  0  0  0  0  0  0  0  0  0
    1.7546  -10.0854    5.7330 C   0  0  0  0  0  0  0  0  0  0  0  0
    2.0180   -8.5566    6.0058 C   0  0  1  0  0  0  0  0  0  0  0  0
    3.4241   -8.4521    6.6096 C   0  0  0  0  0  0  0  0  0  0  0  0
    3.9869   -7.0455    6.6963 C   0  0  2  0  0  0  0  0  0  0  0  0
    3.0713   -5.9746    7.4934 C   0  0  2  0  0  0  0  0  0  0  0  0
    2.8370   -6.5531    8.9385 C   0  0  1  0  0  0  0  0  0  0  0  0
    3.1921   -5.5666    9.9125 O   0  0  0  0  0  0  0  0  0  0  0  0
    4.5821   -5.4400   10.1925 C   0  0  0  0  0  0  0  0  0  0  0  0
    1.3753   -6.9584    9.1486 C   0  0  0  0  0  0  0  0  0  0  0  0
    0.4600   -5.9939    9.0808 C   0  0  0  0  0  0  0  0  0  0  0  0
    0.7965   -4.8682    8.1434 C   0  0  2  0  0  0  0  0  0  0  0  0
   -0.4890   -4.1395    7.6594 C   0  0  1  0  0  0  0  0  0  0  0  0
   -1.3499   -3.8040    8.7356 O   0  0  0  0  0  0  0  0  0  0  0  0
   -0.1431   -2.8983    6.8063 C   0  0  1  0  0  0  0  0  0  0  0  0
    0.0538   -1.7412    7.5977 O   0  0  0  0  0  0  0  0  0  0  0  0
    1.1045   -3.1284    5.9871 C   0  0  0  0  0  0  0  0  0  0  0  0
    1.8762   -4.2291    6.0488 C   0  0  0  0  0  0  0  0  0  0  0  0
    1.6642   -5.4681    6.9387 C   0  0  1  0  0  0  0  0  0  0  0  0
    0.8970   -6.7050    6.2409 C   0  0  2  0  0  0  0  0  0  0  0  0
    0.8826   -8.0745    6.9560 C   0  0  2  0  0  0  0  0  0  0  0  0
    0.9041   -8.2520    8.5170 C   0  0  1  0  0  0  0  0  0  0  0  0
    1.5851   -9.3914    9.0129 O   0  0  0  0  0  0  0  0  0  0  0  0
    7.7627   -6.9191    4.4666 H   0  0  0  0  0  0  0  0  0  0  0  0
    8.9628   -5.4821    4.5645 H   0  0  0  0  0  0  0  0  0  0  0  0
    7.3968   -4.1056    5.6769 H   0  0  0  0  0  0  0  0  0  0  0  0
    5.5967   -5.0200    6.8502 H   0  0  0  0  0  0  0  0  0  0  0  0
    4.9961   -4.5897    5.2888 H   0  0  0  0  0  0  0  0  0  0  0  0
    5.1610   -6.3127    3.5042 H   0  0  0  0  0  0  0  0  0  0  0  0
    6.0100   -7.6468    4.1226 H   0  0  0  0  0  0  0  0  0  0  0  0
    4.8814   -8.9285    3.0131 H   0  0  0  0  0  0  0  0  0  0  0  0
    3.9216   -9.0014    4.3295 H   0  0  0  0  0  0  0  0  0  0  0  0
    3.6621   -9.3085    1.2027 H   0  0  0  0  0  0  0  0  0  0  0  0
    3.4092   -5.9893    2.3908 H   0  0  0  0  0  0  0  0  0  0  0  0
    1.0264   -5.4967   -0.0549 H   0  0  0  0  0  0  0  0  0  0  0  0
    2.6002   -6.2569    0.0016 H   0  0  0  0  0  0  0  0  0  0  0  0
    2.3519   -4.6929    0.7712 H   0  0  0  0  0  0  0  0  0  0  0  0
    2.9759   -5.9501    4.5896 H   0  0  0  0  0  0  0  0  0  0  0  0
    1.4465   -5.5087    3.9669 H   0  0  0  0  0  0  0  0  0  0  0  0
   -0.0864   -8.8742    4.3224 H   0  0  0  0  0  0  0  0  0  0  0  0
    0.0382   -7.4810    3.3542 H   0  0  0  0  0  0  0  0  0  0  0  0
    1.1110   -8.8685    1.9723 H   0  0  0  0  0  0  0  0  0  0  0  0
   -0.1922  -10.9999    3.4375 H   0  0  0  0  0  0  0  0  0  0  0  0
    0.8681  -12.2318    2.7508 H   0  0  0  0  0  0  0  0  0  0  0  0
    0.2752  -10.9035    1.7531 H   0  0  0  0  0  0  0  0  0  0  0  0
    2.0891  -11.8458    4.6151 H   0  0  0  0  0  0  0  0  0  0  0  0
    3.4214  -10.8632    4.5245 H   0  0  0  0  0  0  0  0  0  0  0  0
    0.6848  -10.3179    5.7373 H   0  0  0  0  0  0  0  0  0  0  0  0
    2.1322  -10.6594    6.5654 H   0  0  0  0  0  0  0  0  0  0  0  0
    3.4122   -8.8488    7.6052 H   0  0  0  0  0  0  0  0  0  0  0  0
    4.1469   -9.1707    6.2263 H   0  0  0  0  0  0  0  0  0  0  0  0
    4.7401   -7.2115    7.4587 H   0  0  0  0  0  0  0  0  0  0  0  0
    3.6506   -5.0619    7.6328 H   0  0  0  0  0  0  0  0  0  0  0  0
    3.4283   -7.4359    9.1756 H   0  0  0  0  0  0  0  0  0  0  0  0
    4.7374   -4.6318   10.9073 H   0  0  0  0  0  0  0  0  0  0  0  0
    5.1644   -5.1966    9.3056 H   0  0  0  0  0  0  0  0  0  0  0  0
    4.9866   -6.3511   10.6311 H   0  0  0  0  0  0  0  0  0  0  0  0
   -0.5799   -6.2669    9.0243 H   0  0  0  0  0  0  0  0  0  0  0  0
    1.4000   -4.1561    8.7103 H   0  0  0  0  0  0  0  0  0  0  0  0
   -1.0759   -4.8076    7.0301 H   0  0  0  0  0  0  0  0  0  0  0  0
   -1.6050   -4.5894    9.1970 H   0  0  0  0  0  0  0  0  0  0  0  0
   -0.9547   -2.6824    6.1121 H   0  0  0  0  0  0  0  0  0  0  0  0
    0.6008   -1.1352    7.1157 H   0  0  0  0  0  0  0  0  0  0  0  0
    1.4015   -2.3109    5.3471 H   0  0  0  0  0  0  0  0  0  0  0  0
    2.7886   -4.1832    5.4890 H   0  0  0  0  0  0  0  0  0  0  0  0
   -0.1228   -6.4378    5.9886 H   0  0  0  0  0  0  0  0  0  0  0  0
   -0.0455   -8.5217    6.6150 H   0  0  0  0  0  0  0  0  0  0  0  0
   -0.1177   -8.4109    8.8659 H   0  0  0  0  0  0  0  0  0  0  0  0
    1.3858  -10.1482    8.4724 H   0  0  0  0  0  0  0  0  0  0  0  0
    2.5350  -10.6713    2.5117 H   0  0  0  0  0  0  0  0  0  0  0  0
    5.8248   -7.2499    5.9924 H   0  0  0  0  0  0  0  0  0  0  0  0
  1  2  2  0
  1 41  1  0
  1 42  1  0
  2  3  1  0
  2 43  1  0
  3  4  1  0
  3 44  1  0
  3 45  1  0
  4 22  1  0
  4  5  1  0
  4 88  1  1
  5  6  1  0
  5 46  1  0
  5 47  1  0
  6  7  1  0
  6 48  1  0
  6 49  1  0
  7 15  1  0
  7  8  1  6
  7  9  1  0
  8 50  1  0
  9 10  1  0
  9 12  1  0
  9 51  1  6
 10 11  1  0
 11 52  1  0
 11 53  1  0
 11 54  1  0
 13 12  1  6
 12 55  1  0
 12 56  1  0
 13 20  1  0
 13 37  1  0
 13 14  1  0
 14 15  1  0
 14 57  1  0
 14 58  1  0
 15 16  1  0
 15 59  1  6
 16 17  1  0
 16 18  1  0
 16 87  1  6
 17 60  1  0
 17 61  1  0
 17 62  1  0
 18 19  1  0
 18 63  1  0
 18 64  1  0
 20 19  1  6
 19 65  1  0
 19 66  1  0
 20 38  1  0
 20 21  1  0
 21 22  1  0
 21 67  1  0
 21 68  1  0
 22 23  1  0
 22 69  1  1
 23 36  1  0
 23 24  1  0
 23 70  1  1
 24 25  1  0
 24 27  1  0
 24 71  1  1
 25 26  1  0
 26 72  1  0
 26 73  1  0
 26 74  1  0
 27 39  1  0
 27 28  2  0
 28 29  1  0
 28 75  1  0
 29 36  1  0
 29 30  1  0
 29 76  1  1
 30 31  1  0
 30 32  1  0
 30 77  1  6
 31 78  1  0
 32 33  1  0
 32 34  1  0
 32 79  1  6
 33 80  1  0
 34 35  2  0
 34 81  1  0
 36 35  1  6
 35 82  1  0
 36 37  1  0
 37 38  1  0
 37 83  1  6
 38 39  1  0
 38 84  1  6
 39 40  1  0
 39 85  1  1
 40 86  1  0
M  CHG  2   4   1  16   1
M  END
>  <i_m_ct_stereo_status>  (280) 
1

>  <s_m_source_file>  (280) 
/var/tmp/pbs.5076255.sched01/tmpqw5sdpkp/8220gfbieb.sdf

>  <i_m_source_file_index>  (280) 
35

>  <i_lp_mmshare_version>  (280) 
48012

>  <i_f3d_flags>  (280) 
1

>  <s_epik_input>  (280) 
W0NIMl0xW0NIMl1OKFtDSDNdKVtDSF0oW0NIMl0yKVtDQEBdKFtPSF0pKFtDQEhdKFtDSDJdMylPW0NIM10pW0NIMl1bQ0gyXU4oW0NIMl1bQ0hdPVtDSDJdKVtDQEhdKFtDSDJdNClbQ0BASF0oW0NAQF01NltDQEBIXTdbQ0BIXThbQ0BdMTRbQ0BdMjM3KVtDQEBIXShPW0NIM10pQyhbQ0BASF04W09IXSk9W0NIXVtDQEBIXTVbQ0BASF0oW09IXSlbQ0BASF0oW09IXSlbQ0hdPVtDSF02

>  <s_epik_cmdline>  (280) 
J2VwaWtfcHl0aG9uJywgJy1waHQnLCAnMi4wJywgJy1waCcsICc3LjAnLCAnLXRuJywgJzgnLCAnLW1hJywgJzIwMCcsICctaW1hZScsICc8aW5maWxlLm1hZT4nLCAnLW9tYWUnLCAnPG91dGZpbGUubWFlPic=

>  <r_epik_Ionization_Penalty>  (280) 
0.0812168

>  <r_epik_Ionization_Penalty_Charging>  (280) 
0.0812157

>  <r_epik_Ionization_Penalty_Neutral>  (280) 
1.0642e-06

>  <r_epik_State_Penalty>  (280) 
0.0628976

>  <r_epik_Charging_Adjusted_Penalty>  (280) 
0.144113

>  <i_epik_Tot_Q>  (280) 
2

>  <i_epik_Tot_abs_Q>  (280) 
2

>  <s_lp_Force_Field>  (280) 
OPLS3e

>  <r_lp_Energy>  (280) 
242.623

>  <b_lp_Chiralities_Consistent>  (280) 
1

>  <s_lp_Variant>  (280) 
84:0-1

>  <s_i_glide_gridfile>  (280) 
pfpi4k_grid

>  <i_i_glide_lignum>  (280) 
35

>  <i_i_glide_rotatable_bonds>  (280) 
8

>  <r_i_docking_score>  (280) 
-2.73382

>  <r_i_glide_ligand_efficiency>  (280) 
-0.0683454

>  <r_i_glide_ligand_efficiency_sa>  (280) 
-0.233738

>  <r_i_glide_ligand_efficiency_ln>  (280) 
-0.583043

>  <r_i_glide_gscore>  (280) 
-2.73382

>  <r_i_glide_lipo>  (280) 
-0.100723

>  <r_i_glide_hbond>  (280) 
-0.0466064

>  <r_i_glide_metal>  (280) 
-0

>  <r_i_glide_rewards>  (280) 
0

>  <r_i_glide_evdw>  (280) 
-18.4071

>  <r_i_glide_ecoul>  (280) 
-11.4941

>  <r_i_glide_erotb>  (280) 
0.0579847

>  <r_i_glide_esite>  (280) 
0

>  <r_i_glide_emodel>  (280) 
-32.7946

>  <r_i_glide_energy>  (280) 
-29.9012

>  <r_i_glide_einternal>  (280) 
7.22548

>  <r_i_glide_intrahb_reward>  (280) 
-0

>  <i_i_glide_confnum>  (280) 
2

>  <i_i_glide_posenum>  (280) 
29

>  <r_i_glide_eff_state_penalty>  (280) 
0

>  <ligand_id>  (280) 
84

>  <original_smiles>  (280) 
C=CCN1CCC2(O)C(OC)CC34CC2N(C)CCC32CC1C1C(OC)C3=CC5C(O)C(O)C=CC51C4C2C3O

>  <smiles>  (280) 
[H]OC1([H])C([H])=C([H])C23C([H])(C([H])=C4C([H])(O[H])C5([H])C2([H])C26C([H])([H])C([H])(OC([H])([H])[H])C7(O[H])C([H])([H])C([H])([H])[N+]([H])(C([H])([H])C([H])=C([H])[H])C([H])(C([H])([H])C52C([H])([H])C([H])([H])[N+]([H])(C([H])([H])[H])C7([H])C6([H])[H])C3([H])C4([H])OC([H])([H])[H])C1([H])O[H]

$$$$
84:1:0
     RDKit          3D

 87 94  0  0  1  0  0  0  0  0999 V2000
    7.5296   -6.7252    6.1655 C   0  0  0  0  0  0  0  0  0  0  0  0
    6.9996   -5.5999    5.6491 C   0  0  0  0  0  0  0  0  0  0  0  0
    5.6158   -5.3949    5.0364 C   0  0  0  0  0  0  0  0  0  0  0  0
    4.7212   -6.5607    5.0093 N   0  0  0  0  0  0  0  0  0  0  0  0
    5.2025   -7.5443    3.9901 C   0  0  0  0  0  0  0  0  0  0  0  0
    4.3428   -8.7175    3.3770 C   0  0  0  0  0  0  0  0  0  0  0  0
    2.9910   -8.5719    2.5624 C   0  0  2  0  0  0  0  0  0  0  0  0
    3.3038   -9.0560    1.2568 O   0  0  0  0  0  0  0  0  0  0  0  0
    2.6338   -7.1059    2.4039 C   0  0  1  0  0  0  0  0  0  0  0  0
    1.6256   -6.9263    1.4023 O   0  0  0  0  0  0  0  0  0  0  0  0
    1.9114   -5.8648    0.4973 C   0  0  0  0  0  0  0  0  0  0  0  0
    2.0592   -6.5849    3.7340 C   0  0  0  0  0  0  0  0  0  0  0  0
    1.5472   -7.5695    4.8659 C   0  0  1  0  0  0  0  0  0  0  0  0
    0.7019   -8.4706    3.9674 C   0  0  0  0  0  0  0  0  0  0  0  0
    1.6672   -9.3154    3.0361 C   0  0  2  0  0  0  0  0  0  0  0  0
    1.8277  -10.7413    3.4268 N   0  0  2  0  0  0  0  0  0  0  0  0
    0.6359  -11.5531    3.1429 C   0  0  0  0  0  0  0  0  0  0  0  0
    2.4139  -11.0206    4.7623 C   0  0  0  0  0  0  0  0  0  0  0  0
    1.9518  -10.1169    5.9287 C   0  0  0  0  0  0  0  0  0  0  0  0
    2.2095   -8.5589    5.9501 C   0  0  1  0  0  0  0  0  0  0  0  0
    3.6632   -8.3618    6.4082 C   0  0  0  0  0  0  0  0  0  0  0  0
    4.2074   -6.9298    6.3555 C   0  0  2  0  0  0  0  0  0  0  0  0
    3.3351   -5.8683    7.1672 C   0  0  2  0  0  0  0  0  0  0  0  0
    3.2430   -6.3380    8.6585 C   0  0  1  0  0  0  0  0  0  0  0  0
    3.6861   -5.2962    9.5334 O   0  0  0  0  0  0  0  0  0  0  0  0
    5.1006   -5.1705    9.6635 C   0  0  0  0  0  0  0  0  0  0  0  0
    1.8062   -6.7195    9.0050 C   0  0  0  0  0  0  0  0  0  0  0  0
    0.8710   -5.7650    8.9323 C   0  0  0  0  0  0  0  0  0  0  0  0
    1.1185   -4.7209    7.8762 C   0  0  2  0  0  0  0  0  0  0  0  0
   -0.2065   -4.0314    7.4361 C   0  0  1  0  0  0  0  0  0  0  0  0
   -0.9870   -3.5692    8.5234 O   0  0  0  0  0  0  0  0  0  0  0  0
    0.0449   -2.8912    6.4186 C   0  0  1  0  0  0  0  0  0  0  0  0
    0.2381   -1.6428    7.0627 O   0  0  0  0  0  0  0  0  0  0  0  0
    1.2551   -3.1737    5.5542 C   0  0  0  0  0  0  0  0  0  0  0  0
    2.0419   -4.2568    5.6568 C   0  0  0  0  0  0  0  0  0  0  0  0
    1.8880   -5.4171    6.6637 C   0  0  1  0  0  0  0  0  0  0  0  0
    1.0863   -6.6938    6.1075 C   0  0  2  0  0  0  0  0  0  0  0  0
    1.1436   -7.9979    6.9441 C   0  0  2  0  0  0  0  0  0  0  0  0
    1.2993   -8.0538    8.5028 C   0  0  1  0  0  0  0  0  0  0  0  0
    2.0281   -9.1525    9.0194 O   0  0  0  0  0  0  0  0  0  0  0  0
    6.9799   -7.6544    6.2148 H   0  0  0  0  0  0  0  0  0  0  0  0
    8.5343   -6.7251    6.5528 H   0  0  0  0  0  0  0  0  0  0  0  0
    7.6078   -4.7089    5.6496 H   0  0  0  0  0  0  0  0  0  0  0  0
    5.1365   -4.5641    5.5464 H   0  0  0  0  0  0  0  0  0  0  0  0
    5.7415   -5.0250    4.0223 H   0  0  0  0  0  0  0  0  0  0  0  0
    5.5534   -6.9609    3.1328 H   0  0  0  0  0  0  0  0  0  0  0  0
    6.0931   -8.0340    4.3786 H   0  0  0  0  0  0  0  0  0  0  0  0
    5.0679   -9.1349    2.6799 H   0  0  0  0  0  0  0  0  0  0  0  0
    4.3143   -9.5343    4.0546 H   0  0  0  0  0  0  0  0  0  0  0  0
    3.5498   -9.9659    1.2776 H   0  0  0  0  0  0  0  0  0  0  0  0
    3.5262   -6.5431    2.1333 H   0  0  0  0  0  0  0  0  0  0  0  0
    1.1062   -5.7884   -0.2321 H   0  0  0  0  0  0  0  0  0  0  0  0
    2.8371   -6.0499   -0.0492 H   0  0  0  0  0  0  0  0  0  0  0  0
    2.0013   -4.9056    1.0096 H   0  0  0  0  0  0  0  0  0  0  0  0
    2.7799   -5.8759    4.0529 H   0  0  0  0  0  0  0  0  0  0  0  0
    1.2337   -5.9192    3.4788 H   0  0  0  0  0  0  0  0  0  0  0  0
    0.0046   -9.1028    4.5202 H   0  0  0  0  0  0  0  0  0  0  0  0
    0.0394   -7.8694    3.3449 H   0  0  0  0  0  0  0  0  0  0  0  0
    1.0835   -9.3639    2.1107 H   0  0  0  0  0  0  0  0  0  0  0  0
   -0.1762  -11.3140    3.8317 H   0  0  0  0  0  0  0  0  0  0  0  0
    0.8567  -12.6177    3.2393 H   0  0  0  0  0  0  0  0  0  0  0  0
    0.2643  -11.4116    2.1218 H   0  0  0  0  0  0  0  0  0  0  0  0
    2.1018  -12.0304    5.0499 H   0  0  0  0  0  0  0  0  0  0  0  0
    3.4992  -11.1516    4.7635 H   0  0  0  0  0  0  0  0  0  0  0  0
    0.8907  -10.3390    6.0556 H   0  0  0  0  0  0  0  0  0  0  0  0
    2.4004  -10.5540    6.8182 H   0  0  0  0  0  0  0  0  0  0  0  0
    3.7646   -8.7102    7.4274 H   0  0  0  0  0  0  0  0  0  0  0  0
    4.3526   -9.0627    5.9703 H   0  0  0  0  0  0  0  0  0  0  0  0
    5.0952   -7.0103    6.9701 H   0  0  0  0  0  0  0  0  0  0  0  0
    3.9234   -4.9541    7.1945 H   0  0  0  0  0  0  0  0  0  0  0  0
    3.8714   -7.1994    8.8808 H   0  0  0  0  0  0  0  0  0  0  0  0
    5.3244   -4.3221   10.3130 H   0  0  0  0  0  0  0  0  0  0  0  0
    5.5960   -4.9882    8.7082 H   0  0  0  0  0  0  0  0  0  0  0  0
    5.5428   -6.0597   10.1184 H   0  0  0  0  0  0  0  0  0  0  0  0
   -0.1608   -6.0638    8.9977 H   0  0  0  0  0  0  0  0  0  0  0  0
    1.7640   -3.9598    8.3226 H   0  0  0  0  0  0  0  0  0  0  0  0
   -0.8303   -4.7717    6.9426 H   0  0  0  0  0  0  0  0  0  0  0  0
   -1.0876   -4.2643    9.1462 H   0  0  0  0  0  0  0  0  0  0  0  0
   -0.8244   -2.7855    5.7664 H   0  0  0  0  0  0  0  0  0  0  0  0
    0.5869   -1.0335    6.4378 H   0  0  0  0  0  0  0  0  0  0  0  0
    1.5121   -2.4028    4.8415 H   0  0  0  0  0  0  0  0  0  0  0  0
    2.9435   -4.2319    5.0686 H   0  0  0  0  0  0  0  0  0  0  0  0
    0.0420   -6.4395    5.9170 H   0  0  0  0  0  0  0  0  0  0  0  0
    0.1870   -8.4791    6.7270 H   0  0  0  0  0  0  0  0  0  0  0  0
    0.3099   -8.2010    8.9383 H   0  0  0  0  0  0  0  0  0  0  0  0
    1.7774   -9.9408    8.5671 H   0  0  0  0  0  0  0  0  0  0  0  0
    2.5290  -11.0988    2.7824 H   0  0  0  0  0  0  0  0  0  0  0  0
  1  2  2  0
  1 41  1  0
  1 42  1  0
  2  3  1  0
  2 43  1  0
  3  4  1  0
  3 44  1  0
  3 45  1  0
  4 22  1  0
  4  5  1  0
  5  6  1  0
  5 46  1  0
  5 47  1  0
  6  7  1  0
  6 48  1  0
  6 49  1  0
  7 15  1  0
  7  8  1  6
  7  9  1  0
  8 50  1  0
  9 10  1  0
  9 12  1  0
  9 51  1  6
 10 11  1  0
 11 52  1  0
 11 53  1  0
 11 54  1  0
 13 12  1  6
 12 55  1  0
 12 56  1  0
 13 20  1  0
 13 37  1  0
 13 14  1  0
 14 15  1  0
 14 57  1  0
 14 58  1  0
 15 16  1  0
 15 59  1  6
 16 17  1  0
 16 18  1  0
 16 87  1  6
 17 60  1  0
 17 61  1  0
 17 62  1  0
 18 19  1  0
 18 63  1  0
 18 64  1  0
 20 19  1  6
 19 65  1  0
 19 66  1  0
 20 38  1  0
 20 21  1  0
 21 22  1  0
 21 67  1  0
 21 68  1  0
 22 23  1  0
 22 69  1  1
 23 36  1  0
 23 24  1  0
 23 70  1  1
 24 25  1  0
 24 27  1  0
 24 71  1  6
 25 26  1  0
 26 72  1  0
 26 73  1  0
 26 74  1  0
 27 39  1  0
 27 28  2  0
 28 29  1  0
 28 75  1  0
 29 36  1  0
 29 30  1  0
 29 76  1  1
 30 31  1  0
 30 32  1  0
 30 77  1  6
 31 78  1  0
 32 33  1  0
 32 34  1  0
 32 79  1  6
 33 80  1  0
 34 35  2  0
 34 81  1  0
 36 35  1  6
 35 82  1  0
 36 37  1  0
 37 38  1  0
 37 83  1  6
 38 39  1  0
 38 84  1  1
 39 40  1  0
 39 85  1  1
 40 86  1  0
M  CHG  1  16   1
M  END
>  <i_m_ct_stereo_status>  (281) 
1

>  <s_m_source_file>  (281) 
/var/tmp/pbs.5076255.sched01/tmpqw5sdpkp/8220gfbieb.sdf

>  <i_m_source_file_index>  (281) 
36

>  <i_lp_mmshare_version>  (281) 
48012

>  <i_f3d_flags>  (281) 
1

>  <s_epik_input>  (281) 
W0NIMl0xW0NIMl1OKFtDSDNdKVtDSF0oW0NIMl0yKVtDQEBdKFtPSF0pKFtDQEhdKFtDSDJdMylPW0NIM10pW0NIMl1bQ0gyXU4oW0NIMl1bQ0hdPVtDSDJdKVtDQEhdKFtDSDJdNClbQ0BASF0oW0NAQF01NltDQEBIXTdbQ0BIXThbQ0BdMTRbQ0BdMjM3KVtDQEBIXShPW0NIM10pQyhbQ0BASF04W09IXSk9W0NIXVtDQEBIXTVbQ0BASF0oW09IXSlbQ0BASF0oW09IXSlbQ0hdPVtDSF02

>  <s_epik_cmdline>  (281) 
J2VwaWtfcHl0aG9uJywgJy1waHQnLCAnMi4wJywgJy1waCcsICc3LjAnLCAnLXRuJywgJzgnLCAnLW1hJywgJzIwMCcsICctaW1hZScsICc8aW5maWxlLm1hZT4nLCAnLW9tYWUnLCAnPG91dGZpbGUubWFlPic=

>  <r_epik_Ionization_Penalty>  (281) 
1.32951

>  <r_epik_Ionization_Penalty_Charging>  (281) 
0.00465265

>  <r_epik_Ionization_Penalty_Neutral>  (281) 
1.32485

>  <r_epik_State_Penalty>  (281) 
1.49233

>  <r_epik_Charging_Adjusted_Penalty>  (281) 
1.49698

>  <i_epik_Tot_Q>  (281) 
1

>  <i_epik_Tot_abs_Q>  (281) 
1

>  <s_lp_Force_Field>  (281) 
OPLS3e

>  <r_lp_Energy>  (281) 
215.583

>  <b_lp_Chiralities_Consistent>  (281) 
1

>  <s_lp_Variant>  (281) 
84:0-2

>  <s_i_glide_gridfile>  (281) 
pfpi4k_grid

>  <i_i_glide_lignum>  (281) 
36

>  <i_i_glide_rotatable_bonds>  (281) 
8

>  <r_i_docking_score>  (281) 
-2.51725

>  <r_i_glide_ligand_efficiency>  (281) 
-0.0629313

>  <r_i_glide_ligand_efficiency_sa>  (281) 
-0.215222

>  <r_i_glide_ligand_efficiency_ln>  (281) 
-0.536856

>  <r_i_glide_gscore>  (281) 
-2.51725

>  <r_i_glide_lipo>  (281) 
-0.0750308

>  <r_i_glide_hbond>  (281) 
0

>  <r_i_glide_metal>  (281) 
-0

>  <r_i_glide_rewards>  (281) 
0

>  <r_i_glide_evdw>  (281) 
-19.3258

>  <r_i_glide_ecoul>  (281) 
-10.2364

>  <r_i_glide_erotb>  (281) 
0.0595345

>  <r_i_glide_esite>  (281) 
0

>  <r_i_glide_emodel>  (281) 
-33.3855

>  <r_i_glide_energy>  (281) 
-29.5622

>  <r_i_glide_einternal>  (281) 
6.64065

>  <r_i_glide_intrahb_reward>  (281) 
-0

>  <i_i_glide_confnum>  (281) 
5

>  <i_i_glide_posenum>  (281) 
17

>  <r_i_glide_eff_state_penalty>  (281) 
0

>  <ligand_id>  (281) 
84

>  <original_smiles>  (281) 
C=CCN1CCC2(O)C(OC)CC34CC2N(C)CCC32CC1C1C(OC)C3=CC5C(O)C(O)C=CC51C4C2C3O

>  <smiles>  (281) 
[H]OC1([H])C([H])=C([H])C23C([H])(C([H])=C4C([H])(OC([H])([H])[H])C2([H])C2([H])N(C([H])([H])C([H])=C([H])[H])C([H])([H])C([H])([H])C5(O[H])C([H])(OC([H])([H])[H])C([H])([H])C67C([H])([H])C5([H])[N+]([H])(C([H])([H])[H])C([H])([H])C([H])([H])C6(C2([H])[H])C([H])(C4([H])O[H])C37[H])C1([H])O[H]

$$$$
84:1:1
     RDKit          3D

 87 94  0  0  1  0  0  0  0  0999 V2000
    7.3011   -4.5791    6.5877 C   0  0  0  0  0  0  0  0  0  0  0  0
    6.7354   -5.3994    5.6901 C   0  0  0  0  0  0  0  0  0  0  0  0
    5.3343   -5.2155    5.1276 C   0  0  0  0  0  0  0  0  0  0  0  0
    4.5153   -6.4377    5.0892 N   0  0  0  0  0  0  0  0  0  0  0  0
    5.0485   -7.3762    4.0617 C   0  0  0  0  0  0  0  0  0  0  0  0
    4.2312   -8.5628    3.3982 C   0  0  0  0  0  0  0  0  0  0  0  0
    2.8547   -8.4510    2.6073 C   0  0  2  0  0  0  0  0  0  0  0  0
    3.1645   -8.8775    1.2819 O   0  0  0  0  0  0  0  0  0  0  0  0
    2.4221   -7.0005    2.5025 C   0  0  1  0  0  0  0  0  0  0  0  0
    1.3773   -6.8271    1.5355 O   0  0  0  0  0  0  0  0  0  0  0  0
    1.7166   -5.9221    0.4892 C   0  0  0  0  0  0  0  0  0  0  0  0
    1.8424   -6.5581    3.8579 C   0  0  0  0  0  0  0  0  0  0  0  0
    1.3998   -7.6013    4.9617 C   0  0  1  0  0  0  0  0  0  0  0  0
    0.5802   -8.5059    4.0442 C   0  0  0  0  0  0  0  0  0  0  0  0
    1.5707   -9.2687    3.0735 C   0  0  2  0  0  0  0  0  0  0  0  0
    1.7959  -10.6920    3.4081 N   0  0  2  0  0  0  0  0  0  0  0  0
    0.6312  -11.5330    3.1165 C   0  0  0  0  0  0  0  0  0  0  0  0
    2.4181  -10.9983    4.7214 C   0  0  0  0  0  0  0  0  0  0  0  0
    1.9394  -10.1605    5.9261 C   0  0  0  0  0  0  0  0  0  0  0  0
    2.1275   -8.5928    6.0015 C   0  0  1  0  0  0  0  0  0  0  0  0
    3.5821   -8.3455    6.4427 C   0  0  0  0  0  0  0  0  0  0  0  0
    4.0744   -6.8885    6.4320 C   0  0  2  0  0  0  0  0  0  0  0  0
    3.1582   -5.9017    7.2938 C   0  0  2  0  0  0  0  0  0  0  0  0
    3.1065   -6.4280    8.7674 C   0  0  1  0  0  0  0  0  0  0  0  0
    3.5102   -5.3938    9.6700 O   0  0  0  0  0  0  0  0  0  0  0  0
    4.9189   -5.2152    9.7950 C   0  0  0  0  0  0  0  0  0  0  0  0
    1.6939   -6.8869    9.1222 C   0  0  0  0  0  0  0  0  0  0  0  0
    0.7175   -5.9730    9.0973 C   0  0  0  0  0  0  0  0  0  0  0  0
    0.8965   -4.8882    8.0719 C   0  0  2  0  0  0  0  0  0  0  0  0
   -0.4690   -4.2539    7.6778 C   0  0  1  0  0  0  0  0  0  0  0  0
   -1.2424   -3.8555    8.8010 O   0  0  0  0  0  0  0  0  0  0  0  0
   -0.2949   -3.0628    6.7041 C   0  0  1  0  0  0  0  0  0  0  0  0
   -0.1594   -1.8245    7.3831 O   0  0  0  0  0  0  0  0  0  0  0  0
    0.9102   -3.2525    5.8093 C   0  0  0  0  0  0  0  0  0  0  0  0
    1.7542   -4.3012    5.8589 C   0  0  0  0  0  0  0  0  0  0  0  0
    1.6796   -5.5014    6.8253 C   0  0  1  0  0  0  0  0  0  0  0  0
    0.9236   -6.7934    6.2409 C   0  0  2  0  0  0  0  0  0  0  0  0
    1.0515   -8.1201    7.0302 C   0  0  2  0  0  0  0  0  0  0  0  0
    1.2353   -8.2224    8.5827 C   0  0  1  0  0  0  0  0  0  0  0  0
    2.0156   -9.3059    9.0513 O   0  0  0  0  0  0  0  0  0  0  0  0
    6.7734   -3.7258    6.9918 H   0  0  0  0  0  0  0  0  0  0  0  0
    8.3100   -4.7515    6.9339 H   0  0  0  0  0  0  0  0  0  0  0  0
    7.3128   -6.2311    5.3153 H   0  0  0  0  0  0  0  0  0  0  0  0
    4.8328   -4.4276    5.6851 H   0  0  0  0  0  0  0  0  0  0  0  0
    5.4311   -4.8202    4.1201 H   0  0  0  0  0  0  0  0  0  0  0  0
    5.3805   -6.7616    3.2228 H   0  0  0  0  0  0  0  0  0  0  0  0
    5.9623   -7.8110    4.4714 H   0  0  0  0  0  0  0  0  0  0  0  0
    4.9636   -8.9197    2.6736 H   0  0  0  0  0  0  0  0  0  0  0  0
    4.2451   -9.4096    4.0394 H   0  0  0  0  0  0  0  0  0  0  0  0
    3.4607   -9.7685    1.2764 H   0  0  0  0  0  0  0  0  0  0  0  0
    3.2778   -6.3769    2.2429 H   0  0  0  0  0  0  0  0  0  0  0  0
    0.8877   -5.8570   -0.2144 H   0  0  0  0  0  0  0  0  0  0  0  0
    2.5944   -6.2549   -0.0626 H   0  0  0  0  0  0  0  0  0  0  0  0
    1.9236   -4.9208    0.8656 H   0  0  0  0  0  0  0  0  0  0  0  0
    2.5333   -5.8301    4.1899 H   0  0  0  0  0  0  0  0  0  0  0  0
    0.9857   -5.9207    3.6391 H   0  0  0  0  0  0  0  0  0  0  0  0
   -0.0772   -9.1913    4.5846 H   0  0  0  0  0  0  0  0  0  0  0  0
   -0.1252   -7.9196    3.4572 H   0  0  0  0  0  0  0  0  0  0  0  0
    0.9768   -9.3110    2.1565 H   0  0  0  0  0  0  0  0  0  0  0  0
   -0.1729  -11.3735    3.8374 H   0  0  0  0  0  0  0  0  0  0  0  0
    0.9214  -12.5713    3.1701 H   0  0  0  0  0  0  0  0  0  0  0  0
    0.2273  -11.3851    2.1105 H   0  0  0  0  0  0  0  0  0  0  0  0
    2.1567  -12.0292    4.9770 H   0  0  0  0  0  0  0  0  0  0  0  0
    3.5041  -11.0831    4.7023 H   0  0  0  0  0  0  0  0  0  0  0  0
    0.8892  -10.4363    6.0633 H   0  0  0  0  0  0  0  0  0  0  0  0
    2.4192  -10.6089    6.7941 H   0  0  0  0  0  0  0  0  0  0  0  0
    3.7133   -8.7252    7.4474 H   0  0  0  0  0  0  0  0  0  0  0  0
    4.2886   -9.0086    5.9714 H   0  0  0  0  0  0  0  0  0  0  0  0
    5.0082   -6.9563    6.9868 H   0  0  0  0  0  0  0  0  0  0  0  0
    3.6990   -4.9598    7.3478 H   0  0  0  0  0  0  0  0  0  0  0  0
    3.7772   -7.2664    8.9504 H   0  0  0  0  0  0  0  0  0  0  0  0
    5.1155   -4.3781   10.4672 H   0  0  0  0  0  0  0  0  0  0  0  0
    5.3961   -4.9863    8.8415 H   0  0  0  0  0  0  0  0  0  0  0  0
    5.3987   -6.0998   10.2188 H   0  0  0  0  0  0  0  0  0  0  0  0
   -0.2975   -6.3179    9.1705 H   0  0  0  0  0  0  0  0  0  0  0  0
    1.5084   -4.1112    8.5367 H   0  0  0  0  0  0  0  0  0  0  0  0
   -1.0749   -4.9989    7.1665 H   0  0  0  0  0  0  0  0  0  0  0  0
   -1.4535   -4.6199    9.3169 H   0  0  0  0  0  0  0  0  0  0  0  0
   -1.1838   -2.9757    6.0752 H   0  0  0  0  0  0  0  0  0  0  0  0
    0.6773   -1.8062    7.8117 H   0  0  0  0  0  0  0  0  0  0  0  0
    1.1116   -2.4416    5.1239 H   0  0  0  0  0  0  0  0  0  0  0  0
    2.6384   -4.2098    5.2538 H   0  0  0  0  0  0  0  0  0  0  0  0
   -0.1348   -6.5816    6.0744 H   0  0  0  0  0  0  0  0  0  0  0  0
    0.1149   -8.6376    6.8089 H   0  0  0  0  0  0  0  0  0  0  0  0
    0.2610   -8.4265    9.0295 H   0  0  0  0  0  0  0  0  0  0  0  0
    1.7318  -10.1034    8.6353 H   0  0  0  0  0  0  0  0  0  0  0  0
    2.4939  -11.0064    2.7398 H   0  0  0  0  0  0  0  0  0  0  0  0
  1  2  2  0
  1 41  1  0
  1 42  1  0
  2  3  1  0
  2 43  1  0
  3  4  1  0
  3 44  1  0
  3 45  1  0
  4 22  1  0
  4  5  1  0
  5  6  1  0
  5 46  1  0
  5 47  1  0
  6  7  1  0
  6 48  1  0
  6 49  1  0
  7 15  1  0
  7  8  1  6
  7  9  1  0
  8 50  1  0
  9 10  1  0
  9 12  1  0
  9 51  1  6
 10 11  1  0
 11 52  1  0
 11 53  1  0
 11 54  1  0
 13 12  1  6
 12 55  1  0
 12 56  1  0
 13 20  1  0
 13 37  1  0
 13 14  1  0
 14 15  1  0
 14 57  1  0
 14 58  1  0
 15 16  1  0
 15 59  1  6
 16 17  1  0
 16 18  1  0
 16 87  1  6
 17 60  1  0
 17 61  1  0
 17 62  1  0
 18 19  1  0
 18 63  1  0
 18 64  1  0
 20 19  1  6
 19 65  1  0
 19 66  1  0
 20 38  1  0
 20 21  1  0
 21 22  1  0
 21 67  1  0
 21 68  1  0
 22 23  1  0
 22 69  1  1
 23 36  1  0
 23 24  1  0
 23 70  1  1
 24 25  1  0
 24 27  1  0
 24 71  1  6
 25 26  1  0
 26 72  1  0
 26 73  1  0
 26 74  1  0
 27 39  1  0
 27 28  2  0
 28 29  1  0
 28 75  1  0
 29 36  1  0
 29 30  1  0
 29 76  1  1
 30 31  1  0
 30 32  1  0
 30 77  1  6
 31 78  1  0
 32 33  1  0
 32 34  1  0
 32 79  1  6
 33 80  1  0
 34 35  2  0
 34 81  1  0
 36 35  1  6
 35 82  1  0
 36 37  1  0
 37 38  1  0
 37 83  1  6
 38 39  1  0
 38 84  1  6
 39 40  1  0
 39 85  1  1
 40 86  1  0
M  CHG  1  16   1
M  END
>  <i_m_ct_stereo_status>  (282) 
1

>  <s_m_source_file>  (282) 
/var/tmp/pbs.5076255.sched01/tmpqw5sdpkp/8220gfbieb.sdf

>  <i_m_source_file_index>  (282) 
36

>  <i_lp_mmshare_version>  (282) 
48012

>  <i_f3d_flags>  (282) 
1

>  <s_epik_input>  (282) 
W0NIMl0xW0NIMl1OKFtDSDNdKVtDSF0oW0NIMl0yKVtDQEBdKFtPSF0pKFtDQEhdKFtDSDJdMylPW0NIM10pW0NIMl1bQ0gyXU4oW0NIMl1bQ0hdPVtDSDJdKVtDQEhdKFtDSDJdNClbQ0BASF0oW0NAQF01NltDQEBIXTdbQ0BIXThbQ0BdMTRbQ0BdMjM3KVtDQEBIXShPW0NIM10pQyhbQ0BASF04W09IXSk9W0NIXVtDQEBIXTVbQ0BASF0oW09IXSlbQ0BASF0oW09IXSlbQ0hdPVtDSF02

>  <s_epik_cmdline>  (282) 
J2VwaWtfcHl0aG9uJywgJy1waHQnLCAnMi4wJywgJy1waCcsICc3LjAnLCAnLXRuJywgJzgnLCAnLW1hJywgJzIwMCcsICctaW1hZScsICc8aW5maWxlLm1hZT4nLCAnLW9tYWUnLCAnPG91dGZpbGUubWFlPic=

>  <r_epik_Ionization_Penalty>  (282) 
1.32951

>  <r_epik_Ionization_Penalty_Charging>  (282) 
0.00465265

>  <r_epik_Ionization_Penalty_Neutral>  (282) 
1.32485

>  <r_epik_State_Penalty>  (282) 
1.49233

>  <r_epik_Charging_Adjusted_Penalty>  (282) 
1.49698

>  <i_epik_Tot_Q>  (282) 
1

>  <i_epik_Tot_abs_Q>  (282) 
1

>  <s_lp_Force_Field>  (282) 
OPLS3e

>  <r_lp_Energy>  (282) 
215.583

>  <b_lp_Chiralities_Consistent>  (282) 
1

>  <s_lp_Variant>  (282) 
84:0-2

>  <s_i_glide_gridfile>  (282) 
pfpi4k_grid

>  <i_i_glide_lignum>  (282) 
36

>  <i_i_glide_rotatable_bonds>  (282) 
8

>  <r_i_docking_score>  (282) 
-2.48806

>  <r_i_glide_ligand_efficiency>  (282) 
-0.0622016

>  <r_i_glide_ligand_efficiency_sa>  (282) 
-0.212726

>  <r_i_glide_ligand_efficiency_ln>  (282) 
-0.530631

>  <r_i_glide_gscore>  (282) 
-2.48806

>  <r_i_glide_lipo>  (282) 
-0.0993794

>  <r_i_glide_hbond>  (282) 
0

>  <r_i_glide_metal>  (282) 
-0

>  <r_i_glide_rewards>  (282) 
0

>  <r_i_glide_evdw>  (282) 
-20.2861

>  <r_i_glide_ecoul>  (282) 
-9.55942

>  <r_i_glide_erotb>  (282) 
0.0595345

>  <r_i_glide_esite>  (282) 
0

>  <r_i_glide_emodel>  (282) 
-34.5849

>  <r_i_glide_energy>  (282) 
-29.8455

>  <r_i_glide_einternal>  (282) 
4.82583

>  <r_i_glide_intrahb_reward>  (282) 
-0

>  <i_i_glide_confnum>  (282) 
1

>  <i_i_glide_posenum>  (282) 
13

>  <r_i_glide_eff_state_penalty>  (282) 
0

>  <ligand_id>  (282) 
84

>  <original_smiles>  (282) 
C=CCN1CCC2(O)C(OC)CC34CC2N(C)CCC32CC1C1C(OC)C3=CC5C(O)C(O)C=CC51C4C2C3O

>  <smiles>  (282) 
[H]OC1([H])C([H])=C([H])C23C([H])(C([H])=C4C([H])(OC([H])([H])[H])C2([H])C2([H])N(C([H])([H])C([H])=C([H])[H])C([H])([H])C([H])([H])C5(O[H])C([H])(OC([H])([H])[H])C([H])([H])C67C([H])([H])C5([H])[N+]([H])(C([H])([H])[H])C([H])([H])C([H])([H])C6(C2([H])[H])C([H])(C4([H])O[H])C37[H])C1([H])O[H]

$$$$
84:1:2
     RDKit          3D

 87 94  0  0  1  0  0  0  0  0999 V2000
    8.1906   -5.5998    5.2874 C   0  0  0  0  0  0  0  0  0  0  0  0
    6.8729   -5.5718    5.0286 C   0  0  0  0  0  0  0  0  0  0  0  0
    5.7872   -5.5225    6.0863 C   0  0  0  0  0  0  0  0  0  0  0  0
    4.6887   -6.4825    5.8778 N   0  0  0  0  0  0  0  0  0  0  0  0
    5.1926   -7.8753    5.6610 C   0  0  0  0  0  0  0  0  0  0  0  0
    4.3502   -9.0581    5.0294 C   0  0  0  0  0  0  0  0  0  0  0  0
    3.6241   -9.0628    3.6163 C   0  0  2  0  0  0  0  0  0  0  0  0
    4.2342  -10.1521    2.9331 O   0  0  0  0  0  0  0  0  0  0  0  0
    3.9103   -7.7712    2.8701 C   0  0  1  0  0  0  0  0  0  0  0  0
    3.5548   -7.8738    1.4886 O   0  0  0  0  0  0  0  0  0  0  0  0
    4.6692   -8.0478    0.6151 C   0  0  0  0  0  0  0  0  0  0  0  0
    3.0189   -6.6611    3.4723 C   0  0  0  0  0  0  0  0  0  0  0  0
    1.7653   -6.9892    4.3849 C   0  0  1  0  0  0  0  0  0  0  0  0
    1.1427   -8.0412    3.4685 C   0  0  0  0  0  0  0  0  0  0  0  0
    2.0618   -9.3266    3.4849 C   0  0  2  0  0  0  0  0  0  0  0  0
    1.5534  -10.4703    4.2716 N   0  0  2  0  0  0  0  0  0  0  0  0
    0.4271  -11.1634    3.6408 C   0  0  0  0  0  0  0  0  0  0  0  0
    1.3496  -10.2575    5.7297 C   0  0  0  0  0  0  0  0  0  0  0  0
    0.7629   -8.8942    6.1554 C   0  0  0  0  0  0  0  0  0  0  0  0
    1.5054   -7.5247    5.8831 C   0  0  1  0  0  0  0  0  0  0  0  0
    2.5937   -7.3806    6.9651 C   0  0  0  0  0  0  0  0  0  0  0  0
    3.5691   -6.1960    6.8109 C   0  0  2  0  0  0  0  0  0  0  0  0
    2.8272   -4.7752    6.7167 C   0  0  2  0  0  0  0  0  0  0  0  0
    1.9214   -4.5690    7.9808 C   0  0  1  0  0  0  0  0  0  0  0  0
    2.3083   -3.3448    8.6055 O   0  0  0  0  0  0  0  0  0  0  0  0
    1.7475   -3.1115    9.8911 C   0  0  0  0  0  0  0  0  0  0  0  0
    0.4456   -4.5466    7.5836 C   0  0  0  0  0  0  0  0  0  0  0  0
    0.0333   -3.5817    6.7606 C   0  0  0  0  0  0  0  0  0  0  0  0
    1.0666   -3.1239    5.7661 C   0  0  2  0  0  0  0  0  0  0  0  0
    0.3895   -2.4932    4.5217 C   0  0  1  0  0  0  0  0  0  0  0  0
   -0.5512   -1.4912    4.8745 O   0  0  0  0  0  0  0  0  0  0  0  0
    1.4230   -1.9274    3.5189 C   0  0  1  0  0  0  0  0  0  0  0  0
    1.7126   -0.5701    3.8034 O   0  0  0  0  0  0  0  0  0  0  0  0
    2.7153   -2.7132    3.5541 C   0  0  0  0  0  0  0  0  0  0  0  0
    2.9609   -3.7639    4.3618 C   0  0  0  0  0  0  0  0  0  0  0  0
    2.0027   -4.3640    5.4092 C   0  0  1  0  0  0  0  0  0  0  0  0
    1.1403   -5.6194    4.8872 C   0  0  2  0  0  0  0  0  0  0  0  0
    0.3755   -6.4504    5.9499 C   0  0  2  0  0  0  0  0  0  0  0  0
   -0.2012   -5.8754    7.2926 C   0  0  1  0  0  0  0  0  0  0  0  0
   -0.1854   -6.7428    8.4102 O   0  0  0  0  0  0  0  0  0  0  0  0
    8.5670   -5.6002    6.3023 H   0  0  0  0  0  0  0  0  0  0  0  0
    8.9095   -5.6261    4.4822 H   0  0  0  0  0  0  0  0  0  0  0  0
    6.5361   -5.5614    4.0023 H   0  0  0  0  0  0  0  0  0  0  0  0
    6.2235   -5.6659    7.0750 H   0  0  0  0  0  0  0  0  0  0  0  0
    5.4331   -4.5017    6.0445 H   0  0  0  0  0  0  0  0  0  0  0  0
    6.0693   -7.8458    5.0171 H   0  0  0  0  0  0  0  0  0  0  0  0
    5.5800   -8.2219    6.6227 H   0  0  0  0  0  0  0  0  0  0  0  0
    5.1173   -9.8267    4.9670 H   0  0  0  0  0  0  0  0  0  0  0  0
    3.7507   -9.5258    5.7709 H   0  0  0  0  0  0  0  0  0  0  0  0
    3.9340  -10.1787    2.0386 H   0  0  0  0  0  0  0  0  0  0  0  0
    4.9559   -7.4780    2.9651 H   0  0  0  0  0  0  0  0  0  0  0  0
    4.3165   -8.0846   -0.4121 H   0  0  0  0  0  0  0  0  0  0  0  0
    5.1947   -8.9805    0.8173 H   0  0  0  0  0  0  0  0  0  0  0  0
    5.3835   -7.2252    0.6899 H   0  0  0  0  0  0  0  0  0  0  0  0
    3.7130   -5.9927    3.9091 H   0  0  0  0  0  0  0  0  0  0  0  0
    2.6736   -6.0441    2.6412 H   0  0  0  0  0  0  0  0  0  0  0  0
    0.1074   -8.2759    3.7105 H   0  0  0  0  0  0  0  0  0  0  0  0
    1.0723   -7.6625    2.4472 H   0  0  0  0  0  0  0  0  0  0  0  0
    1.9596   -9.6624    2.4441 H   0  0  0  0  0  0  0  0  0  0  0  0
   -0.4834  -10.5542    3.6664 H   0  0  0  0  0  0  0  0  0  0  0  0
    0.2218  -12.1071    4.1578 H   0  0  0  0  0  0  0  0  0  0  0  0
    0.6287  -11.4255    2.5950 H   0  0  0  0  0  0  0  0  0  0  0  0
    0.6102  -10.9867    6.0725 H   0  0  0  0  0  0  0  0  0  0  0  0
    2.2061  -10.5502    6.3423 H   0  0  0  0  0  0  0  0  0  0  0  0
   -0.2473   -8.8812    5.7429 H   0  0  0  0  0  0  0  0  0  0  0  0
    0.5740   -8.9875    7.2259 H   0  0  0  0  0  0  0  0  0  0  0  0
    2.1237   -7.2855    7.9332 H   0  0  0  0  0  0  0  0  0  0  0  0
    3.1077   -8.3045    7.1764 H   0  0  0  0  0  0  0  0  0  0  0  0
    4.0665   -6.1833    7.7802 H   0  0  0  0  0  0  0  0  0  0  0  0
    3.5978   -4.0211    6.8342 H   0  0  0  0  0  0  0  0  0  0  0  0
    2.0922   -5.3413    8.7275 H   0  0  0  0  0  0  0  0  0  0  0  0
    2.1065   -2.1559   10.2711 H   0  0  0  0  0  0  0  0  0  0  0  0
    2.0417   -3.8844   10.6021 H   0  0  0  0  0  0  0  0  0  0  0  0
    0.6578   -3.0617    9.8593 H   0  0  0  0  0  0  0  0  0  0  0  0
   -0.9566   -3.6558    6.3337 H   0  0  0  0  0  0  0  0  0  0  0  0
    1.6654   -2.3533    6.2597 H   0  0  0  0  0  0  0  0  0  0  0  0
   -0.1742   -3.2624    4.0042 H   0  0  0  0  0  0  0  0  0  0  0  0
   -0.0551   -0.7104    5.0685 H   0  0  0  0  0  0  0  0  0  0  0  0
    1.0141   -1.9625    2.5066 H   0  0  0  0  0  0  0  0  0  0  0  0
    2.1496   -0.1967    3.0566 H   0  0  0  0  0  0  0  0  0  0  0  0
    3.5009   -2.3499    2.9089 H   0  0  0  0  0  0  0  0  0  0  0  0
    3.9745   -4.1223    4.3638 H   0  0  0  0  0  0  0  0  0  0  0  0
    0.4420   -5.3152    4.1094 H   0  0  0  0  0  0  0  0  0  0  0  0
   -0.4891   -6.8270    5.3958 H   0  0  0  0  0  0  0  0  0  0  0  0
   -1.2652   -5.6710    7.1546 H   0  0  0  0  0  0  0  0  0  0  0  0
    0.6756   -7.1146    8.4860 H   0  0  0  0  0  0  0  0  0  0  0  0
    2.3098  -11.1450    4.2295 H   0  0  0  0  0  0  0  0  0  0  0  0
  1  2  2  0
  1 41  1  0
  1 42  1  0
  2  3  1  0
  2 43  1  0
  3  4  1  0
  3 44  1  0
  3 45  1  0
  4 22  1  0
  4  5  1  0
  5  6  1  0
  5 46  1  0
  5 47  1  0
  6  7  1  0
  6 48  1  0
  6 49  1  0
  7 15  1  0
  7  8  1  6
  7  9  1  0
  8 50  1  0
  9 10  1  0
  9 12  1  0
  9 51  1  6
 10 11  1  0
 11 52  1  0
 11 53  1  0
 11 54  1  0
 13 12  1  6
 12 55  1  0
 12 56  1  0
 13 20  1  0
 13 37  1  0
 13 14  1  0
 14 15  1  0
 14 57  1  0
 14 58  1  0
 15 16  1  0
 15 59  1  6
 16 17  1  0
 16 18  1  0
 16 87  1  1
 17 60  1  0
 17 61  1  0
 17 62  1  0
 18 19  1  0
 18 63  1  0
 18 64  1  0
 20 19  1  6
 19 65  1  0
 19 66  1  0
 20 38  1  0
 20 21  1  0
 21 22  1  0
 21 67  1  0
 21 68  1  0
 22 23  1  0
 22 69  1  1
 23 36  1  0
 23 24  1  0
 23 70  1  1
 24 25  1  0
 24 27  1  0
 24 71  1  1
 25 26  1  0
 26 72  1  0
 26 73  1  0
 26 74  1  0
 27 39  1  0
 27 28  2  0
 28 29  1  0
 28 75  1  0
 29 36  1  0
 29 30  1  0
 29 76  1  1
 30 31  1  0
 30 32  1  0
 30 77  1  6
 31 78  1  0
 32 33  1  0
 32 34  1  0
 32 79  1  6
 33 80  1  0
 34 35  2  0
 34 81  1  0
 36 35  1  6
 35 82  1  0
 36 37  1  0
 37 38  1  0
 37 83  1  6
 38 39  1  0
 38 84  1  6
 39 40  1  0
 39 85  1  6
 40 86  1  0
M  CHG  1  16   1
M  END
>  <i_m_ct_stereo_status>  (283) 
1

>  <s_m_source_file>  (283) 
/var/tmp/pbs.5076255.sched01/tmpqw5sdpkp/8220gfbieb.sdf

>  <i_m_source_file_index>  (283) 
36

>  <i_lp_mmshare_version>  (283) 
48012

>  <i_f3d_flags>  (283) 
1

>  <s_epik_input>  (283) 
W0NIMl0xW0NIMl1OKFtDSDNdKVtDSF0oW0NIMl0yKVtDQEBdKFtPSF0pKFtDQEhdKFtDSDJdMylPW0NIM10pW0NIMl1bQ0gyXU4oW0NIMl1bQ0hdPVtDSDJdKVtDQEhdKFtDSDJdNClbQ0BASF0oW0NAQF01NltDQEBIXTdbQ0BIXThbQ0BdMTRbQ0BdMjM3KVtDQEBIXShPW0NIM10pQyhbQ0BASF04W09IXSk9W0NIXVtDQEBIXTVbQ0BASF0oW09IXSlbQ0BASF0oW09IXSlbQ0hdPVtDSF02

>  <s_epik_cmdline>  (283) 
J2VwaWtfcHl0aG9uJywgJy1waHQnLCAnMi4wJywgJy1waCcsICc3LjAnLCAnLXRuJywgJzgnLCAnLW1hJywgJzIwMCcsICctaW1hZScsICc8aW5maWxlLm1hZT4nLCAnLW9tYWUnLCAnPG91dGZpbGUubWFlPic=

>  <r_epik_Ionization_Penalty>  (283) 
1.32951

>  <r_epik_Ionization_Penalty_Charging>  (283) 
0.00465265

>  <r_epik_Ionization_Penalty_Neutral>  (283) 
1.32485

>  <r_epik_State_Penalty>  (283) 
1.49233

>  <r_epik_Charging_Adjusted_Penalty>  (283) 
1.49698

>  <i_epik_Tot_Q>  (283) 
1

>  <i_epik_Tot_abs_Q>  (283) 
1

>  <s_lp_Force_Field>  (283) 
OPLS3e

>  <r_lp_Energy>  (283) 
215.583

>  <b_lp_Chiralities_Consistent>  (283) 
1

>  <s_lp_Variant>  (283) 
84:0-2

>  <s_i_glide_gridfile>  (283) 
pfpi4k_grid

>  <i_i_glide_lignum>  (283) 
36

>  <i_i_glide_rotatable_bonds>  (283) 
8

>  <r_i_docking_score>  (283) 
-2.43423

>  <r_i_glide_ligand_efficiency>  (283) 
-0.0608558

>  <r_i_glide_ligand_efficiency_sa>  (283) 
-0.208124

>  <r_i_glide_ligand_efficiency_ln>  (283) 
-0.51915

>  <r_i_glide_gscore>  (283) 
-2.43423

>  <r_i_glide_lipo>  (283) 
-0.109671

>  <r_i_glide_hbond>  (283) 
-0.169971

>  <r_i_glide_metal>  (283) 
-0

>  <r_i_glide_rewards>  (283) 
0

>  <r_i_glide_evdw>  (283) 
-20.5751

>  <r_i_glide_ecoul>  (283) 
-7.7927

>  <r_i_glide_erotb>  (283) 
0.0595345

>  <r_i_glide_esite>  (283) 
-0.0164623

>  <r_i_glide_emodel>  (283) 
-34.2328

>  <r_i_glide_energy>  (283) 
-28.3678

>  <r_i_glide_einternal>  (283) 
1.74402

>  <r_i_glide_intrahb_reward>  (283) 
-0

>  <i_i_glide_confnum>  (283) 
2

>  <i_i_glide_posenum>  (283) 
37

>  <r_i_glide_eff_state_penalty>  (283) 
0

>  <ligand_id>  (283) 
84

>  <original_smiles>  (283) 
C=CCN1CCC2(O)C(OC)CC34CC2N(C)CCC32CC1C1C(OC)C3=CC5C(O)C(O)C=CC51C4C2C3O

>  <smiles>  (283) 
[H]OC1([H])C([H])=C([H])C23C([H])(C([H])=C4C([H])(OC([H])([H])[H])C2([H])C2([H])N(C([H])([H])C([H])=C([H])[H])C([H])([H])C([H])([H])C5(O[H])C([H])(OC([H])([H])[H])C([H])([H])C67C([H])([H])C5([H])[N+]([H])(C([H])([H])[H])C([H])([H])C([H])([H])C6(C2([H])[H])C([H])(C4([H])O[H])C37[H])C1([H])O[H]

$$$$
84:2:0
     RDKit          3D

 87 94  0  0  1  0  0  0  0  0999 V2000
    7.8083   -5.2141    6.0904 C   0  0  0  0  0  0  0  0  0  0  0  0
    6.8019   -5.4664    5.2277 C   0  0  0  0  0  0  0  0  0  0  0  0
    5.3416   -5.0868    5.4659 C   0  0  0  0  0  0  0  0  0  0  0  0
    4.4045   -6.2246    5.4809 N   0  0  2  0  0  0  0  0  0  0  0  0
    4.4829   -7.0760    4.2266 C   0  0  0  0  0  0  0  0  0  0  0  0
    3.4208   -8.1688    3.7437 C   0  0  0  0  0  0  0  0  0  0  0  0
    2.3924   -7.9334    2.5485 C   0  0  2  0  0  0  0  0  0  0  0  0
    2.8985   -8.6949    1.4570 O   0  0  0  0  0  0  0  0  0  0  0  0
    2.4733   -6.4994    2.0669 C   0  0  1  0  0  0  0  0  0  0  0  0
    1.6610   -6.2544    0.9085 O   0  0  0  0  0  0  0  0  0  0  0  0
    2.1329   -5.1930    0.0858 C   0  0  0  0  0  0  0  0  0  0  0  0
    1.9727   -5.6428    3.2363 C   0  0  0  0  0  0  0  0  0  0  0  0
    0.8484   -6.1623    4.1983 C   0  0  1  0  0  0  0  0  0  0  0  0
    0.0085   -6.9692    3.2142 C   0  0  0  0  0  0  0  0  0  0  0  0
    0.8336   -8.2233    2.7375 C   0  0  2  0  0  0  0  0  0  0  0  0
    0.4222   -9.4635    3.4224 N   0  0  0  0  0  0  0  0  0  0  0  0
    0.8512  -10.6756    2.7483 C   0  0  0  0  0  0  0  0  0  0  0  0
    0.6251   -9.5548    4.8662 C   0  0  0  0  0  0  0  0  0  0  0  0
    0.1470   -8.3703    5.7138 C   0  0  0  0  0  0  0  0  0  0  0  0
    0.8549   -6.9750    5.5843 C   0  0  1  0  0  0  0  0  0  0  0  0
    2.1434   -7.0992    6.4060 C   0  0  0  0  0  0  0  0  0  0  0  0
    3.1355   -5.9394    6.2593 C   0  0  2  0  0  0  0  0  0  0  0  0
    2.5152   -4.4604    6.5472 C   0  0  2  0  0  0  0  0  0  0  0  0
    1.8954   -4.4464    7.9955 C   0  0  1  0  0  0  0  0  0  0  0  0
    2.4843   -3.3548    8.7097 O   0  0  0  0  0  0  0  0  0  0  0  0
    2.1960   -3.3040   10.1046 C   0  0  0  0  0  0  0  0  0  0  0  0
    0.3686   -4.3214    7.9491 C   0  0  0  0  0  0  0  0  0  0  0  0
   -0.1610   -3.2280    7.4134 C   0  0  0  0  0  0  0  0  0  0  0  0
    0.6715   -2.6075    6.3246 C   0  0  2  0  0  0  0  0  0  0  0  0
   -0.2003   -1.7294    5.3797 C   0  0  1  0  0  0  0  0  0  0  0  0
   -1.0448   -0.8128    6.0679 O   0  0  0  0  0  0  0  0  0  0  0  0
    0.6596   -0.9861    4.3353 C   0  0  1  0  0  0  0  0  0  0  0  0
    1.1170    0.2597    4.8240 O   0  0  0  0  0  0  0  0  0  0  0  0
    1.8591   -1.8165    3.9288 C   0  0  0  0  0  0  0  0  0  0  0  0
    2.1884   -3.0119    4.4476 C   0  0  0  0  0  0  0  0  0  0  0  0
    1.4440   -3.7822    5.5647 C   0  0  1  0  0  0  0  0  0  0  0  0
    0.4189   -4.9086    5.0561 C   0  0  2  0  0  0  0  0  0  0  0  0
   -0.1621   -5.9090    6.0907 C   0  0  2  0  0  0  0  0  0  0  0  0
   -0.4020   -5.5757    7.6018 C   0  0  1  0  0  0  0  0  0  0  0  0
   -0.1816   -6.6233    8.5271 O   0  0  0  0  0  0  0  0  0  0  0  0
    7.6375   -4.7246    7.0440 H   0  0  0  0  0  0  0  0  0  0  0  0
    8.8252   -5.4873    5.8372 H   0  0  0  0  0  0  0  0  0  0  0  0
    7.0471   -5.9578    4.3029 H   0  0  0  0  0  0  0  0  0  0  0  0
    5.3235   -4.5570    6.4229 H   0  0  0  0  0  0  0  0  0  0  0  0
    5.0675   -4.3679    4.6985 H   0  0  0  0  0  0  0  0  0  0  0  0
    4.8118   -6.4671    3.3778 H   0  0  0  0  0  0  0  0  0  0  0  0
    5.3790   -7.6827    4.4103 H   0  0  0  0  0  0  0  0  0  0  0  0
    4.0621   -8.9735    3.3896 H   0  0  0  0  0  0  0  0  0  0  0  0
    2.9860   -8.7038    4.5454 H   0  0  0  0  0  0  0  0  0  0  0  0
    2.7759   -9.6079    1.6313 H   0  0  0  0  0  0  0  0  0  0  0  0
    3.4940   -6.2410    1.8000 H   0  0  0  0  0  0  0  0  0  0  0  0
    1.4737   -5.0973   -0.7778 H   0  0  0  0  0  0  0  0  0  0  0  0
    3.1403   -5.3871   -0.2804 H   0  0  0  0  0  0  0  0  0  0  0  0
    2.1404   -4.2359    0.6080 H   0  0  0  0  0  0  0  0  0  0  0  0
    2.8434   -5.3595    3.7973 H   0  0  0  0  0  0  0  0  0  0  0  0
    1.6178   -4.7331    2.7611 H   0  0  0  0  0  0  0  0  0  0  0  0
   -0.9676   -7.2617    3.6079 H   0  0  0  0  0  0  0  0  0  0  0  0
   -0.2541   -6.3565    2.3548 H   0  0  0  0  0  0  0  0  0  0  0  0
    0.4700   -8.3458    1.7152 H   0  0  0  0  0  0  0  0  0  0  0  0
    0.3505  -11.5526    3.1628 H   0  0  0  0  0  0  0  0  0  0  0  0
    1.9221  -10.8337    2.8575 H   0  0  0  0  0  0  0  0  0  0  0  0
    0.6085  -10.6288    1.6887 H   0  0  0  0  0  0  0  0  0  0  0  0
    0.0034  -10.3878    5.2048 H   0  0  0  0  0  0  0  0  0  0  0  0
    1.6079   -9.9028    5.1421 H   0  0  0  0  0  0  0  0  0  0  0  0
   -0.9251   -8.2867    5.5181 H   0  0  0  0  0  0  0  0  0  0  0  0
    0.1663   -8.7009    6.7523 H   0  0  0  0  0  0  0  0  0  0  0  0
    1.8917   -7.1680    7.4524 H   0  0  0  0  0  0  0  0  0  0  0  0
    2.6332   -8.0597    6.3353 H   0  0  0  0  0  0  0  0  0  0  0  0
    3.6503   -6.0620    7.2128 H   0  0  0  0  0  0  0  0  0  0  0  0
    3.3483   -3.7641    6.5957 H   0  0  0  0  0  0  0  0  0  0  0  0
    2.1548   -5.3373    8.5661 H   0  0  0  0  0  0  0  0  0  0  0  0
    2.6946   -2.4368   10.5394 H   0  0  0  0  0  0  0  0  0  0  0  0
    2.5648   -4.1896   10.6194 H   0  0  0  0  0  0  0  0  0  0  0  0
    1.1306   -3.1984   10.3036 H   0  0  0  0  0  0  0  0  0  0  0  0
   -1.2152   -3.2048    7.1878 H   0  0  0  0  0  0  0  0  0  0  0  0
    1.3987   -1.9521    6.8142 H   0  0  0  0  0  0  0  0  0  0  0  0
   -0.8809   -2.3700    4.8270 H   0  0  0  0  0  0  0  0  0  0  0  0
   -1.2414   -0.1146    5.4732 H   0  0  0  0  0  0  0  0  0  0  0  0
    0.0628   -0.7797    3.4452 H   0  0  0  0  0  0  0  0  0  0  0  0
    1.5024    0.7405    4.1147 H   0  0  0  0  0  0  0  0  0  0  0  0
    2.4957   -1.3721    3.1754 H   0  0  0  0  0  0  0  0  0  0  0  0
    3.1256   -3.4149    4.1100 H   0  0  0  0  0  0  0  0  0  0  0  0
   -0.4083   -4.4475    4.5117 H   0  0  0  0  0  0  0  0  0  0  0  0
   -1.1425   -6.1654    5.6794 H   0  0  0  0  0  0  0  0  0  0  0  0
   -1.4617   -5.3362    7.7462 H   0  0  0  0  0  0  0  0  0  0  0  0
    0.6694   -6.9804    8.3868 H   0  0  0  0  0  0  0  0  0  0  0  0
    4.8426   -6.8617    6.1324 H   0  0  0  0  0  0  0  0  0  0  0  0
  1  2  2  0
  1 41  1  0
  1 42  1  0
  2  3  1  0
  2 43  1  0
  3  4  1  0
  3 44  1  0
  3 45  1  0
  4 22  1  0
  4  5  1  0
  4 87  1  1
  5  6  1  0
  5 46  1  0
  5 47  1  0
  6  7  1  0
  6 48  1  0
  6 49  1  0
  7 15  1  0
  7  8  1  6
  7  9  1  0
  8 50  1  0
  9 10  1  0
  9 12  1  0
  9 51  1  6
 10 11  1  0
 11 52  1  0
 11 53  1  0
 11 54  1  0
 13 12  1  6
 12 55  1  0
 12 56  1  0
 13 20  1  0
 13 37  1  0
 13 14  1  0
 14 15  1  0
 14 57  1  0
 14 58  1  0
 15 16  1  0
 15 59  1  6
 16 17  1  0
 16 18  1  0
 17 60  1  0
 17 61  1  0
 17 62  1  0
 18 19  1  0
 18 63  1  0
 18 64  1  0
 20 19  1  6
 19 65  1  0
 19 66  1  0
 20 38  1  0
 20 21  1  0
 21 22  1  0
 21 67  1  0
 21 68  1  0
 22 23  1  0
 22 69  1  1
 23 36  1  0
 23 24  1  0
 23 70  1  1
 24 25  1  0
 24 27  1  0
 24 71  1  1
 25 26  1  0
 26 72  1  0
 26 73  1  0
 26 74  1  0
 27 39  1  0
 27 28  2  0
 28 29  1  0
 28 75  1  0
 29 36  1  0
 29 30  1  0
 29 76  1  1
 30 31  1  0
 30 32  1  0
 30 77  1  6
 31 78  1  0
 32 33  1  0
 32 34  1  0
 32 79  1  6
 33 80  1  0
 34 35  2  0
 34 81  1  0
 36 35  1  6
 35 82  1  0
 36 37  1  0
 37 38  1  0
 37 83  1  6
 38 39  1  0
 38 84  1  6
 39 40  1  0
 39 85  1  6
 40 86  1  0
M  CHG  1   4   1
M  END
>  <i_m_ct_stereo_status>  (284) 
1

>  <s_m_source_file>  (284) 
/var/tmp/pbs.5076255.sched01/tmpqw5sdpkp/8220gfbieb.sdf

>  <i_m_source_file_index>  (284) 
37

>  <i_lp_mmshare_version>  (284) 
48012

>  <i_f3d_flags>  (284) 
1

>  <s_epik_input>  (284) 
W0NIMl0xW0NIMl1OKFtDSDNdKVtDSF0oW0NIMl0yKVtDQEBdKFtPSF0pKFtDQEhdKFtDSDJdMylPW0NIM10pW0NIMl1bQ0gyXU4oW0NIMl1bQ0hdPVtDSDJdKVtDQEhdKFtDSDJdNClbQ0BASF0oW0NAQF01NltDQEBIXTdbQ0BIXThbQ0BdMTRbQ0BdMjM3KVtDQEBIXShPW0NIM10pQyhbQ0BASF04W09IXSk9W0NIXVtDQEBIXTVbQ0BASF0oW09IXSlbQ0BASF0oW09IXSlbQ0hdPVtDSF02

>  <s_epik_cmdline>  (284) 
J2VwaWtfcHl0aG9uJywgJy1waHQnLCAnMi4wJywgJy1waCcsICc3LjAnLCAnLXRuJywgJzgnLCAnLW1hJywgJzIwMCcsICctaW1hZScsICc8aW5maWxlLm1hZT4nLCAnLW9tYWUnLCAnPG91dGZpbGUubWFlPic=

>  <r_epik_Ionization_Penalty>  (284) 
2.22883

>  <r_epik_Ionization_Penalty_Charging>  (284) 
0.0130849

>  <r_epik_Ionization_Penalty_Neutral>  (284) 
2.21574

>  <r_epik_State_Penalty>  (284) 
2.32491

>  <r_epik_Charging_Adjusted_Penalty>  (284) 
2.33799

>  <i_epik_Tot_Q>  (284) 
1

>  <i_epik_Tot_abs_Q>  (284) 
1

>  <s_lp_Force_Field>  (284) 
OPLS3e

>  <r_lp_Energy>  (284) 
223.5

>  <b_lp_Chiralities_Consistent>  (284) 
1

>  <s_lp_Variant>  (284) 
84:0-3

>  <s_i_glide_gridfile>  (284) 
pfpi4k_grid

>  <i_i_glide_lignum>  (284) 
37

>  <i_i_glide_rotatable_bonds>  (284) 
8

>  <r_i_docking_score>  (284) 
-2.97733

>  <r_i_glide_ligand_efficiency>  (284) 
-0.0744333

>  <r_i_glide_ligand_efficiency_sa>  (284) 
-0.254558

>  <r_i_glide_ligand_efficiency_ln>  (284) 
-0.634978

>  <r_i_glide_gscore>  (284) 
-2.97733

>  <r_i_glide_lipo>  (284) 
-0.222852

>  <r_i_glide_hbond>  (284) 
-0.232881

>  <r_i_glide_metal>  (284) 
-0

>  <r_i_glide_rewards>  (284) 
0

>  <r_i_glide_evdw>  (284) 
-23.3637

>  <r_i_glide_ecoul>  (284) 
-9.41964

>  <r_i_glide_erotb>  (284) 
0.0595345

>  <r_i_glide_esite>  (284) 
0

>  <r_i_glide_emodel>  (284) 
-38.1188

>  <r_i_glide_energy>  (284) 
-32.7834

>  <r_i_glide_einternal>  (284) 
1.25111

>  <r_i_glide_intrahb_reward>  (284) 
-0

>  <i_i_glide_confnum>  (284) 
4

>  <i_i_glide_posenum>  (284) 
3

>  <r_i_glide_eff_state_penalty>  (284) 
0

>  <ligand_id>  (284) 
84

>  <original_smiles>  (284) 
C=CCN1CCC2(O)C(OC)CC34CC2N(C)CCC32CC1C1C(OC)C3=CC5C(O)C(O)C=CC51C4C2C3O

>  <smiles>  (284) 
[H]OC1([H])C([H])=C([H])C23C([H])(C([H])=C4C([H])(O[H])C5([H])C2([H])C26C([H])([H])C([H])(OC([H])([H])[H])C7(O[H])C([H])([H])C([H])([H])[N+]([H])(C([H])([H])C([H])=C([H])[H])C([H])(C([H])([H])C52C([H])([H])C([H])([H])N(C([H])([H])[H])C7([H])C6([H])[H])C3([H])C4([H])OC([H])([H])[H])C1([H])O[H]

$$$$
84:2:1
     RDKit          3D

 87 94  0  0  1  0  0  0  0  0999 V2000
    7.8903   -5.4768    5.8437 C   0  0  0  0  0  0  0  0  0  0  0  0
    6.8333   -5.7172    5.0409 C   0  0  0  0  0  0  0  0  0  0  0  0
    5.3963   -5.3082    5.3532 C   0  0  0  0  0  0  0  0  0  0  0  0
    4.4364   -6.4274    5.4176 N   0  0  2  0  0  0  0  0  0  0  0  0
    4.4669   -7.3089    4.1806 C   0  0  0  0  0  0  0  0  0  0  0  0
    3.3727   -8.3907    3.7521 C   0  0  0  0  0  0  0  0  0  0  0  0
    2.3207   -8.1633    2.5749 C   0  0  2  0  0  0  0  0  0  0  0  0
    2.7854   -8.9582    1.4873 O   0  0  0  0  0  0  0  0  0  0  0  0
    2.4132   -6.7410    2.0578 C   0  0  1  0  0  0  0  0  0  0  0  0
    1.5755   -6.5062    0.9158 O   0  0  0  0  0  0  0  0  0  0  0  0
    1.9994   -5.4264    0.0924 C   0  0  0  0  0  0  0  0  0  0  0  0
    1.9636   -5.8500    3.2229 C   0  0  0  0  0  0  0  0  0  0  0  0
    0.8528   -6.3244    4.2204 C   0  0  1  0  0  0  0  0  0  0  0  0
   -0.0284   -7.1387    3.2779 C   0  0  0  0  0  0  0  0  0  0  0  0
    0.7624   -8.4191    2.8102 C   0  0  2  0  0  0  0  0  0  0  0  0
    0.3487   -9.6342    3.5376 N   0  0  0  0  0  0  0  0  0  0  0  0
    0.7321  -10.8718    2.8827 C   0  0  0  0  0  0  0  0  0  0  0  0
    0.5872   -9.6943    4.9771 C   0  0  0  0  0  0  0  0  0  0  0  0
    0.1523   -8.4803    5.8068 C   0  0  0  0  0  0  0  0  0  0  0  0
    0.8779   -7.1014    5.6253 C   0  0  1  0  0  0  0  0  0  0  0  0
    2.1824   -7.2326    6.4210 C   0  0  0  0  0  0  0  0  0  0  0  0
    3.1944   -6.0988    6.2203 C   0  0  2  0  0  0  0  0  0  0  0  0
    2.6115   -4.6026    6.4875 C   0  0  2  0  0  0  0  0  0  0  0  0
    2.0242   -4.5428    7.9491 C   0  0  1  0  0  0  0  0  0  0  0  0
    2.6515   -3.4454    8.6218 O   0  0  0  0  0  0  0  0  0  0  0  0
    2.3921   -3.3512   10.0199 C   0  0  0  0  0  0  0  0  0  0  0  0
    0.4995   -4.3911    7.9381 C   0  0  0  0  0  0  0  0  0  0  0  0
   -0.0184   -3.2947    7.3893 C   0  0  0  0  0  0  0  0  0  0  0  0
    0.8022   -2.7211    6.2672 C   0  0  2  0  0  0  0  0  0  0  0  0
   -0.0812   -1.8507    5.3293 C   0  0  1  0  0  0  0  0  0  0  0  0
   -0.8329   -0.8846    6.0522 O   0  0  0  0  0  0  0  0  0  0  0  0
    0.7622   -1.1468    4.2466 C   0  0  1  0  0  0  0  0  0  0  0  0
    1.2592    0.0922    4.7181 O   0  0  0  0  0  0  0  0  0  0  0  0
    1.9363   -2.0070    3.8255 C   0  0  0  0  0  0  0  0  0  0  0  0
    2.2590   -3.1943    4.3627 C   0  0  0  0  0  0  0  0  0  0  0  0
    1.5309   -3.9269    5.5158 C   0  0  1  0  0  0  0  0  0  0  0  0
    0.4702   -5.0405    5.0569 C   0  0  2  0  0  0  0  0  0  0  0  0
   -0.1088   -6.0037    6.1256 C   0  0  2  0  0  0  0  0  0  0  0  0
   -0.3130   -5.6282    7.6295 C   0  0  1  0  0  0  0  0  0  0  0  0
   -0.1222   -6.6633    8.5759 O   0  0  0  0  0  0  0  0  0  0  0  0
    7.7807   -4.9746    6.8005 H   0  0  0  0  0  0  0  0  0  0  0  0
    8.8875   -5.7709    5.5360 H   0  0  0  0  0  0  0  0  0  0  0  0
    7.0187   -6.2212    4.1092 H   0  0  0  0  0  0  0  0  0  0  0  0
    5.4296   -4.7784    6.3101 H   0  0  0  0  0  0  0  0  0  0  0  0
    5.0996   -4.5857    4.5992 H   0  0  0  0  0  0  0  0  0  0  0  0
    4.7814   -6.7264    3.3091 H   0  0  0  0  0  0  0  0  0  0  0  0
    5.3537   -7.9303    4.3583 H   0  0  0  0  0  0  0  0  0  0  0  0
    3.9894   -9.2152    3.4016 H   0  0  0  0  0  0  0  0  0  0  0  0
    2.9507   -8.8997    4.5768 H   0  0  0  0  0  0  0  0  0  0  0  0
    2.6644   -9.8660    1.6882 H   0  0  0  0  0  0  0  0  0  0  0  0
    3.4304   -6.5075    1.7559 H   0  0  0  0  0  0  0  0  0  0  0  0
    1.3260   -5.3490   -0.7605 H   0  0  0  0  0  0  0  0  0  0  0  0
    3.0076   -5.5791   -0.2914 H   0  0  0  0  0  0  0  0  0  0  0  0
    1.9784   -4.4722    0.6181 H   0  0  0  0  0  0  0  0  0  0  0  0
    2.8537   -5.5709    3.7556 H   0  0  0  0  0  0  0  0  0  0  0  0
    1.6095   -4.9433    2.7440 H   0  0  0  0  0  0  0  0  0  0  0  0
   -0.9989   -7.4027    3.7033 H   0  0  0  0  0  0  0  0  0  0  0  0
   -0.3043   -6.5417    2.4119 H   0  0  0  0  0  0  0  0  0  0  0  0
    0.3708   -8.5591    1.8007 H   0  0  0  0  0  0  0  0  0  0  0  0
    0.2292  -11.7257    3.3386 H   0  0  0  0  0  0  0  0  0  0  0  0
    1.8026  -11.0484    2.9631 H   0  0  0  0  0  0  0  0  0  0  0  0
    0.4469  -10.8459    1.8338 H   0  0  0  0  0  0  0  0  0  0  0  0
   -0.0421  -10.5038    5.3559 H   0  0  0  0  0  0  0  0  0  0  0  0
    1.5688  -10.0583    5.2369 H   0  0  0  0  0  0  0  0  0  0  0  0
   -0.9198   -8.3773    5.6332 H   0  0  0  0  0  0  0  0  0  0  0  0
    0.1892   -8.7853    6.8527 H   0  0  0  0  0  0  0  0  0  0  0  0
    1.9502   -7.2686    7.4742 H   0  0  0  0  0  0  0  0  0  0  0  0
    2.6513   -8.2046    6.3611 H   0  0  0  0  0  0  0  0  0  0  0  0
    3.7293   -6.2093    7.1632 H   0  0  0  0  0  0  0  0  0  0  0  0
    3.4606   -3.9239    6.4983 H   0  0  0  0  0  0  0  0  0  0  0  0
    2.2796   -5.4256    8.5341 H   0  0  0  0  0  0  0  0  0  0  0  0
    2.9194   -2.4846   10.4207 H   0  0  0  0  0  0  0  0  0  0  0  0
    2.7501   -4.2321   10.5497 H   0  0  0  0  0  0  0  0  0  0  0  0
    1.3333   -3.2149   10.2350 H   0  0  0  0  0  0  0  0  0  0  0  0
   -1.0759   -3.2550    7.1872 H   0  0  0  0  0  0  0  0  0  0  0  0
    1.5533   -2.0678    6.7225 H   0  0  0  0  0  0  0  0  0  0  0  0
   -0.8007   -2.4891    4.8215 H   0  0  0  0  0  0  0  0  0  0  0  0
   -0.2505   -0.1590    6.1987 H   0  0  0  0  0  0  0  0  0  0  0  0
    0.1464   -0.9403    3.3693 H   0  0  0  0  0  0  0  0  0  0  0  0
    1.6200    0.5622    3.9865 H   0  0  0  0  0  0  0  0  0  0  0  0
    2.5590   -1.5892    3.0452 H   0  0  0  0  0  0  0  0  0  0  0  0
    3.1786   -3.6237    4.0096 H   0  0  0  0  0  0  0  0  0  0  0  0
   -0.3586   -4.5739    4.5184 H   0  0  0  0  0  0  0  0  0  0  0  0
   -1.1028   -6.2422    5.7379 H   0  0  0  0  0  0  0  0  0  0  0  0
   -1.3619   -5.3588    7.7902 H   0  0  0  0  0  0  0  0  0  0  0  0
    0.7286   -7.0321    8.4550 H   0  0  0  0  0  0  0  0  0  0  0  0
    4.8777   -7.0578    6.0714 H   0  0  0  0  0  0  0  0  0  0  0  0
  1  2  2  0
  1 41  1  0
  1 42  1  0
  2  3  1  0
  2 43  1  0
  3  4  1  0
  3 44  1  0
  3 45  1  0
  4 22  1  0
  4  5  1  0
  4 87  1  1
  5  6  1  0
  5 46  1  0
  5 47  1  0
  6  7  1  0
  6 48  1  0
  6 49  1  0
  7 15  1  0
  7  8  1  6
  7  9  1  0
  8 50  1  0
  9 10  1  0
  9 12  1  0
  9 51  1  6
 10 11  1  0
 11 52  1  0
 11 53  1  0
 11 54  1  0
 13 12  1  6
 12 55  1  0
 12 56  1  0
 13 20  1  0
 13 37  1  0
 13 14  1  0
 14 15  1  0
 14 57  1  0
 14 58  1  0
 15 16  1  0
 15 59  1  6
 16 17  1  0
 16 18  1  0
 17 60  1  0
 17 61  1  0
 17 62  1  0
 18 19  1  0
 18 63  1  0
 18 64  1  0
 20 19  1  6
 19 65  1  0
 19 66  1  0
 20 38  1  0
 20 21  1  0
 21 22  1  0
 21 67  1  0
 21 68  1  0
 22 23  1  0
 22 69  1  1
 23 36  1  0
 23 24  1  0
 23 70  1  1
 24 25  1  0
 24 27  1  0
 24 71  1  1
 25 26  1  0
 26 72  1  0
 26 73  1  0
 26 74  1  0
 27 39  1  0
 27 28  2  0
 28 29  1  0
 28 75  1  0
 29 36  1  0
 29 30  1  0
 29 76  1  1
 30 31  1  0
 30 32  1  0
 30 77  1  6
 31 78  1  0
 32 33  1  0
 32 34  1  0
 32 79  1  6
 33 80  1  0
 34 35  2  0
 34 81  1  0
 36 35  1  6
 35 82  1  0
 36 37  1  0
 37 38  1  0
 37 83  1  6
 38 39  1  0
 38 84  1  6
 39 40  1  0
 39 85  1  6
 40 86  1  0
M  CHG  1   4   1
M  END
>  <i_m_ct_stereo_status>  (285) 
1

>  <s_m_source_file>  (285) 
/var/tmp/pbs.5076255.sched01/tmpqw5sdpkp/8220gfbieb.sdf

>  <i_m_source_file_index>  (285) 
37

>  <i_lp_mmshare_version>  (285) 
48012

>  <i_f3d_flags>  (285) 
1

>  <s_epik_input>  (285) 
W0NIMl0xW0NIMl1OKFtDSDNdKVtDSF0oW0NIMl0yKVtDQEBdKFtPSF0pKFtDQEhdKFtDSDJdMylPW0NIM10pW0NIMl1bQ0gyXU4oW0NIMl1bQ0hdPVtDSDJdKVtDQEhdKFtDSDJdNClbQ0BASF0oW0NAQF01NltDQEBIXTdbQ0BIXThbQ0BdMTRbQ0BdMjM3KVtDQEBIXShPW0NIM10pQyhbQ0BASF04W09IXSk9W0NIXVtDQEBIXTVbQ0BASF0oW09IXSlbQ0BASF0oW09IXSlbQ0hdPVtDSF02

>  <s_epik_cmdline>  (285) 
J2VwaWtfcHl0aG9uJywgJy1waHQnLCAnMi4wJywgJy1waCcsICc3LjAnLCAnLXRuJywgJzgnLCAnLW1hJywgJzIwMCcsICctaW1hZScsICc8aW5maWxlLm1hZT4nLCAnLW9tYWUnLCAnPG91dGZpbGUubWFlPic=

>  <r_epik_Ionization_Penalty>  (285) 
2.22883

>  <r_epik_Ionization_Penalty_Charging>  (285) 
0.0130849

>  <r_epik_Ionization_Penalty_Neutral>  (285) 
2.21574

>  <r_epik_State_Penalty>  (285) 
2.32491

>  <r_epik_Charging_Adjusted_Penalty>  (285) 
2.33799

>  <i_epik_Tot_Q>  (285) 
1

>  <i_epik_Tot_abs_Q>  (285) 
1

>  <s_lp_Force_Field>  (285) 
OPLS3e

>  <r_lp_Energy>  (285) 
223.5

>  <b_lp_Chiralities_Consistent>  (285) 
1

>  <s_lp_Variant>  (285) 
84:0-3

>  <s_i_glide_gridfile>  (285) 
pfpi4k_grid

>  <i_i_glide_lignum>  (285) 
37

>  <i_i_glide_rotatable_bonds>  (285) 
8

>  <r_i_docking_score>  (285) 
-2.78265

>  <r_i_glide_ligand_efficiency>  (285) 
-0.0695663

>  <r_i_glide_ligand_efficiency_sa>  (285) 
-0.237913

>  <r_i_glide_ligand_efficiency_ln>  (285) 
-0.593458

>  <r_i_glide_gscore>  (285) 
-2.78265

>  <r_i_glide_lipo>  (285) 
-0.173937

>  <r_i_glide_hbond>  (285) 
-0.213545

>  <r_i_glide_metal>  (285) 
-0

>  <r_i_glide_rewards>  (285) 
0

>  <r_i_glide_evdw>  (285) 
-23.5946

>  <r_i_glide_ecoul>  (285) 
-8.49984

>  <r_i_glide_erotb>  (285) 
0.0595345

>  <r_i_glide_esite>  (285) 
0

>  <r_i_glide_emodel>  (285) 
-37.2853

>  <r_i_glide_energy>  (285) 
-32.0944

>  <r_i_glide_einternal>  (285) 
0.691541

>  <r_i_glide_intrahb_reward>  (285) 
-0

>  <i_i_glide_confnum>  (285) 
4

>  <i_i_glide_posenum>  (285) 
5

>  <r_i_glide_eff_state_penalty>  (285) 
0

>  <ligand_id>  (285) 
84

>  <original_smiles>  (285) 
C=CCN1CCC2(O)C(OC)CC34CC2N(C)CCC32CC1C1C(OC)C3=CC5C(O)C(O)C=CC51C4C2C3O

>  <smiles>  (285) 
[H]OC1([H])C([H])=C([H])C23C([H])(C([H])=C4C([H])(O[H])C5([H])C2([H])C26C([H])([H])C([H])(OC([H])([H])[H])C7(O[H])C([H])([H])C([H])([H])[N+]([H])(C([H])([H])C([H])=C([H])[H])C([H])(C([H])([H])C52C([H])([H])C([H])([H])N(C([H])([H])[H])C7([H])C6([H])[H])C3([H])C4([H])OC([H])([H])[H])C1([H])O[H]

$$$$
84:2:2
     RDKit          3D

 87 94  0  0  1  0  0  0  0  0999 V2000
    7.8741   -5.4433    6.0139 C   0  0  0  0  0  0  0  0  0  0  0  0
    6.8407   -5.6495    5.1716 C   0  0  0  0  0  0  0  0  0  0  0  0
    5.3974   -5.2439    5.4554 C   0  0  0  0  0  0  0  0  0  0  0  0
    4.4341   -6.3638    5.4715 N   0  0  2  0  0  0  0  0  0  0  0  0
    4.4835   -7.2066    4.2080 C   0  0  0  0  0  0  0  0  0  0  0  0
    3.3942   -8.2723    3.7303 C   0  0  0  0  0  0  0  0  0  0  0  0
    2.3603   -8.0064    2.5458 C   0  0  2  0  0  0  0  0  0  0  0  0
    2.8357   -8.7707    1.4430 O   0  0  0  0  0  0  0  0  0  0  0  0
    2.4659   -6.5710    2.0712 C   0  0  1  0  0  0  0  0  0  0  0  0
    1.6481   -6.3001    0.9223 O   0  0  0  0  0  0  0  0  0  0  0  0
    2.1312   -5.2408    0.1022 C   0  0  0  0  0  0  0  0  0  0  0  0
    1.9961   -5.7127    3.2524 C   0  0  0  0  0  0  0  0  0  0  0  0
    0.8711   -6.2171    4.2211 C   0  0  1  0  0  0  0  0  0  0  0  0
    0.0031   -6.9989    3.2408 C   0  0  0  0  0  0  0  0  0  0  0  0
    0.7986   -8.2652    2.7500 C   0  0  2  0  0  0  0  0  0  0  0  0
    0.3700   -9.4996    3.4342 N   0  0  0  0  0  0  0  0  0  0  0  0
    0.7690  -10.7157    2.7528 C   0  0  0  0  0  0  0  0  0  0  0  0
    0.5864   -9.6069    4.8734 C   0  0  0  0  0  0  0  0  0  0  0  0
    0.1384   -8.4197    5.7308 C   0  0  0  0  0  0  0  0  0  0  0  0
    0.8723   -7.0386    5.6022 C   0  0  1  0  0  0  0  0  0  0  0  0
    2.1645   -7.1958    6.4138 C   0  0  0  0  0  0  0  0  0  0  0  0
    3.1795   -6.0574    6.2645 C   0  0  2  0  0  0  0  0  0  0  0  0
    2.5944   -4.5690    6.5680 C   0  0  2  0  0  0  0  0  0  0  0  0
    1.9834   -4.5518    8.0219 C   0  0  1  0  0  0  0  0  0  0  0  0
    2.5965   -3.4723    8.7358 O   0  0  0  0  0  0  0  0  0  0  0  0
    2.2702   -3.3860   10.1211 C   0  0  0  0  0  0  0  0  0  0  0  0
    0.4591   -4.4011    7.9885 C   0  0  0  0  0  0  0  0  0  0  0  0
   -0.0495   -3.2877    7.4661 C   0  0  0  0  0  0  0  0  0  0  0  0
    0.7890   -2.6809    6.3775 C   0  0  2  0  0  0  0  0  0  0  0  0
   -0.0810   -1.7815    5.4560 C   0  0  1  0  0  0  0  0  0  0  0  0
   -0.8499   -0.8423    6.1959 O   0  0  0  0  0  0  0  0  0  0  0  0
    0.7840   -1.0346    4.4239 C   0  0  1  0  0  0  0  0  0  0  0  0
    1.2506    0.1876    4.9722 O   0  0  0  0  0  0  0  0  0  0  0  0
    1.9680   -1.8799    3.9894 C   0  0  0  0  0  0  0  0  0  0  0  0
    2.2789   -3.0911    4.4838 C   0  0  0  0  0  0  0  0  0  0  0  0
    1.5309   -3.8620    5.5999 C   0  0  1  0  0  0  0  0  0  0  0  0
    0.4754   -4.9606    5.0908 C   0  0  2  0  0  0  0  0  0  0  0  0
   -0.1198   -5.9564    6.1209 C   0  0  2  0  0  0  0  0  0  0  0  0
   -0.3483   -5.6264    7.6324 C   0  0  1  0  0  0  0  0  0  0  0  0
   -0.1730   -6.6874    8.5513 O   0  0  0  0  0  0  0  0  0  0  0  0
    7.7376   -4.9748    6.9842 H   0  0  0  0  0  0  0  0  0  0  0  0
    8.8786   -5.7307    5.7269 H   0  0  0  0  0  0  0  0  0  0  0  0
    7.0512   -6.1219    4.2286 H   0  0  0  0  0  0  0  0  0  0  0  0
    5.4090   -4.7361    6.4246 H   0  0  0  0  0  0  0  0  0  0  0  0
    5.1201   -4.5040    4.7112 H   0  0  0  0  0  0  0  0  0  0  0  0
    4.8143   -6.5983    3.3610 H   0  0  0  0  0  0  0  0  0  0  0  0
    5.3671   -7.8339    4.3804 H   0  0  0  0  0  0  0  0  0  0  0  0
    4.0148   -9.0864    3.3625 H   0  0  0  0  0  0  0  0  0  0  0  0
    2.9589   -8.8062    4.5319 H   0  0  0  0  0  0  0  0  0  0  0  0
    2.6758   -9.6813    1.6047 H   0  0  0  0  0  0  0  0  0  0  0  0
    3.4893   -6.3322    1.7966 H   0  0  0  0  0  0  0  0  0  0  0  0
    1.4635   -5.1256   -0.7504 H   0  0  0  0  0  0  0  0  0  0  0  0
    3.1289   -5.4498   -0.2822 H   0  0  0  0  0  0  0  0  0  0  0  0
    2.1626   -4.2886    0.6339 H   0  0  0  0  0  0  0  0  0  0  0  0
    2.8782   -5.4527    3.8075 H   0  0  0  0  0  0  0  0  0  0  0  0
    1.6542   -4.7923    2.7879 H   0  0  0  0  0  0  0  0  0  0  0  0
   -0.9741   -7.2736    3.6423 H   0  0  0  0  0  0  0  0  0  0  0  0
   -0.2536   -6.3744    2.3883 H   0  0  0  0  0  0  0  0  0  0  0  0
    0.4220   -8.3746    1.7306 H   0  0  0  0  0  0  0  0  0  0  0  0
    0.2493  -11.5831    3.1589 H   0  0  0  0  0  0  0  0  0  0  0  0
    1.8365  -10.8973    2.8531 H   0  0  0  0  0  0  0  0  0  0  0  0
    0.5202  -10.6594    1.6997 H   0  0  0  0  0  0  0  0  0  0  0  0
   -0.0511  -10.4263    5.2129 H   0  0  0  0  0  0  0  0  0  0  0  0
    1.5637   -9.9807    5.1363 H   0  0  0  0  0  0  0  0  0  0  0  0
   -0.9319   -8.3131    5.5431 H   0  0  0  0  0  0  0  0  0  0  0  0
    0.1608   -8.7569    6.7674 H   0  0  0  0  0  0  0  0  0  0  0  0
    1.9164   -7.2622    7.4619 H   0  0  0  0  0  0  0  0  0  0  0  0
    2.6332   -8.1658    6.3318 H   0  0  0  0  0  0  0  0  0  0  0  0
    3.7004   -6.1975    7.2117 H   0  0  0  0  0  0  0  0  0  0  0  0
    3.4441   -3.8922    6.6137 H   0  0  0  0  0  0  0  0  0  0  0  0
    2.2303   -5.4495    8.5872 H   0  0  0  0  0  0  0  0  0  0  0  0
    2.7998   -2.5393   10.5592 H   0  0  0  0  0  0  0  0  0  0  0  0
    2.5723   -4.2826   10.6589 H   0  0  0  0  0  0  0  0  0  0  0  0
    1.2064   -3.2188   10.2842 H   0  0  0  0  0  0  0  0  0  0  0  0
   -1.1034   -3.2400    7.2471 H   0  0  0  0  0  0  0  0  0  0  0  0
    1.5346   -2.0456    6.8665 H   0  0  0  0  0  0  0  0  0  0  0  0
   -0.7883   -2.4036    4.9107 H   0  0  0  0  0  0  0  0  0  0  0  0
   -0.2882   -0.1021    6.3518 H   0  0  0  0  0  0  0  0  0  0  0  0
    0.1886   -0.8024    3.5379 H   0  0  0  0  0  0  0  0  0  0  0  0
    1.9420    0.0129    5.5782 H   0  0  0  0  0  0  0  0  0  0  0  0
    2.5957   -1.4405    3.2251 H   0  0  0  0  0  0  0  0  0  0  0  0
    3.2009   -3.5158    4.1270 H   0  0  0  0  0  0  0  0  0  0  0  0
   -0.3447   -4.4782    4.5543 H   0  0  0  0  0  0  0  0  0  0  0  0
   -1.1073   -6.1892    5.7131 H   0  0  0  0  0  0  0  0  0  0  0  0
   -1.3993   -5.3589    7.7848 H   0  0  0  0  0  0  0  0  0  0  0  0
    0.6681   -7.0745    8.4108 H   0  0  0  0  0  0  0  0  0  0  0  0
    4.8657   -7.0133    6.1117 H   0  0  0  0  0  0  0  0  0  0  0  0
  1  2  2  0
  1 41  1  0
  1 42  1  0
  2  3  1  0
  2 43  1  0
  3  4  1  0
  3 44  1  0
  3 45  1  0
  4 22  1  0
  4  5  1  0
  4 87  1  1
  5  6  1  0
  5 46  1  0
  5 47  1  0
  6  7  1  0
  6 48  1  0
  6 49  1  0
  7 15  1  0
  7  8  1  6
  7  9  1  0
  8 50  1  0
  9 10  1  0
  9 12  1  0
  9 51  1  6
 10 11  1  0
 11 52  1  0
 11 53  1  0
 11 54  1  0
 13 12  1  6
 12 55  1  0
 12 56  1  0
 13 20  1  0
 13 37  1  0
 13 14  1  0
 14 15  1  0
 14 57  1  0
 14 58  1  0
 15 16  1  0
 15 59  1  6
 16 17  1  0
 16 18  1  0
 17 60  1  0
 17 61  1  0
 17 62  1  0
 18 19  1  0
 18 63  1  0
 18 64  1  0
 20 19  1  6
 19 65  1  0
 19 66  1  0
 20 38  1  0
 20 21  1  0
 21 22  1  0
 21 67  1  0
 21 68  1  0
 22 23  1  0
 22 69  1  1
 23 36  1  0
 23 24  1  0
 23 70  1  1
 24 25  1  0
 24 27  1  0
 24 71  1  1
 25 26  1  0
 26 72  1  0
 26 73  1  0
 26 74  1  0
 27 39  1  0
 27 28  2  0
 28 29  1  0
 28 75  1  0
 29 36  1  0
 29 30  1  0
 29 76  1  1
 30 31  1  0
 30 32  1  0
 30 77  1  6
 31 78  1  0
 32 33  1  0
 32 34  1  0
 32 79  1  6
 33 80  1  0
 34 35  2  0
 34 81  1  0
 36 35  1  6
 35 82  1  0
 36 37  1  0
 37 38  1  0
 37 83  1  6
 38 39  1  0
 38 84  1  6
 39 40  1  0
 39 85  1  6
 40 86  1  0
M  CHG  1   4   1
M  END
>  <i_m_ct_stereo_status>  (286) 
1

>  <s_m_source_file>  (286) 
/var/tmp/pbs.5076255.sched01/tmpqw5sdpkp/8220gfbieb.sdf

>  <i_m_source_file_index>  (286) 
37

>  <i_lp_mmshare_version>  (286) 
48012

>  <i_f3d_flags>  (286) 
1

>  <s_epik_input>  (286) 
W0NIMl0xW0NIMl1OKFtDSDNdKVtDSF0oW0NIMl0yKVtDQEBdKFtPSF0pKFtDQEhdKFtDSDJdMylPW0NIM10pW0NIMl1bQ0gyXU4oW0NIMl1bQ0hdPVtDSDJdKVtDQEhdKFtDSDJdNClbQ0BASF0oW0NAQF01NltDQEBIXTdbQ0BIXThbQ0BdMTRbQ0BdMjM3KVtDQEBIXShPW0NIM10pQyhbQ0BASF04W09IXSk9W0NIXVtDQEBIXTVbQ0BASF0oW09IXSlbQ0BASF0oW09IXSlbQ0hdPVtDSF02

>  <s_epik_cmdline>  (286) 
J2VwaWtfcHl0aG9uJywgJy1waHQnLCAnMi4wJywgJy1waCcsICc3LjAnLCAnLXRuJywgJzgnLCAnLW1hJywgJzIwMCcsICctaW1hZScsICc8aW5maWxlLm1hZT4nLCAnLW9tYWUnLCAnPG91dGZpbGUubWFlPic=

>  <r_epik_Ionization_Penalty>  (286) 
2.22883

>  <r_epik_Ionization_Penalty_Charging>  (286) 
0.0130849

>  <r_epik_Ionization_Penalty_Neutral>  (286) 
2.21574

>  <r_epik_State_Penalty>  (286) 
2.32491

>  <r_epik_Charging_Adjusted_Penalty>  (286) 
2.33799

>  <i_epik_Tot_Q>  (286) 
1

>  <i_epik_Tot_abs_Q>  (286) 
1

>  <s_lp_Force_Field>  (286) 
OPLS3e

>  <r_lp_Energy>  (286) 
223.5

>  <b_lp_Chiralities_Consistent>  (286) 
1

>  <s_lp_Variant>  (286) 
84:0-3

>  <s_i_glide_gridfile>  (286) 
pfpi4k_grid

>  <i_i_glide_lignum>  (286) 
37

>  <i_i_glide_rotatable_bonds>  (286) 
8

>  <r_i_docking_score>  (286) 
-2.7749

>  <r_i_glide_ligand_efficiency>  (286) 
-0.0693724

>  <r_i_glide_ligand_efficiency_sa>  (286) 
-0.23725

>  <r_i_glide_ligand_efficiency_ln>  (286) 
-0.591804

>  <r_i_glide_gscore>  (286) 
-2.7749

>  <r_i_glide_lipo>  (286) 
-0.20014

>  <r_i_glide_hbond>  (286) 
-0.242192

>  <r_i_glide_metal>  (286) 
-0

>  <r_i_glide_rewards>  (286) 
0

>  <r_i_glide_evdw>  (286) 
-22.8692

>  <r_i_glide_ecoul>  (286) 
-8.32426

>  <r_i_glide_erotb>  (286) 
0.0595345

>  <r_i_glide_esite>  (286) 
0

>  <r_i_glide_emodel>  (286) 
-36.3683

>  <r_i_glide_energy>  (286) 
-31.1935

>  <r_i_glide_einternal>  (286) 
0.512959

>  <r_i_glide_intrahb_reward>  (286) 
-0

>  <i_i_glide_confnum>  (286) 
4

>  <i_i_glide_posenum>  (286) 
27

>  <r_i_glide_eff_state_penalty>  (286) 
0

>  <ligand_id>  (286) 
84

>  <original_smiles>  (286) 
C=CCN1CCC2(O)C(OC)CC34CC2N(C)CCC32CC1C1C(OC)C3=CC5C(O)C(O)C=CC51C4C2C3O

>  <smiles>  (286) 
[H]OC1([H])C([H])=C([H])C23C([H])(C([H])=C4C([H])(O[H])C5([H])C2([H])C26C([H])([H])C([H])(OC([H])([H])[H])C7(O[H])C([H])([H])C([H])([H])[N+]([H])(C([H])([H])C([H])=C([H])[H])C([H])(C([H])([H])C52C([H])([H])C([H])([H])N(C([H])([H])[H])C7([H])C6([H])[H])C3([H])C4([H])OC([H])([H])[H])C1([H])O[H]

$$$$
86:0:0
     RDKit          3D

 44 51  0  0  1  0  0  0  0  0999 V2000
    3.2175    0.3838    1.6433 C   0  0  0  0  0  0  0  0  0  0  0  0
    4.2347   -0.7280    1.4114 C   0  0  2  0  0  0  0  0  0  0  0  0
    4.8385   -1.4481    2.7599 C   0  0  0  0  0  0  0  0  0  0  0  0
    4.3723   -2.9275    2.3566 C   0  0  1  0  0  0  0  0  0  0  0  0
    3.9926   -1.9776    1.3725 C   0  0  2  0  0  0  0  0  0  0  0  0
    5.4214   -1.8121    0.3640 C   0  0  2  0  0  0  0  0  0  0  0  0
    5.1530   -0.9152   -0.9943 C   0  0  2  0  0  0  0  0  0  0  0  0
    4.5346   -1.3169   -2.4713 C   0  0  2  0  0  0  0  0  0  0  0  0
    3.8865   -0.2245   -3.3218 C   0  0  0  0  0  0  0  0  0  0  0  0
    3.1803   -0.9696   -4.4745 C   0  0  0  0  0  0  0  0  0  0  0  0
    3.1611   -2.4778   -4.1197 C   0  0  0  0  0  0  0  0  0  0  0  0
    3.3921   -2.4751   -2.6061 C   0  0  1  0  0  0  0  0  0  0  0  0
    3.7573   -3.8254   -1.9040 N   0  0  1  0  0  0  0  0  0  0  0  0
    5.1255   -3.8622   -1.8055 C   0  0  0  0  0  0  0  0  0  0  0  0
    4.6583   -3.0018   -0.5990 C   0  0  2  0  0  0  0  0  0  0  0  0
    5.6637   -3.2148    0.3139 C   0  0  2  0  0  0  0  0  0  0  0  0
    4.6519   -3.9563    1.0940 C   0  0  2  0  0  0  0  0  0  0  0  0
    3.6734   -4.0928   -0.3211 C   0  0  2  0  0  0  0  0  0  0  0  0
    2.2798   -3.9281   -0.1904 O   0  0  0  0  0  0  0  0  0  0  0  0
    4.1215   -1.3410   -0.2340 C   0  0  1  0  0  0  0  0  0  0  0  0
    3.6275    1.3212    1.2859 H   0  0  0  0  0  0  0  0  0  0  0  0
    3.0040    0.5153    2.7028 H   0  0  0  0  0  0  0  0  0  0  0  0
    2.2751    0.2152    1.1270 H   0  0  0  0  0  0  0  0  0  0  0  0
    5.9221   -1.3564    2.8949 H   0  0  0  0  0  0  0  0  0  0  0  0
    4.3602   -1.1050    3.6802 H   0  0  0  0  0  0  0  0  0  0  0  0
    3.5493   -3.2597    2.9908 H   0  0  0  0  0  0  0  0  0  0  0  0
    2.8982   -2.1516    1.2197 H   0  0  0  0  0  0  0  0  0  0  0  0
    6.3401   -1.3925    0.8131 H   0  0  0  0  0  0  0  0  0  0  0  0
    5.2749    0.1445   -0.8430 H   0  0  0  0  0  0  0  0  0  0  0  0
    5.4027   -1.5645   -3.0822 H   0  0  0  0  0  0  0  0  0  0  0  0
    3.1356    0.2723   -2.7258 H   0  0  0  0  0  0  0  0  0  0  0  0
    4.5887    0.5243   -3.6780 H   0  0  0  0  0  0  0  0  0  0  0  0
    2.1728   -0.5808   -4.5899 H   0  0  0  0  0  0  0  0  0  0  0  0
    3.6678   -0.7815   -5.4279 H   0  0  0  0  0  0  0  0  0  0  0  0
    2.2224   -2.9610   -4.3873 H   0  0  0  0  0  0  0  0  0  0  0  0
    3.9692   -2.9826   -4.6466 H   0  0  0  0  0  0  0  0  0  0  0  0
    2.4275   -2.1696   -2.1928 H   0  0  0  0  0  0  0  0  0  0  0  0
    5.4398   -4.8863   -1.5702 H   0  0  0  0  0  0  0  0  0  0  0  0
    5.7433   -3.4681   -2.6068 H   0  0  0  0  0  0  0  0  0  0  0  0
    6.6268   -3.6227   -0.0089 H   0  0  0  0  0  0  0  0  0  0  0  0
    5.0272   -4.9216    1.4369 H   0  0  0  0  0  0  0  0  0  0  0  0
    2.1505   -3.0930    0.2365 H   0  0  0  0  0  0  0  0  0  0  0  0
    3.1465   -1.0264   -0.6328 H   0  0  0  0  0  0  0  0  0  0  0  0
    3.3856   -4.6385   -2.3876 H   0  0  0  0  0  0  0  0  0  0  0  0
  2  1  1  6
  1 21  1  0
  1 22  1  0
  1 23  1  0
  2  5  1  0
  2 20  1  0
  2  3  1  0
  3  4  1  0
  3 24  1  0
  3 25  1  0
  4 17  1  0
  4  5  1  0
  4 26  1  1
  5  6  1  0
  5 27  1  6
  6 16  1  0
  6  7  1  0
  6 28  1  1
  7 20  1  0
  7  8  1  0
  7 29  1  6
  8 12  1  0
  8  9  1  0
  8 30  1  6
  9 10  1  0
  9 31  1  0
  9 32  1  0
 10 11  1  0
 10 33  1  0
 10 34  1  0
 11 12  1  0
 11 35  1  0
 11 36  1  0
 12 13  1  0
 12 37  1  1
 13 18  1  0
 13 14  1  0
 13 44  1  6
 15 14  1  6
 14 38  1  0
 14 39  1  0
 15 18  1  0
 15 16  1  0
 15 20  1  0
 16 17  1  0
 16 40  1  6
 17 18  1  0
 17 41  1  1
 18 19  1  1
 19 42  1  0
 20 43  1  6
M  CHG  1  13   1
M  END
>  <i_m_ct_stereo_status>  (287) 
1

>  <s_m_source_file>  (287) 
/var/tmp/pbs.5076255.sched01/tmpqw5sdpkp/8220gfbieb.sdf

>  <i_m_source_file_index>  (287) 
39

>  <i_lp_mmshare_version>  (287) 
48012

>  <i_f3d_flags>  (287) 
0

>  <s_epik_input>  (287) 
W0NAXTEyM1tDQEhdNFtDQEBIXTVbQ0BASF02W0NAXTcoW0NIM10pW0NASF0zW0NAQEhdNVtDQEhdOFtDQEBIXShbQ0gyXVtDSDJdW0NIMl04KU4oW0NIMl0xKVtDQEBdMihbT0hdKVtDQEBIXTRbQ0BIXTZbQ0gyXTc=

>  <s_epik_cmdline>  (287) 
J2VwaWtfcHl0aG9uJywgJy1waHQnLCAnMi4wJywgJy1waCcsICc3LjAnLCAnLXRuJywgJzgnLCAnLW1hJywgJzIwMCcsICctaW1hZScsICc8aW5maWxlLm1hZT4nLCAnLW9tYWUnLCAnPG91dGZpbGUubWFlPic=

>  <r_epik_Ionization_Penalty>  (287) 
0.00205878

>  <r_epik_Ionization_Penalty_Charging>  (287) 
0.000196936

>  <r_epik_Ionization_Penalty_Neutral>  (287) 
0.00186185

>  <r_epik_State_Penalty>  (287) 
0.00126568

>  <r_epik_Charging_Adjusted_Penalty>  (287) 
0.00146262

>  <i_epik_Tot_Q>  (287) 
1

>  <i_epik_Tot_abs_Q>  (287) 
1

>  <s_lp_Force_Field>  (287) 
OPLS3e

>  <r_lp_Energy>  (287) 
621.644

>  <b_lp_Chiralities_Consistent>  (287) 
1

>  <s_lp_Variant>  (287) 
86:0-1

>  <s_i_glide_gridfile>  (287) 
pfpi4k_grid

>  <i_i_glide_lignum>  (287) 
39

>  <i_i_glide_rotatable_bonds>  (287) 
1

>  <r_i_docking_score>  (287) 
-4.17936

>  <r_i_glide_ligand_efficiency>  (287) 
-0.208968

>  <r_i_glide_ligand_efficiency_sa>  (287) 
-0.567226

>  <r_i_glide_ligand_efficiency_ln>  (287) 
-1.04595

>  <r_i_glide_gscore>  (287) 
-4.17936

>  <r_i_glide_lipo>  (287) 
-0.632377

>  <r_i_glide_hbond>  (287) 
0

>  <r_i_glide_metal>  (287) 
-0

>  <r_i_glide_rewards>  (287) 
-1.56553

>  <r_i_glide_evdw>  (287) 
-13.3394

>  <r_i_glide_ecoul>  (287) 
-8.45647

>  <r_i_glide_erotb>  (287) 
0

>  <r_i_glide_esite>  (287) 
-0.0460089

>  <r_i_glide_emodel>  (287) 
-26.2091

>  <r_i_glide_energy>  (287) 
-21.7959

>  <r_i_glide_einternal>  (287) 
0.587945

>  <r_i_glide_intrahb_reward>  (287) 
-0

>  <i_i_glide_confnum>  (287) 
1

>  <i_i_glide_posenum>  (287) 
24

>  <r_i_glide_eff_state_penalty>  (287) 
0

>  <ligand_id>  (287) 
86

>  <original_smiles>  (287) 
CC12CC3C1C1C4C5CCCC5N5CC6(C1C3C56O)C42

>  <smiles>  (287) 
[H]OC12C3([H])C4([H])C([H])([H])C5(C([H])([H])[H])C4([H])C4([H])C6([H])C5([H])C1(C43[H])C([H])([H])[N+]2([H])C1([H])C([H])([H])C([H])([H])C([H])([H])C61[H]

$$$$
86:0:1
     RDKit          3D

 44 51  0  0  1  0  0  0  0  0999 V2000
    2.1932   -3.2161   -3.3522 C   0  0  0  0  0  0  0  0  0  0  0  0
    3.5952   -2.7536   -3.0016 C   0  0  2  0  0  0  0  0  0  0  0  0
    4.1282   -1.4127   -3.7705 C   0  0  0  0  0  0  0  0  0  0  0  0
    4.4760   -0.5951   -2.4460 C   0  0  1  0  0  0  0  0  0  0  0  0
    3.9613   -1.8762   -2.1589 C   0  0  2  0  0  0  0  0  0  0  0  0
    5.3600   -2.9115   -2.1880 C   0  0  2  0  0  0  0  0  0  0  0  0
    5.0259   -4.4222   -1.6667 C   0  0  2  0  0  0  0  0  0  0  0  0
    4.9678   -5.0825   -0.1485 C   0  0  2  0  0  0  0  0  0  0  0  0
    4.1226   -6.3360    0.0848 C   0  0  0  0  0  0  0  0  0  0  0  0
    4.0596   -6.4985    1.6282 C   0  0  0  0  0  0  0  0  0  0  0  0
    4.6080   -5.1963    2.2653 C   0  0  0  0  0  0  0  0  0  0  0  0
    4.4725   -4.1782    1.1348 C   0  0  1  0  0  0  0  0  0  0  0  0
    5.1919   -2.8045    1.2773 N   0  0  1  0  0  0  0  0  0  0  0  0
    6.3914   -2.9415    0.6390 C   0  0  0  0  0  0  0  0  0  0  0  0
    5.3512   -2.6485   -0.4774 C   0  0  2  0  0  0  0  0  0  0  0  0
    6.1451   -2.0335   -1.4089 C   0  0  2  0  0  0  0  0  0  0  0  0
    5.4032   -0.8066   -1.0953 C   0  0  2  0  0  0  0  0  0  0  0  0
    4.8929   -1.5137    0.3742 C   0  0  2  0  0  0  0  0  0  0  0  0
    3.5538   -1.3602    0.7879 O   0  0  0  0  0  0  0  0  0  0  0  0
    4.1065   -3.4588   -1.4834 C   0  0  1  0  0  0  0  0  0  0  0  0
    2.2283   -4.1872   -3.8468 H   0  0  0  0  0  0  0  0  0  0  0  0
    1.7186   -2.5402   -4.0507 H   0  0  0  0  0  0  0  0  0  0  0  0
    1.5461   -3.3088   -2.4856 H   0  0  0  0  0  0  0  0  0  0  0  0
    4.9935   -1.5312   -4.4034 H   0  0  0  0  0  0  0  0  0  0  0  0
    3.3416   -0.9256   -4.3507 H   0  0  0  0  0  0  0  0  0  0  0  0
    3.7806    0.2081   -2.3470 H   0  0  0  0  0  0  0  0  0  0  0  0
    3.1016   -1.6693   -1.4786 H   0  0  0  0  0  0  0  0  0  0  0  0
    5.8804   -3.0388   -3.1555 H   0  0  0  0  0  0  0  0  0  0  0  0
    4.7393   -5.0607   -2.4849 H   0  0  0  0  0  0  0  0  0  0  0  0
    5.9673   -5.4835    0.0286 H   0  0  0  0  0  0  0  0  0  0  0  0
    3.1155   -6.1826   -0.3032 H   0  0  0  0  0  0  0  0  0  0  0  0
    4.5427   -7.2219   -0.3973 H   0  0  0  0  0  0  0  0  0  0  0  0
    3.0254   -6.6714    1.9365 H   0  0  0  0  0  0  0  0  0  0  0  0
    4.6334   -7.3666    1.9604 H   0  0  0  0  0  0  0  0  0  0  0  0
    4.0526   -4.9135    3.1620 H   0  0  0  0  0  0  0  0  0  0  0  0
    5.6523   -5.3439    2.5502 H   0  0  0  0  0  0  0  0  0  0  0  0
    3.4003   -3.9720    1.0990 H   0  0  0  0  0  0  0  0  0  0  0  0
    7.0810   -2.1185    0.8740 H   0  0  0  0  0  0  0  0  0  0  0  0
    6.9570   -3.8702    0.6625 H   0  0  0  0  0  0  0  0  0  0  0  0
    7.2300   -2.1169   -1.3836 H   0  0  0  0  0  0  0  0  0  0  0  0
    6.0745    0.0124   -0.8709 H   0  0  0  0  0  0  0  0  0  0  0  0
    3.0323   -1.1795    0.0234 H   0  0  0  0  0  0  0  0  0  0  0  0
    3.2129   -3.8101   -0.9554 H   0  0  0  0  0  0  0  0  0  0  0  0
    5.3047   -2.5407    2.2467 H   0  0  0  0  0  0  0  0  0  0  0  0
  2  1  1  1
  1 21  1  0
  1 22  1  0
  1 23  1  0
  2  5  1  0
  2 20  1  0
  2  3  1  0
  3  4  1  0
  3 24  1  0
  3 25  1  0
  4 17  1  0
  4  5  1  0
  4 26  1  1
  5  6  1  0
  5 27  1  1
  6 16  1  0
  6  7  1  0
  6 28  1  6
  7 20  1  0
  7  8  1  0
  7 29  1  6
  8 12  1  0
  8  9  1  0
  8 30  1  1
  9 10  1  0
  9 31  1  0
  9 32  1  0
 10 11  1  0
 10 33  1  0
 10 34  1  0
 11 12  1  0
 11 35  1  0
 11 36  1  0
 12 13  1  0
 12 37  1  6
 13 18  1  0
 13 14  1  0
 13 44  1  1
 15 14  1  1
 14 38  1  0
 14 39  1  0
 15 18  1  0
 15 16  1  0
 15 20  1  0
 16 17  1  0
 16 40  1  1
 17 18  1  0
 17 41  1  1
 18 19  1  6
 19 42  1  0
 20 43  1  1
M  CHG  1  13   1
M  END
>  <i_m_ct_stereo_status>  (288) 
1

>  <s_m_source_file>  (288) 
/var/tmp/pbs.5076255.sched01/tmpqw5sdpkp/8220gfbieb.sdf

>  <i_m_source_file_index>  (288) 
39

>  <i_lp_mmshare_version>  (288) 
48012

>  <i_f3d_flags>  (288) 
0

>  <s_epik_input>  (288) 
W0NAXTEyM1tDQEhdNFtDQEBIXTVbQ0BASF02W0NAXTcoW0NIM10pW0NASF0zW0NAQEhdNVtDQEhdOFtDQEBIXShbQ0gyXVtDSDJdW0NIMl04KU4oW0NIMl0xKVtDQEBdMihbT0hdKVtDQEBIXTRbQ0BIXTZbQ0gyXTc=

>  <s_epik_cmdline>  (288) 
J2VwaWtfcHl0aG9uJywgJy1waHQnLCAnMi4wJywgJy1waCcsICc3LjAnLCAnLXRuJywgJzgnLCAnLW1hJywgJzIwMCcsICctaW1hZScsICc8aW5maWxlLm1hZT4nLCAnLW9tYWUnLCAnPG91dGZpbGUubWFlPic=

>  <r_epik_Ionization_Penalty>  (288) 
0.00205878

>  <r_epik_Ionization_Penalty_Charging>  (288) 
0.000196936

>  <r_epik_Ionization_Penalty_Neutral>  (288) 
0.00186185

>  <r_epik_State_Penalty>  (288) 
0.00126568

>  <r_epik_Charging_Adjusted_Penalty>  (288) 
0.00146262

>  <i_epik_Tot_Q>  (288) 
1

>  <i_epik_Tot_abs_Q>  (288) 
1

>  <s_lp_Force_Field>  (288) 
OPLS3e

>  <r_lp_Energy>  (288) 
621.644

>  <b_lp_Chiralities_Consistent>  (288) 
1

>  <s_lp_Variant>  (288) 
86:0-1

>  <s_i_glide_gridfile>  (288) 
pfpi4k_grid

>  <i_i_glide_lignum>  (288) 
39

>  <i_i_glide_rotatable_bonds>  (288) 
1

>  <r_i_docking_score>  (288) 
-3.68676

>  <r_i_glide_ligand_efficiency>  (288) 
-0.184338

>  <r_i_glide_ligand_efficiency_sa>  (288) 
-0.50037

>  <r_i_glide_ligand_efficiency_ln>  (288) 
-0.922675

>  <r_i_glide_gscore>  (288) 
-3.68676

>  <r_i_glide_lipo>  (288) 
-0.768897

>  <r_i_glide_hbond>  (288) 
0

>  <r_i_glide_metal>  (288) 
-0

>  <r_i_glide_rewards>  (288) 
-1.6049

>  <r_i_glide_evdw>  (288) 
-16.1896

>  <r_i_glide_ecoul>  (288) 
-3.35654

>  <r_i_glide_erotb>  (288) 
0

>  <r_i_glide_esite>  (288) 
0

>  <r_i_glide_emodel>  (288) 
-23.6478

>  <r_i_glide_energy>  (288) 
-19.5462

>  <r_i_glide_einternal>  (288) 
6.01966e-05

>  <r_i_glide_intrahb_reward>  (288) 
-0

>  <i_i_glide_confnum>  (288) 
1

>  <i_i_glide_posenum>  (288) 
36

>  <r_i_glide_eff_state_penalty>  (288) 
0

>  <ligand_id>  (288) 
86

>  <original_smiles>  (288) 
CC12CC3C1C1C4C5CCCC5N5CC6(C1C3C56O)C42

>  <smiles>  (288) 
[H]OC12C3([H])C4([H])C([H])([H])C5(C([H])([H])[H])C4([H])C4([H])C6([H])C5([H])C1(C43[H])C([H])([H])[N+]2([H])C1([H])C([H])([H])C([H])([H])C([H])([H])C61[H]

$$$$
86:0:2
     RDKit          3D

 44 51  0  0  1  0  0  0  0  0999 V2000
    2.3252   -3.1421   -2.8621 C   0  0  0  0  0  0  0  0  0  0  0  0
    3.7446   -2.8084   -2.4076 C   0  0  2  0  0  0  0  0  0  0  0  0
    4.4890   -1.6124   -3.2371 C   0  0  0  0  0  0  0  0  0  0  0  0
    4.8026   -0.6982   -1.9623 C   0  0  1  0  0  0  0  0  0  0  0  0
    4.1134   -1.8865   -1.6108 C   0  0  2  0  0  0  0  0  0  0  0  0
    5.4035   -3.0544   -1.4139 C   0  0  2  0  0  0  0  0  0  0  0  0
    4.8843   -4.4833   -0.7875 C   0  0  2  0  0  0  0  0  0  0  0  0
    4.6051   -4.9707    0.7590 C   0  0  2  0  0  0  0  0  0  0  0  0
    3.6139   -6.1100    0.9987 C   0  0  0  0  0  0  0  0  0  0  0  0
    3.3984   -6.1186    2.5352 C   0  0  0  0  0  0  0  0  0  0  0  0
    4.0207   -4.8212    3.1102 C   0  0  0  0  0  0  0  0  0  0  0  0
    4.0928   -3.9032    1.8923 C   0  0  1  0  0  0  0  0  0  0  0  0
    4.9515   -2.5976    1.9971 N   0  0  1  0  0  0  0  0  0  0  0  0
    6.1825   -2.9148    1.4761 C   0  0  0  0  0  0  0  0  0  0  0  0
    5.2902   -2.6220    0.2415 C   0  0  2  0  0  0  0  0  0  0  0  0
    6.2233   -2.1707   -0.6618 C   0  0  2  0  0  0  0  0  0  0  0  0
    5.5888   -0.8555   -0.5186 C   0  0  2  0  0  0  0  0  0  0  0  0
    4.8828   -1.3713    0.9591 C   0  0  2  0  0  0  0  0  0  0  0  0
    3.5535   -0.9891    1.2310 O   0  0  0  0  0  0  0  0  0  0  0  0
    4.0510   -3.4097   -0.7909 C   0  0  1  0  0  0  0  0  0  0  0  0
    2.2896   -4.1435   -3.2862 H   0  0  0  0  0  0  0  0  0  0  0  0
    1.9902   -2.4841   -3.6576 H   0  0  0  0  0  0  0  0  0  0  0  0
    1.5972   -3.0991   -2.0559 H   0  0  0  0  0  0  0  0  0  0  0  0
    5.3926   -1.9155   -3.7579 H   0  0  0  0  0  0  0  0  0  0  0  0
    3.8298   -1.0995   -3.9409 H   0  0  0  0  0  0  0  0  0  0  0  0
    4.2080    0.1985   -2.0029 H   0  0  0  0  0  0  0  0  0  0  0  0
    3.2354   -1.5275   -1.0122 H   0  0  0  0  0  0  0  0  0  0  0  0
    5.9905   -3.3234   -2.3087 H   0  0  0  0  0  0  0  0  0  0  0  0
    4.6345   -5.2288   -1.5360 H   0  0  0  0  0  0  0  0  0  0  0  0
    5.5374   -5.4482    1.0590 H   0  0  0  0  0  0  0  0  0  0  0  0
    2.6678   -5.9058    0.4953 H   0  0  0  0  0  0  0  0  0  0  0  0
    3.9813   -7.0736    0.6356 H   0  0  0  0  0  0  0  0  0  0  0  0
    2.3312   -6.1641    2.7564 H   0  0  0  0  0  0  0  0  0  0  0  0
    3.8461   -7.0009    2.9940 H   0  0  0  0  0  0  0  0  0  0  0  0
    3.4218   -4.4053    3.9209 H   0  0  0  0  0  0  0  0  0  0  0  0
    5.0127   -5.0420    3.5073 H   0  0  0  0  0  0  0  0  0  0  0  0
    3.0592   -3.5899    1.7300 H   0  0  0  0  0  0  0  0  0  0  0  0
    6.9408   -2.1405    1.6958 H   0  0  0  0  0  0  0  0  0  0  0  0
    6.6300   -3.8883    1.6425 H   0  0  0  0  0  0  0  0  0  0  0  0
    7.2898   -2.3559   -0.5061 H   0  0  0  0  0  0  0  0  0  0  0  0
    6.2970   -0.0532   -0.3270 H   0  0  0  0  0  0  0  0  0  0  0  0
    3.5421   -0.0430    1.2025 H   0  0  0  0  0  0  0  0  0  0  0  0
    3.0746   -3.6166   -0.3339 H   0  0  0  0  0  0  0  0  0  0  0  0
    5.0030   -2.2662    2.9469 H   0  0  0  0  0  0  0  0  0  0  0  0
  2  1  1  6
  1 21  1  0
  1 22  1  0
  1 23  1  0
  2  5  1  0
  2 20  1  0
  2  3  1  0
  3  4  1  0
  3 24  1  0
  3 25  1  0
  4 17  1  0
  4  5  1  0
  4 26  1  6
  5  6  1  0
  5 27  1  1
  6 16  1  0
  6  7  1  0
  6 28  1  6
  7 20  1  0
  7  8  1  0
  7 29  1  6
  8 12  1  0
  8  9  1  0
  8 30  1  1
  9 10  1  0
  9 31  1  0
  9 32  1  0
 10 11  1  0
 10 33  1  0
 10 34  1  0
 11 12  1  0
 11 35  1  0
 11 36  1  0
 12 13  1  0
 12 37  1  6
 13 18  1  0
 13 14  1  0
 13 44  1  1
 15 14  1  1
 14 38  1  0
 14 39  1  0
 15 18  1  0
 15 16  1  0
 15 20  1  0
 16 17  1  0
 16 40  1  1
 17 18  1  0
 17 41  1  1
 18 19  1  6
 19 42  1  0
 20 43  1  1
M  CHG  1  13   1
M  END
>  <i_m_ct_stereo_status>  (289) 
1

>  <s_m_source_file>  (289) 
/var/tmp/pbs.5076255.sched01/tmpqw5sdpkp/8220gfbieb.sdf

>  <i_m_source_file_index>  (289) 
39

>  <i_lp_mmshare_version>  (289) 
48012

>  <i_f3d_flags>  (289) 
0

>  <s_epik_input>  (289) 
W0NAXTEyM1tDQEhdNFtDQEBIXTVbQ0BASF02W0NAXTcoW0NIM10pW0NASF0zW0NAQEhdNVtDQEhdOFtDQEBIXShbQ0gyXVtDSDJdW0NIMl04KU4oW0NIMl0xKVtDQEBdMihbT0hdKVtDQEBIXTRbQ0BIXTZbQ0gyXTc=

>  <s_epik_cmdline>  (289) 
J2VwaWtfcHl0aG9uJywgJy1waHQnLCAnMi4wJywgJy1waCcsICc3LjAnLCAnLXRuJywgJzgnLCAnLW1hJywgJzIwMCcsICctaW1hZScsICc8aW5maWxlLm1hZT4nLCAnLW9tYWUnLCAnPG91dGZpbGUubWFlPic=

>  <r_epik_Ionization_Penalty>  (289) 
0.00205878

>  <r_epik_Ionization_Penalty_Charging>  (289) 
0.000196936

>  <r_epik_Ionization_Penalty_Neutral>  (289) 
0.00186185

>  <r_epik_State_Penalty>  (289) 
0.00126568

>  <r_epik_Charging_Adjusted_Penalty>  (289) 
0.00146262

>  <i_epik_Tot_Q>  (289) 
1

>  <i_epik_Tot_abs_Q>  (289) 
1

>  <s_lp_Force_Field>  (289) 
OPLS3e

>  <r_lp_Energy>  (289) 
621.644

>  <b_lp_Chiralities_Consistent>  (289) 
1

>  <s_lp_Variant>  (289) 
86:0-1

>  <s_i_glide_gridfile>  (289) 
pfpi4k_grid

>  <i_i_glide_lignum>  (289) 
39

>  <i_i_glide_rotatable_bonds>  (289) 
1

>  <r_i_docking_score>  (289) 
-3.23385

>  <r_i_glide_ligand_efficiency>  (289) 
-0.161692

>  <r_i_glide_ligand_efficiency_sa>  (289) 
-0.4389

>  <r_i_glide_ligand_efficiency_ln>  (289) 
-0.809325

>  <r_i_glide_gscore>  (289) 
-3.23385

>  <r_i_glide_lipo>  (289) 
-0.495671

>  <r_i_glide_hbond>  (289) 
0

>  <r_i_glide_metal>  (289) 
-0

>  <r_i_glide_rewards>  (289) 
-1.63207

>  <r_i_glide_evdw>  (289) 
-15.8498

>  <r_i_glide_ecoul>  (289) 
-2.09075

>  <r_i_glide_erotb>  (289) 
0

>  <r_i_glide_esite>  (289) 
0

>  <r_i_glide_emodel>  (289) 
-21.3681

>  <r_i_glide_energy>  (289) 
-17.9405

>  <r_i_glide_einternal>  (289) 
0.358643

>  <r_i_glide_intrahb_reward>  (289) 
-0

>  <i_i_glide_confnum>  (289) 
1

>  <i_i_glide_posenum>  (289) 
40

>  <r_i_glide_eff_state_penalty>  (289) 
0

>  <ligand_id>  (289) 
86

>  <original_smiles>  (289) 
CC12CC3C1C1C4C5CCCC5N5CC6(C1C3C56O)C42

>  <smiles>  (289) 
[H]OC12C3([H])C4([H])C([H])([H])C5(C([H])([H])[H])C4([H])C4([H])C6([H])C5([H])C1(C43[H])C([H])([H])[N+]2([H])C1([H])C([H])([H])C([H])([H])C([H])([H])C61[H]

$$$$
87:0:0
     RDKit          3D

 66 70  0  0  1  0  0  0  0  0999 V2000
    8.1892   -5.8761    1.7352 C   0  0  0  0  0  0  0  0  0  0  0  0
    6.9610   -5.9545    2.2931 C   0  0  0  0  0  0  0  0  0  0  0  0
    5.7482   -5.1499    1.8123 C   0  0  1  0  0  0  0  0  0  0  0  0
    6.0299   -4.2714    0.5664 C   0  0  0  0  0  0  0  0  0  0  0  0
    4.9224   -3.3885    0.2179 N   0  0  0  0  0  0  0  0  0  0  0  0
    4.4536   -3.2697   -1.1043 C   0  0  0  0  0  0  0  0  0  0  0  0
    5.2221   -3.6258   -2.2380 C   0  0  0  0  0  0  0  0  0  0  0  0
    4.6792   -3.5313   -3.5357 C   0  0  0  0  0  0  0  0  0  0  0  0
    3.3741   -3.0420   -3.7275 C   0  0  0  0  0  0  0  0  0  0  0  0
    2.6152   -2.6563   -2.6082 C   0  0  0  0  0  0  0  0  0  0  0  0
    3.1541   -2.7668   -1.3098 C   0  0  0  0  0  0  0  0  0  0  0  0
    4.5683   -6.1171    1.6025 C   0  0  0  0  0  0  0  0  0  0  0  0
    4.2266   -6.4195    0.4592 O   0  0  0  0  0  0  0  0  0  0  0  0
    3.7669   -6.6330    2.8418 C   0  0  2  0  0  0  0  0  0  0  0  0
    4.3297   -6.0492    4.1891 C   0  0  0  0  0  0  0  0  0  0  0  0
    5.8199   -6.2394    4.5559 C   0  0  0  0  0  0  0  0  0  0  0  0
    6.7232   -6.8787    3.4876 C   0  0  1  0  0  0  0  0  0  0  0  0
    6.3642   -8.3385    3.0690 C   0  0  1  0  0  0  0  0  0  0  0  0
    7.4785   -9.3245    3.4888 C   0  0  0  0  0  0  0  0  0  0  0  0
    4.9710   -8.8811    3.5005 C   0  0  1  0  0  0  0  0  0  0  0  0
    4.8743   -9.0014    4.9027 O   0  0  0  0  0  0  0  0  0  0  0  0
    3.6821   -8.2302    2.8684 C   0  0  2  0  0  0  0  0  0  0  0  0
    3.2556   -8.9513    1.5459 C   0  0  1  0  0  0  0  0  0  0  0  0
    4.2852   -9.4543    0.7136 O   0  0  0  0  0  0  0  0  0  0  0  0
    2.4634   -9.9600    2.3643 C   0  0  0  0  0  0  0  0  0  0  0  0
    2.3202   -8.8417    3.3922 C   0  0  2  0  0  0  0  0  0  0  0  0
    1.0154   -8.0359    3.3329 C   0  0  1  0  0  0  0  0  0  0  0  0
   -0.1016   -8.6365    4.1937 C   0  0  0  0  0  0  0  0  0  0  0  0
    1.2703   -6.5743    3.6410 C   0  0  0  0  0  0  0  0  0  0  0  0
    2.3189   -6.0313    2.6564 C   0  0  1  0  0  0  0  0  0  0  0  0
    2.2692   -4.6200    2.7605 O   0  0  0  0  0  0  0  0  0  0  0  0
    9.0078   -6.4677    2.1214 H   0  0  0  0  0  0  0  0  0  0  0  0
    8.4106   -5.2408    0.8966 H   0  0  0  0  0  0  0  0  0  0  0  0
    5.4923   -4.4556    2.6097 H   0  0  0  0  0  0  0  0  0  0  0  0
    6.8820   -3.6142    0.7546 H   0  0  0  0  0  0  0  0  0  0  0  0
    6.3141   -4.9337   -0.2514 H   0  0  0  0  0  0  0  0  0  0  0  0
    4.2812   -3.1308    0.9523 H   0  0  0  0  0  0  0  0  0  0  0  0
    6.2287   -3.9917   -2.1478 H   0  0  0  0  0  0  0  0  0  0  0  0
    5.2712   -3.8590   -4.3804 H   0  0  0  0  0  0  0  0  0  0  0  0
    2.9494   -2.9651   -4.7215 H   0  0  0  0  0  0  0  0  0  0  0  0
    1.6138   -2.2718   -2.7377 H   0  0  0  0  0  0  0  0  0  0  0  0
    2.5554   -2.4597   -0.4642 H   0  0  0  0  0  0  0  0  0  0  0  0
    4.1631   -4.9764    4.2320 H   0  0  0  0  0  0  0  0  0  0  0  0
    3.7455   -6.4314    5.0255 H   0  0  0  0  0  0  0  0  0  0  0  0
    6.2439   -5.2715    4.8274 H   0  0  0  0  0  0  0  0  0  0  0  0
    5.8924   -6.8138    5.4789 H   0  0  0  0  0  0  0  0  0  0  0  0
    7.6951   -6.9401    3.9778 H   0  0  0  0  0  0  0  0  0  0  0  0
    6.3745   -8.3727    1.9801 H   0  0  0  0  0  0  0  0  0  0  0  0
    7.5852   -9.3874    4.5729 H   0  0  0  0  0  0  0  0  0  0  0  0
    8.4442   -9.0210    3.0837 H   0  0  0  0  0  0  0  0  0  0  0  0
    7.2826  -10.3327    3.1221 H   0  0  0  0  0  0  0  0  0  0  0  0
    4.9963   -9.9202    3.1854 H   0  0  0  0  0  0  0  0  0  0  0  0
    4.1373   -9.5655    5.1051 H   0  0  0  0  0  0  0  0  0  0  0  0
    2.5590   -8.3540    0.9494 H   0  0  0  0  0  0  0  0  0  0  0  0
    4.1836  -10.4081    0.6643 H   0  0  0  0  0  0  0  0  0  0  0  0
    1.5166  -10.2468    1.9091 H   0  0  0  0  0  0  0  0  0  0  0  0
    3.0485  -10.8220    2.6902 H   0  0  0  0  0  0  0  0  0  0  0  0
    2.4652   -9.2636    4.3805 H   0  0  0  0  0  0  0  0  0  0  0  0
    0.6369   -8.0737    2.3143 H   0  0  0  0  0  0  0  0  0  0  0  0
    0.1258   -8.6037    5.2602 H   0  0  0  0  0  0  0  0  0  0  0  0
   -0.3058   -9.6750    3.9249 H   0  0  0  0  0  0  0  0  0  0  0  0
   -1.0251   -8.0825    4.0389 H   0  0  0  0  0  0  0  0  0  0  0  0
    0.3358   -6.0242    3.5401 H   0  0  0  0  0  0  0  0  0  0  0  0
    1.5877   -6.4425    4.6731 H   0  0  0  0  0  0  0  0  0  0  0  0
    1.9570   -6.2604    1.6512 H   0  0  0  0  0  0  0  0  0  0  0  0
    2.8184   -4.2528    2.0799 H   0  0  0  0  0  0  0  0  0  0  0  0
  1  2  2  0
  1 32  1  0
  1 33  1  0
  2 17  1  0
  2  3  1  0
  3  4  1  0
  3 12  1  0
  3 34  1  1
  4  5  1  0
  4 35  1  0
  4 36  1  0
  5  6  1  0
  5 37  1  0
  6 11  1  0
  6  7  2  0
  7  8  1  0
  7 38  1  0
  8  9  2  0
  8 39  1  0
  9 10  1  0
  9 40  1  0
 10 11  2  0
 10 41  1  0
 11 42  1  0
 12 13  2  0
 14 12  1  6
 22 14  1  6
 14 30  1  0
 14 15  1  0
 15 16  1  0
 15 43  1  0
 15 44  1  0
 16 17  1  0
 16 45  1  0
 16 46  1  0
 17 18  1  0
 17 47  1  1
 18 19  1  0
 18 20  1  0
 18 48  1  6
 19 49  1  0
 19 50  1  0
 19 51  1  0
 20 21  1  0
 20 22  1  0
 20 52  1  6
 21 53  1  0
 22 26  1  0
 22 23  1  0
 23 24  1  0
 23 25  1  0
 23 54  1  6
 24 55  1  0
 25 26  1  0
 25 56  1  0
 25 57  1  0
 26 27  1  0
 26 58  1  1
 27 28  1  0
 27 29  1  0
 27 59  1  6
 28 60  1  0
 28 61  1  0
 28 62  1  0
 29 30  1  0
 29 63  1  0
 29 64  1  0
 30 31  1  0
 30 65  1  6
 31 66  1  0
M  END
>  <i_m_ct_stereo_status>  (290) 
1

>  <s_m_source_file>  (290) 
/var/tmp/pbs.5076255.sched01/tmpqw5sdpkp/8220gfbieb.sdf

>  <i_m_source_file_index>  (290) 
40

>  <i_lp_mmshare_version>  (290) 
48012

>  <i_f3d_flags>  (290) 
0

>  <s_epik_input>  (290) 
W09IXVtDQEBIXTFbQ0gyXVtDQEhdKFtDSDNdKVtDQEBIXShbQ0gyXVtDQEBIXTJbT0hdKVtDQEBdMihbQ0BdMTM0KVtDQEhdKFtPSF0pW0NASF0oW0NIM10pW0NASF0oW0NIMl1bQ0gyXTQpQyg9W0NIMl0pW0NASF0oQzM9TylbQ0gyXVtOSF1jNVtjSF1bY0hdW2NIXVtjSF1bY0hdNQ==

>  <s_epik_cmdline>  (290) 
J2VwaWtfcHl0aG9uJywgJy1waHQnLCAnMi4wJywgJy1waCcsICc3LjAnLCAnLXRuJywgJzgnLCAnLW1hJywgJzIwMCcsICctaW1hZScsICc8aW5maWxlLm1hZT4nLCAnLW9tYWUnLCAnPG91dGZpbGUubWFlPic=

>  <r_epik_Ionization_Penalty>  (290) 
0.00120908

>  <r_epik_Ionization_Penalty_Charging>  (290) 
0

>  <r_epik_Ionization_Penalty_Neutral>  (290) 
0.00120908

>  <r_epik_State_Penalty>  (290) 
0.000797518

>  <r_epik_Charging_Adjusted_Penalty>  (290) 
0.000797518

>  <i_epik_Tot_Q>  (290) 
0

>  <i_epik_Tot_abs_Q>  (290) 
0

>  <s_lp_Force_Field>  (290) 
OPLS3e

>  <r_lp_Energy>  (290) 
60.8933

>  <b_lp_Chiralities_Consistent>  (290) 
1

>  <s_lp_Variant>  (290) 
87:0-1

>  <s_i_glide_gridfile>  (290) 
pfpi4k_grid

>  <i_i_glide_lignum>  (290) 
40

>  <i_i_glide_rotatable_bonds>  (290) 
6

>  <r_i_docking_score>  (290) 
-2.84989

>  <r_i_glide_ligand_efficiency>  (290) 
-0.0919319

>  <r_i_glide_ligand_efficiency_sa>  (290) 
-0.288793

>  <r_i_glide_ligand_efficiency_ln>  (290) 
-0.642737

>  <r_i_glide_gscore>  (290) 
-2.84989

>  <r_i_glide_lipo>  (290) 
-0.685628

>  <r_i_glide_hbond>  (290) 
0

>  <r_i_glide_metal>  (290) 
-0

>  <r_i_glide_rewards>  (290) 
-0.575495

>  <r_i_glide_evdw>  (290) 
-28.1138

>  <r_i_glide_ecoul>  (290) 
-3.41135

>  <r_i_glide_erotb>  (290) 
0.328627

>  <r_i_glide_esite>  (290) 
0

>  <r_i_glide_emodel>  (290) 
-36.0901

>  <r_i_glide_energy>  (290) 
-31.5252

>  <r_i_glide_einternal>  (290) 
2.97283

>  <r_i_glide_intrahb_reward>  (290) 
-0

>  <i_i_glide_confnum>  (290) 
4

>  <i_i_glide_posenum>  (290) 
1

>  <r_i_glide_eff_state_penalty>  (290) 
0

>  <ligand_id>  (290) 
87

>  <original_smiles>  (290) 
C=C1C(CNc2ccccc2)C(=O)C23CCC1C(C)C(O)C21C(O)CC1C(C)CC3O

>  <smiles>  (290) 
[H]OC1([H])C([H])([H])C([H])(C([H])([H])[H])C2([H])C([H])([H])C([H])(O[H])C23C([H])(O[H])C([H])(C([H])([H])[H])C2([H])C(=C([H])[H])C([H])(C([H])([H])N([H])c4c([H])c([H])c([H])c([H])c4[H])C(=O)C13C([H])([H])C2([H])[H]

$$$$
87:0:1
     RDKit          3D

 66 70  0  0  1  0  0  0  0  0999 V2000
    8.1816   -5.8508    1.7790 C   0  0  0  0  0  0  0  0  0  0  0  0
    6.9456   -5.9221    2.3244 C   0  0  0  0  0  0  0  0  0  0  0  0
    5.7351   -5.1264    1.8196 C   0  0  1  0  0  0  0  0  0  0  0  0
    6.0280   -4.2642    0.5675 C   0  0  0  0  0  0  0  0  0  0  0  0
    4.9298   -3.3669    0.2130 N   0  0  0  0  0  0  0  0  0  0  0  0
    4.4647   -3.2602   -1.1132 C   0  0  0  0  0  0  0  0  0  0  0  0
    5.2321   -3.6225   -2.2421 C   0  0  0  0  0  0  0  0  0  0  0  0
    4.6945   -3.5329   -3.5433 C   0  0  0  0  0  0  0  0  0  0  0  0
    3.3924   -3.0448   -3.7396 C   0  0  0  0  0  0  0  0  0  0  0  0
    2.6310   -2.6542   -2.6271 C   0  0  0  0  0  0  0  0  0  0  0  0
    3.1676   -2.7560   -1.3234 C   0  0  0  0  0  0  0  0  0  0  0  0
    4.5599   -6.0983    1.6072 C   0  0  0  0  0  0  0  0  0  0  0  0
    4.2453   -6.4309    0.4662 O   0  0  0  0  0  0  0  0  0  0  0  0
    3.7484   -6.6009    2.8448 C   0  0  2  0  0  0  0  0  0  0  0  0
    4.2942   -6.0030    4.1925 C   0  0  0  0  0  0  0  0  0  0  0  0
    5.7795   -6.1821    4.5778 C   0  0  0  0  0  0  0  0  0  0  0  0
    6.6982   -6.8313    3.5278 C   0  0  1  0  0  0  0  0  0  0  0  0
    6.3504   -8.2973    3.1251 C   0  0  1  0  0  0  0  0  0  0  0  0
    7.4646   -9.2711    3.5710 C   0  0  0  0  0  0  0  0  0  0  0  0
    4.9567   -8.8388    3.5471 C   0  0  1  0  0  0  0  0  0  0  0  0
    4.8419   -8.9439    4.9504 O   0  0  0  0  0  0  0  0  0  0  0  0
    3.6710   -8.2000    2.8948 C   0  0  2  0  0  0  0  0  0  0  0  0
    3.2672   -8.9433    1.5763 C   0  0  1  0  0  0  0  0  0  0  0  0
    4.3133   -9.4491    0.7685 O   0  0  0  0  0  0  0  0  0  0  0  0
    2.4672   -9.9455    2.3965 C   0  0  0  0  0  0  0  0  0  0  0  0
    2.3068   -8.8133    3.4064 C   0  0  2  0  0  0  0  0  0  0  0  0
    0.9975   -8.0121    3.3223 C   0  0  1  0  0  0  0  0  0  0  0  0
   -0.1228   -8.6096    4.1790 C   0  0  0  0  0  0  0  0  0  0  0  0
    1.2427   -6.5448    3.6187 C   0  0  0  0  0  0  0  0  0  0  0  0
    2.3021   -6.0065    2.6395 C   0  0  1  0  0  0  0  0  0  0  0  0
    2.2493   -4.5866    2.6782 O   0  0  0  0  0  0  0  0  0  0  0  0
    8.9959   -6.4323    2.1835 H   0  0  0  0  0  0  0  0  0  0  0  0
    8.4114   -5.2252    0.9362 H   0  0  0  0  0  0  0  0  0  0  0  0
    5.4684   -4.4225    2.6067 H   0  0  0  0  0  0  0  0  0  0  0  0
    6.8873   -3.6142    0.7500 H   0  0  0  0  0  0  0  0  0  0  0  0
    6.3061   -4.9399   -0.2419 H   0  0  0  0  0  0  0  0  0  0  0  0
    4.2628   -3.1640    0.9433 H   0  0  0  0  0  0  0  0  0  0  0  0
    6.2354   -3.9936   -2.1466 H   0  0  0  0  0  0  0  0  0  0  0  0
    5.2909   -3.8569   -4.3833 H   0  0  0  0  0  0  0  0  0  0  0  0
    2.9714   -2.9700   -4.7314 H   0  0  0  0  0  0  0  0  0  0  0  0
    1.6315   -2.2666   -2.7591 H   0  0  0  0  0  0  0  0  0  0  0  0
    2.5698   -2.4399   -0.4803 H   0  0  0  0  0  0  0  0  0  0  0  0
    4.1281   -4.9311    4.2183 H   0  0  0  0  0  0  0  0  0  0  0  0
    3.7029   -6.3804    5.0280 H   0  0  0  0  0  0  0  0  0  0  0  0
    6.1977   -5.2092    4.8413 H   0  0  0  0  0  0  0  0  0  0  0  0
    5.8458   -6.7450    5.5089 H   0  0  0  0  0  0  0  0  0  0  0  0
    7.6635   -6.8816    4.0293 H   0  0  0  0  0  0  0  0  0  0  0  0
    6.3742   -8.3440    2.0361 H   0  0  0  0  0  0  0  0  0  0  0  0
    7.5586   -9.3198    4.6578 H   0  0  0  0  0  0  0  0  0  0  0  0
    8.4350   -8.9714    3.1738 H   0  0  0  0  0  0  0  0  0  0  0  0
    7.2771  -10.2856    3.2163 H   0  0  0  0  0  0  0  0  0  0  0  0
    4.9917   -9.8805    3.2466 H   0  0  0  0  0  0  0  0  0  0  0  0
    4.1304   -9.5342    5.1504 H   0  0  0  0  0  0  0  0  0  0  0  0
    2.5722   -8.3596    0.9643 H   0  0  0  0  0  0  0  0  0  0  0  0
    4.1989  -10.3900    0.6904 H   0  0  0  0  0  0  0  0  0  0  0  0
    1.5291  -10.2427    1.9345 H   0  0  0  0  0  0  0  0  0  0  0  0
    3.0541  -10.7972    2.7457 H   0  0  0  0  0  0  0  0  0  0  0  0
    2.4436   -9.2231    4.4013 H   0  0  0  0  0  0  0  0  0  0  0  0
    0.6277   -8.0643    2.3020 H   0  0  0  0  0  0  0  0  0  0  0  0
    0.0914   -8.5638    5.2498 H   0  0  0  0  0  0  0  0  0  0  0  0
   -0.3201   -9.6546    3.9218 H   0  0  0  0  0  0  0  0  0  0  0  0
   -1.0493   -8.0639    4.0082 H   0  0  0  0  0  0  0  0  0  0  0  0
    0.3061   -6.0033    3.4979 H   0  0  0  0  0  0  0  0  0  0  0  0
    1.5459   -6.4048    4.6546 H   0  0  0  0  0  0  0  0  0  0  0  0
    1.9548   -6.2619    1.6366 H   0  0  0  0  0  0  0  0  0  0  0  0
    2.5356   -4.2903    3.5300 H   0  0  0  0  0  0  0  0  0  0  0  0
  1  2  2  0
  1 32  1  0
  1 33  1  0
  2 17  1  0
  2  3  1  0
  3  4  1  0
  3 12  1  0
  3 34  1  1
  4  5  1  0
  4 35  1  0
  4 36  1  0
  5  6  1  0
  5 37  1  0
  6 11  1  0
  6  7  2  0
  7  8  1  0
  7 38  1  0
  8  9  2  0
  8 39  1  0
  9 10  1  0
  9 40  1  0
 10 11  2  0
 10 41  1  0
 11 42  1  0
 12 13  2  0
 14 12  1  6
 22 14  1  6
 14 30  1  0
 14 15  1  0
 15 16  1  0
 15 43  1  0
 15 44  1  0
 16 17  1  0
 16 45  1  0
 16 46  1  0
 17 18  1  0
 17 47  1  1
 18 19  1  0
 18 20  1  0
 18 48  1  6
 19 49  1  0
 19 50  1  0
 19 51  1  0
 20 21  1  0
 20 22  1  0
 20 52  1  6
 21 53  1  0
 22 26  1  0
 22 23  1  0
 23 24  1  0
 23 25  1  0
 23 54  1  6
 24 55  1  0
 25 26  1  0
 25 56  1  0
 25 57  1  0
 26 27  1  0
 26 58  1  1
 27 28  1  0
 27 29  1  0
 27 59  1  6
 28 60  1  0
 28 61  1  0
 28 62  1  0
 29 30  1  0
 29 63  1  0
 29 64  1  0
 30 31  1  0
 30 65  1  6
 31 66  1  0
M  END
>  <i_m_ct_stereo_status>  (291) 
1

>  <s_m_source_file>  (291) 
/var/tmp/pbs.5076255.sched01/tmpqw5sdpkp/8220gfbieb.sdf

>  <i_m_source_file_index>  (291) 
40

>  <i_lp_mmshare_version>  (291) 
48012

>  <i_f3d_flags>  (291) 
0

>  <s_epik_input>  (291) 
W09IXVtDQEBIXTFbQ0gyXVtDQEhdKFtDSDNdKVtDQEBIXShbQ0gyXVtDQEBIXTJbT0hdKVtDQEBdMihbQ0BdMTM0KVtDQEhdKFtPSF0pW0NASF0oW0NIM10pW0NASF0oW0NIMl1bQ0gyXTQpQyg9W0NIMl0pW0NASF0oQzM9TylbQ0gyXVtOSF1jNVtjSF1bY0hdW2NIXVtjSF1bY0hdNQ==

>  <s_epik_cmdline>  (291) 
J2VwaWtfcHl0aG9uJywgJy1waHQnLCAnMi4wJywgJy1waCcsICc3LjAnLCAnLXRuJywgJzgnLCAnLW1hJywgJzIwMCcsICctaW1hZScsICc8aW5maWxlLm1hZT4nLCAnLW9tYWUnLCAnPG91dGZpbGUubWFlPic=

>  <r_epik_Ionization_Penalty>  (291) 
0.00120908

>  <r_epik_Ionization_Penalty_Charging>  (291) 
0

>  <r_epik_Ionization_Penalty_Neutral>  (291) 
0.00120908

>  <r_epik_State_Penalty>  (291) 
0.000797518

>  <r_epik_Charging_Adjusted_Penalty>  (291) 
0.000797518

>  <i_epik_Tot_Q>  (291) 
0

>  <i_epik_Tot_abs_Q>  (291) 
0

>  <s_lp_Force_Field>  (291) 
OPLS3e

>  <r_lp_Energy>  (291) 
60.8933

>  <b_lp_Chiralities_Consistent>  (291) 
1

>  <s_lp_Variant>  (291) 
87:0-1

>  <s_i_glide_gridfile>  (291) 
pfpi4k_grid

>  <i_i_glide_lignum>  (291) 
40

>  <i_i_glide_rotatable_bonds>  (291) 
6

>  <r_i_docking_score>  (291) 
-2.76851

>  <r_i_glide_ligand_efficiency>  (291) 
-0.0893069

>  <r_i_glide_ligand_efficiency_sa>  (291) 
-0.280547

>  <r_i_glide_ligand_efficiency_ln>  (291) 
-0.624385

>  <r_i_glide_gscore>  (291) 
-2.76851

>  <r_i_glide_lipo>  (291) 
-0.673645

>  <r_i_glide_hbond>  (291) 
0

>  <r_i_glide_metal>  (291) 
-0

>  <r_i_glide_rewards>  (291) 
-0.57419

>  <r_i_glide_evdw>  (291) 
-28.2831

>  <r_i_glide_ecoul>  (291) 
-2.90102

>  <r_i_glide_erotb>  (291) 
0.328627

>  <r_i_glide_esite>  (291) 
0

>  <r_i_glide_emodel>  (291) 
-35.6637

>  <r_i_glide_energy>  (291) 
-31.1841

>  <r_i_glide_einternal>  (291) 
2.75849

>  <r_i_glide_intrahb_reward>  (291) 
-0

>  <i_i_glide_confnum>  (291) 
4

>  <i_i_glide_posenum>  (291) 
26

>  <r_i_glide_eff_state_penalty>  (291) 
0

>  <ligand_id>  (291) 
87

>  <original_smiles>  (291) 
C=C1C(CNc2ccccc2)C(=O)C23CCC1C(C)C(O)C21C(O)CC1C(C)CC3O

>  <smiles>  (291) 
[H]OC1([H])C([H])([H])C([H])(C([H])([H])[H])C2([H])C([H])([H])C([H])(O[H])C23C([H])(O[H])C([H])(C([H])([H])[H])C2([H])C(=C([H])[H])C([H])(C([H])([H])N([H])c4c([H])c([H])c([H])c([H])c4[H])C(=O)C13C([H])([H])C2([H])[H]

$$$$
87:0:2
     RDKit          3D

 66 70  0  0  1  0  0  0  0  0999 V2000
    4.3795   -8.7475    0.8613 C   0  0  0  0  0  0  0  0  0  0  0  0
    3.9680   -8.0578    1.9412 C   0  0  0  0  0  0  0  0  0  0  0  0
    3.8073   -6.5310    1.9603 C   0  0  1  0  0  0  0  0  0  0  0  0
    4.1171   -5.8154    0.6075 C   0  0  0  0  0  0  0  0  0  0  0  0
    3.9474   -4.3626    0.6730 N   0  0  0  0  0  0  0  0  0  0  0  0
    4.1862   -3.5636   -0.4594 C   0  0  0  0  0  0  0  0  0  0  0  0
    5.1793   -3.8611   -1.4147 C   0  0  0  0  0  0  0  0  0  0  0  0
    5.3953   -3.0184   -2.5248 C   0  0  0  0  0  0  0  0  0  0  0  0
    4.6131   -1.8599   -2.6862 C   0  0  0  0  0  0  0  0  0  0  0  0
    3.6260   -1.5514   -1.7375 C   0  0  0  0  0  0  0  0  0  0  0  0
    3.4169   -2.3951   -0.6292 C   0  0  0  0  0  0  0  0  0  0  0  0
    2.4170   -6.1996    2.5351 C   0  0  0  0  0  0  0  0  0  0  0  0
    1.5207   -5.8223    1.7746 O   0  0  0  0  0  0  0  0  0  0  0  0
    2.1820   -6.2892    4.0830 C   0  0  2  0  0  0  0  0  0  0  0  0
    3.4733   -6.7479    4.8588 C   0  0  0  0  0  0  0  0  0  0  0  0
    4.1798   -8.0708    4.4799 C   0  0  0  0  0  0  0  0  0  0  0  0
    3.6539   -8.8084    3.2387 C   0  0  1  0  0  0  0  0  0  0  0  0
    2.1796   -9.3175    3.3099 C   0  0  1  0  0  0  0  0  0  0  0  0
    2.1206  -10.8612    3.2969 C   0  0  0  0  0  0  0  0  0  0  0  0
    1.2902   -8.7511    4.4521 C   0  0  1  0  0  0  0  0  0  0  0  0
    1.7419   -9.1655    5.7299 O   0  0  0  0  0  0  0  0  0  0  0  0
    0.9208   -7.2210    4.4175 C   0  0  2  0  0  0  0  0  0  0  0  0
   -0.4035   -6.9519    3.6234 C   0  0  1  0  0  0  0  0  0  0  0  0
   -0.7183   -7.7126    2.4769 O   0  0  0  0  0  0  0  0  0  0  0  0
   -1.2076   -7.2300    4.8796 C   0  0  0  0  0  0  0  0  0  0  0  0
    0.0325   -6.7599    5.6426 C   0  0  2  0  0  0  0  0  0  0  0  0
    0.0201   -5.2905    6.0953 C   0  0  1  0  0  0  0  0  0  0  0  0
   -0.6114   -5.0730    7.4800 C   0  0  0  0  0  0  0  0  0  0  0  0
    1.4023   -4.6668    5.9833 C   0  0  0  0  0  0  0  0  0  0  0  0
    1.8964   -4.8036    4.5328 C   0  0  1  0  0  0  0  0  0  0  0  0
    2.9932   -3.9210    4.3504 O   0  0  0  0  0  0  0  0  0  0  0  0
    4.4742   -9.8258    0.8914 H   0  0  0  0  0  0  0  0  0  0  0  0
    4.6152   -8.2743   -0.0780 H   0  0  0  0  0  0  0  0  0  0  0  0
    4.5525   -6.1490    2.6514 H   0  0  0  0  0  0  0  0  0  0  0  0
    5.1488   -6.0322    0.3393 H   0  0  0  0  0  0  0  0  0  0  0  0
    3.4885   -6.2116   -0.1900 H   0  0  0  0  0  0  0  0  0  0  0  0
    3.1915   -4.0662    1.2740 H   0  0  0  0  0  0  0  0  0  0  0  0
    5.7930   -4.7346   -1.2992 H   0  0  0  0  0  0  0  0  0  0  0  0
    6.1646   -3.2576   -3.2399 H   0  0  0  0  0  0  0  0  0  0  0  0
    4.7697   -1.2031   -3.5287 H   0  0  0  0  0  0  0  0  0  0  0  0
    3.0174   -0.6681   -1.8537 H   0  0  0  0  0  0  0  0  0  0  0  0
    2.6460   -2.1434    0.0782 H   0  0  0  0  0  0  0  0  0  0  0  0
    4.2435   -5.9837    4.7873 H   0  0  0  0  0  0  0  0  0  0  0  0
    3.2576   -6.8003    5.9245 H   0  0  0  0  0  0  0  0  0  0  0  0
    5.2428   -7.8695    4.3355 H   0  0  0  0  0  0  0  0  0  0  0  0
    4.1647   -8.7454    5.3358 H   0  0  0  0  0  0  0  0  0  0  0  0
    4.2768   -9.7030    3.1909 H   0  0  0  0  0  0  0  0  0  0  0  0
    1.6948   -9.0218    2.3783 H   0  0  0  0  0  0  0  0  0  0  0  0
    2.5865  -11.3006    4.1799 H   0  0  0  0  0  0  0  0  0  0  0  0
    2.6380  -11.2653    2.4278 H   0  0  0  0  0  0  0  0  0  0  0  0
    1.0936  -11.2257    3.2517 H   0  0  0  0  0  0  0  0  0  0  0  0
    0.3615   -9.3113    4.3609 H   0  0  0  0  0  0  0  0  0  0  0  0
    1.6692  -10.1103    5.7871 H   0  0  0  0  0  0  0  0  0  0  0  0
   -0.4914   -5.8968    3.3746 H   0  0  0  0  0  0  0  0  0  0  0  0
   -0.6220   -8.6282    2.7066 H   0  0  0  0  0  0  0  0  0  0  0  0
   -2.0861   -6.5914    4.9913 H   0  0  0  0  0  0  0  0  0  0  0  0
   -1.4585   -8.2830    5.0208 H   0  0  0  0  0  0  0  0  0  0  0  0
    0.1976   -7.4140    6.4962 H   0  0  0  0  0  0  0  0  0  0  0  0
   -0.5920   -4.7120    5.4031 H   0  0  0  0  0  0  0  0  0  0  0  0
   -0.0259   -5.5370    8.2750 H   0  0  0  0  0  0  0  0  0  0  0  0
   -1.6279   -5.4625    7.5292 H   0  0  0  0  0  0  0  0  0  0  0  0
   -0.6764   -4.0097    7.6990 H   0  0  0  0  0  0  0  0  0  0  0  0
    1.3331   -3.6137    6.2568 H   0  0  0  0  0  0  0  0  0  0  0  0
    2.0883   -5.1187    6.6986 H   0  0  0  0  0  0  0  0  0  0  0  0
    1.1143   -4.3836    3.9004 H   0  0  0  0  0  0  0  0  0  0  0  0
    3.7034   -4.1909    4.9137 H   0  0  0  0  0  0  0  0  0  0  0  0
  1  2  2  0
  1 32  1  0
  1 33  1  0
  2 17  1  0
  2  3  1  0
  3  4  1  0
  3 12  1  0
  3 34  1  1
  4  5  1  0
  4 35  1  0
  4 36  1  0
  5  6  1  0
  5 37  1  0
  6 11  1  0
  6  7  2  0
  7  8  1  0
  7 38  1  0
  8  9  2  0
  8 39  1  0
  9 10  1  0
  9 40  1  0
 10 11  2  0
 10 41  1  0
 11 42  1  0
 12 13  2  0
 14 12  1  6
 22 14  1  6
 14 30  1  0
 14 15  1  0
 15 16  1  0
 15 43  1  0
 15 44  1  0
 16 17  1  0
 16 45  1  0
 16 46  1  0
 17 18  1  0
 17 47  1  6
 18 19  1  0
 18 20  1  0
 18 48  1  6
 19 49  1  0
 19 50  1  0
 19 51  1  0
 20 21  1  0
 20 22  1  0
 20 52  1  6
 21 53  1  0
 22 26  1  0
 22 23  1  0
 23 24  1  0
 23 25  1  0
 23 54  1  6
 24 55  1  0
 25 26  1  0
 25 56  1  0
 25 57  1  0
 26 27  1  0
 26 58  1  1
 27 28  1  0
 27 29  1  0
 27 59  1  6
 28 60  1  0
 28 61  1  0
 28 62  1  0
 29 30  1  0
 29 63  1  0
 29 64  1  0
 30 31  1  0
 30 65  1  6
 31 66  1  0
M  END
>  <i_m_ct_stereo_status>  (292) 
1

>  <s_m_source_file>  (292) 
/var/tmp/pbs.5076255.sched01/tmpqw5sdpkp/8220gfbieb.sdf

>  <i_m_source_file_index>  (292) 
40

>  <i_lp_mmshare_version>  (292) 
48012

>  <i_f3d_flags>  (292) 
0

>  <s_epik_input>  (292) 
W09IXVtDQEBIXTFbQ0gyXVtDQEhdKFtDSDNdKVtDQEBIXShbQ0gyXVtDQEBIXTJbT0hdKVtDQEBdMihbQ0BdMTM0KVtDQEhdKFtPSF0pW0NASF0oW0NIM10pW0NASF0oW0NIMl1bQ0gyXTQpQyg9W0NIMl0pW0NASF0oQzM9TylbQ0gyXVtOSF1jNVtjSF1bY0hdW2NIXVtjSF1bY0hdNQ==

>  <s_epik_cmdline>  (292) 
J2VwaWtfcHl0aG9uJywgJy1waHQnLCAnMi4wJywgJy1waCcsICc3LjAnLCAnLXRuJywgJzgnLCAnLW1hJywgJzIwMCcsICctaW1hZScsICc8aW5maWxlLm1hZT4nLCAnLW9tYWUnLCAnPG91dGZpbGUubWFlPic=

>  <r_epik_Ionization_Penalty>  (292) 
0.00120908

>  <r_epik_Ionization_Penalty_Charging>  (292) 
0

>  <r_epik_Ionization_Penalty_Neutral>  (292) 
0.00120908

>  <r_epik_State_Penalty>  (292) 
0.000797518

>  <r_epik_Charging_Adjusted_Penalty>  (292) 
0.000797518

>  <i_epik_Tot_Q>  (292) 
0

>  <i_epik_Tot_abs_Q>  (292) 
0

>  <s_lp_Force_Field>  (292) 
OPLS3e

>  <r_lp_Energy>  (292) 
60.8933

>  <b_lp_Chiralities_Consistent>  (292) 
1

>  <s_lp_Variant>  (292) 
87:0-1

>  <s_i_glide_gridfile>  (292) 
pfpi4k_grid

>  <i_i_glide_lignum>  (292) 
40

>  <i_i_glide_rotatable_bonds>  (292) 
6

>  <r_i_docking_score>  (292) 
-2.61721

>  <r_i_glide_ligand_efficiency>  (292) 
-0.0844261

>  <r_i_glide_ligand_efficiency_sa>  (292) 
-0.265215

>  <r_i_glide_ligand_efficiency_ln>  (292) 
-0.590261

>  <r_i_glide_gscore>  (292) 
-2.61721

>  <r_i_glide_lipo>  (292) 
-0.460639

>  <r_i_glide_hbond>  (292) 
-0.0572881

>  <r_i_glide_metal>  (292) 
-0

>  <r_i_glide_rewards>  (292) 
-0.507543

>  <r_i_glide_evdw>  (292) 
-28.4904

>  <r_i_glide_ecoul>  (292) 
-3.25598

>  <r_i_glide_erotb>  (292) 
0.328627

>  <r_i_glide_esite>  (292) 
-0.00744929

>  <r_i_glide_emodel>  (292) 
-36.6792

>  <r_i_glide_energy>  (292) 
-31.7464

>  <r_i_glide_einternal>  (292) 
1.32768

>  <r_i_glide_intrahb_reward>  (292) 
-0

>  <i_i_glide_confnum>  (292) 
4

>  <i_i_glide_posenum>  (292) 
30

>  <r_i_glide_eff_state_penalty>  (292) 
0

>  <ligand_id>  (292) 
87

>  <original_smiles>  (292) 
C=C1C(CNc2ccccc2)C(=O)C23CCC1C(C)C(O)C21C(O)CC1C(C)CC3O

>  <smiles>  (292) 
[H]OC1([H])C([H])([H])C([H])(C([H])([H])[H])C2([H])C([H])([H])C([H])(O[H])C23C([H])(O[H])C([H])(C([H])([H])[H])C2([H])C(=C([H])[H])C([H])(C([H])([H])N([H])c4c([H])c([H])c([H])c([H])c4[H])C(=O)C13C([H])([H])C2([H])[H]

$$$$
88:0:0
     RDKit          3D

 69 74  0  0  1  0  0  0  0  0999 V2000
    0.3391   -0.1030    7.7624 C   0  0  0  0  0  0  0  0  0  0  0  0
    0.7704   -1.2716    6.8403 C   0  0  1  0  0  0  0  0  0  0  0  0
   -0.4029   -1.4983    5.8820 C   0  0  0  0  0  0  0  0  0  0  0  0
   -0.5206   -0.9627    4.6541 C   0  0  0  0  0  0  0  0  0  0  0  0
    0.4983   -0.0540    4.1143 C   0  0  0  0  0  0  0  0  0  0  0  0
    0.3977    0.4535    2.9983 O   0  0  0  0  0  0  0  0  0  0  0  0
    1.6973    0.3104    4.9881 C   0  0  0  0  0  0  0  0  0  0  0  0
    1.9788   -0.7867    6.0131 C   0  0  0  0  0  0  0  0  0  0  0  0
    3.2109   -1.3146    6.1176 C   0  0  0  0  0  0  0  0  0  0  0  0
    3.5817   -2.4548    7.0323 C   0  0  0  0  0  0  0  0  0  0  0  0
    2.3790   -3.3454    7.3863 C   0  0  1  0  0  0  0  0  0  0  0  0
    1.1165   -2.5183    7.7492 C   0  0  2  0  0  0  0  0  0  0  0  0
   -0.0491   -3.4576    8.1490 C   0  0  0  0  0  0  0  0  0  0  0  0
   -0.2551   -4.6603    7.1984 C   0  0  0  0  0  0  0  0  0  0  0  0
    1.0293   -5.5095    6.9579 C   0  0  2  0  0  0  0  0  0  0  0  0
    1.4448   -6.1473    8.3147 C   0  0  0  0  0  0  0  0  0  0  0  0
    2.1394   -4.5484    6.4196 C   0  0  1  0  0  0  0  0  0  0  0  0
    1.8823   -4.1072    4.9570 C   0  0  0  0  0  0  0  0  0  0  0  0
    1.6499   -5.2805    4.0003 C   0  0  0  0  0  0  0  0  0  0  0  0
    0.4881   -6.1709    4.4837 C   0  0  1  0  0  0  0  0  0  0  0  0
    0.1030   -7.2930    3.4781 C   0  0  2  0  0  0  0  0  0  0  0  0
   -1.3870   -7.6961    3.5522 C   0  0  0  0  0  0  0  0  0  0  0  0
   -1.4923   -9.0453    2.8401 C   0  0  0  0  0  0  0  0  0  0  0  0
   -0.0846   -9.6002    2.9348 C   0  0  0  0  0  0  0  0  0  0  0  0
    0.2304  -10.7111    2.5147 O   0  0  0  0  0  0  0  0  0  0  0  0
    0.9006   -8.6192    3.5721 C   0  0  1  0  0  0  0  0  0  0  0  0
    2.2022   -8.6131    2.7408 C   0  0  0  0  0  0  0  0  0  0  0  0
    1.1446   -9.0450    5.0446 C   0  0  0  0  0  0  0  0  0  0  0  0
    1.6669   -7.9223    5.9643 C   0  0  1  0  0  0  0  0  0  0  0  0
    3.0167   -7.6252    5.6622 O   0  0  0  0  0  0  0  0  0  0  0  0
    0.7272   -6.6735    5.9348 C   0  0  1  0  0  0  0  0  0  0  0  0
    0.0322    0.7765    7.1917 H   0  0  0  0  0  0  0  0  0  0  0  0
    1.1536    0.2158    8.4176 H   0  0  0  0  0  0  0  0  0  0  0  0
   -0.5022   -0.3762    8.3970 H   0  0  0  0  0  0  0  0  0  0  0  0
   -1.2117   -2.1209    6.2257 H   0  0  0  0  0  0  0  0  0  0  0  0
   -1.3915   -1.1614    4.0514 H   0  0  0  0  0  0  0  0  0  0  0  0
    2.5681    0.4522    4.3495 H   0  0  0  0  0  0  0  0  0  0  0  0
    1.5055    1.2571    5.4882 H   0  0  0  0  0  0  0  0  0  0  0  0
    4.0192   -0.9172    5.5177 H   0  0  0  0  0  0  0  0  0  0  0  0
    4.3722   -3.0483    6.5730 H   0  0  0  0  0  0  0  0  0  0  0  0
    4.0062   -2.0178    7.9385 H   0  0  0  0  0  0  0  0  0  0  0  0
    2.7005   -3.8046    8.3194 H   0  0  0  0  0  0  0  0  0  0  0  0
    1.4107   -2.0576    8.6936 H   0  0  0  0  0  0  0  0  0  0  0  0
    0.1300   -3.8255    9.1592 H   0  0  0  0  0  0  0  0  0  0  0  0
   -0.9746   -2.9011    8.2396 H   0  0  0  0  0  0  0  0  0  0  0  0
   -1.0569   -5.2870    7.5909 H   0  0  0  0  0  0  0  0  0  0  0  0
   -0.6332   -4.2754    6.2563 H   0  0  0  0  0  0  0  0  0  0  0  0
    2.4236   -6.6240    8.2457 H   0  0  0  0  0  0  0  0  0  0  0  0
    0.7229   -6.9016    8.6322 H   0  0  0  0  0  0  0  0  0  0  0  0
    1.5246   -5.4391    9.1354 H   0  0  0  0  0  0  0  0  0  0  0  0
    3.0717   -5.1122    6.4022 H   0  0  0  0  0  0  0  0  0  0  0  0
    1.0198   -3.4520    4.8993 H   0  0  0  0  0  0  0  0  0  0  0  0
    2.7286   -3.5321    4.5847 H   0  0  0  0  0  0  0  0  0  0  0  0
    1.4276   -4.8900    3.0058 H   0  0  0  0  0  0  0  0  0  0  0  0
    2.5753   -5.8426    3.9036 H   0  0  0  0  0  0  0  0  0  0  0  0
   -0.3787   -5.5122    4.5002 H   0  0  0  0  0  0  0  0  0  0  0  0
    0.2525   -6.9008    2.4702 H   0  0  0  0  0  0  0  0  0  0  0  0
   -1.7107   -7.8162    4.5883 H   0  0  0  0  0  0  0  0  0  0  0  0
   -2.0365   -6.9566    3.0870 H   0  0  0  0  0  0  0  0  0  0  0  0
   -2.2191   -9.7137    3.2954 H   0  0  0  0  0  0  0  0  0  0  0  0
   -1.7571   -8.9303    1.7900 H   0  0  0  0  0  0  0  0  0  0  0  0
    2.8876   -7.8287    3.0425 H   0  0  0  0  0  0  0  0  0  0  0  0
    1.9980   -8.4707    1.6803 H   0  0  0  0  0  0  0  0  0  0  0  0
    2.7388   -9.5570    2.8327 H   0  0  0  0  0  0  0  0  0  0  0  0
    0.2075   -9.4035    5.4769 H   0  0  0  0  0  0  0  0  0  0  0  0
    1.8132   -9.9080    5.0875 H   0  0  0  0  0  0  0  0  0  0  0  0
    1.6773   -8.3493    6.9677 H   0  0  0  0  0  0  0  0  0  0  0  0
    3.5218   -8.4210    5.7479 H   0  0  0  0  0  0  0  0  0  0  0  0
   -0.2244   -7.0856    6.2612 H   0  0  0  0  0  0  0  0  0  0  0  0
  2  1  1  1
  1 32  1  0
  1 33  1  0
  1 34  1  0
  2  8  1  0
  2 12  1  0
  2  3  1  0
  3  4  2  0
  3 35  1  0
  4  5  1  0
  4 36  1  0
  5  6  2  0
  5  7  1  0
  7  8  1  0
  7 37  1  0
  7 38  1  0
  8  9  2  0
  9 10  1  0
  9 39  1  0
 10 11  1  0
 10 40  1  0
 10 41  1  0
 11 17  1  0
 11 12  1  0
 11 42  1  1
 12 13  1  0
 12 43  1  1
 13 14  1  0
 13 44  1  0
 13 45  1  0
 14 15  1  0
 14 46  1  0
 14 47  1  0
 15 31  1  0
 15 16  1  1
 15 17  1  0
 16 48  1  0
 16 49  1  0
 16 50  1  0
 17 18  1  0
 17 51  1  6
 18 19  1  0
 18 52  1  0
 18 53  1  0
 19 20  1  0
 19 54  1  0
 19 55  1  0
 20 31  1  0
 20 21  1  0
 20 56  1  1
 21 26  1  0
 21 22  1  0
 21 57  1  6
 22 23  1  0
 22 58  1  0
 22 59  1  0
 23 24  1  0
 23 60  1  0
 23 61  1  0
 24 25  2  0
 24 26  1  0
 26 27  1  6
 26 28  1  0
 27 62  1  0
 27 63  1  0
 27 64  1  0
 28 29  1  0
 28 65  1  0
 28 66  1  0
 29 30  1  0
 29 31  1  0
 29 67  1  1
 30 68  1  0
 31 69  1  1
M  END
>  <i_m_ct_stereo_status>  (293) 
1

>  <s_m_source_file>  (293) 
/var/tmp/pbs.5076255.sched01/tmpqw5sdpkp/8220gfbieb.sdf

>  <i_m_source_file_index>  (293) 
41

>  <i_lp_mmshare_version>  (293) 
48012

>  <i_f3d_flags>  (293) 
0

>  <s_epik_input>  (293) 
W0NIXTE9W0NIXUMoPU8pW0NIMl1DKFtDQEBdMTJbQ0gzXSk9W0NIXVtDSDJdW0NASF0zW0NAQEhdMltDSDJdW0NIMl1bQ0BdNChbQ0gzXSlbQ0BIXTNbQ0gyXVtDSDJdW0NASF01W0NASF02W0NAXShbQ0gzXSkoQyg9TylbQ0gyXVtDSDJdNilbQ0gyXVtDQEBIXShbT0hdKVtDQEBIXTQ1

>  <s_epik_cmdline>  (293) 
J2VwaWtfcHl0aG9uJywgJy1waHQnLCAnMi4wJywgJy1waCcsICc3LjAnLCAnLXRuJywgJzgnLCAnLW1hJywgJzIwMCcsICctaW1hZScsICc8aW5maWxlLm1hZT4nLCAnLW9tYWUnLCAnPG91dGZpbGUubWFlPic=

>  <r_lp_tautomer_probability>  (293) 
1

>  <r_epik_Ionization_Penalty>  (293) 
1.24859e-06

>  <r_epik_Ionization_Penalty_Charging>  (293) 
0

>  <r_epik_Ionization_Penalty_Neutral>  (293) 
1.24859e-06

>  <r_epik_State_Penalty>  (293) 
-0

>  <r_epik_Charging_Adjusted_Penalty>  (293) 
0

>  <i_epik_Tot_Q>  (293) 
0

>  <i_epik_Tot_abs_Q>  (293) 
0

>  <s_lp_Force_Field>  (293) 
OPLS3e

>  <r_lp_Energy>  (293) 
68.0646

>  <b_lp_Chiralities_Consistent>  (293) 
1

>  <s_lp_Variant>  (293) 
88:0-1

>  <s_i_glide_gridfile>  (293) 
pfpi4k_grid

>  <i_i_glide_lignum>  (293) 
41

>  <i_i_glide_rotatable_bonds>  (293) 
1

>  <r_i_docking_score>  (293) 
-1.65755

>  <r_i_glide_ligand_efficiency>  (293) 
-0.0534695

>  <r_i_glide_ligand_efficiency_sa>  (293) 
-0.167968

>  <r_i_glide_ligand_efficiency_ln>  (293) 
-0.373829

>  <r_i_glide_gscore>  (293) 
-1.65755

>  <r_i_glide_lipo>  (293) 
-0.00105443

>  <r_i_glide_hbond>  (293) 
0

>  <r_i_glide_metal>  (293) 
-0

>  <r_i_glide_rewards>  (293) 
-0.527731

>  <r_i_glide_evdw>  (293) 
-27.6564

>  <r_i_glide_ecoul>  (293) 
1.90848

>  <r_i_glide_erotb>  (293) 
0

>  <r_i_glide_esite>  (293) 
-0.0322221

>  <r_i_glide_emodel>  (293) 
-27.6537

>  <r_i_glide_energy>  (293) 
-25.7479

>  <r_i_glide_einternal>  (293) 
0.331631

>  <r_i_glide_intrahb_reward>  (293) 
-0

>  <i_i_glide_confnum>  (293) 
2

>  <i_i_glide_posenum>  (293) 
5

>  <r_i_glide_eff_state_penalty>  (293) 
0

>  <ligand_id>  (293) 
88

>  <original_smiles>  (293) 
CC12C=CC(=O)CC1=CCC1C2CCC2(C)C1CCC1C3CCC(=O)C3(C)CC(O)C12

>  <smiles>  (293) 
[H]OC1([H])C([H])([H])C2(C([H])([H])[H])C(=O)C([H])([H])C([H])([H])C2([H])C2([H])C([H])([H])C([H])([H])C3([H])C4([H])C([H])([H])C([H])=C5C([H])([H])C(=O)C([H])=C([H])C5(C([H])([H])[H])C4([H])C([H])([H])C([H])([H])C3(C([H])([H])[H])C12[H]

$$$$
89:0:0
     RDKit          3D

 30 32  0  0  1  0  0  0  0  0999 V2000
    2.3407   -3.4622   -2.0465 C   0  0  0  0  0  0  0  0  0  0  0  0
    3.2716   -3.8085   -0.8596 C   0  0  0  0  0  0  0  0  0  0  0  0
    4.5551   -3.1243   -0.9966 N   0  0  0  0  0  0  0  0  0  0  0  0
    5.3453   -3.3378   -2.0814 N   0  0  0  0  0  0  0  0  0  0  0  0
    6.4281   -2.6495   -1.9029 N   0  0  0  0  0  0  0  0  0  0  0  0
    6.3917   -1.9488   -0.7073 N   0  0  0  0  0  0  0  0  0  0  0  0
    5.2166   -2.2797   -0.1795 C   0  0  0  0  0  0  0  0  0  0  0  0
    4.6444   -1.7162    1.3982 S   0  0  0  0  0  0  0  0  0  0  0  0
    3.0615   -0.9553    0.9037 C   0  0  0  0  0  0  0  0  0  0  0  0
    2.0961   -0.9592    2.0527 C   0  0  0  0  0  0  0  0  0  0  0  0
    1.4625    0.0976    2.5549 N   0  0  0  0  0  0  0  0  0  0  0  0
    0.7195   -0.4844    3.5357 C   0  0  0  0  0  0  0  0  0  0  0  0
   -0.1741    0.3201    4.4080 C   0  0  0  0  0  0  0  0  0  0  0  0
   -0.9821   -0.2549    5.4176 C   0  0  0  0  0  0  0  0  0  0  0  0
   -1.7866    0.4876    6.2180 N   0  0  0  0  0  0  0  0  0  0  0  0
   -1.7805    1.8225    6.0015 C   0  0  0  0  0  0  0  0  0  0  0  0
   -0.9836    2.4070    4.9991 C   0  0  0  0  0  0  0  0  0  0  0  0
   -0.1830    1.6610    4.2076 N   0  0  0  0  0  0  0  0  0  0  0  0
    0.8405   -1.7996    3.6731 N   0  0  0  0  0  0  0  0  0  0  0  0
    1.7706   -2.1308    2.6665 O   0  0  0  0  0  0  0  0  0  0  0  0
    1.3640   -3.9289   -1.9205 H   0  0  0  0  0  0  0  0  0  0  0  0
    2.7445   -3.8322   -2.9901 H   0  0  0  0  0  0  0  0  0  0  0  0
    2.1887   -2.3885   -2.1639 H   0  0  0  0  0  0  0  0  0  0  0  0
    2.7921   -3.5434    0.0846 H   0  0  0  0  0  0  0  0  0  0  0  0
    3.4698   -4.8866   -0.7888 H   0  0  0  0  0  0  0  0  0  0  0  0
    3.2221    0.0776    0.5759 H   0  0  0  0  0  0  0  0  0  0  0  0
    2.6293   -1.4909    0.0693 H   0  0  0  0  0  0  0  0  0  0  0  0
   -0.9942   -1.3197    5.5947 H   0  0  0  0  0  0  0  0  0  0  0  0
   -2.4182    2.4269    6.6284 H   0  0  0  0  0  0  0  0  0  0  0  0
   -0.9818    3.4710    4.8295 H   0  0  0  0  0  0  0  0  0  0  0  0
  1  2  1  0
  1 21  1  0
  1 22  1  0
  1 23  1  0
  2  3  1  0
  2 24  1  0
  2 25  1  0
  3  7  1  0
  3  4  1  0
  4  5  2  0
  5  6  1  0
  6  7  2  0
  7  8  1  0
  8  9  1  0
  9 10  1  0
  9 26  1  0
  9 27  1  0
 10 20  1  0
 10 11  2  0
 11 12  1  0
 12 13  1  0
 12 19  2  0
 13 18  1  0
 13 14  2  0
 14 15  1  0
 14 28  1  0
 15 16  2  0
 16 17  1  0
 16 29  1  0
 17 18  2  0
 17 30  1  0
 19 20  1  0
M  END
>  <i_m_ct_stereo_status>  (294) 
1

>  <s_m_source_file>  (294) 
/var/tmp/pbs.5076255.sched01/tmpjgl1obm9/123zpz496x9.sdf

>  <i_m_source_file_index>  (294) 
1

>  <i_lp_mmshare_version>  (294) 
48012

>  <i_f3d_flags>  (294) 
0

>  <s_epik_input>  (294) 
W0NIM11bQ0gyXW4xbm5uYzFTW0NIMl1jMm5jKG5vMiktYzNbY0hdbltjSF1bY0hdbjM=

>  <s_epik_cmdline>  (294) 
J2VwaWtfcHl0aG9uJywgJy1waHQnLCAnMi4wJywgJy1waCcsICc3LjAnLCAnLXRuJywgJzgnLCAnLW1hJywgJzIwMCcsICctaW1hZScsICc8aW5maWxlLm1hZT4nLCAnLW9tYWUnLCAnPG91dGZpbGUubWFlPic=

>  <r_lp_tautomer_probability>  (294) 
1

>  <r_epik_Ionization_Penalty>  (294) 
8.46794e-09

>  <r_epik_Ionization_Penalty_Charging>  (294) 
0

>  <r_epik_Ionization_Penalty_Neutral>  (294) 
8.46794e-09

>  <r_epik_State_Penalty>  (294) 
-0

>  <r_epik_Charging_Adjusted_Penalty>  (294) 
0

>  <i_epik_Tot_Q>  (294) 
0

>  <i_epik_Tot_abs_Q>  (294) 
0

>  <s_lp_Force_Field>  (294) 
OPLS3e

>  <r_lp_Energy>  (294) 
18.5264

>  <b_lp_Chiralities_Consistent>  (294) 
1

>  <s_lp_Variant>  (294) 
89:0-1

>  <s_i_glide_gridfile>  (294) 
pfpi4k_grid

>  <i_i_glide_lignum>  (294) 
1

>  <i_i_glide_rotatable_bonds>  (294) 
5

>  <r_i_docking_score>  (294) 
-2.9639

>  <r_i_glide_ligand_efficiency>  (294) 
-0.148195

>  <r_i_glide_ligand_efficiency_sa>  (294) 
-0.402263

>  <r_i_glide_ligand_efficiency_ln>  (294) 
-0.741766

>  <r_i_glide_gscore>  (294) 
-2.9639

>  <r_i_glide_lipo>  (294) 
-0.186557

>  <r_i_glide_hbond>  (294) 
-0.131475

>  <r_i_glide_metal>  (294) 
-0

>  <r_i_glide_rewards>  (294) 
-1.44325

>  <r_i_glide_evdw>  (294) 
-25.3693

>  <r_i_glide_ecoul>  (294) 
-4.60436

>  <r_i_glide_erotb>  (294) 
0.864901

>  <r_i_glide_esite>  (294) 
-0.108394

>  <r_i_glide_emodel>  (294) 
-34.8101

>  <r_i_glide_energy>  (294) 
-29.9737

>  <r_i_glide_einternal>  (294) 
2.50225

>  <r_i_glide_intrahb_reward>  (294) 
-0

>  <i_i_glide_confnum>  (294) 
2

>  <i_i_glide_posenum>  (294) 
2

>  <r_i_glide_eff_state_penalty>  (294) 
0

>  <ligand_id>  (294) 
89

>  <original_smiles>  (294) 
CCn1nnnc1SCc1nc(-c2cnccn2)no1

>  <smiles>  (294) 
[H]c1nc([H])c(-c2noc(C([H])([H])Sc3nnnn3C([H])([H])C([H])([H])[H])n2)nc1[H]

$$$$
89:0:1
     RDKit          3D

 30 32  0  0  1  0  0  0  0  0999 V2000
    3.2000   -0.0331   -4.3226 C   0  0  0  0  0  0  0  0  0  0  0  0
    3.3951   -0.5844   -2.8951 C   0  0  0  0  0  0  0  0  0  0  0  0
    3.9608   -1.9274   -2.8703 N   0  0  0  0  0  0  0  0  0  0  0  0
    4.1960   -2.6089   -4.0141 N   0  0  0  0  0  0  0  0  0  0  0  0
    4.7167   -3.7445   -3.6830 N   0  0  0  0  0  0  0  0  0  0  0  0
    4.8707   -3.8373   -2.3203 N   0  0  0  0  0  0  0  0  0  0  0  0
    4.3336   -2.7173   -1.8533 C   0  0  0  0  0  0  0  0  0  0  0  0
    4.1547   -2.2904   -0.1454 S   0  0  0  0  0  0  0  0  0  0  0  0
    4.5122   -3.8926    0.6502 C   0  0  0  0  0  0  0  0  0  0  0  0
    3.4787   -4.2123    1.6747 C   0  0  0  0  0  0  0  0  0  0  0  0
    2.5346   -5.1519    1.5776 N   0  0  0  0  0  0  0  0  0  0  0  0
    1.9435   -5.0346    2.7988 C   0  0  0  0  0  0  0  0  0  0  0  0
    0.8006   -5.8950    3.1999 C   0  0  0  0  0  0  0  0  0  0  0  0
    0.2835   -5.9172    4.5215 C   0  0  0  0  0  0  0  0  0  0  0  0
   -0.7762   -6.6811    4.8704 N   0  0  0  0  0  0  0  0  0  0  0  0
   -1.3061   -7.4669    3.9070 C   0  0  0  0  0  0  0  0  0  0  0  0
   -0.8029   -7.4559    2.5901 C   0  0  0  0  0  0  0  0  0  0  0  0
    0.2285   -6.6573    2.2322 N   0  0  0  0  0  0  0  0  0  0  0  0
    2.4411   -4.1158    3.6160 N   0  0  0  0  0  0  0  0  0  0  0  0
    3.4793   -3.5490    2.8570 O   0  0  0  0  0  0  0  0  0  0  0  0
    2.7425    0.9525   -4.3174 H   0  0  0  0  0  0  0  0  0  0  0  0
    2.5370   -0.6699   -4.9055 H   0  0  0  0  0  0  0  0  0  0  0  0
    4.1500    0.0471   -4.8525 H   0  0  0  0  0  0  0  0  0  0  0  0
    4.0618    0.0766   -2.3363 H   0  0  0  0  0  0  0  0  0  0  0  0
    2.4407   -0.6149   -2.3685 H   0  0  0  0  0  0  0  0  0  0  0  0
    4.5185   -4.7256   -0.0471 H   0  0  0  0  0  0  0  0  0  0  0  0
    5.5011   -3.8532    1.1064 H   0  0  0  0  0  0  0  0  0  0  0  0
    0.7050   -5.3091    5.3066 H   0  0  0  0  0  0  0  0  0  0  0  0
   -2.1441   -8.0903    4.1789 H   0  0  0  0  0  0  0  0  0  0  0  0
   -1.2401   -8.0697    1.8196 H   0  0  0  0  0  0  0  0  0  0  0  0
  1  2  1  0
  1 21  1  0
  1 22  1  0
  1 23  1  0
  2  3  1  0
  2 24  1  0
  2 25  1  0
  3  7  1  0
  3  4  1  0
  4  5  2  0
  5  6  1  0
  6  7  2  0
  7  8  1  0
  8  9  1  0
  9 10  1  0
  9 26  1  0
  9 27  1  0
 10 20  1  0
 10 11  2  0
 11 12  1  0
 12 13  1  0
 12 19  2  0
 13 18  1  0
 13 14  2  0
 14 15  1  0
 14 28  1  0
 15 16  2  0
 16 17  1  0
 16 29  1  0
 17 18  2  0
 17 30  1  0
 19 20  1  0
M  END
>  <i_m_ct_stereo_status>  (295) 
1

>  <s_m_source_file>  (295) 
/var/tmp/pbs.5076255.sched01/tmpjgl1obm9/123zpz496x9.sdf

>  <i_m_source_file_index>  (295) 
1

>  <i_lp_mmshare_version>  (295) 
48012

>  <i_f3d_flags>  (295) 
0

>  <s_epik_input>  (295) 
W0NIM11bQ0gyXW4xbm5uYzFTW0NIMl1jMm5jKG5vMiktYzNbY0hdbltjSF1bY0hdbjM=

>  <s_epik_cmdline>  (295) 
J2VwaWtfcHl0aG9uJywgJy1waHQnLCAnMi4wJywgJy1waCcsICc3LjAnLCAnLXRuJywgJzgnLCAnLW1hJywgJzIwMCcsICctaW1hZScsICc8aW5maWxlLm1hZT4nLCAnLW9tYWUnLCAnPG91dGZpbGUubWFlPic=

>  <r_lp_tautomer_probability>  (295) 
1

>  <r_epik_Ionization_Penalty>  (295) 
8.46794e-09

>  <r_epik_Ionization_Penalty_Charging>  (295) 
0

>  <r_epik_Ionization_Penalty_Neutral>  (295) 
8.46794e-09

>  <r_epik_State_Penalty>  (295) 
-0

>  <r_epik_Charging_Adjusted_Penalty>  (295) 
0

>  <i_epik_Tot_Q>  (295) 
0

>  <i_epik_Tot_abs_Q>  (295) 
0

>  <s_lp_Force_Field>  (295) 
OPLS3e

>  <r_lp_Energy>  (295) 
18.5264

>  <b_lp_Chiralities_Consistent>  (295) 
1

>  <s_lp_Variant>  (295) 
89:0-1

>  <s_i_glide_gridfile>  (295) 
pfpi4k_grid

>  <i_i_glide_lignum>  (295) 
1

>  <i_i_glide_rotatable_bonds>  (295) 
5

>  <r_i_docking_score>  (295) 
-2.88645

>  <r_i_glide_ligand_efficiency>  (295) 
-0.144322

>  <r_i_glide_ligand_efficiency_sa>  (295) 
-0.391751

>  <r_i_glide_ligand_efficiency_ln>  (295) 
-0.722382

>  <r_i_glide_gscore>  (295) 
-2.88645

>  <r_i_glide_lipo>  (295) 
-0.200699

>  <r_i_glide_hbond>  (295) 
-0.0742485

>  <r_i_glide_metal>  (295) 
-0

>  <r_i_glide_rewards>  (295) 
-1.48481

>  <r_i_glide_evdw>  (295) 
-28.9978

>  <r_i_glide_ecoul>  (295) 
-3.36852

>  <r_i_glide_erotb>  (295) 
0.864901

>  <r_i_glide_esite>  (295) 
-0.0364205

>  <r_i_glide_emodel>  (295) 
-36.8547

>  <r_i_glide_energy>  (295) 
-32.3663

>  <r_i_glide_einternal>  (295) 
3.14265

>  <r_i_glide_intrahb_reward>  (295) 
-0

>  <i_i_glide_confnum>  (295) 
1

>  <i_i_glide_posenum>  (295) 
3

>  <r_i_glide_eff_state_penalty>  (295) 
0

>  <ligand_id>  (295) 
89

>  <original_smiles>  (295) 
CCn1nnnc1SCc1nc(-c2cnccn2)no1

>  <smiles>  (295) 
[H]c1nc([H])c(-c2noc(C([H])([H])Sc3nnnn3C([H])([H])C([H])([H])[H])n2)nc1[H]

$$$$
89:0:2
     RDKit          3D

 30 32  0  0  1  0  0  0  0  0999 V2000
    4.3999   -4.4318   -4.3482 C   0  0  0  0  0  0  0  0  0  0  0  0
    3.2317   -3.5129   -3.9337 C   0  0  0  0  0  0  0  0  0  0  0  0
    3.7163   -2.2624   -3.3851 N   0  0  0  0  0  0  0  0  0  0  0  0
    3.4725   -1.1091   -4.0441 N   0  0  0  0  0  0  0  0  0  0  0  0
    4.0469   -0.1634   -3.3760 N   0  0  0  0  0  0  0  0  0  0  0  0
    4.7011   -0.6587   -2.2698 N   0  0  0  0  0  0  0  0  0  0  0  0
    4.4572   -1.9586   -2.3046 C   0  0  0  0  0  0  0  0  0  0  0  0
    5.1267   -3.1268   -1.1571 S   0  0  0  0  0  0  0  0  0  0  0  0
    3.5853   -3.8185   -0.4885 C   0  0  0  0  0  0  0  0  0  0  0  0
    3.1536   -3.0520    0.7046 C   0  0  0  0  0  0  0  0  0  0  0  0
    3.1092   -1.7276    0.8278 N   0  0  0  0  0  0  0  0  0  0  0  0
    2.5210   -1.6149    2.0448 C   0  0  0  0  0  0  0  0  0  0  0  0
    2.2678   -0.2963    2.6742 C   0  0  0  0  0  0  0  0  0  0  0  0
    1.9235   -0.1580    4.0375 C   0  0  0  0  0  0  0  0  0  0  0  0
    1.6958    1.0476    4.6134 N   0  0  0  0  0  0  0  0  0  0  0  0
    1.8059    2.1242    3.8050 C   0  0  0  0  0  0  0  0  0  0  0  0
    2.1428    1.9998    2.4456 C   0  0  0  0  0  0  0  0  0  0  0  0
    2.3846    0.7972    1.8779 N   0  0  0  0  0  0  0  0  0  0  0  0
    2.2549   -2.7454    2.6911 N   0  0  0  0  0  0  0  0  0  0  0  0
    2.6543   -3.7236    1.7681 O   0  0  0  0  0  0  0  0  0  0  0  0
    4.0493   -5.3893   -4.7277 H   0  0  0  0  0  0  0  0  0  0  0  0
    5.0429   -4.6587   -3.4998 H   0  0  0  0  0  0  0  0  0  0  0  0
    5.0192   -3.9789   -5.1198 H   0  0  0  0  0  0  0  0  0  0  0  0
    2.5763   -3.2890   -4.7711 H   0  0  0  0  0  0  0  0  0  0  0  0
    2.5573   -3.9937   -3.2320 H   0  0  0  0  0  0  0  0  0  0  0  0
    2.7498   -3.7860   -1.1829 H   0  0  0  0  0  0  0  0  0  0  0  0
    3.7497   -4.8662   -0.2276 H   0  0  0  0  0  0  0  0  0  0  0  0
    1.8353   -1.0127    4.6920 H   0  0  0  0  0  0  0  0  0  0  0  0
    1.6207    3.0941    4.2434 H   0  0  0  0  0  0  0  0  0  0  0  0
    2.2090    2.8637    1.8040 H   0  0  0  0  0  0  0  0  0  0  0  0
  1  2  1  0
  1 21  1  0
  1 22  1  0
  1 23  1  0
  2  3  1  0
  2 24  1  0
  2 25  1  0
  3  7  1  0
  3  4  1  0
  4  5  2  0
  5  6  1  0
  6  7  2  0
  7  8  1  0
  8  9  1  0
  9 10  1  0
  9 26  1  0
  9 27  1  0
 10 20  1  0
 10 11  2  0
 11 12  1  0
 12 13  1  0
 12 19  2  0
 13 18  1  0
 13 14  2  0
 14 15  1  0
 14 28  1  0
 15 16  2  0
 16 17  1  0
 16 29  1  0
 17 18  2  0
 17 30  1  0
 19 20  1  0
M  END
>  <i_m_ct_stereo_status>  (296) 
1

>  <s_m_source_file>  (296) 
/var/tmp/pbs.5076255.sched01/tmpjgl1obm9/123zpz496x9.sdf

>  <i_m_source_file_index>  (296) 
1

>  <i_lp_mmshare_version>  (296) 
48012

>  <i_f3d_flags>  (296) 
0

>  <s_epik_input>  (296) 
W0NIM11bQ0gyXW4xbm5uYzFTW0NIMl1jMm5jKG5vMiktYzNbY0hdbltjSF1bY0hdbjM=

>  <s_epik_cmdline>  (296) 
J2VwaWtfcHl0aG9uJywgJy1waHQnLCAnMi4wJywgJy1waCcsICc3LjAnLCAnLXRuJywgJzgnLCAnLW1hJywgJzIwMCcsICctaW1hZScsICc8aW5maWxlLm1hZT4nLCAnLW9tYWUnLCAnPG91dGZpbGUubWFlPic=

>  <r_lp_tautomer_probability>  (296) 
1

>  <r_epik_Ionization_Penalty>  (296) 
8.46794e-09

>  <r_epik_Ionization_Penalty_Charging>  (296) 
0

>  <r_epik_Ionization_Penalty_Neutral>  (296) 
8.46794e-09

>  <r_epik_State_Penalty>  (296) 
-0

>  <r_epik_Charging_Adjusted_Penalty>  (296) 
0

>  <i_epik_Tot_Q>  (296) 
0

>  <i_epik_Tot_abs_Q>  (296) 
0

>  <s_lp_Force_Field>  (296) 
OPLS3e

>  <r_lp_Energy>  (296) 
18.5264

>  <b_lp_Chiralities_Consistent>  (296) 
1

>  <s_lp_Variant>  (296) 
89:0-1

>  <s_i_glide_gridfile>  (296) 
pfpi4k_grid

>  <i_i_glide_lignum>  (296) 
1

>  <i_i_glide_rotatable_bonds>  (296) 
5

>  <r_i_docking_score>  (296) 
-2.69783

>  <r_i_glide_ligand_efficiency>  (296) 
-0.134892

>  <r_i_glide_ligand_efficiency_sa>  (296) 
-0.366152

>  <r_i_glide_ligand_efficiency_ln>  (296) 
-0.675178

>  <r_i_glide_gscore>  (296) 
-2.69783

>  <r_i_glide_lipo>  (296) 
-0.110373

>  <r_i_glide_hbond>  (296) 
0

>  <r_i_glide_metal>  (296) 
-0

>  <r_i_glide_rewards>  (296) 
-1.66948

>  <r_i_glide_evdw>  (296) 
-29.3477

>  <r_i_glide_ecoul>  (296) 
-1.61271

>  <r_i_glide_erotb>  (296) 
0.864901

>  <r_i_glide_esite>  (296) 
-0.0735854

>  <r_i_glide_emodel>  (296) 
-34.7649

>  <r_i_glide_energy>  (296) 
-30.9604

>  <r_i_glide_einternal>  (296) 
3.32328

>  <r_i_glide_intrahb_reward>  (296) 
-0

>  <i_i_glide_confnum>  (296) 
6

>  <i_i_glide_posenum>  (296) 
26

>  <r_i_glide_eff_state_penalty>  (296) 
0

>  <ligand_id>  (296) 
89

>  <original_smiles>  (296) 
CCn1nnnc1SCc1nc(-c2cnccn2)no1

>  <smiles>  (296) 
[H]c1nc([H])c(-c2noc(C([H])([H])Sc3nnnn3C([H])([H])C([H])([H])[H])n2)nc1[H]

$$$$
90:0:0
     RDKit          3D

 55 60  0  0  1  0  0  0  0  0999 V2000
    8.5537   -4.0672    0.4098 O   0  0  0  0  0  0  0  0  0  0  0  0
    7.4260   -3.7176    0.0597 C   0  0  0  0  0  0  0  0  0  0  0  0
    7.1556   -2.3664   -0.2229 N   0  0  0  0  0  0  0  0  0  0  0  0
    6.2006   -2.1251   -1.0239 C   0  0  0  0  0  0  0  0  0  0  0  0
    6.0346   -2.9349   -2.2788 C   0  0  0  0  0  0  0  0  0  0  0  0
    4.8792   -3.8573   -1.9163 C   0  0  2  0  0  0  0  0  0  0  0  0
    3.6725   -3.0881   -2.0289 O   0  0  0  0  0  0  0  0  0  0  0  0
    3.7742   -1.7163   -1.6006 C   0  0  0  0  0  0  0  0  0  0  0  0
    4.8771   -1.5231   -0.5176 C   0  0  1  0  0  0  0  0  0  0  0  0
    4.4432   -2.2411    0.8059 C   0  0  1  0  0  0  0  0  0  0  0  0
    3.2886   -1.5273    1.5020 C   0  0  0  0  0  0  0  0  0  0  0  0
    3.3365   -1.0956    2.7760 C   0  0  0  0  0  0  0  0  0  0  0  0
    2.2632   -0.4105    3.5184 C   0  0  0  0  0  0  0  0  0  0  0  0
    1.0546   -0.0060    2.9104 C   0  0  0  0  0  0  0  0  0  0  0  0
    0.0467    0.6171    3.6735 C   0  0  0  0  0  0  0  0  0  0  0  0
    0.2080    0.8437    5.0600 C   0  0  0  0  0  0  0  0  0  0  0  0
   -0.8517    1.5085    5.8536 C   0  0  0  0  0  0  0  0  0  0  0  0
   -1.7389    2.4448    5.2830 C   0  0  0  0  0  0  0  0  0  0  0  0
   -2.7180    3.0387    6.0954 C   0  0  0  0  0  0  0  0  0  0  0  0
   -2.7833    2.6960    7.4545 C   0  0  0  0  0  0  0  0  0  0  0  0
   -1.8490    1.7678    7.9430 C   0  0  0  0  0  0  0  0  0  0  0  0
   -0.9287    1.1632    7.1632 N   0  0  0  0  0  0  0  0  0  0  0  0
    1.4235    0.4390    5.6570 C   0  0  0  0  0  0  0  0  0  0  0  0
    2.4349   -0.1841    4.8983 C   0  0  0  0  0  0  0  0  0  0  0  0
    4.1171   -3.7615    0.6070 C   0  0  2  0  0  0  0  0  0  0  0  0
    4.1660   -4.5658    1.9354 C   0  0  0  0  0  0  0  0  0  0  0  0
    5.5875   -4.9961    2.3580 C   0  0  0  0  0  0  0  0  0  0  0  0
    6.3555   -5.6151    1.1760 C   0  0  0  0  0  0  0  0  0  0  0  0
    6.3776   -4.6153    0.0959 N   0  0  0  0  0  0  0  0  0  0  0  0
    4.9922   -4.4882   -0.4659 C   0  0  2  0  0  0  0  0  0  0  0  0
    5.7935   -2.2954   -3.1229 H   0  0  0  0  0  0  0  0  0  0  0  0
    6.9454   -3.4728   -2.5441 H   0  0  0  0  0  0  0  0  0  0  0  0
    4.8372   -4.6577   -2.6547 H   0  0  0  0  0  0  0  0  0  0  0  0
    3.9878   -1.0858   -2.4654 H   0  0  0  0  0  0  0  0  0  0  0  0
    2.7986   -1.3912   -1.2559 H   0  0  0  0  0  0  0  0  0  0  0  0
    5.0234   -0.4600   -0.3294 H   0  0  0  0  0  0  0  0  0  0  0  0
    5.2764   -2.1687    1.5054 H   0  0  0  0  0  0  0  0  0  0  0  0
    2.3941   -1.3828    0.9154 H   0  0  0  0  0  0  0  0  0  0  0  0
    4.2509   -1.2630    3.3244 H   0  0  0  0  0  0  0  0  0  0  0  0
    0.8812   -0.1572    1.8542 H   0  0  0  0  0  0  0  0  0  0  0  0
   -0.8625    0.9175    3.1762 H   0  0  0  0  0  0  0  0  0  0  0  0
   -1.6730    2.7122    4.2399 H   0  0  0  0  0  0  0  0  0  0  0  0
   -3.4220    3.7400    5.6790 H   0  0  0  0  0  0  0  0  0  0  0  0
   -3.5295    3.1286    8.1085 H   0  0  0  0  0  0  0  0  0  0  0  0
   -1.8608    1.4764    8.9836 H   0  0  0  0  0  0  0  0  0  0  0  0
    1.5918    0.6060    6.7098 H   0  0  0  0  0  0  0  0  0  0  0  0
    3.3469   -0.4910    5.3881 H   0  0  0  0  0  0  0  0  0  0  0  0
    3.0854   -3.8219    0.2601 H   0  0  0  0  0  0  0  0  0  0  0  0
    3.7011   -4.0059    2.7438 H   0  0  0  0  0  0  0  0  0  0  0  0
    3.5702   -5.4708    1.8141 H   0  0  0  0  0  0  0  0  0  0  0  0
    6.1407   -4.1387    2.7399 H   0  0  0  0  0  0  0  0  0  0  0  0
    5.5329   -5.7060    3.1825 H   0  0  0  0  0  0  0  0  0  0  0  0
    7.3538   -5.9154    1.4941 H   0  0  0  0  0  0  0  0  0  0  0  0
    5.8640   -6.5364    0.8570 H   0  0  0  0  0  0  0  0  0  0  0  0
    4.5785   -5.4936   -0.5800 H   0  0  0  0  0  0  0  0  0  0  0  0
  1  2  2  0
  2 29  1  0
  2  3  1  0
  3  4  2  0
  4  9  1  0
  4  5  1  0
  5  6  1  0
  5 31  1  0
  5 32  1  0
  6 30  1  0
  6  7  1  0
  6 33  1  6
  7  8  1  0
  8  9  1  0
  8 34  1  0
  8 35  1  0
  9 10  1  0
  9 36  1  1
 10 11  1  0
 10 25  1  0
 10 37  1  1
 11 12  2  3
 11 38  1  0
 12 13  1  0
 12 39  1  0
 13 24  1  0
 13 14  2  0
 14 15  1  0
 14 40  1  0
 15 16  2  0
 15 41  1  0
 16 17  1  0
 16 23  1  0
 17 22  1  0
 17 18  2  0
 18 19  1  0
 18 42  1  0
 19 20  2  0
 19 43  1  0
 20 21  1  0
 20 44  1  0
 21 22  2  0
 21 45  1  0
 23 24  2  0
 23 46  1  0
 24 47  1  0
 25 30  1  0
 25 26  1  0
 25 48  1  6
 26 27  1  0
 26 49  1  0
 26 50  1  0
 27 28  1  0
 27 51  1  0
 27 52  1  0
 28 29  1  0
 28 53  1  0
 28 54  1  0
 29 30  1  0
 30 55  1  6
M  END
>  <i_m_ct_stereo_status>  (297) 
1

>  <s_m_source_file>  (297) 
/var/tmp/pbs.5076255.sched01/tmpjgl1obm9/123zpz496x9.sdf

>  <i_m_source_file_index>  (297) 
2

>  <i_lp_mmshare_version>  (297) 
48012

>  <i_f3d_flags>  (297) 
0

>  <s_epik_input>  (297) 
Tz1DKE49MSlOMltDSDJdW0NIMl1bQ0gyXVtDQEhdKFtDQEhdMltDQEhdKFtDSDJdMylPW0NIMl1bQ0BASF00QzEzKVtDQEBIXTQvW0NIXT1bQ0hdL2M1W2NIXVtjSF1jKFtjSF1bY0hdNSktYzZbY0hdW2NIXVtjSF1bY0hdbjY=

>  <s_epik_cmdline>  (297) 
J2VwaWtfcHl0aG9uJywgJy1waHQnLCAnMi4wJywgJy1waCcsICc3LjAnLCAnLXRuJywgJzgnLCAnLW1hJywgJzIwMCcsICctaW1hZScsICc8aW5maWxlLm1hZT4nLCAnLW9tYWUnLCAnPG91dGZpbGUubWFlPic=

>  <r_epik_Ionization_Penalty>  (297) 
0.00212797

>  <r_epik_Ionization_Penalty_Charging>  (297) 
0

>  <r_epik_Ionization_Penalty_Neutral>  (297) 
0.00212797

>  <r_epik_State_Penalty>  (297) 
0.00145973

>  <r_epik_Charging_Adjusted_Penalty>  (297) 
0.00145973

>  <i_epik_Tot_Q>  (297) 
0

>  <i_epik_Tot_abs_Q>  (297) 
0

>  <s_epik_Chemistry_Notes>  (297) 
This compound has an imine and may undergo hydrolysis.

>  <s_lp_Force_Field>  (297) 
OPLS3e

>  <r_lp_Energy>  (297) 
93.6679

>  <b_lp_Chiralities_Consistent>  (297) 
1

>  <s_lp_Variant>  (297) 
90:0-1

>  <s_i_glide_gridfile>  (297) 
pfpi4k_grid

>  <i_i_glide_lignum>  (297) 
2

>  <i_i_glide_rotatable_bonds>  (297) 
3

>  <r_i_docking_score>  (297) 
-3.23057

>  <r_i_glide_ligand_efficiency>  (297) 
-0.107686

>  <r_i_glide_ligand_efficiency_sa>  (297) 
-0.334605

>  <r_i_glide_ligand_efficiency_ln>  (297) 
-0.734021

>  <r_i_glide_gscore>  (297) 
-3.23057

>  <r_i_glide_lipo>  (297) 
-0.597585

>  <r_i_glide_hbond>  (297) 
-0.0295345

>  <r_i_glide_metal>  (297) 
-0

>  <r_i_glide_rewards>  (297) 
-1.00794

>  <r_i_glide_evdw>  (297) 
-32.806

>  <r_i_glide_ecoul>  (297) 
-1.8374

>  <r_i_glide_erotb>  (297) 
0.368353

>  <r_i_glide_esite>  (297) 
-0.0479533

>  <r_i_glide_emodel>  (297) 
-41.4436

>  <r_i_glide_energy>  (297) 
-34.6434

>  <r_i_glide_einternal>  (297) 
0.338599

>  <r_i_glide_intrahb_reward>  (297) 
-0

>  <i_i_glide_confnum>  (297) 
1

>  <i_i_glide_posenum>  (297) 
37

>  <r_i_glide_eff_state_penalty>  (297) 
0

>  <ligand_id>  (297) 
90

>  <original_smiles>  (297) 
O=C1N=C2CC3OCC2C(C=Cc2ccc(-c4ccccn4)cc2)C2CCCN1C32

>  <smiles>  (297) 
[H]C(=C([H])C1([H])C2([H])C3=NC(=O)N4C([H])([H])C([H])([H])C([H])([H])C1([H])C4([H])C([H])(OC2([H])[H])C3([H])[H])c1c([H])c([H])c(-c2nc([H])c([H])c([H])c2[H])c([H])c1[H]

$$$$
90:0:1
     RDKit          3D

 55 60  0  0  1  0  0  0  0  0999 V2000
    8.5647   -4.1677    0.4004 O   0  0  0  0  0  0  0  0  0  0  0  0
    7.4354   -3.7954    0.0877 C   0  0  0  0  0  0  0  0  0  0  0  0
    7.1772   -2.4354   -0.1540 N   0  0  0  0  0  0  0  0  0  0  0  0
    6.2014   -2.1607   -0.9137 C   0  0  0  0  0  0  0  0  0  0  0  0
    5.9800   -2.9387   -2.1817 C   0  0  0  0  0  0  0  0  0  0  0  0
    4.8258   -3.8593   -1.8022 C   0  0  2  0  0  0  0  0  0  0  0  0
    3.6245   -3.0775   -1.8504 O   0  0  0  0  0  0  0  0  0  0  0  0
    3.7616   -1.7193   -1.3892 C   0  0  0  0  0  0  0  0  0  0  0  0
    4.9019   -1.5665   -0.3425 C   0  0  1  0  0  0  0  0  0  0  0  0
    4.5140   -2.3170    0.9800 C   0  0  1  0  0  0  0  0  0  0  0  0
    3.3982   -1.6127    1.7366 C   0  0  0  0  0  0  0  0  0  0  0  0
    3.5024   -1.1401    2.9950 C   0  0  0  0  0  0  0  0  0  0  0  0
    2.4353   -0.4447    3.7395 C   0  0  0  0  0  0  0  0  0  0  0  0
    2.5968   -0.1842    5.1172 C   0  0  0  0  0  0  0  0  0  0  0  0
    1.5799    0.4688    5.8470 C   0  0  0  0  0  0  0  0  0  0  0  0
    0.3720    0.8728    5.2298 C   0  0  0  0  0  0  0  0  0  0  0  0
   -0.7027    1.5576    5.9948 C   0  0  0  0  0  0  0  0  0  0  0  0
   -0.8200    1.4535    7.4006 C   0  0  0  0  0  0  0  0  0  0  0  0
   -1.8545    2.1440    8.0596 C   0  0  0  0  0  0  0  0  0  0  0  0
   -2.7590    2.8944    7.2941 C   0  0  0  0  0  0  0  0  0  0  0  0
   -2.5726    2.9435    5.9000 C   0  0  0  0  0  0  0  0  0  0  0  0
   -1.5769    2.2929    5.2702 N   0  0  0  0  0  0  0  0  0  0  0  0
    0.2184    0.5935    3.8520 C   0  0  0  0  0  0  0  0  0  0  0  0
    1.2289   -0.0531    3.1180 C   0  0  0  0  0  0  0  0  0  0  0  0
    4.1460   -3.8222    0.7478 C   0  0  2  0  0  0  0  0  0  0  0  0
    4.2207   -4.6646    2.0509 C   0  0  0  0  0  0  0  0  0  0  0  0
    5.6479   -5.1175    2.4177 C   0  0  0  0  0  0  0  0  0  0  0  0
    6.3750   -5.7079    1.1960 C   0  0  0  0  0  0  0  0  0  0  0  0
    6.3751   -4.6789    0.1433 N   0  0  0  0  0  0  0  0  0  0  0  0
    4.9766   -4.5278   -0.3728 C   0  0  2  0  0  0  0  0  0  0  0  0
    5.7203   -2.2793   -3.0073 H   0  0  0  0  0  0  0  0  0  0  0  0
    6.8771   -3.4818   -2.4861 H   0  0  0  0  0  0  0  0  0  0  0  0
    4.7507   -4.6419   -2.5560 H   0  0  0  0  0  0  0  0  0  0  0  0
    3.9497   -1.0697   -2.2456 H   0  0  0  0  0  0  0  0  0  0  0  0
    2.8078   -1.3937   -0.9905 H   0  0  0  0  0  0  0  0  0  0  0  0
    5.0619   -0.5100   -0.1338 H   0  0  0  0  0  0  0  0  0  0  0  0
    5.3707   -2.2729    1.6521 H   0  0  0  0  0  0  0  0  0  0  0  0
    2.4737   -1.5111    1.1936 H   0  0  0  0  0  0  0  0  0  0  0  0
    4.4460   -1.2677    3.5098 H   0  0  0  0  0  0  0  0  0  0  0  0
    3.5020   -0.4835    5.6258 H   0  0  0  0  0  0  0  0  0  0  0  0
    1.7507    0.6625    6.8941 H   0  0  0  0  0  0  0  0  0  0  0  0
   -0.1249    0.8691    7.9771 H   0  0  0  0  0  0  0  0  0  0  0  0
   -1.9569    2.0894    9.1347 H   0  0  0  0  0  0  0  0  0  0  0  0
   -3.5730    3.4241    7.7672 H   0  0  0  0  0  0  0  0  0  0  0  0
   -3.2493    3.5024    5.2700 H   0  0  0  0  0  0  0  0  0  0  0  0
   -0.6809    0.8801    3.3307 H   0  0  0  0  0  0  0  0  0  0  0  0
    1.0481   -0.2211    2.0685 H   0  0  0  0  0  0  0  0  0  0  0  0
    3.1020   -3.8568    0.4337 H   0  0  0  0  0  0  0  0  0  0  0  0
    3.7941   -4.1173    2.8879 H   0  0  0  0  0  0  0  0  0  0  0  0
    3.6110   -5.5590    1.9252 H   0  0  0  0  0  0  0  0  0  0  0  0
    6.2112   -4.2691    2.8042 H   0  0  0  0  0  0  0  0  0  0  0  0
    5.6168   -5.8495    3.2232 H   0  0  0  0  0  0  0  0  0  0  0  0
    7.3800   -6.0241    1.4759 H   0  0  0  0  0  0  0  0  0  0  0  0
    5.8667   -6.6180    0.8667 H   0  0  0  0  0  0  0  0  0  0  0  0
    4.5461   -5.5251   -0.4968 H   0  0  0  0  0  0  0  0  0  0  0  0
  1  2  2  0
  2 29  1  0
  2  3  1  0
  3  4  2  0
  4  9  1  0
  4  5  1  0
  5  6  1  0
  5 31  1  0
  5 32  1  0
  6 30  1  0
  6  7  1  0
  6 33  1  6
  7  8  1  0
  8  9  1  0
  8 34  1  0
  8 35  1  0
  9 10  1  0
  9 36  1  1
 10 11  1  0
 10 25  1  0
 10 37  1  1
 11 12  2  3
 11 38  1  0
 12 13  1  0
 12 39  1  0
 13 24  1  0
 13 14  2  0
 14 15  1  0
 14 40  1  0
 15 16  2  0
 15 41  1  0
 16 17  1  0
 16 23  1  0
 17 22  1  0
 17 18  2  0
 18 19  1  0
 18 42  1  0
 19 20  2  0
 19 43  1  0
 20 21  1  0
 20 44  1  0
 21 22  2  0
 21 45  1  0
 23 24  2  0
 23 46  1  0
 24 47  1  0
 25 30  1  0
 25 26  1  0
 25 48  1  6
 26 27  1  0
 26 49  1  0
 26 50  1  0
 27 28  1  0
 27 51  1  0
 27 52  1  0
 28 29  1  0
 28 53  1  0
 28 54  1  0
 29 30  1  0
 30 55  1  6
M  END
>  <i_m_ct_stereo_status>  (298) 
1

>  <s_m_source_file>  (298) 
/var/tmp/pbs.5076255.sched01/tmpjgl1obm9/123zpz496x9.sdf

>  <i_m_source_file_index>  (298) 
2

>  <i_lp_mmshare_version>  (298) 
48012

>  <i_f3d_flags>  (298) 
0

>  <s_epik_input>  (298) 
Tz1DKE49MSlOMltDSDJdW0NIMl1bQ0gyXVtDQEhdKFtDQEhdMltDQEhdKFtDSDJdMylPW0NIMl1bQ0BASF00QzEzKVtDQEBIXTQvW0NIXT1bQ0hdL2M1W2NIXVtjSF1jKFtjSF1bY0hdNSktYzZbY0hdW2NIXVtjSF1bY0hdbjY=

>  <s_epik_cmdline>  (298) 
J2VwaWtfcHl0aG9uJywgJy1waHQnLCAnMi4wJywgJy1waCcsICc3LjAnLCAnLXRuJywgJzgnLCAnLW1hJywgJzIwMCcsICctaW1hZScsICc8aW5maWxlLm1hZT4nLCAnLW9tYWUnLCAnPG91dGZpbGUubWFlPic=

>  <r_epik_Ionization_Penalty>  (298) 
0.00212797

>  <r_epik_Ionization_Penalty_Charging>  (298) 
0

>  <r_epik_Ionization_Penalty_Neutral>  (298) 
0.00212797

>  <r_epik_State_Penalty>  (298) 
0.00145973

>  <r_epik_Charging_Adjusted_Penalty>  (298) 
0.00145973

>  <i_epik_Tot_Q>  (298) 
0

>  <i_epik_Tot_abs_Q>  (298) 
0

>  <s_epik_Chemistry_Notes>  (298) 
This compound has an imine and may undergo hydrolysis.

>  <s_lp_Force_Field>  (298) 
OPLS3e

>  <r_lp_Energy>  (298) 
93.6679

>  <b_lp_Chiralities_Consistent>  (298) 
1

>  <s_lp_Variant>  (298) 
90:0-1

>  <s_i_glide_gridfile>  (298) 
pfpi4k_grid

>  <i_i_glide_lignum>  (298) 
2

>  <i_i_glide_rotatable_bonds>  (298) 
3

>  <r_i_docking_score>  (298) 
-2.91991

>  <r_i_glide_ligand_efficiency>  (298) 
-0.0973305

>  <r_i_glide_ligand_efficiency_sa>  (298) 
-0.302428

>  <r_i_glide_ligand_efficiency_ln>  (298) 
-0.663436

>  <r_i_glide_gscore>  (298) 
-2.91991

>  <r_i_glide_lipo>  (298) 
-0.527843

>  <r_i_glide_hbond>  (298) 
0

>  <r_i_glide_metal>  (298) 
-0

>  <r_i_glide_rewards>  (298) 
-1.01213

>  <r_i_glide_evdw>  (298) 
-32.2363

>  <r_i_glide_ecoul>  (298) 
-0.618517

>  <r_i_glide_erotb>  (298) 
0.368353

>  <r_i_glide_esite>  (298) 
-0.0437006

>  <r_i_glide_emodel>  (298) 
-38.6771

>  <r_i_glide_energy>  (298) 
-32.8548

>  <r_i_glide_einternal>  (298) 
0.909821

>  <r_i_glide_intrahb_reward>  (298) 
-0

>  <i_i_glide_confnum>  (298) 
5

>  <i_i_glide_posenum>  (298) 
24

>  <r_i_glide_eff_state_penalty>  (298) 
0

>  <ligand_id>  (298) 
90

>  <original_smiles>  (298) 
O=C1N=C2CC3OCC2C(C=Cc2ccc(-c4ccccn4)cc2)C2CCCN1C32

>  <smiles>  (298) 
[H]C(=C([H])C1([H])C2([H])C3=NC(=O)N4C([H])([H])C([H])([H])C([H])([H])C1([H])C4([H])C([H])(OC2([H])[H])C3([H])[H])c1c([H])c([H])c(-c2nc([H])c([H])c([H])c2[H])c([H])c1[H]

$$$$
90:0:2
     RDKit          3D

 55 60  0  0  1  0  0  0  0  0999 V2000
    8.5438   -4.4245    0.7323 O   0  0  0  0  0  0  0  0  0  0  0  0
    7.4484   -3.9617    0.4166 C   0  0  0  0  0  0  0  0  0  0  0  0
    7.3006   -2.5830    0.1848 N   0  0  0  0  0  0  0  0  0  0  0  0
    6.3601   -2.2218   -0.5866 C   0  0  0  0  0  0  0  0  0  0  0  0
    6.0930   -2.9631   -1.8665 C   0  0  0  0  0  0  0  0  0  0  0  0
    4.8642   -3.7969   -1.5079 C   0  0  2  0  0  0  0  0  0  0  0  0
    3.7283   -2.9174   -1.5572 O   0  0  0  0  0  0  0  0  0  0  0  0
    3.9579   -1.5741   -1.0784 C   0  0  0  0  0  0  0  0  0  0  0  0
    5.1076   -1.5219   -0.0254 C   0  0  1  0  0  0  0  0  0  0  0  0
    4.6518   -2.2432    1.2873 C   0  0  1  0  0  0  0  0  0  0  0  0
    3.5938   -1.4438    2.0329 C   0  0  0  0  0  0  0  0  0  0  0  0
    3.7721   -0.8644    3.2377 C   0  0  0  0  0  0  0  0  0  0  0  0
    2.7433   -0.1241    3.9973 C   0  0  0  0  0  0  0  0  0  0  0  0
    3.1073    0.6238    5.1383 C   0  0  0  0  0  0  0  0  0  0  0  0
    2.1324    1.3413    5.8680 C   0  0  0  0  0  0  0  0  0  0  0  0
    0.7711    1.3261    5.4826 C   0  0  0  0  0  0  0  0  0  0  0  0
   -0.2498    2.0847    6.2400 C   0  0  0  0  0  0  0  0  0  0  0  0
    0.0187    3.3580    6.7871 C   0  0  0  0  0  0  0  0  0  0  0  0
   -0.9940    4.0313    7.4933 C   0  0  0  0  0  0  0  0  0  0  0  0
   -2.2497    3.4115    7.6255 C   0  0  0  0  0  0  0  0  0  0  0  0
   -2.4289    2.1446    7.0471 C   0  0  0  0  0  0  0  0  0  0  0  0
   -1.4576    1.4860    6.3796 N   0  0  0  0  0  0  0  0  0  0  0  0
    0.4188    0.5815    4.3376 C   0  0  0  0  0  0  0  0  0  0  0  0
    1.3856   -0.1318    3.6044 C   0  0  0  0  0  0  0  0  0  0  0  0
    4.1664   -3.7154    1.0391 C   0  0  2  0  0  0  0  0  0  0  0  0
    4.1570   -4.5686    2.3362 C   0  0  0  0  0  0  0  0  0  0  0  0
    5.5379   -5.1458    2.7126 C   0  0  0  0  0  0  0  0  0  0  0  0
    6.2246   -5.7901    1.4937 C   0  0  0  0  0  0  0  0  0  0  0  0
    6.3230   -4.7606    0.4466 N   0  0  0  0  0  0  0  0  0  0  0  0
    4.9462   -4.4841   -0.0803 C   0  0  2  0  0  0  0  0  0  0  0  0
    5.9039   -2.2736   -2.6874 H   0  0  0  0  0  0  0  0  0  0  0  0
    6.9495   -3.5693   -2.1645 H   0  0  0  0  0  0  0  0  0  0  0  0
    4.7340   -4.5632   -2.2700 H   0  0  0  0  0  0  0  0  0  0  0  0
    4.2156   -0.9362   -1.9260 H   0  0  0  0  0  0  0  0  0  0  0  0
    3.0213   -1.1665   -0.6955 H   0  0  0  0  0  0  0  0  0  0  0  0
    5.3561   -0.4826    0.1942 H   0  0  0  0  0  0  0  0  0  0  0  0
    5.5022   -2.2761    1.9681 H   0  0  0  0  0  0  0  0  0  0  0  0
    2.6465   -1.3663    1.5262 H   0  0  0  0  0  0  0  0  0  0  0  0
    4.7443   -0.9534    3.7039 H   0  0  0  0  0  0  0  0  0  0  0  0
    4.1379    0.6500    5.4636 H   0  0  0  0  0  0  0  0  0  0  0  0
    2.4332    1.9048    6.7370 H   0  0  0  0  0  0  0  0  0  0  0  0
    0.9860    3.8163    6.6554 H   0  0  0  0  0  0  0  0  0  0  0  0
   -0.8156    5.0063    7.9247 H   0  0  0  0  0  0  0  0  0  0  0  0
   -3.0574    3.8875    8.1657 H   0  0  0  0  0  0  0  0  0  0  0  0
   -3.3760    1.6323    7.1338 H   0  0  0  0  0  0  0  0  0  0  0  0
   -0.6060    0.5599    4.0025 H   0  0  0  0  0  0  0  0  0  0  0  0
    1.0516   -0.6833    2.7417 H   0  0  0  0  0  0  0  0  0  0  0  0
    3.1268   -3.6632    0.7136 H   0  0  0  0  0  0  0  0  0  0  0  0
    3.7634   -3.9940    3.1716 H   0  0  0  0  0  0  0  0  0  0  0  0
    3.4758   -5.4072    2.1962 H   0  0  0  0  0  0  0  0  0  0  0  0
    6.1762   -4.3586    3.1108 H   0  0  0  0  0  0  0  0  0  0  0  0
    5.4319   -5.8774    3.5124 H   0  0  0  0  0  0  0  0  0  0  0  0
    7.1966   -6.1906    1.7831 H   0  0  0  0  0  0  0  0  0  0  0  0
    5.6442   -6.6507    1.1535 H   0  0  0  0  0  0  0  0  0  0  0  0
    4.4339   -5.4405   -0.2168 H   0  0  0  0  0  0  0  0  0  0  0  0
  1  2  2  0
  2 29  1  0
  2  3  1  0
  3  4  2  0
  4  9  1  0
  4  5  1  0
  5  6  1  0
  5 31  1  0
  5 32  1  0
  6 30  1  0
  6  7  1  0
  6 33  1  6
  7  8  1  0
  8  9  1  0
  8 34  1  0
  8 35  1  0
  9 10  1  0
  9 36  1  1
 10 11  1  0
 10 25  1  0
 10 37  1  1
 11 12  2  3
 11 38  1  0
 12 13  1  0
 12 39  1  0
 13 24  1  0
 13 14  2  0
 14 15  1  0
 14 40  1  0
 15 16  2  0
 15 41  1  0
 16 17  1  0
 16 23  1  0
 17 22  1  0
 17 18  2  0
 18 19  1  0
 18 42  1  0
 19 20  2  0
 19 43  1  0
 20 21  1  0
 20 44  1  0
 21 22  2  0
 21 45  1  0
 23 24  2  0
 23 46  1  0
 24 47  1  0
 25 30  1  0
 25 26  1  0
 25 48  1  6
 26 27  1  0
 26 49  1  0
 26 50  1  0
 27 28  1  0
 27 51  1  0
 27 52  1  0
 28 29  1  0
 28 53  1  0
 28 54  1  0
 29 30  1  0
 30 55  1  6
M  END
>  <i_m_ct_stereo_status>  (299) 
1

>  <s_m_source_file>  (299) 
/var/tmp/pbs.5076255.sched01/tmpjgl1obm9/123zpz496x9.sdf

>  <i_m_source_file_index>  (299) 
2

>  <i_lp_mmshare_version>  (299) 
48012

>  <i_f3d_flags>  (299) 
0

>  <s_epik_input>  (299) 
Tz1DKE49MSlOMltDSDJdW0NIMl1bQ0gyXVtDQEhdKFtDQEhdMltDQEhdKFtDSDJdMylPW0NIMl1bQ0BASF00QzEzKVtDQEBIXTQvW0NIXT1bQ0hdL2M1W2NIXVtjSF1jKFtjSF1bY0hdNSktYzZbY0hdW2NIXVtjSF1bY0hdbjY=

>  <s_epik_cmdline>  (299) 
J2VwaWtfcHl0aG9uJywgJy1waHQnLCAnMi4wJywgJy1waCcsICc3LjAnLCAnLXRuJywgJzgnLCAnLW1hJywgJzIwMCcsICctaW1hZScsICc8aW5maWxlLm1hZT4nLCAnLW9tYWUnLCAnPG91dGZpbGUubWFlPic=

>  <r_epik_Ionization_Penalty>  (299) 
0.00212797

>  <r_epik_Ionization_Penalty_Charging>  (299) 
0

>  <r_epik_Ionization_Penalty_Neutral>  (299) 
0.00212797

>  <r_epik_State_Penalty>  (299) 
0.00145973

>  <r_epik_Charging_Adjusted_Penalty>  (299) 
0.00145973

>  <i_epik_Tot_Q>  (299) 
0

>  <i_epik_Tot_abs_Q>  (299) 
0

>  <s_epik_Chemistry_Notes>  (299) 
This compound has an imine and may undergo hydrolysis.

>  <s_lp_Force_Field>  (299) 
OPLS3e

>  <r_lp_Energy>  (299) 
93.6679

>  <b_lp_Chiralities_Consistent>  (299) 
1

>  <s_lp_Variant>  (299) 
90:0-1

>  <s_i_glide_gridfile>  (299) 
pfpi4k_grid

>  <i_i_glide_lignum>  (299) 
2

>  <i_i_glide_rotatable_bonds>  (299) 
3

>  <r_i_docking_score>  (299) 
-2.78627

>  <r_i_glide_ligand_efficiency>  (299) 
-0.0928758

>  <r_i_glide_ligand_efficiency_sa>  (299) 
-0.288587

>  <r_i_glide_ligand_efficiency_ln>  (299) 
-0.633072

>  <r_i_glide_gscore>  (299) 
-2.78627

>  <r_i_glide_lipo>  (299) 
-0.342862

>  <r_i_glide_hbond>  (299) 
0

>  <r_i_glide_metal>  (299) 
-0

>  <r_i_glide_rewards>  (299) 
-1.0658

>  <r_i_glide_evdw>  (299) 
-31.5155

>  <r_i_glide_ecoul>  (299) 
-0.88768

>  <r_i_glide_erotb>  (299) 
0.368353

>  <r_i_glide_esite>  (299) 
-0.0370382

>  <r_i_glide_emodel>  (299) 
-37.8494

>  <r_i_glide_energy>  (299) 
-32.4032

>  <r_i_glide_einternal>  (299) 
1.12454

>  <r_i_glide_intrahb_reward>  (299) 
-0

>  <i_i_glide_confnum>  (299) 
5

>  <i_i_glide_posenum>  (299) 
34

>  <r_i_glide_eff_state_penalty>  (299) 
0

>  <ligand_id>  (299) 
90

>  <original_smiles>  (299) 
O=C1N=C2CC3OCC2C(C=Cc2ccc(-c4ccccn4)cc2)C2CCCN1C32

>  <smiles>  (299) 
[H]C(=C([H])C1([H])C2([H])C3=NC(=O)N4C([H])([H])C([H])([H])C([H])([H])C1([H])C4([H])C([H])(OC2([H])[H])C3([H])[H])c1c([H])c([H])c(-c2nc([H])c([H])c([H])c2[H])c([H])c1[H]

$$$$
90:1:0
     RDKit          3D

 55 60  0  0  1  0  0  0  0  0999 V2000
   -0.0332   -6.6276    0.6811 O   0  0  0  0  0  0  0  0  0  0  0  0
    0.3404   -7.1608    1.7191 C   0  0  0  0  0  0  0  0  0  0  0  0
   -0.5419   -7.2768    2.8120 N   0  0  0  0  0  0  0  0  0  0  0  0
   -0.3784   -8.2415    3.6292 C   0  0  0  0  0  0  0  0  0  0  0  0
   -0.0090   -9.6073    3.1236 C   0  0  0  0  0  0  0  0  0  0  0  0
    1.5052   -9.6846    3.3614 C   0  0  2  0  0  0  0  0  0  0  0  0
    1.7019   -9.9459    4.7627 O   0  0  0  0  0  0  0  0  0  0  0  0
    0.7579   -9.3152    5.6543 C   0  0  0  0  0  0  0  0  0  0  0  0
    0.2106   -7.9900    5.0467 C   0  0  1  0  0  0  0  0  0  0  0  0
    1.3674   -6.9341    4.9688 C   0  0  1  0  0  0  0  0  0  0  0  0
    1.7758   -6.3787    6.3360 C   0  0  0  0  0  0  0  0  0  0  0  0
    1.7160   -5.0937    6.7678 C   0  0  0  0  0  0  0  0  0  0  0  0
    1.2616   -3.8551    6.0815 C   0  0  0  0  0  0  0  0  0  0  0  0
    1.2095   -3.7502    4.6718 C   0  0  0  0  0  0  0  0  0  0  0  0
    0.7334   -2.5966    4.0427 C   0  0  0  0  0  0  0  0  0  0  0  0
    0.3380   -1.4782    4.7908 C   0  0  0  0  0  0  0  0  0  0  0  0
   -0.1076   -0.2497    4.0970 C   0  0  0  0  0  0  0  0  0  0  0  0
    0.4225    0.1513    2.8490 C   0  0  0  0  0  0  0  0  0  0  0  0
   -0.0515    1.3268    2.2427 C   0  0  0  0  0  0  0  0  0  0  0  0
   -1.0441    2.0654    2.9156 C   0  0  0  0  0  0  0  0  0  0  0  0
   -1.5208    1.5893    4.1505 C   0  0  0  0  0  0  0  0  0  0  0  0
   -1.0745    0.4620    4.7287 N   0  0  0  0  0  0  0  0  0  0  0  0
    0.4106   -1.5537    6.2092 C   0  0  0  0  0  0  0  0  0  0  0  0
    0.8659   -2.7369    6.8441 C   0  0  0  0  0  0  0  0  0  0  0  0
    2.6270   -7.4305    4.1519 C   0  0  2  0  0  0  0  0  0  0  0  0
    3.5356   -6.2702    3.6568 C   0  0  0  0  0  0  0  0  0  0  0  0
    3.1107   -5.6071    2.3127 C   0  0  0  0  0  0  0  0  0  0  0  0
    2.7155   -6.6620    1.2792 C   0  0  0  0  0  0  0  0  0  0  0  0
    1.6637   -7.5169    1.8820 N   0  0  0  0  0  0  0  0  0  0  0  0
    2.2852   -8.3723    2.9467 C   0  0  2  0  0  0  0  0  0  0  0  0
   -0.5615  -10.3653    3.6682 H   0  0  0  0  0  0  0  0  0  0  0  0
   -0.2720   -9.7315    2.0761 H   0  0  0  0  0  0  0  0  0  0  0  0
    1.8995  -10.5261    2.8005 H   0  0  0  0  0  0  0  0  0  0  0  0
   -0.0705   -9.9913    5.8736 H   0  0  0  0  0  0  0  0  0  0  0  0
    1.2477   -9.1370    6.6144 H   0  0  0  0  0  0  0  0  0  0  0  0
   -0.5838   -7.5930    5.6704 H   0  0  0  0  0  0  0  0  0  0  0  0
    0.8780   -6.1508    4.4503 H   0  0  0  0  0  0  0  0  0  0  0  0
    2.1808   -7.1049    7.0354 H   0  0  0  0  0  0  0  0  0  0  0  0
    2.0656   -4.9426    7.7736 H   0  0  0  0  0  0  0  0  0  0  0  0
    1.5750   -4.5260    4.0539 H   0  0  0  0  0  0  0  0  0  0  0  0
    0.6905   -2.5784    2.9637 H   0  0  0  0  0  0  0  0  0  0  0  0
    1.1829   -0.4294    2.3475 H   0  0  0  0  0  0  0  0  0  0  0  0
    0.3282    1.6614    1.2862 H   0  0  0  0  0  0  0  0  0  0  0  0
   -1.4284    2.9723    2.4928 H   0  0  0  0  0  0  0  0  0  0  0  0
   -2.2799    2.1191    4.7070 H   0  0  0  0  0  0  0  0  0  0  0  0
    0.1291   -0.6924    6.8091 H   0  0  0  0  0  0  0  0  0  0  0  0
    0.9211   -2.7745    7.9237 H   0  0  0  0  0  0  0  0  0  0  0  0
    3.2440   -8.0254    4.8306 H   0  0  0  0  0  0  0  0  0  0  0  0
    3.6660   -5.5258    4.4380 H   0  0  0  0  0  0  0  0  0  0  0  0
    4.5330   -6.6805    3.5061 H   0  0  0  0  0  0  0  0  0  0  0  0
    2.2451   -4.9434    2.3819 H   0  0  0  0  0  0  0  0  0  0  0  0
    3.9227   -4.9686    1.9512 H   0  0  0  0  0  0  0  0  0  0  0  0
    2.3690   -6.1502    0.3839 H   0  0  0  0  0  0  0  0  0  0  0  0
    3.5901   -7.2419    0.9810 H   0  0  0  0  0  0  0  0  0  0  0  0
    3.2373   -8.7316    2.5576 H   0  0  0  0  0  0  0  0  0  0  0  0
  1  2  2  0
  2 29  1  0
  2  3  1  0
  3  4  2  0
  4  9  1  0
  4  5  1  0
  5  6  1  0
  5 31  1  0
  5 32  1  0
  6 30  1  0
  6  7  1  0
  6 33  1  6
  7  8  1  0
  8  9  1  0
  8 34  1  0
  8 35  1  0
  9 10  1  0
  9 36  1  1
 10 11  1  0
 10 25  1  0
 10 37  1  6
 11 12  2  3
 11 38  1  0
 12 13  1  0
 12 39  1  0
 13 24  1  0
 13 14  2  0
 14 15  1  0
 14 40  1  0
 15 16  2  0
 15 41  1  0
 16 17  1  0
 16 23  1  0
 17 22  1  0
 17 18  2  0
 18 19  1  0
 18 42  1  0
 19 20  2  0
 19 43  1  0
 20 21  1  0
 20 44  1  0
 21 22  2  0
 21 45  1  0
 23 24  2  0
 23 46  1  0
 24 47  1  0
 25 30  1  0
 25 26  1  0
 25 48  1  1
 26 27  1  0
 26 49  1  0
 26 50  1  0
 27 28  1  0
 27 51  1  0
 27 52  1  0
 28 29  1  0
 28 53  1  0
 28 54  1  0
 29 30  1  0
 30 55  1  6
M  END
>  <i_m_ct_stereo_status>  (300) 
1

>  <s_m_source_file>  (300) 
/var/tmp/pbs.5076255.sched01/tmpjgl1obm9/123zpz496x9.sdf

>  <i_m_source_file_index>  (300) 
3

>  <i_lp_mmshare_version>  (300) 
48012

>  <i_f3d_flags>  (300) 
0

>  <s_epik_input>  (300) 
Tz1DKE49MSlOMltDSDJdW0NIMl1bQ0gyXVtDQEhdKFtDQEhdMltDQEhdKFtDSDJdMylPW0NIMl1bQ0BASF00QzEzKVtDQEBIXTQvW0NIXT1bQ0hdL2M1W2NIXVtjSF1jKFtjSF1bY0hdNSktYzZbY0hdW2NIXVtjSF1bY0hdbjY=

>  <s_epik_cmdline>  (300) 
J2VwaWtfcHl0aG9uJywgJy1waHQnLCAnMi4wJywgJy1waCcsICc3LjAnLCAnLXRuJywgJzgnLCAnLW1hJywgJzIwMCcsICctaW1hZScsICc8aW5maWxlLm1hZT4nLCAnLW9tYWUnLCAnPG91dGZpbGUubWFlPic=

>  <r_epik_Ionization_Penalty>  (300) 
0.00212797

>  <r_epik_Ionization_Penalty_Charging>  (300) 
0

>  <r_epik_Ionization_Penalty_Neutral>  (300) 
0.00212797

>  <r_epik_State_Penalty>  (300) 
0.00145973

>  <r_epik_Charging_Adjusted_Penalty>  (300) 
0.00145973

>  <i_epik_Tot_Q>  (300) 
0

>  <i_epik_Tot_abs_Q>  (300) 
0

>  <s_epik_Chemistry_Notes>  (300) 
This compound has an imine and may undergo hydrolysis.

>  <s_lp_Force_Field>  (300) 
OPLS3e

>  <r_lp_Energy>  (300) 
96.4817

>  <b_lp_Chiralities_Consistent>  (300) 
1

>  <s_lp_Variant>  (300) 
90:0-2

>  <s_i_glide_gridfile>  (300) 
pfpi4k_grid

>  <i_i_glide_lignum>  (300) 
3

>  <i_i_glide_rotatable_bonds>  (300) 
3

>  <r_i_docking_score>  (300) 
-3.03901

>  <r_i_glide_ligand_efficiency>  (300) 
-0.1013

>  <r_i_glide_ligand_efficiency_sa>  (300) 
-0.314764

>  <r_i_glide_ligand_efficiency_ln>  (300) 
-0.690497

>  <r_i_glide_gscore>  (300) 
-3.03901

>  <r_i_glide_lipo>  (300) 
-0.056939

>  <r_i_glide_hbond>  (300) 
-0.206835

>  <r_i_glide_metal>  (300) 
-0

>  <r_i_glide_rewards>  (300) 
-0.68533

>  <r_i_glide_evdw>  (300) 
-32.8274

>  <r_i_glide_ecoul>  (300) 
-4.38758

>  <r_i_glide_erotb>  (300) 
0.368353

>  <r_i_glide_esite>  (300) 
-0.158756

>  <r_i_glide_emodel>  (300) 
-43.1137

>  <r_i_glide_energy>  (300) 
-37.215

>  <r_i_glide_einternal>  (300) 
0.537174

>  <r_i_glide_intrahb_reward>  (300) 
-0

>  <i_i_glide_confnum>  (300) 
4

>  <i_i_glide_posenum>  (300) 
23

>  <r_i_glide_eff_state_penalty>  (300) 
0

>  <ligand_id>  (300) 
90

>  <original_smiles>  (300) 
O=C1N=C2CC3OCC2C(C=Cc2ccc(-c4ccccn4)cc2)C2CCCN1C32

>  <smiles>  (300) 
[H]C(=C([H])C1([H])C2([H])C3=NC(=O)N4C([H])([H])C([H])([H])C([H])([H])C1([H])C4([H])C([H])(OC2([H])[H])C3([H])[H])c1c([H])c([H])c(-c2nc([H])c([H])c([H])c2[H])c([H])c1[H]

$$$$
90:1:1
     RDKit          3D

 55 60  0  0  1  0  0  0  0  0999 V2000
   -1.0459   -7.0965    2.7153 O   0  0  0  0  0  0  0  0  0  0  0  0
   -0.2071   -7.1851    3.6325 C   0  0  0  0  0  0  0  0  0  0  0  0
    0.5830   -6.0771    3.9665 N   0  0  0  0  0  0  0  0  0  0  0  0
    1.0063   -6.0014    5.1747 C   0  0  0  0  0  0  0  0  0  0  0  0
    0.1234   -6.3802    6.3251 C   0  0  0  0  0  0  0  0  0  0  0  0
    0.6160   -7.7877    6.6837 C   0  0  2  0  0  0  0  0  0  0  0  0
    1.8323   -7.6221    7.4343 O   0  0  0  0  0  0  0  0  0  0  0  0
    2.6907   -6.5425    7.0078 C   0  0  0  0  0  0  0  0  0  0  0  0
    2.4958   -6.2484    5.5022 C   0  0  1  0  0  0  0  0  0  0  0  0
    3.0229   -7.4915    4.6929 C   0  0  1  0  0  0  0  0  0  0  0  0
    4.5616   -7.5540    4.6680 C   0  0  0  0  0  0  0  0  0  0  0  0
    5.4000   -7.0182    3.7457 C   0  0  0  0  0  0  0  0  0  0  0  0
    5.1341   -6.2032    2.5228 C   0  0  0  0  0  0  0  0  0  0  0  0
    3.8665   -6.1121    1.8757 C   0  0  0  0  0  0  0  0  0  0  0  0
    3.6809   -5.2902    0.7664 C   0  0  0  0  0  0  0  0  0  0  0  0
    4.7378   -4.5491    0.2052 C   0  0  0  0  0  0  0  0  0  0  0  0
    4.4805   -3.7357   -0.9820 C   0  0  0  0  0  0  0  0  0  0  0  0
    3.1924   -3.2211   -1.2845 C   0  0  0  0  0  0  0  0  0  0  0  0
    3.0191   -2.4573   -2.4503 C   0  0  0  0  0  0  0  0  0  0  0  0
    4.1339   -2.2418   -3.2789 C   0  0  0  0  0  0  0  0  0  0  0  0
    5.3629   -2.8093   -2.9011 C   0  0  0  0  0  0  0  0  0  0  0  0
    5.5446   -3.5192   -1.7792 N   0  0  0  0  0  0  0  0  0  0  0  0
    6.0105   -4.6487    0.8313 C   0  0  0  0  0  0  0  0  0  0  0  0
    6.2137   -5.4505    1.9737 C   0  0  0  0  0  0  0  0  0  0  0  0
    2.3690   -8.8567    5.0605 C   0  0  2  0  0  0  0  0  0  0  0  0
    2.5299   -9.8852    3.8986 C   0  0  0  0  0  0  0  0  0  0  0  0
    1.4947   -9.7587    2.7525 C   0  0  0  0  0  0  0  0  0  0  0  0
    0.0709   -9.5885    3.3122 C   0  0  0  0  0  0  0  0  0  0  0  0
    0.0644   -8.4043    4.1951 N   0  0  0  0  0  0  0  0  0  0  0  0
    0.8599   -8.7275    5.4384 C   0  0  2  0  0  0  0  0  0  0  0  0
    0.2360   -5.6773    7.1460 H   0  0  0  0  0  0  0  0  0  0  0  0
   -0.9281   -6.3545    6.0534 H   0  0  0  0  0  0  0  0  0  0  0  0
   -0.1129   -8.2578    7.3413 H   0  0  0  0  0  0  0  0  0  0  0  0
    2.4887   -5.6478    7.5994 H   0  0  0  0  0  0  0  0  0  0  0  0
    3.7281   -6.8085    7.2204 H   0  0  0  0  0  0  0  0  0  0  0  0
    3.0471   -5.3556    5.2161 H   0  0  0  0  0  0  0  0  0  0  0  0
    2.6602   -7.4063    3.7260 H   0  0  0  0  0  0  0  0  0  0  0  0
    5.0152   -8.1109    5.4777 H   0  0  0  0  0  0  0  0  0  0  0  0
    6.4461   -7.2207    3.9181 H   0  0  0  0  0  0  0  0  0  0  0  0
    2.9826   -6.6436    2.0834 H   0  0  0  0  0  0  0  0  0  0  0  0
    2.6864   -5.2915    0.3461 H   0  0  0  0  0  0  0  0  0  0  0  0
    2.3475   -3.3881   -0.6360 H   0  0  0  0  0  0  0  0  0  0  0  0
    2.0539   -2.0403   -2.6958 H   0  0  0  0  0  0  0  0  0  0  0  0
    4.0498   -1.6500   -4.1701 H   0  0  0  0  0  0  0  0  0  0  0  0
    6.2424   -2.6792   -3.5050 H   0  0  0  0  0  0  0  0  0  0  0  0
    6.8411   -4.0786    0.4215 H   0  0  0  0  0  0  0  0  0  0  0  0
    7.1940   -5.4839    2.4253 H   0  0  0  0  0  0  0  0  0  0  0  0
    2.8986   -9.2648    5.9192 H   0  0  0  0  0  0  0  0  0  0  0  0
    3.5366   -9.8633    3.4823 H   0  0  0  0  0  0  0  0  0  0  0  0
    2.4148  -10.8821    4.3279 H   0  0  0  0  0  0  0  0  0  0  0  0
    1.7436   -8.9223    2.0999 H   0  0  0  0  0  0  0  0  0  0  0  0
    1.5525  -10.6398    2.1100 H   0  0  0  0  0  0  0  0  0  0  0  0
   -0.6478   -9.5277    2.4945 H   0  0  0  0  0  0  0  0  0  0  0  0
   -0.2003  -10.4927    3.8543 H   0  0  0  0  0  0  0  0  0  0  0  0
    0.5540   -9.7216    5.7636 H   0  0  0  0  0  0  0  0  0  0  0  0
  1  2  2  0
  2 29  1  0
  2  3  1  0
  3  4  2  0
  4  9  1  0
  4  5  1  0
  5  6  1  0
  5 31  1  0
  5 32  1  0
  6 30  1  0
  6  7  1  0
  6 33  1  1
  7  8  1  0
  8  9  1  0
  8 34  1  0
  8 35  1  0
  9 10  1  0
  9 36  1  6
 10 11  1  0
 10 25  1  0
 10 37  1  6
 11 12  2  3
 11 38  1  0
 12 13  1  0
 12 39  1  0
 13 24  1  0
 13 14  2  0
 14 15  1  0
 14 40  1  0
 15 16  2  0
 15 41  1  0
 16 17  1  0
 16 23  1  0
 17 22  1  0
 17 18  2  0
 18 19  1  0
 18 42  1  0
 19 20  2  0
 19 43  1  0
 20 21  1  0
 20 44  1  0
 21 22  2  0
 21 45  1  0
 23 24  2  0
 23 46  1  0
 24 47  1  0
 25 30  1  0
 25 26  1  0
 25 48  1  1
 26 27  1  0
 26 49  1  0
 26 50  1  0
 27 28  1  0
 27 51  1  0
 27 52  1  0
 28 29  1  0
 28 53  1  0
 28 54  1  0
 29 30  1  0
 30 55  1  1
M  END
>  <i_m_ct_stereo_status>  (301) 
1

>  <s_m_source_file>  (301) 
/var/tmp/pbs.5076255.sched01/tmpjgl1obm9/123zpz496x9.sdf

>  <i_m_source_file_index>  (301) 
3

>  <i_lp_mmshare_version>  (301) 
48012

>  <i_f3d_flags>  (301) 
0

>  <s_epik_input>  (301) 
Tz1DKE49MSlOMltDSDJdW0NIMl1bQ0gyXVtDQEhdKFtDQEhdMltDQEhdKFtDSDJdMylPW0NIMl1bQ0BASF00QzEzKVtDQEBIXTQvW0NIXT1bQ0hdL2M1W2NIXVtjSF1jKFtjSF1bY0hdNSktYzZbY0hdW2NIXVtjSF1bY0hdbjY=

>  <s_epik_cmdline>  (301) 
J2VwaWtfcHl0aG9uJywgJy1waHQnLCAnMi4wJywgJy1waCcsICc3LjAnLCAnLXRuJywgJzgnLCAnLW1hJywgJzIwMCcsICctaW1hZScsICc8aW5maWxlLm1hZT4nLCAnLW9tYWUnLCAnPG91dGZpbGUubWFlPic=

>  <r_epik_Ionization_Penalty>  (301) 
0.00212797

>  <r_epik_Ionization_Penalty_Charging>  (301) 
0

>  <r_epik_Ionization_Penalty_Neutral>  (301) 
0.00212797

>  <r_epik_State_Penalty>  (301) 
0.00145973

>  <r_epik_Charging_Adjusted_Penalty>  (301) 
0.00145973

>  <i_epik_Tot_Q>  (301) 
0

>  <i_epik_Tot_abs_Q>  (301) 
0

>  <s_epik_Chemistry_Notes>  (301) 
This compound has an imine and may undergo hydrolysis.

>  <s_lp_Force_Field>  (301) 
OPLS3e

>  <r_lp_Energy>  (301) 
96.4817

>  <b_lp_Chiralities_Consistent>  (301) 
1

>  <s_lp_Variant>  (301) 
90:0-2

>  <s_i_glide_gridfile>  (301) 
pfpi4k_grid

>  <i_i_glide_lignum>  (301) 
3

>  <i_i_glide_rotatable_bonds>  (301) 
3

>  <r_i_docking_score>  (301) 
-2.858

>  <r_i_glide_ligand_efficiency>  (301) 
-0.0952667

>  <r_i_glide_ligand_efficiency_sa>  (301) 
-0.296016

>  <r_i_glide_ligand_efficiency_ln>  (301) 
-0.649369

>  <r_i_glide_gscore>  (301) 
-2.858

>  <r_i_glide_lipo>  (301) 
-0.655756

>  <r_i_glide_hbond>  (301) 
-0.16

>  <r_i_glide_metal>  (301) 
-0

>  <r_i_glide_rewards>  (301) 
-0.68533

>  <r_i_glide_evdw>  (301) 
-31.3813

>  <r_i_glide_ecoul>  (301) 
-0.431159

>  <r_i_glide_erotb>  (301) 
0.368353

>  <r_i_glide_esite>  (301) 
-0.0915323

>  <r_i_glide_emodel>  (301) 
-37.4783

>  <r_i_glide_energy>  (301) 
-31.8124

>  <r_i_glide_einternal>  (301) 
0.890463

>  <r_i_glide_intrahb_reward>  (301) 
-0

>  <i_i_glide_confnum>  (301) 
4

>  <i_i_glide_posenum>  (301) 
14

>  <r_i_glide_eff_state_penalty>  (301) 
0

>  <ligand_id>  (301) 
90

>  <original_smiles>  (301) 
O=C1N=C2CC3OCC2C(C=Cc2ccc(-c4ccccn4)cc2)C2CCCN1C32

>  <smiles>  (301) 
[H]C(=C([H])C1([H])C2([H])C3=NC(=O)N4C([H])([H])C([H])([H])C([H])([H])C1([H])C4([H])C([H])(OC2([H])[H])C3([H])[H])c1c([H])c([H])c(-c2nc([H])c([H])c([H])c2[H])c([H])c1[H]

$$$$
90:1:2
     RDKit          3D

 55 60  0  0  1  0  0  0  0  0999 V2000
    0.0564   -6.6239    0.6868 O   0  0  0  0  0  0  0  0  0  0  0  0
    0.3929   -7.1957    1.7398 C   0  0  0  0  0  0  0  0  0  0  0  0
   -0.5156   -7.3033    2.8048 N   0  0  0  0  0  0  0  0  0  0  0  0
   -0.3573   -8.2777    3.6203 C   0  0  0  0  0  0  0  0  0  0  0  0
    0.0024   -9.6343    3.1150 C   0  0  0  0  0  0  0  0  0  0  0  0
    1.5066   -9.7331    3.3672 C   0  0  2  0  0  0  0  0  0  0  0  0
    1.6931  -10.0024    4.7691 O   0  0  0  0  0  0  0  0  0  0  0  0
    0.7418   -9.3727    5.6560 C   0  0  0  0  0  0  0  0  0  0  0  0
    0.2248   -8.0488    5.0460 C   0  0  1  0  0  0  0  0  0  0  0  0
    1.3984   -7.0319    4.9993 C   0  0  1  0  0  0  0  0  0  0  0  0
    1.7976   -6.4577    6.3664 C   0  0  0  0  0  0  0  0  0  0  0  0
    1.7294   -5.1659    6.7912 C   0  0  0  0  0  0  0  0  0  0  0  0
    1.3016   -3.9066    6.1114 C   0  0  0  0  0  0  0  0  0  0  0  0
    1.2220   -3.7806    4.7096 C   0  0  0  0  0  0  0  0  0  0  0  0
    0.7662   -2.6290    4.0651 C   0  0  0  0  0  0  0  0  0  0  0  0
    0.4175   -1.4966    4.8163 C   0  0  0  0  0  0  0  0  0  0  0  0
   -0.0203   -0.2815    4.1153 C   0  0  0  0  0  0  0  0  0  0  0  0
   -0.9903    0.5647    4.6855 C   0  0  0  0  0  0  0  0  0  0  0  0
   -1.3784    1.7102    3.9815 C   0  0  0  0  0  0  0  0  0  0  0  0
   -0.7880    1.9578    2.7257 C   0  0  0  0  0  0  0  0  0  0  0  0
    0.1586    1.0504    2.2208 C   0  0  0  0  0  0  0  0  0  0  0  0
    0.5377   -0.0459    2.9055 N   0  0  0  0  0  0  0  0  0  0  0  0
    0.5102   -1.5810    6.2314 C   0  0  0  0  0  0  0  0  0  0  0  0
    0.9424   -2.7694    6.8776 C   0  0  0  0  0  0  0  0  0  0  0  0
    2.6552   -7.5158    4.1833 C   0  0  2  0  0  0  0  0  0  0  0  0
    3.5810   -6.3543    3.7001 C   0  0  0  0  0  0  0  0  0  0  0  0
    3.2013   -5.6886    2.3373 C   0  0  0  0  0  0  0  0  0  0  0  0
    2.7799   -6.7400    1.3109 C   0  0  0  0  0  0  0  0  0  0  0  0
    1.7093   -7.5748    1.9002 N   0  0  0  0  0  0  0  0  0  0  0  0
    2.3107   -8.4348    2.9716 C   0  0  2  0  0  0  0  0  0  0  0  0
   -0.5640  -10.3803    3.6538 H   0  0  0  0  0  0  0  0  0  0  0  0
   -0.2543   -9.7555    2.0658 H   0  0  0  0  0  0  0  0  0  0  0  0
    1.8987  -10.5812    2.8091 H   0  0  0  0  0  0  0  0  0  0  0  0
   -0.1053  -10.0330    5.8637 H   0  0  0  0  0  0  0  0  0  0  0  0
    1.2199   -9.1984    6.6205 H   0  0  0  0  0  0  0  0  0  0  0  0
   -0.5698   -7.6276    5.6550 H   0  0  0  0  0  0  0  0  0  0  0  0
    0.8847   -6.2549    4.4679 H   0  0  0  0  0  0  0  0  0  0  0  0
    2.1925   -7.1838    7.0745 H   0  0  0  0  0  0  0  0  0  0  0  0
    2.0809   -5.0217    7.8010 H   0  0  0  0  0  0  0  0  0  0  0  0
    1.5471   -4.5533    4.0652 H   0  0  0  0  0  0  0  0  0  0  0  0
    0.7149   -2.6356    2.9851 H   0  0  0  0  0  0  0  0  0  0  0  0
   -1.4106    0.3186    5.6490 H   0  0  0  0  0  0  0  0  0  0  0  0
   -2.1077    2.3819    4.4057 H   0  0  0  0  0  0  0  0  0  0  0  0
   -1.0445    2.8279    2.1540 H   0  0  0  0  0  0  0  0  0  0  0  0
    0.6253    1.2033    1.2576 H   0  0  0  0  0  0  0  0  0  0  0  0
    0.2603   -0.7160    6.8354 H   0  0  0  0  0  0  0  0  0  0  0  0
    1.0136   -2.8181    7.9576 H   0  0  0  0  0  0  0  0  0  0  0  0
    3.2645   -8.1148    4.8676 H   0  0  0  0  0  0  0  0  0  0  0  0
    3.7108   -5.6121    4.4871 H   0  0  0  0  0  0  0  0  0  0  0  0
    4.5788   -6.7766    3.5611 H   0  0  0  0  0  0  0  0  0  0  0  0
    2.3592   -5.0039    2.3426 H   0  0  0  0  0  0  0  0  0  0  0  0
    4.0208   -5.0459    2.0050 H   0  0  0  0  0  0  0  0  0  0  0  0
    2.4547   -6.1942    0.4242 H   0  0  0  0  0  0  0  0  0  0  0  0
    3.6604   -7.3123    1.0225 H   0  0  0  0  0  0  0  0  0  0  0  0
    3.2646   -8.8038    2.5888 H   0  0  0  0  0  0  0  0  0  0  0  0
  1  2  2  0
  2 29  1  0
  2  3  1  0
  3  4  2  0
  4  9  1  0
  4  5  1  0
  5  6  1  0
  5 31  1  0
  5 32  1  0
  6 30  1  0
  6  7  1  0
  6 33  1  6
  7  8  1  0
  8  9  1  0
  8 34  1  0
  8 35  1  0
  9 10  1  0
  9 36  1  1
 10 11  1  0
 10 25  1  0
 10 37  1  6
 11 12  2  3
 11 38  1  0
 12 13  1  0
 12 39  1  0
 13 24  1  0
 13 14  2  0
 14 15  1  0
 14 40  1  0
 15 16  2  0
 15 41  1  0
 16 17  1  0
 16 23  1  0
 17 22  1  0
 17 18  2  0
 18 19  1  0
 18 42  1  0
 19 20  2  0
 19 43  1  0
 20 21  1  0
 20 44  1  0
 21 22  2  0
 21 45  1  0
 23 24  2  0
 23 46  1  0
 24 47  1  0
 25 30  1  0
 25 26  1  0
 25 48  1  1
 26 27  1  0
 26 49  1  0
 26 50  1  0
 27 28  1  0
 27 51  1  0
 27 52  1  0
 28 29  1  0
 28 53  1  0
 28 54  1  0
 29 30  1  0
 30 55  1  6
M  END
>  <i_m_ct_stereo_status>  (302) 
1

>  <s_m_source_file>  (302) 
/var/tmp/pbs.5076255.sched01/tmpjgl1obm9/123zpz496x9.sdf

>  <i_m_source_file_index>  (302) 
3

>  <i_lp_mmshare_version>  (302) 
48012

>  <i_f3d_flags>  (302) 
0

>  <s_epik_input>  (302) 
Tz1DKE49MSlOMltDSDJdW0NIMl1bQ0gyXVtDQEhdKFtDQEhdMltDQEhdKFtDSDJdMylPW0NIMl1bQ0BASF00QzEzKVtDQEBIXTQvW0NIXT1bQ0hdL2M1W2NIXVtjSF1jKFtjSF1bY0hdNSktYzZbY0hdW2NIXVtjSF1bY0hdbjY=

>  <s_epik_cmdline>  (302) 
J2VwaWtfcHl0aG9uJywgJy1waHQnLCAnMi4wJywgJy1waCcsICc3LjAnLCAnLXRuJywgJzgnLCAnLW1hJywgJzIwMCcsICctaW1hZScsICc8aW5maWxlLm1hZT4nLCAnLW9tYWUnLCAnPG91dGZpbGUubWFlPic=

>  <r_epik_Ionization_Penalty>  (302) 
0.00212797

>  <r_epik_Ionization_Penalty_Charging>  (302) 
0

>  <r_epik_Ionization_Penalty_Neutral>  (302) 
0.00212797

>  <r_epik_State_Penalty>  (302) 
0.00145973

>  <r_epik_Charging_Adjusted_Penalty>  (302) 
0.00145973

>  <i_epik_Tot_Q>  (302) 
0

>  <i_epik_Tot_abs_Q>  (302) 
0

>  <s_epik_Chemistry_Notes>  (302) 
This compound has an imine and may undergo hydrolysis.

>  <s_lp_Force_Field>  (302) 
OPLS3e

>  <r_lp_Energy>  (302) 
96.4817

>  <b_lp_Chiralities_Consistent>  (302) 
1

>  <s_lp_Variant>  (302) 
90:0-2

>  <s_i_glide_gridfile>  (302) 
pfpi4k_grid

>  <i_i_glide_lignum>  (302) 
3

>  <i_i_glide_rotatable_bonds>  (302) 
3

>  <r_i_docking_score>  (302) 
-2.71937

>  <r_i_glide_ligand_efficiency>  (302) 
-0.0906457

>  <r_i_glide_ligand_efficiency_sa>  (302) 
-0.281657

>  <r_i_glide_ligand_efficiency_ln>  (302) 
-0.617871

>  <r_i_glide_gscore>  (302) 
-2.71937

>  <r_i_glide_lipo>  (302) 
-0.0726697

>  <r_i_glide_hbond>  (302) 
-0.195282

>  <r_i_glide_metal>  (302) 
-0

>  <r_i_glide_rewards>  (302) 
-0.68533

>  <r_i_glide_evdw>  (302) 
-32.4411

>  <r_i_glide_ecoul>  (302) 
-2.403

>  <r_i_glide_erotb>  (302) 
0.368353

>  <r_i_glide_esite>  (302) 
-0.151936

>  <r_i_glide_emodel>  (302) 
-39.707

>  <r_i_glide_energy>  (302) 
-34.8441

>  <r_i_glide_einternal>  (302) 
0.482103

>  <r_i_glide_intrahb_reward>  (302) 
-0

>  <i_i_glide_confnum>  (302) 
3

>  <i_i_glide_posenum>  (302) 
33

>  <r_i_glide_eff_state_penalty>  (302) 
0

>  <ligand_id>  (302) 
90

>  <original_smiles>  (302) 
O=C1N=C2CC3OCC2C(C=Cc2ccc(-c4ccccn4)cc2)C2CCCN1C32

>  <smiles>  (302) 
[H]C(=C([H])C1([H])C2([H])C3=NC(=O)N4C([H])([H])C([H])([H])C([H])([H])C1([H])C4([H])C([H])(OC2([H])[H])C3([H])[H])c1c([H])c([H])c(-c2nc([H])c([H])c([H])c2[H])c([H])c1[H]

$$$$
91:0:0
     RDKit          3D

 32 35  0  0  1  0  0  0  0  0999 V2000
    2.8174   -3.5254    5.2159 O   0  0  0  0  0  0  0  0  0  0  0  0
    1.8743   -4.2240    5.6508 C   0  0  0  0  0  0  0  0  0  0  0  0
    1.0620   -3.3888    6.6440 C   0  0  0  0  0  0  0  0  0  0  0  0
   -0.3982   -3.8471    6.8099 C   0  0  0  0  0  0  0  0  0  0  0  0
   -0.5229   -5.3473    6.7425 C   0  0  0  0  0  0  0  0  0  0  0  0
    0.3779   -6.1260    6.1216 C   0  0  0  0  0  0  0  0  0  0  0  0
    0.2584   -7.5104    6.1606 N   0  0  0  0  0  0  0  0  0  0  0  0
    1.2749   -8.3419    5.7184 C   0  0  0  0  0  0  0  0  0  0  0  0
    1.4226   -9.6285    5.9745 N   0  0  0  0  0  0  0  0  0  0  0  0
    2.6376   -9.8384    5.3725 C   0  0  0  0  0  0  0  0  0  0  0  0
    3.1841   -8.7803    4.7651 N   0  0  0  0  0  0  0  0  0  0  0  0
    2.2608   -7.8152    4.9978 N   0  0  0  0  0  0  0  0  0  0  0  0
    2.3479   -6.4504    4.4922 C   0  0  1  0  0  0  0  0  0  0  0  0
    1.8769   -6.3891    3.0432 C   0  0  0  0  0  0  0  0  0  0  0  0
    0.6980   -7.0448    2.6294 C   0  0  0  0  0  0  0  0  0  0  0  0
    0.3211   -6.9704    1.2798 C   0  0  0  0  0  0  0  0  0  0  0  0
    1.0098   -6.2578    0.3621 N   0  0  0  0  0  0  0  0  0  0  0  0
    2.1430   -5.6390    0.7562 C   0  0  0  0  0  0  0  0  0  0  0  0
    2.6137   -5.6640    2.0801 C   0  0  0  0  0  0  0  0  0  0  0  0
    1.5164   -5.5440    5.4008 C   0  0  0  0  0  0  0  0  0  0  0  0
    1.0737   -2.3375    6.3531 H   0  0  0  0  0  0  0  0  0  0  0  0
    1.5579   -3.4360    7.6148 H   0  0  0  0  0  0  0  0  0  0  0  0
   -0.7839   -3.5019    7.7688 H   0  0  0  0  0  0  0  0  0  0  0  0
   -1.0208   -3.4189    6.0275 H   0  0  0  0  0  0  0  0  0  0  0  0
   -1.3800   -5.7781    7.2332 H   0  0  0  0  0  0  0  0  0  0  0  0
    3.1353  -10.7949    5.3876 H   0  0  0  0  0  0  0  0  0  0  0  0
    3.3928   -6.1495    4.5512 H   0  0  0  0  0  0  0  0  0  0  0  0
    0.0941   -7.6074    3.3221 H   0  0  0  0  0  0  0  0  0  0  0  0
   -0.5737   -7.4608    0.9277 H   0  0  0  0  0  0  0  0  0  0  0  0
    2.6734   -5.0847   -0.0069 H   0  0  0  0  0  0  0  0  0  0  0  0
    3.5117   -5.1287    2.3538 H   0  0  0  0  0  0  0  0  0  0  0  0
   -0.4460   -7.9479    6.7314 H   0  0  0  0  0  0  0  0  0  0  0  0
  1  2  1  0
  2  3  1  0
  2 20  2  0
  3  4  1  0
  3 21  1  0
  3 22  1  0
  4  5  1  0
  4 23  1  0
  4 24  1  0
  5 25  1  0
  5  6  2  0
  6 20  1  0
  6  7  1  0
  7  8  1  0
  7 32  1  0
  8 12  1  0
  8  9  2  0
  9 10  1  0
 10 11  2  0
 10 26  1  0
 11 12  1  0
 12 13  1  0
 13 14  1  0
 13 27  1  6
 13 20  1  0
 14 19  1  0
 14 15  2  0
 15 16  1  0
 15 28  1  0
 16 17  2  0
 16 29  1  0
 17 18  1  0
 18 19  2  0
 18 30  1  0
 19 31  1  0
M  CHG  1   1  -1
M  END
>  <i_m_ct_stereo_status>  (303) 
1

>  <s_m_source_file>  (303) 
/var/tmp/pbs.5076255.sched01/tmpjgl1obm9/123zpz496x9.sdf

>  <i_m_source_file_index>  (303) 
4

>  <i_lp_mmshare_version>  (303) 
48012

>  <i_f3d_flags>  (303) 
0

>  <s_epik_input>  (303) 
W0NIMl0xW0NIMl1bQ0gyXUMoPU8pW0NAQEhdKEMxPTIpW0NAQEhdKG4zYyhOMiluW2NIXW4zKWM0W2NIXVtjSF1uW2NIXVtjSF00

>  <s_epik_cmdline>  (303) 
J2VwaWtfcHl0aG9uJywgJy1waHQnLCAnMi4wJywgJy1waCcsICc3LjAnLCAnLXRuJywgJzgnLCAnLW1hJywgJzIwMCcsICctaW1hZScsICc8aW5maWxlLm1hZT4nLCAnLW9tYWUnLCAnPG91dGZpbGUubWFlPic=

>  <r_epik_Ionization_Penalty>  (303) 
0.540224

>  <r_epik_Ionization_Penalty_Charging>  (303) 
0.538938

>  <r_epik_Ionization_Penalty_Neutral>  (303) 
0.00128574

>  <r_epik_State_Penalty>  (303) 
0.372075

>  <r_epik_Charging_Adjusted_Penalty>  (303) 
0.911013

>  <i_epik_Tot_Q>  (303) 
-1

>  <i_epik_Tot_abs_Q>  (303) 
1

>  <s_epik_Chemistry_Notes>  (303) 
This compound has an imine and may undergo hydrolysis.

>  <s_lp_Force_Field>  (303) 
OPLS3e

>  <r_lp_Energy>  (303) 
33.9901

>  <b_lp_Chiralities_Consistent>  (303) 
1

>  <s_lp_Variant>  (303) 
91:0-1

>  <s_i_glide_gridfile>  (303) 
pfpi4k_grid

>  <i_i_glide_lignum>  (303) 
4

>  <i_i_glide_rotatable_bonds>  (303) 
1

>  <r_i_docking_score>  (303) 
-2.71142

>  <r_i_glide_ligand_efficiency>  (303) 
-0.135571

>  <r_i_glide_ligand_efficiency_sa>  (303) 
-0.367997

>  <r_i_glide_ligand_efficiency_ln>  (303) 
-0.67858

>  <r_i_glide_gscore>  (303) 
-2.71142

>  <r_i_glide_lipo>  (303) 
-0.0715204

>  <r_i_glide_hbond>  (303) 
-0.264312

>  <r_i_glide_metal>  (303) 
-0

>  <r_i_glide_rewards>  (303) 
-1.59356

>  <r_i_glide_evdw>  (303) 
-16.022

>  <r_i_glide_ecoul>  (303) 
-1.05877

>  <r_i_glide_erotb>  (303) 
0.2512

>  <r_i_glide_esite>  (303) 
-0.0733161

>  <r_i_glide_emodel>  (303) 
-20.7998

>  <r_i_glide_energy>  (303) 
-17.0808

>  <r_i_glide_einternal>  (303) 
0.292226

>  <r_i_glide_intrahb_reward>  (303) 
-0

>  <i_i_glide_confnum>  (303) 
3

>  <i_i_glide_posenum>  (303) 
4

>  <r_i_glide_eff_state_penalty>  (303) 
0

>  <ligand_id>  (303) 
91

>  <original_smiles>  (303) 
O=C1CCCC2=Nc3ncnn3C(c3ccncc3)C12

>  <smiles>  (303) 
[H]C1=C2C(=C([O-])C([H])([H])C1([H])[H])C([H])(c1c([H])c([H])nc([H])c1[H])n1nc([H])nc1N2[H]

$$$$
91:0:1
     RDKit          3D

 32 35  0  0  1  0  0  0  0  0999 V2000
    0.3948   -5.4715    5.1655 O   0  0  0  0  0  0  0  0  0  0  0  0
    0.3035   -6.3796    4.3042 C   0  0  0  0  0  0  0  0  0  0  0  0
   -1.0620   -7.0550    4.4519 C   0  0  0  0  0  0  0  0  0  0  0  0
   -1.5795   -7.7224    3.1633 C   0  0  0  0  0  0  0  0  0  0  0  0
   -0.4602   -8.3519    2.3806 C   0  0  0  0  0  0  0  0  0  0  0  0
    0.8222   -7.9661    2.4904 C   0  0  0  0  0  0  0  0  0  0  0  0
    1.8207   -8.6434    1.8034 N   0  0  0  0  0  0  0  0  0  0  0  0
    3.1674   -8.4090    2.0580 C   0  0  0  0  0  0  0  0  0  0  0  0
    4.1962   -9.1623    1.7117 N   0  0  0  0  0  0  0  0  0  0  0  0
    5.1997   -8.4660    2.3394 C   0  0  0  0  0  0  0  0  0  0  0  0
    4.8387   -7.3445    2.9699 N   0  0  0  0  0  0  0  0  0  0  0  0
    3.4985   -7.3281    2.7643 N   0  0  0  0  0  0  0  0  0  0  0  0
    2.6118   -6.2642    3.2154 C   0  0  1  0  0  0  0  0  0  0  0  0
    2.6674   -5.0816    2.2535 C   0  0  0  0  0  0  0  0  0  0  0  0
    2.5584   -5.2670    0.8554 C   0  0  0  0  0  0  0  0  0  0  0  0
    2.6355   -4.1407    0.0149 C   0  0  0  0  0  0  0  0  0  0  0  0
    2.7959   -2.8868    0.4788 N   0  0  0  0  0  0  0  0  0  0  0  0
    2.8695   -2.7073    1.8128 C   0  0  0  0  0  0  0  0  0  0  0  0
    2.8154   -3.7662    2.7402 C   0  0  0  0  0  0  0  0  0  0  0  0
    1.1969   -6.8271    3.3378 C   0  0  0  0  0  0  0  0  0  0  0  0
   -1.8064   -6.3350    4.8020 H   0  0  0  0  0  0  0  0  0  0  0  0
   -0.9825   -7.8138    5.2358 H   0  0  0  0  0  0  0  0  0  0  0  0
   -2.3131   -8.4866    3.4221 H   0  0  0  0  0  0  0  0  0  0  0  0
   -2.0734   -6.9989    2.5205 H   0  0  0  0  0  0  0  0  0  0  0  0
   -0.7386   -9.1595    1.7229 H   0  0  0  0  0  0  0  0  0  0  0  0
    6.2287   -8.7975    2.3269 H   0  0  0  0  0  0  0  0  0  0  0  0
    2.9553   -5.9519    4.2004 H   0  0  0  0  0  0  0  0  0  0  0  0
    2.4303   -6.2491    0.4278 H   0  0  0  0  0  0  0  0  0  0  0  0
    2.5540   -4.2491   -1.0564 H   0  0  0  0  0  0  0  0  0  0  0  0
    2.9782   -1.6859    2.1493 H   0  0  0  0  0  0  0  0  0  0  0  0
    2.8839   -3.5690    3.8002 H   0  0  0  0  0  0  0  0  0  0  0  0
    1.5829   -9.4819    1.2921 H   0  0  0  0  0  0  0  0  0  0  0  0
  1  2  1  0
  2  3  1  0
  2 20  2  0
  3  4  1  0
  3 21  1  0
  3 22  1  0
  4  5  1  0
  4 23  1  0
  4 24  1  0
  5 25  1  0
  5  6  2  0
  6 20  1  0
  6  7  1  0
  7  8  1  0
  7 32  1  0
  8 12  1  0
  8  9  2  0
  9 10  1  0
 10 11  2  0
 10 26  1  0
 11 12  1  0
 12 13  1  0
 13 14  1  0
 13 27  1  1
 13 20  1  0
 14 19  1  0
 14 15  2  0
 15 16  1  0
 15 28  1  0
 16 17  2  0
 16 29  1  0
 17 18  1  0
 18 19  2  0
 18 30  1  0
 19 31  1  0
M  CHG  1   1  -1
M  END
>  <i_m_ct_stereo_status>  (304) 
1

>  <s_m_source_file>  (304) 
/var/tmp/pbs.5076255.sched01/tmpjgl1obm9/123zpz496x9.sdf

>  <i_m_source_file_index>  (304) 
4

>  <i_lp_mmshare_version>  (304) 
48012

>  <i_f3d_flags>  (304) 
0

>  <s_epik_input>  (304) 
W0NIMl0xW0NIMl1bQ0gyXUMoPU8pW0NAQEhdKEMxPTIpW0NAQEhdKG4zYyhOMiluW2NIXW4zKWM0W2NIXVtjSF1uW2NIXVtjSF00

>  <s_epik_cmdline>  (304) 
J2VwaWtfcHl0aG9uJywgJy1waHQnLCAnMi4wJywgJy1waCcsICc3LjAnLCAnLXRuJywgJzgnLCAnLW1hJywgJzIwMCcsICctaW1hZScsICc8aW5maWxlLm1hZT4nLCAnLW9tYWUnLCAnPG91dGZpbGUubWFlPic=

>  <r_epik_Ionization_Penalty>  (304) 
0.540224

>  <r_epik_Ionization_Penalty_Charging>  (304) 
0.538938

>  <r_epik_Ionization_Penalty_Neutral>  (304) 
0.00128574

>  <r_epik_State_Penalty>  (304) 
0.372075

>  <r_epik_Charging_Adjusted_Penalty>  (304) 
0.911013

>  <i_epik_Tot_Q>  (304) 
-1

>  <i_epik_Tot_abs_Q>  (304) 
1

>  <s_epik_Chemistry_Notes>  (304) 
This compound has an imine and may undergo hydrolysis.

>  <s_lp_Force_Field>  (304) 
OPLS3e

>  <r_lp_Energy>  (304) 
33.9901

>  <b_lp_Chiralities_Consistent>  (304) 
1

>  <s_lp_Variant>  (304) 
91:0-1

>  <s_i_glide_gridfile>  (304) 
pfpi4k_grid

>  <i_i_glide_lignum>  (304) 
4

>  <i_i_glide_rotatable_bonds>  (304) 
1

>  <r_i_docking_score>  (304) 
-2.40634

>  <r_i_glide_ligand_efficiency>  (304) 
-0.120317

>  <r_i_glide_ligand_efficiency_sa>  (304) 
-0.32659

>  <r_i_glide_ligand_efficiency_ln>  (304) 
-0.602226

>  <r_i_glide_gscore>  (304) 
-2.40634

>  <r_i_glide_lipo>  (304) 
0

>  <r_i_glide_hbond>  (304) 
-0.0805018

>  <r_i_glide_metal>  (304) 
-0

>  <r_i_glide_rewards>  (304) 
-1.59356

>  <r_i_glide_evdw>  (304) 
-21.2757

>  <r_i_glide_ecoul>  (304) 
0.71181

>  <r_i_glide_erotb>  (304) 
0.2512

>  <r_i_glide_esite>  (304) 
-0.0264625

>  <r_i_glide_emodel>  (304) 
-23.8421

>  <r_i_glide_energy>  (304) 
-20.5639

>  <r_i_glide_einternal>  (304) 
0.227109

>  <r_i_glide_intrahb_reward>  (304) 
-0

>  <i_i_glide_confnum>  (304) 
1

>  <i_i_glide_posenum>  (304) 
15

>  <r_i_glide_eff_state_penalty>  (304) 
0

>  <ligand_id>  (304) 
91

>  <original_smiles>  (304) 
O=C1CCCC2=Nc3ncnn3C(c3ccncc3)C12

>  <smiles>  (304) 
[H]C1=C2C(=C([O-])C([H])([H])C1([H])[H])C([H])(c1c([H])c([H])nc([H])c1[H])n1nc([H])nc1N2[H]

$$$$
91:0:2
     RDKit          3D

 32 35  0  0  1  0  0  0  0  0999 V2000
   -0.6928   -6.2539    4.6891 O   0  0  0  0  0  0  0  0  0  0  0  0
   -0.3902   -7.2878    4.0546 C   0  0  0  0  0  0  0  0  0  0  0  0
   -1.6670   -8.0846    3.7985 C   0  0  0  0  0  0  0  0  0  0  0  0
   -1.5737   -9.0478    2.6033 C   0  0  0  0  0  0  0  0  0  0  0  0
   -0.2022   -9.6603    2.4906 C   0  0  0  0  0  0  0  0  0  0  0  0
    0.9015   -9.0833    2.9861 C   0  0  0  0  0  0  0  0  0  0  0  0
    2.1292   -9.7286    2.9183 N   0  0  0  0  0  0  0  0  0  0  0  0
    3.2362   -9.2630    3.6146 C   0  0  0  0  0  0  0  0  0  0  0  0
    4.3525   -9.9173    3.8879 N   0  0  0  0  0  0  0  0  0  0  0  0
    4.9769   -8.9721    4.6626 C   0  0  0  0  0  0  0  0  0  0  0  0
    4.3332   -7.8121    4.8221 N   0  0  0  0  0  0  0  0  0  0  0  0
    3.1933   -8.0266    4.1199 N   0  0  0  0  0  0  0  0  0  0  0  0
    2.1451   -7.0353    3.9358 C   0  0  1  0  0  0  0  0  0  0  0  0
    2.5191   -6.0522    2.8285 C   0  0  0  0  0  0  0  0  0  0  0  0
    3.0581   -6.5018    1.6014 C   0  0  0  0  0  0  0  0  0  0  0  0
    3.3903   -5.5541    0.6160 C   0  0  0  0  0  0  0  0  0  0  0  0
    3.2064   -4.2281    0.7756 N   0  0  0  0  0  0  0  0  0  0  0  0
    2.6823   -3.8003    1.9429 C   0  0  0  0  0  0  0  0  0  0  0  0
    2.3189   -4.6658    2.9943 C   0  0  0  0  0  0  0  0  0  0  0  0
    0.8403   -7.7637    3.6256 C   0  0  0  0  0  0  0  0  0  0  0  0
   -2.5246   -7.4206    3.6619 H   0  0  0  0  0  0  0  0  0  0  0  0
   -1.8803   -8.6610    4.7016 H   0  0  0  0  0  0  0  0  0  0  0  0
   -2.3067   -9.8441    2.7285 H   0  0  0  0  0  0  0  0  0  0  0  0
   -1.7961   -8.5301    1.6746 H   0  0  0  0  0  0  0  0  0  0  0  0
   -0.1506  -10.6119    1.9870 H   0  0  0  0  0  0  0  0  0  0  0  0
    5.9395   -9.1444    5.1217 H   0  0  0  0  0  0  0  0  0  0  0  0
    2.0371   -6.4997    4.8787 H   0  0  0  0  0  0  0  0  0  0  0  0
    3.2189   -7.5523    1.4135 H   0  0  0  0  0  0  0  0  0  0  0  0
    3.8160   -5.8740   -0.3230 H   0  0  0  0  0  0  0  0  0  0  0  0
    2.5455   -2.7322    2.0358 H   0  0  0  0  0  0  0  0  0  0  0  0
    1.8920   -4.2716    3.9042 H   0  0  0  0  0  0  0  0  0  0  0  0
    2.1752  -10.6739    2.5664 H   0  0  0  0  0  0  0  0  0  0  0  0
  1  2  1  0
  2  3  1  0
  2 20  2  0
  3  4  1  0
  3 21  1  0
  3 22  1  0
  4  5  1  0
  4 23  1  0
  4 24  1  0
  5 25  1  0
  5  6  2  0
  6 20  1  0
  6  7  1  0
  7  8  1  0
  7 32  1  0
  8 12  1  0
  8  9  2  0
  9 10  1  0
 10 11  2  0
 10 26  1  0
 11 12  1  0
 12 13  1  0
 13 14  1  0
 13 27  1  1
 13 20  1  0
 14 19  1  0
 14 15  2  0
 15 16  1  0
 15 28  1  0
 16 17  2  0
 16 29  1  0
 17 18  1  0
 18 19  2  0
 18 30  1  0
 19 31  1  0
M  CHG  1   1  -1
M  END
>  <i_m_ct_stereo_status>  (305) 
1

>  <s_m_source_file>  (305) 
/var/tmp/pbs.5076255.sched01/tmpjgl1obm9/123zpz496x9.sdf

>  <i_m_source_file_index>  (305) 
4

>  <i_lp_mmshare_version>  (305) 
48012

>  <i_f3d_flags>  (305) 
0

>  <s_epik_input>  (305) 
W0NIMl0xW0NIMl1bQ0gyXUMoPU8pW0NAQEhdKEMxPTIpW0NAQEhdKG4zYyhOMiluW2NIXW4zKWM0W2NIXVtjSF1uW2NIXVtjSF00

>  <s_epik_cmdline>  (305) 
J2VwaWtfcHl0aG9uJywgJy1waHQnLCAnMi4wJywgJy1waCcsICc3LjAnLCAnLXRuJywgJzgnLCAnLW1hJywgJzIwMCcsICctaW1hZScsICc8aW5maWxlLm1hZT4nLCAnLW9tYWUnLCAnPG91dGZpbGUubWFlPic=

>  <r_epik_Ionization_Penalty>  (305) 
0.540224

>  <r_epik_Ionization_Penalty_Charging>  (305) 
0.538938

>  <r_epik_Ionization_Penalty_Neutral>  (305) 
0.00128574

>  <r_epik_State_Penalty>  (305) 
0.372075

>  <r_epik_Charging_Adjusted_Penalty>  (305) 
0.911013

>  <i_epik_Tot_Q>  (305) 
-1

>  <i_epik_Tot_abs_Q>  (305) 
1

>  <s_epik_Chemistry_Notes>  (305) 
This compound has an imine and may undergo hydrolysis.

>  <s_lp_Force_Field>  (305) 
OPLS3e

>  <r_lp_Energy>  (305) 
33.9901

>  <b_lp_Chiralities_Consistent>  (305) 
1

>  <s_lp_Variant>  (305) 
91:0-1

>  <s_i_glide_gridfile>  (305) 
pfpi4k_grid

>  <i_i_glide_lignum>  (305) 
4

>  <i_i_glide_rotatable_bonds>  (305) 
1

>  <r_i_docking_score>  (305) 
-2.3878

>  <r_i_glide_ligand_efficiency>  (305) 
-0.11939

>  <r_i_glide_ligand_efficiency_sa>  (305) 
-0.324075

>  <r_i_glide_ligand_efficiency_ln>  (305) 
-0.597589

>  <r_i_glide_gscore>  (305) 
-2.3878

>  <r_i_glide_lipo>  (305) 
-0.194513

>  <r_i_glide_hbond>  (305) 
0

>  <r_i_glide_metal>  (305) 
-0

>  <r_i_glide_rewards>  (305) 
-1.59356

>  <r_i_glide_evdw>  (305) 
-19.8884

>  <r_i_glide_ecoul>  (305) 
1.00194

>  <r_i_glide_erotb>  (305) 
0.2512

>  <r_i_glide_esite>  (305) 
-0.00680483

>  <r_i_glide_emodel>  (305) 
-22.1253

>  <r_i_glide_energy>  (305) 
-18.8864

>  <r_i_glide_einternal>  (305) 
0.295391

>  <r_i_glide_intrahb_reward>  (305) 
-0

>  <i_i_glide_confnum>  (305) 
1

>  <i_i_glide_posenum>  (305) 
19

>  <r_i_glide_eff_state_penalty>  (305) 
0

>  <ligand_id>  (305) 
91

>  <original_smiles>  (305) 
O=C1CCCC2=Nc3ncnn3C(c3ccncc3)C12

>  <smiles>  (305) 
[H]C1=C2C(=C([O-])C([H])([H])C1([H])[H])C([H])(c1c([H])c([H])nc([H])c1[H])n1nc([H])nc1N2[H]

$$$$
91:1:0
     RDKit          3D

 33 36  0  0  1  0  0  0  0  0999 V2000
    2.7937   -2.0725    1.6110 O   0  0  0  0  0  0  0  0  0  0  0  0
    3.4137   -3.2606    1.5588 C   0  0  0  0  0  0  0  0  0  0  0  0
    2.6567   -4.2909    2.3786 C   0  0  0  0  0  0  0  0  0  0  0  0
    3.0131   -5.7447    1.9933 C   0  0  0  0  0  0  0  0  0  0  0  0
    4.4246   -5.8800    1.4549 C   0  0  0  0  0  0  0  0  0  0  0  0
    5.1420   -4.8505    0.9737 C   0  0  0  0  0  0  0  0  0  0  0  0
    6.4594   -5.0414    0.5806 N   0  0  0  0  0  0  0  0  0  0  0  0
    7.2945   -3.9705    0.3081 C   0  0  0  0  0  0  0  0  0  0  0  0
    8.6135   -3.9849    0.2374 N   0  0  0  0  0  0  0  0  0  0  0  0
    8.8294   -2.6438    0.0736 C   0  0  0  0  0  0  0  0  0  0  0  0
    7.7480   -1.8613   -0.0021 N   0  0  0  0  0  0  0  0  0  0  0  0
    6.7483   -2.7605    0.1504 N   0  0  0  0  0  0  0  0  0  0  0  0
    5.3274   -2.4341    0.1079 C   0  0  1  0  0  0  0  0  0  0  0  0
    4.8647   -2.3428   -1.3434 C   0  0  0  0  0  0  0  0  0  0  0  0
    4.3331   -1.1488   -1.8726 C   0  0  0  0  0  0  0  0  0  0  0  0
    3.9026   -1.1394   -3.2169 C   0  0  0  0  0  0  0  0  0  0  0  0
    3.9889   -2.2102   -4.0370 N   0  0  0  0  0  0  0  0  0  0  0  0
    4.4927   -3.3517   -3.5211 C   0  0  0  0  0  0  0  0  0  0  0  0
    4.9442   -3.4651   -2.1970 C   0  0  0  0  0  0  0  0  0  0  0  0
    4.5562   -3.5097    0.8849 C   0  0  0  0  0  0  0  0  0  0  0  0
    1.5816   -4.1329    2.2783 H   0  0  0  0  0  0  0  0  0  0  0  0
    2.9032   -4.1204    3.4303 H   0  0  0  0  0  0  0  0  0  0  0  0
    2.9092   -6.3902    2.8677 H   0  0  0  0  0  0  0  0  0  0  0  0
    2.3351   -6.1189    1.2262 H   0  0  0  0  0  0  0  0  0  0  0  0
    4.8492   -6.8739    1.4946 H   0  0  0  0  0  0  0  0  0  0  0  0
    9.8249   -2.2326    0.0090 H   0  0  0  0  0  0  0  0  0  0  0  0
    5.2070   -1.4722    0.6044 H   0  0  0  0  0  0  0  0  0  0  0  0
    4.2389   -0.2562   -1.2728 H   0  0  0  0  0  0  0  0  0  0  0  0
    3.4899   -0.2422   -3.6600 H   0  0  0  0  0  0  0  0  0  0  0  0
    4.5441   -4.1985   -4.1911 H   0  0  0  0  0  0  0  0  0  0  0  0
    5.3295   -4.4132   -1.8533 H   0  0  0  0  0  0  0  0  0  0  0  0
    6.8957   -5.9395    0.7239 H   0  0  0  0  0  0  0  0  0  0  0  0
    3.2640   -1.4746    1.0528 H   0  0  0  0  0  0  0  0  0  0  0  0
  1  2  1  0
  1 33  1  0
  2  3  1  0
  2 20  2  0
  3  4  1  0
  3 21  1  0
  3 22  1  0
  4  5  1  0
  4 23  1  0
  4 24  1  0
  5 25  1  0
  5  6  2  0
  6 20  1  0
  6  7  1  0
  7  8  1  0
  7 32  1  0
  8 12  1  0
  8  9  2  0
  9 10  1  0
 10 11  2  0
 10 26  1  0
 11 12  1  0
 12 13  1  0
 13 14  1  0
 13 27  1  1
 13 20  1  0
 14 19  1  0
 14 15  2  0
 15 16  1  0
 15 28  1  0
 16 17  2  0
 16 29  1  0
 17 18  1  0
 18 19  2  0
 18 30  1  0
 19 31  1  0
M  END
>  <i_m_ct_stereo_status>  (306) 
1

>  <s_m_source_file>  (306) 
/var/tmp/pbs.5076255.sched01/tmpjgl1obm9/123zpz496x9.sdf

>  <i_m_source_file_index>  (306) 
5

>  <i_lp_mmshare_version>  (306) 
48012

>  <i_f3d_flags>  (306) 
0

>  <s_epik_input>  (306) 
W0NIMl0xW0NIMl1bQ0gyXUMoPU8pW0NAQEhdKEMxPTIpW0NAQEhdKG4zYyhOMiluW2NIXW4zKWM0W2NIXVtjSF1uW2NIXVtjSF00

>  <s_epik_cmdline>  (306) 
J2VwaWtfcHl0aG9uJywgJy1waHQnLCAnMi4wJywgJy1waCcsICc3LjAnLCAnLXRuJywgJzgnLCAnLW1hJywgJzIwMCcsICctaW1hZScsICc8aW5maWxlLm1hZT4nLCAnLW9tYWUnLCAnPG91dGZpbGUubWFlPic=

>  <r_epik_Ionization_Penalty>  (306) 
0.311496

>  <r_epik_Ionization_Penalty_Charging>  (306) 
2.93331e-10

>  <r_epik_Ionization_Penalty_Neutral>  (306) 
0.311496

>  <r_epik_State_Penalty>  (306) 
0.456266

>  <r_epik_Charging_Adjusted_Penalty>  (306) 
0.456266

>  <i_epik_Tot_Q>  (306) 
0

>  <i_epik_Tot_abs_Q>  (306) 
0

>  <s_epik_Chemistry_Notes>  (306) 
This compound has an imine and may undergo hydrolysis.

>  <s_lp_Force_Field>  (306) 
OPLS3e

>  <r_lp_Energy>  (306) 
35.1058

>  <b_lp_Chiralities_Consistent>  (306) 
1

>  <s_lp_Variant>  (306) 
91:0-2

>  <s_i_glide_gridfile>  (306) 
pfpi4k_grid

>  <i_i_glide_lignum>  (306) 
5

>  <i_i_glide_rotatable_bonds>  (306) 
2

>  <r_i_docking_score>  (306) 
-4.65921

>  <r_i_glide_ligand_efficiency>  (306) 
-0.232961

>  <r_i_glide_ligand_efficiency_sa>  (306) 
-0.632353

>  <r_i_glide_ligand_efficiency_ln>  (306) 
-1.16605

>  <r_i_glide_gscore>  (306) 
-4.65921

>  <r_i_glide_lipo>  (306) 
-0.561319

>  <r_i_glide_hbond>  (306) 
-0.355929

>  <r_i_glide_metal>  (306) 
-0

>  <r_i_glide_rewards>  (306) 
-1.89587

>  <r_i_glide_evdw>  (306) 
-28.2885

>  <r_i_glide_ecoul>  (306) 
-4.33391

>  <r_i_glide_erotb>  (306) 
0.249566

>  <r_i_glide_esite>  (306) 
-0.0311553

>  <r_i_glide_emodel>  (306) 
-42.5129

>  <r_i_glide_energy>  (306) 
-32.6224

>  <r_i_glide_einternal>  (306) 
0.203844

>  <r_i_glide_intrahb_reward>  (306) 
-0

>  <i_i_glide_confnum>  (306) 
1

>  <i_i_glide_posenum>  (306) 
26

>  <r_i_glide_eff_state_penalty>  (306) 
0

>  <ligand_id>  (306) 
91

>  <original_smiles>  (306) 
O=C1CCCC2=Nc3ncnn3C(c3ccncc3)C12

>  <smiles>  (306) 
[H]OC1=C2C(=C([H])C([H])([H])C1([H])[H])N([H])c1nc([H])nn1C2([H])c1c([H])c([H])nc([H])c1[H]

$$$$
91:1:1
     RDKit          3D

 33 36  0  0  1  0  0  0  0  0999 V2000
    3.3780   -0.4229    1.2716 O   0  0  0  0  0  0  0  0  0  0  0  0
    3.5723   -1.7284    1.5095 C   0  0  0  0  0  0  0  0  0  0  0  0
    2.6630   -2.2080    2.6273 C   0  0  0  0  0  0  0  0  0  0  0  0
    2.5091   -3.7458    2.6588 C   0  0  0  0  0  0  0  0  0  0  0  0
    3.7151   -4.4735    2.0951 C   0  0  0  0  0  0  0  0  0  0  0  0
    4.6289   -3.8989    1.2961 C   0  0  0  0  0  0  0  0  0  0  0  0
    5.7613   -4.6026    0.9053 N   0  0  0  0  0  0  0  0  0  0  0  0
    6.8325   -3.9591    0.3067 C   0  0  0  0  0  0  0  0  0  0  0  0
    8.0674   -4.4060    0.1826 N   0  0  0  0  0  0  0  0  0  0  0  0
    8.6313   -3.3128   -0.4131 C   0  0  0  0  0  0  0  0  0  0  0  0
    7.8278   -2.2725   -0.6562 N   0  0  0  0  0  0  0  0  0  0  0  0
    6.6513   -2.7232   -0.1680 N   0  0  0  0  0  0  0  0  0  0  0  0
    5.4082   -1.9746   -0.2192 C   0  0  1  0  0  0  0  0  0  0  0  0
    4.7996   -2.0805   -1.6132 C   0  0  0  0  0  0  0  0  0  0  0  0
    4.6280   -3.3323   -2.2454 C   0  0  0  0  0  0  0  0  0  0  0  0
    4.0684   -3.3683   -3.5353 C   0  0  0  0  0  0  0  0  0  0  0  0
    3.6897   -2.2643   -4.2109 N   0  0  0  0  0  0  0  0  0  0  0  0
    3.8201   -1.0737   -3.5906 C   0  0  0  0  0  0  0  0  0  0  0  0
    4.3839   -0.9266   -2.3075 C   0  0  0  0  0  0  0  0  0  0  0  0
    4.4673   -2.5064    0.8637 C   0  0  0  0  0  0  0  0  0  0  0  0
    1.6806   -1.7373    2.5372 H   0  0  0  0  0  0  0  0  0  0  0  0
    3.0974   -1.8683    3.5718 H   0  0  0  0  0  0  0  0  0  0  0  0
    2.3419   -4.0797    3.6844 H   0  0  0  0  0  0  0  0  0  0  0  0
    1.6466   -4.0550    2.0723 H   0  0  0  0  0  0  0  0  0  0  0  0
    3.8228   -5.5066    2.3943 H   0  0  0  0  0  0  0  0  0  0  0  0
    9.6847   -3.2830   -0.6486 H   0  0  0  0  0  0  0  0  0  0  0  0
    5.6648   -0.9410    0.0032 H   0  0  0  0  0  0  0  0  0  0  0  0
    4.9130   -4.2602   -1.7714 H   0  0  0  0  0  0  0  0  0  0  0  0
    3.9271   -4.3084   -4.0477 H   0  0  0  0  0  0  0  0  0  0  0  0
    3.4844   -0.2107   -4.1480 H   0  0  0  0  0  0  0  0  0  0  0  0
    4.4797    0.0604   -1.8802 H   0  0  0  0  0  0  0  0  0  0  0  0
    5.9168   -5.5332    1.2656 H   0  0  0  0  0  0  0  0  0  0  0  0
    3.9293   -0.1775    0.5477 H   0  0  0  0  0  0  0  0  0  0  0  0
  1  2  1  0
  1 33  1  0
  2  3  1  0
  2 20  2  0
  3  4  1  0
  3 21  1  0
  3 22  1  0
  4  5  1  0
  4 23  1  0
  4 24  1  0
  5 25  1  0
  5  6  2  0
  6 20  1  0
  6  7  1  0
  7  8  1  0
  7 32  1  0
  8 12  1  0
  8  9  2  0
  9 10  1  0
 10 11  2  0
 10 26  1  0
 11 12  1  0
 12 13  1  0
 13 14  1  0
 13 27  1  1
 13 20  1  0
 14 19  1  0
 14 15  2  0
 15 16  1  0
 15 28  1  0
 16 17  2  0
 16 29  1  0
 17 18  1  0
 18 19  2  0
 18 30  1  0
 19 31  1  0
M  END
>  <i_m_ct_stereo_status>  (307) 
1

>  <s_m_source_file>  (307) 
/var/tmp/pbs.5076255.sched01/tmpjgl1obm9/123zpz496x9.sdf

>  <i_m_source_file_index>  (307) 
5

>  <i_lp_mmshare_version>  (307) 
48012

>  <i_f3d_flags>  (307) 
0

>  <s_epik_input>  (307) 
W0NIMl0xW0NIMl1bQ0gyXUMoPU8pW0NAQEhdKEMxPTIpW0NAQEhdKG4zYyhOMiluW2NIXW4zKWM0W2NIXVtjSF1uW2NIXVtjSF00

>  <s_epik_cmdline>  (307) 
J2VwaWtfcHl0aG9uJywgJy1waHQnLCAnMi4wJywgJy1waCcsICc3LjAnLCAnLXRuJywgJzgnLCAnLW1hJywgJzIwMCcsICctaW1hZScsICc8aW5maWxlLm1hZT4nLCAnLW9tYWUnLCAnPG91dGZpbGUubWFlPic=

>  <r_epik_Ionization_Penalty>  (307) 
0.311496

>  <r_epik_Ionization_Penalty_Charging>  (307) 
2.93331e-10

>  <r_epik_Ionization_Penalty_Neutral>  (307) 
0.311496

>  <r_epik_State_Penalty>  (307) 
0.456266

>  <r_epik_Charging_Adjusted_Penalty>  (307) 
0.456266

>  <i_epik_Tot_Q>  (307) 
0

>  <i_epik_Tot_abs_Q>  (307) 
0

>  <s_epik_Chemistry_Notes>  (307) 
This compound has an imine and may undergo hydrolysis.

>  <s_lp_Force_Field>  (307) 
OPLS3e

>  <r_lp_Energy>  (307) 
35.1058

>  <b_lp_Chiralities_Consistent>  (307) 
1

>  <s_lp_Variant>  (307) 
91:0-2

>  <s_i_glide_gridfile>  (307) 
pfpi4k_grid

>  <i_i_glide_lignum>  (307) 
5

>  <i_i_glide_rotatable_bonds>  (307) 
2

>  <r_i_docking_score>  (307) 
-4.61073

>  <r_i_glide_ligand_efficiency>  (307) 
-0.230536

>  <r_i_glide_ligand_efficiency_sa>  (307) 
-0.625772

>  <r_i_glide_ligand_efficiency_ln>  (307) 
-1.15391

>  <r_i_glide_gscore>  (307) 
-4.61073

>  <r_i_glide_lipo>  (307) 
-0.483195

>  <r_i_glide_hbond>  (307) 
-0.48

>  <r_i_glide_metal>  (307) 
-0

>  <r_i_glide_rewards>  (307) 
-1.79942

>  <r_i_glide_evdw>  (307) 
-27.5075

>  <r_i_glide_ecoul>  (307) 
-4.81537

>  <r_i_glide_erotb>  (307) 
0.249566

>  <r_i_glide_esite>  (307) 
0

>  <r_i_glide_emodel>  (307) 
-42.1188

>  <r_i_glide_energy>  (307) 
-32.3229

>  <r_i_glide_einternal>  (307) 
0.254077

>  <r_i_glide_intrahb_reward>  (307) 
-0

>  <i_i_glide_confnum>  (307) 
1

>  <i_i_glide_posenum>  (307) 
10

>  <r_i_glide_eff_state_penalty>  (307) 
0

>  <ligand_id>  (307) 
91

>  <original_smiles>  (307) 
O=C1CCCC2=Nc3ncnn3C(c3ccncc3)C12

>  <smiles>  (307) 
[H]OC1=C2C(=C([H])C([H])([H])C1([H])[H])N([H])c1nc([H])nn1C2([H])c1c([H])c([H])nc([H])c1[H]

$$$$
91:1:2
     RDKit          3D

 33 36  0  0  1  0  0  0  0  0999 V2000
    3.7111    0.1205    1.6251 O   0  0  0  0  0  0  0  0  0  0  0  0
    3.8650   -1.1689    1.9613 C   0  0  0  0  0  0  0  0  0  0  0  0
    3.1243   -1.4765    3.2523 C   0  0  0  0  0  0  0  0  0  0  0  0
    2.8544   -2.9860    3.4422 C   0  0  0  0  0  0  0  0  0  0  0  0
    3.8939   -3.8615    2.7664 C   0  0  0  0  0  0  0  0  0  0  0  0
    4.7074   -3.4347    1.7846 C   0  0  0  0  0  0  0  0  0  0  0  0
    5.6850   -4.2726    1.2604 N   0  0  0  0  0  0  0  0  0  0  0  0
    6.6785   -3.7878    0.4238 C   0  0  0  0  0  0  0  0  0  0  0  0
    7.8430   -4.3486    0.1508 N   0  0  0  0  0  0  0  0  0  0  0  0
    8.3847   -3.3663   -0.6284 C   0  0  0  0  0  0  0  0  0  0  0  0
    7.6312   -2.2787   -0.8260 N   0  0  0  0  0  0  0  0  0  0  0  0
    6.5137   -2.5830   -0.1261 N   0  0  0  0  0  0  0  0  0  0  0  0
    5.3439   -1.7246   -0.0247 C   0  0  1  0  0  0  0  0  0  0  0  0
    4.4890   -1.8851   -1.2788 C   0  0  0  0  0  0  0  0  0  0  0  0
    3.5687   -2.9487   -1.4141 C   0  0  0  0  0  0  0  0  0  0  0  0
    2.8195   -3.0543   -2.6030 C   0  0  0  0  0  0  0  0  0  0  0  0
    2.9509   -2.1975   -3.6368 N   0  0  0  0  0  0  0  0  0  0  0  0
    3.8167   -1.1746   -3.4968 C   0  0  0  0  0  0  0  0  0  0  0  0
    4.6116   -0.9785   -2.3486 C   0  0  0  0  0  0  0  0  0  0  0  0
    4.5822   -2.0704    1.2588 C   0  0  0  0  0  0  0  0  0  0  0  0
    2.1817   -0.9262    3.2833 H   0  0  0  0  0  0  0  0  0  0  0  0
    3.7428   -1.1103    4.0768 H   0  0  0  0  0  0  0  0  0  0  0  0
    2.8426   -3.2248    4.5073 H   0  0  0  0  0  0  0  0  0  0  0  0
    1.8816   -3.2590    3.0291 H   0  0  0  0  0  0  0  0  0  0  0  0
    3.9639   -4.8768    3.1310 H   0  0  0  0  0  0  0  0  0  0  0  0
    9.3781   -3.4536   -1.0452 H   0  0  0  0  0  0  0  0  0  0  0  0
    5.7112   -0.7038    0.0522 H   0  0  0  0  0  0  0  0  0  0  0  0
    3.4241   -3.6813   -0.6355 H   0  0  0  0  0  0  0  0  0  0  0  0
    2.0956   -3.8452   -2.7267 H   0  0  0  0  0  0  0  0  0  0  0  0
    3.8823   -0.4961   -4.3368 H   0  0  0  0  0  0  0  0  0  0  0  0
    5.2950   -0.1449   -2.3074 H   0  0  0  0  0  0  0  0  0  0  0  0
    5.8246   -5.1835    1.6726 H   0  0  0  0  0  0  0  0  0  0  0  0
    4.1731    0.2643    0.8159 H   0  0  0  0  0  0  0  0  0  0  0  0
  1  2  1  0
  1 33  1  0
  2  3  1  0
  2 20  2  0
  3  4  1  0
  3 21  1  0
  3 22  1  0
  4  5  1  0
  4 23  1  0
  4 24  1  0
  5 25  1  0
  5  6  2  0
  6 20  1  0
  6  7  1  0
  7  8  1  0
  7 32  1  0
  8 12  1  0
  8  9  2  0
  9 10  1  0
 10 11  2  0
 10 26  1  0
 11 12  1  0
 12 13  1  0
 13 14  1  0
 13 27  1  1
 13 20  1  0
 14 19  1  0
 14 15  2  0
 15 16  1  0
 15 28  1  0
 16 17  2  0
 16 29  1  0
 17 18  1  0
 18 19  2  0
 18 30  1  0
 19 31  1  0
M  END
>  <i_m_ct_stereo_status>  (308) 
1

>  <s_m_source_file>  (308) 
/var/tmp/pbs.5076255.sched01/tmpjgl1obm9/123zpz496x9.sdf

>  <i_m_source_file_index>  (308) 
5

>  <i_lp_mmshare_version>  (308) 
48012

>  <i_f3d_flags>  (308) 
0

>  <s_epik_input>  (308) 
W0NIMl0xW0NIMl1bQ0gyXUMoPU8pW0NAQEhdKEMxPTIpW0NAQEhdKG4zYyhOMiluW2NIXW4zKWM0W2NIXVtjSF1uW2NIXVtjSF00

>  <s_epik_cmdline>  (308) 
J2VwaWtfcHl0aG9uJywgJy1waHQnLCAnMi4wJywgJy1waCcsICc3LjAnLCAnLXRuJywgJzgnLCAnLW1hJywgJzIwMCcsICctaW1hZScsICc8aW5maWxlLm1hZT4nLCAnLW9tYWUnLCAnPG91dGZpbGUubWFlPic=

>  <r_epik_Ionization_Penalty>  (308) 
0.311496

>  <r_epik_Ionization_Penalty_Charging>  (308) 
2.93331e-10

>  <r_epik_Ionization_Penalty_Neutral>  (308) 
0.311496

>  <r_epik_State_Penalty>  (308) 
0.456266

>  <r_epik_Charging_Adjusted_Penalty>  (308) 
0.456266

>  <i_epik_Tot_Q>  (308) 
0

>  <i_epik_Tot_abs_Q>  (308) 
0

>  <s_epik_Chemistry_Notes>  (308) 
This compound has an imine and may undergo hydrolysis.

>  <s_lp_Force_Field>  (308) 
OPLS3e

>  <r_lp_Energy>  (308) 
35.1058

>  <b_lp_Chiralities_Consistent>  (308) 
1

>  <s_lp_Variant>  (308) 
91:0-2

>  <s_i_glide_gridfile>  (308) 
pfpi4k_grid

>  <i_i_glide_lignum>  (308) 
5

>  <i_i_glide_rotatable_bonds>  (308) 
2

>  <r_i_docking_score>  (308) 
-3.86266

>  <r_i_glide_ligand_efficiency>  (308) 
-0.193133

>  <r_i_glide_ligand_efficiency_sa>  (308) 
-0.524243

>  <r_i_glide_ligand_efficiency_ln>  (308) 
-0.966696

>  <r_i_glide_gscore>  (308) 
-3.86266

>  <r_i_glide_lipo>  (308) 
-0.243076

>  <r_i_glide_hbond>  (308) 
-0.16

>  <r_i_glide_metal>  (308) 
-0

>  <r_i_glide_rewards>  (308) 
-1.8779

>  <r_i_glide_evdw>  (308) 
-27.3823

>  <r_i_glide_ecoul>  (308) 
-3.08087

>  <r_i_glide_erotb>  (308) 
0.249566

>  <r_i_glide_esite>  (308) 
0

>  <r_i_glide_emodel>  (308) 
-38.7126

>  <r_i_glide_energy>  (308) 
-30.4632

>  <r_i_glide_einternal>  (308) 
0.0498736

>  <r_i_glide_intrahb_reward>  (308) 
-0

>  <i_i_glide_confnum>  (308) 
3

>  <i_i_glide_posenum>  (308) 
36

>  <r_i_glide_eff_state_penalty>  (308) 
0

>  <ligand_id>  (308) 
91

>  <original_smiles>  (308) 
O=C1CCCC2=Nc3ncnn3C(c3ccncc3)C12

>  <smiles>  (308) 
[H]OC1=C2C(=C([H])C([H])([H])C1([H])[H])N([H])c1nc([H])nn1C2([H])c1c([H])c([H])nc([H])c1[H]

$$$$
93:0:0
     RDKit          3D

 52 58  0  0  1  0  0  0  0  0999 V2000
    6.8365   -6.1482    0.8976 C   0  0  0  0  0  0  0  0  0  0  0  0
    6.1688   -4.9538    0.1790 C   0  0  2  0  0  0  0  0  0  0  0  0
    7.1802   -3.8749   -0.3195 C   0  0  2  0  0  0  0  0  0  0  0  0
    7.4947   -3.1825    0.9314 C   0  0  0  0  0  0  0  0  0  0  0  0
    6.0991   -2.9386    1.4813 C   0  0  1  0  0  0  0  0  0  0  0  0
    5.5129   -1.6710    0.9154 C   0  0  2  0  0  0  0  0  0  0  0  0
    4.2444   -1.2732    1.7758 C   0  0  0  0  0  0  0  0  0  0  0  0
    4.7177   -0.5522    3.0563 C   0  0  0  0  0  0  0  0  0  0  0  0
    3.4144   -0.2112    1.0290 C   0  0  0  0  0  0  0  0  0  0  0  0
    3.3106   -2.4837    2.1915 C   0  0  2  0  0  0  0  0  0  0  0  0
    3.8744   -3.5942    3.1372 C   0  0  0  0  0  0  0  0  0  0  0  0
    4.6544   -4.7133    2.3822 C   0  0  0  0  0  0  0  0  0  0  0  0
    5.1861   -4.1330    1.0499 C   0  0  2  0  0  0  0  0  0  0  0  0
    3.9126   -3.7886    0.1400 C   0  0  1  0  0  0  0  0  0  0  0  0
    2.7618   -3.2425    0.9919 C   0  0  0  0  0  0  0  0  0  0  0  0
    4.1676   -2.8168   -1.0086 C   0  0  2  0  0  0  0  0  0  0  0  0
    3.0039   -2.3565   -1.9844 C   0  0  0  0  0  0  0  0  0  0  0  0
    3.6546   -3.1659   -3.1050 C   0  0  0  0  0  0  0  0  0  0  0  0
    3.4902   -3.4278   -4.2898 O   0  0  0  0  0  0  0  0  0  0  0  0
    4.7087   -3.4935   -2.2312 C   0  0  0  0  0  0  0  0  0  0  0  0
    6.0137   -3.4231   -2.4549 C   0  0  0  0  0  0  0  0  0  0  0  0
    6.6132   -2.7778   -1.2621 C   0  0  1  0  0  0  0  0  0  0  0  0
    5.3855   -1.9841   -0.6296 C   0  0  2  0  0  0  0  0  0  0  0  0
    5.3473   -0.7905   -1.3588 O   0  0  0  0  0  0  0  0  0  0  0  0
    7.3421   -5.8952    1.8296 H   0  0  0  0  0  0  0  0  0  0  0  0
    7.5859   -6.6049    0.2518 H   0  0  0  0  0  0  0  0  0  0  0  0
    6.0959   -6.9162    1.1281 H   0  0  0  0  0  0  0  0  0  0  0  0
    5.6521   -5.3941   -0.6683 H   0  0  0  0  0  0  0  0  0  0  0  0
    8.1110   -4.2993   -0.7104 H   0  0  0  0  0  0  0  0  0  0  0  0
    8.0528   -3.8522    1.5791 H   0  0  0  0  0  0  0  0  0  0  0  0
    8.0934   -2.2812    0.8147 H   0  0  0  0  0  0  0  0  0  0  0  0
    6.2047   -2.8437    2.5510 H   0  0  0  0  0  0  0  0  0  0  0  0
    6.2541   -0.8765    1.0256 H   0  0  0  0  0  0  0  0  0  0  0  0
    3.8714   -0.2606    3.6735 H   0  0  0  0  0  0  0  0  0  0  0  0
    5.2615    0.3599    2.8234 H   0  0  0  0  0  0  0  0  0  0  0  0
    5.3792   -1.1503    3.6763 H   0  0  0  0  0  0  0  0  0  0  0  0
    2.5734    0.1318    1.6301 H   0  0  0  0  0  0  0  0  0  0  0  0
    2.9960   -0.5813    0.0977 H   0  0  0  0  0  0  0  0  0  0  0  0
    4.0139    0.6670    0.7921 H   0  0  0  0  0  0  0  0  0  0  0  0
    2.4629   -2.0464    2.7154 H   0  0  0  0  0  0  0  0  0  0  0  0
    4.4788   -3.1615    3.9306 H   0  0  0  0  0  0  0  0  0  0  0  0
    3.0432   -4.0671    3.6563 H   0  0  0  0  0  0  0  0  0  0  0  0
    5.4606   -5.0815    3.0182 H   0  0  0  0  0  0  0  0  0  0  0  0
    4.0046   -5.5639    2.1753 H   0  0  0  0  0  0  0  0  0  0  0  0
    3.5449   -4.7256   -0.2713 H   0  0  0  0  0  0  0  0  0  0  0  0
    2.1461   -4.0707    1.3477 H   0  0  0  0  0  0  0  0  0  0  0  0
    2.0879   -2.6081    0.4344 H   0  0  0  0  0  0  0  0  0  0  0  0
    2.0353   -2.7412   -1.6796 H   0  0  0  0  0  0  0  0  0  0  0  0
    2.9333   -1.2806   -2.1477 H   0  0  0  0  0  0  0  0  0  0  0  0
    6.5367   -3.4297   -3.4000 H   0  0  0  0  0  0  0  0  0  0  0  0
    7.4325   -2.1192   -1.5641 H   0  0  0  0  0  0  0  0  0  0  0  0
    4.7022   -0.2385   -0.9528 H   0  0  0  0  0  0  0  0  0  0  0  0
  1  2  1  0
  1 25  1  0
  1 26  1  0
  1 27  1  0
  2 13  1  0
  2  3  1  0
  2 28  1  6
  3 22  1  0
  3  4  1  0
  3 29  1  6
  4  5  1  0
  4 30  1  0
  4 31  1  0
  5 13  1  0
  5  6  1  0
  5 32  1  1
  6 23  1  0
  6  7  1  0
  6 33  1  6
  7  8  1  0
  7  9  1  0
  7 10  1  0
  8 34  1  0
  8 35  1  0
  8 36  1  0
  9 37  1  0
  9 38  1  0
  9 39  1  0
 10 15  1  0
 10 11  1  0
 10 40  1  1
 11 12  1  0
 11 41  1  0
 11 42  1  0
 13 12  1  1
 12 43  1  0
 12 44  1  0
 13 14  1  0
 14 15  1  0
 14 16  1  0
 14 45  1  6
 15 46  1  0
 15 47  1  0
 16 20  1  0
 16 23  1  0
 16 17  1  6
 17 18  1  0
 17 48  1  0
 17 49  1  0
 18 19  2  0
 18 20  1  0
 20 21  2  0
 21 22  1  0
 21 50  1  0
 22 23  1  0
 22 51  1  6
 23 24  1  6
 24 52  1  0
M  END
>  <i_m_ct_stereo_status>  (309) 
1

>  <s_m_source_file>  (309) 
/var/tmp/pbs.5076255.sched01/tmpjgl1obm9/123zpz496x9.sdf

>  <i_m_source_file_index>  (309) 
7

>  <i_lp_mmshare_version>  (309) 
48012

>  <i_f3d_flags>  (309) 
0

>  <s_epik_input>  (309) 
W0NIM11bQ0BASF0xW0NASF0oW0NIMl0yKVtDQEhdM1tDSF09QyhDKD1PKVtDSDJdNClbQ0BdNChbQ0BAXTMoW09IXSlbQ0BASF01W0NASF0yW0NAQF0xNjcpW0NAQEhdN1tDSDJdW0NASF0oQzUoW0NIM10pW0NIM10pW0NIMl1bQ0gyXTY=

>  <s_epik_cmdline>  (309) 
J2VwaWtfcHl0aG9uJywgJy1waHQnLCAnMi4wJywgJy1waCcsICc3LjAnLCAnLXRuJywgJzgnLCAnLW1hJywgJzIwMCcsICctaW1hZScsICc8aW5maWxlLm1hZT4nLCAnLW9tYWUnLCAnPG91dGZpbGUubWFlPic=

>  <r_lp_tautomer_probability>  (309) 
1

>  <r_epik_Ionization_Penalty>  (309) 
8.66639e-08

>  <r_epik_Ionization_Penalty_Charging>  (309) 
0

>  <r_epik_Ionization_Penalty_Neutral>  (309) 
8.66639e-08

>  <r_epik_State_Penalty>  (309) 
-0

>  <r_epik_Charging_Adjusted_Penalty>  (309) 
0

>  <i_epik_Tot_Q>  (309) 
0

>  <i_epik_Tot_abs_Q>  (309) 
0

>  <s_lp_Force_Field>  (309) 
OPLS3e

>  <r_lp_Energy>  (309) 
116.233

>  <b_lp_Chiralities_Consistent>  (309) 
1

>  <s_lp_Variant>  (309) 
93:0-1

>  <s_i_glide_gridfile>  (309) 
pfpi4k_grid

>  <i_i_glide_lignum>  (309) 
7

>  <i_i_glide_rotatable_bonds>  (309) 
1

>  <r_i_docking_score>  (309) 
-4.19413

>  <r_i_glide_ligand_efficiency>  (309) 
-0.174755

>  <r_i_glide_ligand_efficiency_sa>  (309) 
-0.504082

>  <r_i_glide_ligand_efficiency_ln>  (309) 
-1.00385

>  <r_i_glide_gscore>  (309) 
-4.19413

>  <r_i_glide_lipo>  (309) 
-1.01472

>  <r_i_glide_hbond>  (309) 
-0.117093

>  <r_i_glide_metal>  (309) 
-0

>  <r_i_glide_rewards>  (309) 
-1.26807

>  <r_i_glide_evdw>  (309) 
-24.5797

>  <r_i_glide_ecoul>  (309) 
-3.76838

>  <r_i_glide_erotb>  (309) 
0

>  <r_i_glide_esite>  (309) 
0

>  <r_i_glide_emodel>  (309) 
-35.5376

>  <r_i_glide_energy>  (309) 
-28.3481

>  <r_i_glide_einternal>  (309) 
0.0232173

>  <r_i_glide_intrahb_reward>  (309) 
-0

>  <i_i_glide_confnum>  (309) 
1

>  <i_i_glide_posenum>  (309) 
39

>  <r_i_glide_eff_state_penalty>  (309) 
0

>  <ligand_id>  (309) 
93

>  <original_smiles>  (309) 
CC1C2CC3C4C(C)(C)C5CCC13C(C5)C13CC(=O)C1=CC2C43O

>  <smiles>  (309) 
[H]OC12C3([H])C([H])=C4C(=O)C([H])([H])C41C1([H])C([H])([H])C4([H])C([H])([H])C([H])([H])C15C([H])(C([H])([H])[H])C3([H])C([H])([H])C5([H])C2([H])C4(C([H])([H])[H])C([H])([H])[H]

$$$$
93:0:1
     RDKit          3D

 52 58  0  0  1  0  0  0  0  0999 V2000
    7.3139   -5.7796    2.2665 C   0  0  0  0  0  0  0  0  0  0  0  0
    6.1726   -4.7555    2.0719 C   0  0  2  0  0  0  0  0  0  0  0  0
    4.7563   -5.4058    1.9569 C   0  0  2  0  0  0  0  0  0  0  0  0
    4.7804   -5.9102    0.5399 C   0  0  0  0  0  0  0  0  0  0  0  0
    5.2667   -4.6462   -0.1648 C   0  0  1  0  0  0  0  0  0  0  0  0
    4.1219   -3.7088   -0.4848 C   0  0  2  0  0  0  0  0  0  0  0  0
    4.6309   -2.6468   -1.5445 C   0  0  0  0  0  0  0  0  0  0  0  0
    4.5941   -3.2855   -2.9576 C   0  0  0  0  0  0  0  0  0  0  0  0
    3.6420   -1.4662   -1.6524 C   0  0  0  0  0  0  0  0  0  0  0  0
    6.0889   -2.0875   -1.2861 C   0  0  2  0  0  0  0  0  0  0  0  0
    7.3175   -3.0544   -1.3559 C   0  0  0  0  0  0  0  0  0  0  0  0
    7.5850   -3.8141   -0.0159 C   0  0  0  0  0  0  0  0  0  0  0  0
    6.2632   -3.8910    0.7825 C   0  0  2  0  0  0  0  0  0  0  0  0
    5.8847   -2.3853    1.1844 C   0  0  1  0  0  0  0  0  0  0  0  0
    6.2253   -1.3895    0.0615 C   0  0  0  0  0  0  0  0  0  0  0  0
    4.4181   -2.1442    1.5868 C   0  0  2  0  0  0  0  0  0  0  0  0
    3.9121   -0.6940    2.0040 C   0  0  0  0  0  0  0  0  0  0  0  0
    3.8010   -1.1615    3.4709 C   0  0  0  0  0  0  0  0  0  0  0  0
    3.4866   -0.7198    4.5518 O   0  0  0  0  0  0  0  0  0  0  0  0
    4.1435   -2.4692    3.0431 C   0  0  0  0  0  0  0  0  0  0  0  0
    3.5903   -3.6447    3.3208 C   0  0  0  0  0  0  0  0  0  0  0  0
    3.5442   -4.4135    2.0215 C   0  0  1  0  0  0  0  0  0  0  0  0
    3.5805   -3.2533    0.9188 C   0  0  2  0  0  0  0  0  0  0  0  0
    2.2547   -2.7769    0.7824 O   0  0  0  0  0  0  0  0  0  0  0  0
    7.4454   -6.4554    1.4234 H   0  0  0  0  0  0  0  0  0  0  0  0
    7.1412   -6.3891    3.1540 H   0  0  0  0  0  0  0  0  0  0  0  0
    8.2643   -5.2670    2.4202 H   0  0  0  0  0  0  0  0  0  0  0  0
    6.2081   -4.1358    2.9639 H   0  0  0  0  0  0  0  0  0  0  0  0
    4.6287   -6.2202    2.6737 H   0  0  0  0  0  0  0  0  0  0  0  0
    5.4909   -6.7263    0.4288 H   0  0  0  0  0  0  0  0  0  0  0  0
    3.8158   -6.2747    0.1807 H   0  0  0  0  0  0  0  0  0  0  0  0
    5.7131   -5.0085   -1.0838 H   0  0  0  0  0  0  0  0  0  0  0  0
    3.3305   -4.2892   -0.9600 H   0  0  0  0  0  0  0  0  0  0  0  0
    4.9395   -2.5868   -3.7192 H   0  0  0  0  0  0  0  0  0  0  0  0
    3.5789   -3.5754   -3.2310 H   0  0  0  0  0  0  0  0  0  0  0  0
    5.2005   -4.1839   -3.0463 H   0  0  0  0  0  0  0  0  0  0  0  0
    3.9316   -0.7572   -2.4294 H   0  0  0  0  0  0  0  0  0  0  0  0
    3.5607   -0.8923   -0.7316 H   0  0  0  0  0  0  0  0  0  0  0  0
    2.6361   -1.8104   -1.8999 H   0  0  0  0  0  0  0  0  0  0  0  0
    6.2300   -1.3398   -2.0623 H   0  0  0  0  0  0  0  0  0  0  0  0
    7.2088   -3.7409   -2.1934 H   0  0  0  0  0  0  0  0  0  0  0  0
    8.2203   -2.4930   -1.6044 H   0  0  0  0  0  0  0  0  0  0  0  0
    7.9875   -4.8028   -0.2333 H   0  0  0  0  0  0  0  0  0  0  0  0
    8.3470   -3.2985    0.5701 H   0  0  0  0  0  0  0  0  0  0  0  0
    6.5199   -2.0877    2.0223 H   0  0  0  0  0  0  0  0  0  0  0  0
    7.2517   -1.0379    0.1932 H   0  0  0  0  0  0  0  0  0  0  0  0
    5.6253   -0.4808    0.0788 H   0  0  0  0  0  0  0  0  0  0  0  0
    4.6641    0.0791    1.8667 H   0  0  0  0  0  0  0  0  0  0  0  0
    2.9765   -0.3967    1.5358 H   0  0  0  0  0  0  0  0  0  0  0  0
    2.9861   -3.9025    4.1711 H   0  0  0  0  0  0  0  0  0  0  0  0
    2.6090   -4.9747    1.9592 H   0  0  0  0  0  0  0  0  0  0  0  0
    2.2309   -2.0879    0.1306 H   0  0  0  0  0  0  0  0  0  0  0  0
  1  2  1  0
  1 25  1  0
  1 26  1  0
  1 27  1  0
  2 13  1  0
  2  3  1  0
  2 28  1  1
  3 22  1  0
  3  4  1  0
  3 29  1  1
  4  5  1  0
  4 30  1  0
  4 31  1  0
  5 13  1  0
  5  6  1  0
  5 32  1  6
  6 23  1  0
  6  7  1  0
  6 33  1  6
  7  8  1  0
  7  9  1  0
  7 10  1  0
  8 34  1  0
  8 35  1  0
  8 36  1  0
  9 37  1  0
  9 38  1  0
  9 39  1  0
 10 15  1  0
 10 11  1  0
 10 40  1  6
 11 12  1  0
 11 41  1  0
 11 42  1  0
 13 12  1  6
 12 43  1  0
 12 44  1  0
 13 14  1  0
 14 15  1  0
 14 16  1  0
 14 45  1  1
 15 46  1  0
 15 47  1  0
 16 20  1  0
 16 23  1  0
 16 17  1  6
 17 18  1  0
 17 48  1  0
 17 49  1  0
 18 19  2  0
 18 20  1  0
 20 21  2  0
 21 22  1  0
 21 50  1  0
 22 23  1  0
 22 51  1  1
 23 24  1  6
 24 52  1  0
M  END
>  <i_m_ct_stereo_status>  (310) 
1

>  <s_m_source_file>  (310) 
/var/tmp/pbs.5076255.sched01/tmpjgl1obm9/123zpz496x9.sdf

>  <i_m_source_file_index>  (310) 
7

>  <i_lp_mmshare_version>  (310) 
48012

>  <i_f3d_flags>  (310) 
0

>  <s_epik_input>  (310) 
W0NIM11bQ0BASF0xW0NASF0oW0NIMl0yKVtDQEhdM1tDSF09QyhDKD1PKVtDSDJdNClbQ0BdNChbQ0BAXTMoW09IXSlbQ0BASF01W0NASF0yW0NAQF0xNjcpW0NAQEhdN1tDSDJdW0NASF0oQzUoW0NIM10pW0NIM10pW0NIMl1bQ0gyXTY=

>  <s_epik_cmdline>  (310) 
J2VwaWtfcHl0aG9uJywgJy1waHQnLCAnMi4wJywgJy1waCcsICc3LjAnLCAnLXRuJywgJzgnLCAnLW1hJywgJzIwMCcsICctaW1hZScsICc8aW5maWxlLm1hZT4nLCAnLW9tYWUnLCAnPG91dGZpbGUubWFlPic=

>  <r_lp_tautomer_probability>  (310) 
1

>  <r_epik_Ionization_Penalty>  (310) 
8.66639e-08

>  <r_epik_Ionization_Penalty_Charging>  (310) 
0

>  <r_epik_Ionization_Penalty_Neutral>  (310) 
8.66639e-08

>  <r_epik_State_Penalty>  (310) 
-0

>  <r_epik_Charging_Adjusted_Penalty>  (310) 
0

>  <i_epik_Tot_Q>  (310) 
0

>  <i_epik_Tot_abs_Q>  (310) 
0

>  <s_lp_Force_Field>  (310) 
OPLS3e

>  <r_lp_Energy>  (310) 
116.233

>  <b_lp_Chiralities_Consistent>  (310) 
1

>  <s_lp_Variant>  (310) 
93:0-1

>  <s_i_glide_gridfile>  (310) 
pfpi4k_grid

>  <i_i_glide_lignum>  (310) 
7

>  <i_i_glide_rotatable_bonds>  (310) 
1

>  <r_i_docking_score>  (310) 
-3.48699

>  <r_i_glide_ligand_efficiency>  (310) 
-0.145291

>  <r_i_glide_ligand_efficiency_sa>  (310) 
-0.419093

>  <r_i_glide_ligand_efficiency_ln>  (310) 
-0.834597

>  <r_i_glide_gscore>  (310) 
-3.48699

>  <r_i_glide_lipo>  (310) 
-0.737837

>  <r_i_glide_hbond>  (310) 
-0.10142

>  <r_i_glide_metal>  (310) 
-0

>  <r_i_glide_rewards>  (310) 
-1.20228

>  <r_i_glide_evdw>  (310) 
-25.1987

>  <r_i_glide_ecoul>  (310) 
-1.23681

>  <r_i_glide_erotb>  (310) 
0

>  <r_i_glide_esite>  (310) 
0

>  <r_i_glide_emodel>  (310) 
-32.4414

>  <r_i_glide_energy>  (310) 
-26.4355

>  <r_i_glide_einternal>  (310) 
0.000808073

>  <r_i_glide_intrahb_reward>  (310) 
-0

>  <i_i_glide_confnum>  (310) 
1

>  <i_i_glide_posenum>  (310) 
17

>  <r_i_glide_eff_state_penalty>  (310) 
0

>  <ligand_id>  (310) 
93

>  <original_smiles>  (310) 
CC1C2CC3C4C(C)(C)C5CCC13C(C5)C13CC(=O)C1=CC2C43O

>  <smiles>  (310) 
[H]OC12C3([H])C([H])=C4C(=O)C([H])([H])C41C1([H])C([H])([H])C4([H])C([H])([H])C([H])([H])C15C([H])(C([H])([H])[H])C3([H])C([H])([H])C5([H])C2([H])C4(C([H])([H])[H])C([H])([H])[H]

$$$$
93:0:2
     RDKit          3D

 52 58  0  0  1  0  0  0  0  0999 V2000
    8.3881   -4.3398   -0.2659 C   0  0  0  0  0  0  0  0  0  0  0  0
    6.9569   -3.7588   -0.4422 C   0  0  2  0  0  0  0  0  0  0  0  0
    6.9595   -2.2295   -0.5794 C   0  0  2  0  0  0  0  0  0  0  0  0
    7.1224   -1.8082    0.8314 C   0  0  0  0  0  0  0  0  0  0  0  0
    6.0627   -2.6868    1.4871 C   0  0  1  0  0  0  0  0  0  0  0  0
    4.7181   -2.0242    1.4593 C   0  0  2  0  0  0  0  0  0  0  0  0
    3.7601   -2.7597    2.4631 C   0  0  0  0  0  0  0  0  0  0  0  0
    4.0535   -2.2547    3.8955 C   0  0  0  0  0  0  0  0  0  0  0  0
    2.2955   -2.3417    2.2146 C   0  0  0  0  0  0  0  0  0  0  0  0
    3.8808   -4.3440    2.4577 C   0  0  2  0  0  0  0  0  0  0  0  0
    5.2243   -5.0136    2.8918 C   0  0  0  0  0  0  0  0  0  0  0  0
    6.2681   -5.1273    1.7451 C   0  0  0  0  0  0  0  0  0  0  0  0
    5.9653   -4.0298    0.7052 C   0  0  2  0  0  0  0  0  0  0  0  0
    4.5463   -4.3892    0.0449 C   0  0  1  0  0  0  0  0  0  0  0  0
    3.5701   -4.9514    1.0977 C   0  0  0  0  0  0  0  0  0  0  0  0
    3.8429   -3.2455   -0.6857 C   0  0  2  0  0  0  0  0  0  0  0  0
    2.4295   -3.4430   -1.3883 C   0  0  0  0  0  0  0  0  0  0  0  0
    3.1131   -3.2692   -2.7451 C   0  0  0  0  0  0  0  0  0  0  0  0
    2.8558   -3.2571   -3.9470 O   0  0  0  0  0  0  0  0  0  0  0  0
    4.3373   -3.0777   -2.1011 C   0  0  0  0  0  0  0  0  0  0  0  0
    5.2196   -2.1311   -2.3186 C   0  0  0  0  0  0  0  0  0  0  0  0
    5.6144   -1.5687   -1.0059 C   0  0  1  0  0  0  0  0  0  0  0  0
    4.3757   -1.9445   -0.0658 C   0  0  2  0  0  0  0  0  0  0  0  0
    3.4707   -0.8944   -0.2885 O   0  0  0  0  0  0  0  0  0  0  0  0
    8.8895   -4.0699    0.6577 H   0  0  0  0  0  0  0  0  0  0  0  0
    9.0286   -4.0705   -1.1089 H   0  0  0  0  0  0  0  0  0  0  0  0
    8.3379   -5.4275   -0.2762 H   0  0  0  0  0  0  0  0  0  0  0  0
    6.5405   -4.1561   -1.3545 H   0  0  0  0  0  0  0  0  0  0  0  0
    7.8060   -1.8997   -1.1918 H   0  0  0  0  0  0  0  0  0  0  0  0
    8.1198   -2.1004    1.1138 H   0  0  0  0  0  0  0  0  0  0  0  0
    7.0196   -0.7414    1.0222 H   0  0  0  0  0  0  0  0  0  0  0  0
    6.3898   -2.8052    2.4980 H   0  0  0  0  0  0  0  0  0  0  0  0
    4.8510   -0.9985    1.8098 H   0  0  0  0  0  0  0  0  0  0  0  0
    3.4102   -2.7438    4.6269 H   0  0  0  0  0  0  0  0  0  0  0  0
    3.8655   -1.1795    3.9849 H   0  0  0  0  0  0  0  0  0  0  0  0
    5.0833   -2.4156    4.2165 H   0  0  0  0  0  0  0  0  0  0  0  0
    1.6204   -2.7828    2.9460 H   0  0  0  0  0  0  0  0  0  0  0  0
    1.9307   -2.6392    1.2345 H   0  0  0  0  0  0  0  0  0  0  0  0
    2.1773   -1.2563    2.2726 H   0  0  0  0  0  0  0  0  0  0  0  0
    3.1266   -4.7113    3.1494 H   0  0  0  0  0  0  0  0  0  0  0  0
    5.6455   -4.5084    3.7592 H   0  0  0  0  0  0  0  0  0  0  0  0
    5.0102   -6.0258    3.2462 H   0  0  0  0  0  0  0  0  0  0  0  0
    7.2717   -5.0371    2.1584 H   0  0  0  0  0  0  0  0  0  0  0  0
    6.2086   -6.1061    1.2701 H   0  0  0  0  0  0  0  0  0  0  0  0
    4.7004   -5.2020   -0.6660 H   0  0  0  0  0  0  0  0  0  0  0  0
    3.6802   -6.0336    1.1413 H   0  0  0  0  0  0  0  0  0  0  0  0
    2.5299   -4.7821    0.8412 H   0  0  0  0  0  0  0  0  0  0  0  0
    1.9955   -4.4248   -1.1828 H   0  0  0  0  0  0  0  0  0  0  0  0
    1.7362   -2.6618   -1.1246 H   0  0  0  0  0  0  0  0  0  0  0  0
    5.3308   -1.5566   -3.2265 H   0  0  0  0  0  0  0  0  0  0  0  0
    5.7383   -0.4878   -1.0818 H   0  0  0  0  0  0  0  0  0  0  0  0
    2.5612   -1.1836   -0.3073 H   0  0  0  0  0  0  0  0  0  0  0  0
  1  2  1  0
  1 25  1  0
  1 26  1  0
  1 27  1  0
  2 13  1  0
  2  3  1  0
  2 28  1  6
  3 22  1  0
  3  4  1  0
  3 29  1  6
  4  5  1  0
  4 30  1  0
  4 31  1  0
  5 13  1  0
  5  6  1  0
  5 32  1  1
  6 23  1  0
  6  7  1  0
  6 33  1  1
  7  8  1  0
  7  9  1  0
  7 10  1  0
  8 34  1  0
  8 35  1  0
  8 36  1  0
  9 37  1  0
  9 38  1  0
  9 39  1  0
 10 15  1  0
 10 11  1  0
 10 40  1  1
 11 12  1  0
 11 41  1  0
 11 42  1  0
 13 12  1  1
 12 43  1  0
 12 44  1  0
 13 14  1  0
 14 15  1  0
 14 16  1  0
 14 45  1  6
 15 46  1  0
 15 47  1  0
 16 20  1  0
 16 23  1  0
 16 17  1  6
 17 18  1  0
 17 48  1  0
 17 49  1  0
 18 19  2  0
 18 20  1  0
 20 21  2  0
 21 22  1  0
 21 50  1  0
 22 23  1  0
 22 51  1  6
 23 24  1  1
 24 52  1  0
M  END
>  <i_m_ct_stereo_status>  (311) 
1

>  <s_m_source_file>  (311) 
/var/tmp/pbs.5076255.sched01/tmpjgl1obm9/123zpz496x9.sdf

>  <i_m_source_file_index>  (311) 
7

>  <i_lp_mmshare_version>  (311) 
48012

>  <i_f3d_flags>  (311) 
0

>  <s_epik_input>  (311) 
W0NIM11bQ0BASF0xW0NASF0oW0NIMl0yKVtDQEhdM1tDSF09QyhDKD1PKVtDSDJdNClbQ0BdNChbQ0BAXTMoW09IXSlbQ0BASF01W0NASF0yW0NAQF0xNjcpW0NAQEhdN1tDSDJdW0NASF0oQzUoW0NIM10pW0NIM10pW0NIMl1bQ0gyXTY=

>  <s_epik_cmdline>  (311) 
J2VwaWtfcHl0aG9uJywgJy1waHQnLCAnMi4wJywgJy1waCcsICc3LjAnLCAnLXRuJywgJzgnLCAnLW1hJywgJzIwMCcsICctaW1hZScsICc8aW5maWxlLm1hZT4nLCAnLW9tYWUnLCAnPG91dGZpbGUubWFlPic=

>  <r_lp_tautomer_probability>  (311) 
1

>  <r_epik_Ionization_Penalty>  (311) 
8.66639e-08

>  <r_epik_Ionization_Penalty_Charging>  (311) 
0

>  <r_epik_Ionization_Penalty_Neutral>  (311) 
8.66639e-08

>  <r_epik_State_Penalty>  (311) 
-0

>  <r_epik_Charging_Adjusted_Penalty>  (311) 
0

>  <i_epik_Tot_Q>  (311) 
0

>  <i_epik_Tot_abs_Q>  (311) 
0

>  <s_lp_Force_Field>  (311) 
OPLS3e

>  <r_lp_Energy>  (311) 
116.233

>  <b_lp_Chiralities_Consistent>  (311) 
1

>  <s_lp_Variant>  (311) 
93:0-1

>  <s_i_glide_gridfile>  (311) 
pfpi4k_grid

>  <i_i_glide_lignum>  (311) 
7

>  <i_i_glide_rotatable_bonds>  (311) 
1

>  <r_i_docking_score>  (311) 
-3.33702

>  <r_i_glide_ligand_efficiency>  (311) 
-0.139043

>  <r_i_glide_ligand_efficiency_sa>  (311) 
-0.401068

>  <r_i_glide_ligand_efficiency_ln>  (311) 
-0.798703

>  <r_i_glide_gscore>  (311) 
-3.33702

>  <r_i_glide_lipo>  (311) 
-0.54226

>  <r_i_glide_hbond>  (311) 
-0.16

>  <r_i_glide_metal>  (311) 
-0

>  <r_i_glide_rewards>  (311) 
-1.19689

>  <r_i_glide_evdw>  (311) 
-17.6588

>  <r_i_glide_ecoul>  (311) 
-3.50905

>  <r_i_glide_erotb>  (311) 
0

>  <r_i_glide_esite>  (311) 
-0.028578

>  <r_i_glide_emodel>  (311) 
-26.0955

>  <r_i_glide_energy>  (311) 
-21.1679

>  <r_i_glide_einternal>  (311) 
1.01803

>  <r_i_glide_intrahb_reward>  (311) 
-0

>  <i_i_glide_confnum>  (311) 
2

>  <i_i_glide_posenum>  (311) 
7

>  <r_i_glide_eff_state_penalty>  (311) 
0

>  <ligand_id>  (311) 
93

>  <original_smiles>  (311) 
CC1C2CC3C4C(C)(C)C5CCC13C(C5)C13CC(=O)C1=CC2C43O

>  <smiles>  (311) 
[H]OC12C3([H])C([H])=C4C(=O)C([H])([H])C41C1([H])C([H])([H])C4([H])C([H])([H])C([H])([H])C15C([H])(C([H])([H])[H])C3([H])C([H])([H])C5([H])C2([H])C4(C([H])([H])[H])C([H])([H])[H]

$$$$
94:0:0
     RDKit          3D

 81 87  0  0  1  0  0  0  0  0999 V2000
    0.4880   -7.7406    9.3165 C   0  0  0  0  0  0  0  0  0  0  0  0
    1.2727   -8.0213    8.0237 C   0  0  1  0  0  0  0  0  0  0  0  0
    2.6295   -8.0655    8.4116 O   0  0  0  0  0  0  0  0  0  0  0  0
    0.8746   -9.3932    7.5193 C   0  0  0  0  0  0  0  0  0  0  0  0
    0.4673   -9.6488    6.2655 C   0  0  0  0  0  0  0  0  0  0  0  0
    0.4231   -8.6179    5.1578 C   0  0  1  0  0  0  0  0  0  0  0  0
   -0.9351   -8.3516    4.8727 O   0  0  0  0  0  0  0  0  0  0  0  0
    1.2986   -7.3412    5.4537 C   0  0  2  0  0  0  0  0  0  0  0  0
    2.7771   -7.7851    5.3001 C   0  0  0  0  0  0  0  0  0  0  0  0
    1.0362   -6.9123    6.9403 C   0  0  2  0  0  0  0  0  0  0  0  0
    1.7194   -5.5662    7.2730 C   0  0  0  0  0  0  0  0  0  0  0  0
    1.1796   -4.4789    6.3443 C   0  0  1  0  0  0  0  0  0  0  0  0
    1.4416   -3.1920    6.8694 O   0  0  0  0  0  0  0  0  0  0  0  0
    1.4886   -4.7065    4.8205 C   0  0  1  0  0  0  0  0  0  0  0  0
    0.6297   -3.6247    4.1083 C   0  0  0  0  0  0  0  0  0  0  0  0
    2.9515   -4.5005    4.3188 C   0  0  0  0  0  0  0  0  0  0  0  0
    3.7332   -3.5379    4.8491 C   0  0  0  0  0  0  0  0  0  0  0  0
    5.0582   -3.0944    4.3052 C   0  0  0  0  0  0  0  0  0  0  0  0
    5.1542   -3.3697    2.8030 C   0  0  2  0  0  0  0  0  0  0  0  0
    4.3241   -2.3557    1.9659 C   0  0  0  0  0  0  0  0  0  0  0  0
    4.6893   -2.5627    0.4954 C   0  0  1  0  0  0  0  0  0  0  0  0
    4.2892   -3.9618    0.0886 C   0  0  1  0  0  0  0  0  0  0  0  0
    4.3964   -3.9290   -1.3314 O   0  0  0  0  0  0  0  0  0  0  0  0
    3.8369   -2.6797   -1.7707 C   0  0  2  0  0  0  0  0  0  0  0  0
    2.4594   -2.8545   -2.3993 C   0  0  0  0  0  0  0  0  0  0  0  0
    4.8769   -1.8026   -2.4542 C   0  0  0  0  0  0  0  0  0  0  0  0
    4.9758   -0.9232   -1.3028 O   0  0  0  0  0  0  0  0  0  0  0  0
    4.0206   -1.7463   -0.5781 C   0  0  2  0  0  0  0  0  0  0  0  0
    5.0491   -5.0444    0.8900 C   0  0  1  0  0  0  0  0  0  0  0  0
    6.4227   -4.9105    0.5582 O   0  0  0  0  0  0  0  0  0  0  0  0
    4.8455   -4.8687    2.4561 C   0  0  1  0  0  0  0  0  0  0  0  0
    5.9361   -5.7440    3.1485 C   0  0  0  0  0  0  0  0  0  0  0  0
    3.4416   -5.3404    3.0916 C   0  0  2  0  0  0  0  0  0  0  0  0
    2.2332   -5.7243    2.1870 C   0  0  1  0  0  0  0  0  0  0  0  0
    2.5461   -6.6187    1.1413 O   0  0  0  0  0  0  0  0  0  0  0  0
    1.0771   -6.4317    2.9479 C   0  0  0  0  0  0  0  0  0  0  0  0
    0.9397   -6.1320    4.4665 C   0  0  1  0  0  0  0  0  0  0  0  0
   -0.5773   -7.6900    9.1058 H   0  0  0  0  0  0  0  0  0  0  0  0
    0.7795   -6.8050    9.7889 H   0  0  0  0  0  0  0  0  0  0  0  0
    0.6292   -8.5286   10.0556 H   0  0  0  0  0  0  0  0  0  0  0  0
    2.7848   -8.8905    8.8488 H   0  0  0  0  0  0  0  0  0  0  0  0
    0.8934  -10.2059    8.2309 H   0  0  0  0  0  0  0  0  0  0  0  0
    0.1824  -10.6555    5.9977 H   0  0  0  0  0  0  0  0  0  0  0  0
    0.8169   -9.1274    4.2785 H   0  0  0  0  0  0  0  0  0  0  0  0
   -1.3916   -9.1896    4.8756 H   0  0  0  0  0  0  0  0  0  0  0  0
    3.4751   -6.9865    5.5499 H   0  0  0  0  0  0  0  0  0  0  0  0
    2.9850   -8.1405    4.2900 H   0  0  0  0  0  0  0  0  0  0  0  0
    3.0306   -8.6219    5.9508 H   0  0  0  0  0  0  0  0  0  0  0  0
   -0.0368   -6.7235    6.9845 H   0  0  0  0  0  0  0  0  0  0  0  0
    1.4963   -5.2917    8.3040 H   0  0  0  0  0  0  0  0  0  0  0  0
    2.8059   -5.6298    7.2097 H   0  0  0  0  0  0  0  0  0  0  0  0
    0.0960   -4.5380    6.4490 H   0  0  0  0  0  0  0  0  0  0  0  0
    2.3763   -3.0583    6.8949 H   0  0  0  0  0  0  0  0  0  0  0  0
   -0.4053   -3.6554    4.4416 H   0  0  0  0  0  0  0  0  0  0  0  0
    0.6220   -3.7008    3.0274 H   0  0  0  0  0  0  0  0  0  0  0  0
    0.9925   -2.6221    4.3296 H   0  0  0  0  0  0  0  0  0  0  0  0
    3.4305   -2.9311    5.6789 H   0  0  0  0  0  0  0  0  0  0  0  0
    5.1665   -2.0238    4.4883 H   0  0  0  0  0  0  0  0  0  0  0  0
    5.8538   -3.5865    4.8645 H   0  0  0  0  0  0  0  0  0  0  0  0
    6.1956   -3.1702    2.5397 H   0  0  0  0  0  0  0  0  0  0  0  0
    3.2552   -2.5086    2.1197 H   0  0  0  0  0  0  0  0  0  0  0  0
    4.5450   -1.3301    2.2649 H   0  0  0  0  0  0  0  0  0  0  0  0
    5.7690   -2.4463    0.3896 H   0  0  0  0  0  0  0  0  0  0  0  0
    3.2259   -4.0801    0.2673 H   0  0  0  0  0  0  0  0  0  0  0  0
    2.0405   -1.8956   -2.6987 H   0  0  0  0  0  0  0  0  0  0  0  0
    1.7573   -3.3109   -1.7051 H   0  0  0  0  0  0  0  0  0  0  0  0
    2.4949   -3.4779   -3.2880 H   0  0  0  0  0  0  0  0  0  0  0  0
    5.8139   -2.3249   -2.6641 H   0  0  0  0  0  0  0  0  0  0  0  0
    4.4939   -1.2801   -3.3327 H   0  0  0  0  0  0  0  0  0  0  0  0
    3.1030   -1.2202   -0.2987 H   0  0  0  0  0  0  0  0  0  0  0  0
    4.7856   -6.0404    0.5470 H   0  0  0  0  0  0  0  0  0  0  0  0
    6.8897   -5.6449    0.9275 H   0  0  0  0  0  0  0  0  0  0  0  0
    5.9008   -6.7762    2.8000 H   0  0  0  0  0  0  0  0  0  0  0  0
    5.8088   -5.7747    4.2296 H   0  0  0  0  0  0  0  0  0  0  0  0
    6.9491   -5.3792    2.9773 H   0  0  0  0  0  0  0  0  0  0  0  0
    3.6928   -6.2998    3.5131 H   0  0  0  0  0  0  0  0  0  0  0  0
    1.8480   -4.8212    1.7209 H   0  0  0  0  0  0  0  0  0  0  0  0
    2.8872   -7.4219    1.5088 H   0  0  0  0  0  0  0  0  0  0  0  0
    0.1480   -6.1369    2.4560 H   0  0  0  0  0  0  0  0  0  0  0  0
    1.1204   -7.5098    2.7969 H   0  0  0  0  0  0  0  0  0  0  0  0
   -0.1344   -6.0273    4.6081 H   0  0  0  0  0  0  0  0  0  0  0  0
  1  2  1  0
  1 38  1  0
  1 39  1  0
  1 40  1  0
  2 10  1  0
  2  3  1  1
  2  4  1  0
  3 41  1  0
  4  5  2  0
  4 42  1  0
  5  6  1  0
  5 43  1  0
  6  7  1  0
  6  8  1  0
  6 44  1  6
  7 45  1  0
  8 37  1  0
  8  9  1  1
  8 10  1  0
  9 46  1  0
  9 47  1  0
  9 48  1  0
 10 11  1  0
 10 49  1  6
 11 12  1  0
 11 50  1  0
 11 51  1  0
 12 13  1  0
 12 14  1  0
 12 52  1  6
 13 53  1  0
 14 37  1  0
 14 15  1  6
 14 16  1  0
 15 54  1  0
 15 55  1  0
 15 56  1  0
 16 33  1  0
 16 17  2  0
 17 18  1  0
 17 57  1  0
 18 19  1  0
 18 58  1  0
 18 59  1  0
 19 31  1  0
 19 20  1  0
 19 60  1  6
 20 21  1  0
 20 61  1  0
 20 62  1  0
 21 28  1  0
 21 22  1  0
 21 63  1  1
 22 23  1  0
 22 29  1  0
 22 64  1  6
 23 24  1  0
 24 28  1  0
 24 25  1  6
 24 26  1  0
 25 65  1  0
 25 66  1  0
 25 67  1  0
 26 27  1  0
 26 68  1  0
 26 69  1  0
 27 28  1  0
 28 70  1  1
 29 30  1  0
 29 31  1  0
 29 71  1  6
 30 72  1  0
 31 32  1  1
 31 33  1  0
 32 73  1  0
 32 74  1  0
 32 75  1  0
 33 34  1  0
 33 76  1  1
 34 35  1  0
 34 36  1  0
 34 77  1  6
 35 78  1  0
 36 37  1  0
 36 79  1  0
 36 80  1  0
 37 81  1  6
M  END
>  <i_m_ct_stereo_status>  (312) 
1

>  <s_m_source_file>  (312) 
/var/tmp/pbs.5076255.sched01/tmpjgl1obm9/123zpz496x9.sdf

>  <i_m_source_file_index>  (312) 
8

>  <i_lp_mmshare_version>  (312) 
48012

>  <i_f3d_flags>  (312) 
0

>  <s_epik_input>  (312) 
W09IXVtDQEBIXTFbQ0hdPVtDSF1bQ0BAXShbQ0gzXSkoW09IXSlbQ0BIXShbQ0BAXTEyW0NIM10pW0NIMl1bQ0BASF0oW09IXSlbQ0BAXTMoW0NIM10pQz00W0NAQEhdKFtDQEBIXShbT0hdKVtDSDJdW0NAQEhdMjMpW0NAXTUoW0NIM10pW0NASF0oW0NIMl1bQ0hdNClbQ0gyXVtDQEhdNltDQEhdKFtDQEhdNVtPSF0pT1tDQEBdNyhbQ0gzXSlbQ0BASF02T1tDSDJdNw==

>  <s_epik_cmdline>  (312) 
J2VwaWtfcHl0aG9uJywgJy1waHQnLCAnMi4wJywgJy1waCcsICc3LjAnLCAnLXRuJywgJzgnLCAnLW1hJywgJzIwMCcsICctaW1hZScsICc8aW5maWxlLm1hZT4nLCAnLW9tYWUnLCAnPG91dGZpbGUubWFlPic=

>  <r_lp_tautomer_probability>  (312) 
1

>  <r_epik_Ionization_Penalty>  (312) 
1.27722e-06

>  <r_epik_Ionization_Penalty_Charging>  (312) 
0

>  <r_epik_Ionization_Penalty_Neutral>  (312) 
1.27722e-06

>  <r_epik_State_Penalty>  (312) 
-0

>  <r_epik_Charging_Adjusted_Penalty>  (312) 
0

>  <i_epik_Tot_Q>  (312) 
0

>  <i_epik_Tot_abs_Q>  (312) 
0

>  <s_lp_Force_Field>  (312) 
OPLS3e

>  <r_lp_Energy>  (312) 
78.9962

>  <b_lp_Chiralities_Consistent>  (312) 
1

>  <s_lp_Variant>  (312) 
94:0-1

>  <s_i_glide_gridfile>  (312) 
pfpi4k_grid

>  <i_i_glide_lignum>  (312) 
8

>  <i_i_glide_rotatable_bonds>  (312) 
5

>  <r_i_docking_score>  (312) 
-2.15985

>  <r_i_glide_ligand_efficiency>  (312) 
-0.0583742

>  <r_i_glide_ligand_efficiency_sa>  (312) 
-0.194516

>  <r_i_glide_ligand_efficiency_ln>  (312) 
-0.46842

>  <r_i_glide_gscore>  (312) 
-2.15985

>  <r_i_glide_lipo>  (312) 
-0.212618

>  <r_i_glide_hbond>  (312) 
-0.157318

>  <r_i_glide_metal>  (312) 
-0

>  <r_i_glide_rewards>  (312) 
0

>  <r_i_glide_evdw>  (312) 
-25.0678

>  <r_i_glide_ecoul>  (312) 
-3.57681

>  <r_i_glide_erotb>  (312) 
0

>  <r_i_glide_esite>  (312) 
0

>  <r_i_glide_emodel>  (312) 
-32.2701

>  <r_i_glide_energy>  (312) 
-28.6446

>  <r_i_glide_einternal>  (312) 
1.13765

>  <r_i_glide_intrahb_reward>  (312) 
-0

>  <i_i_glide_confnum>  (312) 
1

>  <i_i_glide_posenum>  (312) 
11

>  <r_i_glide_eff_state_penalty>  (312) 
0

>  <ligand_id>  (312) 
94

>  <original_smiles>  (312) 
CC1(O)C=CC(O)C2(C)C1CC(O)C1(C)C3=CCC4CC5C(OC6(C)COC56)C(O)C4(C)C3C(O)CC12

>  <smiles>  (312) 
[H]OC1([H])C([H])=C([H])C(O[H])(C([H])([H])[H])C2([H])C([H])([H])C([H])(O[H])C3(C([H])([H])[H])C4=C([H])C([H])([H])C5([H])C([H])([H])C6([H])C([H])(OC7(C([H])([H])[H])C([H])([H])OC67[H])C([H])(O[H])C5(C([H])([H])[H])C4([H])C([H])(O[H])C([H])([H])C3([H])C12C([H])([H])[H]

$$$$
94:0:1
     RDKit          3D

 81 87  0  0  1  0  0  0  0  0999 V2000
    0.9130   -9.7194    7.4818 C   0  0  0  0  0  0  0  0  0  0  0  0
    2.1830   -9.0526    6.9288 C   0  0  1  0  0  0  0  0  0  0  0  0
    2.4330   -7.9864    7.8129 O   0  0  0  0  0  0  0  0  0  0  0  0
    3.3591  -10.0113    6.9974 C   0  0  0  0  0  0  0  0  0  0  0  0
    4.1555  -10.2985    5.9514 C   0  0  0  0  0  0  0  0  0  0  0  0
    4.0415   -9.6389    4.5943 C   0  0  1  0  0  0  0  0  0  0  0  0
    3.5305  -10.5887    3.6922 O   0  0  0  0  0  0  0  0  0  0  0  0
    3.2099   -8.3049    4.6019 C   0  0  2  0  0  0  0  0  0  0  0  0
    4.1055   -7.2503    5.2841 C   0  0  0  0  0  0  0  0  0  0  0  0
    1.9355   -8.5408    5.4768 C   0  0  2  0  0  0  0  0  0  0  0  0
    0.9641   -7.3520    5.4057 C   0  0  0  0  0  0  0  0  0  0  0  0
    0.5508   -7.1408    3.9549 C   0  0  1  0  0  0  0  0  0  0  0  0
   -0.5856   -6.3228    3.9424 O   0  0  0  0  0  0  0  0  0  0  0  0
    1.7075   -6.7361    2.9750 C   0  0  1  0  0  0  0  0  0  0  0  0
    1.0531   -6.8258    1.5658 C   0  0  0  0  0  0  0  0  0  0  0  0
    2.3229   -5.3096    3.0920 C   0  0  0  0  0  0  0  0  0  0  0  0
    1.5558   -4.2485    3.4090 C   0  0  0  0  0  0  0  0  0  0  0  0
    1.9838   -2.8169    3.3155 C   0  0  0  0  0  0  0  0  0  0  0  0
    3.1168   -2.6400    2.2987 C   0  0  2  0  0  0  0  0  0  0  0  0
    2.6153   -2.7125    0.8456 C   0  0  0  0  0  0  0  0  0  0  0  0
    3.7372   -2.2602   -0.0829 C   0  0  1  0  0  0  0  0  0  0  0  0
    4.8792   -3.2360    0.0510 C   0  0  1  0  0  0  0  0  0  0  0  0
    5.7173   -2.9003   -1.0565 O   0  0  0  0  0  0  0  0  0  0  0  0
    4.8568   -2.6891   -2.1837 C   0  0  2  0  0  0  0  0  0  0  0  0
    4.9326   -3.8346   -3.1746 C   0  0  0  0  0  0  0  0  0  0  0  0
    4.9285   -1.2649   -2.6887 C   0  0  0  0  0  0  0  0  0  0  0  0
    3.6324   -0.9404   -2.1223 O   0  0  0  0  0  0  0  0  0  0  0  0
    3.5357   -2.2758   -1.5706 C   0  0  2  0  0  0  0  0  0  0  0  0
    5.4471   -3.2608    1.4918 C   0  0  1  0  0  0  0  0  0  0  0  0
    6.0080   -1.9788    1.7275 O   0  0  0  0  0  0  0  0  0  0  0  0
    4.3215   -3.5905    2.5676 C   0  0  1  0  0  0  0  0  0  0  0  0
    4.8895   -3.2058    3.9625 C   0  0  0  0  0  0  0  0  0  0  0  0
    3.8297   -5.1158    2.6996 C   0  0  2  0  0  0  0  0  0  0  0  0
    4.2563   -6.1975    1.6614 C   0  0  1  0  0  0  0  0  0  0  0  0
    5.6402   -6.2116    1.3742 O   0  0  0  0  0  0  0  0  0  0  0  0
    3.9402   -7.6555    2.0998 C   0  0  0  0  0  0  0  0  0  0  0  0
    2.7866   -7.8512    3.1213 C   0  0  1  0  0  0  0  0  0  0  0  0
    0.5626  -10.4858    6.7734 H   0  0  0  0  0  0  0  0  0  0  0  0
    0.0763   -9.0405    7.6329 H   0  0  0  0  0  0  0  0  0  0  0  0
    1.1005  -10.2107    8.4339 H   0  0  0  0  0  0  0  0  0  0  0  0
    2.5951   -8.3548    8.6722 H   0  0  0  0  0  0  0  0  0  0  0  0
    3.5037  -10.5331    7.9281 H   0  0  0  0  0  0  0  0  0  0  0  0
    4.9476  -11.0193    6.0599 H   0  0  0  0  0  0  0  0  0  0  0  0
    5.0646   -9.4211    4.2813 H   0  0  0  0  0  0  0  0  0  0  0  0
    4.0801  -11.3615    3.7063 H   0  0  0  0  0  0  0  0  0  0  0  0
    3.5952   -6.2956    5.4078 H   0  0  0  0  0  0  0  0  0  0  0  0
    5.0338   -7.0935    4.7316 H   0  0  0  0  0  0  0  0  0  0  0  0
    4.4183   -7.5543    6.2835 H   0  0  0  0  0  0  0  0  0  0  0  0
    1.4246   -9.3682    4.9894 H   0  0  0  0  0  0  0  0  0  0  0  0
    0.0772   -7.5672    6.0058 H   0  0  0  0  0  0  0  0  0  0  0  0
    1.3965   -6.4431    5.8181 H   0  0  0  0  0  0  0  0  0  0  0  0
    0.1605   -8.1015    3.6144 H   0  0  0  0  0  0  0  0  0  0  0  0
   -1.2507   -6.7562    4.4635 H   0  0  0  0  0  0  0  0  0  0  0  0
    0.5715   -7.7877    1.3907 H   0  0  0  0  0  0  0  0  0  0  0  0
    1.7444   -6.6734    0.7476 H   0  0  0  0  0  0  0  0  0  0  0  0
    0.2858   -6.0665    1.4545 H   0  0  0  0  0  0  0  0  0  0  0  0
    0.5178   -4.3281    3.6835 H   0  0  0  0  0  0  0  0  0  0  0  0
    1.1221   -2.2168    3.0140 H   0  0  0  0  0  0  0  0  0  0  0  0
    2.2677   -2.4606    4.3060 H   0  0  0  0  0  0  0  0  0  0  0  0
    3.4483   -1.6113    2.4379 H   0  0  0  0  0  0  0  0  0  0  0  0
    2.2819   -3.7181    0.5871 H   0  0  0  0  0  0  0  0  0  0  0  0
    1.7753   -2.0363    0.7792 H   0  0  0  0  0  0  0  0  0  0  0  0
    4.0500   -1.2605    0.2127 H   0  0  0  0  0  0  0  0  0  0  0  0
    4.4997   -4.2231   -0.1927 H   0  0  0  0  0  0  0  0  0  0  0  0
    4.2283   -3.7119   -3.9880 H   0  0  0  0  0  0  0  0  0  0  0  0
    4.7089   -4.7688   -2.6754 H   0  0  0  0  0  0  0  0  0  0  0  0
    5.9246   -3.8979   -3.5968 H   0  0  0  0  0  0  0  0  0  0  0  0
    5.7340   -0.6888   -2.2437 H   0  0  0  0  0  0  0  0  0  0  0  0
    4.9180   -1.1906   -3.7643 H   0  0  0  0  0  0  0  0  0  0  0  0
    2.6903   -2.8307   -1.9601 H   0  0  0  0  0  0  0  0  0  0  0  0
    6.2929   -3.9396    1.5703 H   0  0  0  0  0  0  0  0  0  0  0  0
    5.3333   -1.3189    1.6255 H   0  0  0  0  0  0  0  0  0  0  0  0
    5.8264   -3.7184    4.1481 H   0  0  0  0  0  0  0  0  0  0  0  0
    4.2240   -3.4899    4.7758 H   0  0  0  0  0  0  0  0  0  0  0  0
    5.0701   -2.1366    4.0696 H   0  0  0  0  0  0  0  0  0  0  0  0
    4.3613   -5.4499    3.5733 H   0  0  0  0  0  0  0  0  0  0  0  0
    3.7434   -6.0005    0.7239 H   0  0  0  0  0  0  0  0  0  0  0  0
    6.1218   -6.4308    2.1626 H   0  0  0  0  0  0  0  0  0  0  0  0
    3.7075   -8.2295    1.1938 H   0  0  0  0  0  0  0  0  0  0  0  0
    4.8395   -8.1219    2.4969 H   0  0  0  0  0  0  0  0  0  0  0  0
    2.2812   -8.7337    2.7458 H   0  0  0  0  0  0  0  0  0  0  0  0
  1  2  1  0
  1 38  1  0
  1 39  1  0
  1 40  1  0
  2 10  1  0
  2  3  1  1
  2  4  1  0
  3 41  1  0
  4  5  2  0
  4 42  1  0
  5  6  1  0
  5 43  1  0
  6  7  1  0
  6  8  1  0
  6 44  1  6
  7 45  1  0
  8 37  1  0
  8  9  1  1
  8 10  1  0
  9 46  1  0
  9 47  1  0
  9 48  1  0
 10 11  1  0
 10 49  1  6
 11 12  1  0
 11 50  1  0
 11 51  1  0
 12 13  1  0
 12 14  1  0
 12 52  1  6
 13 53  1  0
 14 37  1  0
 14 15  1  6
 14 16  1  0
 15 54  1  0
 15 55  1  0
 15 56  1  0
 16 33  1  0
 16 17  2  0
 17 18  1  0
 17 57  1  0
 18 19  1  0
 18 58  1  0
 18 59  1  0
 19 31  1  0
 19 20  1  0
 19 60  1  1
 20 21  1  0
 20 61  1  0
 20 62  1  0
 21 28  1  0
 21 22  1  0
 21 63  1  1
 22 23  1  0
 22 29  1  0
 22 64  1  6
 23 24  1  0
 24 28  1  0
 24 25  1  6
 24 26  1  0
 25 65  1  0
 25 66  1  0
 25 67  1  0
 26 27  1  0
 26 68  1  0
 26 69  1  0
 27 28  1  0
 28 70  1  1
 29 30  1  0
 29 31  1  0
 29 71  1  6
 30 72  1  0
 31 32  1  1
 31 33  1  0
 32 73  1  0
 32 74  1  0
 32 75  1  0
 33 34  1  0
 33 76  1  1
 34 35  1  0
 34 36  1  0
 34 77  1  6
 35 78  1  0
 36 37  1  0
 36 79  1  0
 36 80  1  0
 37 81  1  6
M  END
>  <i_m_ct_stereo_status>  (313) 
1

>  <s_m_source_file>  (313) 
/var/tmp/pbs.5076255.sched01/tmpjgl1obm9/123zpz496x9.sdf

>  <i_m_source_file_index>  (313) 
8

>  <i_lp_mmshare_version>  (313) 
48012

>  <i_f3d_flags>  (313) 
0

>  <s_epik_input>  (313) 
W09IXVtDQEBIXTFbQ0hdPVtDSF1bQ0BAXShbQ0gzXSkoW09IXSlbQ0BIXShbQ0BAXTEyW0NIM10pW0NIMl1bQ0BASF0oW09IXSlbQ0BAXTMoW0NIM10pQz00W0NAQEhdKFtDQEBIXShbT0hdKVtDSDJdW0NAQEhdMjMpW0NAXTUoW0NIM10pW0NASF0oW0NIMl1bQ0hdNClbQ0gyXVtDQEhdNltDQEhdKFtDQEhdNVtPSF0pT1tDQEBdNyhbQ0gzXSlbQ0BASF02T1tDSDJdNw==

>  <s_epik_cmdline>  (313) 
J2VwaWtfcHl0aG9uJywgJy1waHQnLCAnMi4wJywgJy1waCcsICc3LjAnLCAnLXRuJywgJzgnLCAnLW1hJywgJzIwMCcsICctaW1hZScsICc8aW5maWxlLm1hZT4nLCAnLW9tYWUnLCAnPG91dGZpbGUubWFlPic=

>  <r_lp_tautomer_probability>  (313) 
1

>  <r_epik_Ionization_Penalty>  (313) 
1.27722e-06

>  <r_epik_Ionization_Penalty_Charging>  (313) 
0

>  <r_epik_Ionization_Penalty_Neutral>  (313) 
1.27722e-06

>  <r_epik_State_Penalty>  (313) 
-0

>  <r_epik_Charging_Adjusted_Penalty>  (313) 
0

>  <i_epik_Tot_Q>  (313) 
0

>  <i_epik_Tot_abs_Q>  (313) 
0

>  <s_lp_Force_Field>  (313) 
OPLS3e

>  <r_lp_Energy>  (313) 
78.9962

>  <b_lp_Chiralities_Consistent>  (313) 
1

>  <s_lp_Variant>  (313) 
94:0-1

>  <s_i_glide_gridfile>  (313) 
pfpi4k_grid

>  <i_i_glide_lignum>  (313) 
8

>  <i_i_glide_rotatable_bonds>  (313) 
5

>  <r_i_docking_score>  (313) 
-1.83698

>  <r_i_glide_ligand_efficiency>  (313) 
-0.0496481

>  <r_i_glide_ligand_efficiency_sa>  (313) 
-0.165438

>  <r_i_glide_ligand_efficiency_ln>  (313) 
-0.398398

>  <r_i_glide_gscore>  (313) 
-1.83698

>  <r_i_glide_lipo>  (313) 
-0.297881

>  <r_i_glide_hbond>  (313) 
-0.0747618

>  <r_i_glide_metal>  (313) 
-0

>  <r_i_glide_rewards>  (313) 
0

>  <r_i_glide_evdw>  (313) 
-23.4356

>  <r_i_glide_ecoul>  (313) 
-1.95036

>  <r_i_glide_erotb>  (313) 
0

>  <r_i_glide_esite>  (313) 
0

>  <r_i_glide_emodel>  (313) 
-28.3824

>  <r_i_glide_energy>  (313) 
-25.386

>  <r_i_glide_einternal>  (313) 
0.80321

>  <r_i_glide_intrahb_reward>  (313) 
-0

>  <i_i_glide_confnum>  (313) 
1

>  <i_i_glide_posenum>  (313) 
12

>  <r_i_glide_eff_state_penalty>  (313) 
0

>  <ligand_id>  (313) 
94

>  <original_smiles>  (313) 
CC1(O)C=CC(O)C2(C)C1CC(O)C1(C)C3=CCC4CC5C(OC6(C)COC56)C(O)C4(C)C3C(O)CC12

>  <smiles>  (313) 
[H]OC1([H])C([H])=C([H])C(O[H])(C([H])([H])[H])C2([H])C([H])([H])C([H])(O[H])C3(C([H])([H])[H])C4=C([H])C([H])([H])C5([H])C([H])([H])C6([H])C([H])(OC7(C([H])([H])[H])C([H])([H])OC67[H])C([H])(O[H])C5(C([H])([H])[H])C4([H])C([H])(O[H])C([H])([H])C3([H])C12C([H])([H])[H]

$$$$
94:0:2
     RDKit          3D

 81 87  0  0  1  0  0  0  0  0999 V2000
    0.7109   -9.7821    7.5941 C   0  0  0  0  0  0  0  0  0  0  0  0
    1.9726   -9.0564    7.0811 C   0  0  1  0  0  0  0  0  0  0  0  0
    2.1795   -7.9930    7.9873 O   0  0  0  0  0  0  0  0  0  0  0  0
    3.1653   -9.9959    7.1609 C   0  0  0  0  0  0  0  0  0  0  0  0
    3.9831  -10.2668    6.1325 C   0  0  0  0  0  0  0  0  0  0  0  0
    3.8945   -9.5960    4.7754 C   0  0  1  0  0  0  0  0  0  0  0  0
    3.4290  -10.5519    3.8469 O   0  0  0  0  0  0  0  0  0  0  0  0
    3.0575   -8.2665    4.7865 C   0  0  2  0  0  0  0  0  0  0  0  0
    3.9336   -7.2094    5.5036 C   0  0  0  0  0  0  0  0  0  0  0  0
    1.7600   -8.5267    5.6262 C   0  0  2  0  0  0  0  0  0  0  0  0
    0.7920   -7.3341    5.5500 C   0  0  0  0  0  0  0  0  0  0  0  0
    0.4016   -7.1057    4.0963 C   0  0  1  0  0  0  0  0  0  0  0  0
   -0.7506   -6.3033    4.0709 O   0  0  0  0  0  0  0  0  0  0  0  0
    1.5824   -6.6914    3.1458 C   0  0  1  0  0  0  0  0  0  0  0  0
    0.9619   -6.7677    1.7197 C   0  0  0  0  0  0  0  0  0  0  0  0
    2.1913   -5.2616    3.2877 C   0  0  0  0  0  0  0  0  0  0  0  0
    1.4150   -4.2028    3.5984 C   0  0  0  0  0  0  0  0  0  0  0  0
    1.8293   -2.7634    3.5262 C   0  0  0  0  0  0  0  0  0  0  0  0
    2.9770   -2.5664    2.5328 C   0  0  2  0  0  0  0  0  0  0  0  0
    2.5042   -2.6230    1.0556 C   0  0  0  0  0  0  0  0  0  0  0  0
    3.6567   -2.1661    0.1606 C   0  0  1  0  0  0  0  0  0  0  0  0
    4.7962   -3.1433    0.3284 C   0  0  1  0  0  0  0  0  0  0  0  0
    5.6764   -2.8325   -0.7482 O   0  0  0  0  0  0  0  0  0  0  0  0
    4.8549   -2.5922   -1.9036 C   0  0  2  0  0  0  0  0  0  0  0  0
    4.9321   -3.7326   -2.9061 C   0  0  0  0  0  0  0  0  0  0  0  0
    4.9533   -1.1607   -2.4008 C   0  0  0  0  0  0  0  0  0  0  0  0
    3.6296   -0.8447   -1.9086 O   0  0  0  0  0  0  0  0  0  0  0  0
    3.5021   -2.1712   -1.3382 C   0  0  2  0  0  0  0  0  0  0  0  0
    5.3295   -3.1710    1.7809 C   0  0  1  0  0  0  0  0  0  0  0  0
    5.8727   -1.8852    2.0386 O   0  0  0  0  0  0  0  0  0  0  0  0
    4.1835   -3.5213    2.8259 C   0  0  1  0  0  0  0  0  0  0  0  0
    4.7403   -3.1530    4.2329 C   0  0  0  0  0  0  0  0  0  0  0  0
    3.7020   -5.0560    2.9282 C   0  0  2  0  0  0  0  0  0  0  0  0
    4.1530   -6.1226    1.8867 C   0  0  1  0  0  0  0  0  0  0  0  0
    5.5457   -6.1352    1.6527 O   0  0  0  0  0  0  0  0  0  0  0  0
    3.8475   -7.5851    2.3174 C   0  0  0  0  0  0  0  0  0  0  0  0
    2.6657   -7.8063    3.3013 C   0  0  1  0  0  0  0  0  0  0  0  0
    0.4064  -10.5801    6.9119 H   0  0  0  0  0  0  0  0  0  0  0  0
   -0.1484   -9.1204    7.6942 H   0  0  0  0  0  0  0  0  0  0  0  0
    0.8858  -10.2248    8.5771 H   0  0  0  0  0  0  0  0  0  0  0  0
    2.3567   -8.3659    8.8379 H   0  0  0  0  0  0  0  0  0  0  0  0
    3.3039  -10.5249    8.0938 H   0  0  0  0  0  0  0  0  0  0  0  0
    4.7827  -10.9808    6.2542 H   0  0  0  0  0  0  0  0  0  0  0  0
    4.9210   -9.3634    4.4888 H   0  0  0  0  0  0  0  0  0  0  0  0
    2.6342  -10.9450    4.1755 H   0  0  0  0  0  0  0  0  0  0  0  0
    3.4177   -6.2569    5.6222 H   0  0  0  0  0  0  0  0  0  0  0  0
    4.8711   -7.0470    4.9697 H   0  0  0  0  0  0  0  0  0  0  0  0
    4.2265   -7.5241    6.5053 H   0  0  0  0  0  0  0  0  0  0  0  0
    1.2580   -9.3507    5.1177 H   0  0  0  0  0  0  0  0  0  0  0  0
   -0.1036   -7.5568    6.1294 H   0  0  0  0  0  0  0  0  0  0  0  0
    1.2094   -6.4278    5.9878 H   0  0  0  0  0  0  0  0  0  0  0  0
    0.0296   -8.0651    3.7366 H   0  0  0  0  0  0  0  0  0  0  0  0
   -1.4305   -6.7701    4.5354 H   0  0  0  0  0  0  0  0  0  0  0  0
    0.4893   -7.7296    1.5255 H   0  0  0  0  0  0  0  0  0  0  0  0
    1.6724   -6.6147    0.9156 H   0  0  0  0  0  0  0  0  0  0  0  0
    0.1951   -6.0075    1.5955 H   0  0  0  0  0  0  0  0  0  0  0  0
    0.3738   -4.3028    3.8454 H   0  0  0  0  0  0  0  0  0  0  0  0
    0.9687   -2.1699    3.2122 H   0  0  0  0  0  0  0  0  0  0  0  0
    2.0963   -2.4197    4.5251 H   0  0  0  0  0  0  0  0  0  0  0  0
    3.3068   -1.5376    2.6922 H   0  0  0  0  0  0  0  0  0  0  0  0
    2.1985   -3.6327    0.7855 H   0  0  0  0  0  0  0  0  0  0  0  0
    1.6470   -1.9695    0.9104 H   0  0  0  0  0  0  0  0  0  0  0  0
    3.9597   -1.1670    0.4723 H   0  0  0  0  0  0  0  0  0  0  0  0
    4.4279   -4.1286    0.0731 H   0  0  0  0  0  0  0  0  0  0  0  0
    4.2592   -3.5789   -3.7478 H   0  0  0  0  0  0  0  0  0  0  0  0
    4.6380   -4.6658   -2.4359 H   0  0  0  0  0  0  0  0  0  0  0  0
    5.9353   -3.8527   -3.3024 H   0  0  0  0  0  0  0  0  0  0  0  0
    5.7290   -0.5740   -1.9024 H   0  0  0  0  0  0  0  0  0  0  0  0
    4.9976   -1.0735   -3.4857 H   0  0  0  0  0  0  0  0  0  0  0  0
    2.6538   -2.7345   -1.7415 H   0  0  0  0  0  0  0  0  0  0  0  0
    6.1829   -3.8361    1.8787 H   0  0  0  0  0  0  0  0  0  0  0  0
    5.2038   -1.2322    1.9069 H   0  0  0  0  0  0  0  0  0  0  0  0
    5.6946   -3.6428    4.4210 H   0  0  0  0  0  0  0  0  0  0  0  0
    4.0651   -3.4566    5.0309 H   0  0  0  0  0  0  0  0  0  0  0  0
    4.8973   -2.0817    4.3561 H   0  0  0  0  0  0  0  0  0  0  0  0
    4.2236   -5.3997    3.8056 H   0  0  0  0  0  0  0  0  0  0  0  0
    3.6669   -5.9232    0.9346 H   0  0  0  0  0  0  0  0  0  0  0  0
    5.7933   -5.3416    1.2081 H   0  0  0  0  0  0  0  0  0  0  0  0
    3.6404   -8.1495    1.4052 H   0  0  0  0  0  0  0  0  0  0  0  0
    4.7414   -8.0560    2.7222 H   0  0  0  0  0  0  0  0  0  0  0  0
    2.1651   -8.6854    2.9008 H   0  0  0  0  0  0  0  0  0  0  0  0
  1  2  1  0
  1 38  1  0
  1 39  1  0
  1 40  1  0
  2 10  1  0
  2  3  1  1
  2  4  1  0
  3 41  1  0
  4  5  2  0
  4 42  1  0
  5  6  1  0
  5 43  1  0
  6  7  1  0
  6  8  1  0
  6 44  1  6
  7 45  1  0
  8 37  1  0
  8  9  1  1
  8 10  1  0
  9 46  1  0
  9 47  1  0
  9 48  1  0
 10 11  1  0
 10 49  1  6
 11 12  1  0
 11 50  1  0
 11 51  1  0
 12 13  1  0
 12 14  1  0
 12 52  1  6
 13 53  1  0
 14 37  1  0
 14 15  1  6
 14 16  1  0
 15 54  1  0
 15 55  1  0
 15 56  1  0
 16 33  1  0
 16 17  2  0
 17 18  1  0
 17 57  1  0
 18 19  1  0
 18 58  1  0
 18 59  1  0
 19 31  1  0
 19 20  1  0
 19 60  1  1
 20 21  1  0
 20 61  1  0
 20 62  1  0
 21 28  1  0
 21 22  1  0
 21 63  1  1
 22 23  1  0
 22 29  1  0
 22 64  1  6
 23 24  1  0
 24 28  1  0
 24 25  1  6
 24 26  1  0
 25 65  1  0
 25 66  1  0
 25 67  1  0
 26 27  1  0
 26 68  1  0
 26 69  1  0
 27 28  1  0
 28 70  1  1
 29 30  1  0
 29 31  1  0
 29 71  1  6
 30 72  1  0
 31 32  1  1
 31 33  1  0
 32 73  1  0
 32 74  1  0
 32 75  1  0
 33 34  1  0
 33 76  1  1
 34 35  1  0
 34 36  1  0
 34 77  1  6
 35 78  1  0
 36 37  1  0
 36 79  1  0
 36 80  1  0
 37 81  1  6
M  END
>  <i_m_ct_stereo_status>  (314) 
1

>  <s_m_source_file>  (314) 
/var/tmp/pbs.5076255.sched01/tmpjgl1obm9/123zpz496x9.sdf

>  <i_m_source_file_index>  (314) 
8

>  <i_lp_mmshare_version>  (314) 
48012

>  <i_f3d_flags>  (314) 
0

>  <s_epik_input>  (314) 
W09IXVtDQEBIXTFbQ0hdPVtDSF1bQ0BAXShbQ0gzXSkoW09IXSlbQ0BIXShbQ0BAXTEyW0NIM10pW0NIMl1bQ0BASF0oW09IXSlbQ0BAXTMoW0NIM10pQz00W0NAQEhdKFtDQEBIXShbT0hdKVtDSDJdW0NAQEhdMjMpW0NAXTUoW0NIM10pW0NASF0oW0NIMl1bQ0hdNClbQ0gyXVtDQEhdNltDQEhdKFtDQEhdNVtPSF0pT1tDQEBdNyhbQ0gzXSlbQ0BASF02T1tDSDJdNw==

>  <s_epik_cmdline>  (314) 
J2VwaWtfcHl0aG9uJywgJy1waHQnLCAnMi4wJywgJy1waCcsICc3LjAnLCAnLXRuJywgJzgnLCAnLW1hJywgJzIwMCcsICctaW1hZScsICc8aW5maWxlLm1hZT4nLCAnLW9tYWUnLCAnPG91dGZpbGUubWFlPic=

>  <r_lp_tautomer_probability>  (314) 
1

>  <r_epik_Ionization_Penalty>  (314) 
1.27722e-06

>  <r_epik_Ionization_Penalty_Charging>  (314) 
0

>  <r_epik_Ionization_Penalty_Neutral>  (314) 
1.27722e-06

>  <r_epik_State_Penalty>  (314) 
-0

>  <r_epik_Charging_Adjusted_Penalty>  (314) 
0

>  <i_epik_Tot_Q>  (314) 
0

>  <i_epik_Tot_abs_Q>  (314) 
0

>  <s_lp_Force_Field>  (314) 
OPLS3e

>  <r_lp_Energy>  (314) 
78.9962

>  <b_lp_Chiralities_Consistent>  (314) 
1

>  <s_lp_Variant>  (314) 
94:0-1

>  <s_i_glide_gridfile>  (314) 
pfpi4k_grid

>  <i_i_glide_lignum>  (314) 
8

>  <i_i_glide_rotatable_bonds>  (314) 
5

>  <r_i_docking_score>  (314) 
-1.68163

>  <r_i_glide_ligand_efficiency>  (314) 
-0.0454494

>  <r_i_glide_ligand_efficiency_sa>  (314) 
-0.151447

>  <r_i_glide_ligand_efficiency_ln>  (314) 
-0.364705

>  <r_i_glide_gscore>  (314) 
-1.68163

>  <r_i_glide_lipo>  (314) 
-0.21182

>  <r_i_glide_hbond>  (314) 
-0.0616108

>  <r_i_glide_metal>  (314) 
-0

>  <r_i_glide_rewards>  (314) 
0

>  <r_i_glide_evdw>  (314) 
-22.2152

>  <r_i_glide_ecoul>  (314) 
-1.98292

>  <r_i_glide_erotb>  (314) 
0

>  <r_i_glide_esite>  (314) 
0

>  <r_i_glide_emodel>  (314) 
-26.948

>  <r_i_glide_energy>  (314) 
-24.1981

>  <r_i_glide_einternal>  (314) 
0.845627

>  <r_i_glide_intrahb_reward>  (314) 
-0

>  <i_i_glide_confnum>  (314) 
1

>  <i_i_glide_posenum>  (314) 
1

>  <r_i_glide_eff_state_penalty>  (314) 
0

>  <ligand_id>  (314) 
94

>  <original_smiles>  (314) 
CC1(O)C=CC(O)C2(C)C1CC(O)C1(C)C3=CCC4CC5C(OC6(C)COC56)C(O)C4(C)C3C(O)CC12

>  <smiles>  (314) 
[H]OC1([H])C([H])=C([H])C(O[H])(C([H])([H])[H])C2([H])C([H])([H])C([H])(O[H])C3(C([H])([H])[H])C4=C([H])C([H])([H])C5([H])C([H])([H])C6([H])C([H])(OC7(C([H])([H])[H])C([H])([H])OC67[H])C([H])(O[H])C5(C([H])([H])[H])C4([H])C([H])(O[H])C([H])([H])C3([H])C12C([H])([H])[H]

$$$$
96:0:0
     RDKit          3D

 24 25  0  0  1  0  0  0  0  0999 V2000
   -1.0079    2.8689    8.1844 C   0  0  0  0  0  0  0  0  0  0  0  0
   -2.0402    3.3257    7.1428 C   0  0  0  0  0  0  0  0  0  0  0  0
   -3.3810    2.5954    7.2915 C   0  0  0  0  0  0  0  0  0  0  0  0
   -1.5199    3.1783    5.7887 N   0  0  0  0  0  0  0  0  0  0  0  0
   -1.3038    4.2985    5.0368 N   0  0  0  0  0  0  0  0  0  0  0  0
   -0.8286    3.8861    3.8838 C   0  0  0  0  0  0  0  0  0  0  0  0
   -0.7241    2.4660    3.8510 C   0  0  0  0  0  0  0  0  0  0  0  0
   -0.3005    1.4606    2.9580 C   0  0  0  0  0  0  0  0  0  0  0  0
    0.2106    1.7425    1.6940 N   0  0  0  0  0  0  0  0  0  0  0  0
   -0.3685    0.1766    3.3589 N   0  0  0  0  0  0  0  0  0  0  0  0
   -0.8267   -0.1122    4.5785 C   0  0  0  0  0  0  0  0  0  0  0  0
   -1.2610    0.7154    5.5300 N   0  0  0  0  0  0  0  0  0  0  0  0
   -1.1844    2.0146    5.1098 C   0  0  0  0  0  0  0  0  0  0  0  0
   -1.3758    3.0337    9.1962 H   0  0  0  0  0  0  0  0  0  0  0  0
   -0.0735    3.4207    8.0803 H   0  0  0  0  0  0  0  0  0  0  0  0
   -0.7795    1.8086    8.0862 H   0  0  0  0  0  0  0  0  0  0  0  0
   -2.2221    4.3849    7.3147 H   0  0  0  0  0  0  0  0  0  0  0  0
   -3.8083    2.7584    8.2797 H   0  0  0  0  0  0  0  0  0  0  0  0
   -3.2657    1.5222    7.1554 H   0  0  0  0  0  0  0  0  0  0  0  0
   -4.0995    2.9445    6.5502 H   0  0  0  0  0  0  0  0  0  0  0  0
   -0.5716    4.5974    3.1080 H   0  0  0  0  0  0  0  0  0  0  0  0
    0.2150    2.6990    1.3171 H   0  0  0  0  0  0  0  0  0  0  0  0
   -0.8551   -1.1623    4.8293 H   0  0  0  0  0  0  0  0  0  0  0  0
    0.4099    1.0099    1.0257 H   0  0  0  0  0  0  0  0  0  0  0  0
  1  2  1  0
  1 14  1  0
  1 15  1  0
  1 16  1  0
  2  3  1  0
  2  4  1  0
  2 17  1  0
  3 18  1  0
  3 19  1  0
  3 20  1  0
  4 13  1  0
  4  5  1  0
  5  6  2  0
  6  7  1  0
  6 21  1  0
  7 13  2  0
  7  8  1  0
  8  9  1  0
  8 10  2  0
  9 22  1  0
  9 24  1  0
 10 11  1  0
 11 12  2  0
 11 23  1  0
 12 13  1  0
M  END
>  <i_m_ct_stereo_status>  (315) 
1

>  <s_m_source_file>  (315) 
/var/tmp/pbs.5076255.sched01/tmpjgl1obm9/123zpz496x9.sdf

>  <i_m_source_file_index>  (315) 
11

>  <i_lp_mmshare_version>  (315) 
48012

>  <i_f3d_flags>  (315) 
0

>  <s_epik_input>  (315) 
W0NIM11bQ0hdKFtDSDNdKW4obltjSF0xKWMoYzEyKW5bY0hdW25IXWNcMj1OXFtIXQ==

>  <s_epik_cmdline>  (315) 
J2VwaWtfcHl0aG9uJywgJy1waHQnLCAnMi4wJywgJy1waCcsICc3LjAnLCAnLXRuJywgJzgnLCAnLW1hJywgJzIwMCcsICctaW1hZScsICc8aW5maWxlLm1hZT4nLCAnLW9tYWUnLCAnPG91dGZpbGUubWFlPic=

>  <r_epik_Ionization_Penalty>  (315) 
0.00130443

>  <r_epik_Ionization_Penalty_Charging>  (315) 
0

>  <r_epik_Ionization_Penalty_Neutral>  (315) 
0.00130443

>  <r_epik_State_Penalty>  (315) 
0.000858852

>  <r_epik_Charging_Adjusted_Penalty>  (315) 
0.000858852

>  <i_epik_Tot_Q>  (315) 
0

>  <i_epik_Tot_abs_Q>  (315) 
0

>  <s_lp_Force_Field>  (315) 
OPLS3e

>  <r_lp_Energy>  (315) 
10.9207

>  <b_lp_Chiralities_Consistent>  (315) 
1

>  <s_lp_Variant>  (315) 
96:0-1

>  <s_i_glide_gridfile>  (315) 
pfpi4k_grid

>  <i_i_glide_lignum>  (315) 
11

>  <i_i_glide_rotatable_bonds>  (315) 
1

>  <r_i_docking_score>  (315) 
-4.11207

>  <r_i_glide_ligand_efficiency>  (315) 
-0.316313

>  <r_i_glide_ligand_efficiency_sa>  (315) 
-0.743758

>  <r_i_glide_ligand_efficiency_ln>  (315) 
-1.15347

>  <r_i_glide_gscore>  (315) 
-4.11207

>  <r_i_glide_lipo>  (315) 
-0.212333

>  <r_i_glide_hbond>  (315) 
-0.16

>  <r_i_glide_metal>  (315) 
-0

>  <r_i_glide_rewards>  (315) 
-2.21119

>  <r_i_glide_evdw>  (315) 
-13.8666

>  <r_i_glide_ecoul>  (315) 
-4.79498

>  <r_i_glide_erotb>  (315) 
0

>  <r_i_glide_esite>  (315) 
-0.115968

>  <r_i_glide_emodel>  (315) 
-24.5437

>  <r_i_glide_energy>  (315) 
-18.6616

>  <r_i_glide_einternal>  (315) 
0.63477

>  <r_i_glide_intrahb_reward>  (315) 
-0

>  <i_i_glide_confnum>  (315) 
1

>  <i_i_glide_posenum>  (315) 
7

>  <r_i_glide_eff_state_penalty>  (315) 
0

>  <ligand_id>  (315) 
96

>  <original_smiles>  (315) 
CC(C)n1ncc2c(=N)[nH]cnc21

>  <smiles>  (315) 
[H]c1nc(N([H])[H])c2c([H])nn(C([H])(C([H])([H])[H])C([H])([H])[H])c2n1

$$$$
96:0:1
     RDKit          3D

 24 25  0  0  1  0  0  0  0  0999 V2000
   -3.0586    3.3099    9.1545 C   0  0  0  0  0  0  0  0  0  0  0  0
   -1.8743    2.3788    8.8580 C   0  0  0  0  0  0  0  0  0  0  0  0
   -0.5781    2.8210    9.5545 C   0  0  0  0  0  0  0  0  0  0  0  0
   -1.6817    2.2216    7.4223 N   0  0  0  0  0  0  0  0  0  0  0  0
   -2.0667    1.0509    6.8332 N   0  0  0  0  0  0  0  0  0  0  0  0
   -1.7845    1.1783    5.5553 C   0  0  0  0  0  0  0  0  0  0  0  0
   -1.2139    2.4554    5.2721 C   0  0  0  0  0  0  0  0  0  0  0  0
   -0.7226    3.1851    4.1716 C   0  0  0  0  0  0  0  0  0  0  0  0
   -0.7054    2.6757    2.8782 N   0  0  0  0  0  0  0  0  0  0  0  0
   -0.2490    4.4334    4.3668 N   0  0  0  0  0  0  0  0  0  0  0  0
   -0.2229    4.9373    5.6020 C   0  0  0  0  0  0  0  0  0  0  0  0
   -0.6836    4.3903    6.7270 N   0  0  0  0  0  0  0  0  0  0  0  0
   -1.1564    3.1299    6.5111 C   0  0  0  0  0  0  0  0  0  0  0  0
   -3.2367    3.3692   10.2268 H   0  0  0  0  0  0  0  0  0  0  0  0
   -3.9769    2.9509    8.6877 H   0  0  0  0  0  0  0  0  0  0  0  0
   -2.8667    4.3190    8.7905 H   0  0  0  0  0  0  0  0  0  0  0  0
   -2.1128    1.3957    9.2513 H   0  0  0  0  0  0  0  0  0  0  0  0
   -0.7125    2.8601   10.6348 H   0  0  0  0  0  0  0  0  0  0  0  0
   -0.2646    3.8140    9.2376 H   0  0  0  0  0  0  0  0  0  0  0  0
    0.2366    2.1282    9.3373 H   0  0  0  0  0  0  0  0  0  0  0  0
   -2.0041    0.3761    4.8661 H   0  0  0  0  0  0  0  0  0  0  0  0
   -1.0457    1.7574    2.6361 H   0  0  0  0  0  0  0  0  0  0  0  0
    0.1716    5.9363    5.6876 H   0  0  0  0  0  0  0  0  0  0  0  0
   -0.3417    3.2349    2.0996 H   0  0  0  0  0  0  0  0  0  0  0  0
  1  2  1  0
  1 14  1  0
  1 15  1  0
  1 16  1  0
  2  3  1  0
  2  4  1  0
  2 17  1  0
  3 18  1  0
  3 19  1  0
  3 20  1  0
  4 13  1  0
  4  5  1  0
  5  6  2  0
  6  7  1  0
  6 21  1  0
  7 13  2  0
  7  8  1  0
  8  9  1  0
  8 10  2  0
  9 22  1  0
  9 24  1  0
 10 11  1  0
 11 12  2  0
 11 23  1  0
 12 13  1  0
M  END
>  <i_m_ct_stereo_status>  (316) 
1

>  <s_m_source_file>  (316) 
/var/tmp/pbs.5076255.sched01/tmpjgl1obm9/123zpz496x9.sdf

>  <i_m_source_file_index>  (316) 
11

>  <i_lp_mmshare_version>  (316) 
48012

>  <i_f3d_flags>  (316) 
0

>  <s_epik_input>  (316) 
W0NIM11bQ0hdKFtDSDNdKW4obltjSF0xKWMoYzEyKW5bY0hdW25IXWNcMj1OXFtIXQ==

>  <s_epik_cmdline>  (316) 
J2VwaWtfcHl0aG9uJywgJy1waHQnLCAnMi4wJywgJy1waCcsICc3LjAnLCAnLXRuJywgJzgnLCAnLW1hJywgJzIwMCcsICctaW1hZScsICc8aW5maWxlLm1hZT4nLCAnLW9tYWUnLCAnPG91dGZpbGUubWFlPic=

>  <r_epik_Ionization_Penalty>  (316) 
0.00130443

>  <r_epik_Ionization_Penalty_Charging>  (316) 
0

>  <r_epik_Ionization_Penalty_Neutral>  (316) 
0.00130443

>  <r_epik_State_Penalty>  (316) 
0.000858852

>  <r_epik_Charging_Adjusted_Penalty>  (316) 
0.000858852

>  <i_epik_Tot_Q>  (316) 
0

>  <i_epik_Tot_abs_Q>  (316) 
0

>  <s_lp_Force_Field>  (316) 
OPLS3e

>  <r_lp_Energy>  (316) 
10.9207

>  <b_lp_Chiralities_Consistent>  (316) 
1

>  <s_lp_Variant>  (316) 
96:0-1

>  <s_i_glide_gridfile>  (316) 
pfpi4k_grid

>  <i_i_glide_lignum>  (316) 
11

>  <i_i_glide_rotatable_bonds>  (316) 
1

>  <r_i_docking_score>  (316) 
-4.04307

>  <r_i_glide_ligand_efficiency>  (316) 
-0.311005

>  <r_i_glide_ligand_efficiency_sa>  (316) 
-0.731278

>  <r_i_glide_ligand_efficiency_ln>  (316) 
-1.13412

>  <r_i_glide_gscore>  (316) 
-4.04307

>  <r_i_glide_lipo>  (316) 
0

>  <r_i_glide_hbond>  (316) 
-0.32

>  <r_i_glide_metal>  (316) 
-0

>  <r_i_glide_rewards>  (316) 
-2.22558

>  <r_i_glide_evdw>  (316) 
-12.0325

>  <r_i_glide_ecoul>  (316) 
-5.0904

>  <r_i_glide_erotb>  (316) 
0

>  <r_i_glide_esite>  (316) 
-0.132308

>  <r_i_glide_emodel>  (316) 
-22.7198

>  <r_i_glide_energy>  (316) 
-17.1229

>  <r_i_glide_einternal>  (316) 
0.903664

>  <r_i_glide_intrahb_reward>  (316) 
-0

>  <i_i_glide_confnum>  (316) 
1

>  <i_i_glide_posenum>  (316) 
11

>  <r_i_glide_eff_state_penalty>  (316) 
0

>  <ligand_id>  (316) 
96

>  <original_smiles>  (316) 
CC(C)n1ncc2c(=N)[nH]cnc21

>  <smiles>  (316) 
[H]c1nc(N([H])[H])c2c([H])nn(C([H])(C([H])([H])[H])C([H])([H])[H])c2n1

$$$$
96:0:2
     RDKit          3D

 24 25  0  0  1  0  0  0  0  0999 V2000
   -3.6635    3.2981    8.6587 C   0  0  0  0  0  0  0  0  0  0  0  0
   -2.3694    2.5004    8.4266 C   0  0  0  0  0  0  0  0  0  0  0  0
   -1.2359    2.9593    9.3565 C   0  0  0  0  0  0  0  0  0  0  0  0
   -1.9586    2.5403    7.0287 N   0  0  0  0  0  0  0  0  0  0  0  0
   -1.7558    3.7498    6.4377 N   0  0  0  0  0  0  0  0  0  0  0  0
   -1.3903    3.5060    5.2018 C   0  0  0  0  0  0  0  0  0  0  0  0
   -1.3362    2.1073    4.9428 C   0  0  0  0  0  0  0  0  0  0  0  0
   -1.0310    1.2412    3.8728 C   0  0  0  0  0  0  0  0  0  0  0  0
   -0.6533    1.6970    2.6109 N   0  0  0  0  0  0  0  0  0  0  0  0
   -1.1039   -0.0919    4.0844 N   0  0  0  0  0  0  0  0  0  0  0  0
   -1.4603   -0.5413    5.2899 C   0  0  0  0  0  0  0  0  0  0  0  0
   -1.7874    0.1437    6.3899 N   0  0  0  0  0  0  0  0  0  0  0  0
   -1.7032    1.4859    6.1606 C   0  0  0  0  0  0  0  0  0  0  0  0
   -4.0108    3.1929    9.6853 H   0  0  0  0  0  0  0  0  0  0  0  0
   -4.4618    2.9455    8.0069 H   0  0  0  0  0  0  0  0  0  0  0  0
   -3.5158    4.3624    8.4759 H   0  0  0  0  0  0  0  0  0  0  0  0
   -2.5799    1.4584    8.6579 H   0  0  0  0  0  0  0  0  0  0  0  0
   -1.5262    2.8512   10.4006 H   0  0  0  0  0  0  0  0  0  0  0  0
   -0.9800    4.0063    9.1912 H   0  0  0  0  0  0  0  0  0  0  0  0
   -0.3345    2.3647    9.2052 H   0  0  0  0  0  0  0  0  0  0  0  0
   -1.1740    4.3223    4.5328 H   0  0  0  0  0  0  0  0  0  0  0  0
   -0.5609    2.6808    2.3863 H   0  0  0  0  0  0  0  0  0  0  0  0
   -1.5082   -1.6176    5.3757 H   0  0  0  0  0  0  0  0  0  0  0  0
   -0.4298    1.0647    1.8553 H   0  0  0  0  0  0  0  0  0  0  0  0
  1  2  1  0
  1 14  1  0
  1 15  1  0
  1 16  1  0
  2  3  1  0
  2  4  1  0
  2 17  1  0
  3 18  1  0
  3 19  1  0
  3 20  1  0
  4 13  1  0
  4  5  1  0
  5  6  2  0
  6  7  1  0
  6 21  1  0
  7 13  2  0
  7  8  1  0
  8  9  1  0
  8 10  2  0
  9 22  1  0
  9 24  1  0
 10 11  1  0
 11 12  2  0
 11 23  1  0
 12 13  1  0
M  END
>  <i_m_ct_stereo_status>  (317) 
1

>  <s_m_source_file>  (317) 
/var/tmp/pbs.5076255.sched01/tmpjgl1obm9/123zpz496x9.sdf

>  <i_m_source_file_index>  (317) 
11

>  <i_lp_mmshare_version>  (317) 
48012

>  <i_f3d_flags>  (317) 
0

>  <s_epik_input>  (317) 
W0NIM11bQ0hdKFtDSDNdKW4obltjSF0xKWMoYzEyKW5bY0hdW25IXWNcMj1OXFtIXQ==

>  <s_epik_cmdline>  (317) 
J2VwaWtfcHl0aG9uJywgJy1waHQnLCAnMi4wJywgJy1waCcsICc3LjAnLCAnLXRuJywgJzgnLCAnLW1hJywgJzIwMCcsICctaW1hZScsICc8aW5maWxlLm1hZT4nLCAnLW9tYWUnLCAnPG91dGZpbGUubWFlPic=

>  <r_epik_Ionization_Penalty>  (317) 
0.00130443

>  <r_epik_Ionization_Penalty_Charging>  (317) 
0

>  <r_epik_Ionization_Penalty_Neutral>  (317) 
0.00130443

>  <r_epik_State_Penalty>  (317) 
0.000858852

>  <r_epik_Charging_Adjusted_Penalty>  (317) 
0.000858852

>  <i_epik_Tot_Q>  (317) 
0

>  <i_epik_Tot_abs_Q>  (317) 
0

>  <s_lp_Force_Field>  (317) 
OPLS3e

>  <r_lp_Energy>  (317) 
10.9207

>  <b_lp_Chiralities_Consistent>  (317) 
1

>  <s_lp_Variant>  (317) 
96:0-1

>  <s_i_glide_gridfile>  (317) 
pfpi4k_grid

>  <i_i_glide_lignum>  (317) 
11

>  <i_i_glide_rotatable_bonds>  (317) 
1

>  <r_i_docking_score>  (317) 
-3.97629

>  <r_i_glide_ligand_efficiency>  (317) 
-0.305869

>  <r_i_glide_ligand_efficiency_sa>  (317) 
-0.7192

>  <r_i_glide_ligand_efficiency_ln>  (317) 
-1.11539

>  <r_i_glide_gscore>  (317) 
-3.97629

>  <r_i_glide_lipo>  (317) 
-0.00951433

>  <r_i_glide_hbond>  (317) 
-0.170569

>  <r_i_glide_metal>  (317) 
-0

>  <r_i_glide_rewards>  (317) 
-2.25416

>  <r_i_glide_evdw>  (317) 
-15.1182

>  <r_i_glide_ecoul>  (317) 
-4.31384

>  <r_i_glide_erotb>  (317) 
0

>  <r_i_glide_esite>  (317) 
-0.139066

>  <r_i_glide_emodel>  (317) 
-25.4049

>  <r_i_glide_energy>  (317) 
-19.4321

>  <r_i_glide_einternal>  (317) 
0.0487967

>  <r_i_glide_intrahb_reward>  (317) 
-0

>  <i_i_glide_confnum>  (317) 
2

>  <i_i_glide_posenum>  (317) 
22

>  <r_i_glide_eff_state_penalty>  (317) 
0

>  <ligand_id>  (317) 
96

>  <original_smiles>  (317) 
CC(C)n1ncc2c(=N)[nH]cnc21

>  <smiles>  (317) 
[H]c1nc(N([H])[H])c2c([H])nn(C([H])(C([H])([H])[H])C([H])([H])[H])c2n1

$$$$
97:0:0
     RDKit          3D

 67 72  0  0  1  0  0  0  0  0999 V2000
   -1.3310    4.1541    8.3396 C   0  0  0  0  0  0  0  0  0  0  0  0
   -1.4955    3.3892    7.0154 C   0  0  2  0  0  0  0  0  0  0  0  0
   -1.5997    1.8812    7.1702 C   0  0  0  0  0  0  0  0  0  0  0  0
   -2.5773    1.3410    7.6663 O   0  0  0  0  0  0  0  0  0  0  0  0
   -0.5605    1.2532    6.6545 O   0  0  0  0  0  0  0  0  0  0  0  0
   -0.6109    0.6970    5.3686 C   0  0  2  0  0  0  0  0  0  0  0  0
    0.7461   -0.0146    5.1329 C   0  0  0  0  0  0  0  0  0  0  0  0
    2.0566    0.7869    4.8141 C   0  0  2  0  0  0  0  0  0  0  0  0
    2.8464   -0.2480    3.9405 C   0  0  0  0  0  0  0  0  0  0  0  0
    3.0674    1.1512    6.0098 C   0  0  1  0  0  0  0  0  0  0  0  0
    4.0774    2.2203    5.5050 C   0  0  0  0  0  0  0  0  0  0  0  0
    3.4540    3.5171    4.9735 C   0  0  0  0  0  0  0  0  0  0  0  0
    1.9332    3.4337    4.6184 C   0  0  2  0  0  0  0  0  0  0  0  0
    1.7802    4.6127    3.7070 C   0  0  0  0  0  0  0  0  0  0  0  0
    1.3434    5.6535    4.3935 C   0  0  0  0  0  0  0  0  0  0  0  0
    1.0692    5.3385    5.6913 O   0  0  0  0  0  0  0  0  0  0  0  0
    0.9846    3.8995    5.8401 C   0  0  2  0  0  0  0  0  0  0  0  0
    1.6539    3.7660    7.2542 C   0  0  0  0  0  0  0  0  0  0  0  0
    1.7529    2.4276    8.0174 C   0  0  0  0  0  0  0  0  0  0  0  0
    2.7064    1.2867    7.5562 C   0  0  0  0  0  0  0  0  0  0  0  0
    2.1579   -0.0516    8.1183 C   0  0  0  0  0  0  0  0  0  0  0  0
    4.0232    1.4943    8.3616 C   0  0  0  0  0  0  0  0  0  0  0  0
   -0.6376    3.7924    5.7690 C   0  0  1  0  0  0  0  0  0  0  0  0
   -1.3588    3.1534    4.5314 C   0  0  1  0  0  0  0  0  0  0  0  0
   -1.5158    4.0849    3.3245 C   0  0  0  0  0  0  0  0  0  0  0  0
   -1.1414    1.6352    4.2333 C   0  0  1  0  0  0  0  0  0  0  0  0
   -0.5360    1.3178    2.8663 C   0  0  0  0  0  0  0  0  0  0  0  0
    0.8758    1.8584    2.6593 C   0  0  0  0  0  0  0  0  0  0  0  0
    1.7938    2.0360    3.9005 C   0  0  2  0  0  0  0  0  0  0  0  0
   -2.2825    4.1738    8.8778 H   0  0  0  0  0  0  0  0  0  0  0  0
   -1.0507    5.1942    8.1536 H   0  0  0  0  0  0  0  0  0  0  0  0
   -0.6031    3.7037    9.0161 H   0  0  0  0  0  0  0  0  0  0  0  0
   -2.5151    3.6680    6.7487 H   0  0  0  0  0  0  0  0  0  0  0  0
   -1.3359   -0.1159    5.4324 H   0  0  0  0  0  0  0  0  0  0  0  0
    0.9411   -0.7220    5.9300 H   0  0  0  0  0  0  0  0  0  0  0  0
    0.5522   -0.7003    4.3078 H   0  0  0  0  0  0  0  0  0  0  0  0
    3.8089    0.1323    3.5951 H   0  0  0  0  0  0  0  0  0  0  0  0
    2.2977   -0.5389    3.0425 H   0  0  0  0  0  0  0  0  0  0  0  0
    3.0441   -1.1642    4.5011 H   0  0  0  0  0  0  0  0  0  0  0  0
    3.7105    0.2715    6.0740 H   0  0  0  0  0  0  0  0  0  0  0  0
    4.8722    2.4662    6.2011 H   0  0  0  0  0  0  0  0  0  0  0  0
    4.6342    1.7816    4.6763 H   0  0  0  0  0  0  0  0  0  0  0  0
    3.7022    4.3735    5.5935 H   0  0  0  0  0  0  0  0  0  0  0  0
    4.0139    3.7479    4.0667 H   0  0  0  0  0  0  0  0  0  0  0  0
    2.0504    4.6201    2.6603 H   0  0  0  0  0  0  0  0  0  0  0  0
    1.1452    6.6697    4.0835 H   0  0  0  0  0  0  0  0  0  0  0  0
    2.6457    4.2034    7.2856 H   0  0  0  0  0  0  0  0  0  0  0  0
    1.1347    4.4584    7.9063 H   0  0  0  0  0  0  0  0  0  0  0  0
    2.0765    2.7180    9.0178 H   0  0  0  0  0  0  0  0  0  0  0  0
    0.7854    2.0462    8.2855 H   0  0  0  0  0  0  0  0  0  0  0  0
    2.2637   -0.1108    9.2024 H   0  0  0  0  0  0  0  0  0  0  0  0
    2.6821   -0.9150    7.7040 H   0  0  0  0  0  0  0  0  0  0  0  0
    1.0933   -0.1810    7.9430 H   0  0  0  0  0  0  0  0  0  0  0  0
    3.8712    1.3585    9.4340 H   0  0  0  0  0  0  0  0  0  0  0  0
    4.4128    2.5079    8.2602 H   0  0  0  0  0  0  0  0  0  0  0  0
    4.8022    0.7903    8.0628 H   0  0  0  0  0  0  0  0  0  0  0  0
   -0.9801    4.8227    5.6931 H   0  0  0  0  0  0  0  0  0  0  0  0
   -2.4123    3.1568    4.8182 H   0  0  0  0  0  0  0  0  0  0  0  0
   -0.5581    4.2580    2.8686 H   0  0  0  0  0  0  0  0  0  0  0  0
   -1.8862    5.0599    3.6145 H   0  0  0  0  0  0  0  0  0  0  0  0
   -2.2128    3.6859    2.5827 H   0  0  0  0  0  0  0  0  0  0  0  0
   -2.1654    1.2789    4.1084 H   0  0  0  0  0  0  0  0  0  0  0  0
   -0.5479    0.2392    2.7115 H   0  0  0  0  0  0  0  0  0  0  0  0
   -1.1785    1.6984    2.0711 H   0  0  0  0  0  0  0  0  0  0  0  0
    1.3559    1.1891    1.9450 H   0  0  0  0  0  0  0  0  0  0  0  0
    0.8262    2.7904    2.1078 H   0  0  0  0  0  0  0  0  0  0  0  0
    2.7023    2.0744    3.2969 H   0  0  0  0  0  0  0  0  0  0  0  0
  1  2  1  0
  1 30  1  0
  1 31  1  0
  1 32  1  0
  2 23  1  0
  2  3  1  0
  2 33  1  6
  3  4  2  0
  3  5  1  0
  5  6  1  0
  6 26  1  0
  6  7  1  0
  6 34  1  1
  7  8  1  0
  7 35  1  0
  7 36  1  0
  8 29  1  0
  8  9  1  6
  8 10  1  0
  9 37  1  0
  9 38  1  0
  9 39  1  0
 10 20  1  0
 10 11  1  0
 10 40  1  1
 11 12  1  0
 11 41  1  0
 11 42  1  0
 12 13  1  0
 12 43  1  0
 12 44  1  0
 13 17  1  0
 13 29  1  0
 13 14  1  6
 14 15  2  0
 14 45  1  0
 15 16  1  0
 15 46  1  0
 17 16  1  6
 17 18  1  0
 17 23  1  0
 18 19  1  0
 18 47  1  0
 18 48  1  0
 19 20  1  0
 19 49  1  0
 19 50  1  0
 20 21  1  0
 20 22  1  0
 21 51  1  0
 21 52  1  0
 21 53  1  0
 22 54  1  0
 22 55  1  0
 22 56  1  0
 23 24  1  0
 23 57  1  6
 24 25  1  0
 24 26  1  0
 24 58  1  1
 25 59  1  0
 25 60  1  0
 25 61  1  0
 26 27  1  0
 26 62  1  6
 27 28  1  0
 27 63  1  0
 27 64  1  0
 28 29  1  0
 28 65  1  0
 28 66  1  0
 29 67  1  6
M  END
>  <i_m_ct_stereo_status>  (318) 
1

>  <s_m_source_file>  (318) 
/var/tmp/pbs.5076255.sched01/tmpjgl1obm9/123zpz496x9.sdf

>  <i_m_source_file_index>  (318) 
12

>  <i_lp_mmshare_version>  (318) 
48012

>  <i_f3d_flags>  (318) 
0

>  <s_epik_input>  (318) 
W0NIXTE9W0NIXU9bQ0BdMihbQ0BAXTEzNClbQ0BASF01W0NASF0oW0NIM10pQyg9TylPW0NASF02W0NAQEhdKFtDQEBIXTVbQ0gzXSlbQ0gyXVtDSDJdW0NAQEhdNFtDQEBdKFtDSDJdNikoW0NIM10pW0NAQEhdKFtDSDJdW0NIMl0zKUMoW0NIM10pKFtDSDNdKVtDSDJdW0NIMl0y

>  <s_epik_cmdline>  (318) 
J2VwaWtfcHl0aG9uJywgJy1waHQnLCAnMi4wJywgJy1waCcsICc3LjAnLCAnLXRuJywgJzgnLCAnLW1hJywgJzIwMCcsICctaW1hZScsICc8aW5maWxlLm1hZT4nLCAnLW9tYWUnLCAnPG91dGZpbGUubWFlPic=

>  <r_lp_tautomer_probability>  (318) 
1

>  <r_epik_Ionization_Penalty>  (318) 
0

>  <r_epik_Ionization_Penalty_Charging>  (318) 
0

>  <r_epik_Ionization_Penalty_Neutral>  (318) 
0

>  <r_epik_State_Penalty>  (318) 
-0

>  <r_epik_Charging_Adjusted_Penalty>  (318) 
0

>  <i_epik_Tot_Q>  (318) 
0

>  <i_epik_Tot_abs_Q>  (318) 
0

>  <s_epik_Chemistry_Notes>  (318) 
This compound has an ester and may undergo hydrolysis at high or low pH.

>  <s_lp_Force_Field>  (318) 
OPLS3e

>  <r_lp_Energy>  (318) 
166.772

>  <b_lp_Chiralities_Consistent>  (318) 
1

>  <s_lp_Variant>  (318) 
97:0-1

>  <s_i_glide_gridfile>  (318) 
pfpi4k_grid

>  <i_i_glide_lignum>  (318) 
12

>  <i_i_glide_rotatable_bonds>  (318) 
0

>  <r_i_docking_score>  (318) 
-2.48234

>  <r_i_glide_ligand_efficiency>  (318) 
-0.0855979

>  <r_i_glide_ligand_efficiency_sa>  (318) 
-0.262984

>  <r_i_glide_ligand_efficiency_ln>  (318) 
-0.568393

>  <r_i_glide_gscore>  (318) 
-2.48234

>  <r_i_glide_lipo>  (318) 
-0.0352807

>  <r_i_glide_hbond>  (318) 
-0.134322

>  <r_i_glide_metal>  (318) 
-0

>  <r_i_glide_rewards>  (318) 
-0.691513

>  <r_i_glide_evdw>  (318) 
-22.3582

>  <r_i_glide_ecoul>  (318) 
-3.18351

>  <r_i_glide_erotb>  (318) 
0

>  <r_i_glide_esite>  (318) 
-0.0257877

>  <r_i_glide_emodel>  (318) 
-29.5968

>  <r_i_glide_energy>  (318) 
-25.5417

>  <r_i_glide_einternal>  (318) 
0

>  <r_i_glide_intrahb_reward>  (318) 
-0

>  <i_i_glide_confnum>  (318) 
1

>  <i_i_glide_posenum>  (318) 
11

>  <r_i_glide_eff_state_penalty>  (318) 
0

>  <ligand_id>  (318) 
97

>  <original_smiles>  (318) 
CC1C(=O)OC2CC3(C)C4CCC56C=COC5(CCC4(C)C)C1C(C)C2CCC36

>  <smiles>  (318) 
[H]C1=C([H])C23C([H])([H])C([H])([H])C4([H])C(C([H])([H])[H])(C([H])([H])[H])C([H])([H])C([H])([H])C2(O1)C1([H])C([H])(C([H])([H])[H])C(=O)OC2([H])C([H])([H])C4(C([H])([H])[H])C3([H])C([H])([H])C([H])([H])C2([H])C1([H])C([H])([H])[H]

$$$$
97:0:1
     RDKit          3D

 67 72  0  0  1  0  0  0  0  0999 V2000
    3.9263    1.3987    7.7920 C   0  0  0  0  0  0  0  0  0  0  0  0
    3.6119    1.4872    6.2861 C   0  0  2  0  0  0  0  0  0  0  0  0
    3.7196    2.8995    5.7170 C   0  0  0  0  0  0  0  0  0  0  0  0
    4.7749    3.5279    5.6864 O   0  0  0  0  0  0  0  0  0  0  0  0
    2.5448    3.3640    5.3250 O   0  0  0  0  0  0  0  0  0  0  0  0
    2.0997    3.2511    3.9985 C   0  0  2  0  0  0  0  0  0  0  0  0
    0.7072    3.9327    3.9306 C   0  0  0  0  0  0  0  0  0  0  0  0
   -0.5999    3.2213    4.4205 C   0  0  2  0  0  0  0  0  0  0  0  0
   -1.6889    3.8457    3.4790 C   0  0  0  0  0  0  0  0  0  0  0  0
   -1.1370    3.5315    5.9028 C   0  0  1  0  0  0  0  0  0  0  0  0
   -2.2058    2.4710    6.2861 C   0  0  0  0  0  0  0  0  0  0  0  0
   -1.7422    1.0121    6.2211 C   0  0  0  0  0  0  0  0  0  0  0  0
   -0.4314    0.7622    5.4060 C   0  0  2  0  0  0  0  0  0  0  0  0
   -0.5307   -0.7056    5.1267 C   0  0  0  0  0  0  0  0  0  0  0  0
    0.1574   -1.3723    6.0382 C   0  0  0  0  0  0  0  0  0  0  0  0
    0.8279   -0.5477    6.8853 O   0  0  0  0  0  0  0  0  0  0  0  0
    0.8935    0.7902    6.3290 C   0  0  2  0  0  0  0  0  0  0  0  0
    0.7325    1.6000    7.6648 C   0  0  0  0  0  0  0  0  0  0  0  0
    0.8333    3.1371    7.7265 C   0  0  0  0  0  0  0  0  0  0  0  0
   -0.2771    4.0564    7.1366 C   0  0  0  0  0  0  0  0  0  0  0  0
    0.3614    5.4372    6.8248 C   0  0  0  0  0  0  0  0  0  0  0  0
   -1.2385    4.3686    8.3219 C   0  0  0  0  0  0  0  0  0  0  0  0
    2.3935    0.6745    5.7067 C   0  0  1  0  0  0  0  0  0  0  0  0
    2.6113    0.5970    4.1581 C   0  0  1  0  0  0  0  0  0  0  0  0
    2.3972   -0.7929    3.5092 C   0  0  0  0  0  0  0  0  0  0  0  0
    2.2554    1.8543    3.3006 C   0  0  1  0  0  0  0  0  0  0  0  0
    1.2185    1.6060    2.2102 C   0  0  0  0  0  0  0  0  0  0  0  0
   -0.1523    1.1801    2.7257 C   0  0  0  0  0  0  0  0  0  0  0  0
   -0.6041    1.6744    4.1306 C   0  0  2  0  0  0  0  0  0  0  0  0
    5.0005    1.5106    7.9565 H   0  0  0  0  0  0  0  0  0  0  0  0
    3.6477    0.4223    8.1926 H   0  0  0  0  0  0  0  0  0  0  0  0
    3.4435    2.1754    8.3880 H   0  0  0  0  0  0  0  0  0  0  0  0
    4.4933    1.0007    5.8687 H   0  0  0  0  0  0  0  0  0  0  0  0
    2.7528    3.9222    3.4362 H   0  0  0  0  0  0  0  0  0  0  0  0
    0.7579    4.9398    4.3253 H   0  0  0  0  0  0  0  0  0  0  0  0
    0.5867    4.1606    2.8810 H   0  0  0  0  0  0  0  0  0  0  0  0
   -2.6958    3.4677    3.6580 H   0  0  0  0  0  0  0  0  0  0  0  0
   -1.4843    3.6455    2.4292 H   0  0  0  0  0  0  0  0  0  0  0  0
   -1.7266    4.9309    3.5782 H   0  0  0  0  0  0  0  0  0  0  0  0
   -1.7621    4.4137    5.7608 H   0  0  0  0  0  0  0  0  0  0  0  0
   -2.7178    2.6539    7.2257 H   0  0  0  0  0  0  0  0  0  0  0  0
   -3.0183    2.5664    5.5692 H   0  0  0  0  0  0  0  0  0  0  0  0
   -1.7162    0.5599    7.2061 H   0  0  0  0  0  0  0  0  0  0  0  0
   -2.5641    0.4652    5.7536 H   0  0  0  0  0  0  0  0  0  0  0  0
   -1.1295   -1.1393    4.3420 H   0  0  0  0  0  0  0  0  0  0  0  0
    0.2961   -2.4338    6.1826 H   0  0  0  0  0  0  0  0  0  0  0  0
   -0.1662    1.3340    8.2068 H   0  0  0  0  0  0  0  0  0  0  0  0
    1.4729    1.2088    8.3531 H   0  0  0  0  0  0  0  0  0  0  0  0
    0.8752    3.3499    8.7955 H   0  0  0  0  0  0  0  0  0  0  0  0
    1.8159    3.4838    7.4647 H   0  0  0  0  0  0  0  0  0  0  0  0
    0.6213    5.9806    7.7335 H   0  0  0  0  0  0  0  0  0  0  0  0
   -0.3074    6.0824    6.2530 H   0  0  0  0  0  0  0  0  0  0  0  0
    1.3010    5.3594    6.2836 H   0  0  0  0  0  0  0  0  0  0  0  0
   -0.7466    4.9454    9.1061 H   0  0  0  0  0  0  0  0  0  0  0  0
   -1.5891    3.4637    8.8182 H   0  0  0  0  0  0  0  0  0  0  0  0
   -2.1092    4.9460    8.0095 H   0  0  0  0  0  0  0  0  0  0  0  0
    2.7379   -0.3156    6.0025 H   0  0  0  0  0  0  0  0  0  0  0  0
    3.6987    0.5984    4.0613 H   0  0  0  0  0  0  0  0  0  0  0  0
    1.3590   -1.0848    3.4154 H   0  0  0  0  0  0  0  0  0  0  0  0
    2.8934   -1.5755    4.0849 H   0  0  0  0  0  0  0  0  0  0  0  0
    2.8318   -0.8275    2.5092 H   0  0  0  0  0  0  0  0  0  0  0  0
    3.1591    2.0045    2.7086 H   0  0  0  0  0  0  0  0  0  0  0  0
    1.1230    2.5061    1.6039 H   0  0  0  0  0  0  0  0  0  0  0  0
    1.5753    0.8568    1.5020 H   0  0  0  0  0  0  0  0  0  0  0  0
   -0.8714    1.5177    1.9772 H   0  0  0  0  0  0  0  0  0  0  0  0
   -0.2380    0.1004    2.6583 H   0  0  0  0  0  0  0  0  0  0  0  0
   -1.6595    1.4794    3.9287 H   0  0  0  0  0  0  0  0  0  0  0  0
  1  2  1  0
  1 30  1  0
  1 31  1  0
  1 32  1  0
  2 23  1  0
  2  3  1  0
  2 33  1  6
  3  4  2  0
  3  5  1  0
  5  6  1  0
  6 26  1  0
  6  7  1  0
  6 34  1  6
  7  8  1  0
  7 35  1  0
  7 36  1  0
  8 29  1  0
  8  9  1  6
  8 10  1  0
  9 37  1  0
  9 38  1  0
  9 39  1  0
 10 20  1  0
 10 11  1  0
 10 40  1  6
 11 12  1  0
 11 41  1  0
 11 42  1  0
 12 13  1  0
 12 43  1  0
 12 44  1  0
 13 17  1  0
 13 29  1  0
 13 14  1  6
 14 15  2  0
 14 45  1  0
 15 16  1  0
 15 46  1  0
 17 16  1  1
 17 18  1  0
 17 23  1  0
 18 19  1  0
 18 47  1  0
 18 48  1  0
 19 20  1  0
 19 49  1  0
 19 50  1  0
 20 21  1  0
 20 22  1  0
 21 51  1  0
 21 52  1  0
 21 53  1  0
 22 54  1  0
 22 55  1  0
 22 56  1  0
 23 24  1  0
 23 57  1  1
 24 25  1  0
 24 26  1  0
 24 58  1  1
 25 59  1  0
 25 60  1  0
 25 61  1  0
 26 27  1  0
 26 62  1  6
 27 28  1  0
 27 63  1  0
 27 64  1  0
 28 29  1  0
 28 65  1  0
 28 66  1  0
 29 67  1  6
M  END
>  <i_m_ct_stereo_status>  (319) 
1

>  <s_m_source_file>  (319) 
/var/tmp/pbs.5076255.sched01/tmpjgl1obm9/123zpz496x9.sdf

>  <i_m_source_file_index>  (319) 
12

>  <i_lp_mmshare_version>  (319) 
48012

>  <i_f3d_flags>  (319) 
0

>  <s_epik_input>  (319) 
W0NIXTE9W0NIXU9bQ0BdMihbQ0BAXTEzNClbQ0BASF01W0NASF0oW0NIM10pQyg9TylPW0NASF02W0NAQEhdKFtDQEBIXTVbQ0gzXSlbQ0gyXVtDSDJdW0NAQEhdNFtDQEBdKFtDSDJdNikoW0NIM10pW0NAQEhdKFtDSDJdW0NIMl0zKUMoW0NIM10pKFtDSDNdKVtDSDJdW0NIMl0y

>  <s_epik_cmdline>  (319) 
J2VwaWtfcHl0aG9uJywgJy1waHQnLCAnMi4wJywgJy1waCcsICc3LjAnLCAnLXRuJywgJzgnLCAnLW1hJywgJzIwMCcsICctaW1hZScsICc8aW5maWxlLm1hZT4nLCAnLW9tYWUnLCAnPG91dGZpbGUubWFlPic=

>  <r_lp_tautomer_probability>  (319) 
1

>  <r_epik_Ionization_Penalty>  (319) 
0

>  <r_epik_Ionization_Penalty_Charging>  (319) 
0

>  <r_epik_Ionization_Penalty_Neutral>  (319) 
0

>  <r_epik_State_Penalty>  (319) 
-0

>  <r_epik_Charging_Adjusted_Penalty>  (319) 
0

>  <i_epik_Tot_Q>  (319) 
0

>  <i_epik_Tot_abs_Q>  (319) 
0

>  <s_epik_Chemistry_Notes>  (319) 
This compound has an ester and may undergo hydrolysis at high or low pH.

>  <s_lp_Force_Field>  (319) 
OPLS3e

>  <r_lp_Energy>  (319) 
166.772

>  <b_lp_Chiralities_Consistent>  (319) 
1

>  <s_lp_Variant>  (319) 
97:0-1

>  <s_i_glide_gridfile>  (319) 
pfpi4k_grid

>  <i_i_glide_lignum>  (319) 
12

>  <i_i_glide_rotatable_bonds>  (319) 
0

>  <r_i_docking_score>  (319) 
-2.1984

>  <r_i_glide_ligand_efficiency>  (319) 
-0.0758071

>  <r_i_glide_ligand_efficiency_sa>  (319) 
-0.232903

>  <r_i_glide_ligand_efficiency_ln>  (319) 
-0.503379

>  <r_i_glide_gscore>  (319) 
-2.1984

>  <r_i_glide_lipo>  (319) 
-0.0805542

>  <r_i_glide_hbond>  (319) 
0

>  <r_i_glide_metal>  (319) 
-0

>  <r_i_glide_rewards>  (319) 
-0.691513

>  <r_i_glide_evdw>  (319) 
-24.454

>  <r_i_glide_ecoul>  (319) 
-1.35757

>  <r_i_glide_erotb>  (319) 
0

>  <r_i_glide_esite>  (319) 
0

>  <r_i_glide_emodel>  (319) 
-29.3852

>  <r_i_glide_energy>  (319) 
-25.8116

>  <r_i_glide_einternal>  (319) 
0

>  <r_i_glide_intrahb_reward>  (319) 
-0

>  <i_i_glide_confnum>  (319) 
1

>  <i_i_glide_posenum>  (319) 
13

>  <r_i_glide_eff_state_penalty>  (319) 
0

>  <ligand_id>  (319) 
97

>  <original_smiles>  (319) 
CC1C(=O)OC2CC3(C)C4CCC56C=COC5(CCC4(C)C)C1C(C)C2CCC36

>  <smiles>  (319) 
[H]C1=C([H])C23C([H])([H])C([H])([H])C4([H])C(C([H])([H])[H])(C([H])([H])[H])C([H])([H])C([H])([H])C2(O1)C1([H])C([H])(C([H])([H])[H])C(=O)OC2([H])C([H])([H])C4(C([H])([H])[H])C3([H])C([H])([H])C([H])([H])C2([H])C1([H])C([H])([H])[H]

$$$$
97:0:2
     RDKit          3D

 67 72  0  0  1  0  0  0  0  0999 V2000
   -0.5839   -2.3218    5.4832 C   0  0  0  0  0  0  0  0  0  0  0  0
    0.7471   -1.5576    5.6083 C   0  0  2  0  0  0  0  0  0  0  0  0
    1.1038   -1.1701    7.0422 C   0  0  0  0  0  0  0  0  0  0  0  0
    1.3151   -2.0057    7.9186 O   0  0  0  0  0  0  0  0  0  0  0  0
    1.0822    0.1406    7.2212 O   0  0  0  0  0  0  0  0  0  0  0  0
    2.2375    0.9313    7.0935 C   0  0  2  0  0  0  0  0  0  0  0  0
    1.8322    2.3994    7.3944 C   0  0  0  0  0  0  0  0  0  0  0  0
    1.1097    3.3013    6.3317 C   0  0  2  0  0  0  0  0  0  0  0  0
    1.6136    4.7332    6.7285 C   0  0  0  0  0  0  0  0  0  0  0  0
   -0.4962    3.4204    6.3692 C   0  0  1  0  0  0  0  0  0  0  0  0
   -0.9871    4.0581    5.0335 C   0  0  0  0  0  0  0  0  0  0  0  0
   -0.5788    3.3116    3.7584 C   0  0  0  0  0  0  0  0  0  0  0  0
    0.5921    2.2873    3.9314 C   0  0  2  0  0  0  0  0  0  0  0  0
    1.0628    2.1251    2.5201 C   0  0  0  0  0  0  0  0  0  0  0  0
    0.4867    1.0645    1.9839 C   0  0  0  0  0  0  0  0  0  0  0  0
   -0.2617    0.3714    2.8840 O   0  0  0  0  0  0  0  0  0  0  0  0
    0.0729    0.7885    4.2291 C   0  0  2  0  0  0  0  0  0  0  0  0
   -1.3671    0.7162    4.8515 C   0  0  0  0  0  0  0  0  0  0  0  0
   -1.6310    0.9497    6.3515 C   0  0  0  0  0  0  0  0  0  0  0  0
   -1.5127    2.3640    6.9957 C   0  0  0  0  0  0  0  0  0  0  0  0
   -1.2590    2.1748    8.5165 C   0  0  0  0  0  0  0  0  0  0  0  0
   -2.9490    2.9629    6.9538 C   0  0  0  0  0  0  0  0  0  0  0  0
    1.0913   -0.4388    4.5561 C   0  0  1  0  0  0  0  0  0  0  0  0
    2.6338   -0.1883    4.6618 C   0  0  1  0  0  0  0  0  0  0  0  0
    3.4046   -0.1084    3.3193 C   0  0  0  0  0  0  0  0  0  0  0  0
    3.1582    0.6795    5.8500 C   0  0  1  0  0  0  0  0  0  0  0  0
    3.9498    1.9180    5.4296 C   0  0  0  0  0  0  0  0  0  0  0  0
    3.1494    2.9328    4.6188 C   0  0  0  0  0  0  0  0  0  0  0  0
    1.6162    3.0393    4.8660 C   0  0  2  0  0  0  0  0  0  0  0  0
   -0.4630   -3.3414    5.8553 H   0  0  0  0  0  0  0  0  0  0  0  0
   -0.8834   -2.4030    4.4384 H   0  0  0  0  0  0  0  0  0  0  0  0
   -1.4018   -1.8814    6.0522 H   0  0  0  0  0  0  0  0  0  0  0  0
    1.4584   -2.3578    5.4024 H   0  0  0  0  0  0  0  0  0  0  0  0
    2.8423    0.6450    7.9553 H   0  0  0  0  0  0  0  0  0  0  0  0
    1.3137    2.4593    8.3438 H   0  0  0  0  0  0  0  0  0  0  0  0
    2.7719    2.8793    7.6649 H   0  0  0  0  0  0  0  0  0  0  0  0
    1.2217    5.5230    6.0873 H   0  0  0  0  0  0  0  0  0  0  0  0
    2.7006    4.8251    6.6792 H   0  0  0  0  0  0  0  0  0  0  0  0
    1.3281    4.9890    7.7519 H   0  0  0  0  0  0  0  0  0  0  0  0
   -0.6715    4.2409    7.0670 H   0  0  0  0  0  0  0  0  0  0  0  0
   -2.0485    4.2773    5.0005 H   0  0  0  0  0  0  0  0  0  0  0  0
   -0.5507    5.0540    4.9605 H   0  0  0  0  0  0  0  0  0  0  0  0
   -1.4366    2.8965    3.2346 H   0  0  0  0  0  0  0  0  0  0  0  0
   -0.2726    4.0901    3.0563 H   0  0  0  0  0  0  0  0  0  0  0  0
    1.6875    2.8338    1.9954 H   0  0  0  0  0  0  0  0  0  0  0  0
    0.5343    0.6663    0.9800 H   0  0  0  0  0  0  0  0  0  0  0  0
   -2.0813    1.3276    4.3136 H   0  0  0  0  0  0  0  0  0  0  0  0
   -1.7613   -0.2631    4.6091 H   0  0  0  0  0  0  0  0  0  0  0  0
   -2.6657    0.6355    6.4856 H   0  0  0  0  0  0  0  0  0  0  0  0
   -1.1593    0.1997    6.9566 H   0  0  0  0  0  0  0  0  0  0  0  0
   -2.1343    1.7853    9.0378 H   0  0  0  0  0  0  0  0  0  0  0  0
   -1.0010    3.1147    9.0089 H   0  0  0  0  0  0  0  0  0  0  0  0
   -0.4739    1.4566    8.7348 H   0  0  0  0  0  0  0  0  0  0  0  0
   -3.6530    2.4093    7.5751 H   0  0  0  0  0  0  0  0  0  0  0  0
   -3.3792    2.9433    5.9523 H   0  0  0  0  0  0  0  0  0  0  0  0
   -2.9691    3.9931    7.3142 H   0  0  0  0  0  0  0  0  0  0  0  0
    1.0576   -1.0728    3.6694 H   0  0  0  0  0  0  0  0  0  0  0  0
    3.0205   -1.1679    4.9483 H   0  0  0  0  0  0  0  0  0  0  0  0
    3.2570    0.8146    2.7729 H   0  0  0  0  0  0  0  0  0  0  0  0
    3.1115   -0.9173    2.6475 H   0  0  0  0  0  0  0  0  0  0  0  0
    4.4776   -0.2183    3.4771 H   0  0  0  0  0  0  0  0  0  0  0  0
    3.9429    0.0527    6.2787 H   0  0  0  0  0  0  0  0  0  0  0  0
    4.3736    2.3970    6.3116 H   0  0  0  0  0  0  0  0  0  0  0  0
    4.8276    1.6247    4.8545 H   0  0  0  0  0  0  0  0  0  0  0  0
    3.6079    3.9032    4.8088 H   0  0  0  0  0  0  0  0  0  0  0  0
    3.3529    2.7886    3.5617 H   0  0  0  0  0  0  0  0  0  0  0  0
    1.5485    4.0321    4.4172 H   0  0  0  0  0  0  0  0  0  0  0  0
  1  2  1  0
  1 30  1  0
  1 31  1  0
  1 32  1  0
  2 23  1  0
  2  3  1  0
  2 33  1  6
  3  4  2  0
  3  5  1  0
  5  6  1  0
  6 26  1  0
  6  7  1  0
  6 34  1  1
  7  8  1  0
  7 35  1  0
  7 36  1  0
  8 29  1  0
  8  9  1  1
  8 10  1  0
  9 37  1  0
  9 38  1  0
  9 39  1  0
 10 20  1  0
 10 11  1  0
 10 40  1  1
 11 12  1  0
 11 41  1  0
 11 42  1  0
 12 13  1  0
 12 43  1  0
 12 44  1  0
 13 17  1  0
 13 29  1  0
 13 14  1  6
 14 15  2  0
 14 45  1  0
 15 16  1  0
 15 46  1  0
 17 16  1  6
 17 18  1  0
 17 23  1  0
 18 19  1  0
 18 47  1  0
 18 48  1  0
 19 20  1  0
 19 49  1  0
 19 50  1  0
 20 21  1  0
 20 22  1  0
 21 51  1  0
 21 52  1  0
 21 53  1  0
 22 54  1  0
 22 55  1  0
 22 56  1  0
 23 24  1  0
 23 57  1  6
 24 25  1  0
 24 26  1  0
 24 58  1  1
 25 59  1  0
 25 60  1  0
 25 61  1  0
 26 27  1  0
 26 62  1  1
 27 28  1  0
 27 63  1  0
 27 64  1  0
 28 29  1  0
 28 65  1  0
 28 66  1  0
 29 67  1  6
M  END
>  <i_m_ct_stereo_status>  (320) 
1

>  <s_m_source_file>  (320) 
/var/tmp/pbs.5076255.sched01/tmpjgl1obm9/123zpz496x9.sdf

>  <i_m_source_file_index>  (320) 
12

>  <i_lp_mmshare_version>  (320) 
48012

>  <i_f3d_flags>  (320) 
0

>  <s_epik_input>  (320) 
W0NIXTE9W0NIXU9bQ0BdMihbQ0BAXTEzNClbQ0BASF01W0NASF0oW0NIM10pQyg9TylPW0NASF02W0NAQEhdKFtDQEBIXTVbQ0gzXSlbQ0gyXVtDSDJdW0NAQEhdNFtDQEBdKFtDSDJdNikoW0NIM10pW0NAQEhdKFtDSDJdW0NIMl0zKUMoW0NIM10pKFtDSDNdKVtDSDJdW0NIMl0y

>  <s_epik_cmdline>  (320) 
J2VwaWtfcHl0aG9uJywgJy1waHQnLCAnMi4wJywgJy1waCcsICc3LjAnLCAnLXRuJywgJzgnLCAnLW1hJywgJzIwMCcsICctaW1hZScsICc8aW5maWxlLm1hZT4nLCAnLW9tYWUnLCAnPG91dGZpbGUubWFlPic=

>  <r_lp_tautomer_probability>  (320) 
1

>  <r_epik_Ionization_Penalty>  (320) 
0

>  <r_epik_Ionization_Penalty_Charging>  (320) 
0

>  <r_epik_Ionization_Penalty_Neutral>  (320) 
0

>  <r_epik_State_Penalty>  (320) 
-0

>  <r_epik_Charging_Adjusted_Penalty>  (320) 
0

>  <i_epik_Tot_Q>  (320) 
0

>  <i_epik_Tot_abs_Q>  (320) 
0

>  <s_epik_Chemistry_Notes>  (320) 
This compound has an ester and may undergo hydrolysis at high or low pH.

>  <s_lp_Force_Field>  (320) 
OPLS3e

>  <r_lp_Energy>  (320) 
166.772

>  <b_lp_Chiralities_Consistent>  (320) 
1

>  <s_lp_Variant>  (320) 
97:0-1

>  <s_i_glide_gridfile>  (320) 
pfpi4k_grid

>  <i_i_glide_lignum>  (320) 
12

>  <i_i_glide_rotatable_bonds>  (320) 
0

>  <r_i_docking_score>  (320) 
-2.16868

>  <r_i_glide_ligand_efficiency>  (320) 
-0.0747822

>  <r_i_glide_ligand_efficiency_sa>  (320) 
-0.229755

>  <r_i_glide_ligand_efficiency_ln>  (320) 
-0.496574

>  <r_i_glide_gscore>  (320) 
-2.16868

>  <r_i_glide_lipo>  (320) 
-0.177611

>  <r_i_glide_hbond>  (320) 
0

>  <r_i_glide_metal>  (320) 
-0

>  <r_i_glide_rewards>  (320) 
-0.691513

>  <r_i_glide_evdw>  (320) 
-25.3704

>  <r_i_glide_ecoul>  (320) 
-0.170191

>  <r_i_glide_erotb>  (320) 
0

>  <r_i_glide_esite>  (320) 
-0.00551044

>  <r_i_glide_emodel>  (320) 
-29.0726

>  <r_i_glide_energy>  (320) 
-25.5406

>  <r_i_glide_einternal>  (320) 
0

>  <r_i_glide_intrahb_reward>  (320) 
-0

>  <i_i_glide_confnum>  (320) 
2

>  <i_i_glide_posenum>  (320) 
18

>  <r_i_glide_eff_state_penalty>  (320) 
0

>  <ligand_id>  (320) 
97

>  <original_smiles>  (320) 
CC1C(=O)OC2CC3(C)C4CCC56C=COC5(CCC4(C)C)C1C(C)C2CCC36

>  <smiles>  (320) 
[H]C1=C([H])C23C([H])([H])C([H])([H])C4([H])C(C([H])([H])[H])(C([H])([H])[H])C([H])([H])C([H])([H])C2(O1)C1([H])C([H])(C([H])([H])[H])C(=O)OC2([H])C([H])([H])C4(C([H])([H])[H])C3([H])C([H])([H])C([H])([H])C2([H])C1([H])C([H])([H])[H]

$$$$
98:0:0
     RDKit          3D

107113  0  0  1  0  0  0  0  0999 V2000
   -1.9708   -5.0650    7.0135 C   0  0  0  0  0  0  0  0  0  0  0  0
   -1.0286   -3.8887    6.8386 C   0  0  0  0  0  0  0  0  0  0  0  0
   -1.4533   -2.7690    6.5494 O   0  0  0  0  0  0  0  0  0  0  0  0
    0.2333   -4.2245    6.9374 O   0  0  0  0  0  0  0  0  0  0  0  0
    1.2950   -3.2626    6.9848 C   0  0  0  0  0  0  0  0  0  0  0  0
    1.7694   -2.4196    5.7286 C   0  0  1  0  0  0  0  0  0  0  0  0
    0.7761   -1.2077    5.5533 C   0  0  0  0  0  0  0  0  0  0  0  0
    3.1051   -1.7128    6.0761 C   0  0  0  0  0  0  0  0  0  0  0  0
    4.4142   -2.5102    6.2191 C   0  0  1  0  0  0  0  0  0  0  0  0
    4.6874   -2.9589    7.6967 C   0  0  0  0  0  0  0  0  0  0  0  0
    4.7754   -3.4969    5.0366 C   0  0  1  0  0  0  0  0  0  0  0  0
    6.0957   -3.8119    5.4558 O   0  0  0  0  0  0  0  0  0  0  0  0
    4.0578   -4.9474    4.9747 C   0  0  2  0  0  0  0  0  0  0  0  0
    4.0124   -5.4233    6.3087 O   0  0  0  0  0  0  0  0  0  0  0  0
    4.8977   -6.1606    4.1633 C   0  0  1  0  0  0  0  0  0  0  0  0
    4.4639   -7.6658    4.3733 C   0  0  1  0  0  0  0  0  0  0  0  0
    3.1139   -7.9603    4.0006 O   0  0  0  0  0  0  0  0  0  0  0  0
    2.5460   -9.1316    4.5334 C   0  0  2  0  0  0  0  0  0  0  0  0
    1.1937   -9.3887    3.8613 C   0  0  0  0  0  0  0  0  0  0  0  0
    0.1599   -8.3614    4.3242 C   0  0  1  0  0  0  0  0  0  0  0  0
   -1.1325   -8.6523    3.8067 O   0  0  0  0  0  0  0  0  0  0  0  0
    0.1159   -8.3131    5.8527 C   0  0  1  0  0  0  0  0  0  0  0  0
   -0.4965   -9.4441    6.4500 O   0  0  0  0  0  0  0  0  0  0  0  0
    1.5253   -8.1249    6.4484 C   0  0  1  0  0  0  0  0  0  0  0  0
    1.5453   -8.1074    7.9844 C   0  0  0  0  0  0  0  0  0  0  0  0
    2.4093   -9.1080    5.9294 O   0  0  0  0  0  0  0  0  0  0  0  0
    5.4134   -8.7176    3.7187 C   0  0  0  0  0  0  0  0  0  0  0  0
    5.2419   -8.9721    2.2179 C   0  0  0  0  0  0  0  0  0  0  0  0
    5.5379  -10.3948    1.8177 C   0  0  0  0  0  0  0  0  0  0  0  0
    4.8735   -8.0621    1.2706 C   0  0  0  0  0  0  0  0  0  0  0  0
    4.5776   -6.5918    1.4835 C   0  0  2  0  0  0  0  0  0  0  0  0
    4.5357   -5.7276    0.1613 C   0  0  0  0  0  0  0  0  0  0  0  0
    4.2711   -4.3877    0.2219 C   0  0  0  0  0  0  0  0  0  0  0  0
    4.2183   -3.4398   -0.9625 C   0  0  0  0  0  0  0  0  0  0  0  0
    3.8764   -3.9256    1.6136 C   0  0  1  0  0  0  0  0  0  0  0  0
    5.0600   -4.4601    2.3586 C   0  0  2  0  0  0  0  0  0  0  0  0
    5.8141   -3.4339    2.9351 O   0  0  0  0  0  0  0  0  0  0  0  0
    4.9030   -2.6768    3.6082 C   0  0  2  0  0  0  0  0  0  0  0  0
    5.3874   -1.3810    3.8158 O   0  0  0  0  0  0  0  0  0  0  0  0
    3.8019   -2.5726    2.4527 C   0  0  1  0  0  0  0  0  0  0  0  0
    4.0493   -1.4638    1.5826 O   0  0  0  0  0  0  0  0  0  0  0  0
    2.4422   -2.3209    3.1497 C   0  0  1  0  0  0  0  0  0  0  0  0
    1.5341   -2.2490    2.0987 O   0  0  0  0  0  0  0  0  0  0  0  0
    1.9366   -3.2467    4.3882 C   0  0  2  0  0  0  0  0  0  0  0  0
    0.5959   -3.5671    4.0947 O   0  0  0  0  0  0  0  0  0  0  0  0
    2.5282   -4.7162    4.5950 C   0  0  1  0  0  0  0  0  0  0  0  0
    2.0972   -5.5506    3.5360 O   0  0  0  0  0  0  0  0  0  0  0  0
    5.4166   -5.8938    2.6321 C   0  0  1  0  0  0  0  0  0  0  0  0
    6.9883   -6.1377    2.3826 C   0  0  0  0  0  0  0  0  0  0  0  0
    7.9619   -6.0612    3.5799 C   0  0  0  0  0  0  0  0  0  0  0  0
    7.5977   -5.3311    1.2129 C   0  0  0  0  0  0  0  0  0  0  0  0
   -1.6987   -5.8452    6.2886 H   0  0  0  0  0  0  0  0  0  0  0  0
   -2.9783   -4.7776    6.7852 H   0  0  0  0  0  0  0  0  0  0  0  0
   -1.9003   -5.4460    8.0455 H   0  0  0  0  0  0  0  0  0  0  0  0
    1.1050   -2.5799    7.8199 H   0  0  0  0  0  0  0  0  0  0  0  0
    2.1099   -3.8969    7.2887 H   0  0  0  0  0  0  0  0  0  0  0  0
    1.1835   -0.4089    4.8899 H   0  0  0  0  0  0  0  0  0  0  0  0
    0.7040   -0.7105    6.5378 H   0  0  0  0  0  0  0  0  0  0  0  0
   -0.1876   -1.4740    5.2227 H   0  0  0  0  0  0  0  0  0  0  0  0
    3.3174   -0.9294    5.3458 H   0  0  0  0  0  0  0  0  0  0  0  0
    2.9840   -1.1349    6.9907 H   0  0  0  0  0  0  0  0  0  0  0  0
    5.1739   -1.7167    6.1611 H   0  0  0  0  0  0  0  0  0  0  0  0
    3.9922   -3.7011    8.0880 H   0  0  0  0  0  0  0  0  0  0  0  0
    4.6324   -2.0932    8.3628 H   0  0  0  0  0  0  0  0  0  0  0  0
    5.6907   -3.3746    7.8243 H   0  0  0  0  0  0  0  0  0  0  0  0
    6.6053   -3.0302    5.3274 H   0  0  0  0  0  0  0  0  0  0  0  0
    3.5905   -6.2686    6.2958 H   0  0  0  0  0  0  0  0  0  0  0  0
    5.7917   -6.1387    4.7692 H   0  0  0  0  0  0  0  0  0  0  0  0
    4.5307   -7.8340    5.4468 H   0  0  0  0  0  0  0  0  0  0  0  0
    3.1487  -10.0082    4.3242 H   0  0  0  0  0  0  0  0  0  0  0  0
    1.3388   -9.3723    2.7802 H   0  0  0  0  0  0  0  0  0  0  0  0
    0.8799  -10.3912    4.1513 H   0  0  0  0  0  0  0  0  0  0  0  0
    0.4536   -7.3854    3.9373 H   0  0  0  0  0  0  0  0  0  0  0  0
   -1.3801   -9.5310    4.0775 H   0  0  0  0  0  0  0  0  0  0  0  0
   -0.4589   -7.4363    6.1099 H   0  0  0  0  0  0  0  0  0  0  0  0
   -1.1738   -9.8097    5.8880 H   0  0  0  0  0  0  0  0  0  0  0  0
    1.9109   -7.1647    6.1264 H   0  0  0  0  0  0  0  0  0  0  0  0
    0.8467   -7.3586    8.3606 H   0  0  0  0  0  0  0  0  0  0  0  0
    2.5334   -7.8578    8.3724 H   0  0  0  0  0  0  0  0  0  0  0  0
    1.2536   -9.0768    8.3889 H   0  0  0  0  0  0  0  0  0  0  0  0
    6.4681   -8.5231    3.9229 H   0  0  0  0  0  0  0  0  0  0  0  0
    5.2778   -9.6814    4.2184 H   0  0  0  0  0  0  0  0  0  0  0  0
    4.8235  -11.0782    2.2788 H   0  0  0  0  0  0  0  0  0  0  0  0
    6.5396  -10.6966    2.1275 H   0  0  0  0  0  0  0  0  0  0  0  0
    5.4742  -10.5047    0.7411 H   0  0  0  0  0  0  0  0  0  0  0  0
    4.7802   -8.3872    0.2423 H   0  0  0  0  0  0  0  0  0  0  0  0
    3.5284   -6.6344    1.7810 H   0  0  0  0  0  0  0  0  0  0  0  0
    4.7562   -6.2326   -0.7734 H   0  0  0  0  0  0  0  0  0  0  0  0
    3.2494   -2.9389   -1.0255 H   0  0  0  0  0  0  0  0  0  0  0  0
    4.3790   -3.9884   -1.8962 H   0  0  0  0  0  0  0  0  0  0  0  0
    5.0017   -2.6849   -0.8805 H   0  0  0  0  0  0  0  0  0  0  0  0
    2.8823   -4.3920    1.6228 H   0  0  0  0  0  0  0  0  0  0  0  0
    4.1841   -4.6704    2.8606 H   0  0  0  0  0  0  0  0  0  0  0  0
    5.5582   -1.0335    2.9455 H   0  0  0  0  0  0  0  0  0  0  0  0
    3.3921   -1.4937    0.8949 H   0  0  0  0  0  0  0  0  0  0  0  0
    2.4580   -1.2803    3.4876 H   0  0  0  0  0  0  0  0  0  0  0  0
    1.6572   -1.4531    1.5972 H   0  0  0  0  0  0  0  0  0  0  0  0
    0.1196   -2.7559    4.0307 H   0  0  0  0  0  0  0  0  0  0  0  0
    1.9491   -5.1608    5.3971 H   0  0  0  0  0  0  0  0  0  0  0  0
    2.5149   -5.2615    2.7396 H   0  0  0  0  0  0  0  0  0  0  0  0
    7.1182   -7.1708    2.0738 H   0  0  0  0  0  0  0  0  0  0  0  0
    7.9496   -5.0954    4.0651 H   0  0  0  0  0  0  0  0  0  0  0  0
    8.9892   -6.2443    3.2557 H   0  0  0  0  0  0  0  0  0  0  0  0
    7.7676   -6.8095    4.3449 H   0  0  0  0  0  0  0  0  0  0  0  0
    7.5240   -4.2546    1.3518 H   0  0  0  0  0  0  0  0  0  0  0  0
    7.1502   -5.5873    0.2537 H   0  0  0  0  0  0  0  0  0  0  0  0
    8.6632   -5.5428    1.1212 H   0  0  0  0  0  0  0  0  0  0  0  0
  1  2  1  0
  1 52  1  0
  1 53  1  0
  1 54  1  0
  2  3  2  0
  2  4  1  0
  4  5  1  0
  6  5  1  1
  5 55  1  0
  5 56  1  0
  6 44  1  0
  6  7  1  0
  6  8  1  0
  7 57  1  0
  7 58  1  0
  7 59  1  0
  8  9  1  0
  8 60  1  0
  8 61  1  0
  9 10  1  0
  9 11  1  0
  9 62  1  6
 10 63  1  0
 10 64  1  0
 10 65  1  0
 11 38  1  0
 11 12  1  1
 11 13  1  0
 12 66  1  0
 13 46  1  0
 13 14  1  1
 13 15  1  0
 14 67  1  0
 15 48  1  0
 15 16  1  0
 15 68  1  1
 16 17  1  0
 16 27  1  0
 16 69  1  1
 17 18  1  0
 18 26  1  0
 18 19  1  0
 18 70  1  1
 19 20  1  0
 19 71  1  0
 19 72  1  0
 20 21  1  0
 20 22  1  0
 20 73  1  6
 21 74  1  0
 22 23  1  0
 22 24  1  0
 22 75  1  6
 23 76  1  0
 24 25  1  0
 24 26  1  0
 24 77  1  6
 25 78  1  0
 25 79  1  0
 25 80  1  0
 27 28  1  0
 27 81  1  0
 27 82  1  0
 28 29  1  0
 28 30  2  0
 29 83  1  0
 29 84  1  0
 29 85  1  0
 30 31  1  0
 30 86  1  0
 31 48  1  0
 31 32  1  0
 31 87  1  1
 32 33  2  0
 32 88  1  0
 33 34  1  0
 33 35  1  0
 34 89  1  0
 34 90  1  0
 34 91  1  0
 35 40  1  0
 35 36  1  0
 35 92  1  1
 36 37  1  0
 36 48  1  0
 36 93  1  6
 37 38  1  0
 38 39  1  1
 38 40  1  0
 39 94  1  0
 40 41  1  6
 40 42  1  0
 41 95  1  0
 42 43  1  0
 42 44  1  0
 42 96  1  1
 43 97  1  0
 44 45  1  6
 44 46  1  0
 45 98  1  0
 46 47  1  0
 46 99  1  1
 47100  1  0
 48 49  1  1
 49 50  1  0
 49 51  1  0
 49101  1  0
 50102  1  0
 50103  1  0
 50104  1  0
 51105  1  0
 51106  1  0
 51107  1  0
M  END
>  <i_m_ct_stereo_status>  (321) 
1

>  <s_m_source_file>  (321) 
/var/tmp/pbs.5076255.sched01/tmpjgl1obm9/123zpz496x9.sdf

>  <i_m_source_file_index>  (321) 
13

>  <i_lp_mmshare_version>  (321) 
48012

>  <i_f3d_flags>  (321) 
0

>  <s_epik_input>  (321) 
W0NIM11DKD1PKU9bQ0gyXVtDQEBdKFtDSDNdKShbQ0gyXVtDQEhdMVtDSDNdKVtDQF0oW09IXSkoW0NASF0yW09IXSlbQ0BIXShbT0hdKVtDQEBdMyhbT0hdKVtDQF00KFtPSF0pT1tDQEhdNVtDSF0zQyhbQ0gzXSk9W0NIXVtDQEhdKFtDQF01KFtDSF0oW0NIM10pW0NIM10pW0NASF02W0NAQF0yKFtPSF0pW0NAXTE0W09IXSlbQ0hdPUMoW0NIM10pW0NIMl1bQ0BASF02T1tDQEBIXTdbQ0gyXVtDQEBIXShbT0hdKVtDQEBIXShbT0hdKVtDQEhdKE83KVtDSDNd

>  <s_epik_cmdline>  (321) 
J2VwaWtfcHl0aG9uJywgJy1waHQnLCAnMi4wJywgJy1waCcsICc3LjAnLCAnLXRuJywgJzgnLCAnLW1hJywgJzIwMCcsICctaW1hZScsICc8aW5maWxlLm1hZT4nLCAnLW9tYWUnLCAnPG91dGZpbGUubWFlPic=

>  <r_lp_tautomer_probability>  (321) 
1

>  <r_epik_Ionization_Penalty>  (321) 
4.97966e-06

>  <r_epik_Ionization_Penalty_Charging>  (321) 
0

>  <r_epik_Ionization_Penalty_Neutral>  (321) 
4.97966e-06

>  <r_epik_State_Penalty>  (321) 
-0

>  <r_epik_Charging_Adjusted_Penalty>  (321) 
0

>  <i_epik_Tot_Q>  (321) 
0

>  <i_epik_Tot_abs_Q>  (321) 
0

>  <s_epik_Chemistry_Notes>  (321) 
This compound has an ester and may undergo hydrolysis at high or low pH. This compound contains an acetal/aminal-like group ( X-CH(R)-Y where X, Y are N, S, or O) that may be acid/base labile, releasing an aldehyde.

>  <s_lp_Force_Field>  (321) 
OPLS3e

>  <r_lp_Energy>  (321) 
240.265

>  <b_lp_Chiralities_Consistent>  (321) 
1

>  <s_lp_Variant>  (321) 
98:0-1

>  <s_i_glide_gridfile>  (321) 
pfpi4k_grid

>  <i_i_glide_lignum>  (321) 
13

>  <i_i_glide_rotatable_bonds>  (321) 
15

>  <r_i_docking_score>  (321) 
-2.23575

>  <r_i_glide_ligand_efficiency>  (321) 
-0.0438382

>  <r_i_glide_ligand_efficiency_sa>  (321) 
-0.162571

>  <r_i_glide_ligand_efficiency_ln>  (321) 
-0.453331

>  <r_i_glide_gscore>  (321) 
-2.23575

>  <r_i_glide_lipo>  (321) 
-0.408305

>  <r_i_glide_hbond>  (321) 
0

>  <r_i_glide_metal>  (321) 
-0

>  <r_i_glide_rewards>  (321) 
-0.0597864

>  <r_i_glide_evdw>  (321) 
-20.5612

>  <r_i_glide_ecoul>  (321) 
-5.77291

>  <r_i_glide_erotb>  (321) 
0.163917

>  <r_i_glide_esite>  (321) 
-0.0375803

>  <r_i_glide_emodel>  (321) 
-23.0983

>  <r_i_glide_energy>  (321) 
-26.3341

>  <r_i_glide_einternal>  (321) 
8.13617

>  <r_i_glide_intrahb_reward>  (321) 
-0

>  <i_i_glide_confnum>  (321) 
1

>  <i_i_glide_posenum>  (321) 
23

>  <r_i_glide_eff_state_penalty>  (321) 
0

>  <ligand_id>  (321) 
98

>  <original_smiles>  (321) 
CC(=O)OCC1(C)CC(C)C2(O)C3(O)C4C(OC5CC(O)C(O)C(C)O5)CC(C)=CC5C=C(C)C6C(OC2(O)C6(O)C(O)C1(O)C3O)C54C(C)C

>  <smiles>  (321) 
[H]OC1([H])C([H])([H])C([H])(OC2([H])C([H])([H])C(C([H])([H])[H])=C([H])C3([H])C([H])=C(C([H])([H])[H])C4([H])C5([H])OC6(O[H])C4(O[H])C([H])(O[H])C4(O[H])C([H])(O[H])C(O[H])(C2([H])C35C([H])(C([H])([H])[H])C([H])([H])[H])C6(O[H])C([H])(C([H])([H])[H])C([H])([H])C4(C([H])([H])[H])C([H])([H])OC(=O)C([H])([H])[H])OC([H])(C([H])([H])[H])C1([H])O[H]

$$$$
98:0:1
     RDKit          3D

107113  0  0  1  0  0  0  0  0999 V2000
   -2.4573   -1.0610    5.4798 C   0  0  0  0  0  0  0  0  0  0  0  0
   -1.0697   -1.0017    6.0777 C   0  0  0  0  0  0  0  0  0  0  0  0
   -0.7730   -0.1538    6.9133 O   0  0  0  0  0  0  0  0  0  0  0  0
   -0.2736   -1.9491    5.5982 O   0  0  0  0  0  0  0  0  0  0  0  0
    1.1221   -1.8951    5.8709 C   0  0  0  0  0  0  0  0  0  0  0  0
    1.9073   -1.1934    4.6937 C   0  0  1  0  0  0  0  0  0  0  0  0
    1.1899    0.1447    4.2738 C   0  0  0  0  0  0  0  0  0  0  0  0
    3.2298   -0.6762    5.2623 C   0  0  0  0  0  0  0  0  0  0  0  0
    4.3053   -1.6919    5.6376 C   0  0  1  0  0  0  0  0  0  0  0  0
    4.1784   -2.1330    7.1202 C   0  0  0  0  0  0  0  0  0  0  0  0
    4.6846   -2.7657    4.5253 C   0  0  1  0  0  0  0  0  0  0  0  0
    5.8335   -3.2575    5.1940 O   0  0  0  0  0  0  0  0  0  0  0  0
    3.7882   -4.1107    4.3533 C   0  0  2  0  0  0  0  0  0  0  0  0
    3.4354   -4.5450    5.6492 O   0  0  0  0  0  0  0  0  0  0  0  0
    4.5933   -5.4533    3.7128 C   0  0  1  0  0  0  0  0  0  0  0  0
    3.9036   -6.8664    3.8308 C   0  0  1  0  0  0  0  0  0  0  0  0
    2.6223   -6.9622    3.1988 O   0  0  0  0  0  0  0  0  0  0  0  0
    1.8701   -8.1119    3.4559 C   0  0  2  0  0  0  0  0  0  0  0  0
    0.5865   -8.0485    2.6138 C   0  0  0  0  0  0  0  0  0  0  0  0
   -0.3396   -6.9620    3.1506 C   0  0  1  0  0  0  0  0  0  0  0  0
   -1.5535   -7.0630    2.4866 O   0  0  0  0  0  0  0  0  0  0  0  0
   -0.6000   -7.1655    4.6551 C   0  0  1  0  0  0  0  0  0  0  0  0
   -1.3738   -8.3240    4.8605 O   0  0  0  0  0  0  0  0  0  0  0  0
    0.7301   -7.2795    5.4105 C   0  0  1  0  0  0  0  0  0  0  0  0
    0.5653   -7.5613    6.9122 C   0  0  0  0  0  0  0  0  0  0  0  0
    1.5325   -8.2914    4.8088 O   0  0  0  0  0  0  0  0  0  0  0  0
    4.7905   -8.0794    3.3809 C   0  0  0  0  0  0  0  0  0  0  0  0
    4.8578   -8.3399    1.8751 C   0  0  0  0  0  0  0  0  0  0  0  0
    4.9789   -9.8131    1.5608 C   0  0  0  0  0  0  0  0  0  0  0  0
    4.8161   -7.4134    0.8891 C   0  0  0  0  0  0  0  0  0  0  0  0
    4.7273   -5.8986    1.0335 C   0  0  2  0  0  0  0  0  0  0  0  0
    5.0661   -5.0919   -0.2708 C   0  0  0  0  0  0  0  0  0  0  0  0
    5.0015   -3.7223   -0.2709 C   0  0  0  0  0  0  0  0  0  0  0  0
    5.3444   -2.8234   -1.4497 C   0  0  0  0  0  0  0  0  0  0  0  0
    4.4216   -3.1635    1.0178 C   0  0  1  0  0  0  0  0  0  0  0  0
    5.3482   -3.8297    1.9729 C   0  0  2  0  0  0  0  0  0  0  0  0
    6.1249   -2.8858    2.6496 O   0  0  0  0  0  0  0  0  0  0  0  0
    5.2171   -2.0100    3.1409 C   0  0  2  0  0  0  0  0  0  0  0  0
    5.7920   -0.7441    3.4457 O   0  0  0  0  0  0  0  0  0  0  0  0
    4.3700   -1.8052    1.8210 C   0  0  1  0  0  0  0  0  0  0  0  0
    4.9190   -0.8017    0.9844 O   0  0  0  0  0  0  0  0  0  0  0  0
    2.9745   -1.3465    2.3064 C   0  0  1  0  0  0  0  0  0  0  0  0
    2.2825   -1.3904    1.1259 O   0  0  0  0  0  0  0  0  0  0  0  0
    2.1253   -2.1328    3.4380 C   0  0  2  0  0  0  0  0  0  0  0  0
    0.7946   -2.2319    3.0079 O   0  0  0  0  0  0  0  0  0  0  0  0
    2.3949   -3.6872    3.7093 C   0  0  1  0  0  0  0  0  0  0  0  0
    2.0802   -4.4346    2.5497 O   0  0  0  0  0  0  0  0  0  0  0  0
    5.4424   -5.2915    2.3207 C   0  0  1  0  0  0  0  0  0  0  0  0
    6.9726   -5.7799    2.3766 C   0  0  0  0  0  0  0  0  0  0  0  0
    7.6525   -5.9859    3.7647 C   0  0  0  0  0  0  0  0  0  0  0  0
    7.9715   -5.0198    1.4552 C   0  0  0  0  0  0  0  0  0  0  0  0
   -2.3956   -1.2015    4.3960 H   0  0  0  0  0  0  0  0  0  0  0  0
   -2.9697   -0.1342    5.6752 H   0  0  0  0  0  0  0  0  0  0  0  0
   -3.0078   -1.8940    5.9355 H   0  0  0  0  0  0  0  0  0  0  0  0
    1.3159   -1.3873    6.8219 H   0  0  0  0  0  0  0  0  0  0  0  0
    1.4610   -2.9240    6.0463 H   0  0  0  0  0  0  0  0  0  0  0  0
    1.7024    0.7492    3.5340 H   0  0  0  0  0  0  0  0  0  0  0  0
    1.0740    0.7816    5.1524 H   0  0  0  0  0  0  0  0  0  0  0  0
    0.1866   -0.0148    3.8633 H   0  0  0  0  0  0  0  0  0  0  0  0
    3.6761    0.0353    4.5686 H   0  0  0  0  0  0  0  0  0  0  0  0
    3.0329   -0.0504    6.1361 H   0  0  0  0  0  0  0  0  0  0  0  0
    5.1904   -1.0716    5.7437 H   0  0  0  0  0  0  0  0  0  0  0  0
    3.2803   -2.7120    7.3124 H   0  0  0  0  0  0  0  0  0  0  0  0
    4.1582   -1.2572    7.7674 H   0  0  0  0  0  0  0  0  0  0  0  0
    5.0348   -2.7219    7.4580 H   0  0  0  0  0  0  0  0  0  0  0  0
    6.2450   -3.8627    4.6345 H   0  0  0  0  0  0  0  0  0  0  0  0
    2.9680   -5.3644    5.5573 H   0  0  0  0  0  0  0  0  0  0  0  0
    5.3514   -5.5665    4.4731 H   0  0  0  0  0  0  0  0  0  0  0  0
    3.7191   -7.0114    4.8933 H   0  0  0  0  0  0  0  0  0  0  0  0
    2.3984   -9.0060    3.1367 H   0  0  0  0  0  0  0  0  0  0  0  0
    0.8715   -7.8639    1.5713 H   0  0  0  0  0  0  0  0  0  0  0  0
    0.1376   -9.0322    2.6648 H   0  0  0  0  0  0  0  0  0  0  0  0
    0.1175   -5.9772    2.9952 H   0  0  0  0  0  0  0  0  0  0  0  0
   -1.8927   -7.9281    2.7146 H   0  0  0  0  0  0  0  0  0  0  0  0
   -1.1687   -6.3165    5.0259 H   0  0  0  0  0  0  0  0  0  0  0  0
   -0.8386   -9.0919    4.6888 H   0  0  0  0  0  0  0  0  0  0  0  0
    1.2526   -6.3292    5.3237 H   0  0  0  0  0  0  0  0  0  0  0  0
   -0.0793   -6.8208    7.3819 H   0  0  0  0  0  0  0  0  0  0  0  0
    1.5193   -7.5258    7.4399 H   0  0  0  0  0  0  0  0  0  0  0  0
    0.1318   -8.5442    7.1031 H   0  0  0  0  0  0  0  0  0  0  0  0
    5.7954   -8.0652    3.7656 H   0  0  0  0  0  0  0  0  0  0  0  0
    4.3783   -8.9742    3.8523 H   0  0  0  0  0  0  0  0  0  0  0  0
    4.0855  -10.3372    1.8966 H   0  0  0  0  0  0  0  0  0  0  0  0
    5.8383  -10.2459    2.0557 H   0  0  0  0  0  0  0  0  0  0  0  0
    5.0831   -9.9586    0.4847 H   0  0  0  0  0  0  0  0  0  0  0  0
    4.8356   -7.7408   -0.1374 H   0  0  0  0  0  0  0  0  0  0  0  0
    3.6501   -5.7674    1.1175 H   0  0  0  0  0  0  0  0  0  0  0  0
    5.3847   -5.6506   -1.1326 H   0  0  0  0  0  0  0  0  0  0  0  0
    4.5022   -2.1777   -1.6955 H   0  0  0  0  0  0  0  0  0  0  0  0
    5.5935   -3.4133   -2.3331 H   0  0  0  0  0  0  0  0  0  0  0  0
    6.2039   -2.1917   -1.2185 H   0  0  0  0  0  0  0  0  0  0  0  0
    3.3882   -3.5000    0.8147 H   0  0  0  0  0  0  0  0  0  0  0  0
    4.3788   -3.9079    2.2947 H   0  0  0  0  0  0  0  0  0  0  0  0
    6.4327   -0.8647    4.0912 H   0  0  0  0  0  0  0  0  0  0  0  0
    4.7231    0.0454    1.3800 H   0  0  0  0  0  0  0  0  0  0  0  0
    3.1222   -0.2910    2.5748 H   0  0  0  0  0  0  0  0  0  0  0  0
    1.6484   -0.6963    1.0996 H   0  0  0  0  0  0  0  0  0  0  0  0
    0.5945   -1.4150    2.5917 H   0  0  0  0  0  0  0  0  0  0  0  0
    1.6094   -4.0685    4.3603 H   0  0  0  0  0  0  0  0  0  0  0  0
    2.7290   -4.2603    1.8785 H   0  0  0  0  0  0  0  0  0  0  0  0
    7.0066   -6.7892    1.9709 H   0  0  0  0  0  0  0  0  0  0  0  0
    7.6789   -5.0901    4.3821 H   0  0  0  0  0  0  0  0  0  0  0  0
    8.6775   -6.3343    3.6291 H   0  0  0  0  0  0  0  0  0  0  0  0
    7.1889   -6.7560    4.3776 H   0  0  0  0  0  0  0  0  0  0  0  0
    8.0692   -3.9562    1.6864 H   0  0  0  0  0  0  0  0  0  0  0  0
    7.6918   -5.1031    0.4043 H   0  0  0  0  0  0  0  0  0  0  0  0
    8.9689   -5.4496    1.5547 H   0  0  0  0  0  0  0  0  0  0  0  0
  1  2  1  0
  1 52  1  0
  1 53  1  0
  1 54  1  0
  2  3  2  0
  2  4  1  0
  4  5  1  0
  6  5  1  1
  5 55  1  0
  5 56  1  0
  6 44  1  0
  6  7  1  0
  6  8  1  0
  7 57  1  0
  7 58  1  0
  7 59  1  0
  8  9  1  0
  8 60  1  0
  8 61  1  0
  9 10  1  0
  9 11  1  0
  9 62  1  1
 10 63  1  0
 10 64  1  0
 10 65  1  0
 11 38  1  0
 11 12  1  1
 11 13  1  0
 12 66  1  0
 13 46  1  0
 13 14  1  1
 13 15  1  0
 14 67  1  0
 15 48  1  0
 15 16  1  0
 15 68  1  1
 16 17  1  0
 16 27  1  0
 16 69  1  1
 17 18  1  0
 18 26  1  0
 18 19  1  0
 18 70  1  6
 19 20  1  0
 19 71  1  0
 19 72  1  0
 20 21  1  0
 20 22  1  0
 20 73  1  1
 21 74  1  0
 22 23  1  0
 22 24  1  0
 22 75  1  1
 23 76  1  0
 24 25  1  0
 24 26  1  0
 24 77  1  1
 25 78  1  0
 25 79  1  0
 25 80  1  0
 27 28  1  0
 27 81  1  0
 27 82  1  0
 28 29  1  0
 28 30  2  0
 29 83  1  0
 29 84  1  0
 29 85  1  0
 30 31  1  0
 30 86  1  0
 31 48  1  0
 31 32  1  0
 31 87  1  1
 32 33  2  0
 32 88  1  0
 33 34  1  0
 33 35  1  0
 34 89  1  0
 34 90  1  0
 34 91  1  0
 35 40  1  0
 35 36  1  0
 35 92  1  1
 36 37  1  0
 36 48  1  0
 36 93  1  6
 37 38  1  0
 38 39  1  1
 38 40  1  0
 39 94  1  0
 40 41  1  6
 40 42  1  0
 41 95  1  0
 42 43  1  0
 42 44  1  0
 42 96  1  1
 43 97  1  0
 44 45  1  6
 44 46  1  0
 45 98  1  0
 46 47  1  0
 46 99  1  1
 47100  1  0
 48 49  1  1
 49 50  1  0
 49 51  1  0
 49101  1  0
 50102  1  0
 50103  1  0
 50104  1  0
 51105  1  0
 51106  1  0
 51107  1  0
M  END
>  <i_m_ct_stereo_status>  (322) 
1

>  <s_m_source_file>  (322) 
/var/tmp/pbs.5076255.sched01/tmpjgl1obm9/123zpz496x9.sdf

>  <i_m_source_file_index>  (322) 
13

>  <i_lp_mmshare_version>  (322) 
48012

>  <i_f3d_flags>  (322) 
0

>  <s_epik_input>  (322) 
W0NIM11DKD1PKU9bQ0gyXVtDQEBdKFtDSDNdKShbQ0gyXVtDQEhdMVtDSDNdKVtDQF0oW09IXSkoW0NASF0yW09IXSlbQ0BIXShbT0hdKVtDQEBdMyhbT0hdKVtDQF00KFtPSF0pT1tDQEhdNVtDSF0zQyhbQ0gzXSk9W0NIXVtDQEhdKFtDQF01KFtDSF0oW0NIM10pW0NIM10pW0NASF02W0NAQF0yKFtPSF0pW0NAXTE0W09IXSlbQ0hdPUMoW0NIM10pW0NIMl1bQ0BASF02T1tDQEBIXTdbQ0gyXVtDQEBIXShbT0hdKVtDQEBIXShbT0hdKVtDQEhdKE83KVtDSDNd

>  <s_epik_cmdline>  (322) 
J2VwaWtfcHl0aG9uJywgJy1waHQnLCAnMi4wJywgJy1waCcsICc3LjAnLCAnLXRuJywgJzgnLCAnLW1hJywgJzIwMCcsICctaW1hZScsICc8aW5maWxlLm1hZT4nLCAnLW9tYWUnLCAnPG91dGZpbGUubWFlPic=

>  <r_lp_tautomer_probability>  (322) 
1

>  <r_epik_Ionization_Penalty>  (322) 
4.97966e-06

>  <r_epik_Ionization_Penalty_Charging>  (322) 
0

>  <r_epik_Ionization_Penalty_Neutral>  (322) 
4.97966e-06

>  <r_epik_State_Penalty>  (322) 
-0

>  <r_epik_Charging_Adjusted_Penalty>  (322) 
0

>  <i_epik_Tot_Q>  (322) 
0

>  <i_epik_Tot_abs_Q>  (322) 
0

>  <s_epik_Chemistry_Notes>  (322) 
This compound has an ester and may undergo hydrolysis at high or low pH. This compound contains an acetal/aminal-like group ( X-CH(R)-Y where X, Y are N, S, or O) that may be acid/base labile, releasing an aldehyde.

>  <s_lp_Force_Field>  (322) 
OPLS3e

>  <r_lp_Energy>  (322) 
240.265

>  <b_lp_Chiralities_Consistent>  (322) 
1

>  <s_lp_Variant>  (322) 
98:0-1

>  <s_i_glide_gridfile>  (322) 
pfpi4k_grid

>  <i_i_glide_lignum>  (322) 
13

>  <i_i_glide_rotatable_bonds>  (322) 
15

>  <r_i_docking_score>  (322) 
-1.59214

>  <r_i_glide_ligand_efficiency>  (322) 
-0.0312184

>  <r_i_glide_ligand_efficiency_sa>  (322) 
-0.115771

>  <r_i_glide_ligand_efficiency_ln>  (322) 
-0.322829

>  <r_i_glide_gscore>  (322) 
-1.59214

>  <r_i_glide_lipo>  (322) 
-0.484493

>  <r_i_glide_hbond>  (322) 
-0.0860519

>  <r_i_glide_metal>  (322) 
-0

>  <r_i_glide_rewards>  (322) 
-0.0934826

>  <r_i_glide_evdw>  (322) 
-12.8074

>  <r_i_glide_ecoul>  (322) 
-2.50431

>  <r_i_glide_erotb>  (322) 
0.163917

>  <r_i_glide_esite>  (322) 
-0.0760095

>  <r_i_glide_emodel>  (322) 
-9.88415

>  <r_i_glide_energy>  (322) 
-15.3117

>  <r_i_glide_einternal>  (322) 
10.6681

>  <r_i_glide_intrahb_reward>  (322) 
-0

>  <i_i_glide_confnum>  (322) 
1

>  <i_i_glide_posenum>  (322) 
3

>  <r_i_glide_eff_state_penalty>  (322) 
0

>  <ligand_id>  (322) 
98

>  <original_smiles>  (322) 
CC(=O)OCC1(C)CC(C)C2(O)C3(O)C4C(OC5CC(O)C(O)C(C)O5)CC(C)=CC5C=C(C)C6C(OC2(O)C6(O)C(O)C1(O)C3O)C54C(C)C

>  <smiles>  (322) 
[H]OC1([H])C([H])([H])C([H])(OC2([H])C([H])([H])C(C([H])([H])[H])=C([H])C3([H])C([H])=C(C([H])([H])[H])C4([H])C5([H])OC6(O[H])C4(O[H])C([H])(O[H])C4(O[H])C([H])(O[H])C(O[H])(C2([H])C35C([H])(C([H])([H])[H])C([H])([H])[H])C6(O[H])C([H])(C([H])([H])[H])C([H])([H])C4(C([H])([H])[H])C([H])([H])OC(=O)C([H])([H])[H])OC([H])(C([H])([H])[H])C1([H])O[H]

$$$$
98:0:2
     RDKit          3D

107113  0  0  1  0  0  0  0  0999 V2000
   -2.1066   -0.2042    5.1836 C   0  0  0  0  0  0  0  0  0  0  0  0
   -0.6252   -0.2076    5.5502 C   0  0  0  0  0  0  0  0  0  0  0  0
   -0.2547   -0.4723    6.6935 O   0  0  0  0  0  0  0  0  0  0  0  0
    0.1772    0.0971    4.5175 O   0  0  0  0  0  0  0  0  0  0  0  0
    1.5938    0.0981    4.7057 C   0  0  0  0  0  0  0  0  0  0  0  0
    2.3699   -0.2893    3.4089 C   0  0  1  0  0  0  0  0  0  0  0  0
    1.8419    0.6918    2.3069 C   0  0  0  0  0  0  0  0  0  0  0  0
    3.8534    0.0721    3.5849 C   0  0  0  0  0  0  0  0  0  0  0  0
    4.7024   -0.7165    4.5884 C   0  0  1  0  0  0  0  0  0  0  0  0
    4.6626   -0.0677    5.9984 C   0  0  0  0  0  0  0  0  0  0  0  0
    4.7016   -2.3029    4.4582 C   0  0  1  0  0  0  0  0  0  0  0  0
    5.7322   -2.6101    5.3828 O   0  0  0  0  0  0  0  0  0  0  0  0
    3.4700   -3.1529    5.0908 C   0  0  2  0  0  0  0  0  0  0  0  0
    3.2057   -2.5390    6.3352 O   0  0  0  0  0  0  0  0  0  0  0  0
    3.8037   -4.7566    5.5005 C   0  0  1  0  0  0  0  0  0  0  0  0
    2.8203   -5.5063    6.4527 C   0  0  1  0  0  0  0  0  0  0  0  0
    1.4453   -5.3730    6.0705 O   0  0  0  0  0  0  0  0  0  0  0  0
    0.4514   -5.8197    6.9459 C   0  0  2  0  0  0  0  0  0  0  0  0
   -0.9145   -5.2160    6.5295 C   0  0  0  0  0  0  0  0  0  0  0  0
   -0.8643   -3.6940    6.7550 C   0  0  1  0  0  0  0  0  0  0  0  0
   -2.0892   -3.0533    6.4880 O   0  0  0  0  0  0  0  0  0  0  0  0
   -0.4531   -3.3533    8.2089 C   0  0  1  0  0  0  0  0  0  0  0  0
   -1.4275   -3.7610    9.1500 O   0  0  0  0  0  0  0  0  0  0  0  0
    0.8458   -4.0723    8.5225 C   0  0  1  0  0  0  0  0  0  0  0  0
    1.3870   -3.8499    9.9364 C   0  0  0  0  0  0  0  0  0  0  0  0
    0.6941   -5.4699    8.2692 O   0  0  0  0  0  0  0  0  0  0  0  0
    3.2031   -6.9271    6.9250 C   0  0  0  0  0  0  0  0  0  0  0  0
    3.0306   -8.0911    5.9544 C   0  0  0  0  0  0  0  0  0  0  0  0
    2.7182   -9.4045    6.6560 C   0  0  0  0  0  0  0  0  0  0  0  0
    3.1195   -8.0251    4.6055 C   0  0  0  0  0  0  0  0  0  0  0  0
    3.4138   -6.7935    3.7540 C   0  0  2  0  0  0  0  0  0  0  0  0
    3.7620   -7.1036    2.2505 C   0  0  0  0  0  0  0  0  0  0  0  0
    4.0725   -6.0867    1.3810 C   0  0  0  0  0  0  0  0  0  0  0  0
    4.4873   -6.2572   -0.0618 C   0  0  0  0  0  0  0  0  0  0  0  0
    3.8575   -4.7065    1.9824 C   0  0  1  0  0  0  0  0  0  0  0  0
    4.7257   -4.8706    3.1977 C   0  0  2  0  0  0  0  0  0  0  0  0
    5.7898   -3.9500    3.2109 O   0  0  0  0  0  0  0  0  0  0  0  0
    5.2068   -2.7528    2.9500 C   0  0  2  0  0  0  0  0  0  0  0  0
    6.1538   -1.8328    2.4423 O   0  0  0  0  0  0  0  0  0  0  0  0
    4.2598   -3.1908    1.7279 C   0  0  1  0  0  0  0  0  0  0  0  0
    4.9348   -3.1351    0.4781 O   0  0  0  0  0  0  0  0  0  0  0  0
    3.0540   -2.1999    1.6688 C   0  0  1  0  0  0  0  0  0  0  0  0
    2.2507   -2.6751    0.5876 O   0  0  0  0  0  0  0  0  0  0  0  0
    2.2255   -1.8152    3.0015 C   0  0  2  0  0  0  0  0  0  0  0  0
    0.8810   -1.8266    2.6267 O   0  0  0  0  0  0  0  0  0  0  0  0
    2.1671   -2.8388    4.2251 C   0  0  1  0  0  0  0  0  0  0  0  0
    1.4649   -4.0023    3.8235 O   0  0  0  0  0  0  0  0  0  0  0  0
    4.4394   -5.7580    4.3922 C   0  0  1  0  0  0  0  0  0  0  0  0
    5.7719   -6.4990    4.8713 C   0  0  0  0  0  0  0  0  0  0  0  0
    6.8340   -5.6726    5.6304 C   0  0  0  0  0  0  0  0  0  0  0  0
    6.4873   -7.2831    3.7569 C   0  0  0  0  0  0  0  0  0  0  0  0
   -2.3713    0.7702    4.7743 H   0  0  0  0  0  0  0  0  0  0  0  0
   -2.7196   -0.3893    6.0671 H   0  0  0  0  0  0  0  0  0  0  0  0
   -2.3337   -0.9760    4.4454 H   0  0  0  0  0  0  0  0  0  0  0  0
    1.8750    1.1010    5.0241 H   0  0  0  0  0  0  0  0  0  0  0  0
    1.8753   -0.5455    5.5399 H   0  0  0  0  0  0  0  0  0  0  0  0
    2.3420    0.5771    1.3493 H   0  0  0  0  0  0  0  0  0  0  0  0
    1.9976    1.7241    2.6154 H   0  0  0  0  0  0  0  0  0  0  0  0
    0.7696    0.6172    2.1125 H   0  0  0  0  0  0  0  0  0  0  0  0
    4.3378    0.0356    2.6129 H   0  0  0  0  0  0  0  0  0  0  0  0
    3.9131    1.1312    3.8334 H   0  0  0  0  0  0  0  0  0  0  0  0
    5.7043   -0.4044    4.3122 H   0  0  0  0  0  0  0  0  0  0  0  0
    3.6870   -0.0996    6.4725 H   0  0  0  0  0  0  0  0  0  0  0  0
    4.9391    0.9869    5.9420 H   0  0  0  0  0  0  0  0  0  0  0  0
    5.3727   -0.5245    6.6864 H   0  0  0  0  0  0  0  0  0  0  0  0
    6.5199   -2.1543    5.1123 H   0  0  0  0  0  0  0  0  0  0  0  0
    2.4915   -2.9971    6.7382 H   0  0  0  0  0  0  0  0  0  0  0  0
    4.6112   -4.5860    6.1933 H   0  0  0  0  0  0  0  0  0  0  0  0
    2.9484   -4.9591    7.3877 H   0  0  0  0  0  0  0  0  0  0  0  0
    0.3883   -6.9071    6.9003 H   0  0  0  0  0  0  0  0  0  0  0  0
   -1.1133   -5.5104    5.4925 H   0  0  0  0  0  0  0  0  0  0  0  0
   -1.6954   -5.6346    7.1675 H   0  0  0  0  0  0  0  0  0  0  0  0
   -0.1434   -3.3077    6.0368 H   0  0  0  0  0  0  0  0  0  0  0  0
   -2.2215   -3.0760    5.5550 H   0  0  0  0  0  0  0  0  0  0  0  0
   -0.2270   -2.2906    8.3089 H   0  0  0  0  0  0  0  0  0  0  0  0
   -1.4776   -4.6965    9.0680 H   0  0  0  0  0  0  0  0  0  0  0  0
    1.5695   -3.6247    7.8381 H   0  0  0  0  0  0  0  0  0  0  0  0
    1.5106   -2.7813   10.1210 H   0  0  0  0  0  0  0  0  0  0  0  0
    2.3730   -4.3068   10.0434 H   0  0  0  0  0  0  0  0  0  0  0  0
    0.7278   -4.2688   10.6983 H   0  0  0  0  0  0  0  0  0  0  0  0
    4.2107   -6.9408    7.3397 H   0  0  0  0  0  0  0  0  0  0  0  0
    2.5966   -7.1611    7.8004 H   0  0  0  0  0  0  0  0  0  0  0  0
    1.7747   -9.3446    7.2072 H   0  0  0  0  0  0  0  0  0  0  0  0
    3.5057   -9.6367    7.3730 H   0  0  0  0  0  0  0  0  0  0  0  0
    2.6414  -10.2233    5.9368 H   0  0  0  0  0  0  0  0  0  0  0  0
    2.9549   -8.9265    4.0315 H   0  0  0  0  0  0  0  0  0  0  0  0
    2.4322   -6.3252    3.6941 H   0  0  0  0  0  0  0  0  0  0  0  0
    3.8164   -8.1436    1.9618 H   0  0  0  0  0  0  0  0  0  0  0  0
    3.8154   -5.6911   -0.7043 H   0  0  0  0  0  0  0  0  0  0  0  0
    4.4510   -7.3105   -0.3419 H   0  0  0  0  0  0  0  0  0  0  0  0
    5.5038   -5.8951   -0.2207 H   0  0  0  0  0  0  0  0  0  0  0  0
    2.7564   -4.7597    1.9888 H   0  0  0  0  0  0  0  0  0  0  0  0
    3.8139   -4.4507    3.4261 H   0  0  0  0  0  0  0  0  0  0  0  0
    6.8509   -1.7516    3.0618 H   0  0  0  0  0  0  0  0  0  0  0  0
    4.2980   -3.3306   -0.1942 H   0  0  0  0  0  0  0  0  0  0  0  0
    3.4603   -1.2869    1.2416 H   0  0  0  0  0  0  0  0  0  0  0  0
    1.8024   -1.9396    0.1588 H   0  0  0  0  0  0  0  0  0  0  0  0
    0.7869   -1.2610    1.8830 H   0  0  0  0  0  0  0  0  0  0  0  0
    1.4279   -2.4273    4.9014 H   0  0  0  0  0  0  0  0  0  0  0  0
    2.0357   -4.5178    3.2830 H   0  0  0  0  0  0  0  0  0  0  0  0
    5.4807   -7.2493    5.5949 H   0  0  0  0  0  0  0  0  0  0  0  0
    7.2170   -4.8613    5.0254 H   0  0  0  0  0  0  0  0  0  0  0  0
    7.6817   -6.3040    5.8834 H   0  0  0  0  0  0  0  0  0  0  0  0
    6.4969   -5.2712    6.5841 H   0  0  0  0  0  0  0  0  0  0  0  0
    6.7551   -6.6412    2.9219 H   0  0  0  0  0  0  0  0  0  0  0  0
    5.8848   -8.1083    3.3919 H   0  0  0  0  0  0  0  0  0  0  0  0
    7.4020   -7.7291    4.1284 H   0  0  0  0  0  0  0  0  0  0  0  0
  1  2  1  0
  1 52  1  0
  1 53  1  0
  1 54  1  0
  2  3  2  0
  2  4  1  0
  4  5  1  0
  6  5  1  1
  5 55  1  0
  5 56  1  0
  6 44  1  0
  6  7  1  0
  6  8  1  0
  7 57  1  0
  7 58  1  0
  7 59  1  0
  8  9  1  0
  8 60  1  0
  8 61  1  0
  9 10  1  0
  9 11  1  0
  9 62  1  6
 10 63  1  0
 10 64  1  0
 10 65  1  0
 11 38  1  0
 11 12  1  1
 11 13  1  0
 12 66  1  0
 13 46  1  0
 13 14  1  1
 13 15  1  0
 14 67  1  0
 15 48  1  0
 15 16  1  0
 15 68  1  1
 16 17  1  0
 16 27  1  0
 16 69  1  1
 17 18  1  0
 18 26  1  0
 18 19  1  0
 18 70  1  1
 19 20  1  0
 19 71  1  0
 19 72  1  0
 20 21  1  0
 20 22  1  0
 20 73  1  6
 21 74  1  0
 22 23  1  0
 22 24  1  0
 22 75  1  6
 23 76  1  0
 24 25  1  0
 24 26  1  0
 24 77  1  6
 25 78  1  0
 25 79  1  0
 25 80  1  0
 27 28  1  0
 27 81  1  0
 27 82  1  0
 28 29  1  0
 28 30  2  0
 29 83  1  0
 29 84  1  0
 29 85  1  0
 30 31  1  0
 30 86  1  0
 31 48  1  0
 31 32  1  0
 31 87  1  6
 32 33  2  0
 32 88  1  0
 33 34  1  0
 33 35  1  0
 34 89  1  0
 34 90  1  0
 34 91  1  0
 35 40  1  0
 35 36  1  0
 35 92  1  1
 36 37  1  0
 36 48  1  0
 36 93  1  6
 37 38  1  0
 38 39  1  6
 38 40  1  0
 39 94  1  0
 40 41  1  6
 40 42  1  0
 41 95  1  0
 42 43  1  0
 42 44  1  0
 42 96  1  6
 43 97  1  0
 44 45  1  6
 44 46  1  0
 45 98  1  0
 46 47  1  0
 46 99  1  1
 47100  1  0
 48 49  1  1
 49 50  1  0
 49 51  1  0
 49101  1  0
 50102  1  0
 50103  1  0
 50104  1  0
 51105  1  0
 51106  1  0
 51107  1  0
M  END
>  <i_m_ct_stereo_status>  (323) 
1

>  <s_m_source_file>  (323) 
/var/tmp/pbs.5076255.sched01/tmpjgl1obm9/123zpz496x9.sdf

>  <i_m_source_file_index>  (323) 
13

>  <i_lp_mmshare_version>  (323) 
48012

>  <i_f3d_flags>  (323) 
0

>  <s_epik_input>  (323) 
W0NIM11DKD1PKU9bQ0gyXVtDQEBdKFtDSDNdKShbQ0gyXVtDQEhdMVtDSDNdKVtDQF0oW09IXSkoW0NASF0yW09IXSlbQ0BIXShbT0hdKVtDQEBdMyhbT0hdKVtDQF00KFtPSF0pT1tDQEhdNVtDSF0zQyhbQ0gzXSk9W0NIXVtDQEhdKFtDQF01KFtDSF0oW0NIM10pW0NIM10pW0NASF02W0NAQF0yKFtPSF0pW0NAXTE0W09IXSlbQ0hdPUMoW0NIM10pW0NIMl1bQ0BASF02T1tDQEBIXTdbQ0gyXVtDQEBIXShbT0hdKVtDQEBIXShbT0hdKVtDQEhdKE83KVtDSDNd

>  <s_epik_cmdline>  (323) 
J2VwaWtfcHl0aG9uJywgJy1waHQnLCAnMi4wJywgJy1waCcsICc3LjAnLCAnLXRuJywgJzgnLCAnLW1hJywgJzIwMCcsICctaW1hZScsICc8aW5maWxlLm1hZT4nLCAnLW9tYWUnLCAnPG91dGZpbGUubWFlPic=

>  <r_lp_tautomer_probability>  (323) 
1

>  <r_epik_Ionization_Penalty>  (323) 
4.97966e-06

>  <r_epik_Ionization_Penalty_Charging>  (323) 
0

>  <r_epik_Ionization_Penalty_Neutral>  (323) 
4.97966e-06

>  <r_epik_State_Penalty>  (323) 
-0

>  <r_epik_Charging_Adjusted_Penalty>  (323) 
0

>  <i_epik_Tot_Q>  (323) 
0

>  <i_epik_Tot_abs_Q>  (323) 
0

>  <s_epik_Chemistry_Notes>  (323) 
This compound has an ester and may undergo hydrolysis at high or low pH. This compound contains an acetal/aminal-like group ( X-CH(R)-Y where X, Y are N, S, or O) that may be acid/base labile, releasing an aldehyde.

>  <s_lp_Force_Field>  (323) 
OPLS3e

>  <r_lp_Energy>  (323) 
240.265

>  <b_lp_Chiralities_Consistent>  (323) 
1

>  <s_lp_Variant>  (323) 
98:0-1

>  <s_i_glide_gridfile>  (323) 
pfpi4k_grid

>  <i_i_glide_lignum>  (323) 
13

>  <i_i_glide_rotatable_bonds>  (323) 
15

>  <r_i_docking_score>  (323) 
-1.51495

>  <r_i_glide_ligand_efficiency>  (323) 
-0.0297049

>  <r_i_glide_ligand_efficiency_sa>  (323) 
-0.110159

>  <r_i_glide_ligand_efficiency_ln>  (323) 
-0.307179

>  <r_i_glide_gscore>  (323) 
-1.51495

>  <r_i_glide_lipo>  (323) 
-0.288426

>  <r_i_glide_hbond>  (323) 
0

>  <r_i_glide_metal>  (323) 
-0

>  <r_i_glide_rewards>  (323) 
-0.0720611

>  <r_i_glide_evdw>  (323) 
-12.1432

>  <r_i_glide_ecoul>  (323) 
-4.18991

>  <r_i_glide_erotb>  (323) 
0.114742

>  <r_i_glide_esite>  (323) 
-0.0335592

>  <r_i_glide_emodel>  (323) 
-11.3997

>  <r_i_glide_energy>  (323) 
-16.3331

>  <r_i_glide_einternal>  (323) 
10.177

>  <r_i_glide_intrahb_reward>  (323) 
-0

>  <i_i_glide_confnum>  (323) 
1

>  <i_i_glide_posenum>  (323) 
14

>  <r_i_glide_eff_state_penalty>  (323) 
0

>  <ligand_id>  (323) 
98

>  <original_smiles>  (323) 
CC(=O)OCC1(C)CC(C)C2(O)C3(O)C4C(OC5CC(O)C(O)C(C)O5)CC(C)=CC5C=C(C)C6C(OC2(O)C6(O)C(O)C1(O)C3O)C54C(C)C

>  <smiles>  (323) 
[H]OC1([H])C([H])([H])C([H])(OC2([H])C([H])([H])C(C([H])([H])[H])=C([H])C3([H])C([H])=C(C([H])([H])[H])C4([H])C5([H])OC6(O[H])C4(O[H])C([H])(O[H])C4(O[H])C([H])(O[H])C(O[H])(C2([H])C35C([H])(C([H])([H])[H])C([H])([H])[H])C6(O[H])C([H])(C([H])([H])[H])C([H])([H])C4(C([H])([H])[H])C([H])([H])OC(=O)C([H])([H])[H])OC([H])(C([H])([H])[H])C1([H])O[H]

$$$$
99:0:0
     RDKit          3D

 38 40  0  0  1  0  0  0  0  0999 V2000
    5.7410   -3.3339   -2.6095 C   0  0  0  0  0  0  0  0  0  0  0  0
    6.3217   -2.6165   -1.4969 N   0  0  0  0  0  0  0  0  0  0  0  0
    7.5541   -2.9165   -0.9271 C   0  0  0  0  0  0  0  0  0  0  0  0
    7.7476   -2.0582    0.1110 C   0  0  0  0  0  0  0  0  0  0  0  0
    6.6526   -1.1649    0.1415 C   0  0  0  0  0  0  0  0  0  0  0  0
    5.7529   -1.5289   -0.8105 C   0  0  0  0  0  0  0  0  0  0  0  0
    4.3659   -1.0188   -1.1603 C   0  0  0  0  0  0  0  0  0  0  0  0
    3.4321   -1.0676   -0.0006 N   0  0  0  0  0  0  0  0  0  0  0  0
    3.3819   -2.4377    0.5937 C   0  0  0  0  0  0  0  0  0  0  0  0
    2.3908   -2.5153    1.7460 C   0  0  0  0  0  0  0  0  0  0  0  0
    2.7046   -1.4417    2.8023 C   0  0  0  0  0  0  0  0  0  0  0  0
    2.7294   -0.0241    2.1964 C   0  0  0  0  0  0  0  0  0  0  0  0
    3.7424   -0.0383    1.0353 C   0  0  0  0  0  0  0  0  0  0  0  0
    1.7142   -1.4878    3.7670 O   0  0  0  0  0  0  0  0  0  0  0  0
    2.3851   -1.4611    5.0022 C   0  0  0  0  0  0  0  0  0  0  0  0
    3.6618   -2.2164    4.6811 C   0  0  0  0  0  0  0  0  0  0  0  0
    3.9403   -1.7305    3.3833 O   0  0  0  0  0  0  0  0  0  0  0  0
    6.2888   -4.2529   -2.7654 H   0  0  0  0  0  0  0  0  0  0  0  0
    5.7881   -2.7208   -3.5081 H   0  0  0  0  0  0  0  0  0  0  0  0
    4.7064   -3.6160   -2.3962 H   0  0  0  0  0  0  0  0  0  0  0  0
    8.1625   -3.7329   -1.2868 H   0  0  0  0  0  0  0  0  0  0  0  0
    8.5947   -2.0788    0.7891 H   0  0  0  0  0  0  0  0  0  0  0  0
    6.5706   -0.3395    0.8564 H   0  0  0  0  0  0  0  0  0  0  0  0
    4.4393   -0.0034   -1.5774 H   0  0  0  0  0  0  0  0  0  0  0  0
    3.9155   -1.5681   -1.9720 H   0  0  0  0  0  0  0  0  0  0  0  0
    3.1234   -3.1562   -0.1817 H   0  0  0  0  0  0  0  0  0  0  0  0
    4.3533   -2.7366    0.9908 H   0  0  0  0  0  0  0  0  0  0  0  0
    1.4137   -2.3022    1.3608 H   0  0  0  0  0  0  0  0  0  0  0  0
    2.3970   -3.5060    2.2031 H   0  0  0  0  0  0  0  0  0  0  0  0
    1.7280    0.2691    1.8585 H   0  0  0  0  0  0  0  0  0  0  0  0
    3.0520    0.6866    2.9455 H   0  0  0  0  0  0  0  0  0  0  0  0
    4.6812   -0.1958    1.5191 H   0  0  0  0  0  0  0  0  0  0  0  0
    3.7886    0.9407    0.5480 H   0  0  0  0  0  0  0  0  0  0  0  0
    2.6106   -0.4303    5.2882 H   0  0  0  0  0  0  0  0  0  0  0  0
    1.7831   -1.9263    5.7784 H   0  0  0  0  0  0  0  0  0  0  0  0
    4.4643   -2.0356    5.3920 H   0  0  0  0  0  0  0  0  0  0  0  0
    3.4641   -3.2930    4.6449 H   0  0  0  0  0  0  0  0  0  0  0  0
    2.4830   -0.8988   -0.3578 H   0  0  0  0  0  0  0  0  0  0  0  0
  1  2  1  0
  1 18  1  0
  1 19  1  0
  1 20  1  0
  2  6  1  0
  2  3  1  0
  3  4  2  0
  3 21  1  0
  4  5  1  0
  4 22  1  0
  5  6  2  0
  5 23  1  0
  6  7  1  0
  7  8  1  0
  7 24  1  0
  7 25  1  0
  8 13  1  0
  8  9  1  0
  8 38  1  0
  9 10  1  0
  9 26  1  0
  9 27  1  0
 10 11  1  0
 10 28  1  0
 10 29  1  0
 11 17  1  0
 11 12  1  0
 11 14  1  0
 12 13  1  0
 12 30  1  0
 12 31  1  0
 13 32  1  0
 13 33  1  0
 14 15  1  0
 15 16  1  0
 15 34  1  0
 15 35  1  0
 16 17  1  0
 16 36  1  0
 16 37  1  0
M  CHG  1   8   1
M  END
>  <i_m_ct_stereo_status>  (324) 
1

>  <s_m_source_file>  (324) 
/var/tmp/pbs.5076255.sched01/tmpjgl1obm9/123zpz496x9.sdf

>  <i_m_source_file_index>  (324) 
14

>  <i_lp_mmshare_version>  (324) 
48012

>  <i_f3d_flags>  (324) 
0

>  <s_epik_input>  (324) 
W0NIM11uMVtjSF1bY0hdW2NIXWMxW0NIMl1OKFtDSDJdW0NIMl0yKVtDSDJdW0NIMl1DMjNPW0NIMl1bQ0gyXU8z

>  <s_epik_cmdline>  (324) 
J2VwaWtfcHl0aG9uJywgJy1waHQnLCAnMi4wJywgJy1waCcsICc3LjAnLCAnLXRuJywgJzgnLCAnLW1hJywgJzIwMCcsICctaW1hZScsICc8aW5maWxlLm1hZT4nLCAnLW9tYWUnLCAnPG91dGZpbGUubWFlPic=

>  <r_epik_Ionization_Penalty>  (324) 
0.324976

>  <r_epik_Ionization_Penalty_Charging>  (324) 
0.324976

>  <r_epik_Ionization_Penalty_Neutral>  (324) 
2.14177e-13

>  <r_epik_State_Penalty>  (324) 
0.319742

>  <r_epik_Charging_Adjusted_Penalty>  (324) 
0.644718

>  <i_epik_Tot_Q>  (324) 
1

>  <i_epik_Tot_abs_Q>  (324) 
1

>  <s_lp_Force_Field>  (324) 
OPLS3e

>  <r_lp_Energy>  (324) 
7.77219

>  <b_lp_Chiralities_Consistent>  (324) 
1

>  <s_lp_Variant>  (324) 
99:0-1

>  <s_i_glide_gridfile>  (324) 
pfpi4k_grid

>  <i_i_glide_lignum>  (324) 
14

>  <i_i_glide_rotatable_bonds>  (324) 
2

>  <r_i_docking_score>  (324) 
-3.48903

>  <r_i_glide_ligand_efficiency>  (324) 
-0.205237

>  <r_i_glide_ligand_efficiency_sa>  (324) 
-0.527722

>  <r_i_glide_ligand_efficiency_ln>  (324) 
-0.91021

>  <r_i_glide_gscore>  (324) 
-3.48903

>  <r_i_glide_lipo>  (324) 
-0.30883

>  <r_i_glide_hbond>  (324) 
-0.2

>  <r_i_glide_metal>  (324) 
-0

>  <r_i_glide_rewards>  (324) 
-1.79101

>  <r_i_glide_evdw>  (324) 
-14.462

>  <r_i_glide_ecoul>  (324) 
-6.46497

>  <r_i_glide_erotb>  (324) 
0.612105

>  <r_i_glide_esite>  (324) 
-0.108445

>  <r_i_glide_emodel>  (324) 
-23.3774

>  <r_i_glide_energy>  (324) 
-20.927

>  <r_i_glide_einternal>  (324) 
5.75811

>  <r_i_glide_intrahb_reward>  (324) 
-0

>  <i_i_glide_confnum>  (324) 
6

>  <i_i_glide_posenum>  (324) 
11

>  <r_i_glide_eff_state_penalty>  (324) 
0

>  <ligand_id>  (324) 
99

>  <original_smiles>  (324) 
Cn1cccc1CN1CCC2(CC1)OCCO2

>  <smiles>  (324) 
[H]c1c([H])c(C([H])([H])[N+]2([H])C([H])([H])C([H])([H])C3(OC([H])([H])C([H])([H])O3)C([H])([H])C2([H])[H])n(C([H])([H])[H])c1[H]

$$$$
99:0:1
     RDKit          3D

 38 40  0  0  1  0  0  0  0  0999 V2000
    3.0270   -0.5414   -3.2813 C   0  0  0  0  0  0  0  0  0  0  0  0
    3.8017   -1.7127   -2.9433 N   0  0  0  0  0  0  0  0  0  0  0  0
    3.9338   -2.8208   -3.7529 C   0  0  0  0  0  0  0  0  0  0  0  0
    4.7137   -3.7282   -3.1004 C   0  0  0  0  0  0  0  0  0  0  0  0
    5.0709   -3.1683   -1.8457 C   0  0  0  0  0  0  0  0  0  0  0  0
    4.5065   -1.9269   -1.7676 C   0  0  0  0  0  0  0  0  0  0  0  0
    4.5310   -0.9208   -0.6627 C   0  0  0  0  0  0  0  0  0  0  0  0
    3.4284   -1.1066    0.3267 N   0  0  0  0  0  0  0  0  0  0  0  0
    3.5154   -2.4132    1.0409 C   0  0  0  0  0  0  0  0  0  0  0  0
    2.3154   -2.6187    1.9697 C   0  0  0  0  0  0  0  0  0  0  0  0
    2.2040   -1.4515    2.9573 C   0  0  0  0  0  0  0  0  0  0  0  0
    2.1737   -0.0916    2.2381 C   0  0  0  0  0  0  0  0  0  0  0  0
    3.3937    0.0116    1.3071 C   0  0  0  0  0  0  0  0  0  0  0  0
    1.0270   -1.6072    3.6712 O   0  0  0  0  0  0  0  0  0  0  0  0
    1.3663   -1.3960    5.0199 C   0  0  0  0  0  0  0  0  0  0  0  0
    2.7906   -1.9238    5.0636 C   0  0  0  0  0  0  0  0  0  0  0  0
    3.2949   -1.4822    3.8239 O   0  0  0  0  0  0  0  0  0  0  0  0
    2.4209   -0.7436   -4.1636 H   0  0  0  0  0  0  0  0  0  0  0  0
    3.6962    0.2959   -3.4838 H   0  0  0  0  0  0  0  0  0  0  0  0
    2.3656   -0.2968   -2.4526 H   0  0  0  0  0  0  0  0  0  0  0  0
    3.4261   -2.8784   -4.7066 H   0  0  0  0  0  0  0  0  0  0  0  0
    4.9506   -4.7112   -3.4737 H   0  0  0  0  0  0  0  0  0  0  0  0
    5.6472   -3.6461   -1.0635 H   0  0  0  0  0  0  0  0  0  0  0  0
    5.4919   -0.9980   -0.1604 H   0  0  0  0  0  0  0  0  0  0  0  0
    4.5209    0.0799   -1.0927 H   0  0  0  0  0  0  0  0  0  0  0  0
    3.5184   -3.2555    0.3501 H   0  0  0  0  0  0  0  0  0  0  0  0
    4.4470   -2.4658    1.6102 H   0  0  0  0  0  0  0  0  0  0  0  0
    1.4221   -2.6267    1.3687 H   0  0  0  0  0  0  0  0  0  0  0  0
    2.3833   -3.5668    2.5136 H   0  0  0  0  0  0  0  0  0  0  0  0
    1.2559   -0.0168    1.6506 H   0  0  0  0  0  0  0  0  0  0  0  0
    2.1548    0.7201    2.9724 H   0  0  0  0  0  0  0  0  0  0  0  0
    4.3153    0.0198    1.8877 H   0  0  0  0  0  0  0  0  0  0  0  0
    3.3588    0.9661    0.7956 H   0  0  0  0  0  0  0  0  0  0  0  0
    1.3423   -0.3295    5.2453 H   0  0  0  0  0  0  0  0  0  0  0  0
    0.6895   -1.9209    5.6919 H   0  0  0  0  0  0  0  0  0  0  0  0
    3.3697   -1.5460    5.9070 H   0  0  0  0  0  0  0  0  0  0  0  0
    2.7919   -3.0130    5.0911 H   0  0  0  0  0  0  0  0  0  0  0  0
    2.5483   -1.0820   -0.1817 H   0  0  0  0  0  0  0  0  0  0  0  0
  1  2  1  0
  1 18  1  0
  1 19  1  0
  1 20  1  0
  2  6  1  0
  2  3  1  0
  3  4  2  0
  3 21  1  0
  4  5  1  0
  4 22  1  0
  5  6  2  0
  5 23  1  0
  6  7  1  0
  7  8  1  0
  7 24  1  0
  7 25  1  0
  8 13  1  0
  8  9  1  0
  8 38  1  0
  9 10  1  0
  9 26  1  0
  9 27  1  0
 10 11  1  0
 10 28  1  0
 10 29  1  0
 11 17  1  0
 11 12  1  0
 11 14  1  0
 12 13  1  0
 12 30  1  0
 12 31  1  0
 13 32  1  0
 13 33  1  0
 14 15  1  0
 15 16  1  0
 15 34  1  0
 15 35  1  0
 16 17  1  0
 16 36  1  0
 16 37  1  0
M  CHG  1   8   1
M  END
>  <i_m_ct_stereo_status>  (325) 
1

>  <s_m_source_file>  (325) 
/var/tmp/pbs.5076255.sched01/tmpjgl1obm9/123zpz496x9.sdf

>  <i_m_source_file_index>  (325) 
14

>  <i_lp_mmshare_version>  (325) 
48012

>  <i_f3d_flags>  (325) 
0

>  <s_epik_input>  (325) 
W0NIM11uMVtjSF1bY0hdW2NIXWMxW0NIMl1OKFtDSDJdW0NIMl0yKVtDSDJdW0NIMl1DMjNPW0NIMl1bQ0gyXU8z

>  <s_epik_cmdline>  (325) 
J2VwaWtfcHl0aG9uJywgJy1waHQnLCAnMi4wJywgJy1waCcsICc3LjAnLCAnLXRuJywgJzgnLCAnLW1hJywgJzIwMCcsICctaW1hZScsICc8aW5maWxlLm1hZT4nLCAnLW9tYWUnLCAnPG91dGZpbGUubWFlPic=

>  <r_epik_Ionization_Penalty>  (325) 
0.324976

>  <r_epik_Ionization_Penalty_Charging>  (325) 
0.324976

>  <r_epik_Ionization_Penalty_Neutral>  (325) 
2.14177e-13

>  <r_epik_State_Penalty>  (325) 
0.319742

>  <r_epik_Charging_Adjusted_Penalty>  (325) 
0.644718

>  <i_epik_Tot_Q>  (325) 
1

>  <i_epik_Tot_abs_Q>  (325) 
1

>  <s_lp_Force_Field>  (325) 
OPLS3e

>  <r_lp_Energy>  (325) 
7.77219

>  <b_lp_Chiralities_Consistent>  (325) 
1

>  <s_lp_Variant>  (325) 
99:0-1

>  <s_i_glide_gridfile>  (325) 
pfpi4k_grid

>  <i_i_glide_lignum>  (325) 
14

>  <i_i_glide_rotatable_bonds>  (325) 
2

>  <r_i_docking_score>  (325) 
-3.27293

>  <r_i_glide_ligand_efficiency>  (325) 
-0.192525

>  <r_i_glide_ligand_efficiency_sa>  (325) 
-0.495036

>  <r_i_glide_ligand_efficiency_ln>  (325) 
-0.853834

>  <r_i_glide_gscore>  (325) 
-3.27293

>  <r_i_glide_lipo>  (325) 
-0.362882

>  <r_i_glide_hbond>  (325) 
-0.2

>  <r_i_glide_metal>  (325) 
-0

>  <r_i_glide_rewards>  (325) 
-1.8053

>  <r_i_glide_evdw>  (325) 
-17.8594

>  <r_i_glide_ecoul>  (325) 
-3.6358

>  <r_i_glide_erotb>  (325) 
0.612105

>  <r_i_glide_esite>  (325) 
-0.0785062

>  <r_i_glide_emodel>  (325) 
-26.9593

>  <r_i_glide_energy>  (325) 
-21.4952

>  <r_i_glide_einternal>  (325) 
0.179784

>  <r_i_glide_intrahb_reward>  (325) 
-0

>  <i_i_glide_confnum>  (325) 
6

>  <i_i_glide_posenum>  (325) 
2

>  <r_i_glide_eff_state_penalty>  (325) 
0

>  <ligand_id>  (325) 
99

>  <original_smiles>  (325) 
Cn1cccc1CN1CCC2(CC1)OCCO2

>  <smiles>  (325) 
[H]c1c([H])c(C([H])([H])[N+]2([H])C([H])([H])C([H])([H])C3(OC([H])([H])C([H])([H])O3)C([H])([H])C2([H])[H])n(C([H])([H])[H])c1[H]

$$$$
99:0:2
     RDKit          3D

 38 40  0  0  1  0  0  0  0  0999 V2000
    8.8285   -3.6424   -0.7013 C   0  0  0  0  0  0  0  0  0  0  0  0
    8.0376   -4.4989    0.1722 N   0  0  0  0  0  0  0  0  0  0  0  0
    8.3584   -5.8144    0.4918 C   0  0  0  0  0  0  0  0  0  0  0  0
    7.4127   -6.3245    1.3286 C   0  0  0  0  0  0  0  0  0  0  0  0
    6.4375   -5.3125    1.5345 C   0  0  0  0  0  0  0  0  0  0  0  0
    6.8253   -4.2141    0.8114 C   0  0  0  0  0  0  0  0  0  0  0  0
    6.1517   -2.8807    0.7133 C   0  0  0  0  0  0  0  0  0  0  0  0
    5.1458   -2.8486   -0.3927 N   0  0  0  0  0  0  0  0  0  0  0  0
    4.2408   -1.6643   -0.2986 C   0  0  0  0  0  0  0  0  0  0  0  0
    3.1966   -1.6802   -1.4316 C   0  0  0  0  0  0  0  0  0  0  0  0
    3.8707   -1.7547   -2.7966 C   0  0  0  0  0  0  0  0  0  0  0  0
    4.8203   -2.9549   -2.8971 C   0  0  0  0  0  0  0  0  0  0  0  0
    5.7963   -2.9374   -1.7270 C   0  0  0  0  0  0  0  0  0  0  0  0
    2.9025   -1.8862   -3.7776 O   0  0  0  0  0  0  0  0  0  0  0  0
    3.2687   -0.9588   -4.7659 C   0  0  0  0  0  0  0  0  0  0  0  0
    3.9188    0.1438   -3.9816 C   0  0  0  0  0  0  0  0  0  0  0  0
    4.5882   -0.5791   -2.9811 O   0  0  0  0  0  0  0  0  0  0  0  0
    9.5581   -4.2838   -1.2117 H   0  0  0  0  0  0  0  0  0  0  0  0
    9.3829   -2.9136   -0.0770 H   0  0  0  0  0  0  0  0  0  0  0  0
    8.2112   -3.1794   -1.4560 H   0  0  0  0  0  0  0  0  0  0  0  0
    9.2369   -6.2911    0.0979 H   0  0  0  0  0  0  0  0  0  0  0  0
    7.4407   -7.3333    1.7319 H   0  0  0  0  0  0  0  0  0  0  0  0
    5.5459   -5.3983    2.1580 H   0  0  0  0  0  0  0  0  0  0  0  0
    5.6637   -2.6875    1.6718 H   0  0  0  0  0  0  0  0  0  0  0  0
    6.8919   -2.0889    0.6045 H   0  0  0  0  0  0  0  0  0  0  0  0
    3.7234   -1.6505    0.6645 H   0  0  0  0  0  0  0  0  0  0  0  0
    4.8322   -0.7479   -0.3487 H   0  0  0  0  0  0  0  0  0  0  0  0
    2.5305   -2.5409   -1.3291 H   0  0  0  0  0  0  0  0  0  0  0  0
    2.6300   -0.7526   -1.4303 H   0  0  0  0  0  0  0  0  0  0  0  0
    4.2320   -3.8678   -2.8692 H   0  0  0  0  0  0  0  0  0  0  0  0
    5.3445   -2.9242   -3.8531 H   0  0  0  0  0  0  0  0  0  0  0  0
    6.4445   -2.0709   -1.8445 H   0  0  0  0  0  0  0  0  0  0  0  0
    6.4179   -3.8264   -1.8086 H   0  0  0  0  0  0  0  0  0  0  0  0
    3.9956   -1.3792   -5.4541 H   0  0  0  0  0  0  0  0  0  0  0  0
    2.4001   -0.5864   -5.2943 H   0  0  0  0  0  0  0  0  0  0  0  0
    4.5414    0.7991   -4.6022 H   0  0  0  0  0  0  0  0  0  0  0  0
    3.1350    0.7198   -3.5176 H   0  0  0  0  0  0  0  0  0  0  0  0
    4.5574   -3.6605   -0.2960 H   0  0  0  0  0  0  0  0  0  0  0  0
  1  2  1  0
  1 18  1  0
  1 19  1  0
  1 20  1  0
  2  6  1  0
  2  3  1  0
  3  4  2  0
  3 21  1  0
  4  5  1  0
  4 22  1  0
  5  6  2  0
  5 23  1  0
  6  7  1  0
  7  8  1  0
  7 24  1  0
  7 25  1  0
  8 13  1  0
  8  9  1  0
  8 38  1  0
  9 10  1  0
  9 26  1  0
  9 27  1  0
 10 11  1  0
 10 28  1  0
 10 29  1  0
 11 17  1  0
 11 12  1  0
 11 14  1  0
 12 13  1  0
 12 30  1  0
 12 31  1  0
 13 32  1  0
 13 33  1  0
 14 15  1  0
 15 16  1  0
 15 34  1  0
 15 35  1  0
 16 17  1  0
 16 36  1  0
 16 37  1  0
M  CHG  1   8   1
M  END
>  <i_m_ct_stereo_status>  (326) 
1

>  <s_m_source_file>  (326) 
/var/tmp/pbs.5076255.sched01/tmpjgl1obm9/123zpz496x9.sdf

>  <i_m_source_file_index>  (326) 
14

>  <i_lp_mmshare_version>  (326) 
48012

>  <i_f3d_flags>  (326) 
0

>  <s_epik_input>  (326) 
W0NIM11uMVtjSF1bY0hdW2NIXWMxW0NIMl1OKFtDSDJdW0NIMl0yKVtDSDJdW0NIMl1DMjNPW0NIMl1bQ0gyXU8z

>  <s_epik_cmdline>  (326) 
J2VwaWtfcHl0aG9uJywgJy1waHQnLCAnMi4wJywgJy1waCcsICc3LjAnLCAnLXRuJywgJzgnLCAnLW1hJywgJzIwMCcsICctaW1hZScsICc8aW5maWxlLm1hZT4nLCAnLW9tYWUnLCAnPG91dGZpbGUubWFlPic=

>  <r_epik_Ionization_Penalty>  (326) 
0.324976

>  <r_epik_Ionization_Penalty_Charging>  (326) 
0.324976

>  <r_epik_Ionization_Penalty_Neutral>  (326) 
2.14177e-13

>  <r_epik_State_Penalty>  (326) 
0.319742

>  <r_epik_Charging_Adjusted_Penalty>  (326) 
0.644718

>  <i_epik_Tot_Q>  (326) 
1

>  <i_epik_Tot_abs_Q>  (326) 
1

>  <s_lp_Force_Field>  (326) 
OPLS3e

>  <r_lp_Energy>  (326) 
7.77219

>  <b_lp_Chiralities_Consistent>  (326) 
1

>  <s_lp_Variant>  (326) 
99:0-1

>  <s_i_glide_gridfile>  (326) 
pfpi4k_grid

>  <i_i_glide_lignum>  (326) 
14

>  <i_i_glide_rotatable_bonds>  (326) 
2

>  <r_i_docking_score>  (326) 
-3.0894

>  <r_i_glide_ligand_efficiency>  (326) 
-0.181729

>  <r_i_glide_ligand_efficiency_sa>  (326) 
-0.467278

>  <r_i_glide_ligand_efficiency_ln>  (326) 
-0.805956

>  <r_i_glide_gscore>  (326) 
-3.0894

>  <r_i_glide_lipo>  (326) 
-0.60284

>  <r_i_glide_hbond>  (326) 
0

>  <r_i_glide_metal>  (326) 
-0

>  <r_i_glide_rewards>  (326) 
-1.98375

>  <r_i_glide_evdw>  (326) 
-17.7957

>  <r_i_glide_ecoul>  (326) 
-1.45663

>  <r_i_glide_erotb>  (326) 
0.612105

>  <r_i_glide_esite>  (326) 
-0.00663422

>  <r_i_glide_emodel>  (326) 
-22.9004

>  <r_i_glide_energy>  (326) 
-19.2523

>  <r_i_glide_einternal>  (326) 
1.47481

>  <r_i_glide_intrahb_reward>  (326) 
-0

>  <i_i_glide_confnum>  (326) 
6

>  <i_i_glide_posenum>  (326) 
16

>  <r_i_glide_eff_state_penalty>  (326) 
0

>  <ligand_id>  (326) 
99

>  <original_smiles>  (326) 
Cn1cccc1CN1CCC2(CC1)OCCO2

>  <smiles>  (326) 
[H]c1c([H])c(C([H])([H])[N+]2([H])C([H])([H])C([H])([H])C3(OC([H])([H])C([H])([H])O3)C([H])([H])C2([H])[H])n(C([H])([H])[H])c1[H]

$$$$
99:1:0
     RDKit          3D

 37 39  0  0  1  0  0  0  0  0999 V2000
    4.5972   -7.3765    0.6740 C   0  0  0  0  0  0  0  0  0  0  0  0
    3.5098   -6.6380    1.2766 N   0  0  0  0  0  0  0  0  0  0  0  0
    2.3795   -7.2110    1.8252 C   0  0  0  0  0  0  0  0  0  0  0  0
    1.5764   -6.2056    2.2842 C   0  0  0  0  0  0  0  0  0  0  0  0
    2.2350   -4.9761    2.0093 C   0  0  0  0  0  0  0  0  0  0  0  0
    3.4190   -5.2544    1.3850 C   0  0  0  0  0  0  0  0  0  0  0  0
    4.4918   -4.3411    0.8680 C   0  0  0  0  0  0  0  0  0  0  0  0
    4.3560   -4.0676   -0.5595 N   0  0  0  0  0  0  0  0  0  0  0  0
    3.2277   -3.1549   -0.7806 C   0  0  0  0  0  0  0  0  0  0  0  0
    2.9865   -2.9329   -2.2769 C   0  0  0  0  0  0  0  0  0  0  0  0
    4.2599   -2.3703   -2.9424 C   0  0  0  0  0  0  0  0  0  0  0  0
    5.4713   -3.2595   -2.6189 C   0  0  0  0  0  0  0  0  0  0  0  0
    5.5824   -3.4671   -1.0899 C   0  0  0  0  0  0  0  0  0  0  0  0
    4.4979   -1.0771   -2.5006 O   0  0  0  0  0  0  0  0  0  0  0  0
    3.8882   -0.2242   -3.4497 C   0  0  0  0  0  0  0  0  0  0  0  0
    3.3457   -1.1433   -4.5353 C   0  0  0  0  0  0  0  0  0  0  0  0
    4.0812   -2.3278   -4.3174 O   0  0  0  0  0  0  0  0  0  0  0  0
    4.3235   -8.4308    0.5622 H   0  0  0  0  0  0  0  0  0  0  0  0
    5.4897   -7.3063    1.3052 H   0  0  0  0  0  0  0  0  0  0  0  0
    4.8204   -6.9657   -0.3166 H   0  0  0  0  0  0  0  0  0  0  0  0
    2.2438   -8.2819    1.8459 H   0  0  0  0  0  0  0  0  0  0  0  0
    0.6236   -6.3611    2.7709 H   0  0  0  0  0  0  0  0  0  0  0  0
    1.8852   -3.9722    2.2385 H   0  0  0  0  0  0  0  0  0  0  0  0
    4.4786   -3.4037    1.4198 H   0  0  0  0  0  0  0  0  0  0  0  0
    5.4520   -4.8018    1.0729 H   0  0  0  0  0  0  0  0  0  0  0  0
    2.3143   -3.5691   -0.3541 H   0  0  0  0  0  0  0  0  0  0  0  0
    3.4083   -2.1983   -0.2820 H   0  0  0  0  0  0  0  0  0  0  0  0
    2.7172   -3.8553   -2.7740 H   0  0  0  0  0  0  0  0  0  0  0  0
    2.1405   -2.2531   -2.3764 H   0  0  0  0  0  0  0  0  0  0  0  0
    5.3378   -4.2176   -3.1139 H   0  0  0  0  0  0  0  0  0  0  0  0
    6.3809   -2.8125   -3.0230 H   0  0  0  0  0  0  0  0  0  0  0  0
    5.8010   -2.5223   -0.5823 H   0  0  0  0  0  0  0  0  0  0  0  0
    6.4110   -4.1446   -0.8824 H   0  0  0  0  0  0  0  0  0  0  0  0
    3.0766    0.3445   -3.0225 H   0  0  0  0  0  0  0  0  0  0  0  0
    4.6129    0.4720   -3.8460 H   0  0  0  0  0  0  0  0  0  0  0  0
    2.2805   -1.3322   -4.3833 H   0  0  0  0  0  0  0  0  0  0  0  0
    3.4602   -0.7300   -5.5394 H   0  0  0  0  0  0  0  0  0  0  0  0
  1  2  1  0
  1 18  1  0
  1 19  1  0
  1 20  1  0
  2  6  1  0
  2  3  1  0
  3  4  2  0
  3 21  1  0
  4  5  1  0
  4 22  1  0
  5  6  2  0
  5 23  1  0
  6  7  1  0
  7  8  1  0
  7 24  1  0
  7 25  1  0
  8 13  1  0
  8  9  1  0
  9 10  1  0
  9 26  1  0
  9 27  1  0
 10 11  1  0
 10 28  1  0
 10 29  1  0
 11 17  1  0
 11 12  1  0
 11 14  1  0
 12 13  1  0
 12 30  1  0
 12 31  1  0
 13 32  1  0
 13 33  1  0
 14 15  1  0
 15 16  1  0
 15 34  1  0
 15 35  1  0
 16 17  1  0
 16 36  1  0
 16 37  1  0
M  END
>  <i_m_ct_stereo_status>  (327) 
1

>  <s_m_source_file>  (327) 
/var/tmp/pbs.5076255.sched01/tmpjgl1obm9/123zpz496x9.sdf

>  <i_m_source_file_index>  (327) 
15

>  <i_lp_mmshare_version>  (327) 
48012

>  <i_f3d_flags>  (327) 
0

>  <s_epik_input>  (327) 
W0NIM11uMVtjSF1bY0hdW2NIXWMxW0NIMl1OKFtDSDJdW0NIMl0yKVtDSDJdW0NIMl1DMjNPW0NIMl1bQ0gyXU8z

>  <s_epik_cmdline>  (327) 
J2VwaWtfcHl0aG9uJywgJy1waHQnLCAnMi4wJywgJy1waCcsICc3LjAnLCAnLXRuJywgJzgnLCAnLW1hJywgJzIwMCcsICctaW1hZScsICc8aW5maWxlLm1hZT4nLCAnLW9tYWUnLCAnPG91dGZpbGUubWFlPic=

>  <r_epik_Ionization_Penalty>  (327) 
0.510912

>  <r_epik_Ionization_Penalty_Charging>  (327) 
0

>  <r_epik_Ionization_Penalty_Neutral>  (327) 
0.510912

>  <r_epik_State_Penalty>  (327) 
0.518151

>  <r_epik_Charging_Adjusted_Penalty>  (327) 
0.518151

>  <i_epik_Tot_Q>  (327) 
0

>  <i_epik_Tot_abs_Q>  (327) 
0

>  <s_lp_Force_Field>  (327) 
OPLS3e

>  <r_lp_Energy>  (327) 
4.19975

>  <b_lp_Chiralities_Consistent>  (327) 
1

>  <s_lp_Variant>  (327) 
99:0-2

>  <s_i_glide_gridfile>  (327) 
pfpi4k_grid

>  <i_i_glide_lignum>  (327) 
15

>  <i_i_glide_rotatable_bonds>  (327) 
2

>  <r_i_docking_score>  (327) 
-3.83963

>  <r_i_glide_ligand_efficiency>  (327) 
-0.22586

>  <r_i_glide_ligand_efficiency_sa>  (327) 
-0.58075

>  <r_i_glide_ligand_efficiency_ln>  (327) 
-1.00167

>  <r_i_glide_gscore>  (327) 
-3.83963

>  <r_i_glide_lipo>  (327) 
-0.667251

>  <r_i_glide_hbond>  (327) 
-0.32

>  <r_i_glide_metal>  (327) 
-0

>  <r_i_glide_rewards>  (327) 
-2.06943

>  <r_i_glide_evdw>  (327) 
-20.7275

>  <r_i_glide_ecoul>  (327) 
-2.42082

>  <r_i_glide_erotb>  (327) 
0.616558

>  <r_i_glide_esite>  (327) 
0

>  <r_i_glide_emodel>  (327) 
-27.3343

>  <r_i_glide_energy>  (327) 
-23.1484

>  <r_i_glide_einternal>  (327) 
2.49137

>  <r_i_glide_intrahb_reward>  (327) 
-0

>  <i_i_glide_confnum>  (327) 
4

>  <i_i_glide_posenum>  (327) 
26

>  <r_i_glide_eff_state_penalty>  (327) 
0

>  <ligand_id>  (327) 
99

>  <original_smiles>  (327) 
Cn1cccc1CN1CCC2(CC1)OCCO2

>  <smiles>  (327) 
[H]c1c([H])c(C([H])([H])N2C([H])([H])C([H])([H])C3(OC([H])([H])C([H])([H])O3)C([H])([H])C2([H])[H])n(C([H])([H])[H])c1[H]

$$$$
99:1:1
     RDKit          3D

 37 39  0  0  1  0  0  0  0  0999 V2000
    4.7891   -0.7977   -0.1640 C   0  0  0  0  0  0  0  0  0  0  0  0
    4.6991   -1.4876   -1.4402 N   0  0  0  0  0  0  0  0  0  0  0  0
    4.1892   -0.9384   -2.6032 C   0  0  0  0  0  0  0  0  0  0  0  0
    4.2140   -1.8915   -3.5795 C   0  0  0  0  0  0  0  0  0  0  0  0
    4.7816   -3.0655   -3.0042 C   0  0  0  0  0  0  0  0  0  0  0  0
    5.0672   -2.8013   -1.6940 C   0  0  0  0  0  0  0  0  0  0  0  0
    5.6249   -3.7055   -0.6381 C   0  0  0  0  0  0  0  0  0  0  0  0
    4.7398   -4.8197   -0.3182 N   0  0  0  0  0  0  0  0  0  0  0  0
    5.4428   -5.7587    0.5517 C   0  0  0  0  0  0  0  0  0  0  0  0
    4.5764   -6.9974    0.8134 C   0  0  0  0  0  0  0  0  0  0  0  0
    3.2447   -6.5837    1.4767 C   0  0  0  0  0  0  0  0  0  0  0  0
    2.5558   -5.4921    0.6402 C   0  0  0  0  0  0  0  0  0  0  0  0
    3.5331   -4.3366    0.3548 C   0  0  0  0  0  0  0  0  0  0  0  0
    3.4865   -6.1078    2.7569 O   0  0  0  0  0  0  0  0  0  0  0  0
    3.2741   -7.1981    3.6356 C   0  0  0  0  0  0  0  0  0  0  0  0
    2.8210   -8.3556    2.7410 C   0  0  0  0  0  0  0  0  0  0  0  0
    2.3988   -7.6817    1.5747 O   0  0  0  0  0  0  0  0  0  0  0  0
    4.2468    0.1466   -0.2116 H   0  0  0  0  0  0  0  0  0  0  0  0
    5.8384   -0.6108    0.0735 H   0  0  0  0  0  0  0  0  0  0  0  0
    4.3400   -1.4156    0.6175 H   0  0  0  0  0  0  0  0  0  0  0  0
    3.8273    0.0806   -2.6397 H   0  0  0  0  0  0  0  0  0  0  0  0
    3.8442   -1.7372   -4.5813 H   0  0  0  0  0  0  0  0  0  0  0  0
    4.9507   -4.0212   -3.4821 H   0  0  0  0  0  0  0  0  0  0  0  0
    6.5750   -4.0928   -1.0026 H   0  0  0  0  0  0  0  0  0  0  0  0
    5.8585   -3.1491    0.2683 H   0  0  0  0  0  0  0  0  0  0  0  0
    6.3721   -6.0813    0.0821 H   0  0  0  0  0  0  0  0  0  0  0  0
    5.7130   -5.2795    1.4898 H   0  0  0  0  0  0  0  0  0  0  0  0
    4.3547   -7.5207   -0.1152 H   0  0  0  0  0  0  0  0  0  0  0  0
    5.1307   -7.6871    1.4458 H   0  0  0  0  0  0  0  0  0  0  0  0
    2.2156   -5.9170   -0.3049 H   0  0  0  0  0  0  0  0  0  0  0  0
    1.6764   -5.1358    1.1703 H   0  0  0  0  0  0  0  0  0  0  0  0
    3.7967   -3.8263    1.2819 H   0  0  0  0  0  0  0  0  0  0  0  0
    3.0245   -3.6087   -0.2828 H   0  0  0  0  0  0  0  0  0  0  0  0
    4.1925   -7.4267    4.1731 H   0  0  0  0  0  0  0  0  0  0  0  0
    2.5065   -6.9329    4.3626 H   0  0  0  0  0  0  0  0  0  0  0  0
    3.6534   -9.0174    2.4990 H   0  0  0  0  0  0  0  0  0  0  0  0
    2.0357   -8.9639    3.1874 H   0  0  0  0  0  0  0  0  0  0  0  0
  1  2  1  0
  1 18  1  0
  1 19  1  0
  1 20  1  0
  2  6  1  0
  2  3  1  0
  3  4  2  0
  3 21  1  0
  4  5  1  0
  4 22  1  0
  5  6  2  0
  5 23  1  0
  6  7  1  0
  7  8  1  0
  7 24  1  0
  7 25  1  0
  8 13  1  0
  8  9  1  0
  9 10  1  0
  9 26  1  0
  9 27  1  0
 10 11  1  0
 10 28  1  0
 10 29  1  0
 11 17  1  0
 11 12  1  0
 11 14  1  0
 12 13  1  0
 12 30  1  0
 12 31  1  0
 13 32  1  0
 13 33  1  0
 14 15  1  0
 15 16  1  0
 15 34  1  0
 15 35  1  0
 16 17  1  0
 16 36  1  0
 16 37  1  0
M  END
>  <i_m_ct_stereo_status>  (328) 
1

>  <s_m_source_file>  (328) 
/var/tmp/pbs.5076255.sched01/tmpjgl1obm9/123zpz496x9.sdf

>  <i_m_source_file_index>  (328) 
15

>  <i_lp_mmshare_version>  (328) 
48012

>  <i_f3d_flags>  (328) 
0

>  <s_epik_input>  (328) 
W0NIM11uMVtjSF1bY0hdW2NIXWMxW0NIMl1OKFtDSDJdW0NIMl0yKVtDSDJdW0NIMl1DMjNPW0NIMl1bQ0gyXU8z

>  <s_epik_cmdline>  (328) 
J2VwaWtfcHl0aG9uJywgJy1waHQnLCAnMi4wJywgJy1waCcsICc3LjAnLCAnLXRuJywgJzgnLCAnLW1hJywgJzIwMCcsICctaW1hZScsICc8aW5maWxlLm1hZT4nLCAnLW9tYWUnLCAnPG91dGZpbGUubWFlPic=

>  <r_epik_Ionization_Penalty>  (328) 
0.510912

>  <r_epik_Ionization_Penalty_Charging>  (328) 
0

>  <r_epik_Ionization_Penalty_Neutral>  (328) 
0.510912

>  <r_epik_State_Penalty>  (328) 
0.518151

>  <r_epik_Charging_Adjusted_Penalty>  (328) 
0.518151

>  <i_epik_Tot_Q>  (328) 
0

>  <i_epik_Tot_abs_Q>  (328) 
0

>  <s_lp_Force_Field>  (328) 
OPLS3e

>  <r_lp_Energy>  (328) 
4.19975

>  <b_lp_Chiralities_Consistent>  (328) 
1

>  <s_lp_Variant>  (328) 
99:0-2

>  <s_i_glide_gridfile>  (328) 
pfpi4k_grid

>  <i_i_glide_lignum>  (328) 
15

>  <i_i_glide_rotatable_bonds>  (328) 
2

>  <r_i_docking_score>  (328) 
-2.77618

>  <r_i_glide_ligand_efficiency>  (328) 
-0.163305

>  <r_i_glide_ligand_efficiency_sa>  (328) 
-0.419903

>  <r_i_glide_ligand_efficiency_ln>  (328) 
-0.724244

>  <r_i_glide_gscore>  (328) 
-2.77618

>  <r_i_glide_lipo>  (328) 
-0.619373

>  <r_i_glide_hbond>  (328) 
0

>  <r_i_glide_metal>  (328) 
-0

>  <r_i_glide_rewards>  (328) 
-1.87153

>  <r_i_glide_evdw>  (328) 
-21.0643

>  <r_i_glide_ecoul>  (328) 
1.29621

>  <r_i_glide_erotb>  (328) 
0.616558

>  <r_i_glide_esite>  (328) 
-0.0430574

>  <r_i_glide_emodel>  (328) 
-23.7245

>  <r_i_glide_energy>  (328) 
-19.7681

>  <r_i_glide_einternal>  (328) 
0.00287417

>  <r_i_glide_intrahb_reward>  (328) 
-0

>  <i_i_glide_confnum>  (328) 
1

>  <i_i_glide_posenum>  (328) 
5

>  <r_i_glide_eff_state_penalty>  (328) 
0

>  <ligand_id>  (328) 
99

>  <original_smiles>  (328) 
Cn1cccc1CN1CCC2(CC1)OCCO2

>  <smiles>  (328) 
[H]c1c([H])c(C([H])([H])N2C([H])([H])C([H])([H])C3(OC([H])([H])C([H])([H])O3)C([H])([H])C2([H])[H])n(C([H])([H])[H])c1[H]

$$$$
99:1:2
     RDKit          3D

 37 39  0  0  1  0  0  0  0  0999 V2000
    1.1827   -5.6592    4.6022 C   0  0  0  0  0  0  0  0  0  0  0  0
    0.8399   -6.1997    3.3032 N   0  0  0  0  0  0  0  0  0  0  0  0
   -0.2172   -7.0652    3.0754 C   0  0  0  0  0  0  0  0  0  0  0  0
   -0.2240   -7.3889    1.7491 C   0  0  0  0  0  0  0  0  0  0  0  0
    0.8835   -6.7264    1.1484 C   0  0  0  0  0  0  0  0  0  0  0  0
    1.5054   -5.9656    2.0984 C   0  0  0  0  0  0  0  0  0  0  0  0
    2.7202   -5.0498    2.0047 C   0  0  0  0  0  0  0  0  0  0  0  0
    2.6182   -3.9877    1.0003 N   0  0  0  0  0  0  0  0  0  0  0  0
    2.6344   -4.5677   -0.3442 C   0  0  0  0  0  0  0  0  0  0  0  0
    2.4173   -3.4946   -1.4057 C   0  0  0  0  0  0  0  0  0  0  0  0
    3.5528   -2.4642   -1.3297 C   0  0  0  0  0  0  0  0  0  0  0  0
    3.6256   -1.8901    0.0995 C   0  0  0  0  0  0  0  0  0  0  0  0
    3.7386   -3.0446    1.1321 C   0  0  0  0  0  0  0  0  0  0  0  0
    3.3238   -1.4535   -2.2445 O   0  0  0  0  0  0  0  0  0  0  0  0
    4.0083   -1.8199   -3.4302 C   0  0  0  0  0  0  0  0  0  0  0  0
    4.7762   -3.1009   -3.0767 C   0  0  0  0  0  0  0  0  0  0  0  0
    4.7602   -3.0608   -1.6616 O   0  0  0  0  0  0  0  0  0  0  0  0
    0.6091   -6.1706    5.3757 H   0  0  0  0  0  0  0  0  0  0  0  0
    0.9584   -4.5909    4.6355 H   0  0  0  0  0  0  0  0  0  0  0  0
    2.2437   -5.8151    4.8074 H   0  0  0  0  0  0  0  0  0  0  0  0
   -0.8653   -7.3971    3.8853 H   0  0  0  0  0  0  0  0  0  0  0  0
   -0.9292   -8.0500    1.2748 H   0  0  0  0  0  0  0  0  0  0  0  0
    1.1776   -6.8283    0.1225 H   0  0  0  0  0  0  0  0  0  0  0  0
    2.8875   -4.5696    2.9666 H   0  0  0  0  0  0  0  0  0  0  0  0
    3.6169   -5.6450    1.8173 H   0  0  0  0  0  0  0  0  0  0  0  0
    3.5792   -5.0892   -0.4985 H   0  0  0  0  0  0  0  0  0  0  0  0
    1.8138   -5.2386   -0.5078 H   0  0  0  0  0  0  0  0  0  0  0  0
    2.3349   -3.9188   -2.3986 H   0  0  0  0  0  0  0  0  0  0  0  0
    1.4377   -3.0546   -1.2266 H   0  0  0  0  0  0  0  0  0  0  0  0
    4.4644   -1.1851    0.1717 H   0  0  0  0  0  0  0  0  0  0  0  0
    2.7139   -1.3162    0.2957 H   0  0  0  0  0  0  0  0  0  0  0  0
    3.7624   -2.6194    2.1406 H   0  0  0  0  0  0  0  0  0  0  0  0
    4.6847   -3.5642    0.9948 H   0  0  0  0  0  0  0  0  0  0  0  0
    3.3128   -1.9671   -4.2580 H   0  0  0  0  0  0  0  0  0  0  0  0
    4.6849   -1.0049   -3.6833 H   0  0  0  0  0  0  0  0  0  0  0  0
    4.2531   -3.9912   -3.4335 H   0  0  0  0  0  0  0  0  0  0  0  0
    5.7864   -3.1326   -3.4898 H   0  0  0  0  0  0  0  0  0  0  0  0
  1  2  1  0
  1 18  1  0
  1 19  1  0
  1 20  1  0
  2  6  1  0
  2  3  1  0
  3  4  2  0
  3 21  1  0
  4  5  1  0
  4 22  1  0
  5  6  2  0
  5 23  1  0
  6  7  1  0
  7  8  1  0
  7 24  1  0
  7 25  1  0
  8 13  1  0
  8  9  1  0
  9 10  1  0
  9 26  1  0
  9 27  1  0
 10 11  1  0
 10 28  1  0
 10 29  1  0
 11 17  1  0
 11 12  1  0
 11 14  1  0
 12 13  1  0
 12 30  1  0
 12 31  1  0
 13 32  1  0
 13 33  1  0
 14 15  1  0
 15 16  1  0
 15 34  1  0
 15 35  1  0
 16 17  1  0
 16 36  1  0
 16 37  1  0
M  END
>  <i_m_ct_stereo_status>  (329) 
1

>  <s_m_source_file>  (329) 
/var/tmp/pbs.5076255.sched01/tmpjgl1obm9/123zpz496x9.sdf

>  <i_m_source_file_index>  (329) 
15

>  <i_lp_mmshare_version>  (329) 
48012

>  <i_f3d_flags>  (329) 
0

>  <s_epik_input>  (329) 
W0NIM11uMVtjSF1bY0hdW2NIXWMxW0NIMl1OKFtDSDJdW0NIMl0yKVtDSDJdW0NIMl1DMjNPW0NIMl1bQ0gyXU8z

>  <s_epik_cmdline>  (329) 
J2VwaWtfcHl0aG9uJywgJy1waHQnLCAnMi4wJywgJy1waCcsICc3LjAnLCAnLXRuJywgJzgnLCAnLW1hJywgJzIwMCcsICctaW1hZScsICc8aW5maWxlLm1hZT4nLCAnLW9tYWUnLCAnPG91dGZpbGUubWFlPic=

>  <r_epik_Ionization_Penalty>  (329) 
0.510912

>  <r_epik_Ionization_Penalty_Charging>  (329) 
0

>  <r_epik_Ionization_Penalty_Neutral>  (329) 
0.510912

>  <r_epik_State_Penalty>  (329) 
0.518151

>  <r_epik_Charging_Adjusted_Penalty>  (329) 
0.518151

>  <i_epik_Tot_Q>  (329) 
0

>  <i_epik_Tot_abs_Q>  (329) 
0

>  <s_lp_Force_Field>  (329) 
OPLS3e

>  <r_lp_Energy>  (329) 
4.19975

>  <b_lp_Chiralities_Consistent>  (329) 
1

>  <s_lp_Variant>  (329) 
99:0-2

>  <s_i_glide_gridfile>  (329) 
pfpi4k_grid

>  <i_i_glide_lignum>  (329) 
15

>  <i_i_glide_rotatable_bonds>  (329) 
2

>  <r_i_docking_score>  (329) 
-2.69834

>  <r_i_glide_ligand_efficiency>  (329) 
-0.158726

>  <r_i_glide_ligand_efficiency_sa>  (329) 
-0.408129

>  <r_i_glide_ligand_efficiency_ln>  (329) 
-0.703936

>  <r_i_glide_gscore>  (329) 
-2.69834

>  <r_i_glide_lipo>  (329) 
-0.393931

>  <r_i_glide_hbond>  (329) 
0

>  <r_i_glide_metal>  (329) 
-0

>  <r_i_glide_rewards>  (329) 
-1.79789

>  <r_i_glide_evdw>  (329) 
-19.5673

>  <r_i_glide_ecoul>  (329) 
-0.427706

>  <r_i_glide_erotb>  (329) 
0.616558

>  <r_i_glide_esite>  (329) 
-0.0805572

>  <r_i_glide_emodel>  (329) 
-23.067

>  <r_i_glide_energy>  (329) 
-19.995

>  <r_i_glide_einternal>  (329) 
0.0464289

>  <r_i_glide_intrahb_reward>  (329) 
-0

>  <i_i_glide_confnum>  (329) 
5

>  <i_i_glide_posenum>  (329) 
29

>  <r_i_glide_eff_state_penalty>  (329) 
0

>  <ligand_id>  (329) 
99

>  <original_smiles>  (329) 
Cn1cccc1CN1CCC2(CC1)OCCO2

>  <smiles>  (329) 
[H]c1c([H])c(C([H])([H])N2C([H])([H])C([H])([H])C3(OC([H])([H])C([H])([H])O3)C([H])([H])C2([H])[H])n(C([H])([H])[H])c1[H]

$$$$
100:0:0
     RDKit          3D

 52 58  0  0  1  0  0  0  0  0999 V2000
    2.3548    0.1156    1.8993 C   0  0  0  0  0  0  0  0  0  0  0  0
    3.5585   -0.6021    2.1437 O   0  0  0  0  0  0  0  0  0  0  0  0
    3.9848   -1.4071    1.0524 C   0  0  2  0  0  0  0  0  0  0  0  0
    2.9423   -2.6376    0.7316 C   0  0  0  0  0  0  0  0  0  0  0  0
    3.4332   -4.1018    0.2379 C   0  0  1  0  0  0  0  0  0  0  0  0
    2.3100   -4.7983   -0.3088 O   0  0  0  0  0  0  0  0  0  0  0  0
    4.2037   -3.8264   -1.0535 C   0  0  1  0  0  0  0  0  0  0  0  0
    3.9675   -2.5883   -1.9394 C   0  0  0  0  0  0  0  0  0  0  0  0
    2.9597   -2.4549   -2.9535 C   0  0  0  0  0  0  0  0  0  0  0  0
    3.0967   -1.2057   -3.4881 C   0  0  0  0  0  0  0  0  0  0  0  0
    4.1386   -0.5570   -2.9192 O   0  0  0  0  0  0  0  0  0  0  0  0
    4.6684   -1.4113   -2.0111 C   0  0  0  0  0  0  0  0  0  0  0  0
    5.4309   -3.8800   -0.2655 C   0  0  2  0  0  0  0  0  0  0  0  0
    5.4880   -5.6082    0.0224 C   0  0  0  0  0  0  0  0  0  0  0  0
    5.1824   -6.0270    1.6378 C   0  0  2  0  0  0  0  0  0  0  0  0
    5.0442   -5.1622    3.2426 C   0  0  2  0  0  0  0  0  0  0  0  0
    4.1982   -5.7726    4.1735 O   0  0  0  0  0  0  0  0  0  0  0  0
    3.1042   -6.1754    3.6677 C   0  0  0  0  0  0  0  0  0  0  0  0
    2.2538   -6.8241    4.2614 O   0  0  0  0  0  0  0  0  0  0  0  0
    2.9533   -5.6770    2.2244 C   0  0  1  0  0  0  0  0  0  0  0  0
    1.7462   -4.9280    2.3125 O   0  0  0  0  0  0  0  0  0  0  0  0
    4.3443   -5.0015    1.4625 C   0  0  2  0  0  0  0  0  0  0  0  0
    6.4715   -4.3471    1.7135 C   0  0  0  0  0  0  0  0  0  0  0  0
    6.6360   -2.7967    1.6720 C   0  0  1  0  0  0  0  0  0  0  0  0
    5.5471   -1.6192    1.1957 C   0  0  2  0  0  0  0  0  0  0  0  0
    5.4105   -2.9692    1.3397 C   0  0  1  0  0  0  0  0  0  0  0  0
    4.8523   -3.4187    3.0351 C   0  0  1  0  0  0  0  0  0  0  0  0
    3.6129   -2.9384    3.5341 O   0  0  0  0  0  0  0  0  0  0  0  0
    2.1534    0.7628    2.7513 H   0  0  0  0  0  0  0  0  0  0  0  0
    1.5093   -0.5609    1.7811 H   0  0  0  0  0  0  0  0  0  0  0  0
    2.4144    0.7474    1.0112 H   0  0  0  0  0  0  0  0  0  0  0  0
    3.8886   -0.7266    0.2110 H   0  0  0  0  0  0  0  0  0  0  0  0
    2.2781   -2.7451    1.5802 H   0  0  0  0  0  0  0  0  0  0  0  0
    2.2388   -2.2658   -0.0088 H   0  0  0  0  0  0  0  0  0  0  0  0
    2.6290   -5.3305   -1.0407 H   0  0  0  0  0  0  0  0  0  0  0  0
    4.2241   -4.6499   -1.7673 H   0  0  0  0  0  0  0  0  0  0  0  0
    2.2060   -3.1764   -3.2473 H   0  0  0  0  0  0  0  0  0  0  0  0
    2.5818   -0.6303   -4.2456 H   0  0  0  0  0  0  0  0  0  0  0  0
    5.5242   -0.9920   -1.5045 H   0  0  0  0  0  0  0  0  0  0  0  0
    6.2760   -3.5824   -0.8913 H   0  0  0  0  0  0  0  0  0  0  0  0
    4.8524   -6.2185   -0.6371 H   0  0  0  0  0  0  0  0  0  0  0  0
    6.4711   -5.9930   -0.2546 H   0  0  0  0  0  0  0  0  0  0  0  0
    4.7891   -7.0451    1.6651 H   0  0  0  0  0  0  0  0  0  0  0  0
    5.9492   -5.3374    3.8303 H   0  0  0  0  0  0  0  0  0  0  0  0
    2.6757   -6.5673    1.6520 H   0  0  0  0  0  0  0  0  0  0  0  0
    1.9315   -4.1507    2.8221 H   0  0  0  0  0  0  0  0  0  0  0  0
    7.1295   -4.6785    2.5241 H   0  0  0  0  0  0  0  0  0  0  0  0
    7.2845   -4.6895    1.0423 H   0  0  0  0  0  0  0  0  0  0  0  0
    7.4936   -2.6007    1.0336 H   0  0  0  0  0  0  0  0  0  0  0  0
    6.0760   -1.0899    0.4081 H   0  0  0  0  0  0  0  0  0  0  0  0
    5.5446   -2.9468    3.7384 H   0  0  0  0  0  0  0  0  0  0  0  0
    3.6261   -1.9939    3.4165 H   0  0  0  0  0  0  0  0  0  0  0  0
  1  2  1  0
  1 29  1  0
  1 30  1  0
  1 31  1  0
  2  3  1  0
  3 25  1  0
  3  4  1  0
  3 32  1  6
  4  5  1  0
  4 33  1  0
  4 34  1  0
  5 22  1  0
  5  6  1  6
  5  7  1  0
  6 35  1  0
  7  8  1  0
  7 13  1  0
  7 36  1  6
  8 12  2  0
  8  9  1  0
  9 10  2  0
  9 37  1  0
 10 11  1  0
 10 38  1  0
 11 12  1  0
 12 39  1  0
 13 26  1  0
 13 14  1  0
 13 40  1  6
 14 15  1  0
 14 41  1  0
 14 42  1  0
 15 22  1  0
 15 16  1  0
 15 43  1  1
 16 27  1  0
 16 17  1  0
 16 44  1  1
 17 18  1  0
 18 19  2  0
 18 20  1  0
 20 21  1  0
 20 22  1  0
 20 45  1  6
 21 46  1  0
 22 23  1  1
 23 24  1  0
 23 47  1  0
 23 48  1  0
 24 26  1  0
 24 25  1  0
 24 49  1  1
 25 26  1  0
 25 50  1  6
 26 27  1  1
 27 28  1  0
 27 51  1  1
 28 52  1  0
M  END
>  <i_m_ct_stereo_status>  (330) 
1

>  <s_m_source_file>  (330) 
/var/tmp/pbs.5076255.sched01/tmpjgl1obm9/123zpz496x9.sdf

>  <i_m_source_file_index>  (330) 
16

>  <i_lp_mmshare_version>  (330) 
48012

>  <i_f3d_flags>  (330) 
0

>  <s_epik_input>  (330) 
W09IXVtDQF0xKFtDQF0yMzQpW0NIMl1bQ0BASF0oT1tDSDNdKVtDQEBIXTVDNihbQ0BASF01W0NIMl00KVtDQEhdKFtDQEBIXTFjN1tjSF1bY0hdb1tjSF03KVtDSDJdW0NASF0yW0NAQEhdKFtDQEBIXTZbT0hdKU9DKD1PKVtDQEhdM1tPSF0=

>  <s_epik_cmdline>  (330) 
J2VwaWtfcHl0aG9uJywgJy1waHQnLCAnMi4wJywgJy1waCcsICc3LjAnLCAnLXRuJywgJzgnLCAnLW1hJywgJzIwMCcsICctaW1hZScsICc8aW5maWxlLm1hZT4nLCAnLW9tYWUnLCAnPG91dGZpbGUubWFlPic=

>  <r_lp_tautomer_probability>  (330) 
1

>  <r_epik_Ionization_Penalty>  (330) 
4.27801e-06

>  <r_epik_Ionization_Penalty_Charging>  (330) 
0

>  <r_epik_Ionization_Penalty_Neutral>  (330) 
4.27801e-06

>  <r_epik_State_Penalty>  (330) 
-0

>  <r_epik_Charging_Adjusted_Penalty>  (330) 
0

>  <i_epik_Tot_Q>  (330) 
0

>  <i_epik_Tot_abs_Q>  (330) 
0

>  <s_epik_Chemistry_Notes>  (330) 
This compound has an ester and may undergo hydrolysis at high or low pH.

>  <s_lp_Force_Field>  (330) 
OPLS3e

>  <r_lp_Energy>  (330) 
917.013

>  <b_lp_Chiralities_Consistent>  (330) 
1

>  <s_lp_Variant>  (330) 
100:0-1

>  <s_i_glide_gridfile>  (330) 
pfpi4k_grid

>  <i_i_glide_lignum>  (330) 
16

>  <i_i_glide_rotatable_bonds>  (330) 
5

>  <r_i_docking_score>  (330) 
-4.27762

>  <r_i_glide_ligand_efficiency>  (330) 
-0.152772

>  <r_i_glide_ligand_efficiency_sa>  (330) 
-0.463906

>  <r_i_glide_ligand_efficiency_ln>  (330) 
-0.9874

>  <r_i_glide_gscore>  (330) 
-4.27762

>  <r_i_glide_lipo>  (330) 
-0.687548

>  <r_i_glide_hbond>  (330) 
0

>  <r_i_glide_metal>  (330) 
-0

>  <r_i_glide_rewards>  (330) 
-1.76083

>  <r_i_glide_evdw>  (330) 
-21.4005

>  <r_i_glide_ecoul>  (330) 
-5.92236

>  <r_i_glide_erotb>  (330) 
0.129148

>  <r_i_glide_esite>  (330) 
-8.57906e-06

>  <r_i_glide_emodel>  (330) 
-43.6535

>  <r_i_glide_energy>  (330) 
-27.3229

>  <r_i_glide_einternal>  (330) 
2.76691

>  <r_i_glide_intrahb_reward>  (330) 
-1

>  <i_i_glide_confnum>  (330) 
3

>  <i_i_glide_posenum>  (330) 
29

>  <r_i_glide_eff_state_penalty>  (330) 
0

>  <ligand_id>  (330) 
100

>  <original_smiles>  (330) 
COC1CC2(O)C(c3ccoc3)C3CC4C5OC(=O)C(O)C42CC2C1C23C5O

>  <smiles>  (330) 
[H]OC1([H])C(=O)OC2([H])C([H])(O[H])C34C5([H])C([H])([H])C2([H])C12C([H])([H])C3([H])C4([H])C([H])(OC([H])([H])[H])C([H])([H])C2(O[H])C5([H])c1c([H])oc([H])c1[H]

$$$$
100:0:1
     RDKit          3D

 52 58  0  0  1  0  0  0  0  0999 V2000
    4.4689   -4.0425    5.8716 C   0  0  0  0  0  0  0  0  0  0  0  0
    3.4507   -4.5671    5.0281 O   0  0  0  0  0  0  0  0  0  0  0  0
    3.9353   -5.3503    3.9430 C   0  0  2  0  0  0  0  0  0  0  0  0
    2.8472   -5.3864    2.7238 C   0  0  0  0  0  0  0  0  0  0  0  0
    2.6509   -6.6843    1.7668 C   0  0  1  0  0  0  0  0  0  0  0  0
    1.9465   -6.2527    0.5975 O   0  0  0  0  0  0  0  0  0  0  0  0
    4.0268   -6.9063    1.1504 C   0  0  1  0  0  0  0  0  0  0  0  0
    5.0677   -5.7886    1.0267 C   0  0  0  0  0  0  0  0  0  0  0  0
    5.0039   -4.6541    0.1575 C   0  0  0  0  0  0  0  0  0  0  0  0
    6.1450   -3.9342    0.3572 C   0  0  0  0  0  0  0  0  0  0  0  0
    6.9400   -4.5409    1.2688 O   0  0  0  0  0  0  0  0  0  0  0  0
    6.2854   -5.6690    1.6459 C   0  0  0  0  0  0  0  0  0  0  0  0
    4.2609   -7.9289    2.1696 C   0  0  2  0  0  0  0  0  0  0  0  0
    3.2213   -9.1821    1.5463 C   0  0  0  0  0  0  0  0  0  0  0  0
    1.8325   -9.4273    2.4872 C   0  0  2  0  0  0  0  0  0  0  0  0
    1.2291   -8.9228    4.1362 C   0  0  2  0  0  0  0  0  0  0  0  0
   -0.1591   -8.8249    4.2583 O   0  0  0  0  0  0  0  0  0  0  0  0
   -0.7149   -8.2592    3.2614 C   0  0  0  0  0  0  0  0  0  0  0  0
   -1.9240   -8.1365    3.0955 O   0  0  0  0  0  0  0  0  0  0  0  0
    0.3312   -7.6430    2.3380 C   0  0  1  0  0  0  0  0  0  0  0  0
   -0.0296   -6.2662    2.3708 O   0  0  0  0  0  0  0  0  0  0  0  0
    1.9772   -8.1032    2.5797 C   0  0  2  0  0  0  0  0  0  0  0  0
    3.4403   -9.2198    3.8653 C   0  0  0  0  0  0  0  0  0  0  0  0
    4.3882   -8.2830    4.6725 C   0  0  1  0  0  0  0  0  0  0  0  0
    4.6667   -6.6468    4.4701 C   0  0  2  0  0  0  0  0  0  0  0  0
    3.7607   -7.4768    3.8851 C   0  0  1  0  0  0  0  0  0  0  0  0
    2.1607   -7.5722    4.7946 C   0  0  1  0  0  0  0  0  0  0  0  0
    1.3180   -6.4393    4.9559 O   0  0  0  0  0  0  0  0  0  0  0  0
    4.0084   -3.5219    6.7099 H   0  0  0  0  0  0  0  0  0  0  0  0
    5.0885   -3.3283    5.3275 H   0  0  0  0  0  0  0  0  0  0  0  0
    5.1159   -4.8176    6.2860 H   0  0  0  0  0  0  0  0  0  0  0  0
    4.7335   -4.7330    3.5342 H   0  0  0  0  0  0  0  0  0  0  0  0
    1.8948   -5.0743    3.1255 H   0  0  0  0  0  0  0  0  0  0  0  0
    3.0622   -4.5263    2.0952 H   0  0  0  0  0  0  0  0  0  0  0  0
    2.5663   -5.8060    0.0362 H   0  0  0  0  0  0  0  0  0  0  0  0
    4.0141   -7.3521    0.1542 H   0  0  0  0  0  0  0  0  0  0  0  0
    4.2185   -4.3887   -0.5352 H   0  0  0  0  0  0  0  0  0  0  0  0
    6.5378   -3.0204   -0.0603 H   0  0  0  0  0  0  0  0  0  0  0  0
    6.8298   -6.2569    2.3697 H   0  0  0  0  0  0  0  0  0  0  0  0
    5.2961   -8.2657    2.1340 H   0  0  0  0  0  0  0  0  0  0  0  0
    2.9325   -9.0622    0.4970 H   0  0  0  0  0  0  0  0  0  0  0  0
    3.7739  -10.1228    1.4676 H   0  0  0  0  0  0  0  0  0  0  0  0
    1.0495   -9.8413    1.8539 H   0  0  0  0  0  0  0  0  0  0  0  0
    1.3081   -9.7731    4.8222 H   0  0  0  0  0  0  0  0  0  0  0  0
    0.0533   -7.9853    1.3377 H   0  0  0  0  0  0  0  0  0  0  0  0
    0.3133   -5.9127    3.1834 H   0  0  0  0  0  0  0  0  0  0  0  0
    3.1608   -9.9958    4.5912 H   0  0  0  0  0  0  0  0  0  0  0  0
    4.1368   -9.9701    3.4537 H   0  0  0  0  0  0  0  0  0  0  0  0
    5.3848   -8.7034    4.5897 H   0  0  0  0  0  0  0  0  0  0  0  0
    5.7162   -6.5861    4.2130 H   0  0  0  0  0  0  0  0  0  0  0  0
    2.3879   -7.8320    5.8303 H   0  0  0  0  0  0  0  0  0  0  0  0
    0.7027   -6.6513    5.6387 H   0  0  0  0  0  0  0  0  0  0  0  0
  1  2  1  0
  1 29  1  0
  1 30  1  0
  1 31  1  0
  2  3  1  0
  3 25  1  0
  3  4  1  0
  3 32  1  6
  4  5  1  0
  4 33  1  0
  4 34  1  0
  5 22  1  0
  5  6  1  6
  5  7  1  0
  6 35  1  0
  7  8  1  0
  7 13  1  0
  7 36  1  6
  8 12  2  0
  8  9  1  0
  9 10  2  0
  9 37  1  0
 10 11  1  0
 10 38  1  0
 11 12  1  0
 12 39  1  0
 13 26  1  0
 13 14  1  0
 13 40  1  1
 14 15  1  0
 14 41  1  0
 14 42  1  0
 15 22  1  0
 15 16  1  0
 15 43  1  6
 16 27  1  0
 16 17  1  0
 16 44  1  1
 17 18  1  0
 18 19  2  0
 18 20  1  0
 20 21  1  0
 20 22  1  0
 20 45  1  6
 21 46  1  0
 22 23  1  1
 23 24  1  0
 23 47  1  0
 23 48  1  0
 24 26  1  0
 24 25  1  0
 24 49  1  1
 25 26  1  0
 25 50  1  6
 26 27  1  6
 27 28  1  0
 27 51  1  1
 28 52  1  0
M  END
>  <i_m_ct_stereo_status>  (331) 
1

>  <s_m_source_file>  (331) 
/var/tmp/pbs.5076255.sched01/tmpjgl1obm9/123zpz496x9.sdf

>  <i_m_source_file_index>  (331) 
16

>  <i_lp_mmshare_version>  (331) 
48012

>  <i_f3d_flags>  (331) 
0

>  <s_epik_input>  (331) 
W09IXVtDQF0xKFtDQF0yMzQpW0NIMl1bQ0BASF0oT1tDSDNdKVtDQEBIXTVDNihbQ0BASF01W0NIMl00KVtDQEhdKFtDQEBIXTFjN1tjSF1bY0hdb1tjSF03KVtDSDJdW0NASF0yW0NAQEhdKFtDQEBIXTZbT0hdKU9DKD1PKVtDQEhdM1tPSF0=

>  <s_epik_cmdline>  (331) 
J2VwaWtfcHl0aG9uJywgJy1waHQnLCAnMi4wJywgJy1waCcsICc3LjAnLCAnLXRuJywgJzgnLCAnLW1hJywgJzIwMCcsICctaW1hZScsICc8aW5maWxlLm1hZT4nLCAnLW9tYWUnLCAnPG91dGZpbGUubWFlPic=

>  <r_lp_tautomer_probability>  (331) 
1

>  <r_epik_Ionization_Penalty>  (331) 
4.27801e-06

>  <r_epik_Ionization_Penalty_Charging>  (331) 
0

>  <r_epik_Ionization_Penalty_Neutral>  (331) 
4.27801e-06

>  <r_epik_State_Penalty>  (331) 
-0

>  <r_epik_Charging_Adjusted_Penalty>  (331) 
0

>  <i_epik_Tot_Q>  (331) 
0

>  <i_epik_Tot_abs_Q>  (331) 
0

>  <s_epik_Chemistry_Notes>  (331) 
This compound has an ester and may undergo hydrolysis at high or low pH.

>  <s_lp_Force_Field>  (331) 
OPLS3e

>  <r_lp_Energy>  (331) 
917.013

>  <b_lp_Chiralities_Consistent>  (331) 
1

>  <s_lp_Variant>  (331) 
100:0-1

>  <s_i_glide_gridfile>  (331) 
pfpi4k_grid

>  <i_i_glide_lignum>  (331) 
16

>  <i_i_glide_rotatable_bonds>  (331) 
5

>  <r_i_docking_score>  (331) 
-3.78324

>  <r_i_glide_ligand_efficiency>  (331) 
-0.135116

>  <r_i_glide_ligand_efficiency_sa>  (331) 
-0.410291

>  <r_i_glide_ligand_efficiency_ln>  (331) 
-0.873282

>  <r_i_glide_gscore>  (331) 
-3.78324

>  <r_i_glide_lipo>  (331) 
-0.457232

>  <r_i_glide_hbond>  (331) 
0

>  <r_i_glide_metal>  (331) 
-0

>  <r_i_glide_rewards>  (331) 
-1.26083

>  <r_i_glide_evdw>  (331) 
-19.9996

>  <r_i_glide_ecoul>  (331) 
-7.60655

>  <r_i_glide_erotb>  (331) 
0.129148

>  <r_i_glide_esite>  (331) 
-0.0533592

>  <r_i_glide_emodel>  (331) 
-38.5261

>  <r_i_glide_energy>  (331) 
-27.6061

>  <r_i_glide_einternal>  (331) 
2.79141

>  <r_i_glide_intrahb_reward>  (331) 
-0.5

>  <i_i_glide_confnum>  (331) 
3

>  <i_i_glide_posenum>  (331) 
9

>  <r_i_glide_eff_state_penalty>  (331) 
0

>  <ligand_id>  (331) 
100

>  <original_smiles>  (331) 
COC1CC2(O)C(c3ccoc3)C3CC4C5OC(=O)C(O)C42CC2C1C23C5O

>  <smiles>  (331) 
[H]OC1([H])C(=O)OC2([H])C([H])(O[H])C34C5([H])C([H])([H])C2([H])C12C([H])([H])C3([H])C4([H])C([H])(OC([H])([H])[H])C([H])([H])C2(O[H])C5([H])c1c([H])oc([H])c1[H]

$$$$
100:0:2
     RDKit          3D

 52 58  0  0  1  0  0  0  0  0999 V2000
    1.9910   -2.2004    4.2445 C   0  0  0  0  0  0  0  0  0  0  0  0
    2.8406   -3.3249    4.4217 O   0  0  0  0  0  0  0  0  0  0  0  0
    3.5298   -3.7529    3.2513 C   0  0  2  0  0  0  0  0  0  0  0  0
    2.5245   -4.2357    2.0540 C   0  0  0  0  0  0  0  0  0  0  0  0
    2.8908   -5.4544    1.0454 C   0  0  1  0  0  0  0  0  0  0  0  0
    2.0252   -5.3659   -0.0863 O   0  0  0  0  0  0  0  0  0  0  0  0
    4.2003   -5.0188    0.4006 C   0  0  1  0  0  0  0  0  0  0  0  0
    4.6367   -3.5512    0.3157 C   0  0  0  0  0  0  0  0  0  0  0  0
    3.9644   -2.4938   -0.3763 C   0  0  0  0  0  0  0  0  0  0  0  0
    4.7167   -1.3668   -0.2185 C   0  0  0  0  0  0  0  0  0  0  0  0
    5.8348   -1.6368    0.4986 O   0  0  0  0  0  0  0  0  0  0  0  0
    5.7727   -2.9606    0.8072 C   0  0  0  0  0  0  0  0  0  0  0  0
    4.8959   -5.8690    1.3676 C   0  0  2  0  0  0  0  0  0  0  0  0
    4.4970   -7.4327    0.7067 C   0  0  0  0  0  0  0  0  0  0  0  0
    3.3810   -8.2921    1.6539 C   0  0  2  0  0  0  0  0  0  0  0  0
    2.6804   -8.1591    3.3364 C   0  0  2  0  0  0  0  0  0  0  0  0
    1.4013   -8.6913    3.4938 O   0  0  0  0  0  0  0  0  0  0  0  0
    0.6049   -8.3817    2.5501 C   0  0  0  0  0  0  0  0  0  0  0  0
   -0.5499   -8.7875    2.4420 O   0  0  0  0  0  0  0  0  0  0  0  0
    1.2357   -7.3406    1.6281 C   0  0  1  0  0  0  0  0  0  0  0  0
    0.3110   -6.2579    1.7401 O   0  0  0  0  0  0  0  0  0  0  0  0
    2.9348   -7.0459    1.8105 C   0  0  2  0  0  0  0  0  0  0  0  0
    4.7844   -7.4409    3.0180 C   0  0  0  0  0  0  0  0  0  0  0  0
    5.2524   -6.2058    3.8478 C   0  0  1  0  0  0  0  0  0  0  0  0
    4.7749   -4.6054    3.7101 C   0  0  2  0  0  0  0  0  0  0  0  0
    4.3066   -5.7375    3.1082 C   0  0  1  0  0  0  0  0  0  0  0  0
    2.9429   -6.5559    4.0413 C   0  0  1  0  0  0  0  0  0  0  0  0
    1.6960   -5.9166    4.2722 O   0  0  0  0  0  0  0  0  0  0  0  0
    1.5439   -1.9417    5.2036 H   0  0  0  0  0  0  0  0  0  0  0  0
    1.1764   -2.4022    3.5486 H   0  0  0  0  0  0  0  0  0  0  0  0
    2.5491   -1.3337    3.8891 H   0  0  0  0  0  0  0  0  0  0  0  0
    3.9856   -2.8370    2.8752 H   0  0  0  0  0  0  0  0  0  0  0  0
    1.5510   -4.3972    2.4854 H   0  0  0  0  0  0  0  0  0  0  0  0
    2.3029   -3.3532    1.4614 H   0  0  0  0  0  0  0  0  0  0  0  0
    2.5101   -5.6258   -0.8648 H   0  0  0  0  0  0  0  0  0  0  0  0
    4.3501   -5.3843   -0.6184 H   0  0  0  0  0  0  0  0  0  0  0  0
    3.0288   -2.5458   -0.9154 H   0  0  0  0  0  0  0  0  0  0  0  0
    4.6061   -0.3429   -0.5454 H   0  0  0  0  0  0  0  0  0  0  0  0
    6.6185   -3.3140    1.3817 H   0  0  0  0  0  0  0  0  0  0  0  0
    5.9727   -5.7133    1.2989 H   0  0  0  0  0  0  0  0  0  0  0  0
    4.1797   -7.4009   -0.3369 H   0  0  0  0  0  0  0  0  0  0  0  0
    5.3988   -8.0364    0.5788 H   0  0  0  0  0  0  0  0  0  0  0  0
    2.8284   -8.9828    1.0162 H   0  0  0  0  0  0  0  0  0  0  0  0
    3.1446   -8.9077    3.9806 H   0  0  0  0  0  0  0  0  0  0  0  0
    1.0871   -7.7315    0.6213 H   0  0  0  0  0  0  0  0  0  0  0  0
    0.4699   -5.8664    2.5899 H   0  0  0  0  0  0  0  0  0  0  0  0
    4.8995   -8.2845    3.7133 H   0  0  0  0  0  0  0  0  0  0  0  0
    5.7239   -7.7955    2.5643 H   0  0  0  0  0  0  0  0  0  0  0  0
    6.3280   -6.1414    3.7278 H   0  0  0  0  0  0  0  0  0  0  0  0
    5.6748   -4.0760    3.4164 H   0  0  0  0  0  0  0  0  0  0  0  0
    3.2990   -6.7256    5.0597 H   0  0  0  0  0  0  0  0  0  0  0  0
    1.2473   -6.4196    4.9356 H   0  0  0  0  0  0  0  0  0  0  0  0
  1  2  1  0
  1 29  1  0
  1 30  1  0
  1 31  1  0
  2  3  1  0
  3 25  1  0
  3  4  1  0
  3 32  1  6
  4  5  1  0
  4 33  1  0
  4 34  1  0
  5 22  1  0
  5  6  1  6
  5  7  1  0
  6 35  1  0
  7  8  1  0
  7 13  1  0
  7 36  1  6
  8 12  2  0
  8  9  1  0
  9 10  2  0
  9 37  1  0
 10 11  1  0
 10 38  1  0
 11 12  1  0
 12 39  1  0
 13 26  1  0
 13 14  1  0
 13 40  1  1
 14 15  1  0
 14 41  1  0
 14 42  1  0
 15 22  1  0
 15 16  1  0
 15 43  1  6
 16 27  1  0
 16 17  1  0
 16 44  1  1
 17 18  1  0
 18 19  2  0
 18 20  1  0
 20 21  1  0
 20 22  1  0
 20 45  1  6
 21 46  1  0
 22 23  1  1
 23 24  1  0
 23 47  1  0
 23 48  1  0
 24 26  1  0
 24 25  1  0
 24 49  1  1
 25 26  1  0
 25 50  1  6
 26 27  1  6
 27 28  1  0
 27 51  1  1
 28 52  1  0
M  END
>  <i_m_ct_stereo_status>  (332) 
1

>  <s_m_source_file>  (332) 
/var/tmp/pbs.5076255.sched01/tmpjgl1obm9/123zpz496x9.sdf

>  <i_m_source_file_index>  (332) 
16

>  <i_lp_mmshare_version>  (332) 
48012

>  <i_f3d_flags>  (332) 
0

>  <s_epik_input>  (332) 
W09IXVtDQF0xKFtDQF0yMzQpW0NIMl1bQ0BASF0oT1tDSDNdKVtDQEBIXTVDNihbQ0BASF01W0NIMl00KVtDQEhdKFtDQEBIXTFjN1tjSF1bY0hdb1tjSF03KVtDSDJdW0NASF0yW0NAQEhdKFtDQEBIXTZbT0hdKU9DKD1PKVtDQEhdM1tPSF0=

>  <s_epik_cmdline>  (332) 
J2VwaWtfcHl0aG9uJywgJy1waHQnLCAnMi4wJywgJy1waCcsICc3LjAnLCAnLXRuJywgJzgnLCAnLW1hJywgJzIwMCcsICctaW1hZScsICc8aW5maWxlLm1hZT4nLCAnLW9tYWUnLCAnPG91dGZpbGUubWFlPic=

>  <r_lp_tautomer_probability>  (332) 
1

>  <r_epik_Ionization_Penalty>  (332) 
4.27801e-06

>  <r_epik_Ionization_Penalty_Charging>  (332) 
0

>  <r_epik_Ionization_Penalty_Neutral>  (332) 
4.27801e-06

>  <r_epik_State_Penalty>  (332) 
-0

>  <r_epik_Charging_Adjusted_Penalty>  (332) 
0

>  <i_epik_Tot_Q>  (332) 
0

>  <i_epik_Tot_abs_Q>  (332) 
0

>  <s_epik_Chemistry_Notes>  (332) 
This compound has an ester and may undergo hydrolysis at high or low pH.

>  <s_lp_Force_Field>  (332) 
OPLS3e

>  <r_lp_Energy>  (332) 
917.013

>  <b_lp_Chiralities_Consistent>  (332) 
1

>  <s_lp_Variant>  (332) 
100:0-1

>  <s_i_glide_gridfile>  (332) 
pfpi4k_grid

>  <i_i_glide_lignum>  (332) 
16

>  <i_i_glide_rotatable_bonds>  (332) 
5

>  <r_i_docking_score>  (332) 
-3.76945

>  <r_i_glide_ligand_efficiency>  (332) 
-0.134623

>  <r_i_glide_ligand_efficiency_sa>  (332) 
-0.408796

>  <r_i_glide_ligand_efficiency_ln>  (332) 
-0.8701

>  <r_i_glide_gscore>  (332) 
-3.76945

>  <r_i_glide_lipo>  (332) 
-0.331038

>  <r_i_glide_hbond>  (332) 
0

>  <r_i_glide_metal>  (332) 
-0

>  <r_i_glide_rewards>  (332) 
-1.26083

>  <r_i_glide_evdw>  (332) 
-20.5461

>  <r_i_glide_ecoul>  (332) 
-8.31519

>  <r_i_glide_erotb>  (332) 
0.129148

>  <r_i_glide_esite>  (332) 
-0.0321464

>  <r_i_glide_emodel>  (332) 
-40.1187

>  <r_i_glide_energy>  (332) 
-28.8613

>  <r_i_glide_einternal>  (332) 
2.30651

>  <r_i_glide_intrahb_reward>  (332) 
-0.5

>  <i_i_glide_confnum>  (332) 
2

>  <i_i_glide_posenum>  (332) 
30

>  <r_i_glide_eff_state_penalty>  (332) 
0

>  <ligand_id>  (332) 
100

>  <original_smiles>  (332) 
COC1CC2(O)C(c3ccoc3)C3CC4C5OC(=O)C(O)C42CC2C1C23C5O

>  <smiles>  (332) 
[H]OC1([H])C(=O)OC2([H])C([H])(O[H])C34C5([H])C([H])([H])C2([H])C12C([H])([H])C3([H])C4([H])C([H])(OC([H])([H])[H])C([H])([H])C2(O[H])C5([H])c1c([H])oc([H])c1[H]

$$$$
101:0:0
     RDKit          3D

 40 44  0  0  1  0  0  0  0  0999 V2000
    4.4221   -0.9231   -1.5721 C   0  0  0  0  0  0  0  0  0  0  0  0
    4.6030   -2.4303   -1.2907 C   0  0  0  0  0  0  0  0  0  0  0  0
    4.4863   -3.1734   -2.6538 C   0  0  0  0  0  0  0  0  0  0  0  0
    6.0826   -2.6508   -0.8226 C   0  0  0  0  0  0  0  0  0  0  0  0
    7.0156   -2.2536   -1.5212 O   0  0  0  0  0  0  0  0  0  0  0  0
    6.3356   -3.3100    0.4555 C   0  0  0  0  0  0  0  0  0  0  0  0
    5.9568   -2.5374    1.4868 C   0  0  0  0  0  0  0  0  0  0  0  0
    4.6662   -2.6861    2.2758 C   0  0  2  0  0  0  0  0  0  0  0  0
    4.2599   -3.7705    3.0676 C   0  0  1  0  0  0  0  0  0  0  0  0
    2.8936   -2.9260    3.3699 C   0  0  0  0  0  0  0  0  0  0  0  0
    2.3405   -2.3131    1.9097 C   0  0  1  0  0  0  0  0  0  0  0  0
    3.0248   -1.8735    0.6619 O   0  0  0  0  0  0  0  0  0  0  0  0
    3.3842   -2.8906   -0.3237 C   0  0  1  0  0  0  0  0  0  0  0  0
    2.2301   -3.0570   -1.1437 O   0  0  0  0  0  0  0  0  0  0  0  0
    3.5526   -4.2540    0.4796 C   0  0  1  0  0  0  0  0  0  0  0  0
    2.5875   -5.2513    0.0918 O   0  0  0  0  0  0  0  0  0  0  0  0
    4.2951   -4.8119    1.8375 C   0  0  1  0  0  0  0  0  0  0  0  0
    5.6405   -5.4871    1.5766 C   0  0  0  0  0  0  0  0  0  0  0  0
    6.3449   -4.8256    0.3997 C   0  0  0  0  0  0  0  0  0  0  0  0
    3.3587   -3.1925    1.4851 C   0  0  1  0  0  0  0  0  0  0  0  0
    3.4228   -0.7018   -1.9536 H   0  0  0  0  0  0  0  0  0  0  0  0
    5.1343   -0.5541   -2.3111 H   0  0  0  0  0  0  0  0  0  0  0  0
    4.5607   -0.3279   -0.6667 H   0  0  0  0  0  0  0  0  0  0  0  0
    3.5844   -2.8933   -3.2036 H   0  0  0  0  0  0  0  0  0  0  0  0
    4.4718   -4.2559   -2.5182 H   0  0  0  0  0  0  0  0  0  0  0  0
    5.3162   -2.9388   -3.3214 H   0  0  0  0  0  0  0  0  0  0  0  0
    6.0332   -1.4749    1.2977 H   0  0  0  0  0  0  0  0  0  0  0  0
    4.6202   -1.7103    2.7821 H   0  0  0  0  0  0  0  0  0  0  0  0
    4.8935   -3.9889    3.9289 H   0  0  0  0  0  0  0  0  0  0  0  0
    2.1458   -3.5800    3.8233 H   0  0  0  0  0  0  0  0  0  0  0  0
    3.0525   -2.1444    4.1186 H   0  0  0  0  0  0  0  0  0  0  0  0
    2.4270   -1.2730    2.2276 H   0  0  0  0  0  0  0  0  0  0  0  0
    1.7596   -2.2078   -1.1189 H   0  0  0  0  0  0  0  0  0  0  0  0
    2.7697   -5.4672   -0.8154 H   0  0  0  0  0  0  0  0  0  0  0  0
    3.6822   -5.6268    2.2225 H   0  0  0  0  0  0  0  0  0  0  0  0
    6.2627   -5.4579    2.4753 H   0  0  0  0  0  0  0  0  0  0  0  0
    5.4807   -6.5408    1.3383 H   0  0  0  0  0  0  0  0  0  0  0  0
    5.8616   -5.1660   -0.5190 H   0  0  0  0  0  0  0  0  0  0  0  0
    7.3795   -5.1671    0.3544 H   0  0  0  0  0  0  0  0  0  0  0  0
    2.4473   -3.8475    1.6703 H   0  0  0  0  0  0  0  0  0  0  0  0
  1  2  1  0
  1 21  1  0
  1 22  1  0
  1 23  1  0
  2 13  1  0
  2  3  1  0
  2  4  1  0
  3 24  1  0
  3 25  1  0
  3 26  1  0
  4  5  2  0
  4  6  1  0
  6 19  1  0
  6  7  2  0
  7  8  1  0
  7 27  1  0
  8 20  1  0
  8  9  1  0
  8 28  1  1
  9 17  1  0
  9 10  1  0
  9 29  1  1
 10 11  1  0
 10 30  1  0
 10 31  1  0
 11 20  1  0
 11 12  1  0
 11 32  1  6
 12 13  1  0
 13 14  1  6
 13 15  1  0
 14 33  1  0
 15 16  1  1
 15 17  1  0
 15 20  1  0
 16 34  1  0
 17 18  1  0
 17 35  1  1
 18 19  1  0
 18 36  1  0
 18 37  1  0
 19 38  1  0
 19 39  1  0
 20 40  1  1
M  END
>  <i_m_ct_stereo_status>  (333) 
1

>  <s_m_source_file>  (333) 
/var/tmp/pbs.5076255.sched01/tmpjgl1obm9/123zpz496x9.sdf

>  <i_m_source_file_index>  (333) 
17

>  <i_lp_mmshare_version>  (333) 
48012

>  <i_f3d_flags>  (333) 
0

>  <s_epik_input>  (333) 
W0NIM11DMShbQ0gzXSlDKD1PKUMoW0NIMl1bQ0gyXTIpPVtDSF1bQ0BASF0oW0NASF0zW0NASF0oTzQpW0NIMl01KVtDQEBIXTVbQ0BIXTJbQ0BdMyhbT0hdKVtDQF0xNFtPSF0=

>  <s_epik_cmdline>  (333) 
J2VwaWtfcHl0aG9uJywgJy1waHQnLCAnMi4wJywgJy1waCcsICc3LjAnLCAnLXRuJywgJzgnLCAnLW1hJywgJzIwMCcsICctaW1hZScsICc8aW5maWxlLm1hZT4nLCAnLW9tYWUnLCAnPG91dGZpbGUubWFlPic=

>  <r_lp_tautomer_probability>  (333) 
1

>  <r_epik_Ionization_Penalty>  (333) 
4.01623e-06

>  <r_epik_Ionization_Penalty_Charging>  (333) 
0

>  <r_epik_Ionization_Penalty_Neutral>  (333) 
4.01623e-06

>  <r_epik_State_Penalty>  (333) 
-0

>  <r_epik_Charging_Adjusted_Penalty>  (333) 
0

>  <i_epik_Tot_Q>  (333) 
0

>  <i_epik_Tot_abs_Q>  (333) 
0

>  <s_lp_Force_Field>  (333) 
OPLS3e

>  <r_lp_Energy>  (333) 
372.272

>  <b_lp_Chiralities_Consistent>  (333) 
1

>  <s_lp_Variant>  (333) 
101:0-1

>  <s_i_glide_gridfile>  (333) 
pfpi4k_grid

>  <i_i_glide_lignum>  (333) 
17

>  <i_i_glide_rotatable_bonds>  (333) 
2

>  <r_i_docking_score>  (333) 
-4.62299

>  <r_i_glide_ligand_efficiency>  (333) 
-0.231149

>  <r_i_glide_ligand_efficiency_sa>  (333) 
-0.627436

>  <r_i_glide_ligand_efficiency_ln>  (333) 
-1.15698

>  <r_i_glide_gscore>  (333) 
-4.62299

>  <r_i_glide_lipo>  (333) 
-0.436894

>  <r_i_glide_hbond>  (333) 
-0.152

>  <r_i_glide_metal>  (333) 
-0

>  <r_i_glide_rewards>  (333) 
-1.52504

>  <r_i_glide_evdw>  (333) 
-20.5443

>  <r_i_glide_ecoul>  (333) 
-9.67735

>  <r_i_glide_erotb>  (333) 
0

>  <r_i_glide_esite>  (333) 
-0.0302361

>  <r_i_glide_emodel>  (333) 
-38.6922

>  <r_i_glide_energy>  (333) 
-30.2217

>  <r_i_glide_einternal>  (333) 
1.59185

>  <r_i_glide_intrahb_reward>  (333) 
-0

>  <i_i_glide_confnum>  (333) 
1

>  <i_i_glide_posenum>  (333) 
35

>  <r_i_glide_eff_state_penalty>  (333) 
0

>  <ligand_id>  (333) 
101

>  <original_smiles>  (333) 
CC1(C)C(=O)C2=CC3C4CC5OC1(O)C(O)(C4CC2)C53

>  <smiles>  (333) 
[H]OC12OC3([H])C([H])([H])C4([H])C5([H])C([H])=C(C(=O)C1(C([H])([H])[H])C([H])([H])[H])C([H])([H])C([H])([H])C4([H])C2(O[H])C35[H]

$$$$
101:0:1
     RDKit          3D

 40 44  0  0  1  0  0  0  0  0999 V2000
    4.3089   -1.3867   -1.7472 C   0  0  0  0  0  0  0  0  0  0  0  0
    4.7556   -2.8025   -1.3111 C   0  0  0  0  0  0  0  0  0  0  0  0
    4.8228   -3.6832   -2.5916 C   0  0  0  0  0  0  0  0  0  0  0  0
    6.2381   -2.7036   -0.8079 C   0  0  0  0  0  0  0  0  0  0  0  0
    7.1088   -2.2559   -1.5513 O   0  0  0  0  0  0  0  0  0  0  0  0
    6.5803   -3.1665    0.5338 C   0  0  0  0  0  0  0  0  0  0  0  0
    6.0344   -2.3783    1.4722 C   0  0  0  0  0  0  0  0  0  0  0  0
    4.7728   -2.6880    2.2612 C   0  0  2  0  0  0  0  0  0  0  0  0
    4.5473   -3.7468    3.1583 C   0  0  1  0  0  0  0  0  0  0  0  0
    3.0421   -3.1476    3.3613 C   0  0  0  0  0  0  0  0  0  0  0  0
    2.4291   -2.7970    1.8409 C   0  0  1  0  0  0  0  0  0  0  0  0
    3.0515   -2.3621    0.5566 O   0  0  0  0  0  0  0  0  0  0  0  0
    3.6130   -3.3879   -0.3158 C   0  0  1  0  0  0  0  0  0  0  0  0
    2.5257   -3.8349   -1.1227 O   0  0  0  0  0  0  0  0  0  0  0  0
    4.0144   -4.6133    0.6269 C   0  0  1  0  0  0  0  0  0  0  0  0
    3.2484   -5.8020    0.3662 O   0  0  0  0  0  0  0  0  0  0  0  0
    4.8105   -4.8787    2.0414 C   0  0  1  0  0  0  0  0  0  0  0  0
    6.2679   -5.3162    1.8590 C   0  0  0  0  0  0  0  0  0  0  0  0
    6.8757   -4.6550    0.6285 C   0  0  0  0  0  0  0  0  0  0  0  0
    3.6034   -3.5019    1.5112 C   0  0  1  0  0  0  0  0  0  0  0  0
    3.2981   -1.3947   -2.1593 H   0  0  0  0  0  0  0  0  0  0  0  0
    4.9666   -0.9676   -2.5143 H   0  0  0  0  0  0  0  0  0  0  0  0
    4.3083   -0.6878   -0.9075 H   0  0  0  0  0  0  0  0  0  0  0  0
    3.9087   -3.6355   -3.1847 H   0  0  0  0  0  0  0  0  0  0  0  0
    5.0130   -4.7295   -2.3462 H   0  0  0  0  0  0  0  0  0  0  0  0
    5.6201   -3.3682   -3.2720 H   0  0  0  0  0  0  0  0  0  0  0  0
    5.9142   -1.3456    1.1756 H   0  0  0  0  0  0  0  0  0  0  0  0
    4.5297   -1.6925    2.6593 H   0  0  0  0  0  0  0  0  0  0  0  0
    5.1892   -3.7585    4.0421 H   0  0  0  0  0  0  0  0  0  0  0  0
    2.4155   -3.8852    3.8655 H   0  0  0  0  0  0  0  0  0  0  0  0
    3.0273   -2.2799    4.0236 H   0  0  0  0  0  0  0  0  0  0  0  0
    2.3058   -1.7343    2.0431 H   0  0  0  0  0  0  0  0  0  0  0  0
    2.8446   -4.5008   -1.7170 H   0  0  0  0  0  0  0  0  0  0  0  0
    3.3133   -5.9849   -0.5588 H   0  0  0  0  0  0  0  0  0  0  0  0
    4.3525   -5.7586    2.5001 H   0  0  0  0  0  0  0  0  0  0  0  0
    6.8446   -5.0827    2.7545 H   0  0  0  0  0  0  0  0  0  0  0  0
    6.3138   -6.3982    1.7323 H   0  0  0  0  0  0  0  0  0  0  0  0
    6.4983   -5.1697   -0.2594 H   0  0  0  0  0  0  0  0  0  0  0  0
    7.9579   -4.7961    0.6292 H   0  0  0  0  0  0  0  0  0  0  0  0
    2.8116   -4.2887    1.7582 H   0  0  0  0  0  0  0  0  0  0  0  0
  1  2  1  0
  1 21  1  0
  1 22  1  0
  1 23  1  0
  2 13  1  0
  2  3  1  0
  2  4  1  0
  3 24  1  0
  3 25  1  0
  3 26  1  0
  4  5  2  0
  4  6  1  0
  6 19  1  0
  6  7  2  0
  7  8  1  0
  7 27  1  0
  8 20  1  0
  8  9  1  0
  8 28  1  1
  9 17  1  0
  9 10  1  0
  9 29  1  1
 10 11  1  0
 10 30  1  0
 10 31  1  0
 11 20  1  0
 11 12  1  0
 11 32  1  1
 12 13  1  0
 13 14  1  6
 13 15  1  0
 14 33  1  0
 15 16  1  1
 15 17  1  0
 15 20  1  0
 16 34  1  0
 17 18  1  0
 17 35  1  1
 18 19  1  0
 18 36  1  0
 18 37  1  0
 19 38  1  0
 19 39  1  0
 20 40  1  1
M  END
>  <i_m_ct_stereo_status>  (334) 
1

>  <s_m_source_file>  (334) 
/var/tmp/pbs.5076255.sched01/tmpjgl1obm9/123zpz496x9.sdf

>  <i_m_source_file_index>  (334) 
17

>  <i_lp_mmshare_version>  (334) 
48012

>  <i_f3d_flags>  (334) 
0

>  <s_epik_input>  (334) 
W0NIM11DMShbQ0gzXSlDKD1PKUMoW0NIMl1bQ0gyXTIpPVtDSF1bQ0BASF0oW0NASF0zW0NASF0oTzQpW0NIMl01KVtDQEBIXTVbQ0BIXTJbQ0BdMyhbT0hdKVtDQF0xNFtPSF0=

>  <s_epik_cmdline>  (334) 
J2VwaWtfcHl0aG9uJywgJy1waHQnLCAnMi4wJywgJy1waCcsICc3LjAnLCAnLXRuJywgJzgnLCAnLW1hJywgJzIwMCcsICctaW1hZScsICc8aW5maWxlLm1hZT4nLCAnLW9tYWUnLCAnPG91dGZpbGUubWFlPic=

>  <r_lp_tautomer_probability>  (334) 
1

>  <r_epik_Ionization_Penalty>  (334) 
4.01623e-06

>  <r_epik_Ionization_Penalty_Charging>  (334) 
0

>  <r_epik_Ionization_Penalty_Neutral>  (334) 
4.01623e-06

>  <r_epik_State_Penalty>  (334) 
-0

>  <r_epik_Charging_Adjusted_Penalty>  (334) 
0

>  <i_epik_Tot_Q>  (334) 
0

>  <i_epik_Tot_abs_Q>  (334) 
0

>  <s_lp_Force_Field>  (334) 
OPLS3e

>  <r_lp_Energy>  (334) 
372.272

>  <b_lp_Chiralities_Consistent>  (334) 
1

>  <s_lp_Variant>  (334) 
101:0-1

>  <s_i_glide_gridfile>  (334) 
pfpi4k_grid

>  <i_i_glide_lignum>  (334) 
17

>  <i_i_glide_rotatable_bonds>  (334) 
2

>  <r_i_docking_score>  (334) 
-4.48408

>  <r_i_glide_ligand_efficiency>  (334) 
-0.224204

>  <r_i_glide_ligand_efficiency_sa>  (334) 
-0.608583

>  <r_i_glide_ligand_efficiency_ln>  (334) 
-1.12222

>  <r_i_glide_gscore>  (334) 
-4.48408

>  <r_i_glide_lipo>  (334) 
-0.493828

>  <r_i_glide_hbond>  (334) 
-0.152508

>  <r_i_glide_metal>  (334) 
-0

>  <r_i_glide_rewards>  (334) 
-1.57865

>  <r_i_glide_evdw>  (334) 
-21.7638

>  <r_i_glide_ecoul>  (334) 
-7.74566

>  <r_i_glide_erotb>  (334) 
0

>  <r_i_glide_esite>  (334) 
-0.00905127

>  <r_i_glide_emodel>  (334) 
-37.7805

>  <r_i_glide_energy>  (334) 
-29.5094

>  <r_i_glide_einternal>  (334) 
2.0137

>  <r_i_glide_intrahb_reward>  (334) 
-0

>  <i_i_glide_confnum>  (334) 
1

>  <i_i_glide_posenum>  (334) 
2

>  <r_i_glide_eff_state_penalty>  (334) 
0

>  <ligand_id>  (334) 
101

>  <original_smiles>  (334) 
CC1(C)C(=O)C2=CC3C4CC5OC1(O)C(O)(C4CC2)C53

>  <smiles>  (334) 
[H]OC12OC3([H])C([H])([H])C4([H])C5([H])C([H])=C(C(=O)C1(C([H])([H])[H])C([H])([H])[H])C([H])([H])C([H])([H])C4([H])C2(O[H])C35[H]

$$$$
101:0:2
     RDKit          3D

 40 44  0  0  1  0  0  0  0  0999 V2000
    4.8166   -5.9408    0.0831 C   0  0  0  0  0  0  0  0  0  0  0  0
    4.8542   -4.5901    0.8262 C   0  0  0  0  0  0  0  0  0  0  0  0
    4.5292   -4.8684    2.3260 C   0  0  0  0  0  0  0  0  0  0  0  0
    6.3339   -4.0699    0.8133 C   0  0  0  0  0  0  0  0  0  0  0  0
    7.2346   -4.7726    1.2789 O   0  0  0  0  0  0  0  0  0  0  0  0
    6.6269   -2.7446    0.2719 C   0  0  0  0  0  0  0  0  0  0  0  0
    6.4378   -2.6971   -1.0560 C   0  0  0  0  0  0  0  0  0  0  0  0
    5.2030   -2.1470   -1.7493 C   0  0  2  0  0  0  0  0  0  0  0  0
    4.7306   -0.8237   -1.7451 C   0  0  1  0  0  0  0  0  0  0  0  0
    3.5122   -1.3305   -2.7021 C   0  0  0  0  0  0  0  0  0  0  0  0
    2.9140   -2.7492   -2.0322 C   0  0  1  0  0  0  0  0  0  0  0  0
    3.5363   -3.8547   -1.2448 O   0  0  0  0  0  0  0  0  0  0  0  0
    3.6839   -3.6785    0.1961 C   0  0  1  0  0  0  0  0  0  0  0  0
    2.4733   -4.1281    0.7469 O   0  0  0  0  0  0  0  0  0  0  0  0
    3.7421   -2.1067    0.4469 C   0  0  1  0  0  0  0  0  0  0  0  0
    2.5889   -1.6291    1.1874 O   0  0  0  0  0  0  0  0  0  0  0  0
    4.5347   -0.7943   -0.1365 C   0  0  1  0  0  0  0  0  0  0  0  0
    5.7601   -0.4050    0.6834 C   0  0  0  0  0  0  0  0  0  0  0  0
    6.4407   -1.6152    1.2753 C   0  0  0  0  0  0  0  0  0  0  0  0
    3.7831   -2.3183   -1.0127 C   0  0  1  0  0  0  0  0  0  0  0  0
    3.8205   -6.3860    0.1066 H   0  0  0  0  0  0  0  0  0  0  0  0
    5.5073   -6.6628    0.5228 H   0  0  0  0  0  0  0  0  0  0  0  0
    5.0858   -5.8209   -0.9679 H   0  0  0  0  0  0  0  0  0  0  0  0
    3.6272   -5.4701    2.4496 H   0  0  0  0  0  0  0  0  0  0  0  0
    4.3932   -3.9424    2.8877 H   0  0  0  0  0  0  0  0  0  0  0  0
    5.3195   -5.4413    2.8179 H   0  0  0  0  0  0  0  0  0  0  0  0
    6.6149   -3.6371   -1.5601 H   0  0  0  0  0  0  0  0  0  0  0  0
    5.3148   -2.5880   -2.7487 H   0  0  0  0  0  0  0  0  0  0  0  0
    5.4070   -0.0958   -2.1921 H   0  0  0  0  0  0  0  0  0  0  0  0
    2.7335   -0.5649   -2.7393 H   0  0  0  0  0  0  0  0  0  0  0  0
    3.8217   -1.4569   -3.7379 H   0  0  0  0  0  0  0  0  0  0  0  0
    3.1394   -3.3525   -2.9081 H   0  0  0  0  0  0  0  0  0  0  0  0
    1.9239   -3.3505    0.7750 H   0  0  0  0  0  0  0  0  0  0  0  0
    2.0071   -1.1568    0.5887 H   0  0  0  0  0  0  0  0  0  0  0  0
    3.8824    0.0655    0.0283 H   0  0  0  0  0  0  0  0  0  0  0  0
    6.4665    0.1615    0.0833 H   0  0  0  0  0  0  0  0  0  0  0  0
    5.4480    0.2460    1.4972 H   0  0  0  0  0  0  0  0  0  0  0  0
    5.8667   -1.9494    2.1465 H   0  0  0  0  0  0  0  0  0  0  0  0
    7.4106   -1.3042    1.6405 H   0  0  0  0  0  0  0  0  0  0  0  0
    2.8120   -1.7249   -0.8929 H   0  0  0  0  0  0  0  0  0  0  0  0
  1  2  1  0
  1 21  1  0
  1 22  1  0
  1 23  1  0
  2 13  1  0
  2  3  1  0
  2  4  1  0
  3 24  1  0
  3 25  1  0
  3 26  1  0
  4  5  2  0
  4  6  1  0
  6 19  1  0
  6  7  2  0
  7  8  1  0
  7 27  1  0
  8 20  1  0
  8  9  1  0
  8 28  1  6
  9 17  1  0
  9 10  1  0
  9 29  1  6
 10 11  1  0
 10 30  1  0
 10 31  1  0
 11 20  1  0
 11 12  1  0
 11 32  1  1
 12 13  1  0
 13 14  1  1
 13 15  1  0
 14 33  1  0
 15 16  1  1
 15 17  1  0
 15 20  1  0
 16 34  1  0
 17 18  1  0
 17 35  1  6
 18 19  1  0
 18 36  1  0
 18 37  1  0
 19 38  1  0
 19 39  1  0
 20 40  1  6
M  END
>  <i_m_ct_stereo_status>  (335) 
1

>  <s_m_source_file>  (335) 
/var/tmp/pbs.5076255.sched01/tmpjgl1obm9/123zpz496x9.sdf

>  <i_m_source_file_index>  (335) 
17

>  <i_lp_mmshare_version>  (335) 
48012

>  <i_f3d_flags>  (335) 
0

>  <s_epik_input>  (335) 
W0NIM11DMShbQ0gzXSlDKD1PKUMoW0NIMl1bQ0gyXTIpPVtDSF1bQ0BASF0oW0NASF0zW0NASF0oTzQpW0NIMl01KVtDQEBIXTVbQ0BIXTJbQ0BdMyhbT0hdKVtDQF0xNFtPSF0=

>  <s_epik_cmdline>  (335) 
J2VwaWtfcHl0aG9uJywgJy1waHQnLCAnMi4wJywgJy1waCcsICc3LjAnLCAnLXRuJywgJzgnLCAnLW1hJywgJzIwMCcsICctaW1hZScsICc8aW5maWxlLm1hZT4nLCAnLW9tYWUnLCAnPG91dGZpbGUubWFlPic=

>  <r_lp_tautomer_probability>  (335) 
1

>  <r_epik_Ionization_Penalty>  (335) 
4.01623e-06

>  <r_epik_Ionization_Penalty_Charging>  (335) 
0

>  <r_epik_Ionization_Penalty_Neutral>  (335) 
4.01623e-06

>  <r_epik_State_Penalty>  (335) 
-0

>  <r_epik_Charging_Adjusted_Penalty>  (335) 
0

>  <i_epik_Tot_Q>  (335) 
0

>  <i_epik_Tot_abs_Q>  (335) 
0

>  <s_lp_Force_Field>  (335) 
OPLS3e

>  <r_lp_Energy>  (335) 
372.272

>  <b_lp_Chiralities_Consistent>  (335) 
1

>  <s_lp_Variant>  (335) 
101:0-1

>  <s_i_glide_gridfile>  (335) 
pfpi4k_grid

>  <i_i_glide_lignum>  (335) 
17

>  <i_i_glide_rotatable_bonds>  (335) 
2

>  <r_i_docking_score>  (335) 
-3.64174

>  <r_i_glide_ligand_efficiency>  (335) 
-0.182087

>  <r_i_glide_ligand_efficiency_sa>  (335) 
-0.494261

>  <r_i_glide_ligand_efficiency_ln>  (335) 
-0.911408

>  <r_i_glide_gscore>  (335) 
-3.64174

>  <r_i_glide_lipo>  (335) 
-0.436908

>  <r_i_glide_hbond>  (335) 
0

>  <r_i_glide_metal>  (335) 
-0

>  <r_i_glide_rewards>  (335) 
-1.65549

>  <r_i_glide_evdw>  (335) 
-21.9809

>  <r_i_glide_ecoul>  (335) 
-2.99734

>  <r_i_glide_erotb>  (335) 
0

>  <r_i_glide_esite>  (335) 
-0.000700861

>  <r_i_glide_emodel>  (335) 
-31.8177

>  <r_i_glide_energy>  (335) 
-24.9782

>  <r_i_glide_einternal>  (335) 
0.417211

>  <r_i_glide_intrahb_reward>  (335) 
-0

>  <i_i_glide_confnum>  (335) 
1

>  <i_i_glide_posenum>  (335) 
1

>  <r_i_glide_eff_state_penalty>  (335) 
0

>  <ligand_id>  (335) 
101

>  <original_smiles>  (335) 
CC1(C)C(=O)C2=CC3C4CC5OC1(O)C(O)(C4CC2)C53

>  <smiles>  (335) 
[H]OC12OC3([H])C([H])([H])C4([H])C5([H])C([H])=C(C(=O)C1(C([H])([H])[H])C([H])([H])[H])C([H])([H])C([H])([H])C4([H])C2(O[H])C35[H]

$$$$
102:0:0
     RDKit          3D

 85 90  0  0  1  0  0  0  0  0999 V2000
    1.2283    0.2956    4.8793 C   0  0  0  0  0  0  0  0  0  0  0  0
    2.4697    0.5071    3.9797 C   0  0  0  0  0  0  0  0  0  0  0  0
    2.7180    2.0404    3.9922 C   0  0  0  0  0  0  0  0  0  0  0  0
    3.7444   -0.2435    4.4349 C   0  0  2  0  0  0  0  0  0  0  0  0
    4.6991   -0.1379    3.2308 C   0  0  0  0  0  0  0  0  0  0  0  0
    3.7908    0.0006    1.9897 C   0  0  1  0  0  0  0  0  0  0  0  0
    4.0037   -1.1104    1.1190 O   0  0  0  0  0  0  0  0  0  0  0  0
    5.1417   -1.0453    0.2874 C   0  0  2  0  0  0  0  0  0  0  0  0
    4.8267   -0.7451   -1.0593 O   0  0  0  0  0  0  0  0  0  0  0  0
    3.9483   -1.7010   -1.6831 C   0  0  1  0  0  0  0  0  0  0  0  0
    3.5968   -1.1889   -3.0931 C   0  0  0  0  0  0  0  0  0  0  0  0
    2.8180   -2.1358   -3.8144 O   0  0  0  0  0  0  0  0  0  0  0  0
    4.6492   -3.0856   -1.6930 C   0  0  1  0  0  0  0  0  0  0  0  0
    5.7752   -3.0984   -2.5794 O   0  0  0  0  0  0  0  0  0  0  0  0
    5.0665   -3.4846   -0.2680 C   0  0  1  0  0  0  0  0  0  0  0  0
    5.7378   -4.7459   -0.2582 O   0  0  0  0  0  0  0  0  0  0  0  0
    5.9095   -2.3777    0.3868 C   0  0  1  0  0  0  0  0  0  0  0  0
    7.1644   -2.2376   -0.2645 O   0  0  0  0  0  0  0  0  0  0  0  0
    2.3327    0.0100    2.5228 C   0  0  1  0  0  0  0  0  0  0  0  0
    1.5389   -1.3148    2.3302 C   0  0  0  0  0  0  0  0  0  0  0  0
    1.8223   -2.5698    3.2022 C   0  0  0  0  0  0  0  0  0  0  0  0
    3.2533   -2.7590    3.7800 C   0  0  1  0  0  0  0  0  0  0  0  0
    3.4898   -1.6971    4.8628 C   0  0  0  0  0  0  0  0  0  0  0  0
    3.4574   -2.0187    6.1652 C   0  0  0  0  0  0  0  0  0  0  0  0
    3.1984   -3.4081    6.7123 C   0  0  0  0  0  0  0  0  0  0  0  0
    2.8957   -4.5025    5.6481 C   0  0  2  0  0  0  0  0  0  0  0  0
    3.2248   -5.9020    6.2662 C   0  0  1  0  0  0  0  0  0  0  0  0
    2.4351   -7.1150    5.7141 C   0  0  0  0  0  0  0  0  0  0  0  0
    0.6352   -6.9172    5.8763 S   0  0  0  0  0  0  0  0  0  0  0  0
   -0.1146   -7.7963    4.5388 C   0  0  0  0  0  0  0  0  0  0  0  0
   -1.4058   -7.4485    4.0817 C   0  0  0  0  0  0  0  0  0  0  0  0
   -1.9916   -8.0848    3.0436 N   0  0  0  0  0  0  0  0  0  0  0  0
   -1.2886   -9.0977    2.4851 C   0  0  0  0  0  0  0  0  0  0  0  0
    0.0031   -9.4467    2.9449 C   0  0  0  0  0  0  0  0  0  0  0  0
    0.6020   -8.7903    3.9699 N   0  0  0  0  0  0  0  0  0  0  0  0
    4.7389   -6.1788    6.2603 C   0  0  0  0  0  0  0  0  0  0  0  0
    5.2790   -6.7558    7.2010 O   0  0  0  0  0  0  0  0  0  0  0  0
    5.5553   -5.7494    5.0361 C   0  0  0  0  0  0  0  0  0  0  0  0
    5.1311   -4.3689    4.4820 C   0  0  0  0  0  0  0  0  0  0  0  0
    3.5951   -4.2156    4.2774 C   0  0  2  0  0  0  0  0  0  0  0  0
    3.1692   -5.2176    3.1701 C   0  0  0  0  0  0  0  0  0  0  0  0
    1.3952    0.7219    5.8709 H   0  0  0  0  0  0  0  0  0  0  0  0
    0.9688   -0.7464    5.0351 H   0  0  0  0  0  0  0  0  0  0  0  0
    0.3528    0.7881    4.4557 H   0  0  0  0  0  0  0  0  0  0  0  0
    3.5639    2.3453    3.3783 H   0  0  0  0  0  0  0  0  0  0  0  0
    2.9142    2.4043    5.0027 H   0  0  0  0  0  0  0  0  0  0  0  0
    1.8508    2.5848    3.6130 H   0  0  0  0  0  0  0  0  0  0  0  0
    4.1916    0.2716    5.2849 H   0  0  0  0  0  0  0  0  0  0  0  0
    5.3189    0.7498    3.3366 H   0  0  0  0  0  0  0  0  0  0  0  0
    5.3915   -0.9773    3.1624 H   0  0  0  0  0  0  0  0  0  0  0  0
    3.9824    0.9308    1.4514 H   0  0  0  0  0  0  0  0  0  0  0  0
    5.7738   -0.2136    0.6291 H   0  0  0  0  0  0  0  0  0  0  0  0
    3.0258   -1.7513   -1.0985 H   0  0  0  0  0  0  0  0  0  0  0  0
    3.0527   -0.2458   -3.0476 H   0  0  0  0  0  0  0  0  0  0  0  0
    4.5037   -0.9917   -3.6597 H   0  0  0  0  0  0  0  0  0  0  0  0
    1.9994   -2.3053   -3.3248 H   0  0  0  0  0  0  0  0  0  0  0  0
    3.9273   -3.8198   -2.0492 H   0  0  0  0  0  0  0  0  0  0  0  0
    6.0758   -4.0124   -2.6704 H   0  0  0  0  0  0  0  0  0  0  0  0
    4.1546   -3.5922    0.3195 H   0  0  0  0  0  0  0  0  0  0  0  0
    5.1586   -5.4088   -0.6676 H   0  0  0  0  0  0  0  0  0  0  0  0
    6.0921   -2.6052    1.4384 H   0  0  0  0  0  0  0  0  0  0  0  0
    7.0362   -2.5996   -1.1599 H   0  0  0  0  0  0  0  0  0  0  0  0
    1.7781    0.7535    1.9471 H   0  0  0  0  0  0  0  0  0  0  0  0
    0.4842   -1.0779    2.4647 H   0  0  0  0  0  0  0  0  0  0  0  0
    1.6149   -1.5978    1.2802 H   0  0  0  0  0  0  0  0  0  0  0  0
    1.1058   -2.6300    4.0205 H   0  0  0  0  0  0  0  0  0  0  0  0
    1.5504   -3.4038    2.5623 H   0  0  0  0  0  0  0  0  0  0  0  0
    3.9499   -2.6083    2.9643 H   0  0  0  0  0  0  0  0  0  0  0  0
    3.6198   -1.2491    6.9075 H   0  0  0  0  0  0  0  0  0  0  0  0
    4.0782   -3.6589    7.3072 H   0  0  0  0  0  0  0  0  0  0  0  0
    2.3606   -3.3388    7.4073 H   0  0  0  0  0  0  0  0  0  0  0  0
    1.8225   -4.4419    5.4668 H   0  0  0  0  0  0  0  0  0  0  0  0
    2.9580   -5.8461    7.3217 H   0  0  0  0  0  0  0  0  0  0  0  0
    2.6749   -7.3164    4.6788 H   0  0  0  0  0  0  0  0  0  0  0  0
    2.7195   -8.0220    6.2478 H   0  0  0  0  0  0  0  0  0  0  0  0
   -1.9725   -6.6514    4.5471 H   0  0  0  0  0  0  0  0  0  0  0  0
   -1.7606   -9.6396    1.6797 H   0  0  0  0  0  0  0  0  0  0  0  0
    0.5589  -10.2578    2.4848 H   0  0  0  0  0  0  0  0  0  0  0  0
    6.6112   -5.7255    5.3032 H   0  0  0  0  0  0  0  0  0  0  0  0
    5.4590   -6.5232    4.2727 H   0  0  0  0  0  0  0  0  0  0  0  0
    5.5035   -3.6104    5.1725 H   0  0  0  0  0  0  0  0  0  0  0  0
    5.6551   -4.1842    3.5426 H   0  0  0  0  0  0  0  0  0  0  0  0
    3.6836   -6.1747    3.2273 H   0  0  0  0  0  0  0  0  0  0  0  0
    3.4043   -4.8312    2.1784 H   0  0  0  0  0  0  0  0  0  0  0  0
    2.0992   -5.4299    3.2092 H   0  0  0  0  0  0  0  0  0  0  0  0
  1  2  1  0
  1 42  1  0
  1 43  1  0
  1 44  1  0
  2 19  1  0
  2  3  1  0
  2  4  1  0
  3 45  1  0
  3 46  1  0
  3 47  1  0
  4 23  1  0
  4  5  1  0
  4 48  1  1
  5  6  1  0
  5 49  1  0
  5 50  1  0
  6  7  1  0
  6 19  1  0
  6 51  1  6
  7  8  1  0
  8 17  1  0
  8  9  1  0
  8 52  1  1
  9 10  1  0
 10 11  1  0
 10 13  1  0
 10 53  1  1
 11 12  1  0
 11 54  1  0
 11 55  1  0
 12 56  1  0
 13 14  1  0
 13 15  1  0
 13 57  1  6
 14 58  1  0
 15 16  1  0
 15 17  1  0
 15 59  1  1
 16 60  1  0
 17 18  1  0
 17 61  1  1
 18 62  1  0
 19 20  1  0
 19 63  1  6
 20 21  1  0
 20 64  1  0
 20 65  1  0
 21 22  1  0
 21 66  1  0
 21 67  1  0
 22 40  1  0
 22 23  1  0
 22 68  1  6
 23 24  2  0
 24 25  1  0
 24 69  1  0
 25 26  1  0
 25 70  1  0
 25 71  1  0
 26 40  1  0
 26 27  1  0
 26 72  1  6
 27 28  1  0
 27 36  1  0
 27 73  1  1
 28 29  1  0
 28 74  1  0
 28 75  1  0
 29 30  1  0
 30 35  1  0
 30 31  2  0
 31 32  1  0
 31 76  1  0
 32 33  2  0
 33 34  1  0
 33 77  1  0
 34 35  2  0
 34 78  1  0
 36 37  2  0
 36 38  1  0
 38 39  1  0
 38 79  1  0
 38 80  1  0
 39 40  1  0
 39 81  1  0
 39 82  1  0
 40 41  1  6
 41 83  1  0
 41 84  1  0
 41 85  1  0
M  END
>  <i_m_ct_stereo_status>  (336) 
1

>  <s_m_source_file>  (336) 
/var/tmp/pbs.5076255.sched01/tmpjgl1obm9/123zpz496x9.sdf

>  <i_m_source_file_index>  (336) 
18

>  <i_lp_mmshare_version>  (336) 
48012

>  <i_f3d_flags>  (336) 
0

>  <s_epik_input>  (336) 
W09IXVtDQEBIXTFbQ0BIXShbT0hdKVtDQEhdKFtPSF0pW0NASF0oW0NIMl1bT0hdKU9bQ0BIXTFPW0NASF0oW0NIMl0yKVtDQEBIXShbQ0gyXVtDSDJdMylDKFtDSDNdKShbQ0gzXSlbQ0BIXTJDKFtDQEhdM1tDQF00NVtDSDNdKT1bQ0hdW0NIMl1bQ0BASF00W0NASF0oQyg9TylbQ0gyXVtDSDJdNSlbQ0gyXVNjNltjSF1uW2NIXVtjSF1uNg==

>  <s_epik_cmdline>  (336) 
J2VwaWtfcHl0aG9uJywgJy1waHQnLCAnMi4wJywgJy1waCcsICc3LjAnLCAnLXRuJywgJzgnLCAnLW1hJywgJzIwMCcsICctaW1hZScsICc8aW5maWxlLm1hZT4nLCAnLW9tYWUnLCAnPG91dGZpbGUubWFlPic=

>  <r_lp_tautomer_probability>  (336) 
1

>  <r_epik_Ionization_Penalty>  (336) 
2.88588e-06

>  <r_epik_Ionization_Penalty_Charging>  (336) 
0

>  <r_epik_Ionization_Penalty_Neutral>  (336) 
2.88588e-06

>  <r_epik_State_Penalty>  (336) 
-0

>  <r_epik_Charging_Adjusted_Penalty>  (336) 
0

>  <i_epik_Tot_Q>  (336) 
0

>  <i_epik_Tot_abs_Q>  (336) 
0

>  <s_epik_Chemistry_Notes>  (336) 
This compound contains an acetal/aminal-like group ( X-CH(R)-Y where X, Y are N, S, or O) that may be acid/base labile, releasing an aldehyde.

>  <s_lp_Force_Field>  (336) 
OPLS3e

>  <r_lp_Energy>  (336) 
69.9378

>  <b_lp_Chiralities_Consistent>  (336) 
1

>  <s_lp_Variant>  (336) 
102:0-1

>  <s_i_glide_gridfile>  (336) 
pfpi4k_grid

>  <i_i_glide_lignum>  (336) 
18

>  <i_i_glide_rotatable_bonds>  (336) 
10

>  <r_i_docking_score>  (336) 
-3.54459

>  <r_i_glide_ligand_efficiency>  (336) 
-0.0864534

>  <r_i_glide_ligand_efficiency_sa>  (336) 
-0.29811

>  <r_i_glide_ligand_efficiency_ln>  (336) 
-0.751997

>  <r_i_glide_gscore>  (336) 
-3.54459

>  <r_i_glide_lipo>  (336) 
-0.416617

>  <r_i_glide_hbond>  (336) 
0

>  <r_i_glide_metal>  (336) 
-0

>  <r_i_glide_rewards>  (336) 
-0.61244

>  <r_i_glide_evdw>  (336) 
-37.7678

>  <r_i_glide_ecoul>  (336) 
-5.88268

>  <r_i_glide_erotb>  (336) 
0.255258

>  <r_i_glide_esite>  (336) 
0

>  <r_i_glide_emodel>  (336) 
-54.9332

>  <r_i_glide_energy>  (336) 
-43.6505

>  <r_i_glide_einternal>  (336) 
6.41771

>  <r_i_glide_intrahb_reward>  (336) 
-0.5

>  <i_i_glide_confnum>  (336) 
1

>  <i_i_glide_posenum>  (336) 
29

>  <r_i_glide_eff_state_penalty>  (336) 
0

>  <ligand_id>  (336) 
102

>  <original_smiles>  (336) 
CC1(C)C2CC(OC3OC(CO)C(O)C(O)C3O)C1CCC1C2=CCC2C(CSc3cnccn3)C(=O)CCC12C

>  <smiles>  (336) 
[H]OC([H])([H])C1([H])OC([H])(OC2([H])C([H])([H])C3([H])C4=C([H])C([H])([H])C5([H])C([H])(C([H])([H])Sc6nc([H])c([H])nc6[H])C(=O)C([H])([H])C([H])([H])C5(C([H])([H])[H])C4([H])C([H])([H])C([H])([H])C2([H])C3(C([H])([H])[H])C([H])([H])[H])C([H])(O[H])C([H])(O[H])C1([H])O[H]

$$$$
102:0:1
     RDKit          3D

 85 90  0  0  1  0  0  0  0  0999 V2000
    1.9144   -0.0066    5.2875 C   0  0  0  0  0  0  0  0  0  0  0  0
    3.0192    0.2460    4.2334 C   0  0  0  0  0  0  0  0  0  0  0  0
    3.3875    1.7455    4.3869 C   0  0  0  0  0  0  0  0  0  0  0  0
    4.2858   -0.6248    4.3986 C   0  0  2  0  0  0  0  0  0  0  0  0
    5.0586   -0.4126    3.0885 C   0  0  0  0  0  0  0  0  0  0  0  0
    3.9905   -0.0815    2.0199 C   0  0  1  0  0  0  0  0  0  0  0  0
    3.9808   -1.0785    0.9923 O   0  0  0  0  0  0  0  0  0  0  0  0
    5.0272   -1.0339    0.0446 C   0  0  2  0  0  0  0  0  0  0  0  0
    4.5567   -0.8876   -1.2833 O   0  0  0  0  0  0  0  0  0  0  0  0
    3.6743   -1.9431   -1.7032 C   0  0  1  0  0  0  0  0  0  0  0  0
    3.1202   -1.6000   -3.0939 C   0  0  0  0  0  0  0  0  0  0  0  0
    2.2209   -2.6070   -3.5489 O   0  0  0  0  0  0  0  0  0  0  0  0
    4.4481   -3.2830   -1.6808 C   0  0  1  0  0  0  0  0  0  0  0  0
    5.4510   -3.3393   -2.6978 O   0  0  0  0  0  0  0  0  0  0  0  0
    5.0523   -3.5067   -0.2877 C   0  0  1  0  0  0  0  0  0  0  0  0
    5.7802   -4.7360   -0.2123 O   0  0  0  0  0  0  0  0  0  0  0  0
    5.8957   -2.3053    0.1580 C   0  0  1  0  0  0  0  0  0  0  0  0
    7.0374   -2.1492   -0.6696 O   0  0  0  0  0  0  0  0  0  0  0  0
    2.6296   -0.0549    2.7674 C   0  0  1  0  0  0  0  0  0  0  0  0
    1.7174   -1.2999    2.5484 C   0  0  0  0  0  0  0  0  0  0  0  0
    2.0304   -2.6673    3.2149 C   0  0  0  0  0  0  0  0  0  0  0  0
    3.5110   -3.0098    3.5384 C   0  0  1  0  0  0  0  0  0  0  0  0
    3.9885   -2.1066    4.6850 C   0  0  0  0  0  0  0  0  0  0  0  0
    4.1278   -2.5904    5.9310 C   0  0  0  0  0  0  0  0  0  0  0  0
    3.8452   -4.0210    6.3464 C   0  0  0  0  0  0  0  0  0  0  0  0
    3.3018   -4.9555    5.2268 C   0  0  2  0  0  0  0  0  0  0  0  0
    3.6165   -6.4388    5.6180 C   0  0  1  0  0  0  0  0  0  0  0  0
    2.6619   -7.5299    5.0681 C   0  0  0  0  0  0  0  0  0  0  0  0
    0.9493   -7.3044    5.6265 S   0  0  0  0  0  0  0  0  0  0  0  0
   -0.0892   -8.0066    4.3797 C   0  0  0  0  0  0  0  0  0  0  0  0
   -1.3710   -7.4670    4.1236 C   0  0  0  0  0  0  0  0  0  0  0  0
   -2.1823   -7.9654    3.1603 N   0  0  0  0  0  0  0  0  0  0  0  0
   -1.6952   -9.0272    2.4802 C   0  0  0  0  0  0  0  0  0  0  0  0
   -0.4146   -9.5730    2.7334 C   0  0  0  0  0  0  0  0  0  0  0  0
    0.4035   -9.0534    3.6851 N   0  0  0  0  0  0  0  0  0  0  0  0
    5.0849   -6.7983    5.3416 C   0  0  0  0  0  0  0  0  0  0  0  0
    5.7167   -7.5157    6.1165 O   0  0  0  0  0  0  0  0  0  0  0  0
    5.7379   -6.2657    4.0623 C   0  0  0  0  0  0  0  0  0  0  0  0
    5.3395   -4.8055    3.7448 C   0  0  0  0  0  0  0  0  0  0  0  0
    3.8053   -4.5388    3.8039 C   0  0  2  0  0  0  0  0  0  0  0  0
    3.1343   -5.3792    2.6814 C   0  0  0  0  0  0  0  0  0  0  0  0
    2.2618    0.2817    6.2802 H   0  0  0  0  0  0  0  0  0  0  0  0
    1.6025   -1.0431    5.3610 H   0  0  0  0  0  0  0  0  0  0  0  0
    1.0267    0.5861    5.0635 H   0  0  0  0  0  0  0  0  0  0  0  0
    4.1574    2.0643    3.6890 H   0  0  0  0  0  0  0  0  0  0  0  0
    3.7567    1.9641    5.3901 H   0  0  0  0  0  0  0  0  0  0  0  0
    2.5214    2.3849    4.2088 H   0  0  0  0  0  0  0  0  0  0  0  0
    4.8931   -0.2501    5.2237 H   0  0  0  0  0  0  0  0  0  0  0  0
    5.7484    0.4261    3.1870 H   0  0  0  0  0  0  0  0  0  0  0  0
    5.6735   -1.2745    2.8544 H   0  0  0  0  0  0  0  0  0  0  0  0
    4.1643    0.8969    1.5709 H   0  0  0  0  0  0  0  0  0  0  0  0
    5.6198   -0.1261    0.2310 H   0  0  0  0  0  0  0  0  0  0  0  0
    2.8374   -1.9884   -1.0039 H   0  0  0  0  0  0  0  0  0  0  0  0
    2.6143   -0.6331   -3.0920 H   0  0  0  0  0  0  0  0  0  0  0  0
    3.9324   -1.5112   -3.8174 H   0  0  0  0  0  0  0  0  0  0  0  0
    1.4550   -2.6351   -2.9531 H   0  0  0  0  0  0  0  0  0  0  0  0
    3.7305   -4.0791   -1.8635 H   0  0  0  0  0  0  0  0  0  0  0  0
    5.7754   -4.2505   -2.7484 H   0  0  0  0  0  0  0  0  0  0  0  0
    4.2155   -3.5718    0.4039 H   0  0  0  0  0  0  0  0  0  0  0  0
    5.2034   -5.4604   -0.5076 H   0  0  0  0  0  0  0  0  0  0  0  0
    6.2336   -2.4605    1.1820 H   0  0  0  0  0  0  0  0  0  0  0  0
    6.7807   -2.5184   -1.5353 H   0  0  0  0  0  0  0  0  0  0  0  0
    2.0531    0.7862    2.3768 H   0  0  0  0  0  0  0  0  0  0  0  0
    0.7094   -1.0280    2.8645 H   0  0  0  0  0  0  0  0  0  0  0  0
    1.6161   -1.4545    1.4754 H   0  0  0  0  0  0  0  0  0  0  0  0
    1.4419   -2.7874    4.1249 H   0  0  0  0  0  0  0  0  0  0  0  0
    1.6026   -3.4004    2.5368 H   0  0  0  0  0  0  0  0  0  0  0  0
    4.0930   -2.7936    2.6502 H   0  0  0  0  0  0  0  0  0  0  0  0
    4.4577   -1.9319    6.7230 H   0  0  0  0  0  0  0  0  0  0  0  0
    4.7834   -4.3946    6.7627 H   0  0  0  0  0  0  0  0  0  0  0  0
    3.1289   -3.9871    7.1706 H   0  0  0  0  0  0  0  0  0  0  0  0
    2.2209   -4.8181    5.2269 H   0  0  0  0  0  0  0  0  0  0  0  0
    3.5170   -6.5010    6.7008 H   0  0  0  0  0  0  0  0  0  0  0  0
    2.6630   -7.5802    3.9875 H   0  0  0  0  0  0  0  0  0  0  0  0
    2.9933   -8.5189    5.3878 H   0  0  0  0  0  0  0  0  0  0  0  0
   -1.7560   -6.6334    4.6943 H   0  0  0  0  0  0  0  0  0  0  0  0
   -2.3360   -9.4545    1.7187 H   0  0  0  0  0  0  0  0  0  0  0  0
   -0.0483  -10.4205    2.1699 H   0  0  0  0  0  0  0  0  0  0  0  0
    6.8210   -6.3345    4.1610 H   0  0  0  0  0  0  0  0  0  0  0  0
    5.4716   -6.9313    3.2416 H   0  0  0  0  0  0  0  0  0  0  0  0
    5.8629   -4.1628    4.4542 H   0  0  0  0  0  0  0  0  0  0  0  0
    5.7346   -4.5326    2.7652 H   0  0  0  0  0  0  0  0  0  0  0  0
    3.5866   -6.3594    2.5497 H   0  0  0  0  0  0  0  0  0  0  0  0
    3.2186   -4.8972    1.7119 H   0  0  0  0  0  0  0  0  0  0  0  0
    2.0733   -5.5403    2.8858 H   0  0  0  0  0  0  0  0  0  0  0  0
  1  2  1  0
  1 42  1  0
  1 43  1  0
  1 44  1  0
  2 19  1  0
  2  3  1  0
  2  4  1  0
  3 45  1  0
  3 46  1  0
  3 47  1  0
  4 23  1  0
  4  5  1  0
  4 48  1  1
  5  6  1  0
  5 49  1  0
  5 50  1  0
  6  7  1  0
  6 19  1  0
  6 51  1  6
  7  8  1  0
  8 17  1  0
  8  9  1  0
  8 52  1  1
  9 10  1  0
 10 11  1  0
 10 13  1  0
 10 53  1  1
 11 12  1  0
 11 54  1  0
 11 55  1  0
 12 56  1  0
 13 14  1  0
 13 15  1  0
 13 57  1  6
 14 58  1  0
 15 16  1  0
 15 17  1  0
 15 59  1  1
 16 60  1  0
 17 18  1  0
 17 61  1  1
 18 62  1  0
 19 20  1  0
 19 63  1  6
 20 21  1  0
 20 64  1  0
 20 65  1  0
 21 22  1  0
 21 66  1  0
 21 67  1  0
 22 40  1  0
 22 23  1  0
 22 68  1  6
 23 24  2  0
 24 25  1  0
 24 69  1  0
 25 26  1  0
 25 70  1  0
 25 71  1  0
 26 40  1  0
 26 27  1  0
 26 72  1  6
 27 28  1  0
 27 36  1  0
 27 73  1  1
 28 29  1  0
 28 74  1  0
 28 75  1  0
 29 30  1  0
 30 35  1  0
 30 31  2  0
 31 32  1  0
 31 76  1  0
 32 33  2  0
 33 34  1  0
 33 77  1  0
 34 35  2  0
 34 78  1  0
 36 37  2  0
 36 38  1  0
 38 39  1  0
 38 79  1  0
 38 80  1  0
 39 40  1  0
 39 81  1  0
 39 82  1  0
 40 41  1  6
 41 83  1  0
 41 84  1  0
 41 85  1  0
M  END
>  <i_m_ct_stereo_status>  (337) 
1

>  <s_m_source_file>  (337) 
/var/tmp/pbs.5076255.sched01/tmpjgl1obm9/123zpz496x9.sdf

>  <i_m_source_file_index>  (337) 
18

>  <i_lp_mmshare_version>  (337) 
48012

>  <i_f3d_flags>  (337) 
0

>  <s_epik_input>  (337) 
W09IXVtDQEBIXTFbQ0BIXShbT0hdKVtDQEhdKFtPSF0pW0NASF0oW0NIMl1bT0hdKU9bQ0BIXTFPW0NASF0oW0NIMl0yKVtDQEBIXShbQ0gyXVtDSDJdMylDKFtDSDNdKShbQ0gzXSlbQ0BIXTJDKFtDQEhdM1tDQF00NVtDSDNdKT1bQ0hdW0NIMl1bQ0BASF00W0NASF0oQyg9TylbQ0gyXVtDSDJdNSlbQ0gyXVNjNltjSF1uW2NIXVtjSF1uNg==

>  <s_epik_cmdline>  (337) 
J2VwaWtfcHl0aG9uJywgJy1waHQnLCAnMi4wJywgJy1waCcsICc3LjAnLCAnLXRuJywgJzgnLCAnLW1hJywgJzIwMCcsICctaW1hZScsICc8aW5maWxlLm1hZT4nLCAnLW9tYWUnLCAnPG91dGZpbGUubWFlPic=

>  <r_lp_tautomer_probability>  (337) 
1

>  <r_epik_Ionization_Penalty>  (337) 
2.88588e-06

>  <r_epik_Ionization_Penalty_Charging>  (337) 
0

>  <r_epik_Ionization_Penalty_Neutral>  (337) 
2.88588e-06

>  <r_epik_State_Penalty>  (337) 
-0

>  <r_epik_Charging_Adjusted_Penalty>  (337) 
0

>  <i_epik_Tot_Q>  (337) 
0

>  <i_epik_Tot_abs_Q>  (337) 
0

>  <s_epik_Chemistry_Notes>  (337) 
This compound contains an acetal/aminal-like group ( X-CH(R)-Y where X, Y are N, S, or O) that may be acid/base labile, releasing an aldehyde.

>  <s_lp_Force_Field>  (337) 
OPLS3e

>  <r_lp_Energy>  (337) 
69.9378

>  <b_lp_Chiralities_Consistent>  (337) 
1

>  <s_lp_Variant>  (337) 
102:0-1

>  <s_i_glide_gridfile>  (337) 
pfpi4k_grid

>  <i_i_glide_lignum>  (337) 
18

>  <i_i_glide_rotatable_bonds>  (337) 
10

>  <r_i_docking_score>  (337) 
-3.5208

>  <r_i_glide_ligand_efficiency>  (337) 
-0.0858733

>  <r_i_glide_ligand_efficiency_sa>  (337) 
-0.29611

>  <r_i_glide_ligand_efficiency_ln>  (337) 
-0.74695

>  <r_i_glide_gscore>  (337) 
-3.5208

>  <r_i_glide_lipo>  (337) 
-0.48931

>  <r_i_glide_hbond>  (337) 
0

>  <r_i_glide_metal>  (337) 
-0

>  <r_i_glide_rewards>  (337) 
-0.52998

>  <r_i_glide_evdw>  (337) 
-36.6087

>  <r_i_glide_ecoul>  (337) 
-6.17558

>  <r_i_glide_erotb>  (337) 
0.255258

>  <r_i_glide_esite>  (337) 
0

>  <r_i_glide_emodel>  (337) 
-54.0463

>  <r_i_glide_energy>  (337) 
-42.7843

>  <r_i_glide_einternal>  (337) 
6.47727

>  <r_i_glide_intrahb_reward>  (337) 
-0.5

>  <i_i_glide_confnum>  (337) 
4

>  <i_i_glide_posenum>  (337) 
3

>  <r_i_glide_eff_state_penalty>  (337) 
0

>  <ligand_id>  (337) 
102

>  <original_smiles>  (337) 
CC1(C)C2CC(OC3OC(CO)C(O)C(O)C3O)C1CCC1C2=CCC2C(CSc3cnccn3)C(=O)CCC12C

>  <smiles>  (337) 
[H]OC([H])([H])C1([H])OC([H])(OC2([H])C([H])([H])C3([H])C4=C([H])C([H])([H])C5([H])C([H])(C([H])([H])Sc6nc([H])c([H])nc6[H])C(=O)C([H])([H])C([H])([H])C5(C([H])([H])[H])C4([H])C([H])([H])C([H])([H])C2([H])C3(C([H])([H])[H])C([H])([H])[H])C([H])(O[H])C([H])(O[H])C1([H])O[H]

$$$$
102:0:2
     RDKit          3D

 85 90  0  0  1  0  0  0  0  0999 V2000
    0.3738    0.5496    3.8202 C   0  0  0  0  0  0  0  0  0  0  0  0
    1.8426    0.7324    3.3687 C   0  0  0  0  0  0  0  0  0  0  0  0
    2.0314    2.2709    3.2256 C   0  0  0  0  0  0  0  0  0  0  0  0
    2.9058    0.1546    4.3328 C   0  0  2  0  0  0  0  0  0  0  0  0
    4.2147    0.1744    3.5141 C   0  0  0  0  0  0  0  0  0  0  0  0
    3.7818    0.0757    2.0391 C   0  0  1  0  0  0  0  0  0  0  0  0
    4.3512   -1.1145    1.4829 O   0  0  0  0  0  0  0  0  0  0  0  0
    5.4633   -0.9182    0.6349 C   0  0  2  0  0  0  0  0  0  0  0  0
    5.1108   -0.6930   -0.7217 O   0  0  0  0  0  0  0  0  0  0  0  0
    4.3695   -1.7685   -1.3288 C   0  0  1  0  0  0  0  0  0  0  0  0
    3.9405   -1.3291   -2.7453 C   0  0  0  0  0  0  0  0  0  0  0  0
    3.1834   -2.3408   -3.4062 O   0  0  0  0  0  0  0  0  0  0  0  0
    5.2518   -3.0426   -1.3272 C   0  0  1  0  0  0  0  0  0  0  0  0
    6.3341   -2.9171   -2.2542 O   0  0  0  0  0  0  0  0  0  0  0  0
    5.7559   -3.3475    0.0972 C   0  0  1  0  0  0  0  0  0  0  0  0
    6.6128   -4.4914    0.1325 O   0  0  0  0  0  0  0  0  0  0  0  0
    6.4080   -2.1277    0.7677 C   0  0  1  0  0  0  0  0  0  0  0  0
    7.6728   -1.8070    0.1840 O   0  0  0  0  0  0  0  0  0  0  0  0
    2.2352    0.0307    2.0502 C   0  0  1  0  0  0  0  0  0  0  0  0
    1.6023   -1.3633    1.8183 C   0  0  0  0  0  0  0  0  0  0  0  0
    1.5938   -2.4613    2.9141 C   0  0  0  0  0  0  0  0  0  0  0  0
    2.7441   -2.4542    3.9536 C   0  0  1  0  0  0  0  0  0  0  0  0
    2.5608   -1.2391    4.8731 C   0  0  0  0  0  0  0  0  0  0  0  0
    2.0936   -1.3789    6.1195 C   0  0  0  0  0  0  0  0  0  0  0  0
    1.7038   -2.6927    6.7593 C   0  0  0  0  0  0  0  0  0  0  0  0
    1.8130   -3.9329    5.8356 C   0  0  2  0  0  0  0  0  0  0  0  0
    1.9269   -5.1943    6.7433 C   0  0  1  0  0  0  0  0  0  0  0  0
    1.4197   -6.5162    6.1333 C   0  0  0  0  0  0  0  0  0  0  0  0
   -0.1961   -6.4014    5.2891 S   0  0  0  0  0  0  0  0  0  0  0  0
   -0.3006   -7.7877    4.1912 C   0  0  0  0  0  0  0  0  0  0  0  0
    0.6645   -8.8095    4.1733 C   0  0  0  0  0  0  0  0  0  0  0  0
    0.6008   -9.8383    3.3026 N   0  0  0  0  0  0  0  0  0  0  0  0
   -0.4798   -9.8522    2.4882 C   0  0  0  0  0  0  0  0  0  0  0  0
   -1.4506   -8.8277    2.4996 C   0  0  0  0  0  0  0  0  0  0  0  0
   -1.3680   -7.7675    3.3499 N   0  0  0  0  0  0  0  0  0  0  0  0
    3.3627   -5.3719    7.2805 C   0  0  0  0  0  0  0  0  0  0  0  0
    3.5590   -5.7933    8.4114 O   0  0  0  0  0  0  0  0  0  0  0  0
    4.5442   -5.0579    6.3487 C   0  0  0  0  0  0  0  0  0  0  0  0
    4.3071   -3.8034    5.4788 C   0  0  0  0  0  0  0  0  0  0  0  0
    2.9324   -3.7947    4.7531 C   0  0  2  0  0  0  0  0  0  0  0  0
    2.9358   -4.9730    3.7360 C   0  0  0  0  0  0  0  0  0  0  0  0
    0.1771    1.1179    4.7305 H   0  0  0  0  0  0  0  0  0  0  0  0
    0.1056   -0.4771    4.0363 H   0  0  0  0  0  0  0  0  0  0  0  0
   -0.3154    0.9113    3.0586 H   0  0  0  0  0  0  0  0  0  0  0  0
    3.0304    2.5631    2.8948 H   0  0  0  0  0  0  0  0  0  0  0  0
    1.8551    2.7829    4.1756 H   0  0  0  0  0  0  0  0  0  0  0  0
    1.3301    2.6938    2.5000 H   0  0  0  0  0  0  0  0  0  0  0  0
    3.0181    0.8164    5.1949 H   0  0  0  0  0  0  0  0  0  0  0  0
    4.7306    1.1203    3.6834 H   0  0  0  0  0  0  0  0  0  0  0  0
    4.9146   -0.6106    3.8045 H   0  0  0  0  0  0  0  0  0  0  0  0
    4.0856    0.9429    1.4666 H   0  0  0  0  0  0  0  0  0  0  0  0
    5.9876   -0.0056    0.9562 H   0  0  0  0  0  0  0  0  0  0  0  0
    3.4662   -1.9370   -0.7430 H   0  0  0  0  0  0  0  0  0  0  0  0
    3.3459   -0.4157   -2.7154 H   0  0  0  0  0  0  0  0  0  0  0  0
    4.8149   -1.1063   -3.3553 H   0  0  0  0  0  0  0  0  0  0  0  0
    2.3786   -2.5104   -2.8934 H   0  0  0  0  0  0  0  0  0  0  0  0
    4.6266   -3.8751   -1.6452 H   0  0  0  0  0  0  0  0  0  0  0  0
    6.8440   -3.7410   -2.2549 H   0  0  0  0  0  0  0  0  0  0  0  0
    4.8745   -3.5768    0.6976 H   0  0  0  0  0  0  0  0  0  0  0  0
    6.1149   -5.2579   -0.1845 H   0  0  0  0  0  0  0  0  0  0  0  0
    6.5672   -2.3230    1.8375 H   0  0  0  0  0  0  0  0  0  0  0  0
    8.1998   -2.6186    0.1780 H   0  0  0  0  0  0  0  0  0  0  0  0
    1.8818    0.6356    1.2149 H   0  0  0  0  0  0  0  0  0  0  0  0
    0.5637   -1.1829    1.5578 H   0  0  0  0  0  0  0  0  0  0  0  0
    2.0320   -1.7910    0.9140 H   0  0  0  0  0  0  0  0  0  0  0  0
    0.6359   -2.4642    3.4344 H   0  0  0  0  0  0  0  0  0  0  0  0
    1.5845   -3.3935    2.3534 H   0  0  0  0  0  0  0  0  0  0  0  0
    3.6697   -2.3596    3.3994 H   0  0  0  0  0  0  0  0  0  0  0  0
    1.9630   -0.5059    6.7471 H   0  0  0  0  0  0  0  0  0  0  0  0
    2.3282   -2.7966    7.6482 H   0  0  0  0  0  0  0  0  0  0  0  0
    0.6733   -2.6073    7.1073 H   0  0  0  0  0  0  0  0  0  0  0  0
    0.8700   -3.9501    5.2906 H   0  0  0  0  0  0  0  0  0  0  0  0
    1.3060   -5.0271    7.6248 H   0  0  0  0  0  0  0  0  0  0  0  0
    2.1561   -6.8984    5.4409 H   0  0  0  0  0  0  0  0  0  0  0  0
    1.3269   -7.2763    6.9093 H   0  0  0  0  0  0  0  0  0  0  0  0
    1.5120   -8.8497    4.8325 H   0  0  0  0  0  0  0  0  0  0  0  0
   -0.5400  -10.6790    1.7894 H   0  0  0  0  0  0  0  0  0  0  0  0
   -2.3021   -8.8657    1.8238 H   0  0  0  0  0  0  0  0  0  0  0  0
    5.4452   -4.9193    6.9479 H   0  0  0  0  0  0  0  0  0  0  0  0
    4.7430   -5.9313    5.7270 H   0  0  0  0  0  0  0  0  0  0  0  0
    4.3940   -2.9341    6.1327 H   0  0  0  0  0  0  0  0  0  0  0  0
    5.1195   -3.7030    4.7545 H   0  0  0  0  0  0  0  0  0  0  0  0
    3.4161   -5.8762    4.1069 H   0  0  0  0  0  0  0  0  0  0  0  0
    3.4932   -4.7126    2.8343 H   0  0  0  0  0  0  0  0  0  0  0  0
    1.9246   -5.2557    3.4365 H   0  0  0  0  0  0  0  0  0  0  0  0
  1  2  1  0
  1 42  1  0
  1 43  1  0
  1 44  1  0
  2 19  1  0
  2  3  1  0
  2  4  1  0
  3 45  1  0
  3 46  1  0
  3 47  1  0
  4 23  1  0
  4  5  1  0
  4 48  1  1
  5  6  1  0
  5 49  1  0
  5 50  1  0
  6  7  1  0
  6 19  1  0
  6 51  1  6
  7  8  1  0
  8 17  1  0
  8  9  1  0
  8 52  1  1
  9 10  1  0
 10 11  1  0
 10 13  1  0
 10 53  1  1
 11 12  1  0
 11 54  1  0
 11 55  1  0
 12 56  1  0
 13 14  1  0
 13 15  1  0
 13 57  1  6
 14 58  1  0
 15 16  1  0
 15 17  1  0
 15 59  1  1
 16 60  1  0
 17 18  1  0
 17 61  1  1
 18 62  1  0
 19 20  1  0
 19 63  1  6
 20 21  1  0
 20 64  1  0
 20 65  1  0
 21 22  1  0
 21 66  1  0
 21 67  1  0
 22 40  1  0
 22 23  1  0
 22 68  1  6
 23 24  2  0
 24 25  1  0
 24 69  1  0
 25 26  1  0
 25 70  1  0
 25 71  1  0
 26 40  1  0
 26 27  1  0
 26 72  1  6
 27 28  1  0
 27 36  1  0
 27 73  1  1
 28 29  1  0
 28 74  1  0
 28 75  1  0
 29 30  1  0
 30 35  1  0
 30 31  2  0
 31 32  1  0
 31 76  1  0
 32 33  2  0
 33 34  1  0
 33 77  1  0
 34 35  2  0
 34 78  1  0
 36 37  2  0
 36 38  1  0
 38 39  1  0
 38 79  1  0
 38 80  1  0
 39 40  1  0
 39 81  1  0
 39 82  1  0
 40 41  1  6
 41 83  1  0
 41 84  1  0
 41 85  1  0
M  END
>  <i_m_ct_stereo_status>  (338) 
1

>  <s_m_source_file>  (338) 
/var/tmp/pbs.5076255.sched01/tmpjgl1obm9/123zpz496x9.sdf

>  <i_m_source_file_index>  (338) 
18

>  <i_lp_mmshare_version>  (338) 
48012

>  <i_f3d_flags>  (338) 
0

>  <s_epik_input>  (338) 
W09IXVtDQEBIXTFbQ0BIXShbT0hdKVtDQEhdKFtPSF0pW0NASF0oW0NIMl1bT0hdKU9bQ0BIXTFPW0NASF0oW0NIMl0yKVtDQEBIXShbQ0gyXVtDSDJdMylDKFtDSDNdKShbQ0gzXSlbQ0BIXTJDKFtDQEhdM1tDQF00NVtDSDNdKT1bQ0hdW0NIMl1bQ0BASF00W0NASF0oQyg9TylbQ0gyXVtDSDJdNSlbQ0gyXVNjNltjSF1uW2NIXVtjSF1uNg==

>  <s_epik_cmdline>  (338) 
J2VwaWtfcHl0aG9uJywgJy1waHQnLCAnMi4wJywgJy1waCcsICc3LjAnLCAnLXRuJywgJzgnLCAnLW1hJywgJzIwMCcsICctaW1hZScsICc8aW5maWxlLm1hZT4nLCAnLW9tYWUnLCAnPG91dGZpbGUubWFlPic=

>  <r_lp_tautomer_probability>  (338) 
1

>  <r_epik_Ionization_Penalty>  (338) 
2.88588e-06

>  <r_epik_Ionization_Penalty_Charging>  (338) 
0

>  <r_epik_Ionization_Penalty_Neutral>  (338) 
2.88588e-06

>  <r_epik_State_Penalty>  (338) 
-0

>  <r_epik_Charging_Adjusted_Penalty>  (338) 
0

>  <i_epik_Tot_Q>  (338) 
0

>  <i_epik_Tot_abs_Q>  (338) 
0

>  <s_epik_Chemistry_Notes>  (338) 
This compound contains an acetal/aminal-like group ( X-CH(R)-Y where X, Y are N, S, or O) that may be acid/base labile, releasing an aldehyde.

>  <s_lp_Force_Field>  (338) 
OPLS3e

>  <r_lp_Energy>  (338) 
69.9378

>  <b_lp_Chiralities_Consistent>  (338) 
1

>  <s_lp_Variant>  (338) 
102:0-1

>  <s_i_glide_gridfile>  (338) 
pfpi4k_grid

>  <i_i_glide_lignum>  (338) 
18

>  <i_i_glide_rotatable_bonds>  (338) 
10

>  <r_i_docking_score>  (338) 
-3.06809

>  <r_i_glide_ligand_efficiency>  (338) 
-0.0748314

>  <r_i_glide_ligand_efficiency_sa>  (338) 
-0.258035

>  <r_i_glide_ligand_efficiency_ln>  (338) 
-0.650905

>  <r_i_glide_gscore>  (338) 
-3.06809

>  <r_i_glide_lipo>  (338) 
-0.411222

>  <r_i_glide_hbond>  (338) 
0

>  <r_i_glide_metal>  (338) 
-0

>  <r_i_glide_rewards>  (338) 
-0.163857

>  <r_i_glide_evdw>  (338) 
-37.4974

>  <r_i_glide_ecoul>  (338) 
-5.82262

>  <r_i_glide_erotb>  (338) 
0.255258

>  <r_i_glide_esite>  (338) 
0

>  <r_i_glide_emodel>  (338) 
-49.072

>  <r_i_glide_energy>  (338) 
-43.32

>  <r_i_glide_einternal>  (338) 
5.39027

>  <r_i_glide_intrahb_reward>  (338) 
-0

>  <i_i_glide_confnum>  (338) 
1

>  <i_i_glide_posenum>  (338) 
37

>  <r_i_glide_eff_state_penalty>  (338) 
0

>  <ligand_id>  (338) 
102

>  <original_smiles>  (338) 
CC1(C)C2CC(OC3OC(CO)C(O)C(O)C3O)C1CCC1C2=CCC2C(CSc3cnccn3)C(=O)CCC12C

>  <smiles>  (338) 
[H]OC([H])([H])C1([H])OC([H])(OC2([H])C([H])([H])C3([H])C4=C([H])C([H])([H])C5([H])C([H])(C([H])([H])Sc6nc([H])c([H])nc6[H])C(=O)C([H])([H])C([H])([H])C5(C([H])([H])[H])C4([H])C([H])([H])C([H])([H])C2([H])C3(C([H])([H])[H])C([H])([H])[H])C([H])(O[H])C([H])(O[H])C1([H])O[H]

$$$$
103:0:0
     RDKit          3D

 93102  0  0  1  0  0  0  0  0999 V2000
    7.1732   -7.0503    6.8256 C   0  0  0  0  0  0  0  0  0  0  0  0
    6.7695   -6.0927    5.7076 C   0  0  0  0  0  0  0  0  0  0  0  0
    7.6809   -5.4736    5.1643 O   0  0  0  0  0  0  0  0  0  0  0  0
    5.1992   -6.0423    5.3793 C   0  0  1  0  0  0  0  0  0  0  0  0
    4.2984   -5.2932    4.4065 O   0  0  0  0  0  0  0  0  0  0  0  0
    4.3195   -4.1555    3.5713 C   0  0  1  0  0  0  0  0  0  0  0  0
    5.7037   -4.7335    3.1749 C   0  0  0  0  0  0  0  0  0  0  0  0
    5.6825   -6.3355    2.9470 C   0  0  2  0  0  0  0  0  0  0  0  0
    5.3786   -6.7146    1.4829 C   0  0  0  0  0  0  0  0  0  0  0  0
    4.2914   -5.9374    0.6870 C   0  0  0  0  0  0  0  0  0  0  0  0
    4.1170   -4.3772    0.7300 C   0  0  2  0  0  0  0  0  0  0  0  0
    3.0556   -3.9362   -0.3175 C   0  0  0  0  0  0  0  0  0  0  0  0
    3.5639   -2.6110   -0.9187 C   0  0  0  0  0  0  0  0  0  0  0  0
    5.0557   -2.7827   -0.6998 C   0  0  0  0  0  0  0  0  0  0  0  0
    5.9208   -2.0108   -1.1680 O   0  0  0  0  0  0  0  0  0  0  0  0
    5.2953   -3.8071    0.1356 O   0  0  0  0  0  0  0  0  0  0  0  0
    3.7961   -3.6470    2.1384 C   0  0  1  0  0  0  0  0  0  0  0  0
    2.6526   -2.5546    2.1294 C   0  0  0  0  0  0  0  0  0  0  0  0
    4.9426   -7.0989    4.2270 C   0  0  1  0  0  0  0  0  0  0  0  0
    5.7047   -8.4543    4.3584 C   0  0  0  0  0  0  0  0  0  0  0  0
    3.3884   -7.4996    4.3380 C   0  0  1  0  0  0  0  0  0  0  0  0
    2.7498   -7.1187    5.7540 C   0  0  1  0  0  0  0  0  0  0  0  0
    3.1811   -8.1248    6.8390 C   0  0  0  0  0  0  0  0  0  0  0  0
    2.8207   -5.6475    6.4377 C   0  0  2  0  0  0  0  0  0  0  0  0
    1.2910   -5.3030    6.8006 C   0  0  1  0  0  0  0  0  0  0  0  0
    0.5362   -4.4704    5.5879 C   0  0  1  0  0  0  0  0  0  0  0  0
    1.6971   -4.0586    4.4914 C   0  0  2  0  0  0  0  0  0  0  0  0
    1.7115   -5.3981    4.0373 O   0  0  0  0  0  0  0  0  0  0  0  0
    1.7945   -5.9920    2.8829 C   0  0  0  0  0  0  0  0  0  0  0  0
    1.2925   -5.6159    1.8328 O   0  0  0  0  0  0  0  0  0  0  0  0
    2.4501   -7.3523    3.1037 C   0  0  1  0  0  0  0  0  0  0  0  0
    2.4504   -8.3957    1.9787 C   0  0  0  0  0  0  0  0  0  0  0  0
    1.4730   -8.4049    3.0204 O   0  0  0  0  0  0  0  0  0  0  0  0
    3.3796   -3.6048    4.8021 C   0  0  1  0  0  0  0  0  0  0  0  0
    2.7897   -4.0623    6.1821 C   0  0  1  0  0  0  0  0  0  0  0  0
    2.0556   -2.7424    6.9063 C   0  0  0  0  0  0  0  0  0  0  0  0
    4.3314   -2.8630    5.7069 N   0  0  0  0  0  0  0  0  0  0  0  0
    5.0542   -1.7405    5.1223 C   0  0  0  0  0  0  0  0  0  0  0  0
    5.1764   -3.8364    6.5297 C   0  0  1  0  0  0  0  0  0  0  0  0
    5.5416   -3.3191    7.9377 C   0  0  0  0  0  0  0  0  0  0  0  0
    4.4644   -5.3638    6.6049 C   0  0  2  0  0  0  0  0  0  0  0  0
   -0.0888   -5.6891    6.2212 C   0  0  0  0  0  0  0  0  0  0  0  0
   -0.5598   -6.8730    5.3754 C   0  0  0  0  0  0  0  0  0  0  0  0
   -1.2337   -5.4103    7.1875 C   0  0  0  0  0  0  0  0  0  0  0  0
    6.6317   -7.9912    6.7669 H   0  0  0  0  0  0  0  0  0  0  0  0
    6.9808   -6.6014    7.7978 H   0  0  0  0  0  0  0  0  0  0  0  0
    8.2354   -7.2763    6.7472 H   0  0  0  0  0  0  0  0  0  0  0  0
    6.1815   -4.2730    2.3153 H   0  0  0  0  0  0  0  0  0  0  0  0
    6.3074   -4.3047    3.9420 H   0  0  0  0  0  0  0  0  0  0  0  0
    6.7401   -6.5965    3.0193 H   0  0  0  0  0  0  0  0  0  0  0  0
    6.3104   -6.5924    0.9289 H   0  0  0  0  0  0  0  0  0  0  0  0
    5.1852   -7.7870    1.4356 H   0  0  0  0  0  0  0  0  0  0  0  0
    4.4845   -6.2004   -0.3495 H   0  0  0  0  0  0  0  0  0  0  0  0
    3.3384   -6.3976    0.8256 H   0  0  0  0  0  0  0  0  0  0  0  0
    3.0167   -4.6314   -1.1333 H   0  0  0  0  0  0  0  0  0  0  0  0
    2.0482   -3.8902    0.0980 H   0  0  0  0  0  0  0  0  0  0  0  0
    3.2854   -2.5377   -1.9895 H   0  0  0  0  0  0  0  0  0  0  0  0
    3.2329   -1.7614   -0.3659 H   0  0  0  0  0  0  0  0  0  0  0  0
    4.5533   -2.8590    2.1010 H   0  0  0  0  0  0  0  0  0  0  0  0
    1.6897   -3.0599    1.9318 H   0  0  0  0  0  0  0  0  0  0  0  0
    2.8015   -1.8371    1.3895 H   0  0  0  0  0  0  0  0  0  0  0  0
    2.6107   -2.0138    3.0933 H   0  0  0  0  0  0  0  0  0  0  0  0
    5.4398   -9.1310    3.5475 H   0  0  0  0  0  0  0  0  0  0  0  0
    5.4689   -8.9776    5.2816 H   0  0  0  0  0  0  0  0  0  0  0  0
    6.7877   -8.3615    4.3049 H   0  0  0  0  0  0  0  0  0  0  0  0
    3.3925   -8.5829    4.4100 H   0  0  0  0  0  0  0  0  0  0  0  0
    1.7299   -7.4227    5.6516 H   0  0  0  0  0  0  0  0  0  0  0  0
    4.2481   -8.0858    7.0487 H   0  0  0  0  0  0  0  0  0  0  0  0
    2.9373   -9.1467    6.5521 H   0  0  0  0  0  0  0  0  0  0  0  0
    2.6598   -7.9233    7.7730 H   0  0  0  0  0  0  0  0  0  0  0  0
    1.1923   -5.0375    7.8534 H   0  0  0  0  0  0  0  0  0  0  0  0
   -0.0767   -3.5950    5.8177 H   0  0  0  0  0  0  0  0  0  0  0  0
    1.1727   -3.4056    3.8132 H   0  0  0  0  0  0  0  0  0  0  0  0
    2.0555   -8.1601    0.9976 H   0  0  0  0  0  0  0  0  0  0  0  0
    3.1898   -9.1909    2.0291 H   0  0  0  0  0  0  0  0  0  0  0  0
    3.0827   -3.8863    7.2384 H   0  0  0  0  0  0  0  0  0  0  0  0
    1.5037   -2.1285    6.1929 H   0  0  0  0  0  0  0  0  0  0  0  0
    2.7313   -1.9984    7.3464 H   0  0  0  0  0  0  0  0  0  0  0  0
    1.3616   -2.9518    7.7140 H   0  0  0  0  0  0  0  0  0  0  0  0
    5.5892   -1.1926    5.8997 H   0  0  0  0  0  0  0  0  0  0  0  0
    4.3737   -1.0381    4.6313 H   0  0  0  0  0  0  0  0  0  0  0  0
    5.7890   -2.0860    4.3971 H   0  0  0  0  0  0  0  0  0  0  0  0
    6.1340   -3.8250    6.0331 H   0  0  0  0  0  0  0  0  0  0  0  0
    6.2267   -4.0111    8.4260 H   0  0  0  0  0  0  0  0  0  0  0  0
    4.6696   -3.2234    8.5825 H   0  0  0  0  0  0  0  0  0  0  0  0
    6.0350   -2.3525    7.8928 H   0  0  0  0  0  0  0  0  0  0  0  0
    4.7753   -5.8517    7.5226 H   0  0  0  0  0  0  0  0  0  0  0  0
   -1.5628   -6.6970    4.9866 H   0  0  0  0  0  0  0  0  0  0  0  0
   -0.5771   -7.7753    5.9800 H   0  0  0  0  0  0  0  0  0  0  0  0
    0.0434   -7.0701    4.5125 H   0  0  0  0  0  0  0  0  0  0  0  0
   -2.1836   -5.2873    6.6628 H   0  0  0  0  0  0  0  0  0  0  0  0
   -1.0672   -4.5023    7.7690 H   0  0  0  0  0  0  0  0  0  0  0  0
   -1.3212   -6.2184    7.9100 H   0  0  0  0  0  0  0  0  0  0  0  0
  1  2  1  0
  1 45  1  0
  1 46  1  0
  1 47  1  0
  2  3  2  0
  4  2  1  6
  4 19  1  0
  4 41  1  0
  4  5  1  0
  5  6  1  0
  6 17  1  0
  6 34  1  0
  6  7  1  1
  7  8  1  0
  7 48  1  0
  7 49  1  0
  8  9  1  0
  8 19  1  0
  8 50  1  1
  9 10  1  0
  9 51  1  0
  9 52  1  0
 10 11  1  0
 10 53  1  0
 10 54  1  0
 11 16  1  6
 11 12  1  0
 11 17  1  0
 12 13  1  0
 12 55  1  0
 12 56  1  0
 13 14  1  0
 13 57  1  0
 13 58  1  0
 14 15  2  0
 14 16  1  0
 17 18  1  0
 17 59  1  6
 18 60  1  0
 18 61  1  0
 18 62  1  0
 19 20  1  1
 19 21  1  0
 20 63  1  0
 20 64  1  0
 20 65  1  0
 21 31  1  0
 21 22  1  0
 21 66  1  1
 22 23  1  0
 24 22  1  6
 22 67  1  6
 23 68  1  0
 23 69  1  0
 23 70  1  0
 24 35  1  0
 24 41  1  0
 24 25  1  0
 25 42  1  0
 25 26  1  0
 25 71  1  1
 26 27  1  0
 26 42  1  0
 26 72  1  1
 27 28  1  0
 27 34  1  0
 27 73  1  6
 28 29  1  0
 29 30  2  0
 29 31  1  0
 31 33  1  1
 31 32  1  0
 32 33  1  0
 32 74  1  0
 32 75  1  0
 34 35  1  0
 34 37  1  1
 35 36  1  0
 35 76  1  1
 36 77  1  0
 36 78  1  0
 36 79  1  0
 37 38  1  0
 37 39  1  0
 38 80  1  0
 38 81  1  0
 38 82  1  0
 39 40  1  0
 39 41  1  0
 39 83  1  6
 40 84  1  0
 40 85  1  0
 40 86  1  0
 41 87  1  1
 42 43  1  0
 42 44  1  0
 43 88  1  0
 43 89  1  0
 43 90  1  0
 44 91  1  0
 44 92  1  0
 44 93  1  0
M  END
>  <i_m_ct_stereo_status>  (339) 
1

>  <s_m_source_file>  (339) 
/var/tmp/pbs.5076255.sched01/tmpjgl1obm9/123zpz496x9.sdf

>  <i_m_source_file_index>  (339) 
19

>  <i_lp_mmshare_version>  (339) 
48012

>  <i_f3d_flags>  (339) 
0

>  <s_epik_input>  (339) 
W0NAQF0xMjNDNDVbQ0BASF02W0NAQEhdN1tDQEBIXShDNyhbQ0gzXSlbQ0gzXSlDOChbQ0BASF00W0NIM10pW0NASF0oW0NASF0oW0NIM10pTjVbQ0gzXSlbQ0BAXShPMSkoQyg9TylbQ0gzXSlbQ0BAXShbQ0gzXSkoW0NAQEhdKFtDQEhdOFtDSDNdKVtDQEBdOShDKE82KT1PKVtDSDJdTzkpW0NASF0oW0NIMl0yKVtDSDJdW0NIMl1bQ0BdMShbQ0BIXTNbQ0gzXSlbQ0gyXVtDSDJdQyg9TylPMQ==

>  <s_epik_cmdline>  (339) 
J2VwaWtfcHl0aG9uJywgJy1waHQnLCAnMi4wJywgJy1waCcsICc3LjAnLCAnLXRuJywgJzgnLCAnLW1hJywgJzIwMCcsICctaW1hZScsICc8aW5maWxlLm1hZT4nLCAnLW9tYWUnLCAnPG91dGZpbGUubWFlPic=

>  <r_lp_tautomer_probability>  (339) 
0.99995

>  <r_epik_Ionization_Penalty>  (339) 
0.00386144

>  <r_epik_Ionization_Penalty_Charging>  (339) 
0

>  <r_epik_Ionization_Penalty_Neutral>  (339) 
0.00386144

>  <r_epik_State_Penalty>  (339) 
0.00275814

>  <r_epik_Charging_Adjusted_Penalty>  (339) 
0.00275814

>  <i_epik_Tot_Q>  (339) 
0

>  <i_epik_Tot_abs_Q>  (339) 
0

>  <s_epik_Chemistry_Notes>  (339) 
This compound has an ester and may undergo hydrolysis at high or low pH.

>  <s_lp_Force_Field>  (339) 
OPLS3e

>  <r_lp_Energy>  (339) 
726.759

>  <b_lp_Chiralities_Consistent>  (339) 
1

>  <s_lp_Variant>  (339) 
103:0-1

>  <s_i_glide_gridfile>  (339) 
pfpi4k_grid

>  <i_i_glide_lignum>  (339) 
19

>  <i_i_glide_rotatable_bonds>  (339) 
1

>  <r_i_docking_score>  (339) 
-1.92076

>  <r_i_glide_ligand_efficiency>  (339) 
-0.0436537

>  <r_i_glide_ligand_efficiency_sa>  (339) 
-0.154113

>  <r_i_glide_ligand_efficiency_ln>  (339) 
-0.401481

>  <r_i_glide_gscore>  (339) 
-1.92076

>  <r_i_glide_lipo>  (339) 
-0.332128

>  <r_i_glide_hbond>  (339) 
-0.127817

>  <r_i_glide_metal>  (339) 
-0

>  <r_i_glide_rewards>  (339) 
-0.00384049

>  <r_i_glide_evdw>  (339) 
-18.4964

>  <r_i_glide_ecoul>  (339) 
-3.42961

>  <r_i_glide_erotb>  (339) 
0

>  <r_i_glide_esite>  (339) 
-0.0177144

>  <r_i_glide_emodel>  (339) 
-22.9263

>  <r_i_glide_energy>  (339) 
-21.926

>  <r_i_glide_einternal>  (339) 
0.0457965

>  <r_i_glide_intrahb_reward>  (339) 
-0

>  <i_i_glide_confnum>  (339) 
1

>  <i_i_glide_posenum>  (339) 
26

>  <r_i_glide_eff_state_penalty>  (339) 
0

>  <ligand_id>  (339) 
103

>  <original_smiles>  (339) 
CC(=O)C12OC34CC(CCC5(CCC(=O)O5)C3C)C1(C)C1C(C)C35C6C(C(OC(=O)C17CO7)C4(C3C)N(C)C(C)C52)C6(C)C

>  <smiles>  (339) 
[H]C([H])([H])C(=O)C12OC34C([H])([H])C([H])(C([H])([H])C([H])([H])C5(OC(=O)C([H])([H])C5([H])[H])C3([H])C([H])([H])[H])C1(C([H])([H])[H])C1([H])C3(OC3([H])[H])C(=O)OC3([H])C5([H])C([H])(C5(C([H])([H])[H])C([H])([H])[H])C5(C2([H])C([H])(C([H])([H])[H])N(C([H])([H])[H])C34C5([H])C([H])([H])[H])C1([H])C([H])([H])[H]

$$$$
103:0:1
     RDKit          3D

 93102  0  0  1  0  0  0  0  0999 V2000
    6.1281   -7.8226    7.3453 C   0  0  0  0  0  0  0  0  0  0  0  0
    5.9754   -6.7177    6.3059 C   0  0  0  0  0  0  0  0  0  0  0  0
    6.8543   -5.8654    6.2836 O   0  0  0  0  0  0  0  0  0  0  0  0
    4.6961   -6.8603    5.3432 C   0  0  1  0  0  0  0  0  0  0  0  0
    4.0511   -6.0341    4.2353 O   0  0  0  0  0  0  0  0  0  0  0  0
    4.0522   -4.7059    3.7643 C   0  0  1  0  0  0  0  0  0  0  0  0
    5.6014   -4.8683    3.9200 C   0  0  0  0  0  0  0  0  0  0  0  0
    6.1369   -6.3060    3.3712 C   0  0  2  0  0  0  0  0  0  0  0  0
    6.5202   -6.2640    1.8850 C   0  0  0  0  0  0  0  0  0  0  0  0
    5.6280   -5.5074    0.8688 C   0  0  0  0  0  0  0  0  0  0  0  0
    5.0037   -4.1173    1.0998 C   0  0  2  0  0  0  0  0  0  0  0  0
    4.2868   -3.6139   -0.1965 C   0  0  0  0  0  0  0  0  0  0  0  0
    5.3644   -2.8005   -0.9492 C   0  0  0  0  0  0  0  0  0  0  0  0
    6.3274   -2.4303    0.1591 C   0  0  0  0  0  0  0  0  0  0  0  0
    7.1577   -1.5291    0.0844 O   0  0  0  0  0  0  0  0  0  0  0  0
    6.0831   -3.1979    1.2387 O   0  0  0  0  0  0  0  0  0  0  0  0
    3.9989   -3.9015    2.3540 C   0  0  1  0  0  0  0  0  0  0  0  0
    2.7003   -3.1066    2.0603 C   0  0  0  0  0  0  0  0  0  0  0  0
    5.2279   -7.5482    4.0100 C   0  0  1  0  0  0  0  0  0  0  0  0
    6.2494   -8.7130    4.1995 C   0  0  0  0  0  0  0  0  0  0  0  0
    3.9443   -8.2494    3.3374 C   0  0  1  0  0  0  0  0  0  0  0  0
    2.7386   -8.4499    4.3674 C   0  0  1  0  0  0  0  0  0  0  0  0
    3.0092   -9.6393    5.3121 C   0  0  0  0  0  0  0  0  0  0  0  0
    2.1094   -7.2724    5.2918 C   0  0  2  0  0  0  0  0  0  0  0  0
    0.5239   -7.3688    5.0017 C   0  0  1  0  0  0  0  0  0  0  0  0
    0.0669   -6.3553    3.7739 C   0  0  1  0  0  0  0  0  0  0  0  0
    1.3846   -5.3923    3.4082 C   0  0  2  0  0  0  0  0  0  0  0  0
    1.9574   -6.5054    2.7579 O   0  0  0  0  0  0  0  0  0  0  0  0
    2.6204   -6.6807    1.6677 C   0  0  0  0  0  0  0  0  0  0  0  0
    2.4388   -6.0727    0.6150 O   0  0  0  0  0  0  0  0  0  0  0  0
    3.5262   -7.9075    1.8641 C   0  0  1  0  0  0  0  0  0  0  0  0
    4.2624   -8.5473    0.6854 C   0  0  0  0  0  0  0  0  0  0  0  0
    3.0346   -9.0398    1.1753 O   0  0  0  0  0  0  0  0  0  0  0  0
    2.5914   -4.7572    4.5158 C   0  0  1  0  0  0  0  0  0  0  0  0
    1.7058   -5.7173    5.3713 C   0  0  1  0  0  0  0  0  0  0  0  0
    0.3901   -4.8516    5.9412 C   0  0  0  0  0  0  0  0  0  0  0  0
    2.8649   -4.1636    5.8633 N   0  0  0  0  0  0  0  0  0  0  0  0
    3.3807   -2.8039    5.9003 C   0  0  0  0  0  0  0  0  0  0  0  0
    3.5921   -5.1622    6.7711 C   0  0  1  0  0  0  0  0  0  0  0  0
    3.2337   -5.0494    8.2664 C   0  0  0  0  0  0  0  0  0  0  0  0
    3.4026   -6.7570    6.2161 C   0  0  2  0  0  0  0  0  0  0  0  0
   -0.3413   -7.8010    3.8048 C   0  0  0  0  0  0  0  0  0  0  0  0
   -0.0952   -8.7319    2.6282 C   0  0  0  0  0  0  0  0  0  0  0  0
   -1.7962   -8.0445    4.1682 C   0  0  0  0  0  0  0  0  0  0  0  0
    5.9022   -8.7972    6.9265 H   0  0  0  0  0  0  0  0  0  0  0  0
    5.4561   -7.6428    8.1920 H   0  0  0  0  0  0  0  0  0  0  0  0
    7.1455   -7.8419    7.7190 H   0  0  0  0  0  0  0  0  0  0  0  0
    6.1734   -4.1154    3.4059 H   0  0  0  0  0  0  0  0  0  0  0  0
    5.8195   -4.5151    4.9145 H   0  0  0  0  0  0  0  0  0  0  0  0
    7.1102   -6.3845    3.8366 H   0  0  0  0  0  0  0  0  0  0  0  0
    7.5087   -5.8181    1.8268 H   0  0  0  0  0  0  0  0  0  0  0  0
    6.6886   -7.2957    1.5384 H   0  0  0  0  0  0  0  0  0  0  0  0
    6.2628   -5.4024   -0.0131 H   0  0  0  0  0  0  0  0  0  0  0  0
    4.8825   -6.1678    0.4739 H   0  0  0  0  0  0  0  0  0  0  0  0
    3.9794   -4.4802   -0.8204 H   0  0  0  0  0  0  0  0  0  0  0  0
    3.4679   -2.9283   -0.0518 H   0  0  0  0  0  0  0  0  0  0  0  0
    5.8754   -3.3502   -1.7546 H   0  0  0  0  0  0  0  0  0  0  0  0
    4.8787   -1.9192   -1.3535 H   0  0  0  0  0  0  0  0  0  0  0  0
    4.4419   -3.0095    2.8036 H   0  0  0  0  0  0  0  0  0  0  0  0
    2.0746   -3.6288    1.3339 H   0  0  0  0  0  0  0  0  0  0  0  0
    2.9675   -2.1724    1.5476 H   0  0  0  0  0  0  0  0  0  0  0  0
    2.1199   -2.8630    2.9078 H   0  0  0  0  0  0  0  0  0  0  0  0
    6.5189   -9.1520    3.2393 H   0  0  0  0  0  0  0  0  0  0  0  0
    5.8552   -9.5249    4.8103 H   0  0  0  0  0  0  0  0  0  0  0  0
    7.1935   -8.4083    4.6443 H   0  0  0  0  0  0  0  0  0  0  0  0
    4.2356   -9.2721    3.1871 H   0  0  0  0  0  0  0  0  0  0  0  0
    1.9713   -8.8953    3.7692 H   0  0  0  0  0  0  0  0  0  0  0  0
    3.8514   -9.4705    5.9714 H   0  0  0  0  0  0  0  0  0  0  0  0
    3.2072  -10.5544    4.7483 H   0  0  0  0  0  0  0  0  0  0  0  0
    2.1411   -9.8383    5.9364 H   0  0  0  0  0  0  0  0  0  0  0  0
   -0.0344   -7.4470    5.9298 H   0  0  0  0  0  0  0  0  0  0  0  0
   -0.8061   -5.7461    3.9363 H   0  0  0  0  0  0  0  0  0  0  0  0
    0.9995   -4.6673    2.7015 H   0  0  0  0  0  0  0  0  0  0  0  0
    4.2267   -8.0969   -0.2995 H   0  0  0  0  0  0  0  0  0  0  0  0
    5.1330   -9.1641    0.8979 H   0  0  0  0  0  0  0  0  0  0  0  0
    1.5054   -5.8279    6.4541 H   0  0  0  0  0  0  0  0  0  0  0  0
   -0.0139   -4.1634    5.1922 H   0  0  0  0  0  0  0  0  0  0  0  0
    0.5919   -4.1653    6.7696 H   0  0  0  0  0  0  0  0  0  0  0  0
   -0.4620   -5.4245    6.2992 H   0  0  0  0  0  0  0  0  0  0  0  0
    3.4021   -2.4311    6.9267 H   0  0  0  0  0  0  0  0  0  0  0  0
    2.7680   -2.1279    5.3131 H   0  0  0  0  0  0  0  0  0  0  0  0
    4.4104   -2.7681    5.5258 H   0  0  0  0  0  0  0  0  0  0  0  0
    4.6124   -4.8305    6.7535 H   0  0  0  0  0  0  0  0  0  0  0  0
    3.8581   -5.7149    8.8569 H   0  0  0  0  0  0  0  0  0  0  0  0
    2.1974   -5.3237    8.4663 H   0  0  0  0  0  0  0  0  0  0  0  0
    3.3921   -4.0418    8.6355 H   0  0  0  0  0  0  0  0  0  0  0  0
    3.4625   -7.4279    7.0587 H   0  0  0  0  0  0  0  0  0  0  0  0
   -0.8912   -8.6374    1.8790 H   0  0  0  0  0  0  0  0  0  0  0  0
   -0.0919   -9.7692    2.9801 H   0  0  0  0  0  0  0  0  0  0  0  0
    0.8096   -8.5442    2.0971 H   0  0  0  0  0  0  0  0  0  0  0  0
   -2.4707   -7.9443    3.3161 H   0  0  0  0  0  0  0  0  0  0  0  0
   -2.1410   -7.3247    4.9059 H   0  0  0  0  0  0  0  0  0  0  0  0
   -1.9123   -9.0473    4.5809 H   0  0  0  0  0  0  0  0  0  0  0  0
  1  2  1  0
  1 45  1  0
  1 46  1  0
  1 47  1  0
  2  3  2  0
  4  2  1  1
  4 19  1  0
  4 41  1  0
  4  5  1  0
  5  6  1  0
  6 17  1  0
  6 34  1  0
  6  7  1  1
  7  8  1  0
  7 48  1  0
  7 49  1  0
  8  9  1  0
  8 19  1  0
  8 50  1  1
  9 10  1  0
  9 51  1  0
  9 52  1  0
 10 11  1  0
 10 53  1  0
 10 54  1  0
 11 16  1  1
 11 12  1  0
 11 17  1  0
 12 13  1  0
 12 55  1  0
 12 56  1  0
 13 14  1  0
 13 57  1  0
 13 58  1  0
 14 15  2  0
 14 16  1  0
 17 18  1  0
 17 59  1  1
 18 60  1  0
 18 61  1  0
 18 62  1  0
 19 20  1  1
 19 21  1  0
 20 63  1  0
 20 64  1  0
 20 65  1  0
 21 31  1  0
 21 22  1  0
 21 66  1  6
 22 23  1  0
 24 22  1  6
 22 67  1  6
 23 68  1  0
 23 69  1  0
 23 70  1  0
 24 35  1  0
 24 41  1  0
 24 25  1  0
 25 42  1  0
 25 26  1  0
 25 71  1  1
 26 27  1  0
 26 42  1  0
 26 72  1  1
 27 28  1  0
 27 34  1  0
 27 73  1  6
 28 29  1  0
 29 30  2  0
 29 31  1  0
 31 33  1  1
 31 32  1  0
 32 33  1  0
 32 74  1  0
 32 75  1  0
 34 35  1  0
 34 37  1  1
 35 36  1  0
 35 76  1  1
 36 77  1  0
 36 78  1  0
 36 79  1  0
 37 38  1  0
 37 39  1  0
 38 80  1  0
 38 81  1  0
 38 82  1  0
 39 40  1  0
 39 41  1  0
 39 83  1  1
 40 84  1  0
 40 85  1  0
 40 86  1  0
 41 87  1  1
 42 43  1  0
 42 44  1  0
 43 88  1  0
 43 89  1  0
 43 90  1  0
 44 91  1  0
 44 92  1  0
 44 93  1  0
M  END
>  <i_m_ct_stereo_status>  (340) 
1

>  <s_m_source_file>  (340) 
/var/tmp/pbs.5076255.sched01/tmpjgl1obm9/123zpz496x9.sdf

>  <i_m_source_file_index>  (340) 
19

>  <i_lp_mmshare_version>  (340) 
48012

>  <i_f3d_flags>  (340) 
0

>  <s_epik_input>  (340) 
W0NAQF0xMjNDNDVbQ0BASF02W0NAQEhdN1tDQEBIXShDNyhbQ0gzXSlbQ0gzXSlDOChbQ0BASF00W0NIM10pW0NASF0oW0NASF0oW0NIM10pTjVbQ0gzXSlbQ0BAXShPMSkoQyg9TylbQ0gzXSlbQ0BAXShbQ0gzXSkoW0NAQEhdKFtDQEhdOFtDSDNdKVtDQEBdOShDKE82KT1PKVtDSDJdTzkpW0NASF0oW0NIMl0yKVtDSDJdW0NIMl1bQ0BdMShbQ0BIXTNbQ0gzXSlbQ0gyXVtDSDJdQyg9TylPMQ==

>  <s_epik_cmdline>  (340) 
J2VwaWtfcHl0aG9uJywgJy1waHQnLCAnMi4wJywgJy1waCcsICc3LjAnLCAnLXRuJywgJzgnLCAnLW1hJywgJzIwMCcsICctaW1hZScsICc8aW5maWxlLm1hZT4nLCAnLW9tYWUnLCAnPG91dGZpbGUubWFlPic=

>  <r_lp_tautomer_probability>  (340) 
0.99995

>  <r_epik_Ionization_Penalty>  (340) 
0.00386144

>  <r_epik_Ionization_Penalty_Charging>  (340) 
0

>  <r_epik_Ionization_Penalty_Neutral>  (340) 
0.00386144

>  <r_epik_State_Penalty>  (340) 
0.00275814

>  <r_epik_Charging_Adjusted_Penalty>  (340) 
0.00275814

>  <i_epik_Tot_Q>  (340) 
0

>  <i_epik_Tot_abs_Q>  (340) 
0

>  <s_epik_Chemistry_Notes>  (340) 
This compound has an ester and may undergo hydrolysis at high or low pH.

>  <s_lp_Force_Field>  (340) 
OPLS3e

>  <r_lp_Energy>  (340) 
726.759

>  <b_lp_Chiralities_Consistent>  (340) 
1

>  <s_lp_Variant>  (340) 
103:0-1

>  <s_i_glide_gridfile>  (340) 
pfpi4k_grid

>  <i_i_glide_lignum>  (340) 
19

>  <i_i_glide_rotatable_bonds>  (340) 
1

>  <r_i_docking_score>  (340) 
-1.91892

>  <r_i_glide_ligand_efficiency>  (340) 
-0.0436119

>  <r_i_glide_ligand_efficiency_sa>  (340) 
-0.153965

>  <r_i_glide_ligand_efficiency_ln>  (340) 
-0.401097

>  <r_i_glide_gscore>  (340) 
-1.91892

>  <r_i_glide_lipo>  (340) 
-0.211525

>  <r_i_glide_hbond>  (340) 
-0.0966843

>  <r_i_glide_metal>  (340) 
-0

>  <r_i_glide_rewards>  (340) 
-0.0553016

>  <r_i_glide_evdw>  (340) 
-25.7222

>  <r_i_glide_ecoul>  (340) 
-1.77492

>  <r_i_glide_erotb>  (340) 
0

>  <r_i_glide_esite>  (340) 
-0.00306285

>  <r_i_glide_emodel>  (340) 
-27.7605

>  <r_i_glide_energy>  (340) 
-27.4971

>  <r_i_glide_einternal>  (340) 
0.0325267

>  <r_i_glide_intrahb_reward>  (340) 
-0

>  <i_i_glide_confnum>  (340) 
4

>  <i_i_glide_posenum>  (340) 
39

>  <r_i_glide_eff_state_penalty>  (340) 
0

>  <ligand_id>  (340) 
103

>  <original_smiles>  (340) 
CC(=O)C12OC34CC(CCC5(CCC(=O)O5)C3C)C1(C)C1C(C)C35C6C(C(OC(=O)C17CO7)C4(C3C)N(C)C(C)C52)C6(C)C

>  <smiles>  (340) 
[H]C([H])([H])C(=O)C12OC34C([H])([H])C([H])(C([H])([H])C([H])([H])C5(OC(=O)C([H])([H])C5([H])[H])C3([H])C([H])([H])[H])C1(C([H])([H])[H])C1([H])C3(OC3([H])[H])C(=O)OC3([H])C5([H])C([H])(C5(C([H])([H])[H])C([H])([H])[H])C5(C2([H])C([H])(C([H])([H])[H])N(C([H])([H])[H])C34C5([H])C([H])([H])[H])C1([H])C([H])([H])[H]

$$$$
103:0:2
     RDKit          3D

 93102  0  0  1  0  0  0  0  0999 V2000
    6.7231   -6.9893    7.0670 C   0  0  0  0  0  0  0  0  0  0  0  0
    6.3664   -5.9483    6.0099 C   0  0  0  0  0  0  0  0  0  0  0  0
    7.1271   -4.9905    5.9094 O   0  0  0  0  0  0  0  0  0  0  0  0
    5.0621   -6.2775    5.1402 C   0  0  1  0  0  0  0  0  0  0  0  0
    4.2709   -5.5884    4.0364 O   0  0  0  0  0  0  0  0  0  0  0  0
    4.1293   -4.3236    3.4272 C   0  0  1  0  0  0  0  0  0  0  0  0
    5.6784   -4.3263    3.5122 C   0  0  0  0  0  0  0  0  0  0  0  0
    6.3154   -5.7575    3.0540 C   0  0  2  0  0  0  0  0  0  0  0  0
    6.6035   -5.8194    1.5414 C   0  0  0  0  0  0  0  0  0  0  0  0
    5.5843   -5.2203    0.5233 C   0  0  0  0  0  0  0  0  0  0  0  0
    4.8424   -3.8578    0.7014 C   0  0  2  0  0  0  0  0  0  0  0  0
    4.0870   -3.5029   -0.6033 C   0  0  0  0  0  0  0  0  0  0  0  0
    4.2285   -1.9918   -0.7763 C   0  0  0  0  0  0  0  0  0  0  0  0
    5.5152   -1.7611   -0.0130 C   0  0  0  0  0  0  0  0  0  0  0  0
    6.1504   -0.7007   -0.0145 O   0  0  0  0  0  0  0  0  0  0  0  0
    5.8425   -2.8390    0.6808 O   0  0  0  0  0  0  0  0  0  0  0  0
    3.8865   -3.6373    1.9998 C   0  0  1  0  0  0  0  0  0  0  0  0
    2.4930   -3.0098    1.7509 C   0  0  0  0  0  0  0  0  0  0  0  0
    5.5576   -7.0231    3.8346 C   0  0  1  0  0  0  0  0  0  0  0  0
    6.6901   -8.0808    4.0405 C   0  0  0  0  0  0  0  0  0  0  0  0
    4.3027   -7.8756    3.3087 C   0  0  1  0  0  0  0  0  0  0  0  0
    3.1798   -8.0896    4.4292 C   0  0  1  0  0  0  0  0  0  0  0  0
    3.6123   -9.1738    5.4397 C   0  0  0  0  0  0  0  0  0  0  0  0
    2.5051   -6.8951    5.2990 C   0  0  2  0  0  0  0  0  0  0  0  0
    0.9221   -7.1358    5.1215 C   0  0  1  0  0  0  0  0  0  0  0  0
    0.2964   -6.2749    3.8613 C   0  0  1  0  0  0  0  0  0  0  0  0
    1.5059   -5.2594    3.3332 C   0  0  2  0  0  0  0  0  0  0  0  0
    2.1422   -6.3614    2.7237 O   0  0  0  0  0  0  0  0  0  0  0  0
    2.7455   -6.5685    1.6015 C   0  0  0  0  0  0  0  0  0  0  0  0
    2.4534   -6.0702    0.5252 O   0  0  0  0  0  0  0  0  0  0  0  0
    3.7780   -7.6963    1.8374 C   0  0  1  0  0  0  0  0  0  0  0  0
    4.4863   -8.3576    0.6809 C   0  0  0  0  0  0  0  0  0  0  0  0
    3.3313   -8.9233    1.2711 O   0  0  0  0  0  0  0  0  0  0  0  0
    2.7190   -4.4239    4.2972 C   0  0  1  0  0  0  0  0  0  0  0  0
    1.9707   -5.3782    5.2881 C   0  0  1  0  0  0  0  0  0  0  0  0
    0.6197   -4.5760    5.8721 C   0  0  0  0  0  0  0  0  0  0  0  0
    3.0306   -3.7062    5.5874 N   0  0  0  0  0  0  0  0  0  0  0  0
    3.4309   -2.3021    5.4751 C   0  0  0  0  0  0  0  0  0  0  0  0
    3.8979   -4.5601    6.5112 C   0  0  1  0  0  0  0  0  0  0  0  0
    3.6080   -4.3504    8.0103 C   0  0  0  0  0  0  0  0  0  0  0  0
    3.7994   -6.2021    6.0935 C   0  0  2  0  0  0  0  0  0  0  0  0
    0.0224   -7.7421    4.0179 C   0  0  0  0  0  0  0  0  0  0  0  0
    0.2828   -8.7530    2.9035 C   0  0  0  0  0  0  0  0  0  0  0  0
   -1.3823   -8.0779    4.5180 C   0  0  0  0  0  0  0  0  0  0  0  0
    6.5932   -8.0025    6.6926 H   0  0  0  0  0  0  0  0  0  0  0  0
    6.1003   -6.8609    7.9505 H   0  0  0  0  0  0  0  0  0  0  0  0
    7.7671   -6.8721    7.3566 H   0  0  0  0  0  0  0  0  0  0  0  0
    6.1616   -3.5738    2.9063 H   0  0  0  0  0  0  0  0  0  0  0  0
    5.9268   -3.8849    4.4665 H   0  0  0  0  0  0  0  0  0  0  0  0
    7.3288   -5.7206    3.4573 H   0  0  0  0  0  0  0  0  0  0  0  0
    7.5461   -5.2895    1.3782 H   0  0  0  0  0  0  0  0  0  0  0  0
    6.8421   -6.8490    1.2623 H   0  0  0  0  0  0  0  0  0  0  0  0
    6.1705   -5.1239   -0.3912 H   0  0  0  0  0  0  0  0  0  0  0  0
    4.8739   -5.9653    0.2232 H   0  0  0  0  0  0  0  0  0  0  0  0
    4.5735   -3.9921   -1.4462 H   0  0  0  0  0  0  0  0  0  0  0  0
    3.0622   -3.8659   -0.6190 H   0  0  0  0  0  0  0  0  0  0  0  0
    4.2680   -1.6921   -1.8302 H   0  0  0  0  0  0  0  0  0  0  0  0
    3.4689   -1.3951   -0.2944 H   0  0  0  0  0  0  0  0  0  0  0  0
    4.2828   -2.6841    2.3534 H   0  0  0  0  0  0  0  0  0  0  0  0
    1.8690   -3.6500    1.1524 H   0  0  0  0  0  0  0  0  0  0  0  0
    2.5333   -2.0723    1.2407 H   0  0  0  0  0  0  0  0  0  0  0  0
    1.9599   -2.7485    2.6790 H   0  0  0  0  0  0  0  0  0  0  0  0
    6.9393   -8.5668    3.0988 H   0  0  0  0  0  0  0  0  0  0  0  0
    6.3999   -8.8703    4.7313 H   0  0  0  0  0  0  0  0  0  0  0  0
    7.6271   -7.6614    4.4018 H   0  0  0  0  0  0  0  0  0  0  0  0
    4.6799   -8.8939    3.2145 H   0  0  0  0  0  0  0  0  0  0  0  0
    2.4246   -8.6439    3.9171 H   0  0  0  0  0  0  0  0  0  0  0  0
    4.4771   -8.8776    6.0301 H   0  0  0  0  0  0  0  0  0  0  0  0
    3.8551  -10.1100    4.9370 H   0  0  0  0  0  0  0  0  0  0  0  0
    2.8008   -9.3871    6.1356 H   0  0  0  0  0  0  0  0  0  0  0  0
    0.4282   -7.1913    6.0895 H   0  0  0  0  0  0  0  0  0  0  0  0
   -0.6091   -5.7058    3.9971 H   0  0  0  0  0  0  0  0  0  0  0  0
    1.0000   -4.6361    2.6173 H   0  0  0  0  0  0  0  0  0  0  0  0
    4.3534   -7.9949   -0.3434 H   0  0  0  0  0  0  0  0  0  0  0  0
    5.4231   -8.8894    0.8744 H   0  0  0  0  0  0  0  0  0  0  0  0
    1.8475   -5.4158    6.3918 H   0  0  0  0  0  0  0  0  0  0  0  0
    0.1245   -3.9869    5.0974 H   0  0  0  0  0  0  0  0  0  0  0  0
    0.8196   -3.8101    6.6300 H   0  0  0  0  0  0  0  0  0  0  0  0
   -0.1533   -5.1903    6.3266 H   0  0  0  0  0  0  0  0  0  0  0  0
    3.4704   -1.8447    6.4632 H   0  0  0  0  0  0  0  0  0  0  0  0
    2.7165   -1.7280    4.8728 H   0  0  0  0  0  0  0  0  0  0  0  0
    4.4207   -2.2111    5.0281 H   0  0  0  0  0  0  0  0  0  0  0  0
    4.8833   -4.1353    6.4003 H   0  0  0  0  0  0  0  0  0  0  0  0
    4.3245   -4.9124    8.6087 H   0  0  0  0  0  0  0  0  0  0  0  0
    2.6111   -4.6876    8.2982 H   0  0  0  0  0  0  0  0  0  0  0  0
    3.7030   -3.2997    8.2907 H   0  0  0  0  0  0  0  0  0  0  0  0
    3.9822   -6.7949    6.9864 H   0  0  0  0  0  0  0  0  0  0  0  0
   -0.5575   -8.7787    2.2110 H   0  0  0  0  0  0  0  0  0  0  0  0
    0.4015   -9.7445    3.3358 H   0  0  0  0  0  0  0  0  0  0  0  0
    1.1401   -8.5275    2.3002 H   0  0  0  0  0  0  0  0  0  0  0  0
   -2.1069   -8.1007    3.7040 H   0  0  0  0  0  0  0  0  0  0  0  0
   -1.7214   -7.3260    5.2301 H   0  0  0  0  0  0  0  0  0  0  0  0
   -1.3697   -9.0628    5.0076 H   0  0  0  0  0  0  0  0  0  0  0  0
  1  2  1  0
  1 45  1  0
  1 46  1  0
  1 47  1  0
  2  3  2  0
  4  2  1  1
  4 19  1  0
  4 41  1  0
  4  5  1  0
  5  6  1  0
  6 17  1  0
  6 34  1  0
  6  7  1  1
  7  8  1  0
  7 48  1  0
  7 49  1  0
  8  9  1  0
  8 19  1  0
  8 50  1  1
  9 10  1  0
  9 51  1  0
  9 52  1  0
 10 11  1  0
 10 53  1  0
 10 54  1  0
 11 16  1  1
 11 12  1  0
 11 17  1  0
 12 13  1  0
 12 55  1  0
 12 56  1  0
 13 14  1  0
 13 57  1  0
 13 58  1  0
 14 15  2  0
 14 16  1  0
 17 18  1  0
 17 59  1  1
 18 60  1  0
 18 61  1  0
 18 62  1  0
 19 20  1  1
 19 21  1  0
 20 63  1  0
 20 64  1  0
 20 65  1  0
 21 31  1  0
 21 22  1  0
 21 66  1  6
 22 23  1  0
 24 22  1  6
 22 67  1  6
 23 68  1  0
 23 69  1  0
 23 70  1  0
 24 35  1  0
 24 41  1  0
 24 25  1  0
 25 42  1  0
 25 26  1  0
 25 71  1  1
 26 27  1  0
 26 42  1  0
 26 72  1  1
 27 28  1  0
 27 34  1  0
 27 73  1  6
 28 29  1  0
 29 30  2  0
 29 31  1  0
 31 33  1  1
 31 32  1  0
 32 33  1  0
 32 74  1  0
 32 75  1  0
 34 35  1  0
 34 37  1  1
 35 36  1  0
 35 76  1  1
 36 77  1  0
 36 78  1  0
 36 79  1  0
 37 38  1  0
 37 39  1  0
 38 80  1  0
 38 81  1  0
 38 82  1  0
 39 40  1  0
 39 41  1  0
 39 83  1  1
 40 84  1  0
 40 85  1  0
 40 86  1  0
 41 87  1  1
 42 43  1  0
 42 44  1  0
 43 88  1  0
 43 89  1  0
 43 90  1  0
 44 91  1  0
 44 92  1  0
 44 93  1  0
M  END
>  <i_m_ct_stereo_status>  (341) 
1

>  <s_m_source_file>  (341) 
/var/tmp/pbs.5076255.sched01/tmpjgl1obm9/123zpz496x9.sdf

>  <i_m_source_file_index>  (341) 
19

>  <i_lp_mmshare_version>  (341) 
48012

>  <i_f3d_flags>  (341) 
0

>  <s_epik_input>  (341) 
W0NAQF0xMjNDNDVbQ0BASF02W0NAQEhdN1tDQEBIXShDNyhbQ0gzXSlbQ0gzXSlDOChbQ0BASF00W0NIM10pW0NASF0oW0NASF0oW0NIM10pTjVbQ0gzXSlbQ0BAXShPMSkoQyg9TylbQ0gzXSlbQ0BAXShbQ0gzXSkoW0NAQEhdKFtDQEhdOFtDSDNdKVtDQEBdOShDKE82KT1PKVtDSDJdTzkpW0NASF0oW0NIMl0yKVtDSDJdW0NIMl1bQ0BdMShbQ0BIXTNbQ0gzXSlbQ0gyXVtDSDJdQyg9TylPMQ==

>  <s_epik_cmdline>  (341) 
J2VwaWtfcHl0aG9uJywgJy1waHQnLCAnMi4wJywgJy1waCcsICc3LjAnLCAnLXRuJywgJzgnLCAnLW1hJywgJzIwMCcsICctaW1hZScsICc8aW5maWxlLm1hZT4nLCAnLW9tYWUnLCAnPG91dGZpbGUubWFlPic=

>  <r_lp_tautomer_probability>  (341) 
0.99995

>  <r_epik_Ionization_Penalty>  (341) 
0.00386144

>  <r_epik_Ionization_Penalty_Charging>  (341) 
0

>  <r_epik_Ionization_Penalty_Neutral>  (341) 
0.00386144

>  <r_epik_State_Penalty>  (341) 
0.00275814

>  <r_epik_Charging_Adjusted_Penalty>  (341) 
0.00275814

>  <i_epik_Tot_Q>  (341) 
0

>  <i_epik_Tot_abs_Q>  (341) 
0

>  <s_epik_Chemistry_Notes>  (341) 
This compound has an ester and may undergo hydrolysis at high or low pH.

>  <s_lp_Force_Field>  (341) 
OPLS3e

>  <r_lp_Energy>  (341) 
726.759

>  <b_lp_Chiralities_Consistent>  (341) 
1

>  <s_lp_Variant>  (341) 
103:0-1

>  <s_i_glide_gridfile>  (341) 
pfpi4k_grid

>  <i_i_glide_lignum>  (341) 
19

>  <i_i_glide_rotatable_bonds>  (341) 
1

>  <r_i_docking_score>  (341) 
-1.75381

>  <r_i_glide_ligand_efficiency>  (341) 
-0.0398594

>  <r_i_glide_ligand_efficiency_sa>  (341) 
-0.140717

>  <r_i_glide_ligand_efficiency_ln>  (341) 
-0.366585

>  <r_i_glide_gscore>  (341) 
-1.75381

>  <r_i_glide_lipo>  (341) 
-0.290616

>  <r_i_glide_hbond>  (341) 
-0.0141016

>  <r_i_glide_metal>  (341) 
-0

>  <r_i_glide_rewards>  (341) 
-0.00558466

>  <r_i_glide_evdw>  (341) 
-25.0444

>  <r_i_glide_ecoul>  (341) 
-1.26085

>  <r_i_glide_erotb>  (341) 
0

>  <r_i_glide_esite>  (341) 
-0.0021611

>  <r_i_glide_emodel>  (341) 
-27.1425

>  <r_i_glide_energy>  (341) 
-26.3053

>  <r_i_glide_einternal>  (341) 
0.00915501

>  <r_i_glide_intrahb_reward>  (341) 
-0

>  <i_i_glide_confnum>  (341) 
1

>  <i_i_glide_posenum>  (341) 
31

>  <r_i_glide_eff_state_penalty>  (341) 
0

>  <ligand_id>  (341) 
103

>  <original_smiles>  (341) 
CC(=O)C12OC34CC(CCC5(CCC(=O)O5)C3C)C1(C)C1C(C)C35C6C(C(OC(=O)C17CO7)C4(C3C)N(C)C(C)C52)C6(C)C

>  <smiles>  (341) 
[H]C([H])([H])C(=O)C12OC34C([H])([H])C([H])(C([H])([H])C([H])([H])C5(OC(=O)C([H])([H])C5([H])[H])C3([H])C([H])([H])[H])C1(C([H])([H])[H])C1([H])C3(OC3([H])[H])C(=O)OC3([H])C5([H])C([H])(C5(C([H])([H])[H])C([H])([H])[H])C5(C2([H])C([H])(C([H])([H])[H])N(C([H])([H])[H])C34C5([H])C([H])([H])[H])C1([H])C([H])([H])[H]

$$$$
104:0:0
     RDKit          3D

 61 67  0  0  1  0  0  0  0  0999 V2000
    3.7508   -7.1054    3.7285 C   0  0  0  0  0  0  0  0  0  0  0  0
    2.8941   -6.0252    3.0513 C   0  0  2  0  0  0  0  0  0  0  0  0
    1.5855   -6.5642    2.9307 O   0  0  0  0  0  0  0  0  0  0  0  0
    1.0068   -6.4399    1.7482 C   0  0  0  0  0  0  0  0  0  0  0  0
   -0.1800   -6.6625    1.5230 O   0  0  0  0  0  0  0  0  0  0  0  0
    1.9408   -5.7641    0.8379 C   0  0  0  0  0  0  0  0  0  0  0  0
    1.5125   -5.2332   -0.3269 C   0  0  0  0  0  0  0  0  0  0  0  0
    2.1136   -4.1580   -1.0967 C   0  0  0  0  0  0  0  0  0  0  0  0
    3.4165   -3.8607   -1.2240 C   0  0  0  0  0  0  0  0  0  0  0  0
    4.4274   -4.7768   -0.4240 C   0  0  0  0  0  0  0  0  0  0  0  0
    4.3070   -4.5437    1.1283 C   0  0  1  0  0  0  0  0  0  0  0  0
    5.4308   -4.5618    2.1873 C   0  0  0  0  0  0  0  0  0  0  0  0
    4.9718   -3.4648    3.2493 C   0  0  0  0  0  0  0  0  0  0  0  0
    3.9082   -2.5219    2.5731 C   0  0  1  0  0  0  0  0  0  0  0  0
    2.4475   -2.8033    3.0388 C   0  0  0  0  0  0  0  0  0  0  0  0
    3.9876   -0.9434    2.4621 C   0  0  0  0  0  0  0  0  0  0  0  0
    3.8970   -0.4161    1.0972 O   0  0  0  0  0  0  0  0  0  0  0  0
    4.6821   -0.9776   -0.0026 C   0  0  2  0  0  0  0  0  0  0  0  0
    3.7893   -1.2840   -1.2462 C   0  0  0  0  0  0  0  0  0  0  0  0
    3.8551   -2.6183   -2.0715 C   0  0  2  0  0  0  0  0  0  0  0  0
    2.8484   -2.4096   -3.2517 C   0  0  0  0  0  0  0  0  0  0  0  0
    5.1670   -2.7972   -2.8450 C   0  0  0  0  0  0  0  0  0  0  0  0
    6.3806   -2.9961   -2.0220 C   0  0  1  0  0  0  0  0  0  0  0  0
    6.9877   -1.8561   -1.4014 O   0  0  0  0  0  0  0  0  0  0  0  0
    6.3939   -2.8228   -0.5263 C   0  0  1  0  0  0  0  0  0  0  0  0
    5.4436   -2.1742    0.5244 C   0  0  1  0  0  0  0  0  0  0  0  0
    6.5976   -1.6213    1.4012 C   0  0  0  0  0  0  0  0  0  0  0  0
    4.1929   -3.0030    1.1909 C   0  0  1  0  0  0  0  0  0  0  0  0
    3.2465   -5.6487    1.5732 C   0  0  1  0  0  0  0  0  0  0  0  0
    4.6961   -6.7158    4.1028 H   0  0  0  0  0  0  0  0  0  0  0  0
    3.9557   -7.9530    3.0724 H   0  0  0  0  0  0  0  0  0  0  0  0
    3.2300   -7.4989    4.6042 H   0  0  0  0  0  0  0  0  0  0  0  0
    2.8088   -5.1758    3.7185 H   0  0  0  0  0  0  0  0  0  0  0  0
    0.5229   -5.4881   -0.6648 H   0  0  0  0  0  0  0  0  0  0  0  0
    1.3790   -3.5401   -1.6164 H   0  0  0  0  0  0  0  0  0  0  0  0
    4.1314   -5.7875   -0.6719 H   0  0  0  0  0  0  0  0  0  0  0  0
    5.4158   -4.9105   -0.8168 H   0  0  0  0  0  0  0  0  0  0  0  0
    5.6039   -5.5415    2.6241 H   0  0  0  0  0  0  0  0  0  0  0  0
    6.3972   -4.3143    1.7665 H   0  0  0  0  0  0  0  0  0  0  0  0
    4.5262   -3.9531    4.1142 H   0  0  0  0  0  0  0  0  0  0  0  0
    5.8152   -2.9145    3.6450 H   0  0  0  0  0  0  0  0  0  0  0  0
    1.7583   -1.9978    2.7792 H   0  0  0  0  0  0  0  0  0  0  0  0
    2.4027   -2.9215    4.1212 H   0  0  0  0  0  0  0  0  0  0  0  0
    1.9827   -3.6597    2.5689 H   0  0  0  0  0  0  0  0  0  0  0  0
    3.1458   -0.4852    2.9776 H   0  0  0  0  0  0  0  0  0  0  0  0
    4.7777   -0.4914    3.0486 H   0  0  0  0  0  0  0  0  0  0  0  0
    5.3924   -0.2261   -0.3210 H   0  0  0  0  0  0  0  0  0  0  0  0
    2.7735   -1.2455   -0.8740 H   0  0  0  0  0  0  0  0  0  0  0  0
    3.8631   -0.4347   -1.9297 H   0  0  0  0  0  0  0  0  0  0  0  0
    3.1865   -1.6445   -3.9503 H   0  0  0  0  0  0  0  0  0  0  0  0
    1.8707   -2.0696   -2.9222 H   0  0  0  0  0  0  0  0  0  0  0  0
    2.6991   -3.3202   -3.8321 H   0  0  0  0  0  0  0  0  0  0  0  0
    5.0846   -3.6476   -3.5220 H   0  0  0  0  0  0  0  0  0  0  0  0
    5.3501   -1.9269   -3.4697 H   0  0  0  0  0  0  0  0  0  0  0  0
    7.1293   -3.6316   -2.4800 H   0  0  0  0  0  0  0  0  0  0  0  0
    7.1065   -3.5347   -0.1169 H   0  0  0  0  0  0  0  0  0  0  0  0
    7.3512   -2.3918    1.5362 H   0  0  0  0  0  0  0  0  0  0  0  0
    6.4333   -1.2616    2.4002 H   0  0  0  0  0  0  0  0  0  0  0  0
    7.1298   -0.8130    0.8963 H   0  0  0  0  0  0  0  0  0  0  0  0
    3.2322   -2.6934    0.7959 H   0  0  0  0  0  0  0  0  0  0  0  0
    3.6876   -6.5852    1.2263 H   0  0  0  0  0  0  0  0  0  0  0  0
  1  2  1  0
  1 30  1  0
  1 31  1  0
  1 32  1  0
  2 29  1  0
  2  3  1  0
  2 33  1  1
  3  4  1  0
  4  5  2  0
  4  6  1  0
  6 29  1  0
  6  7  2  0
  7  8  1  0
  7 34  1  0
  8  9  2  0
  8 35  1  0
  9 20  1  0
  9 10  1  0
 10 11  1  0
 10 36  1  0
 10 37  1  0
 11 28  1  0
 11 12  1  1
 11 29  1  0
 12 13  1  0
 12 38  1  0
 12 39  1  0
 13 14  1  0
 13 40  1  0
 13 41  1  0
 14 28  1  0
 14 15  1  1
 14 16  1  0
 15 42  1  0
 15 43  1  0
 15 44  1  0
 16 17  1  0
 16 45  1  0
 16 46  1  0
 17 18  1  0
 18 26  1  0
 18 19  1  0
 18 47  1  6
 19 20  1  0
 19 48  1  0
 19 49  1  0
 20 21  1  6
 20 22  1  0
 21 50  1  0
 21 51  1  0
 21 52  1  0
 22 23  1  0
 22 53  1  0
 22 54  1  0
 23 25  1  0
 23 24  1  0
 23 55  1  1
 24 25  1  0
 25 26  1  0
 25 56  1  1
 26 27  1  1
 26 28  1  0
 27 57  1  0
 27 58  1  0
 27 59  1  0
 28 60  1  6
 29 61  1  6
M  END
>  <i_m_ct_stereo_status>  (342) 
1

>  <s_m_source_file>  (342) 
/var/tmp/pbs.5076255.sched01/tmpjgl1obm9/123zpz496x9.sdf

>  <i_m_source_file_index>  (342) 
20

>  <i_lp_mmshare_version>  (342) 
48012

>  <i_f3d_flags>  (342) 
0

>  <s_epik_input>  (342) 
Tz1DMU9bQ0BASF0oW0NIM10pW0NASF0yQzE9W0NIXVtDSF09QyhbQ0gyXTMpW0NAXShbQ0gyXTQpKFtDSDNdKVtDSDJdW0NAQEhdKE81KVtDQEBIXTVbQ0BAXTYoW0NIM10pW0NAQEhdNE9bQ0gyXVtDQEBdKFtDSDNdKShbQ0BASF02W0NAQF0yMzcpW0NIMl1bQ0gyXTc=

>  <s_epik_cmdline>  (342) 
J2VwaWtfcHl0aG9uJywgJy1waHQnLCAnMi4wJywgJy1waCcsICc3LjAnLCAnLXRuJywgJzgnLCAnLW1hJywgJzIwMCcsICctaW1hZScsICc8aW5maWxlLm1hZT4nLCAnLW9tYWUnLCAnPG91dGZpbGUubWFlPic=

>  <r_lp_tautomer_probability>  (342) 
1

>  <r_epik_Ionization_Penalty>  (342) 
2.91116e-11

>  <r_epik_Ionization_Penalty_Charging>  (342) 
0

>  <r_epik_Ionization_Penalty_Neutral>  (342) 
2.91116e-11

>  <r_epik_State_Penalty>  (342) 
-0

>  <r_epik_Charging_Adjusted_Penalty>  (342) 
0

>  <i_epik_Tot_Q>  (342) 
0

>  <i_epik_Tot_abs_Q>  (342) 
0

>  <s_epik_Chemistry_Notes>  (342) 
This compound has an ester and may undergo hydrolysis at high or low pH.

>  <s_lp_Force_Field>  (342) 
OPLS3e

>  <r_lp_Energy>  (342) 
175.858

>  <b_lp_Chiralities_Consistent>  (342) 
1

>  <s_lp_Variant>  (342) 
104:0-1

>  <s_i_glide_gridfile>  (342) 
pfpi4k_grid

>  <i_i_glide_lignum>  (342) 
20

>  <i_i_glide_rotatable_bonds>  (342) 
0

>  <r_i_docking_score>  (342) 
-3.13038

>  <r_i_glide_ligand_efficiency>  (342) 
-0.107944

>  <r_i_glide_ligand_efficiency_sa>  (342) 
-0.331638

>  <r_i_glide_ligand_efficiency_ln>  (342) 
-0.716777

>  <r_i_glide_gscore>  (342) 
-3.13038

>  <r_i_glide_lipo>  (342) 
-0.60585

>  <r_i_glide_hbond>  (342) 
-0.369723

>  <r_i_glide_metal>  (342) 
-0

>  <r_i_glide_rewards>  (342) 
-0.705551

>  <r_i_glide_evdw>  (342) 
-15.3408

>  <r_i_glide_ecoul>  (342) 
-4.05348

>  <r_i_glide_erotb>  (342) 
0

>  <r_i_glide_esite>  (342) 
-0.0741922

>  <r_i_glide_emodel>  (342) 
-23.7001

>  <r_i_glide_energy>  (342) 
-19.3943

>  <r_i_glide_einternal>  (342) 
0

>  <r_i_glide_intrahb_reward>  (342) 
-0

>  <i_i_glide_confnum>  (342) 
1

>  <i_i_glide_posenum>  (342) 
30

>  <r_i_glide_eff_state_penalty>  (342) 
0

>  <ligand_id>  (342) 
104

>  <original_smiles>  (342) 
CC1OC(=O)C2=CC=C3CC4(CCC5(C)COC6CC3(C)CC3OC3C6(C)C54)C21

>  <smiles>  (342) 
[H]C1=C2C(=O)OC([H])(C([H])([H])[H])C2([H])C23C([H])([H])C(=C1[H])C1(C([H])([H])[H])C([H])([H])C4([H])OC4([H])C4(C([H])([H])[H])C([H])(OC([H])([H])C(C([H])([H])[H])(C([H])([H])C2([H])[H])C43[H])C1([H])[H]

$$$$
104:0:1
     RDKit          3D

 61 67  0  0  1  0  0  0  0  0999 V2000
    4.2391   -6.3207    4.6523 C   0  0  0  0  0  0  0  0  0  0  0  0
    3.2730   -5.4795    3.8043 C   0  0  2  0  0  0  0  0  0  0  0  0
    2.0161   -6.1494    3.8196 O   0  0  0  0  0  0  0  0  0  0  0  0
    1.4121   -6.2720    2.6499 C   0  0  0  0  0  0  0  0  0  0  0  0
    0.2458   -6.6524    2.4748 O   0  0  0  0  0  0  0  0  0  0  0  0
    2.2812   -5.7089    1.6134 C   0  0  0  0  0  0  0  0  0  0  0  0
    1.8090   -5.4637    0.3876 C   0  0  0  0  0  0  0  0  0  0  0  0
    2.3321   -4.5486   -0.6074 C   0  0  0  0  0  0  0  0  0  0  0  0
    3.6154   -4.1853   -0.8180 C   0  0  0  0  0  0  0  0  0  0  0  0
    4.6905   -4.8256    0.1127 C   0  0  0  0  0  0  0  0  0  0  0  0
    4.5376   -4.2789    1.5904 C   0  0  1  0  0  0  0  0  0  0  0  0
    5.6427   -3.9767    2.6126 C   0  0  0  0  0  0  0  0  0  0  0  0
    5.0630   -2.7478    3.4561 C   0  0  0  0  0  0  0  0  0  0  0  0
    3.9271   -2.0544    2.6304 C   0  0  1  0  0  0  0  0  0  0  0  0
    2.5094   -2.3759    3.1755 C   0  0  0  0  0  0  0  0  0  0  0  0
    3.8638   -0.5241    2.2330 C   0  0  0  0  0  0  0  0  0  0  0  0
    3.7387   -0.2674    0.7973 O   0  0  0  0  0  0  0  0  0  0  0  0
    4.5637   -0.9716   -0.1886 C   0  0  2  0  0  0  0  0  0  0  0  0
    3.6841   -1.5981   -1.3199 C   0  0  0  0  0  0  0  0  0  0  0  0
    3.9001   -3.0461   -1.8912 C   0  0  2  0  0  0  0  0  0  0  0  0
    2.8697   -3.1155   -3.0726 C   0  0  0  0  0  0  0  0  0  0  0  0
    5.2294   -3.2157   -2.6511 C   0  0  0  0  0  0  0  0  0  0  0  0
    6.4537   -3.1405   -1.8284 C   0  0  1  0  0  0  0  0  0  0  0  0
    6.9495   -1.8726   -1.4375 O   0  0  0  0  0  0  0  0  0  0  0  0
    6.4532   -2.6959   -0.3837 C   0  0  1  0  0  0  0  0  0  0  0  0
    5.4434   -1.9613    0.5392 C   0  0  1  0  0  0  0  0  0  0  0  0
    6.5373   -1.1360    1.2940 C   0  0  0  0  0  0  0  0  0  0  0  0
    4.2710   -2.7701    1.3585 C   0  0  1  0  0  0  0  0  0  0  0  0
    3.5887   -5.3613    2.2761 C   0  0  1  0  0  0  0  0  0  0  0  0
    5.1429   -5.7789    4.9234 H   0  0  0  0  0  0  0  0  0  0  0  0
    4.5282   -7.2526    4.1601 H   0  0  0  0  0  0  0  0  0  0  0  0
    3.7631   -6.5903    5.5951 H   0  0  0  0  0  0  0  0  0  0  0  0
    3.1150   -4.5251    4.2954 H   0  0  0  0  0  0  0  0  0  0  0  0
    0.8364   -5.8607    0.1474 H   0  0  0  0  0  0  0  0  0  0  0  0
    1.5614   -4.0988   -1.2015 H   0  0  0  0  0  0  0  0  0  0  0  0
    4.4792   -5.8959    0.0760 H   0  0  0  0  0  0  0  0  0  0  0  0
    5.6984   -4.9050   -0.2651 H   0  0  0  0  0  0  0  0  0  0  0  0
    5.9212   -4.8271    3.2223 H   0  0  0  0  0  0  0  0  0  0  0  0
    6.5753   -3.7214    2.1226 H   0  0  0  0  0  0  0  0  0  0  0  0
    4.6824   -3.1006    4.4140 H   0  0  0  0  0  0  0  0  0  0  0  0
    5.8241   -2.0293    3.7213 H   0  0  0  0  0  0  0  0  0  0  0  0
    1.7476   -1.7038    2.7820 H   0  0  0  0  0  0  0  0  0  0  0  0
    2.4865   -2.2863    4.2619 H   0  0  0  0  0  0  0  0  0  0  0  0
    2.1352   -3.3491    2.8902 H   0  0  0  0  0  0  0  0  0  0  0  0
    2.9823   -0.0542    2.6677 H   0  0  0  0  0  0  0  0  0  0  0  0
    4.6001    0.1081    2.7210 H   0  0  0  0  0  0  0  0  0  0  0  0
    5.1995   -0.2482   -0.6771 H   0  0  0  0  0  0  0  0  0  0  0  0
    2.6666   -1.5905   -0.9550 H   0  0  0  0  0  0  0  0  0  0  0  0
    3.6795   -0.8823   -2.1459 H   0  0  0  0  0  0  0  0  0  0  0  0
    3.1504   -2.4657   -3.9008 H   0  0  0  0  0  0  0  0  0  0  0  0
    1.8612   -2.8123   -2.7980 H   0  0  0  0  0  0  0  0  0  0  0  0
    2.8078   -4.1157   -3.5005 H   0  0  0  0  0  0  0  0  0  0  0  0
    5.2247   -4.1818   -3.1608 H   0  0  0  0  0  0  0  0  0  0  0  0
    5.3314   -2.4652   -3.4328 H   0  0  0  0  0  0  0  0  0  0  0  0
    7.2578   -3.7888   -2.1766 H   0  0  0  0  0  0  0  0  0  0  0  0
    7.2390   -3.2312    0.1517 H   0  0  0  0  0  0  0  0  0  0  0  0
    7.3321   -1.7597    1.6444 H   0  0  0  0  0  0  0  0  0  0  0  0
    6.3130   -0.5661    2.1821 H   0  0  0  0  0  0  0  0  0  0  0  0
    6.9941   -0.4185    0.6119 H   0  0  0  0  0  0  0  0  0  0  0  0
    3.2928   -2.6449    0.9107 H   0  0  0  0  0  0  0  0  0  0  0  0
    4.1223   -6.3019    2.1039 H   0  0  0  0  0  0  0  0  0  0  0  0
  1  2  1  0
  1 30  1  0
  1 31  1  0
  1 32  1  0
  2 29  1  0
  2  3  1  0
  2 33  1  1
  3  4  1  0
  4  5  2  0
  4  6  1  0
  6 29  1  0
  6  7  2  0
  7  8  1  0
  7 34  1  0
  8  9  2  0
  8 35  1  0
  9 20  1  0
  9 10  1  0
 10 11  1  0
 10 36  1  0
 10 37  1  0
 11 28  1  0
 11 12  1  1
 11 29  1  0
 12 13  1  0
 12 38  1  0
 12 39  1  0
 13 14  1  0
 13 40  1  0
 13 41  1  0
 14 28  1  0
 14 15  1  1
 14 16  1  0
 15 42  1  0
 15 43  1  0
 15 44  1  0
 16 17  1  0
 16 45  1  0
 16 46  1  0
 17 18  1  0
 18 26  1  0
 18 19  1  0
 18 47  1  6
 19 20  1  0
 19 48  1  0
 19 49  1  0
 20 21  1  6
 20 22  1  0
 21 50  1  0
 21 51  1  0
 21 52  1  0
 22 23  1  0
 22 53  1  0
 22 54  1  0
 23 25  1  0
 23 24  1  0
 23 55  1  1
 24 25  1  0
 25 26  1  0
 25 56  1  1
 26 27  1  1
 26 28  1  0
 27 57  1  0
 27 58  1  0
 27 59  1  0
 28 60  1  6
 29 61  1  6
M  END
>  <i_m_ct_stereo_status>  (343) 
1

>  <s_m_source_file>  (343) 
/var/tmp/pbs.5076255.sched01/tmpjgl1obm9/123zpz496x9.sdf

>  <i_m_source_file_index>  (343) 
20

>  <i_lp_mmshare_version>  (343) 
48012

>  <i_f3d_flags>  (343) 
0

>  <s_epik_input>  (343) 
Tz1DMU9bQ0BASF0oW0NIM10pW0NASF0yQzE9W0NIXVtDSF09QyhbQ0gyXTMpW0NAXShbQ0gyXTQpKFtDSDNdKVtDSDJdW0NAQEhdKE81KVtDQEBIXTVbQ0BAXTYoW0NIM10pW0NAQEhdNE9bQ0gyXVtDQEBdKFtDSDNdKShbQ0BASF02W0NAQF0yMzcpW0NIMl1bQ0gyXTc=

>  <s_epik_cmdline>  (343) 
J2VwaWtfcHl0aG9uJywgJy1waHQnLCAnMi4wJywgJy1waCcsICc3LjAnLCAnLXRuJywgJzgnLCAnLW1hJywgJzIwMCcsICctaW1hZScsICc8aW5maWxlLm1hZT4nLCAnLW9tYWUnLCAnPG91dGZpbGUubWFlPic=

>  <r_lp_tautomer_probability>  (343) 
1

>  <r_epik_Ionization_Penalty>  (343) 
2.91116e-11

>  <r_epik_Ionization_Penalty_Charging>  (343) 
0

>  <r_epik_Ionization_Penalty_Neutral>  (343) 
2.91116e-11

>  <r_epik_State_Penalty>  (343) 
-0

>  <r_epik_Charging_Adjusted_Penalty>  (343) 
0

>  <i_epik_Tot_Q>  (343) 
0

>  <i_epik_Tot_abs_Q>  (343) 
0

>  <s_epik_Chemistry_Notes>  (343) 
This compound has an ester and may undergo hydrolysis at high or low pH.

>  <s_lp_Force_Field>  (343) 
OPLS3e

>  <r_lp_Energy>  (343) 
175.858

>  <b_lp_Chiralities_Consistent>  (343) 
1

>  <s_lp_Variant>  (343) 
104:0-1

>  <s_i_glide_gridfile>  (343) 
pfpi4k_grid

>  <i_i_glide_lignum>  (343) 
20

>  <i_i_glide_rotatable_bonds>  (343) 
0

>  <r_i_docking_score>  (343) 
-3.01929

>  <r_i_glide_ligand_efficiency>  (343) 
-0.104113

>  <r_i_glide_ligand_efficiency_sa>  (343) 
-0.31987

>  <r_i_glide_ligand_efficiency_ln>  (343) 
-0.691341

>  <r_i_glide_gscore>  (343) 
-3.01929

>  <r_i_glide_lipo>  (343) 
-0.670385

>  <r_i_glide_hbond>  (343) 
-0.226413

>  <r_i_glide_metal>  (343) 
-0

>  <r_i_glide_rewards>  (343) 
-0.705551

>  <r_i_glide_evdw>  (343) 
-17.2518

>  <r_i_glide_ecoul>  (343) 
-3.48082

>  <r_i_glide_erotb>  (343) 
0

>  <r_i_glide_esite>  (343) 
-0.0322299

>  <r_i_glide_emodel>  (343) 
-24.304

>  <r_i_glide_energy>  (343) 
-20.7326

>  <r_i_glide_einternal>  (343) 
0

>  <r_i_glide_intrahb_reward>  (343) 
-0

>  <i_i_glide_confnum>  (343) 
1

>  <i_i_glide_posenum>  (343) 
9

>  <r_i_glide_eff_state_penalty>  (343) 
0

>  <ligand_id>  (343) 
104

>  <original_smiles>  (343) 
CC1OC(=O)C2=CC=C3CC4(CCC5(C)COC6CC3(C)CC3OC3C6(C)C54)C21

>  <smiles>  (343) 
[H]C1=C2C(=O)OC([H])(C([H])([H])[H])C2([H])C23C([H])([H])C(=C1[H])C1(C([H])([H])[H])C([H])([H])C4([H])OC4([H])C4(C([H])([H])[H])C([H])(OC([H])([H])C(C([H])([H])[H])(C([H])([H])C2([H])[H])C43[H])C1([H])[H]

$$$$
104:0:2
     RDKit          3D

 61 67  0  0  1  0  0  0  0  0999 V2000
    3.0059   -6.1444    5.3916 C   0  0  0  0  0  0  0  0  0  0  0  0
    2.2644   -5.4492    4.2317 C   0  0  2  0  0  0  0  0  0  0  0  0
    1.2049   -6.3233    3.8590 O   0  0  0  0  0  0  0  0  0  0  0  0
    1.0225   -6.4811    2.5498 C   0  0  0  0  0  0  0  0  0  0  0  0
    0.0716   -7.0713    2.0355 O   0  0  0  0  0  0  0  0  0  0  0  0
    2.0696   -5.7447    1.8452 C   0  0  0  0  0  0  0  0  0  0  0  0
    1.9853   -5.5404    0.5160 C   0  0  0  0  0  0  0  0  0  0  0  0
    2.7461   -4.6248   -0.3071 C   0  0  0  0  0  0  0  0  0  0  0  0
    3.9594   -4.0715   -0.0813 C   0  0  0  0  0  0  0  0  0  0  0  0
    4.7293   -4.5046    1.2169 C   0  0  0  0  0  0  0  0  0  0  0  0
    3.9996   -4.0101    2.5377 C   0  0  1  0  0  0  0  0  0  0  0  0
    4.6303   -3.5510    3.8779 C   0  0  0  0  0  0  0  0  0  0  0  0
    3.6296   -2.4465    4.4417 C   0  0  0  0  0  0  0  0  0  0  0  0
    2.7364   -1.9366    3.2483 C   0  0  1  0  0  0  0  0  0  0  0  0
    1.2861   -2.4948    3.3067 C   0  0  0  0  0  0  0  0  0  0  0  0
    2.5480   -0.4233    2.8045 C   0  0  0  0  0  0  0  0  0  0  0  0
    2.8609   -0.1651    1.3969 O   0  0  0  0  0  0  0  0  0  0  0  0
    4.0775   -0.6818    0.7766 C   0  0  2  0  0  0  0  0  0  0  0  0
    3.7462   -1.4514   -0.5610 C   0  0  0  0  0  0  0  0  0  0  0  0
    4.3815   -2.8438   -0.9947 C   0  0  2  0  0  0  0  0  0  0  0  0
    3.8421   -3.0506   -2.4484 C   0  0  0  0  0  0  0  0  0  0  0  0
    5.8928   -2.7433   -1.2563 C   0  0  0  0  0  0  0  0  0  0  0  0
    6.7415   -2.4608   -0.0696 C   0  0  1  0  0  0  0  0  0  0  0  0
    6.8509   -1.1167    0.4028 O   0  0  0  0  0  0  0  0  0  0  0  0
    6.1790   -2.0501    1.2648 C   0  0  1  0  0  0  0  0  0  0  0  0
    4.8165   -1.5299    1.7922 C   0  0  1  0  0  0  0  0  0  0  0  0
    5.4516   -0.5790    2.8872 C   0  0  0  0  0  0  0  0  0  0  0  0
    3.5931   -2.5573    2.1806 C   0  0  1  0  0  0  0  0  0  0  0  0
    3.0443   -5.2439    2.8886 C   0  0  1  0  0  0  0  0  0  0  0  0
    3.6609   -5.4682    5.9354 H   0  0  0  0  0  0  0  0  0  0  0  0
    3.5893   -7.0029    5.0605 H   0  0  0  0  0  0  0  0  0  0  0  0
    2.2885   -6.5100    6.1261 H   0  0  0  0  0  0  0  0  0  0  0  0
    1.7958   -4.5478    4.6128 H   0  0  0  0  0  0  0  0  0  0  0  0
    1.1666   -6.0163   -0.0018 H   0  0  0  0  0  0  0  0  0  0  0  0
    2.1622   -4.2762   -1.1402 H   0  0  0  0  0  0  0  0  0  0  0  0
    4.7324   -5.5943    1.1728 H   0  0  0  0  0  0  0  0  0  0  0  0
    5.8006   -4.3767    1.2026 H   0  0  0  0  0  0  0  0  0  0  0  0
    4.8139   -4.3607    4.5742 H   0  0  0  0  0  0  0  0  0  0  0  0
    5.6203   -3.1340    3.7377 H   0  0  0  0  0  0  0  0  0  0  0  0
    3.0001   -2.8773    5.2205 H   0  0  0  0  0  0  0  0  0  0  0  0
    4.1651   -1.6447    4.9447 H   0  0  0  0  0  0  0  0  0  0  0  0
    0.6112   -1.9447    2.6528 H   0  0  0  0  0  0  0  0  0  0  0  0
    0.8705   -2.4357    4.3148 H   0  0  0  0  0  0  0  0  0  0  0  0
    1.1768   -3.5058    2.9383 H   0  0  0  0  0  0  0  0  0  0  0  0
    1.5089   -0.1179    2.9032 H   0  0  0  0  0  0  0  0  0  0  0  0
    2.9630    0.3091    3.4832 H   0  0  0  0  0  0  0  0  0  0  0  0
    4.6832    0.1848    0.5065 H   0  0  0  0  0  0  0  0  0  0  0  0
    2.6706   -1.6165   -0.5600 H   0  0  0  0  0  0  0  0  0  0  0  0
    3.9058   -0.7328   -1.3683 H   0  0  0  0  0  0  0  0  0  0  0  0
    4.2665   -2.3350   -3.1525 H   0  0  0  0  0  0  0  0  0  0  0  0
    2.7645   -2.9108   -2.5391 H   0  0  0  0  0  0  0  0  0  0  0  0
    4.0892   -4.0426   -2.8301 H   0  0  0  0  0  0  0  0  0  0  0  0
    6.2350   -3.6827   -1.6929 H   0  0  0  0  0  0  0  0  0  0  0  0
    6.1129   -1.9693   -1.9920 H   0  0  0  0  0  0  0  0  0  0  0  0
    7.7015   -2.9732   -0.0780 H   0  0  0  0  0  0  0  0  0  0  0  0
    6.7966   -2.4859    2.0416 H   0  0  0  0  0  0  0  0  0  0  0  0
    6.1927   -1.0639    3.5125 H   0  0  0  0  0  0  0  0  0  0  0  0
    4.8478   -0.0598    3.6076 H   0  0  0  0  0  0  0  0  0  0  0  0
    5.9955    0.2191    2.3923 H   0  0  0  0  0  0  0  0  0  0  0  0
    2.8340   -2.6171    1.4099 H   0  0  0  0  0  0  0  0  0  0  0  0
    3.7367   -6.0881    2.9395 H   0  0  0  0  0  0  0  0  0  0  0  0
  1  2  1  0
  1 30  1  0
  1 31  1  0
  1 32  1  0
  2 29  1  0
  2  3  1  0
  2 33  1  1
  3  4  1  0
  4  5  2  0
  4  6  1  0
  6 29  1  0
  6  7  2  0
  7  8  1  0
  7 34  1  0
  8  9  2  0
  8 35  1  0
  9 20  1  0
  9 10  1  0
 10 11  1  0
 10 36  1  0
 10 37  1  0
 11 28  1  0
 11 12  1  1
 11 29  1  0
 12 13  1  0
 12 38  1  0
 12 39  1  0
 13 14  1  0
 13 40  1  0
 13 41  1  0
 14 28  1  0
 14 15  1  1
 14 16  1  0
 15 42  1  0
 15 43  1  0
 15 44  1  0
 16 17  1  0
 16 45  1  0
 16 46  1  0
 17 18  1  0
 18 26  1  0
 18 19  1  0
 18 47  1  6
 19 20  1  0
 19 48  1  0
 19 49  1  0
 20 21  1  6
 20 22  1  0
 21 50  1  0
 21 51  1  0
 21 52  1  0
 22 23  1  0
 22 53  1  0
 22 54  1  0
 23 25  1  0
 23 24  1  0
 23 55  1  1
 24 25  1  0
 25 26  1  0
 25 56  1  1
 26 27  1  1
 26 28  1  0
 27 57  1  0
 27 58  1  0
 27 59  1  0
 28 60  1  6
 29 61  1  1
M  END
>  <i_m_ct_stereo_status>  (344) 
1

>  <s_m_source_file>  (344) 
/var/tmp/pbs.5076255.sched01/tmpjgl1obm9/123zpz496x9.sdf

>  <i_m_source_file_index>  (344) 
20

>  <i_lp_mmshare_version>  (344) 
48012

>  <i_f3d_flags>  (344) 
0

>  <s_epik_input>  (344) 
Tz1DMU9bQ0BASF0oW0NIM10pW0NASF0yQzE9W0NIXVtDSF09QyhbQ0gyXTMpW0NAXShbQ0gyXTQpKFtDSDNdKVtDSDJdW0NAQEhdKE81KVtDQEBIXTVbQ0BAXTYoW0NIM10pW0NAQEhdNE9bQ0gyXVtDQEBdKFtDSDNdKShbQ0BASF02W0NAQF0yMzcpW0NIMl1bQ0gyXTc=

>  <s_epik_cmdline>  (344) 
J2VwaWtfcHl0aG9uJywgJy1waHQnLCAnMi4wJywgJy1waCcsICc3LjAnLCAnLXRuJywgJzgnLCAnLW1hJywgJzIwMCcsICctaW1hZScsICc8aW5maWxlLm1hZT4nLCAnLW9tYWUnLCAnPG91dGZpbGUubWFlPic=

>  <r_lp_tautomer_probability>  (344) 
1

>  <r_epik_Ionization_Penalty>  (344) 
2.91116e-11

>  <r_epik_Ionization_Penalty_Charging>  (344) 
0

>  <r_epik_Ionization_Penalty_Neutral>  (344) 
2.91116e-11

>  <r_epik_State_Penalty>  (344) 
-0

>  <r_epik_Charging_Adjusted_Penalty>  (344) 
0

>  <i_epik_Tot_Q>  (344) 
0

>  <i_epik_Tot_abs_Q>  (344) 
0

>  <s_epik_Chemistry_Notes>  (344) 
This compound has an ester and may undergo hydrolysis at high or low pH.

>  <s_lp_Force_Field>  (344) 
OPLS3e

>  <r_lp_Energy>  (344) 
175.858

>  <b_lp_Chiralities_Consistent>  (344) 
1

>  <s_lp_Variant>  (344) 
104:0-1

>  <s_i_glide_gridfile>  (344) 
pfpi4k_grid

>  <i_i_glide_lignum>  (344) 
20

>  <i_i_glide_rotatable_bonds>  (344) 
0

>  <r_i_docking_score>  (344) 
-2.61001

>  <r_i_glide_ligand_efficiency>  (344) 
-0.0900004

>  <r_i_glide_ligand_efficiency_sa>  (344) 
-0.27651

>  <r_i_glide_ligand_efficiency_ln>  (344) 
-0.597627

>  <r_i_glide_gscore>  (344) 
-2.61001

>  <r_i_glide_lipo>  (344) 
-0.479339

>  <r_i_glide_hbond>  (344) 
-0.0200694

>  <r_i_glide_metal>  (344) 
-0

>  <r_i_glide_rewards>  (344) 
-0.705551

>  <r_i_glide_evdw>  (344) 
-26.9397

>  <r_i_glide_ecoul>  (344) 
-0.0737553

>  <r_i_glide_erotb>  (344) 
0

>  <r_i_glide_esite>  (344) 
-0.047005

>  <r_i_glide_emodel>  (344) 
-30.9252

>  <r_i_glide_energy>  (344) 
-27.0135

>  <r_i_glide_einternal>  (344) 
0

>  <r_i_glide_intrahb_reward>  (344) 
-0

>  <i_i_glide_confnum>  (344) 
2

>  <i_i_glide_posenum>  (344) 
1

>  <r_i_glide_eff_state_penalty>  (344) 
0

>  <ligand_id>  (344) 
104

>  <original_smiles>  (344) 
CC1OC(=O)C2=CC=C3CC4(CCC5(C)COC6CC3(C)CC3OC3C6(C)C54)C21

>  <smiles>  (344) 
[H]C1=C2C(=O)OC([H])(C([H])([H])[H])C2([H])C23C([H])([H])C(=C1[H])C1(C([H])([H])[H])C([H])([H])C4([H])OC4([H])C4(C([H])([H])[H])C([H])(OC([H])([H])C(C([H])([H])[H])(C([H])([H])C2([H])[H])C43[H])C1([H])[H]

$$$$
105:0:0
     RDKit          3D

 44 48  0  0  1  0  0  0  0  0999 V2000
    3.1381   -2.5384    2.4025 O   0  0  0  0  0  0  0  0  0  0  0  0
    2.3310   -3.2401    3.0031 C   0  0  0  0  0  0  0  0  0  0  0  0
    2.0003   -4.4966    2.6529 O   0  0  0  0  0  0  0  0  0  0  0  0
    2.5083   -5.0914    1.4738 C   0  0  0  0  0  0  0  0  0  0  0  0
    2.3102   -6.6205    1.5136 C   0  0  2  0  0  0  0  0  0  0  0  0
    1.0861   -7.1606    2.1673 C   0  0  0  0  0  0  0  0  0  0  0  0
   -0.1847   -6.7338    1.9425 N   0  0  0  0  0  0  0  0  0  0  0  0
   -1.1476   -7.4545    2.5685 C   0  0  0  0  0  0  0  0  0  0  0  0
   -0.9004   -8.5942    3.3682 C   0  0  0  0  0  0  0  0  0  0  0  0
    0.4305   -9.0418    3.5458 C   0  0  0  0  0  0  0  0  0  0  0  0
    1.4367   -8.2792    2.9169 C   0  0  0  0  0  0  0  0  0  0  0  0
    2.7658   -8.5228    2.9061 O   0  0  0  0  0  0  0  0  0  0  0  0
    3.4504   -7.4271    2.2478 C   0  0  1  0  0  0  0  0  0  0  0  0
    4.4370   -8.0713    1.2406 C   0  0  0  0  0  0  0  0  0  0  0  0
    5.8187   -8.2870    1.8478 C   0  0  1  0  0  0  0  0  0  0  0  0
    6.5065   -7.0009    2.3368 C   0  0  0  0  0  0  0  0  0  0  0  0
    5.6222   -7.1769    3.5801 C   0  0  2  0  0  0  0  0  0  0  0  0
    5.8761   -8.6704    3.3406 C   0  0  0  0  0  0  0  0  0  0  0  0
    4.1902   -6.6730    3.4190 C   0  0  0  0  0  0  0  0  0  0  0  0
    1.5891   -2.8168    4.2012 C   0  0  0  0  0  0  0  0  0  0  0  0
    0.6851   -3.6698    4.8987 C   0  0  0  0  0  0  0  0  0  0  0  0
   -0.0025   -3.2454    5.9745 N   0  0  0  0  0  0  0  0  0  0  0  0
    0.2178   -2.0081    6.3638 C   0  0  0  0  0  0  0  0  0  0  0  0
    1.0267   -1.1087    5.8192 N   0  0  0  0  0  0  0  0  0  0  0  0
    1.7231   -1.5061    4.7294 C   0  0  0  0  0  0  0  0  0  0  0  0
    1.9745   -4.6611    0.6237 H   0  0  0  0  0  0  0  0  0  0  0  0
    3.5594   -4.8713    1.3072 H   0  0  0  0  0  0  0  0  0  0  0  0
    2.2363   -6.9474    0.4802 H   0  0  0  0  0  0  0  0  0  0  0  0
   -2.1491   -7.0858    2.4640 H   0  0  0  0  0  0  0  0  0  0  0  0
   -1.7218   -9.1071    3.8476 H   0  0  0  0  0  0  0  0  0  0  0  0
    0.6576   -9.9144    4.1311 H   0  0  0  0  0  0  0  0  0  0  0  0
    4.0274   -9.0078    0.8431 H   0  0  0  0  0  0  0  0  0  0  0  0
    4.5635   -7.4166    0.3693 H   0  0  0  0  0  0  0  0  0  0  0  0
    6.4757   -8.8937    1.2281 H   0  0  0  0  0  0  0  0  0  0  0  0
    7.5710   -7.1009    2.5208 H   0  0  0  0  0  0  0  0  0  0  0  0
    6.2852   -6.1133    1.7402 H   0  0  0  0  0  0  0  0  0  0  0  0
    6.1041   -6.7881    4.4834 H   0  0  0  0  0  0  0  0  0  0  0  0
    5.0705   -9.3246    3.6799 H   0  0  0  0  0  0  0  0  0  0  0  0
    6.8492   -9.0158    3.6809 H   0  0  0  0  0  0  0  0  0  0  0  0
    4.2958   -5.5979    3.2514 H   0  0  0  0  0  0  0  0  0  0  0  0
    3.6205   -6.7578    4.3472 H   0  0  0  0  0  0  0  0  0  0  0  0
    0.5015   -4.6881    4.5972 H   0  0  0  0  0  0  0  0  0  0  0  0
   -0.3492   -1.6749    7.2372 H   0  0  0  0  0  0  0  0  0  0  0  0
    2.3766   -0.7788    4.2785 H   0  0  0  0  0  0  0  0  0  0  0  0
  1  2  2  0
  2  3  1  0
  2 20  1  0
  3  4  1  0
  4  5  1  0
  4 26  1  0
  4 27  1  0
  5 13  1  0
  5  6  1  0
  5 28  1  6
  6 11  2  0
  6  7  1  0
  7  8  2  0
  8  9  1  0
  8 29  1  0
  9 10  2  0
  9 30  1  0
 10 11  1  0
 10 31  1  0
 11 12  1  0
 13 12  1  1
 13 19  1  0
 13 14  1  0
 14 15  1  0
 14 32  1  0
 14 33  1  0
 15 18  1  0
 15 16  1  0
 15 34  1  6
 16 17  1  0
 16 35  1  0
 16 36  1  0
 17 18  1  0
 17 19  1  0
 17 37  1  1
 18 38  1  0
 18 39  1  0
 19 40  1  0
 19 41  1  0
 20 25  1  0
 20 21  2  0
 21 22  1  0
 21 42  1  0
 22 23  2  0
 23 24  1  0
 23 43  1  0
 24 25  2  0
 25 44  1  0
M  END
>  <i_m_ct_stereo_status>  (345) 
1

>  <s_m_source_file>  (345) 
/var/tmp/pbs.5076255.sched01/tmpjgl1obm9/123zpz496x9.sdf

>  <i_m_source_file_index>  (345) 
21

>  <i_lp_mmshare_version>  (345) 
48012

>  <i_f3d_flags>  (345) 
0

>  <s_epik_input>  (345) 
W2NIXTFuW2NIXW5bY0hdYzFDKD1PKU9bQ0gyXVtDQEhdKGMyYyhPMylbY0hdW2NIXVtjSF1uMilbQ0BdMzRbQ0gyXVtDQEBIXTVbQ0gyXVtDQEBIXShbQ0gyXTUpW0NIMl00

>  <s_epik_cmdline>  (345) 
J2VwaWtfcHl0aG9uJywgJy1waHQnLCAnMi4wJywgJy1waCcsICc3LjAnLCAnLXRuJywgJzgnLCAnLW1hJywgJzIwMCcsICctaW1hZScsICc8aW5maWxlLm1hZT4nLCAnLW9tYWUnLCAnPG91dGZpbGUubWFlPic=

>  <r_lp_tautomer_probability>  (345) 
1

>  <r_epik_Ionization_Penalty>  (345) 
0.0105332

>  <r_epik_Ionization_Penalty_Charging>  (345) 
0

>  <r_epik_Ionization_Penalty_Neutral>  (345) 
0.0105332

>  <r_epik_State_Penalty>  (345) 
0.00805983

>  <r_epik_Charging_Adjusted_Penalty>  (345) 
0.00805983

>  <i_epik_Tot_Q>  (345) 
0

>  <i_epik_Tot_abs_Q>  (345) 
0

>  <s_epik_Chemistry_Notes>  (345) 
This compound has an ester and may undergo hydrolysis at high or low pH. This compound contains an electron-poor aromatic ring that is susceptible to covalent hydrolysis at low pH, typically resulting in measured values for nitrogen ring protonation that are around two units higher than predicted values.

>  <s_lp_Force_Field>  (345) 
OPLS3e

>  <r_lp_Energy>  (345) 
46.3501

>  <b_lp_Chiralities_Consistent>  (345) 
1

>  <s_lp_Variant>  (345) 
105:0-1

>  <s_i_glide_gridfile>  (345) 
pfpi4k_grid

>  <i_i_glide_lignum>  (345) 
21

>  <i_i_glide_rotatable_bonds>  (345) 
4

>  <r_i_docking_score>  (345) 
-2.70527

>  <r_i_glide_ligand_efficiency>  (345) 
-0.108211

>  <r_i_glide_ligand_efficiency_sa>  (345) 
-0.31641

>  <r_i_glide_ligand_efficiency_ln>  (345) 
-0.641229

>  <r_i_glide_gscore>  (345) 
-2.70527

>  <r_i_glide_lipo>  (345) 
-0.128119

>  <r_i_glide_hbond>  (345) 
-0.160547

>  <r_i_glide_metal>  (345) 
-0

>  <r_i_glide_rewards>  (345) 
-1.10882

>  <r_i_glide_evdw>  (345) 
-23.5326

>  <r_i_glide_ecoul>  (345) 
-2.93922

>  <r_i_glide_erotb>  (345) 
0.332074

>  <r_i_glide_esite>  (345) 
-0.0223363

>  <r_i_glide_emodel>  (345) 
-29.3351

>  <r_i_glide_energy>  (345) 
-26.4718

>  <r_i_glide_einternal>  (345) 
2.89531

>  <r_i_glide_intrahb_reward>  (345) 
-0

>  <i_i_glide_confnum>  (345) 
5

>  <i_i_glide_posenum>  (345) 
14

>  <r_i_glide_eff_state_penalty>  (345) 
0

>  <ligand_id>  (345) 
105

>  <original_smiles>  (345) 
O=C(OCC1c2ncccc2OC12CC1CC(C1)C2)c1cncnc1

>  <smiles>  (345) 
[H]c1nc([H])c(C(=O)OC([H])([H])C2([H])c3nc([H])c([H])c([H])c3OC23C([H])([H])C2([H])C([H])([H])C([H])(C2([H])[H])C3([H])[H])c([H])n1

$$$$
105:0:1
     RDKit          3D

 44 48  0  0  1  0  0  0  0  0999 V2000
    3.8513   -3.7759    1.5394 O   0  0  0  0  0  0  0  0  0  0  0  0
    2.7890   -3.9197    2.1499 C   0  0  0  0  0  0  0  0  0  0  0  0
    1.9574   -4.9766    2.0109 O   0  0  0  0  0  0  0  0  0  0  0  0
    2.2316   -6.0271    1.0944 C   0  0  0  0  0  0  0  0  0  0  0  0
    1.9666   -7.4188    1.7174 C   0  0  2  0  0  0  0  0  0  0  0  0
    0.8336   -7.5512    2.6679 C   0  0  0  0  0  0  0  0  0  0  0  0
   -0.4297   -7.0903    2.4419 N   0  0  0  0  0  0  0  0  0  0  0  0
   -1.3250   -7.4538    3.3752 C   0  0  0  0  0  0  0  0  0  0  0  0
   -1.0341   -8.2531    4.5032 C   0  0  0  0  0  0  0  0  0  0  0  0
    0.2849   -8.7494    4.6847 C   0  0  0  0  0  0  0  0  0  0  0  0
    1.2281   -8.3661    3.7141 C   0  0  0  0  0  0  0  0  0  0  0  0
    2.5291   -8.7546    3.6271 O   0  0  0  0  0  0  0  0  0  0  0  0
    3.1547   -8.0391    2.5424 C   0  0  1  0  0  0  0  0  0  0  0  0
    3.9511   -9.0919    1.7204 C   0  0  0  0  0  0  0  0  0  0  0  0
    5.3991   -9.2215    2.2032 C   0  0  1  0  0  0  0  0  0  0  0  0
    6.2151   -7.9260    2.1099 C   0  0  0  0  0  0  0  0  0  0  0  0
    5.5230   -7.5709    3.4350 C   0  0  2  0  0  0  0  0  0  0  0  0
    5.6537   -9.0692    3.7164 C   0  0  0  0  0  0  0  0  0  0  0  0
    4.1089   -7.0158    3.2682 C   0  0  0  0  0  0  0  0  0  0  0  0
    2.2940   -2.9595    3.1557 C   0  0  0  0  0  0  0  0  0  0  0  0
    3.0162   -1.7791    3.4488 C   0  0  0  0  0  0  0  0  0  0  0  0
    2.5536   -0.8749    4.3457 N   0  0  0  0  0  0  0  0  0  0  0  0
    1.3982   -1.1405    4.9180 C   0  0  0  0  0  0  0  0  0  0  0  0
    0.6256   -2.2215    4.7430 N   0  0  0  0  0  0  0  0  0  0  0  0
    1.0799   -3.1326    3.8582 C   0  0  0  0  0  0  0  0  0  0  0  0
    1.5860   -5.8702    0.2277 H   0  0  0  0  0  0  0  0  0  0  0  0
    3.2481   -6.0262    0.7048 H   0  0  0  0  0  0  0  0  0  0  0  0
    1.6918   -8.1028    0.9143 H   0  0  0  0  0  0  0  0  0  0  0  0
   -2.3237   -7.0683    3.2359 H   0  0  0  0  0  0  0  0  0  0  0  0
   -1.7962   -8.5270    5.2146 H   0  0  0  0  0  0  0  0  0  0  0  0
    0.5426   -9.3888    5.5074 H   0  0  0  0  0  0  0  0  0  0  0  0
    3.4395  -10.0573    1.7404 H   0  0  0  0  0  0  0  0  0  0  0  0
    3.9842   -8.8008    0.6679 H   0  0  0  0  0  0  0  0  0  0  0  0
    5.9152  -10.0733    1.7654 H   0  0  0  0  0  0  0  0  0  0  0  0
    7.2880   -8.0611    2.1867 H   0  0  0  0  0  0  0  0  0  0  0  0
    5.9539   -7.2833    1.2687 H   0  0  0  0  0  0  0  0  0  0  0  0
    6.1500   -6.9360    4.0660 H   0  0  0  0  0  0  0  0  0  0  0  0
    4.8720   -9.4680    4.3642 H   0  0  0  0  0  0  0  0  0  0  0  0
    6.6486   -9.3657    4.0424 H   0  0  0  0  0  0  0  0  0  0  0  0
    4.2879   -6.1099    2.6916 H   0  0  0  0  0  0  0  0  0  0  0  0
    3.6822   -6.6857    4.2230 H   0  0  0  0  0  0  0  0  0  0  0  0
    3.9577   -1.5504    2.9778 H   0  0  0  0  0  0  0  0  0  0  0  0
    1.0264   -0.4084    5.6272 H   0  0  0  0  0  0  0  0  0  0  0  0
    0.4520   -4.0013    3.7186 H   0  0  0  0  0  0  0  0  0  0  0  0
  1  2  2  0
  2  3  1  0
  2 20  1  0
  3  4  1  0
  4  5  1  0
  4 26  1  0
  4 27  1  0
  5 13  1  0
  5  6  1  0
  5 28  1  6
  6 11  2  0
  6  7  1  0
  7  8  2  0
  8  9  1  0
  8 29  1  0
  9 10  2  0
  9 30  1  0
 10 11  1  0
 10 31  1  0
 11 12  1  0
 13 12  1  1
 13 19  1  0
 13 14  1  0
 14 15  1  0
 14 32  1  0
 14 33  1  0
 15 18  1  0
 15 16  1  0
 15 34  1  6
 16 17  1  0
 16 35  1  0
 16 36  1  0
 17 18  1  0
 17 19  1  0
 17 37  1  1
 18 38  1  0
 18 39  1  0
 19 40  1  0
 19 41  1  0
 20 25  1  0
 20 21  2  0
 21 22  1  0
 21 42  1  0
 22 23  2  0
 23 24  1  0
 23 43  1  0
 24 25  2  0
 25 44  1  0
M  END
>  <i_m_ct_stereo_status>  (346) 
1

>  <s_m_source_file>  (346) 
/var/tmp/pbs.5076255.sched01/tmpjgl1obm9/123zpz496x9.sdf

>  <i_m_source_file_index>  (346) 
21

>  <i_lp_mmshare_version>  (346) 
48012

>  <i_f3d_flags>  (346) 
0

>  <s_epik_input>  (346) 
W2NIXTFuW2NIXW5bY0hdYzFDKD1PKU9bQ0gyXVtDQEhdKGMyYyhPMylbY0hdW2NIXVtjSF1uMilbQ0BdMzRbQ0gyXVtDQEBIXTVbQ0gyXVtDQEBIXShbQ0gyXTUpW0NIMl00

>  <s_epik_cmdline>  (346) 
J2VwaWtfcHl0aG9uJywgJy1waHQnLCAnMi4wJywgJy1waCcsICc3LjAnLCAnLXRuJywgJzgnLCAnLW1hJywgJzIwMCcsICctaW1hZScsICc8aW5maWxlLm1hZT4nLCAnLW9tYWUnLCAnPG91dGZpbGUubWFlPic=

>  <r_lp_tautomer_probability>  (346) 
1

>  <r_epik_Ionization_Penalty>  (346) 
0.0105332

>  <r_epik_Ionization_Penalty_Charging>  (346) 
0

>  <r_epik_Ionization_Penalty_Neutral>  (346) 
0.0105332

>  <r_epik_State_Penalty>  (346) 
0.00805983

>  <r_epik_Charging_Adjusted_Penalty>  (346) 
0.00805983

>  <i_epik_Tot_Q>  (346) 
0

>  <i_epik_Tot_abs_Q>  (346) 
0

>  <s_epik_Chemistry_Notes>  (346) 
This compound has an ester and may undergo hydrolysis at high or low pH. This compound contains an electron-poor aromatic ring that is susceptible to covalent hydrolysis at low pH, typically resulting in measured values for nitrogen ring protonation that are around two units higher than predicted values.

>  <s_lp_Force_Field>  (346) 
OPLS3e

>  <r_lp_Energy>  (346) 
46.3501

>  <b_lp_Chiralities_Consistent>  (346) 
1

>  <s_lp_Variant>  (346) 
105:0-1

>  <s_i_glide_gridfile>  (346) 
pfpi4k_grid

>  <i_i_glide_lignum>  (346) 
21

>  <i_i_glide_rotatable_bonds>  (346) 
4

>  <r_i_docking_score>  (346) 
-2.54281

>  <r_i_glide_ligand_efficiency>  (346) 
-0.101713

>  <r_i_glide_ligand_efficiency_sa>  (346) 
-0.297409

>  <r_i_glide_ligand_efficiency_ln>  (346) 
-0.602723

>  <r_i_glide_gscore>  (346) 
-2.54281

>  <r_i_glide_lipo>  (346) 
-0.0973324

>  <r_i_glide_hbond>  (346) 
-0.108699

>  <r_i_glide_metal>  (346) 
-0

>  <r_i_glide_rewards>  (346) 
-1.10882

>  <r_i_glide_evdw>  (346) 
-23.6612

>  <r_i_glide_ecoul>  (346) 
-2.48495

>  <r_i_glide_erotb>  (346) 
0.332074

>  <r_i_glide_esite>  (346) 
-0.00422798

>  <r_i_glide_emodel>  (346) 
-28.7253

>  <r_i_glide_energy>  (346) 
-26.1462

>  <r_i_glide_einternal>  (346) 
2.69433

>  <r_i_glide_intrahb_reward>  (346) 
-0

>  <i_i_glide_confnum>  (346) 
5

>  <i_i_glide_posenum>  (346) 
38

>  <r_i_glide_eff_state_penalty>  (346) 
0

>  <ligand_id>  (346) 
105

>  <original_smiles>  (346) 
O=C(OCC1c2ncccc2OC12CC1CC(C1)C2)c1cncnc1

>  <smiles>  (346) 
[H]c1nc([H])c(C(=O)OC([H])([H])C2([H])c3nc([H])c([H])c([H])c3OC23C([H])([H])C2([H])C([H])([H])C([H])(C2([H])[H])C3([H])[H])c([H])n1

$$$$
105:1:0
     RDKit          3D

 45 49  0  0  1  0  0  0  0  0999 V2000
    5.4136   -0.0273    2.1874 O   0  0  0  0  0  0  0  0  0  0  0  0
    4.7752   -0.3642    1.1979 C   0  0  0  0  0  0  0  0  0  0  0  0
    3.5205    0.0307    0.8839 O   0  0  0  0  0  0  0  0  0  0  0  0
    2.7158    0.9136    1.6948 C   0  0  0  0  0  0  0  0  0  0  0  0
    1.4687    0.1908    2.2668 C   0  0  2  0  0  0  0  0  0  0  0  0
    0.4439    1.0511    2.9424 C   0  0  0  0  0  0  0  0  0  0  0  0
   -0.1738    2.1388    2.4813 N   0  0  0  0  0  0  0  0  0  0  0  0
   -1.1736    2.7443    3.1787 C   0  0  0  0  0  0  0  0  0  0  0  0
   -1.6028    2.1972    4.4235 C   0  0  0  0  0  0  0  0  0  0  0  0
   -0.9864    1.0320    4.9151 C   0  0  0  0  0  0  0  0  0  0  0  0
    0.0319    0.4633    4.1401 C   0  0  0  0  0  0  0  0  0  0  0  0
    0.6680   -0.7053    4.3898 O   0  0  0  0  0  0  0  0  0  0  0  0
    1.7600   -0.8465    3.4311 C   0  0  1  0  0  0  0  0  0  0  0  0
    1.6477   -2.2993    2.8692 C   0  0  0  0  0  0  0  0  0  0  0  0
    2.5281   -3.2843    3.6289 C   0  0  1  0  0  0  0  0  0  0  0  0
    4.0288   -2.9565    3.5785 C   0  0  0  0  0  0  0  0  0  0  0  0
    3.6961   -1.9221    4.6858 C   0  0  2  0  0  0  0  0  0  0  0  0
    2.7240   -3.0379    5.1326 C   0  0  0  0  0  0  0  0  0  0  0  0
    3.0321   -0.6046    4.3116 C   0  0  0  0  0  0  0  0  0  0  0  0
    5.4006   -1.2390    0.1924 C   0  0  0  0  0  0  0  0  0  0  0  0
    6.7143   -1.7021    0.4288 C   0  0  0  0  0  0  0  0  0  0  0  0
    7.3989   -2.3911   -0.5004 N   0  0  0  0  0  0  0  0  0  0  0  0
    6.7305   -2.6862   -1.6101 C   0  0  0  0  0  0  0  0  0  0  0  0
    5.4805   -2.3533   -1.9310 N   0  0  0  0  0  0  0  0  0  0  0  0
    4.7870   -1.6392   -1.0171 C   0  0  0  0  0  0  0  0  0  0  0  0
    3.2887    1.4742    2.4355 H   0  0  0  0  0  0  0  0  0  0  0  0
    2.3422    1.7095    1.0516 H   0  0  0  0  0  0  0  0  0  0  0  0
    0.9199   -0.2626    1.4320 H   0  0  0  0  0  0  0  0  0  0  0  0
   -1.5842    3.6372    2.7256 H   0  0  0  0  0  0  0  0  0  0  0  0
   -2.3937    2.6702    4.9820 H   0  0  0  0  0  0  0  0  0  0  0  0
   -1.2858    0.5640    5.8477 H   0  0  0  0  0  0  0  0  0  0  0  0
    0.5962   -2.6226    2.8808 H   0  0  0  0  0  0  0  0  0  0  0  0
    1.9596   -2.3210    1.8126 H   0  0  0  0  0  0  0  0  0  0  0  0
    2.3265   -4.3265    3.3750 H   0  0  0  0  0  0  0  0  0  0  0  0
    4.6846   -3.7927    3.8861 H   0  0  0  0  0  0  0  0  0  0  0  0
    4.3567   -2.5906    2.6126 H   0  0  0  0  0  0  0  0  0  0  0  0
    4.5550   -1.7947    5.3427 H   0  0  0  0  0  0  0  0  0  0  0  0
    1.8500   -2.6363    5.6513 H   0  0  0  0  0  0  0  0  0  0  0  0
    3.2020   -3.8687    5.6876 H   0  0  0  0  0  0  0  0  0  0  0  0
    3.7770   -0.0446    3.7748 H   0  0  0  0  0  0  0  0  0  0  0  0
    2.8481    0.0527    5.1545 H   0  0  0  0  0  0  0  0  0  0  0  0
    7.2489   -1.4538    1.3361 H   0  0  0  0  0  0  0  0  0  0  0  0
    7.2900   -3.2328   -2.3316 H   0  0  0  0  0  0  0  0  0  0  0  0
    3.7644   -1.3529   -1.2580 H   0  0  0  0  0  0  0  0  0  0  0  0
    0.1074    2.6060    1.5908 H   0  0  0  0  0  0  0  0  0  0  0  0
  1  2  2  0
  2  3  1  0
  2 20  1  0
  3  4  1  0
  4  5  1  0
  4 26  1  0
  4 27  1  0
  5 13  1  0
  5  6  1  0
  5 28  1  6
  6 11  2  0
  6  7  1  0
  7  8  2  0
  7 45  1  0
  8  9  1  0
  8 29  1  0
  9 10  2  0
  9 30  1  0
 10 11  1  0
 10 31  1  0
 11 12  1  0
 13 12  1  1
 13 19  1  0
 13 14  1  0
 14 15  1  0
 14 32  1  0
 14 33  1  0
 15 18  1  0
 15 16  1  0
 15 34  1  1
 16 17  1  0
 16 35  1  0
 16 36  1  0
 17 18  1  0
 17 19  1  0
 17 37  1  1
 18 38  1  0
 18 39  1  0
 19 40  1  0
 19 41  1  0
 20 25  1  0
 20 21  2  0
 21 22  1  0
 21 42  1  0
 22 23  2  0
 23 24  1  0
 23 43  1  0
 24 25  2  0
 25 44  1  0
M  CHG  1   7   1
M  END
>  <i_m_ct_stereo_status>  (347) 
1

>  <s_m_source_file>  (347) 
/var/tmp/pbs.5076255.sched01/tmpjgl1obm9/123zpz496x9.sdf

>  <i_m_source_file_index>  (347) 
22

>  <i_lp_mmshare_version>  (347) 
48012

>  <i_f3d_flags>  (347) 
0

>  <s_epik_input>  (347) 
W2NIXTFuW2NIXW5bY0hdYzFDKD1PKU9bQ0gyXVtDQEhdKGMyYyhPMylbY0hdW2NIXVtjSF1uMilbQ0BdMzRbQ0gyXVtDQEBIXTVbQ0gyXVtDQEBIXShbQ0gyXTUpW0NIMl00

>  <s_epik_cmdline>  (347) 
J2VwaWtfcHl0aG9uJywgJy1waHQnLCAnMi4wJywgJy1waCcsICc3LjAnLCAnLXRuJywgJzgnLCAnLW1hJywgJzIwMCcsICctaW1hZScsICc8aW5maWxlLm1hZT4nLCAnLW9tYWUnLCAnPG91dGZpbGUubWFlPic=

>  <r_epik_Ionization_Penalty>  (347) 
2.39286

>  <r_epik_Ionization_Penalty_Charging>  (347) 
2.39286

>  <r_epik_Ionization_Penalty_Neutral>  (347) 
8.17228e-08

>  <r_epik_State_Penalty>  (347) 
2.55019

>  <r_epik_Charging_Adjusted_Penalty>  (347) 
4.94305

>  <i_epik_Tot_Q>  (347) 
1

>  <i_epik_Tot_abs_Q>  (347) 
1

>  <s_epik_Chemistry_Notes>  (347) 
This compound has an ester and may undergo hydrolysis at high or low pH. This compound contains an electron-poor aromatic ring that is susceptible to covalent hydrolysis at low pH, typically resulting in measured values for nitrogen ring protonation that are around two units higher than predicted values.

>  <s_lp_Force_Field>  (347) 
OPLS3e

>  <r_lp_Energy>  (347) 
54.2081

>  <b_lp_Chiralities_Consistent>  (347) 
1

>  <s_lp_Variant>  (347) 
105:0-2

>  <s_i_glide_gridfile>  (347) 
pfpi4k_grid

>  <i_i_glide_lignum>  (347) 
22

>  <i_i_glide_rotatable_bonds>  (347) 
4

>  <r_i_docking_score>  (347) 
-3.81703

>  <r_i_glide_ligand_efficiency>  (347) 
-0.152681

>  <r_i_glide_ligand_efficiency_sa>  (347) 
-0.446443

>  <r_i_glide_ligand_efficiency_ln>  (347) 
-0.904752

>  <r_i_glide_gscore>  (347) 
-3.81703

>  <r_i_glide_lipo>  (347) 
-0.079051

>  <r_i_glide_hbond>  (347) 
-0.504458

>  <r_i_glide_metal>  (347) 
-0

>  <r_i_glide_rewards>  (347) 
-1.32213

>  <r_i_glide_evdw>  (347) 
-24.7533

>  <r_i_glide_ecoul>  (347) 
-5.7905

>  <r_i_glide_erotb>  (347) 
0.330324

>  <r_i_glide_esite>  (347) 
-0.135479

>  <r_i_glide_emodel>  (347) 
-37.195

>  <r_i_glide_energy>  (347) 
-30.5438

>  <r_i_glide_einternal>  (347) 
3.4075

>  <r_i_glide_intrahb_reward>  (347) 
-0

>  <i_i_glide_confnum>  (347) 
3

>  <i_i_glide_posenum>  (347) 
16

>  <r_i_glide_eff_state_penalty>  (347) 
0

>  <ligand_id>  (347) 
105

>  <original_smiles>  (347) 
O=C(OCC1c2ncccc2OC12CC1CC(C1)C2)c1cncnc1

>  <smiles>  (347) 
[H]c1nc([H])c(C(=O)OC([H])([H])C2([H])c3c(c([H])c([H])c([H])[n+]3[H])OC23C([H])([H])C2([H])C([H])([H])C([H])(C2([H])[H])C3([H])[H])c([H])n1

$$$$
105:1:1
     RDKit          3D

 45 49  0  0  1  0  0  0  0  0999 V2000
    2.4835   -2.8677    3.2248 O   0  0  0  0  0  0  0  0  0  0  0  0
    1.6351   -3.1423    4.0744 C   0  0  0  0  0  0  0  0  0  0  0  0
    1.5535   -4.3326    4.7168 O   0  0  0  0  0  0  0  0  0  0  0  0
    2.4720   -5.3686    4.4257 C   0  0  0  0  0  0  0  0  0  0  0  0
    2.0290   -6.1433    3.1741 C   0  0  2  0  0  0  0  0  0  0  0  0
    0.8950   -7.0948    3.3555 C   0  0  0  0  0  0  0  0  0  0  0  0
   -0.2996   -6.8688    3.9323 N   0  0  0  0  0  0  0  0  0  0  0  0
   -1.2631   -7.8200    3.9248 C   0  0  0  0  0  0  0  0  0  0  0  0
   -1.0302   -9.0547    3.2762 C   0  0  0  0  0  0  0  0  0  0  0  0
    0.2110   -9.3060    2.6555 C   0  0  0  0  0  0  0  0  0  0  0  0
    1.1716   -8.2801    2.7096 C   0  0  0  0  0  0  0  0  0  0  0  0
    2.4150   -8.2835    2.1511 O   0  0  0  0  0  0  0  0  0  0  0  0
    3.1088   -7.0775    2.5391 C   0  0  1  0  0  0  0  0  0  0  0  0
    3.6516   -6.4378    1.2329 C   0  0  0  0  0  0  0  0  0  0  0  0
    5.0687   -6.9077    0.9224 C   0  0  1  0  0  0  0  0  0  0  0  0
    6.1045   -6.5554    1.9991 C   0  0  0  0  0  0  0  0  0  0  0  0
    5.5572   -7.7945    2.7251 C   0  0  2  0  0  0  0  0  0  0  0  0
    5.4266   -8.3578    1.2995 C   0  0  0  0  0  0  0  0  0  0  0  0
    4.2582   -7.5518    3.4991 C   0  0  0  0  0  0  0  0  0  0  0  0
    0.5638   -2.2138    4.4917 C   0  0  0  0  0  0  0  0  0  0  0  0
   -0.3991   -2.5697    5.4597 C   0  0  0  0  0  0  0  0  0  0  0  0
   -1.3915   -1.7359    5.8213 N   0  0  0  0  0  0  0  0  0  0  0  0
   -1.4088   -0.5397    5.2309 C   0  0  0  0  0  0  0  0  0  0  0  0
   -0.5568   -0.0874    4.3183 N   0  0  0  0  0  0  0  0  0  0  0  0
    0.4397   -0.9184    3.9444 C   0  0  0  0  0  0  0  0  0  0  0  0
    3.4536   -4.9263    4.2703 H   0  0  0  0  0  0  0  0  0  0  0  0
    2.5544   -6.0345    5.2832 H   0  0  0  0  0  0  0  0  0  0  0  0
    1.6832   -5.4328    2.4192 H   0  0  0  0  0  0  0  0  0  0  0  0
   -2.1794   -7.5796    4.4392 H   0  0  0  0  0  0  0  0  0  0  0  0
   -1.7898   -9.8268    3.2805 H   0  0  0  0  0  0  0  0  0  0  0  0
    0.4140  -10.2406    2.1470 H   0  0  0  0  0  0  0  0  0  0  0  0
    2.9755   -6.6467    0.4050 H   0  0  0  0  0  0  0  0  0  0  0  0
    3.6767   -5.3493    1.3309 H   0  0  0  0  0  0  0  0  0  0  0  0
    5.4002   -6.6205   -0.0730 H   0  0  0  0  0  0  0  0  0  0  0  0
    7.1416   -6.6398    1.6749 H   0  0  0  0  0  0  0  0  0  0  0  0
    5.9279   -5.6068    2.5107 H   0  0  0  0  0  0  0  0  0  0  0  0
    6.3242   -8.2910    3.3196 H   0  0  0  0  0  0  0  0  0  0  0  0
    4.6285   -9.0887    1.1624 H   0  0  0  0  0  0  0  0  0  0  0  0
    6.3684   -8.7155    0.8782 H   0  0  0  0  0  0  0  0  0  0  0  0
    4.5012   -6.8177    4.2696 H   0  0  0  0  0  0  0  0  0  0  0  0
    3.9521   -8.4468    4.0453 H   0  0  0  0  0  0  0  0  0  0  0  0
   -0.4094   -3.5413    5.9366 H   0  0  0  0  0  0  0  0  0  0  0  0
   -2.1977    0.1261    5.5416 H   0  0  0  0  0  0  0  0  0  0  0  0
    1.1223   -0.5465    3.1902 H   0  0  0  0  0  0  0  0  0  0  0  0
   -0.4613   -5.9806    4.4046 H   0  0  0  0  0  0  0  0  0  0  0  0
  1  2  2  0
  2  3  1  0
  2 20  1  0
  3  4  1  0
  4  5  1  0
  4 26  1  0
  4 27  1  0
  5 13  1  0
  5  6  1  0
  5 28  1  6
  6 11  2  0
  6  7  1  0
  7  8  2  0
  7 45  1  0
  8  9  1  0
  8 29  1  0
  9 10  2  0
  9 30  1  0
 10 11  1  0
 10 31  1  0
 11 12  1  0
 13 12  1  6
 13 19  1  0
 13 14  1  0
 14 15  1  0
 14 32  1  0
 14 33  1  0
 15 18  1  0
 15 16  1  0
 15 34  1  6
 16 17  1  0
 16 35  1  0
 16 36  1  0
 17 18  1  0
 17 19  1  0
 17 37  1  1
 18 38  1  0
 18 39  1  0
 19 40  1  0
 19 41  1  0
 20 25  1  0
 20 21  2  0
 21 22  1  0
 21 42  1  0
 22 23  2  0
 23 24  1  0
 23 43  1  0
 24 25  2  0
 25 44  1  0
M  CHG  1   7   1
M  END
>  <i_m_ct_stereo_status>  (348) 
1

>  <s_m_source_file>  (348) 
/var/tmp/pbs.5076255.sched01/tmpjgl1obm9/123zpz496x9.sdf

>  <i_m_source_file_index>  (348) 
22

>  <i_lp_mmshare_version>  (348) 
48012

>  <i_f3d_flags>  (348) 
0

>  <s_epik_input>  (348) 
W2NIXTFuW2NIXW5bY0hdYzFDKD1PKU9bQ0gyXVtDQEhdKGMyYyhPMylbY0hdW2NIXVtjSF1uMilbQ0BdMzRbQ0gyXVtDQEBIXTVbQ0gyXVtDQEBIXShbQ0gyXTUpW0NIMl00

>  <s_epik_cmdline>  (348) 
J2VwaWtfcHl0aG9uJywgJy1waHQnLCAnMi4wJywgJy1waCcsICc3LjAnLCAnLXRuJywgJzgnLCAnLW1hJywgJzIwMCcsICctaW1hZScsICc8aW5maWxlLm1hZT4nLCAnLW9tYWUnLCAnPG91dGZpbGUubWFlPic=

>  <r_epik_Ionization_Penalty>  (348) 
2.39286

>  <r_epik_Ionization_Penalty_Charging>  (348) 
2.39286

>  <r_epik_Ionization_Penalty_Neutral>  (348) 
8.17228e-08

>  <r_epik_State_Penalty>  (348) 
2.55019

>  <r_epik_Charging_Adjusted_Penalty>  (348) 
4.94305

>  <i_epik_Tot_Q>  (348) 
1

>  <i_epik_Tot_abs_Q>  (348) 
1

>  <s_epik_Chemistry_Notes>  (348) 
This compound has an ester and may undergo hydrolysis at high or low pH. This compound contains an electron-poor aromatic ring that is susceptible to covalent hydrolysis at low pH, typically resulting in measured values for nitrogen ring protonation that are around two units higher than predicted values.

>  <s_lp_Force_Field>  (348) 
OPLS3e

>  <r_lp_Energy>  (348) 
54.2081

>  <b_lp_Chiralities_Consistent>  (348) 
1

>  <s_lp_Variant>  (348) 
105:0-2

>  <s_i_glide_gridfile>  (348) 
pfpi4k_grid

>  <i_i_glide_lignum>  (348) 
22

>  <i_i_glide_rotatable_bonds>  (348) 
4

>  <r_i_docking_score>  (348) 
-3.11983

>  <r_i_glide_ligand_efficiency>  (348) 
-0.124793

>  <r_i_glide_ligand_efficiency_sa>  (348) 
-0.364898

>  <r_i_glide_ligand_efficiency_ln>  (348) 
-0.739494

>  <r_i_glide_gscore>  (348) 
-3.11983

>  <r_i_glide_lipo>  (348) 
-0.316771

>  <r_i_glide_hbond>  (348) 
0

>  <r_i_glide_metal>  (348) 
-0

>  <r_i_glide_rewards>  (348) 
-1.1238

>  <r_i_glide_evdw>  (348) 
-24.6234

>  <r_i_glide_ecoul>  (348) 
-4.52646

>  <r_i_glide_erotb>  (348) 
0.330324

>  <r_i_glide_esite>  (348) 
-0.0994453

>  <r_i_glide_emodel>  (348) 
-36.638

>  <r_i_glide_energy>  (348) 
-29.1498

>  <r_i_glide_einternal>  (348) 
0.755166

>  <r_i_glide_intrahb_reward>  (348) 
-0

>  <i_i_glide_confnum>  (348) 
6

>  <i_i_glide_posenum>  (348) 
6

>  <r_i_glide_eff_state_penalty>  (348) 
0

>  <ligand_id>  (348) 
105

>  <original_smiles>  (348) 
O=C(OCC1c2ncccc2OC12CC1CC(C1)C2)c1cncnc1

>  <smiles>  (348) 
[H]c1nc([H])c(C(=O)OC([H])([H])C2([H])c3c(c([H])c([H])c([H])[n+]3[H])OC23C([H])([H])C2([H])C([H])([H])C([H])(C2([H])[H])C3([H])[H])c([H])n1

$$$$
105:1:2
     RDKit          3D

 45 49  0  0  1  0  0  0  0  0999 V2000
    4.3430    0.1409    0.8860 O   0  0  0  0  0  0  0  0  0  0  0  0
    3.6129   -0.8330    1.0690 C   0  0  0  0  0  0  0  0  0  0  0  0
    2.4279   -0.7711    1.7142 O   0  0  0  0  0  0  0  0  0  0  0  0
    1.9331    0.4810    2.1847 C   0  0  0  0  0  0  0  0  0  0  0  0
    0.6432    0.2306    2.9879 C   0  0  2  0  0  0  0  0  0  0  0  0
   -0.0451    1.4386    3.5319 C   0  0  0  0  0  0  0  0  0  0  0  0
   -0.3986    2.5608    2.8812 N   0  0  0  0  0  0  0  0  0  0  0  0
   -1.1088    3.5348    3.4881 C   0  0  0  0  0  0  0  0  0  0  0  0
   -1.5276    3.3730    4.8289 C   0  0  0  0  0  0  0  0  0  0  0  0
   -1.1887    2.1921    5.5273 C   0  0  0  0  0  0  0  0  0  0  0  0
   -0.4381    1.2233    4.8361 C   0  0  0  0  0  0  0  0  0  0  0  0
   -0.0393    0.0033    5.2977 O   0  0  0  0  0  0  0  0  0  0  0  0
    0.7980   -0.6233    4.2989 C   0  0  1  0  0  0  0  0  0  0  0  0
    0.2195   -2.0485    4.0917 C   0  0  0  0  0  0  0  0  0  0  0  0
    0.8866   -3.0758    5.0053 C   0  0  1  0  0  0  0  0  0  0  0  0
    2.4009   -3.2161    4.7969 C   0  0  0  0  0  0  0  0  0  0  0  0
    2.4914   -1.9629    5.6815 C   0  0  2  0  0  0  0  0  0  0  0  0
    1.2975   -2.6007    6.4106 C   0  0  0  0  0  0  0  0  0  0  0  0
    2.2337   -0.6488    4.9365 C   0  0  0  0  0  0  0  0  0  0  0  0
    3.9586   -2.2044    0.5934 C   0  0  0  0  0  0  0  0  0  0  0  0
    5.1248   -2.4384   -0.1669 C   0  0  0  0  0  0  0  0  0  0  0  0
    5.4479   -3.6641   -0.6296 N   0  0  0  0  0  0  0  0  0  0  0  0
    4.6085   -4.6590   -0.3365 C   0  0  0  0  0  0  0  0  0  0  0  0
    3.4869   -4.5655    0.3827 N   0  0  0  0  0  0  0  0  0  0  0  0
    3.1566   -3.3375    0.8390 C   0  0  0  0  0  0  0  0  0  0  0  0
    2.6747    0.9933    2.7916 H   0  0  0  0  0  0  0  0  0  0  0  0
    1.7254    1.1164    1.3258 H   0  0  0  0  0  0  0  0  0  0  0  0
   -0.0891   -0.2254    2.3179 H   0  0  0  0  0  0  0  0  0  0  0  0
   -1.3057    4.3999    2.8713 H   0  0  0  0  0  0  0  0  0  0  0  0
   -2.0961    4.1429    5.3241 H   0  0  0  0  0  0  0  0  0  0  0  0
   -1.5035    2.0408    6.5491 H   0  0  0  0  0  0  0  0  0  0  0  0
   -0.8643   -2.0426    4.2293 H   0  0  0  0  0  0  0  0  0  0  0  0
    0.3898   -2.3610    3.0601 H   0  0  0  0  0  0  0  0  0  0  0  0
    0.3798   -4.0419    5.0072 H   0  0  0  0  0  0  0  0  0  0  0  0
    2.8373   -4.1129    5.2337 H   0  0  0  0  0  0  0  0  0  0  0  0
    2.7370   -3.0727    3.7695 H   0  0  0  0  0  0  0  0  0  0  0  0
    3.4090   -1.9459    6.2722 H   0  0  0  0  0  0  0  0  0  0  0  0
    0.6181   -1.8893    6.8815 H   0  0  0  0  0  0  0  0  0  0  0  0
    1.5757   -3.4049    7.0938 H   0  0  0  0  0  0  0  0  0  0  0  0
    3.0288   -0.5760    4.1927 H   0  0  0  0  0  0  0  0  0  0  0  0
    2.3776    0.2135    5.5945 H   0  0  0  0  0  0  0  0  0  0  0  0
    5.8166   -1.6455   -0.4178 H   0  0  0  0  0  0  0  0  0  0  0  0
    4.8635   -5.6390   -0.7138 H   0  0  0  0  0  0  0  0  0  0  0  0
    2.2400   -3.2831    1.4112 H   0  0  0  0  0  0  0  0  0  0  0  0
   -0.1244    2.7147    1.9050 H   0  0  0  0  0  0  0  0  0  0  0  0
  1  2  2  0
  2  3  1  0
  2 20  1  0
  3  4  1  0
  4  5  1  0
  4 26  1  0
  4 27  1  0
  5 13  1  0
  5  6  1  0
  5 28  1  6
  6 11  2  0
  6  7  1  0
  7  8  2  0
  7 45  1  0
  8  9  1  0
  8 29  1  0
  9 10  2  0
  9 30  1  0
 10 11  1  0
 10 31  1  0
 11 12  1  0
 13 12  1  1
 13 19  1  0
 13 14  1  0
 14 15  1  0
 14 32  1  0
 14 33  1  0
 15 18  1  0
 15 16  1  0
 15 34  1  1
 16 17  1  0
 16 35  1  0
 16 36  1  0
 17 18  1  0
 17 19  1  0
 17 37  1  1
 18 38  1  0
 18 39  1  0
 19 40  1  0
 19 41  1  0
 20 25  1  0
 20 21  2  0
 21 22  1  0
 21 42  1  0
 22 23  2  0
 23 24  1  0
 23 43  1  0
 24 25  2  0
 25 44  1  0
M  CHG  1   7   1
M  END
>  <i_m_ct_stereo_status>  (349) 
1

>  <s_m_source_file>  (349) 
/var/tmp/pbs.5076255.sched01/tmpjgl1obm9/123zpz496x9.sdf

>  <i_m_source_file_index>  (349) 
22

>  <i_lp_mmshare_version>  (349) 
48012

>  <i_f3d_flags>  (349) 
0

>  <s_epik_input>  (349) 
W2NIXTFuW2NIXW5bY0hdYzFDKD1PKU9bQ0gyXVtDQEhdKGMyYyhPMylbY0hdW2NIXVtjSF1uMilbQ0BdMzRbQ0gyXVtDQEBIXTVbQ0gyXVtDQEBIXShbQ0gyXTUpW0NIMl00

>  <s_epik_cmdline>  (349) 
J2VwaWtfcHl0aG9uJywgJy1waHQnLCAnMi4wJywgJy1waCcsICc3LjAnLCAnLXRuJywgJzgnLCAnLW1hJywgJzIwMCcsICctaW1hZScsICc8aW5maWxlLm1hZT4nLCAnLW9tYWUnLCAnPG91dGZpbGUubWFlPic=

>  <r_epik_Ionization_Penalty>  (349) 
2.39286

>  <r_epik_Ionization_Penalty_Charging>  (349) 
2.39286

>  <r_epik_Ionization_Penalty_Neutral>  (349) 
8.17228e-08

>  <r_epik_State_Penalty>  (349) 
2.55019

>  <r_epik_Charging_Adjusted_Penalty>  (349) 
4.94305

>  <i_epik_Tot_Q>  (349) 
1

>  <i_epik_Tot_abs_Q>  (349) 
1

>  <s_epik_Chemistry_Notes>  (349) 
This compound has an ester and may undergo hydrolysis at high or low pH. This compound contains an electron-poor aromatic ring that is susceptible to covalent hydrolysis at low pH, typically resulting in measured values for nitrogen ring protonation that are around two units higher than predicted values.

>  <s_lp_Force_Field>  (349) 
OPLS3e

>  <r_lp_Energy>  (349) 
54.2081

>  <b_lp_Chiralities_Consistent>  (349) 
1

>  <s_lp_Variant>  (349) 
105:0-2

>  <s_i_glide_gridfile>  (349) 
pfpi4k_grid

>  <i_i_glide_lignum>  (349) 
22

>  <i_i_glide_rotatable_bonds>  (349) 
4

>  <r_i_docking_score>  (349) 
-2.82152

>  <r_i_glide_ligand_efficiency>  (349) 
-0.112861

>  <r_i_glide_ligand_efficiency_sa>  (349) 
-0.330007

>  <r_i_glide_ligand_efficiency_ln>  (349) 
-0.668785

>  <r_i_glide_gscore>  (349) 
-2.82152

>  <r_i_glide_lipo>  (349) 
-0.0366328

>  <r_i_glide_hbond>  (349) 
-0.140241

>  <r_i_glide_metal>  (349) 
-0

>  <r_i_glide_rewards>  (349) 
-1.10195

>  <r_i_glide_evdw>  (349) 
-24.4987

>  <r_i_glide_ecoul>  (349) 
-3.47757

>  <r_i_glide_erotb>  (349) 
0.330324

>  <r_i_glide_esite>  (349) 
-0.126448

>  <r_i_glide_emodel>  (349) 
-33.7909

>  <r_i_glide_energy>  (349) 
-27.9762

>  <r_i_glide_einternal>  (349) 
2.50857

>  <r_i_glide_intrahb_reward>  (349) 
-0

>  <i_i_glide_confnum>  (349) 
3

>  <i_i_glide_posenum>  (349) 
31

>  <r_i_glide_eff_state_penalty>  (349) 
0

>  <ligand_id>  (349) 
105

>  <original_smiles>  (349) 
O=C(OCC1c2ncccc2OC12CC1CC(C1)C2)c1cncnc1

>  <smiles>  (349) 
[H]c1nc([H])c(C(=O)OC([H])([H])C2([H])c3c(c([H])c([H])c([H])[n+]3[H])OC23C([H])([H])C2([H])C([H])([H])C([H])(C2([H])[H])C3([H])[H])c([H])n1

$$$$
106:0:0
     RDKit          3D

 81 85  0  0  1  0  0  0  0  0999 V2000
   -0.1979   -9.3339    2.7961 C   0  0  0  0  0  0  0  0  0  0  0  0
   -0.2693   -8.4836    4.0810 C   0  0  0  0  0  0  0  0  0  0  0  0
   -1.7368   -8.1227    4.3000 C   0  0  0  0  0  0  0  0  0  0  0  0
    0.2939   -9.2464    5.3042 C   0  0  0  0  0  0  0  0  0  0  0  0
    1.7995   -9.4996    5.1776 C   0  0  0  0  0  0  0  0  0  0  0  0
    2.6464   -8.2369    4.8554 C   0  0  1  0  0  0  0  0  0  0  0  0
    2.7644   -7.3796    6.1368 C   0  0  0  0  0  0  0  0  0  0  0  0
    4.0410   -8.7638    4.4513 C   0  0  0  0  0  0  0  0  0  0  0  0
    4.8857   -7.6797    3.7897 C   0  0  0  0  0  0  0  0  0  0  0  0
    4.2405   -7.0988    2.4886 C   0  0  1  0  0  0  0  0  0  0  0  0
    4.5138   -8.1707    1.3905 C   0  0  0  0  0  0  0  0  0  0  0  0
    2.7086   -6.9573    2.6383 C   0  0  0  0  0  0  0  0  0  0  0  0
    2.0116   -7.4021    3.7261 C   0  0  0  0  0  0  0  0  0  0  0  0
    0.5153   -7.1807    3.9279 C   0  0  0  0  0  0  0  0  0  0  0  0
    2.0590   -6.2699    1.4337 C   0  0  0  0  0  0  0  0  0  0  0  0
    2.7024   -4.9335    1.0543 C   0  0  0  0  0  0  0  0  0  0  0  0
    4.2284   -5.0746    0.8394 C   0  0  1  0  0  0  0  0  0  0  0  0
    4.8954   -3.8321    0.1001 C   0  0  1  0  0  0  0  0  0  0  0  0
    4.4712   -3.9496   -1.3900 C   0  0  0  0  0  0  0  0  0  0  0  0
    4.3473   -2.4647    0.6128 C   0  0  0  0  0  0  0  0  0  0  0  0
    5.0444   -1.2344    0.0180 C   0  0  0  0  0  0  0  0  0  0  0  0
    6.5505   -1.3085    0.2345 C   0  0  1  0  0  0  0  0  0  0  0  0
    6.7838   -1.0669    1.6064 O   0  0  0  0  0  0  0  0  0  0  0  0
    7.2241   -2.5994   -0.3108 C   0  0  0  0  0  0  0  0  0  0  0  0
    7.2544   -2.5570   -1.8548 C   0  0  0  0  0  0  0  0  0  0  0  0
    8.7353   -2.6268    0.0521 C   0  0  0  0  0  0  0  0  0  0  0  0
    6.4701   -3.8980    0.1485 C   0  0  1  0  0  0  0  0  0  0  0  0
    6.9857   -4.4269    1.4902 C   0  0  0  0  0  0  0  0  0  0  0  0
    6.3885   -5.7740    1.8867 C   0  0  0  0  0  0  0  0  0  0  0  0
    4.8742   -5.6668    2.1456 C   0  0  2  0  0  0  0  0  0  0  0  0
    4.6573   -4.7218    3.3739 C   0  0  0  0  0  0  0  0  0  0  0  0
   -0.7284  -10.2788    2.9325 H   0  0  0  0  0  0  0  0  0  0  0  0
    0.8361   -9.5650    2.5134 H   0  0  0  0  0  0  0  0  0  0  0  0
   -0.6576   -8.8124    1.9545 H   0  0  0  0  0  0  0  0  0  0  0  0
   -1.8037   -7.5063    5.1908 H   0  0  0  0  0  0  0  0  0  0  0  0
   -2.3546   -9.0150    4.4557 H   0  0  0  0  0  0  0  0  0  0  0  0
   -2.1818   -7.5735    3.4765 H   0  0  0  0  0  0  0  0  0  0  0  0
    0.1000   -8.6759    6.2148 H   0  0  0  0  0  0  0  0  0  0  0  0
   -0.1868  -10.2149    5.4376 H   0  0  0  0  0  0  0  0  0  0  0  0
    2.1577   -9.9760    6.0899 H   0  0  0  0  0  0  0  0  0  0  0  0
    1.9303  -10.2464    4.3942 H   0  0  0  0  0  0  0  0  0  0  0  0
    3.2995   -7.9128    6.9196 H   0  0  0  0  0  0  0  0  0  0  0  0
    1.7890   -7.1181    6.5438 H   0  0  0  0  0  0  0  0  0  0  0  0
    3.2915   -6.4456    5.9409 H   0  0  0  0  0  0  0  0  0  0  0  0
    4.5541   -9.1554    5.3297 H   0  0  0  0  0  0  0  0  0  0  0  0
    3.9432   -9.6104    3.7715 H   0  0  0  0  0  0  0  0  0  0  0  0
    5.0473   -6.9334    4.5569 H   0  0  0  0  0  0  0  0  0  0  0  0
    5.8717   -8.0900    3.5763 H   0  0  0  0  0  0  0  0  0  0  0  0
    5.5695   -8.4113    1.2983 H   0  0  0  0  0  0  0  0  0  0  0  0
    4.1624   -7.8992    0.4009 H   0  0  0  0  0  0  0  0  0  0  0  0
    4.0104   -9.1079    1.6241 H   0  0  0  0  0  0  0  0  0  0  0  0
    0.0342   -6.5673    3.1807 H   0  0  0  0  0  0  0  0  0  0  0  0
    0.4049   -6.5982    4.8418 H   0  0  0  0  0  0  0  0  0  0  0  0
    2.1446   -6.9547    0.5908 H   0  0  0  0  0  0  0  0  0  0  0  0
    0.9958   -6.1040    1.5270 H   0  0  0  0  0  0  0  0  0  0  0  0
    2.2080   -4.5511    0.1701 H   0  0  0  0  0  0  0  0  0  0  0  0
    2.4927   -4.1992    1.8438 H   0  0  0  0  0  0  0  0  0  0  0  0
    4.3428   -5.8555    0.0903 H   0  0  0  0  0  0  0  0  0  0  0  0
    4.5744   -3.0401   -1.9673 H   0  0  0  0  0  0  0  0  0  0  0  0
    3.4291   -4.2276   -1.4964 H   0  0  0  0  0  0  0  0  0  0  0  0
    5.0315   -4.7344   -1.9001 H   0  0  0  0  0  0  0  0  0  0  0  0
    3.2822   -2.3814    0.4053 H   0  0  0  0  0  0  0  0  0  0  0  0
    4.4535   -2.3719    1.6889 H   0  0  0  0  0  0  0  0  0  0  0  0
    4.8103   -1.1287   -1.0399 H   0  0  0  0  0  0  0  0  0  0  0  0
    4.6446   -0.3313    0.4788 H   0  0  0  0  0  0  0  0  0  0  0  0
    6.9683   -0.4497   -0.2594 H   0  0  0  0  0  0  0  0  0  0  0  0
    7.2024   -0.2100    1.6885 H   0  0  0  0  0  0  0  0  0  0  0  0
    7.4196   -3.5347   -2.3044 H   0  0  0  0  0  0  0  0  0  0  0  0
    8.0667   -1.9293   -2.2291 H   0  0  0  0  0  0  0  0  0  0  0  0
    6.3564   -2.1258   -2.3023 H   0  0  0  0  0  0  0  0  0  0  0  0
    9.2313   -3.4985   -0.3773 H   0  0  0  0  0  0  0  0  0  0  0  0
    8.9275   -2.6351    1.1238 H   0  0  0  0  0  0  0  0  0  0  0  0
    9.2473   -1.7474   -0.3273 H   0  0  0  0  0  0  0  0  0  0  0  0
    6.7826   -4.6631   -0.5391 H   0  0  0  0  0  0  0  0  0  0  0  0
    8.0601   -4.5849    1.4780 H   0  0  0  0  0  0  0  0  0  0  0  0
    6.7544   -3.6680    2.2211 H   0  0  0  0  0  0  0  0  0  0  0  0
    6.5951   -6.4896    1.0829 H   0  0  0  0  0  0  0  0  0  0  0  0
    6.9062   -6.1460    2.7701 H   0  0  0  0  0  0  0  0  0  0  0  0
    4.8336   -3.6803    3.1573 H   0  0  0  0  0  0  0  0  0  0  0  0
    5.3539   -4.9298    4.1857 H   0  0  0  0  0  0  0  0  0  0  0  0
    3.6503   -4.7777    3.7868 H   0  0  0  0  0  0  0  0  0  0  0  0
  1  2  1  0
  1 32  1  0
  1 33  1  0
  1 34  1  0
  2 14  1  0
  2  3  1  0
  2  4  1  0
  3 35  1  0
  3 36  1  0
  3 37  1  0
  4  5  1  0
  4 38  1  0
  4 39  1  0
  5  6  1  0
  5 40  1  0
  5 41  1  0
  6 13  1  0
  6  7  1  1
  6  8  1  0
  7 42  1  0
  7 43  1  0
  7 44  1  0
  8  9  1  0
  8 45  1  0
  8 46  1  0
  9 10  1  0
  9 47  1  0
  9 48  1  0
 10 30  1  0
 10 11  1  6
 10 12  1  0
 11 49  1  0
 11 50  1  0
 11 51  1  0
 12 13  2  0
 12 15  1  0
 13 14  1  0
 14 52  1  0
 14 53  1  0
 15 16  1  0
 15 54  1  0
 15 55  1  0
 16 17  1  0
 16 56  1  0
 16 57  1  0
 17 30  1  0
 17 18  1  0
 17 58  1  6
 18 27  1  0
 18 19  1  6
 18 20  1  0
 19 59  1  0
 19 60  1  0
 19 61  1  0
 20 21  1  0
 20 62  1  0
 20 63  1  0
 21 22  1  0
 21 64  1  0
 21 65  1  0
 22 23  1  0
 22 24  1  0
 22 66  1  6
 23 67  1  0
 24 25  1  0
 24 26  1  0
 24 27  1  0
 25 68  1  0
 25 69  1  0
 25 70  1  0
 26 71  1  0
 26 72  1  0
 26 73  1  0
 27 28  1  0
 27 74  1  6
 28 29  1  0
 28 75  1  0
 28 76  1  0
 29 30  1  0
 29 77  1  0
 29 78  1  0
 30 31  1  1
 31 79  1  0
 31 80  1  0
 31 81  1  0
M  END
>  <i_m_ct_stereo_status>  (350) 
1

>  <s_m_source_file>  (350) 
/var/tmp/pbs.5076255.sched01/tmpjgl1obm9/123zpz496x9.sdf

>  <i_m_source_file_index>  (350) 
23

>  <i_lp_mmshare_version>  (350) 
48012

>  <i_f3d_flags>  (350) 
0

>  <s_epik_input>  (350) 
W0NIMl0xW0NIMl1DKFtDSDNdKShbQ0gzXSlbQ0gyXUMoW0NAQF0xMltDSDNdKT1DM1tDQF0oW0NIM10pKFtDSDJdW0NIMl0yKVtDQF00KFtDSDNdKVtDQEBIXShbQ0gyXVtDSDJdMylbQ0BdNShbQ0gzXSlbQ0BIXShbQ0gyXVtDSDJdNClDKFtDSDNdKShbQ0gzXSlbQ0BIXShbT0hdKVtDSDJdW0NIMl01

>  <s_epik_cmdline>  (350) 
J2VwaWtfcHl0aG9uJywgJy1waHQnLCAnMi4wJywgJy1waCcsICc3LjAnLCAnLXRuJywgJzgnLCAnLW1hJywgJzIwMCcsICctaW1hZScsICc8aW5maWxlLm1hZT4nLCAnLW9tYWUnLCAnPG91dGZpbGUubWFlPic=

>  <r_lp_tautomer_probability>  (350) 
1

>  <r_epik_Ionization_Penalty>  (350) 
3.03356e-06

>  <r_epik_Ionization_Penalty_Charging>  (350) 
0

>  <r_epik_Ionization_Penalty_Neutral>  (350) 
3.03356e-06

>  <r_epik_State_Penalty>  (350) 
-0

>  <r_epik_Charging_Adjusted_Penalty>  (350) 
0

>  <i_epik_Tot_Q>  (350) 
0

>  <i_epik_Tot_abs_Q>  (350) 
0

>  <s_lp_Force_Field>  (350) 
OPLS3e

>  <r_lp_Energy>  (350) 
90.0445

>  <b_lp_Chiralities_Consistent>  (350) 
1

>  <s_lp_Variant>  (350) 
106:0-1

>  <s_i_glide_gridfile>  (350) 
pfpi4k_grid

>  <i_i_glide_lignum>  (350) 
23

>  <i_i_glide_rotatable_bonds>  (350) 
1

>  <r_i_docking_score>  (350) 
-2.81632

>  <r_i_glide_ligand_efficiency>  (350) 
-0.0908491

>  <r_i_glide_ligand_efficiency_sa>  (350) 
-0.285392

>  <r_i_glide_ligand_efficiency_ln>  (350) 
-0.635167

>  <r_i_glide_gscore>  (350) 
-2.81632

>  <r_i_glide_lipo>  (350) 
-0.361093

>  <r_i_glide_hbond>  (350) 
-0.32

>  <r_i_glide_metal>  (350) 
-0

>  <r_i_glide_rewards>  (350) 
-0.499654

>  <r_i_glide_evdw>  (350) 
-22.4067

>  <r_i_glide_ecoul>  (350) 
-3.43492

>  <r_i_glide_erotb>  (350) 
0

>  <r_i_glide_esite>  (350) 
0

>  <r_i_glide_emodel>  (350) 
-27.6232

>  <r_i_glide_energy>  (350) 
-25.8417

>  <r_i_glide_einternal>  (350) 
1.3467

>  <r_i_glide_intrahb_reward>  (350) 
-0

>  <i_i_glide_confnum>  (350) 
1

>  <i_i_glide_posenum>  (350) 
40

>  <r_i_glide_eff_state_penalty>  (350) 
0

>  <ligand_id>  (350) 
106

>  <original_smiles>  (350) 
CC1(C)CCC2(C)CCC3(C)C(=C2C1)CCC1C2(C)CCC(O)C(C)(C)C2CCC13C

>  <smiles>  (350) 
[H]OC1([H])C([H])([H])C([H])([H])C2(C([H])([H])[H])C([H])(C([H])([H])C([H])([H])C3(C([H])([H])[H])C2([H])C([H])([H])C([H])([H])C2=C4C([H])([H])C(C([H])([H])[H])(C([H])([H])[H])C([H])([H])C([H])([H])C4(C([H])([H])[H])C([H])([H])C([H])([H])C23C([H])([H])[H])C1(C([H])([H])[H])C([H])([H])[H]

$$$$
106:0:1
     RDKit          3D

 81 85  0  0  1  0  0  0  0  0999 V2000
    0.2244   -9.7269    3.2408 C   0  0  0  0  0  0  0  0  0  0  0  0
   -0.7702   -8.5934    3.5378 C   0  0  0  0  0  0  0  0  0  0  0  0
   -2.1062   -8.9342    2.8868 C   0  0  0  0  0  0  0  0  0  0  0  0
   -0.9385   -8.3708    5.0402 C   0  0  0  0  0  0  0  0  0  0  0  0
    0.3083   -7.8559    5.7447 C   0  0  0  0  0  0  0  0  0  0  0  0
    0.8961   -6.5832    5.1006 C   0  0  1  0  0  0  0  0  0  0  0  0
    0.0289   -5.3697    5.4904 C   0  0  0  0  0  0  0  0  0  0  0  0
    2.2969   -6.4236    5.7097 C   0  0  0  0  0  0  0  0  0  0  0  0
    3.1297   -5.4260    4.9205 C   0  0  0  0  0  0  0  0  0  0  0  0
    3.3351   -5.8341    3.4289 C   0  0  1  0  0  0  0  0  0  0  0  0
    4.4223   -6.9509    3.4562 C   0  0  0  0  0  0  0  0  0  0  0  0
    2.0582   -6.4586    2.8363 C   0  0  0  0  0  0  0  0  0  0  0  0
    0.9452   -6.7291    3.5696 C   0  0  0  0  0  0  0  0  0  0  0  0
   -0.3473   -7.2625    2.9584 C   0  0  0  0  0  0  0  0  0  0  0  0
    2.1702   -6.7640    1.3467 C   0  0  0  0  0  0  0  0  0  0  0  0
    2.6075   -5.5567    0.5306 C   0  0  0  0  0  0  0  0  0  0  0  0
    3.9222   -4.9581    1.0651 C   0  0  1  0  0  0  0  0  0  0  0  0
    4.6276   -3.9555    0.0687 C   0  0  1  0  0  0  0  0  0  0  0  0
    5.2551   -4.8647   -0.9628 C   0  0  0  0  0  0  0  0  0  0  0  0
    3.6447   -3.0038   -0.6798 C   0  0  0  0  0  0  0  0  0  0  0  0
    4.3222   -1.9675   -1.5844 C   0  0  0  0  0  0  0  0  0  0  0  0
    5.3735   -1.1662   -0.8304 C   0  0  1  0  0  0  0  0  0  0  0  0
    4.7185   -0.3166    0.0964 O   0  0  0  0  0  0  0  0  0  0  0  0
    6.4759   -2.0590   -0.1701 C   0  0  0  0  0  0  0  0  0  0  0  0
    7.4598   -2.6629   -1.2234 C   0  0  0  0  0  0  0  0  0  0  0  0
    7.3744   -1.1567    0.6730 C   0  0  0  0  0  0  0  0  0  0  0  0
    5.8319   -3.1899    0.7264 C   0  0  1  0  0  0  0  0  0  0  0  0
    5.4790   -2.7562    2.1640 C   0  0  0  0  0  0  0  0  0  0  0  0
    5.0558   -3.9385    3.0386 C   0  0  0  0  0  0  0  0  0  0  0  0
    3.7328   -4.5528    2.5617 C   0  0  2  0  0  0  0  0  0  0  0  0
    2.6216   -3.4737    2.7034 C   0  0  0  0  0  0  0  0  0  0  0  0
   -0.1047  -10.6450    3.7325 H   0  0  0  0  0  0  0  0  0  0  0  0
    1.2300   -9.4943    3.6111 H   0  0  0  0  0  0  0  0  0  0  0  0
    0.2964   -9.9252    2.1689 H   0  0  0  0  0  0  0  0  0  0  0  0
   -2.8257   -8.1254    3.0924 H   0  0  0  0  0  0  0  0  0  0  0  0
   -2.4944   -9.8517    3.2806 H   0  0  0  0  0  0  0  0  0  0  0  0
   -2.0352   -9.0515    1.8032 H   0  0  0  0  0  0  0  0  0  0  0  0
   -1.7478   -7.6422    5.1828 H   0  0  0  0  0  0  0  0  0  0  0  0
   -1.1967   -9.2727    5.5910 H   0  0  0  0  0  0  0  0  0  0  0  0
    0.0751   -7.6586    6.7935 H   0  0  0  0  0  0  0  0  0  0  0  0
    1.0509   -8.6621    5.7661 H   0  0  0  0  0  0  0  0  0  0  0  0
    0.0557   -5.1787    6.5624 H   0  0  0  0  0  0  0  0  0  0  0  0
   -1.0020   -5.5560    5.2312 H   0  0  0  0  0  0  0  0  0  0  0  0
    0.3410   -4.4650    4.9665 H   0  0  0  0  0  0  0  0  0  0  0  0
    2.2045   -6.1007    6.7450 H   0  0  0  0  0  0  0  0  0  0  0  0
    2.8052   -7.3866    5.7375 H   0  0  0  0  0  0  0  0  0  0  0  0
    2.6232   -4.4739    5.0279 H   0  0  0  0  0  0  0  0  0  0  0  0
    4.0920   -5.3105    5.4148 H   0  0  0  0  0  0  0  0  0  0  0  0
    5.3282   -6.6212    3.9558 H   0  0  0  0  0  0  0  0  0  0  0  0
    4.7058   -7.3275    2.4786 H   0  0  0  0  0  0  0  0  0  0  0  0
    4.0663   -7.8247    4.0027 H   0  0  0  0  0  0  0  0  0  0  0  0
   -0.3756   -7.3211    1.8747 H   0  0  0  0  0  0  0  0  0  0  0  0
   -1.1235   -6.5368    3.1990 H   0  0  0  0  0  0  0  0  0  0  0  0
    2.8966   -7.5741    1.2412 H   0  0  0  0  0  0  0  0  0  0  0  0
    1.2832   -7.1585    0.8747 H   0  0  0  0  0  0  0  0  0  0  0  0
    2.7136   -5.8836   -0.4823 H   0  0  0  0  0  0  0  0  0  0  0  0
    1.8199   -4.7991    0.5144 H   0  0  0  0  0  0  0  0  0  0  0  0
    4.6267   -5.7886    1.1004 H   0  0  0  0  0  0  0  0  0  0  0  0
    5.4831   -4.3715   -1.8986 H   0  0  0  0  0  0  0  0  0  0  0  0
    4.6210   -5.6885   -1.2759 H   0  0  0  0  0  0  0  0  0  0  0  0
    6.1370   -5.3366   -0.5509 H   0  0  0  0  0  0  0  0  0  0  0  0
    2.9780   -3.5867   -1.3059 H   0  0  0  0  0  0  0  0  0  0  0  0
    3.0232   -2.4328    0.0054 H   0  0  0  0  0  0  0  0  0  0  0  0
    4.7943   -2.4299   -2.4483 H   0  0  0  0  0  0  0  0  0  0  0  0
    3.5752   -1.2923   -2.0019 H   0  0  0  0  0  0  0  0  0  0  0  0
    5.8174   -0.4951   -1.5623 H   0  0  0  0  0  0  0  0  0  0  0  0
    4.6707    0.5543   -0.2815 H   0  0  0  0  0  0  0  0  0  0  0  0
    8.0033   -3.5192   -0.8140 H   0  0  0  0  0  0  0  0  0  0  0  0
    8.2321   -1.9769   -1.5425 H   0  0  0  0  0  0  0  0  0  0  0  0
    6.9589   -2.9735   -2.1419 H   0  0  0  0  0  0  0  0  0  0  0  0
    8.1837   -1.7169    1.1278 H   0  0  0  0  0  0  0  0  0  0  0  0
    6.7956   -0.6607    1.4616 H   0  0  0  0  0  0  0  0  0  0  0  0
    7.8293   -0.3692    0.0791 H   0  0  0  0  0  0  0  0  0  0  0  0
    6.6451   -3.8968    0.8983 H   0  0  0  0  0  0  0  0  0  0  0  0
    6.3472   -2.3484    2.6576 H   0  0  0  0  0  0  0  0  0  0  0  0
    4.7303   -1.9680    2.1483 H   0  0  0  0  0  0  0  0  0  0  0  0
    5.8510   -4.6909    3.0024 H   0  0  0  0  0  0  0  0  0  0  0  0
    4.9833   -3.6159    4.0741 H   0  0  0  0  0  0  0  0  0  0  0  0
    2.7052   -2.6911    1.9660 H   0  0  0  0  0  0  0  0  0  0  0  0
    2.6889   -2.9420    3.6516 H   0  0  0  0  0  0  0  0  0  0  0  0
    1.6128   -3.8774    2.6123 H   0  0  0  0  0  0  0  0  0  0  0  0
  1  2  1  0
  1 32  1  0
  1 33  1  0
  1 34  1  0
  2 14  1  0
  2  3  1  0
  2  4  1  0
  3 35  1  0
  3 36  1  0
  3 37  1  0
  4  5  1  0
  4 38  1  0
  4 39  1  0
  5  6  1  0
  5 40  1  0
  5 41  1  0
  6 13  1  0
  6  7  1  6
  6  8  1  0
  7 42  1  0
  7 43  1  0
  7 44  1  0
  8  9  1  0
  8 45  1  0
  8 46  1  0
  9 10  1  0
  9 47  1  0
  9 48  1  0
 10 30  1  0
 10 11  1  1
 10 12  1  0
 11 49  1  0
 11 50  1  0
 11 51  1  0
 12 13  2  0
 12 15  1  0
 13 14  1  0
 14 52  1  0
 14 53  1  0
 15 16  1  0
 15 54  1  0
 15 55  1  0
 16 17  1  0
 16 56  1  0
 16 57  1  0
 17 30  1  0
 17 18  1  0
 17 58  1  1
 18 27  1  0
 18 19  1  6
 18 20  1  0
 19 59  1  0
 19 60  1  0
 19 61  1  0
 20 21  1  0
 20 62  1  0
 20 63  1  0
 21 22  1  0
 21 64  1  0
 21 65  1  0
 22 23  1  0
 22 24  1  0
 22 66  1  6
 23 67  1  0
 24 25  1  0
 24 26  1  0
 24 27  1  0
 25 68  1  0
 25 69  1  0
 25 70  1  0
 26 71  1  0
 26 72  1  0
 26 73  1  0
 27 28  1  0
 27 74  1  1
 28 29  1  0
 28 75  1  0
 28 76  1  0
 29 30  1  0
 29 77  1  0
 29 78  1  0
 30 31  1  6
 31 79  1  0
 31 80  1  0
 31 81  1  0
M  END
>  <i_m_ct_stereo_status>  (351) 
1

>  <s_m_source_file>  (351) 
/var/tmp/pbs.5076255.sched01/tmpjgl1obm9/123zpz496x9.sdf

>  <i_m_source_file_index>  (351) 
23

>  <i_lp_mmshare_version>  (351) 
48012

>  <i_f3d_flags>  (351) 
0

>  <s_epik_input>  (351) 
W0NIMl0xW0NIMl1DKFtDSDNdKShbQ0gzXSlbQ0gyXUMoW0NAQF0xMltDSDNdKT1DM1tDQF0oW0NIM10pKFtDSDJdW0NIMl0yKVtDQF00KFtDSDNdKVtDQEBIXShbQ0gyXVtDSDJdMylbQ0BdNShbQ0gzXSlbQ0BIXShbQ0gyXVtDSDJdNClDKFtDSDNdKShbQ0gzXSlbQ0BIXShbT0hdKVtDSDJdW0NIMl01

>  <s_epik_cmdline>  (351) 
J2VwaWtfcHl0aG9uJywgJy1waHQnLCAnMi4wJywgJy1waCcsICc3LjAnLCAnLXRuJywgJzgnLCAnLW1hJywgJzIwMCcsICctaW1hZScsICc8aW5maWxlLm1hZT4nLCAnLW9tYWUnLCAnPG91dGZpbGUubWFlPic=

>  <r_lp_tautomer_probability>  (351) 
1

>  <r_epik_Ionization_Penalty>  (351) 
3.03356e-06

>  <r_epik_Ionization_Penalty_Charging>  (351) 
0

>  <r_epik_Ionization_Penalty_Neutral>  (351) 
3.03356e-06

>  <r_epik_State_Penalty>  (351) 
-0

>  <r_epik_Charging_Adjusted_Penalty>  (351) 
0

>  <i_epik_Tot_Q>  (351) 
0

>  <i_epik_Tot_abs_Q>  (351) 
0

>  <s_lp_Force_Field>  (351) 
OPLS3e

>  <r_lp_Energy>  (351) 
90.0445

>  <b_lp_Chiralities_Consistent>  (351) 
1

>  <s_lp_Variant>  (351) 
106:0-1

>  <s_i_glide_gridfile>  (351) 
pfpi4k_grid

>  <i_i_glide_lignum>  (351) 
23

>  <i_i_glide_rotatable_bonds>  (351) 
1

>  <r_i_docking_score>  (351) 
-2.09979

>  <r_i_glide_ligand_efficiency>  (351) 
-0.067735

>  <r_i_glide_ligand_efficiency_sa>  (351) 
-0.212781

>  <r_i_glide_ligand_efficiency_ln>  (351) 
-0.473566

>  <r_i_glide_gscore>  (351) 
-2.09979

>  <r_i_glide_lipo>  (351) 
-0.184835

>  <r_i_glide_hbond>  (351) 
-0.316718

>  <r_i_glide_metal>  (351) 
-0

>  <r_i_glide_rewards>  (351) 
-0.499654

>  <r_i_glide_evdw>  (351) 
-18.1287

>  <r_i_glide_ecoul>  (351) 
-1.28096

>  <r_i_glide_erotb>  (351) 
0

>  <r_i_glide_esite>  (351) 
0

>  <r_i_glide_emodel>  (351) 
-19.9904

>  <r_i_glide_energy>  (351) 
-19.4096

>  <r_i_glide_einternal>  (351) 
1.1594

>  <r_i_glide_intrahb_reward>  (351) 
-0

>  <i_i_glide_confnum>  (351) 
1

>  <i_i_glide_posenum>  (351) 
11

>  <r_i_glide_eff_state_penalty>  (351) 
0

>  <ligand_id>  (351) 
106

>  <original_smiles>  (351) 
CC1(C)CCC2(C)CCC3(C)C(=C2C1)CCC1C2(C)CCC(O)C(C)(C)C2CCC13C

>  <smiles>  (351) 
[H]OC1([H])C([H])([H])C([H])([H])C2(C([H])([H])[H])C([H])(C([H])([H])C([H])([H])C3(C([H])([H])[H])C2([H])C([H])([H])C([H])([H])C2=C4C([H])([H])C(C([H])([H])[H])(C([H])([H])[H])C([H])([H])C([H])([H])C4(C([H])([H])[H])C([H])([H])C([H])([H])C23C([H])([H])[H])C1(C([H])([H])[H])C([H])([H])[H]

$$$$
106:0:2
     RDKit          3D

 81 85  0  0  1  0  0  0  0  0999 V2000
   -0.2218   -9.3409    2.7849 C   0  0  0  0  0  0  0  0  0  0  0  0
   -0.2975   -8.4967    4.0708 C   0  0  0  0  0  0  0  0  0  0  0  0
   -1.7618   -8.1393    4.3048 C   0  0  0  0  0  0  0  0  0  0  0  0
    0.2790   -9.2428    5.3013 C   0  0  0  0  0  0  0  0  0  0  0  0
    1.7697   -9.5065    5.1700 C   0  0  0  0  0  0  0  0  0  0  0  0
    2.6181   -8.2483    4.8491 C   0  0  1  0  0  0  0  0  0  0  0  0
    2.7361   -7.3877    6.1272 C   0  0  0  0  0  0  0  0  0  0  0  0
    4.0112   -8.7709    4.4399 C   0  0  0  0  0  0  0  0  0  0  0  0
    4.8521   -7.6862    3.7783 C   0  0  0  0  0  0  0  0  0  0  0  0
    4.2135   -7.1033    2.4810 C   0  0  1  0  0  0  0  0  0  0  0  0
    4.4770   -8.1766    1.3811 C   0  0  0  0  0  0  0  0  0  0  0  0
    2.6734   -6.9594    2.6342 C   0  0  0  0  0  0  0  0  0  0  0  0
    1.9847   -7.4152    3.7165 C   0  0  0  0  0  0  0  0  0  0  0  0
    0.4830   -7.1802    3.9256 C   0  0  0  0  0  0  0  0  0  0  0  0
    2.0250   -6.2752    1.4264 C   0  0  0  0  0  0  0  0  0  0  0  0
    2.6683   -4.9345    1.0587 C   0  0  0  0  0  0  0  0  0  0  0  0
    4.1893   -5.0756    0.8291 C   0  0  1  0  0  0  0  0  0  0  0  0
    4.8613   -3.8330    0.0903 C   0  0  1  0  0  0  0  0  0  0  0  0
    4.4384   -3.9488   -1.3980 C   0  0  0  0  0  0  0  0  0  0  0  0
    4.3170   -2.4670    0.6063 C   0  0  0  0  0  0  0  0  0  0  0  0
    5.0097   -1.2388   -0.0023 C   0  0  0  0  0  0  0  0  0  0  0  0
    6.5174   -1.3079    0.2177 C   0  0  1  0  0  0  0  0  0  0  0  0
    6.7064   -1.0877    1.5976 O   0  0  0  0  0  0  0  0  0  0  0  0
    7.1960   -2.6040   -0.3336 C   0  0  0  0  0  0  0  0  0  0  0  0
    7.2175   -2.5615   -1.8855 C   0  0  0  0  0  0  0  0  0  0  0  0
    8.7031   -2.6271    0.0399 C   0  0  0  0  0  0  0  0  0  0  0  0
    6.4380   -3.8938    0.1454 C   0  0  1  0  0  0  0  0  0  0  0  0
    6.9556   -4.4304    1.4869 C   0  0  0  0  0  0  0  0  0  0  0  0
    6.3571   -5.7796    1.8728 C   0  0  0  0  0  0  0  0  0  0  0  0
    4.8410   -5.6682    2.1357 C   0  0  2  0  0  0  0  0  0  0  0  0
    4.6254   -4.7247    3.3706 C   0  0  0  0  0  0  0  0  0  0  0  0
   -0.7596  -10.2803    2.9200 H   0  0  0  0  0  0  0  0  0  0  0  0
    0.8026   -9.5748    2.5008 H   0  0  0  0  0  0  0  0  0  0  0  0
   -0.6843   -8.8154    1.9470 H   0  0  0  0  0  0  0  0  0  0  0  0
   -1.8232   -7.5240    5.1907 H   0  0  0  0  0  0  0  0  0  0  0  0
   -2.3630   -9.0413    4.4575 H   0  0  0  0  0  0  0  0  0  0  0  0
   -2.2047   -7.5833    3.4857 H   0  0  0  0  0  0  0  0  0  0  0  0
    0.0745   -8.6793    6.2093 H   0  0  0  0  0  0  0  0  0  0  0  0
   -0.1618  -10.2292    5.4368 H   0  0  0  0  0  0  0  0  0  0  0  0
    2.1273   -9.9884    6.0823 H   0  0  0  0  0  0  0  0  0  0  0  0
    1.8981  -10.2569    4.3873 H   0  0  0  0  0  0  0  0  0  0  0  0
    3.2765   -7.9229    6.9131 H   0  0  0  0  0  0  0  0  0  0  0  0
    1.7596   -7.1285    6.5397 H   0  0  0  0  0  0  0  0  0  0  0  0
    3.2619   -6.4506    5.9327 H   0  0  0  0  0  0  0  0  0  0  0  0
    4.5257   -9.1666    5.3184 H   0  0  0  0  0  0  0  0  0  0  0  0
    3.9111   -9.6184    3.7574 H   0  0  0  0  0  0  0  0  0  0  0  0
    5.0163   -6.9418    4.5463 H   0  0  0  0  0  0  0  0  0  0  0  0
    5.8410   -8.0991    3.5650 H   0  0  0  0  0  0  0  0  0  0  0  0
    5.5338   -8.4171    1.2854 H   0  0  0  0  0  0  0  0  0  0  0  0
    4.1232   -7.9033    0.3903 H   0  0  0  0  0  0  0  0  0  0  0  0
    3.9740   -9.1137    1.6122 H   0  0  0  0  0  0  0  0  0  0  0  0
    0.0044   -6.5731    3.1762 H   0  0  0  0  0  0  0  0  0  0  0  0
    0.3784   -6.6040    4.8403 H   0  0  0  0  0  0  0  0  0  0  0  0
    2.1071   -6.9549    0.5805 H   0  0  0  0  0  0  0  0  0  0  0  0
    0.9605   -6.1059    1.5241 H   0  0  0  0  0  0  0  0  0  0  0  0
    2.1721   -4.5548    0.1637 H   0  0  0  0  0  0  0  0  0  0  0  0
    2.4594   -4.2023    1.8378 H   0  0  0  0  0  0  0  0  0  0  0  0
    4.3062   -5.8577    0.0834 H   0  0  0  0  0  0  0  0  0  0  0  0
    4.5397   -3.0348   -1.9756 H   0  0  0  0  0  0  0  0  0  0  0  0
    3.3890   -4.2181   -1.4983 H   0  0  0  0  0  0  0  0  0  0  0  0
    4.9987   -4.7306   -1.9080 H   0  0  0  0  0  0  0  0  0  0  0  0
    3.2467   -2.3825    0.3982 H   0  0  0  0  0  0  0  0  0  0  0  0
    4.4150   -2.3770    1.6842 H   0  0  0  0  0  0  0  0  0  0  0  0
    4.7732   -1.1249   -1.0586 H   0  0  0  0  0  0  0  0  0  0  0  0
    4.6202   -0.3302    0.4688 H   0  0  0  0  0  0  0  0  0  0  0  0
    6.9497   -0.4427   -0.2668 H   0  0  0  0  0  0  0  0  0  0  0  0
    6.3806   -1.8367    2.0731 H   0  0  0  0  0  0  0  0  0  0  0  0
    7.3588   -3.5478   -2.3318 H   0  0  0  0  0  0  0  0  0  0  0  0
    8.0323   -1.9314   -2.2604 H   0  0  0  0  0  0  0  0  0  0  0  0
    6.3246   -2.1193   -2.3148 H   0  0  0  0  0  0  0  0  0  0  0  0
    9.2008   -3.5039   -0.3876 H   0  0  0  0  0  0  0  0  0  0  0  0
    8.8909   -2.6259    1.1045 H   0  0  0  0  0  0  0  0  0  0  0  0
    9.2140   -1.7467   -0.3514 H   0  0  0  0  0  0  0  0  0  0  0  0
    6.7483   -4.6662   -0.5529 H   0  0  0  0  0  0  0  0  0  0  0  0
    8.0354   -4.5923    1.4644 H   0  0  0  0  0  0  0  0  0  0  0  0
    6.7391   -3.6810    2.2377 H   0  0  0  0  0  0  0  0  0  0  0  0
    6.5612   -6.4899    1.0701 H   0  0  0  0  0  0  0  0  0  0  0  0
    6.8756   -6.1564    2.7594 H   0  0  0  0  0  0  0  0  0  0  0  0
    4.7997   -3.6836    3.1516 H   0  0  0  0  0  0  0  0  0  0  0  0
    5.3227   -4.9372    4.1792 H   0  0  0  0  0  0  0  0  0  0  0  0
    3.6160   -4.7852    3.7824 H   0  0  0  0  0  0  0  0  0  0  0  0
  1  2  1  0
  1 32  1  0
  1 33  1  0
  1 34  1  0
  2 14  1  0
  2  3  1  0
  2  4  1  0
  3 35  1  0
  3 36  1  0
  3 37  1  0
  4  5  1  0
  4 38  1  0
  4 39  1  0
  5  6  1  0
  5 40  1  0
  5 41  1  0
  6 13  1  0
  6  7  1  1
  6  8  1  0
  7 42  1  0
  7 43  1  0
  7 44  1  0
  8  9  1  0
  8 45  1  0
  8 46  1  0
  9 10  1  0
  9 47  1  0
  9 48  1  0
 10 30  1  0
 10 11  1  6
 10 12  1  0
 11 49  1  0
 11 50  1  0
 11 51  1  0
 12 13  2  0
 12 15  1  0
 13 14  1  0
 14 52  1  0
 14 53  1  0
 15 16  1  0
 15 54  1  0
 15 55  1  0
 16 17  1  0
 16 56  1  0
 16 57  1  0
 17 30  1  0
 17 18  1  0
 17 58  1  6
 18 27  1  0
 18 19  1  6
 18 20  1  0
 19 59  1  0
 19 60  1  0
 19 61  1  0
 20 21  1  0
 20 62  1  0
 20 63  1  0
 21 22  1  0
 21 64  1  0
 21 65  1  0
 22 23  1  0
 22 24  1  0
 22 66  1  6
 23 67  1  0
 24 25  1  0
 24 26  1  0
 24 27  1  0
 25 68  1  0
 25 69  1  0
 25 70  1  0
 26 71  1  0
 26 72  1  0
 26 73  1  0
 27 28  1  0
 27 74  1  6
 28 29  1  0
 28 75  1  0
 28 76  1  0
 29 30  1  0
 29 77  1  0
 29 78  1  0
 30 31  1  1
 31 79  1  0
 31 80  1  0
 31 81  1  0
M  END
>  <i_m_ct_stereo_status>  (352) 
1

>  <s_m_source_file>  (352) 
/var/tmp/pbs.5076255.sched01/tmpjgl1obm9/123zpz496x9.sdf

>  <i_m_source_file_index>  (352) 
23

>  <i_lp_mmshare_version>  (352) 
48012

>  <i_f3d_flags>  (352) 
0

>  <s_epik_input>  (352) 
W0NIMl0xW0NIMl1DKFtDSDNdKShbQ0gzXSlbQ0gyXUMoW0NAQF0xMltDSDNdKT1DM1tDQF0oW0NIM10pKFtDSDJdW0NIMl0yKVtDQF00KFtDSDNdKVtDQEBIXShbQ0gyXVtDSDJdMylbQ0BdNShbQ0gzXSlbQ0BIXShbQ0gyXVtDSDJdNClDKFtDSDNdKShbQ0gzXSlbQ0BIXShbT0hdKVtDSDJdW0NIMl01

>  <s_epik_cmdline>  (352) 
J2VwaWtfcHl0aG9uJywgJy1waHQnLCAnMi4wJywgJy1waCcsICc3LjAnLCAnLXRuJywgJzgnLCAnLW1hJywgJzIwMCcsICctaW1hZScsICc8aW5maWxlLm1hZT4nLCAnLW9tYWUnLCAnPG91dGZpbGUubWFlPic=

>  <r_lp_tautomer_probability>  (352) 
1

>  <r_epik_Ionization_Penalty>  (352) 
3.03356e-06

>  <r_epik_Ionization_Penalty_Charging>  (352) 
0

>  <r_epik_Ionization_Penalty_Neutral>  (352) 
3.03356e-06

>  <r_epik_State_Penalty>  (352) 
-0

>  <r_epik_Charging_Adjusted_Penalty>  (352) 
0

>  <i_epik_Tot_Q>  (352) 
0

>  <i_epik_Tot_abs_Q>  (352) 
0

>  <s_lp_Force_Field>  (352) 
OPLS3e

>  <r_lp_Energy>  (352) 
90.0445

>  <b_lp_Chiralities_Consistent>  (352) 
1

>  <s_lp_Variant>  (352) 
106:0-1

>  <s_i_glide_gridfile>  (352) 
pfpi4k_grid

>  <i_i_glide_lignum>  (352) 
23

>  <i_i_glide_rotatable_bonds>  (352) 
1

>  <r_i_docking_score>  (352) 
-1.78734

>  <r_i_glide_ligand_efficiency>  (352) 
-0.0576561

>  <r_i_glide_ligand_efficiency_sa>  (352) 
-0.18112

>  <r_i_glide_ligand_efficiency_ln>  (352) 
-0.4031

>  <r_i_glide_gscore>  (352) 
-1.78734

>  <r_i_glide_lipo>  (352) 
-0.348479

>  <r_i_glide_hbond>  (352) 
0

>  <r_i_glide_metal>  (352) 
-0

>  <r_i_glide_rewards>  (352) 
-0.499654

>  <r_i_glide_evdw>  (352) 
-23.183

>  <r_i_glide_ecoul>  (352) 
1.46628

>  <r_i_glide_erotb>  (352) 
0

>  <r_i_glide_esite>  (352) 
0

>  <r_i_glide_emodel>  (352) 
-23.2677

>  <r_i_glide_energy>  (352) 
-21.7167

>  <r_i_glide_einternal>  (352) 
0.0109453

>  <r_i_glide_intrahb_reward>  (352) 
-0

>  <i_i_glide_confnum>  (352) 
2

>  <i_i_glide_posenum>  (352) 
7

>  <r_i_glide_eff_state_penalty>  (352) 
0

>  <ligand_id>  (352) 
106

>  <original_smiles>  (352) 
CC1(C)CCC2(C)CCC3(C)C(=C2C1)CCC1C2(C)CCC(O)C(C)(C)C2CCC13C

>  <smiles>  (352) 
[H]OC1([H])C([H])([H])C([H])([H])C2(C([H])([H])[H])C([H])(C([H])([H])C([H])([H])C3(C([H])([H])[H])C2([H])C([H])([H])C([H])([H])C2=C4C([H])([H])C(C([H])([H])[H])(C([H])([H])[H])C([H])([H])C([H])([H])C4(C([H])([H])[H])C([H])([H])C([H])([H])C23C([H])([H])[H])C1(C([H])([H])[H])C([H])([H])[H]

$$$$
107:0:0
     RDKit          3D

 58 62  0  0  1  0  0  0  0  0999 V2000
    7.2477   -3.5610   -0.7361 C   0  0  0  0  0  0  0  0  0  0  0  0
    6.7142   -2.5991    0.1916 O   0  0  0  0  0  0  0  0  0  0  0  0
    5.2834   -2.4528    0.3091 C   0  0  2  0  0  0  0  0  0  0  0  0
    4.8868   -1.5283    1.4620 C   0  0  0  0  0  0  0  0  0  0  0  0
    5.0075   -2.1844    2.8739 C   0  0  1  0  0  0  0  0  0  0  0  0
    4.6876   -1.0601    3.8957 C   0  0  0  0  0  0  0  0  0  0  0  0
    4.2029   -3.5772    2.9997 C   0  0  2  0  0  0  0  0  0  0  0  0
    2.8593   -3.1206    2.8690 O   0  0  0  0  0  0  0  0  0  0  0  0
    4.3170   -4.3615    4.3372 C   0  0  0  0  0  0  0  0  0  0  0  0
    4.6429   -3.5805    5.2741 O   0  0  0  0  0  0  0  0  0  0  0  0
    4.3088   -5.7524    4.3349 C   0  0  0  0  0  0  0  0  0  0  0  0
    5.0468   -6.4648    5.3969 C   0  0  0  0  0  0  0  0  0  0  0  0
    4.5209   -7.2151    6.2053 O   0  0  0  0  0  0  0  0  0  0  0  0
    6.4811   -6.1418    5.4062 C   0  0  0  0  0  0  0  0  0  0  0  0
    7.2031   -5.8811    4.2795 C   0  0  0  0  0  0  0  0  0  0  0  0
    6.8694   -6.1725    2.8106 C   0  0  1  0  0  0  0  0  0  0  0  0
    8.2731   -6.3271    2.1302 C   0  0  0  0  0  0  0  0  0  0  0  0
    6.2197   -7.5565    2.5798 C   0  0  0  0  0  0  0  0  0  0  0  0
    4.8766   -7.7565    2.9963 O   0  0  0  0  0  0  0  0  0  0  0  0
    3.9843   -6.6505    3.1231 C   0  0  2  0  0  0  0  0  0  0  0  0
    3.7216   -5.8736    1.7979 C   0  0  0  0  0  0  0  0  0  0  0  0
    3.9811   -6.7553    0.5429 C   0  0  0  0  0  0  0  0  0  0  0  0
    2.1878   -5.6136    1.7454 C   0  0  0  0  0  0  0  0  0  0  0  0
    4.6246   -4.5828    1.8383 C   0  0  2  0  0  0  0  0  0  0  0  0
    6.1687   -5.0044    2.0107 C   0  0  0  0  0  0  0  0  0  0  0  0
    4.5453   -3.7368    0.5198 C   0  0  0  0  0  0  0  0  0  0  0  0
    3.8126   -3.6682   -0.6034 C   0  0  0  0  0  0  0  0  0  0  0  0
    4.5576   -2.3955   -1.0727 C   0  0  1  0  0  0  0  0  0  0  0  0
    3.7243   -1.2764   -1.3452 O   0  0  0  0  0  0  0  0  0  0  0  0
    8.3211   -3.6725   -0.5449 H   0  0  0  0  0  0  0  0  0  0  0  0
    7.1085   -3.3234   -1.7948 H   0  0  0  0  0  0  0  0  0  0  0  0
    6.7936   -4.5454   -0.6639 H   0  0  0  0  0  0  0  0  0  0  0  0
    5.4699   -0.6097    1.3981 H   0  0  0  0  0  0  0  0  0  0  0  0
    3.8460   -1.2193    1.3372 H   0  0  0  0  0  0  0  0  0  0  0  0
    6.0647   -2.3800    3.0172 H   0  0  0  0  0  0  0  0  0  0  0  0
    3.6191   -0.8762    3.9784 H   0  0  0  0  0  0  0  0  0  0  0  0
    5.1616   -0.1213    3.6171 H   0  0  0  0  0  0  0  0  0  0  0  0
    5.0684   -1.2607    4.8931 H   0  0  0  0  0  0  0  0  0  0  0  0
    2.8199   -2.5750    2.1134 H   0  0  0  0  0  0  0  0  0  0  0  0
    6.9335   -5.9031    6.3558 H   0  0  0  0  0  0  0  0  0  0  0  0
    8.2050   -5.5182    4.4315 H   0  0  0  0  0  0  0  0  0  0  0  0
    8.2184   -6.6260    1.0827 H   0  0  0  0  0  0  0  0  0  0  0  0
    8.8752   -7.0931    2.6119 H   0  0  0  0  0  0  0  0  0  0  0  0
    8.8582   -5.4108    2.1514 H   0  0  0  0  0  0  0  0  0  0  0  0
    6.2851   -7.8462    1.5297 H   0  0  0  0  0  0  0  0  0  0  0  0
    6.8186   -8.3083    3.0936 H   0  0  0  0  0  0  0  0  0  0  0  0
    3.0677   -7.1653    3.3977 H   0  0  0  0  0  0  0  0  0  0  0  0
    3.4115   -6.3993   -0.3082 H   0  0  0  0  0  0  0  0  0  0  0  0
    3.7101   -7.7966    0.7135 H   0  0  0  0  0  0  0  0  0  0  0  0
    5.0079   -6.7531    0.2022 H   0  0  0  0  0  0  0  0  0  0  0  0
    1.9286   -4.8340    1.0321 H   0  0  0  0  0  0  0  0  0  0  0  0
    1.8010   -5.3099    2.7168 H   0  0  0  0  0  0  0  0  0  0  0  0
    1.6272   -6.5114    1.4781 H   0  0  0  0  0  0  0  0  0  0  0  0
    6.7985   -4.1250    2.0816 H   0  0  0  0  0  0  0  0  0  0  0  0
    6.3463   -5.4622    1.0594 H   0  0  0  0  0  0  0  0  0  0  0  0
    3.0278   -4.2524   -1.0689 H   0  0  0  0  0  0  0  0  0  0  0  0
    5.2105   -2.5170   -1.9282 H   0  0  0  0  0  0  0  0  0  0  0  0
    2.8560   -1.4330   -1.0339 H   0  0  0  0  0  0  0  0  0  0  0  0
  1  2  1  0
  1 30  1  0
  1 31  1  0
  1 32  1  0
  3  2  1  6
  3 26  1  0
  3 28  1  0
  3  4  1  0
  4  5  1  0
  4 33  1  0
  4 34  1  0
  5  6  1  0
  5  7  1  0
  5 35  1  1
  6 36  1  0
  6 37  1  0
  6 38  1  0
  7 24  1  0
  7  8  1  6
  7  9  1  0
  8 39  1  0
  9 10  1  0
  9 11  2  0
 11 20  1  0
 11 12  1  0
 12 13  2  0
 12 14  1  0
 14 15  2  3
 14 40  1  0
 15 16  1  0
 15 41  1  0
 16 25  1  0
 16 17  1  6
 16 18  1  0
 17 42  1  0
 17 43  1  0
 17 44  1  0
 18 19  1  0
 18 45  1  0
 18 46  1  0
 19 20  1  0
 20 21  1  0
 20 47  1  1
 21 22  1  0
 21 23  1  0
 21 24  1  0
 22 48  1  0
 22 49  1  0
 22 50  1  0
 23 51  1  0
 23 52  1  0
 23 53  1  0
 24 25  1  1
 24 26  1  0
 25 54  1  0
 25 55  1  0
 26 27  2  0
 27 28  1  0
 27 56  1  0
 28 29  1  0
 28 57  1  6
 29 58  1  0
M  CHG  1  10  -1
M  END
>  <i_m_ct_stereo_status>  (353) 
1

>  <s_m_source_file>  (353) 
/var/tmp/pbs.5076255.sched01/tmpjgl1obm9/123zpz496x9.sdf

>  <i_m_source_file_index>  (353) 
24

>  <i_lp_mmshare_version>  (353) 
48012

>  <i_f3d_flags>  (353) 
0

>  <s_epik_input>  (353) 
W09IXVtDQEBIXTFbQ0hdPUMyW0NAXTEoT1tDSDNdKVtDSDJdW0NAQEhdKFtDSDNdKVtDQF0oW0NAXTIzNCkoW09IXSlDKD1PKVtDQEhdNVtDQEBIXShDMyhbQ0gzXSlbQ0gzXSlPW0NIMl1bQ0BAXShbQ0gzXSkoW0NIMl00KS9bQ0hdPVtDSF1cQzU9Tw==

>  <s_epik_cmdline>  (353) 
J2VwaWtfcHl0aG9uJywgJy1waHQnLCAnMi4wJywgJy1waCcsICc3LjAnLCAnLXRuJywgJzgnLCAnLW1hJywgJzIwMCcsICctaW1hZScsICc8aW5maWxlLm1hZT4nLCAnLW9tYWUnLCAnPG91dGZpbGUubWFlPic=

>  <r_epik_Ionization_Penalty>  (353) 
0.00636139

>  <r_epik_Ionization_Penalty_Charging>  (353) 
0.00540308

>  <r_epik_Ionization_Penalty_Neutral>  (353) 
0.000958314

>  <r_epik_State_Penalty>  (353) 
0.023161

>  <r_epik_Charging_Adjusted_Penalty>  (353) 
0.028564

>  <i_epik_Tot_Q>  (353) 
-1

>  <i_epik_Tot_abs_Q>  (353) 
1

>  <s_lp_Force_Field>  (353) 
OPLS3e

>  <r_lp_Energy>  (353) 
100.266

>  <b_lp_Chiralities_Consistent>  (353) 
1

>  <s_lp_Variant>  (353) 
107:0-1

>  <s_i_glide_gridfile>  (353) 
pfpi4k_grid

>  <i_i_glide_lignum>  (353) 
24

>  <i_i_glide_rotatable_bonds>  (353) 
3

>  <r_i_docking_score>  (353) 
-2.54198

>  <r_i_glide_ligand_efficiency>  (353) 
-0.0876544

>  <r_i_glide_ligand_efficiency_sa>  (353) 
-0.269302

>  <r_i_glide_ligand_efficiency_ln>  (353) 
-0.582049

>  <r_i_glide_gscore>  (353) 
-2.54198

>  <r_i_glide_lipo>  (353) 
-0.633929

>  <r_i_glide_hbond>  (353) 
-0.0999221

>  <r_i_glide_metal>  (353) 
-0

>  <r_i_glide_rewards>  (353) 
-0.671777

>  <r_i_glide_evdw>  (353) 
-17.6559

>  <r_i_glide_ecoul>  (353) 
-1.69036

>  <r_i_glide_erotb>  (353) 
0

>  <r_i_glide_esite>  (353) 
0

>  <r_i_glide_emodel>  (353) 
-20.9459

>  <r_i_glide_energy>  (353) 
-19.3463

>  <r_i_glide_einternal>  (353) 
1.10164

>  <r_i_glide_intrahb_reward>  (353) 
-0

>  <i_i_glide_confnum>  (353) 
1

>  <i_i_glide_posenum>  (353) 
1

>  <r_i_glide_eff_state_penalty>  (353) 
0

>  <ligand_id>  (353) 
107

>  <original_smiles>  (353) 
COC12CC(C)C3(O)C(=O)C4C(=O)C=CC5(C)COC4C(C)(C)C3(C5)C1=CC2O

>  <smiles>  (353) 
[H]OC1([H])C([H])=C2C1(OC([H])([H])[H])C([H])([H])C([H])(C([H])([H])[H])C1(O[H])C([O-])=C3C(=O)C([H])=C([H])C4(C([H])([H])[H])C([H])([H])OC3([H])C(C([H])([H])[H])(C([H])([H])[H])C21C4([H])[H]

$$$$
107:0:1
     RDKit          3D

 58 62  0  0  1  0  0  0  0  0999 V2000
    8.5729   -2.0906    0.0964 C   0  0  0  0  0  0  0  0  0  0  0  0
    7.5840   -3.0334    0.4815 O   0  0  0  0  0  0  0  0  0  0  0  0
    6.2438   -2.6643    0.1785 C   0  0  2  0  0  0  0  0  0  0  0  0
    5.6546   -1.5898    1.0843 C   0  0  0  0  0  0  0  0  0  0  0  0
    5.2693   -2.1049    2.4984 C   0  0  1  0  0  0  0  0  0  0  0  0
    4.8115   -0.8489    3.2892 C   0  0  0  0  0  0  0  0  0  0  0  0
    4.2901   -3.3802    2.4638 C   0  0  2  0  0  0  0  0  0  0  0  0
    3.1161   -2.8084    1.9055 O   0  0  0  0  0  0  0  0  0  0  0  0
    3.8917   -4.0145    3.8283 C   0  0  0  0  0  0  0  0  0  0  0  0
    4.0159   -3.1975    4.7692 O   0  0  0  0  0  0  0  0  0  0  0  0
    3.6665   -5.3888    3.9152 C   0  0  0  0  0  0  0  0  0  0  0  0
    3.9337   -6.0415    5.2011 C   0  0  0  0  0  0  0  0  0  0  0  0
    3.0965   -6.6481    5.8637 O   0  0  0  0  0  0  0  0  0  0  0  0
    5.3409   -5.8823    5.6070 C   0  0  0  0  0  0  0  0  0  0  0  0
    6.3754   -5.8298    4.7306 C   0  0  0  0  0  0  0  0  0  0  0  0
    6.4753   -6.2576    3.2396 C   0  0  1  0  0  0  0  0  0  0  0  0
    7.9702   -6.6632    3.0869 C   0  0  0  0  0  0  0  0  0  0  0  0
    5.7207   -7.5808    2.9672 C   0  0  0  0  0  0  0  0  0  0  0  0
    4.3029   -7.5712    2.9710 O   0  0  0  0  0  0  0  0  0  0  0  0
    3.5854   -6.3653    2.7335 C   0  0  2  0  0  0  0  0  0  0  0  0
    3.8438   -5.7237    1.3411 C   0  0  0  0  0  0  0  0  0  0  0  0
    4.3290   -6.7688    0.3010 C   0  0  0  0  0  0  0  0  0  0  0  0
    2.4480   -5.3008    0.8023 C   0  0  0  0  0  0  0  0  0  0  0  0
    4.8856   -4.5454    1.5483 C   0  0  2  0  0  0  0  0  0  0  0  0
    6.2565   -5.1333    2.1352 C   0  0  0  0  0  0  0  0  0  0  0  0
    5.3175   -3.8486    0.2443 C   0  0  0  0  0  0  0  0  0  0  0  0
    4.9519   -3.8173   -1.0431 C   0  0  0  0  0  0  0  0  0  0  0  0
    5.9775   -2.7249   -1.3520 C   0  0  1  0  0  0  0  0  0  0  0  0
    5.4159   -1.5776   -1.9535 O   0  0  0  0  0  0  0  0  0  0  0  0
    9.5611   -2.5045    0.3126 H   0  0  0  0  0  0  0  0  0  0  0  0
    8.4718   -1.1546    0.6520 H   0  0  0  0  0  0  0  0  0  0  0  0
    8.5464   -1.8679   -0.9737 H   0  0  0  0  0  0  0  0  0  0  0  0
    6.3319   -0.7440    1.1651 H   0  0  0  0  0  0  0  0  0  0  0  0
    4.7518   -1.1849    0.6276 H   0  0  0  0  0  0  0  0  0  0  0  0
    6.1908   -2.4117    2.9820 H   0  0  0  0  0  0  0  0  0  0  0  0
    3.8004   -0.5350    3.0214 H   0  0  0  0  0  0  0  0  0  0  0  0
    5.4818   -0.0102    3.0995 H   0  0  0  0  0  0  0  0  0  0  0  0
    4.8525   -0.9730    4.3703 H   0  0  0  0  0  0  0  0  0  0  0  0
    3.3383   -2.4510    1.0658 H   0  0  0  0  0  0  0  0  0  0  0  0
    5.5200   -5.6263    6.6406 H   0  0  0  0  0  0  0  0  0  0  0  0
    7.3288   -5.5690    5.1745 H   0  0  0  0  0  0  0  0  0  0  0  0
    8.1867   -7.0719    2.0989 H   0  0  0  0  0  0  0  0  0  0  0  0
    8.2590   -7.4292    3.8082 H   0  0  0  0  0  0  0  0  0  0  0  0
    8.6418   -5.8151    3.2355 H   0  0  0  0  0  0  0  0  0  0  0  0
    6.0505   -8.0128    2.0241 H   0  0  0  0  0  0  0  0  0  0  0  0
    6.0219   -8.3205    3.7111 H   0  0  0  0  0  0  0  0  0  0  0  0
    2.5611   -6.7264    2.7544 H   0  0  0  0  0  0  0  0  0  0  0  0
    4.1070   -6.4682   -0.7101 H   0  0  0  0  0  0  0  0  0  0  0  0
    3.8552   -7.7384    0.4698 H   0  0  0  0  0  0  0  0  0  0  0  0
    5.4017   -6.9205    0.3224 H   0  0  0  0  0  0  0  0  0  0  0  0
    2.5147   -4.5902   -0.0193 H   0  0  0  0  0  0  0  0  0  0  0  0
    1.8421   -4.8532    1.5885 H   0  0  0  0  0  0  0  0  0  0  0  0
    1.8724   -6.1583    0.4494 H   0  0  0  0  0  0  0  0  0  0  0  0
    6.8691   -4.3045    2.4573 H   0  0  0  0  0  0  0  0  0  0  0  0
    6.7964   -5.5078    1.2618 H   0  0  0  0  0  0  0  0  0  0  0  0
    4.2464   -4.3605   -1.6665 H   0  0  0  0  0  0  0  0  0  0  0  0
    6.8552   -3.0474   -1.9143 H   0  0  0  0  0  0  0  0  0  0  0  0
    4.5338   -1.4854   -1.6277 H   0  0  0  0  0  0  0  0  0  0  0  0
  1  2  1  0
  1 30  1  0
  1 31  1  0
  1 32  1  0
  3  2  1  6
  3 26  1  0
  3 28  1  0
  3  4  1  0
  4  5  1  0
  4 33  1  0
  4 34  1  0
  5  6  1  0
  5  7  1  0
  5 35  1  1
  6 36  1  0
  6 37  1  0
  6 38  1  0
  7 24  1  0
  7  8  1  6
  7  9  1  0
  8 39  1  0
  9 10  1  0
  9 11  2  0
 11 20  1  0
 11 12  1  0
 12 13  2  0
 12 14  1  0
 14 15  2  3
 14 40  1  0
 15 16  1  0
 15 41  1  0
 16 25  1  0
 16 17  1  1
 16 18  1  0
 17 42  1  0
 17 43  1  0
 17 44  1  0
 18 19  1  0
 18 45  1  0
 18 46  1  0
 19 20  1  0
 20 21  1  0
 20 47  1  6
 21 22  1  0
 21 23  1  0
 21 24  1  0
 22 48  1  0
 22 49  1  0
 22 50  1  0
 23 51  1  0
 23 52  1  0
 23 53  1  0
 24 25  1  1
 24 26  1  0
 25 54  1  0
 25 55  1  0
 26 27  2  0
 27 28  1  0
 27 56  1  0
 28 29  1  0
 28 57  1  6
 29 58  1  0
M  CHG  1  10  -1
M  END
>  <i_m_ct_stereo_status>  (354) 
1

>  <s_m_source_file>  (354) 
/var/tmp/pbs.5076255.sched01/tmpjgl1obm9/123zpz496x9.sdf

>  <i_m_source_file_index>  (354) 
24

>  <i_lp_mmshare_version>  (354) 
48012

>  <i_f3d_flags>  (354) 
0

>  <s_epik_input>  (354) 
W09IXVtDQEBIXTFbQ0hdPUMyW0NAXTEoT1tDSDNdKVtDSDJdW0NAQEhdKFtDSDNdKVtDQF0oW0NAXTIzNCkoW09IXSlDKD1PKVtDQEhdNVtDQEBIXShDMyhbQ0gzXSlbQ0gzXSlPW0NIMl1bQ0BAXShbQ0gzXSkoW0NIMl00KS9bQ0hdPVtDSF1cQzU9Tw==

>  <s_epik_cmdline>  (354) 
J2VwaWtfcHl0aG9uJywgJy1waHQnLCAnMi4wJywgJy1waCcsICc3LjAnLCAnLXRuJywgJzgnLCAnLW1hJywgJzIwMCcsICctaW1hZScsICc8aW5maWxlLm1hZT4nLCAnLW9tYWUnLCAnPG91dGZpbGUubWFlPic=

>  <r_epik_Ionization_Penalty>  (354) 
0.00636139

>  <r_epik_Ionization_Penalty_Charging>  (354) 
0.00540308

>  <r_epik_Ionization_Penalty_Neutral>  (354) 
0.000958314

>  <r_epik_State_Penalty>  (354) 
0.023161

>  <r_epik_Charging_Adjusted_Penalty>  (354) 
0.028564

>  <i_epik_Tot_Q>  (354) 
-1

>  <i_epik_Tot_abs_Q>  (354) 
1

>  <s_lp_Force_Field>  (354) 
OPLS3e

>  <r_lp_Energy>  (354) 
100.266

>  <b_lp_Chiralities_Consistent>  (354) 
1

>  <s_lp_Variant>  (354) 
107:0-1

>  <s_i_glide_gridfile>  (354) 
pfpi4k_grid

>  <i_i_glide_lignum>  (354) 
24

>  <i_i_glide_rotatable_bonds>  (354) 
3

>  <r_i_docking_score>  (354) 
-2.47776

>  <r_i_glide_ligand_efficiency>  (354) 
-0.0854401

>  <r_i_glide_ligand_efficiency_sa>  (354) 
-0.262499

>  <r_i_glide_ligand_efficiency_ln>  (354) 
-0.567345

>  <r_i_glide_gscore>  (354) 
-2.47776

>  <r_i_glide_lipo>  (354) 
-0.668352

>  <r_i_glide_hbond>  (354) 
0

>  <r_i_glide_metal>  (354) 
-0

>  <r_i_glide_rewards>  (354) 
-0.671777

>  <r_i_glide_evdw>  (354) 
-20.9274

>  <r_i_glide_ecoul>  (354) 
-0.608431

>  <r_i_glide_erotb>  (354) 
0

>  <r_i_glide_esite>  (354) 
0

>  <r_i_glide_emodel>  (354) 
-25.0039

>  <r_i_glide_energy>  (354) 
-21.5358

>  <r_i_glide_einternal>  (354) 
0.225586

>  <r_i_glide_intrahb_reward>  (354) 
-0

>  <i_i_glide_confnum>  (354) 
1

>  <i_i_glide_posenum>  (354) 
39

>  <r_i_glide_eff_state_penalty>  (354) 
0

>  <ligand_id>  (354) 
107

>  <original_smiles>  (354) 
COC12CC(C)C3(O)C(=O)C4C(=O)C=CC5(C)COC4C(C)(C)C3(C5)C1=CC2O

>  <smiles>  (354) 
[H]OC1([H])C([H])=C2C1(OC([H])([H])[H])C([H])([H])C([H])(C([H])([H])[H])C1(O[H])C([O-])=C3C(=O)C([H])=C([H])C4(C([H])([H])[H])C([H])([H])OC3([H])C(C([H])([H])[H])(C([H])([H])[H])C21C4([H])[H]

$$$$
107:0:2
     RDKit          3D

 58 62  0  0  1  0  0  0  0  0999 V2000
    8.0396   -3.4786   -0.2640 C   0  0  0  0  0  0  0  0  0  0  0  0
    7.2205   -2.4819    0.3712 O   0  0  0  0  0  0  0  0  0  0  0  0
    5.8351   -2.3414   -0.0140 C   0  0  2  0  0  0  0  0  0  0  0  0
    5.0655   -1.3525    0.8717 C   0  0  0  0  0  0  0  0  0  0  0  0
    4.6802   -1.9110    2.2778 C   0  0  1  0  0  0  0  0  0  0  0  0
    4.0218   -0.7352    3.0458 C   0  0  0  0  0  0  0  0  0  0  0  0
    3.8736   -3.3089    2.2049 C   0  0  2  0  0  0  0  0  0  0  0  0
    2.6549   -2.8980    1.5885 O   0  0  0  0  0  0  0  0  0  0  0  0
    3.5135   -3.9942    3.5535 C   0  0  0  0  0  0  0  0  0  0  0  0
    3.4933   -3.1796    4.4831 O   0  0  0  0  0  0  0  0  0  0  0  0
    3.4933   -5.4022    3.6349 C   0  0  0  0  0  0  0  0  0  0  0  0
    3.8124   -6.0155    4.9259 C   0  0  0  0  0  0  0  0  0  0  0  0
    3.0366   -6.7444    5.5469 O   0  0  0  0  0  0  0  0  0  0  0  0
    5.1610   -5.6679    5.4167 C   0  0  0  0  0  0  0  0  0  0  0  0
    6.2220   -5.4631    4.5959 C   0  0  0  0  0  0  0  0  0  0  0  0
    6.4341   -5.8537    3.1143 C   0  0  1  0  0  0  0  0  0  0  0  0
    7.9812   -6.0353    2.9861 C   0  0  0  0  0  0  0  0  0  0  0  0
    5.8956   -7.2672    2.7767 C   0  0  0  0  0  0  0  0  0  0  0  0
    4.4912   -7.4707    2.7052 O   0  0  0  0  0  0  0  0  0  0  0  0
    3.6137   -6.3706    2.4480 C   0  0  2  0  0  0  0  0  0  0  0  0
    3.8331   -5.6917    1.0704 C   0  0  0  0  0  0  0  0  0  0  0  0
    4.5193   -6.6480    0.0509 C   0  0  0  0  0  0  0  0  0  0  0  0
    2.4172   -5.4592    0.4667 C   0  0  0  0  0  0  0  0  0  0  0  0
    4.6775   -4.3750    1.3260 C   0  0  2  0  0  0  0  0  0  0  0  0
    6.0701   -4.7648    2.0340 C   0  0  0  0  0  0  0  0  0  0  0  0
    5.0561   -3.6256    0.0320 C   0  0  0  0  0  0  0  0  0  0  0  0
    4.7613   -3.6345   -1.3017 C   0  0  0  0  0  0  0  0  0  0  0  0
    5.6172   -2.3807   -1.5586 C   0  0  1  0  0  0  0  0  0  0  0  0
    4.9162   -1.3195   -2.1874 O   0  0  0  0  0  0  0  0  0  0  0  0
    8.9672   -3.5419    0.3046 H   0  0  0  0  0  0  0  0  0  0  0  0
    8.3110   -3.2410   -1.2927 H   0  0  0  0  0  0  0  0  0  0  0  0
    7.6014   -4.4704   -0.3056 H   0  0  0  0  0  0  0  0  0  0  0  0
    5.6336   -0.4248    0.9627 H   0  0  0  0  0  0  0  0  0  0  0  0
    4.1295   -1.0679    0.3780 H   0  0  0  0  0  0  0  0  0  0  0  0
    5.6133   -2.0801    2.8069 H   0  0  0  0  0  0  0  0  0  0  0  0
    2.9928   -0.5687    2.7387 H   0  0  0  0  0  0  0  0  0  0  0  0
    4.5671    0.1906    2.8853 H   0  0  0  0  0  0  0  0  0  0  0  0
    4.0330   -0.8644    4.1238 H   0  0  0  0  0  0  0  0  0  0  0  0
    2.8796   -2.3911    0.8292 H   0  0  0  0  0  0  0  0  0  0  0  0
    5.2549   -5.3763    6.4522 H   0  0  0  0  0  0  0  0  0  0  0  0
    7.1166   -5.0729    5.0661 H   0  0  0  0  0  0  0  0  0  0  0  0
    8.2861   -6.4018    2.0075 H   0  0  0  0  0  0  0  0  0  0  0  0
    8.3708   -6.7565    3.7006 H   0  0  0  0  0  0  0  0  0  0  0  0
    8.5450   -5.1177    3.1335 H   0  0  0  0  0  0  0  0  0  0  0  0
    6.3231   -7.6179    1.8381 H   0  0  0  0  0  0  0  0  0  0  0  0
    6.2776   -7.9767    3.5128 H   0  0  0  0  0  0  0  0  0  0  0  0
    2.6576   -6.8860    2.4146 H   0  0  0  0  0  0  0  0  0  0  0  0
    4.3075   -6.3660   -0.9732 H   0  0  0  0  0  0  0  0  0  0  0  0
    4.2003   -7.6857    0.1705 H   0  0  0  0  0  0  0  0  0  0  0  0
    5.5991   -6.6338    0.0999 H   0  0  0  0  0  0  0  0  0  0  0  0
    2.4218   -4.7384   -0.3487 H   0  0  0  0  0  0  0  0  0  0  0  0
    1.7268   -5.1090    1.2315 H   0  0  0  0  0  0  0  0  0  0  0  0
    1.9740   -6.3767    0.0809 H   0  0  0  0  0  0  0  0  0  0  0  0
    6.6078   -3.8616    2.3048 H   0  0  0  0  0  0  0  0  0  0  0  0
    6.5773   -5.2355    1.2217 H   0  0  0  0  0  0  0  0  0  0  0  0
    4.1668   -4.2453   -1.9459 H   0  0  0  0  0  0  0  0  0  0  0  0
    6.5228   -2.5423   -2.1311 H   0  0  0  0  0  0  0  0  0  0  0  0
    4.0496   -1.2916   -1.8202 H   0  0  0  0  0  0  0  0  0  0  0  0
  1  2  1  0
  1 30  1  0
  1 31  1  0
  1 32  1  0
  3  2  1  6
  3 26  1  0
  3 28  1  0
  3  4  1  0
  4  5  1  0
  4 33  1  0
  4 34  1  0
  5  6  1  0
  5  7  1  0
  5 35  1  1
  6 36  1  0
  6 37  1  0
  6 38  1  0
  7 24  1  0
  7  8  1  6
  7  9  1  0
  8 39  1  0
  9 10  1  0
  9 11  2  0
 11 20  1  0
 11 12  1  0
 12 13  2  0
 12 14  1  0
 14 15  2  3
 14 40  1  0
 15 16  1  0
 15 41  1  0
 16 25  1  0
 16 17  1  1
 16 18  1  0
 17 42  1  0
 17 43  1  0
 17 44  1  0
 18 19  1  0
 18 45  1  0
 18 46  1  0
 19 20  1  0
 20 21  1  0
 20 47  1  6
 21 22  1  0
 21 23  1  0
 21 24  1  0
 22 48  1  0
 22 49  1  0
 22 50  1  0
 23 51  1  0
 23 52  1  0
 23 53  1  0
 24 25  1  1
 24 26  1  0
 25 54  1  0
 25 55  1  0
 26 27  2  0
 27 28  1  0
 27 56  1  0
 28 29  1  0
 28 57  1  6
 29 58  1  0
M  CHG  1  10  -1
M  END
>  <i_m_ct_stereo_status>  (355) 
1

>  <s_m_source_file>  (355) 
/var/tmp/pbs.5076255.sched01/tmpjgl1obm9/123zpz496x9.sdf

>  <i_m_source_file_index>  (355) 
24

>  <i_lp_mmshare_version>  (355) 
48012

>  <i_f3d_flags>  (355) 
0

>  <s_epik_input>  (355) 
W09IXVtDQEBIXTFbQ0hdPUMyW0NAXTEoT1tDSDNdKVtDSDJdW0NAQEhdKFtDSDNdKVtDQF0oW0NAXTIzNCkoW09IXSlDKD1PKVtDQEhdNVtDQEBIXShDMyhbQ0gzXSlbQ0gzXSlPW0NIMl1bQ0BAXShbQ0gzXSkoW0NIMl00KS9bQ0hdPVtDSF1cQzU9Tw==

>  <s_epik_cmdline>  (355) 
J2VwaWtfcHl0aG9uJywgJy1waHQnLCAnMi4wJywgJy1waCcsICc3LjAnLCAnLXRuJywgJzgnLCAnLW1hJywgJzIwMCcsICctaW1hZScsICc8aW5maWxlLm1hZT4nLCAnLW9tYWUnLCAnPG91dGZpbGUubWFlPic=

>  <r_epik_Ionization_Penalty>  (355) 
0.00636139

>  <r_epik_Ionization_Penalty_Charging>  (355) 
0.00540308

>  <r_epik_Ionization_Penalty_Neutral>  (355) 
0.000958314

>  <r_epik_State_Penalty>  (355) 
0.023161

>  <r_epik_Charging_Adjusted_Penalty>  (355) 
0.028564

>  <i_epik_Tot_Q>  (355) 
-1

>  <i_epik_Tot_abs_Q>  (355) 
1

>  <s_lp_Force_Field>  (355) 
OPLS3e

>  <r_lp_Energy>  (355) 
100.266

>  <b_lp_Chiralities_Consistent>  (355) 
1

>  <s_lp_Variant>  (355) 
107:0-1

>  <s_i_glide_gridfile>  (355) 
pfpi4k_grid

>  <i_i_glide_lignum>  (355) 
24

>  <i_i_glide_rotatable_bonds>  (355) 
3

>  <r_i_docking_score>  (355) 
-2.31752

>  <r_i_glide_ligand_efficiency>  (355) 
-0.0799145

>  <r_i_glide_ligand_efficiency_sa>  (355) 
-0.245523

>  <r_i_glide_ligand_efficiency_ln>  (355) 
-0.530653

>  <r_i_glide_gscore>  (355) 
-2.31752

>  <r_i_glide_lipo>  (355) 
-0.599833

>  <r_i_glide_hbond>  (355) 
0

>  <r_i_glide_metal>  (355) 
-0

>  <r_i_glide_rewards>  (355) 
-0.671777

>  <r_i_glide_evdw>  (355) 
-20.0227

>  <r_i_glide_ecoul>  (355) 
-0.298524

>  <r_i_glide_erotb>  (355) 
0

>  <r_i_glide_esite>  (355) 
0

>  <r_i_glide_emodel>  (355) 
-22.027

>  <r_i_glide_energy>  (355) 
-20.3212

>  <r_i_glide_einternal>  (355) 
0.728066

>  <r_i_glide_intrahb_reward>  (355) 
-0

>  <i_i_glide_confnum>  (355) 
2

>  <i_i_glide_posenum>  (355) 
30

>  <r_i_glide_eff_state_penalty>  (355) 
0

>  <ligand_id>  (355) 
107

>  <original_smiles>  (355) 
COC12CC(C)C3(O)C(=O)C4C(=O)C=CC5(C)COC4C(C)(C)C3(C5)C1=CC2O

>  <smiles>  (355) 
[H]OC1([H])C([H])=C2C1(OC([H])([H])[H])C([H])([H])C([H])(C([H])([H])[H])C1(O[H])C([O-])=C3C(=O)C([H])=C([H])C4(C([H])([H])[H])C([H])([H])OC3([H])C(C([H])([H])[H])(C([H])([H])[H])C21C4([H])[H]

$$$$
107:1:0
     RDKit          3D

 58 62  0  0  1  0  0  0  0  0999 V2000
    4.5020   -0.1163    1.4957 C   0  0  0  0  0  0  0  0  0  0  0  0
    4.7052   -1.4528    1.9416 O   0  0  0  0  0  0  0  0  0  0  0  0
    5.2198   -2.3611    0.9625 C   0  0  2  0  0  0  0  0  0  0  0  0
    4.2696   -2.6315   -0.1904 C   0  0  0  0  0  0  0  0  0  0  0  0
    3.0768   -3.5645    0.1858 C   0  0  1  0  0  0  0  0  0  0  0  0
    2.1770   -3.6319   -1.0872 C   0  0  0  0  0  0  0  0  0  0  0  0
    3.5726   -4.9567    0.8249 C   0  0  2  0  0  0  0  0  0  0  0  0
    4.2466   -5.5066   -0.2785 O   0  0  0  0  0  0  0  0  0  0  0  0
    2.5057   -6.0209    1.2423 C   0  0  0  0  0  0  0  0  0  0  0  0
    1.4163   -5.8450    0.6449 O   0  0  0  0  0  0  0  0  0  0  0  0
    2.7157   -6.8902    2.3075 C   0  0  0  0  0  0  0  0  0  0  0  0
    1.5054   -7.2324    3.1097 C   0  0  0  0  0  0  0  0  0  0  0  0
    1.1374   -8.3732    3.3411 O   0  0  0  0  0  0  0  0  0  0  0  0
    0.8330   -6.0658    3.7775 C   0  0  0  0  0  0  0  0  0  0  0  0
    1.4736   -4.9314    4.1387 C   0  0  0  0  0  0  0  0  0  0  0  0
    2.9744   -4.5439    4.5189 C   0  0  1  0  0  0  0  0  0  0  0  0
    2.8439   -3.4146    5.5587 C   0  0  0  0  0  0  0  0  0  0  0  0
    3.6399   -5.7282    5.2508 C   0  0  0  0  0  0  0  0  0  0  0  0
    3.8786   -6.9167    4.5318 O   0  0  0  0  0  0  0  0  0  0  0  0
    4.0378   -6.9774    3.1062 C   0  0  2  0  0  0  0  0  0  0  0  0
    5.1915   -6.0755    2.5791 C   0  0  0  0  0  0  0  0  0  0  0  0
    6.3096   -5.8332    3.6410 C   0  0  0  0  0  0  0  0  0  0  0  0
    5.9171   -6.9180    1.4768 C   0  0  0  0  0  0  0  0  0  0  0  0
    4.5601   -4.7117    2.0776 C   0  0  2  0  0  0  0  0  0  0  0  0
    3.8596   -3.9257    3.2976 C   0  0  0  0  0  0  0  0  0  0  0  0
    5.5903   -3.6920    1.5609 C   0  0  0  0  0  0  0  0  0  0  0  0
    6.8996   -3.6097    1.2604 C   0  0  0  0  0  0  0  0  0  0  0  0
    6.7476   -2.1576    0.7619 C   0  0  1  0  0  0  0  0  0  0  0  0
    7.2063   -1.9186   -0.5633 O   0  0  0  0  0  0  0  0  0  0  0  0
    4.2040    0.4987    2.3445 H   0  0  0  0  0  0  0  0  0  0  0  0
    3.7025   -0.0505    0.7595 H   0  0  0  0  0  0  0  0  0  0  0  0
    5.4108    0.3058    1.0692 H   0  0  0  0  0  0  0  0  0  0  0  0
    3.9023   -1.7015   -0.6200 H   0  0  0  0  0  0  0  0  0  0  0  0
    4.8169   -3.1011   -1.0101 H   0  0  0  0  0  0  0  0  0  0  0  0
    2.4737   -3.0420    0.9288 H   0  0  0  0  0  0  0  0  0  0  0  0
    2.5922   -4.2382   -1.8658 H   0  0  0  0  0  0  0  0  0  0  0  0
    2.0593   -2.6489   -1.5316 H   0  0  0  0  0  0  0  0  0  0  0  0
    1.1621   -3.9711   -0.8981 H   0  0  0  0  0  0  0  0  0  0  0  0
    3.5940   -5.6112   -1.0102 H   0  0  0  0  0  0  0  0  0  0  0  0
   -0.2682   -6.0548    3.7919 H   0  0  0  0  0  0  0  0  0  0  0  0
    2.2850   -5.1547    3.6164 H   0  0  0  0  0  0  0  0  0  0  0  0
    3.8259   -3.1369    5.9352 H   0  0  0  0  0  0  0  0  0  0  0  0
    2.2398   -3.7071    6.4150 H   0  0  0  0  0  0  0  0  0  0  0  0
    2.3979   -2.5193    5.1314 H   0  0  0  0  0  0  0  0  0  0  0  0
    4.5504   -5.4139    5.7112 H   0  0  0  0  0  0  0  0  0  0  0  0
    3.0306   -6.0244    6.0941 H   0  0  0  0  0  0  0  0  0  0  0  0
    4.3269   -8.0210    2.9661 H   0  0  0  0  0  0  0  0  0  0  0  0
    7.2788   -5.6237    3.1865 H   0  0  0  0  0  0  0  0  0  0  0  0
    6.4491   -6.7070    4.2821 H   0  0  0  0  0  0  0  0  0  0  0  0
    6.1039   -4.9836    4.2871 H   0  0  0  0  0  0  0  0  0  0  0  0
    6.5500   -6.3190    0.8216 H   0  0  0  0  0  0  0  0  0  0  0  0
    5.2149   -7.4630    0.8397 H   0  0  0  0  0  0  0  0  0  0  0  0
    6.5543   -7.6936    1.9053 H   0  0  0  0  0  0  0  0  0  0  0  0
    3.2261   -3.1431    2.9012 H   0  0  0  0  0  0  0  0  0  0  0  0
    4.6357   -3.3834    3.8000 H   0  0  0  0  0  0  0  0  0  0  0  0
    7.7703   -4.2362    1.3655 H   0  0  0  0  0  0  0  0  0  0  0  0
    7.1508   -1.3887    1.4134 H   0  0  0  0  0  0  0  0  0  0  0  0
    7.0746   -2.7141   -1.0474 H   0  0  0  0  0  0  0  0  0  0  0  0
  1  2  1  0
  1 30  1  0
  1 31  1  0
  1 32  1  0
  3  2  1  1
  3 26  1  0
  3 28  1  0
  3  4  1  0
  4  5  1  0
  4 33  1  0
  4 34  1  0
  5  6  1  0
  5  7  1  0
  5 35  1  1
  6 36  1  0
  6 37  1  0
  6 38  1  0
  7 24  1  0
  7  8  1  6
  7  9  1  0
  8 39  1  0
  9 10  1  0
  9 11  2  0
 11 20  1  0
 11 12  1  0
 12 13  2  0
 12 14  1  0
 14 15  2  3
 14 40  1  0
 15 16  1  0
 15 41  1  0
 16 25  1  0
 16 17  1  1
 16 18  1  0
 17 42  1  0
 17 43  1  0
 17 44  1  0
 18 19  1  0
 18 45  1  0
 18 46  1  0
 19 20  1  0
 20 21  1  0
 20 47  1  1
 21 22  1  0
 21 23  1  0
 21 24  1  0
 22 48  1  0
 22 49  1  0
 22 50  1  0
 23 51  1  0
 23 52  1  0
 23 53  1  0
 24 25  1  1
 24 26  1  0
 25 54  1  0
 25 55  1  0
 26 27  2  0
 27 28  1  0
 27 56  1  0
 28 29  1  0
 28 57  1  1
 29 58  1  0
M  CHG  1  10  -1
M  END
>  <i_m_ct_stereo_status>  (356) 
1

>  <s_m_source_file>  (356) 
/var/tmp/pbs.5076255.sched01/tmpjgl1obm9/123zpz496x9.sdf

>  <i_m_source_file_index>  (356) 
25

>  <i_lp_mmshare_version>  (356) 
48012

>  <i_f3d_flags>  (356) 
1

>  <s_epik_input>  (356) 
W09IXVtDQEBIXTFbQ0hdPUMyW0NAXTEoT1tDSDNdKVtDSDJdW0NAQEhdKFtDSDNdKVtDQF0oW0NAXTIzNCkoW09IXSlDKD1PKVtDQEhdNVtDQEBIXShDMyhbQ0gzXSlbQ0gzXSlPW0NIMl1bQ0BAXShbQ0gzXSkoW0NIMl00KS9bQ0hdPVtDSF1cQzU9Tw==

>  <s_epik_cmdline>  (356) 
J2VwaWtfcHl0aG9uJywgJy1waHQnLCAnMi4wJywgJy1waCcsICc3LjAnLCAnLXRuJywgJzgnLCAnLW1hJywgJzIwMCcsICctaW1hZScsICc8aW5maWxlLm1hZT4nLCAnLW9tYWUnLCAnPG91dGZpbGUubWFlPic=

>  <r_epik_Ionization_Penalty>  (356) 
0.00636139

>  <r_epik_Ionization_Penalty_Charging>  (356) 
0.00540308

>  <r_epik_Ionization_Penalty_Neutral>  (356) 
0.000958314

>  <r_epik_State_Penalty>  (356) 
0.023161

>  <r_epik_Charging_Adjusted_Penalty>  (356) 
0.028564

>  <i_epik_Tot_Q>  (356) 
-1

>  <i_epik_Tot_abs_Q>  (356) 
1

>  <s_lp_Force_Field>  (356) 
OPLS3e

>  <r_lp_Energy>  (356) 
100.266

>  <b_lp_Chiralities_Consistent>  (356) 
1

>  <s_lp_Variant>  (356) 
107:0-2

>  <s_i_glide_gridfile>  (356) 
pfpi4k_grid

>  <i_i_glide_lignum>  (356) 
25

>  <i_i_glide_rotatable_bonds>  (356) 
3

>  <r_i_docking_score>  (356) 
-0.127122

>  <r_i_glide_ligand_efficiency>  (356) 
-0.00438351

>  <r_i_glide_ligand_efficiency_sa>  (356) 
-0.0134675

>  <r_i_glide_ligand_efficiency_ln>  (356) 
-0.0291076

>  <r_i_glide_gscore>  (356) 
-0.127122

>  <r_i_glide_lipo>  (356) 
-0.426519

>  <r_i_glide_hbond>  (356) 
-0.354801

>  <r_i_glide_metal>  (356) 
-0

>  <r_i_glide_rewards>  (356) 
-0.671777

>  <r_i_glide_evdw>  (356) 
-16.4403

>  <r_i_glide_ecoul>  (356) 
-5.4711

>  <r_i_glide_erotb>  (356) 
0

>  <r_i_glide_esite>  (356) 
-0.0156558

>  <r_i_glide_emodel>  (356) 
-11.5414

>  <r_i_glide_energy>  (356) 
-21.9114

>  <r_i_glide_einternal>  (356) 
0.126153

>  <r_i_glide_intrahb_reward>  (356) 
-0

>  <i_i_glide_confnum>  (356) 
2

>  <i_i_glide_posenum>  (356) 
19

>  <r_i_glide_eff_state_penalty>  (356) 
0

>  <ligand_id>  (356) 
107

>  <original_smiles>  (356) 
COC12CC(C)C3(O)C(=O)C4C(=O)C=CC5(C)COC4C(C)(C)C3(C5)C1=CC2O

>  <smiles>  (356) 
[H]OC1([H])C([H])=C2C1(OC([H])([H])[H])C([H])([H])C([H])(C([H])([H])[H])C1(O[H])C([O-])=C3C(=O)C([H])=C([H])C4(C([H])([H])[H])C([H])([H])OC3([H])C(C([H])([H])[H])(C([H])([H])[H])C21C4([H])[H]

$$$$
107:1:1
     RDKit          3D

 58 62  0  0  1  0  0  0  0  0999 V2000
    4.0997   -1.1059    3.4585 C   0  0  0  0  0  0  0  0  0  0  0  0
    3.5904   -1.3564    2.1385 O   0  0  0  0  0  0  0  0  0  0  0  0
    4.3857   -2.1108    1.2241 C   0  0  2  0  0  0  0  0  0  0  0  0
    3.6203   -2.4670   -0.0615 C   0  0  0  0  0  0  0  0  0  0  0  0
    2.5755   -3.6061    0.1259 C   0  0  1  0  0  0  0  0  0  0  0  0
    1.8285   -3.7365   -1.2382 C   0  0  0  0  0  0  0  0  0  0  0  0
    3.2291   -4.9397    0.7524 C   0  0  2  0  0  0  0  0  0  0  0  0
    4.0902   -5.3155   -0.3049 O   0  0  0  0  0  0  0  0  0  0  0  0
    2.3016   -6.1552    1.0496 C   0  0  0  0  0  0  0  0  0  0  0  0
    1.2177   -6.0713    0.3429 O   0  0  0  0  0  0  0  0  0  0  0  0
    2.5355   -7.0389    2.0768 C   0  0  0  0  0  0  0  0  0  0  0  0
    1.3389   -7.6443    2.7301 C   0  0  0  0  0  0  0  0  0  0  0  0
    1.1697   -8.8372    2.8502 O   0  0  0  0  0  0  0  0  0  0  0  0
    0.3770   -6.6169    3.3279 C   0  0  0  0  0  0  0  0  0  0  0  0
    0.7763   -5.4394    3.8655 C   0  0  0  0  0  0  0  0  0  0  0  0
    2.1097   -4.8541    4.3653 C   0  0  1  0  0  0  0  0  0  0  0  0
    1.7318   -3.7957    5.4363 C   0  0  0  0  0  0  0  0  0  0  0  0
    2.9472   -5.9389    5.1524 C   0  0  0  0  0  0  0  0  0  0  0  0
    3.4682   -7.0481    4.4155 O   0  0  0  0  0  0  0  0  0  0  0  0
    3.7847   -6.9849    3.0167 C   0  0  2  0  0  0  0  0  0  0  0  0
    4.8189   -5.8690    2.6471 C   0  0  0  0  0  0  0  0  0  0  0  0
    5.7408   -5.5075    3.8493 C   0  0  0  0  0  0  0  0  0  0  0  0
    5.7799   -6.5221    1.6076 C   0  0  0  0  0  0  0  0  0  0  0  0
    4.0061   -4.6183    2.1158 C   0  0  2  0  0  0  0  0  0  0  0  0
    3.0014   -4.0747    3.2694 C   0  0  0  0  0  0  0  0  0  0  0  0
    4.9042   -3.4045    1.7765 C   0  0  0  0  0  0  0  0  0  0  0  0
    6.2172   -3.0776    1.6312 C   0  0  0  0  0  0  0  0  0  0  0  0
    5.8607   -1.6608    1.1696 C   0  0  1  0  0  0  0  0  0  0  0  0
    6.3523   -1.2686   -0.0903 O   0  0  0  0  0  0  0  0  0  0  0  0
    3.3024   -0.6712    4.0725 H   0  0  0  0  0  0  0  0  0  0  0  0
    4.9617   -0.4489    3.5004 H   0  0  0  0  0  0  0  0  0  0  0  0
    4.4787   -1.9405    3.9905 H   0  0  0  0  0  0  0  0  0  0  0  0
    3.1560   -1.5671   -0.4636 H   0  0  0  0  0  0  0  0  0  0  0  0
    4.3261   -2.7852   -0.8292 H   0  0  0  0  0  0  0  0  0  0  0  0
    1.8255   -3.2283    0.8097 H   0  0  0  0  0  0  0  0  0  0  0  0
    2.4232   -4.2488   -1.9856 H   0  0  0  0  0  0  0  0  0  0  0  0
    1.6004   -2.7647   -1.6685 H   0  0  0  0  0  0  0  0  0  0  0  0
    0.8754   -4.2479   -1.1743 H   0  0  0  0  0  0  0  0  0  0  0  0
    3.5495   -5.5167   -1.0665 H   0  0  0  0  0  0  0  0  0  0  0  0
   -0.6813   -6.8367    3.1647 H   0  0  0  0  0  0  0  0  0  0  0  0
    1.6229   -5.5684    3.4404 H   0  0  0  0  0  0  0  0  0  0  0  0
    2.6133   -3.3968    5.9226 H   0  0  0  0  0  0  0  0  0  0  0  0
    1.0978   -4.2418    6.2020 H   0  0  0  0  0  0  0  0  0  0  0  0
    1.1881   -2.9637    4.9849 H   0  0  0  0  0  0  0  0  0  0  0  0
    3.7508   -5.4875    5.7187 H   0  0  0  0  0  0  0  0  0  0  0  0
    2.2956   -6.3881    5.9013 H   0  0  0  0  0  0  0  0  0  0  0  0
    4.2469   -7.9543    2.8643 H   0  0  0  0  0  0  0  0  0  0  0  0
    6.7040   -5.1114    3.5174 H   0  0  0  0  0  0  0  0  0  0  0  0
    5.9621   -6.3705    4.4720 H   0  0  0  0  0  0  0  0  0  0  0  0
    5.3347   -4.7383    4.4954 H   0  0  0  0  0  0  0  0  0  0  0  0
    6.3685   -5.7850    1.0561 H   0  0  0  0  0  0  0  0  0  0  0  0
    5.2593   -7.1349    0.8749 H   0  0  0  0  0  0  0  0  0  0  0  0
    6.4984   -7.2024    2.0812 H   0  0  0  0  0  0  0  0  0  0  0  0
    2.3435   -3.3042    2.8380 H   0  0  0  0  0  0  0  0  0  0  0  0
    3.6392   -3.6210    3.9499 H   0  0  0  0  0  0  0  0  0  0  0  0
    7.1649   -3.5605    1.8097 H   0  0  0  0  0  0  0  0  0  0  0  0
    6.1225   -0.8551    1.8716 H   0  0  0  0  0  0  0  0  0  0  0  0
    5.8393   -0.5014   -0.3272 H   0  0  0  0  0  0  0  0  0  0  0  0
  1  2  1  0
  1 30  1  0
  1 31  1  0
  1 32  1  0
  3  2  1  1
  3 26  1  0
  3 28  1  0
  3  4  1  0
  4  5  1  0
  4 33  1  0
  4 34  1  0
  5  6  1  0
  5  7  1  0
  5 35  1  1
  6 36  1  0
  6 37  1  0
  6 38  1  0
  7 24  1  0
  7  8  1  6
  7  9  1  0
  8 39  1  0
  9 10  1  0
  9 11  2  0
 11 20  1  0
 11 12  1  0
 12 13  2  0
 12 14  1  0
 14 15  2  3
 14 40  1  0
 15 16  1  0
 15 41  1  0
 16 25  1  0
 16 17  1  1
 16 18  1  0
 17 42  1  0
 17 43  1  0
 17 44  1  0
 18 19  1  0
 18 45  1  0
 18 46  1  0
 19 20  1  0
 20 21  1  0
 20 47  1  6
 21 22  1  0
 21 23  1  0
 21 24  1  0
 22 48  1  0
 22 49  1  0
 22 50  1  0
 23 51  1  0
 23 52  1  0
 23 53  1  0
 24 25  1  1
 24 26  1  0
 25 54  1  0
 25 55  1  0
 26 27  2  0
 27 28  1  0
 27 56  1  0
 28 29  1  0
 28 57  1  1
 29 58  1  0
M  CHG  1  10  -1
M  END
>  <i_m_ct_stereo_status>  (357) 
1

>  <s_m_source_file>  (357) 
/var/tmp/pbs.5076255.sched01/tmpjgl1obm9/123zpz496x9.sdf

>  <i_m_source_file_index>  (357) 
25

>  <i_lp_mmshare_version>  (357) 
48012

>  <i_f3d_flags>  (357) 
1

>  <s_epik_input>  (357) 
W09IXVtDQEBIXTFbQ0hdPUMyW0NAXTEoT1tDSDNdKVtDSDJdW0NAQEhdKFtDSDNdKVtDQF0oW0NAXTIzNCkoW09IXSlDKD1PKVtDQEhdNVtDQEBIXShDMyhbQ0gzXSlbQ0gzXSlPW0NIMl1bQ0BAXShbQ0gzXSkoW0NIMl00KS9bQ0hdPVtDSF1cQzU9Tw==

>  <s_epik_cmdline>  (357) 
J2VwaWtfcHl0aG9uJywgJy1waHQnLCAnMi4wJywgJy1waCcsICc3LjAnLCAnLXRuJywgJzgnLCAnLW1hJywgJzIwMCcsICctaW1hZScsICc8aW5maWxlLm1hZT4nLCAnLW9tYWUnLCAnPG91dGZpbGUubWFlPic=

>  <r_epik_Ionization_Penalty>  (357) 
0.00636139

>  <r_epik_Ionization_Penalty_Charging>  (357) 
0.00540308

>  <r_epik_Ionization_Penalty_Neutral>  (357) 
0.000958314

>  <r_epik_State_Penalty>  (357) 
0.023161

>  <r_epik_Charging_Adjusted_Penalty>  (357) 
0.028564

>  <i_epik_Tot_Q>  (357) 
-1

>  <i_epik_Tot_abs_Q>  (357) 
1

>  <s_lp_Force_Field>  (357) 
OPLS3e

>  <r_lp_Energy>  (357) 
100.266

>  <b_lp_Chiralities_Consistent>  (357) 
1

>  <s_lp_Variant>  (357) 
107:0-2

>  <s_i_glide_gridfile>  (357) 
pfpi4k_grid

>  <i_i_glide_lignum>  (357) 
25

>  <i_i_glide_rotatable_bonds>  (357) 
3

>  <r_i_docking_score>  (357) 
1.64198

>  <r_i_glide_ligand_efficiency>  (357) 
0.0566199

>  <r_i_glide_ligand_efficiency_sa>  (357) 
0.173954

>  <r_i_glide_ligand_efficiency_ln>  (357) 
0.375971

>  <r_i_glide_gscore>  (357) 
1.64198

>  <r_i_glide_lipo>  (357) 
-0.344909

>  <r_i_glide_hbond>  (357) 
-0.272115

>  <r_i_glide_metal>  (357) 
-0

>  <r_i_glide_rewards>  (357) 
-0.671777

>  <r_i_glide_evdw>  (357) 
-16.0719

>  <r_i_glide_ecoul>  (357) 
-4.24381

>  <r_i_glide_erotb>  (357) 
0

>  <r_i_glide_esite>  (357) 
-0.0216176

>  <r_i_glide_emodel>  (357) 
-3.24139

>  <r_i_glide_energy>  (357) 
-20.3157

>  <r_i_glide_einternal>  (357) 
0.962811

>  <r_i_glide_intrahb_reward>  (357) 
-0

>  <i_i_glide_confnum>  (357) 
2

>  <i_i_glide_posenum>  (357) 
15

>  <r_i_glide_eff_state_penalty>  (357) 
0

>  <ligand_id>  (357) 
107

>  <original_smiles>  (357) 
COC12CC(C)C3(O)C(=O)C4C(=O)C=CC5(C)COC4C(C)(C)C3(C5)C1=CC2O

>  <smiles>  (357) 
[H]OC1([H])C([H])=C2C1(OC([H])([H])[H])C([H])([H])C([H])(C([H])([H])[H])C1(O[H])C([O-])=C3C(=O)C([H])=C([H])C4(C([H])([H])[H])C([H])([H])OC3([H])C(C([H])([H])[H])(C([H])([H])[H])C21C4([H])[H]

$$$$
107:1:2
     RDKit          3D

 58 62  0  0  1  0  0  0  0  0999 V2000
    5.4857   -5.2522    5.5767 C   0  0  0  0  0  0  0  0  0  0  0  0
    5.4167   -4.2856    4.5422 O   0  0  0  0  0  0  0  0  0  0  0  0
    4.2712   -3.4408    4.5647 C   0  0  2  0  0  0  0  0  0  0  0  0
    2.9682   -4.1356    4.1920 C   0  0  0  0  0  0  0  0  0  0  0  0
    2.8334   -4.4347    2.6706 C   0  0  1  0  0  0  0  0  0  0  0  0
    1.5157   -5.2524    2.5235 C   0  0  0  0  0  0  0  0  0  0  0  0
    3.0211   -3.1112    1.7667 C   0  0  2  0  0  0  0  0  0  0  0  0
    1.8960   -2.3555    2.1704 O   0  0  0  0  0  0  0  0  0  0  0  0
    2.9139   -3.2363    0.2067 C   0  0  0  0  0  0  0  0  0  0  0  0
    2.2917   -4.3086   -0.0916 O   0  0  0  0  0  0  0  0  0  0  0  0
    3.6205   -2.4044   -0.6521 C   0  0  0  0  0  0  0  0  0  0  0  0
    4.0806   -3.0100   -1.9203 C   0  0  0  0  0  0  0  0  0  0  0  0
    3.8599   -2.5621   -3.0422 O   0  0  0  0  0  0  0  0  0  0  0  0
    5.0057   -4.2196   -1.7178 C   0  0  0  0  0  0  0  0  0  0  0  0
    5.8278   -4.3715   -0.6439 C   0  0  0  0  0  0  0  0  0  0  0  0
    6.5068   -3.4380    0.3884 C   0  0  1  0  0  0  0  0  0  0  0  0
    7.8445   -4.1041    0.7419 C   0  0  0  0  0  0  0  0  0  0  0  0
    6.8812   -2.0770   -0.2832 C   0  0  0  0  0  0  0  0  0  0  0  0
    5.8243   -1.2173   -0.7479 O   0  0  0  0  0  0  0  0  0  0  0  0
    4.5098   -1.2273   -0.1731 C   0  0  2  0  0  0  0  0  0  0  0  0
    4.4841   -0.9696    1.3709 C   0  0  0  0  0  0  0  0  0  0  0  0
    5.7131   -0.1553    1.8420 C   0  0  0  0  0  0  0  0  0  0  0  0
    3.2807   -0.0049    1.5966 C   0  0  0  0  0  0  0  0  0  0  0  0
    4.3956   -2.3569    2.1163 C   0  0  2  0  0  0  0  0  0  0  0  0
    5.7103   -3.2480    1.7980 C   0  0  0  0  0  0  0  0  0  0  0  0
    4.4237   -2.2565    3.6590 C   0  0  0  0  0  0  0  0  0  0  0  0
    4.3577   -1.3192    4.6176 C   0  0  0  0  0  0  0  0  0  0  0  0
    4.3736   -2.4019    5.7095 C   0  0  1  0  0  0  0  0  0  0  0  0
    3.2879   -2.3652    6.6171 O   0  0  0  0  0  0  0  0  0  0  0  0
    6.4407   -5.7803    5.5148 H   0  0  0  0  0  0  0  0  0  0  0  0
    4.6996   -6.0051    5.4942 H   0  0  0  0  0  0  0  0  0  0  0  0
    5.4283   -4.8003    6.5713 H   0  0  0  0  0  0  0  0  0  0  0  0
    2.8537   -5.0410    4.7778 H   0  0  0  0  0  0  0  0  0  0  0  0
    2.1296   -3.5072    4.4902 H   0  0  0  0  0  0  0  0  0  0  0  0
    3.6176   -5.1399    2.4065 H   0  0  0  0  0  0  0  0  0  0  0  0
    0.6298   -4.6232    2.6137 H   0  0  0  0  0  0  0  0  0  0  0  0
    1.4337   -6.0146    3.2981 H   0  0  0  0  0  0  0  0  0  0  0  0
    1.4509   -5.8085    1.5908 H   0  0  0  0  0  0  0  0  0  0  0  0
    1.7729   -1.6615    1.5407 H   0  0  0  0  0  0  0  0  0  0  0  0
    4.8585   -5.0510   -2.3951 H   0  0  0  0  0  0  0  0  0  0  0  0
    5.3194   -3.6956   -0.1384 H   0  0  0  0  0  0  0  0  0  0  0  0
    8.4311   -3.4804    1.3978 H   0  0  0  0  0  0  0  0  0  0  0  0
    8.4474   -4.2966   -0.1510 H   0  0  0  0  0  0  0  0  0  0  0  0
    7.6881   -5.0637    1.2475 H   0  0  0  0  0  0  0  0  0  0  0  0
    7.5627   -1.4959    0.3522 H   0  0  0  0  0  0  0  0  0  0  0  0
    7.4818   -2.2805   -1.1833 H   0  0  0  0  0  0  0  0  0  0  0  0
    4.0719   -0.3787   -0.6803 H   0  0  0  0  0  0  0  0  0  0  0  0
    5.5038    0.4263    2.7453 H   0  0  0  0  0  0  0  0  0  0  0  0
    6.0134    0.5451    1.0590 H   0  0  0  0  0  0  0  0  0  0  0  0
    6.5796   -0.7603    2.0939 H   0  0  0  0  0  0  0  0  0  0  0  0
    2.9652    0.0430    2.6421 H   0  0  0  0  0  0  0  0  0  0  0  0
    2.4057   -0.2656    0.9992 H   0  0  0  0  0  0  0  0  0  0  0  0
    3.5073    1.0214    1.2947 H   0  0  0  0  0  0  0  0  0  0  0  0
    5.5122   -4.2810    2.1137 H   0  0  0  0  0  0  0  0  0  0  0  0
    6.4750   -2.9155    2.4790 H   0  0  0  0  0  0  0  0  0  0  0  0
    4.3612   -0.2367    4.6789 H   0  0  0  0  0  0  0  0  0  0  0  0
    5.3036   -2.4733    6.2856 H   0  0  0  0  0  0  0  0  0  0  0  0
    3.3332   -3.1756    7.1115 H   0  0  0  0  0  0  0  0  0  0  0  0
  1  2  1  0
  1 30  1  0
  1 31  1  0
  1 32  1  0
  3  2  1  1
  3 26  1  0
  3 28  1  0
  3  4  1  0
  4  5  1  0
  4 33  1  0
  4 34  1  0
  5  6  1  0
  5  7  1  0
  5 35  1  6
  6 36  1  0
  6 37  1  0
  6 38  1  0
  7 24  1  0
  7  8  1  1
  7  9  1  0
  8 39  1  0
  9 10  1  0
  9 11  2  0
 11 20  1  0
 11 12  1  0
 12 13  2  0
 12 14  1  0
 14 15  2  3
 14 40  1  0
 15 16  1  0
 15 41  1  0
 16 25  1  0
 16 17  1  1
 16 18  1  0
 17 42  1  0
 17 43  1  0
 17 44  1  0
 18 19  1  0
 18 45  1  0
 18 46  1  0
 19 20  1  0
 20 21  1  0
 20 47  1  6
 21 22  1  0
 21 23  1  0
 21 24  1  0
 22 48  1  0
 22 49  1  0
 22 50  1  0
 23 51  1  0
 23 52  1  0
 23 53  1  0
 24 25  1  6
 24 26  1  0
 25 54  1  0
 25 55  1  0
 26 27  2  0
 27 28  1  0
 27 56  1  0
 28 29  1  0
 28 57  1  1
 29 58  1  0
M  CHG  1  10  -1
M  END
>  <i_m_ct_stereo_status>  (358) 
1

>  <s_m_source_file>  (358) 
/var/tmp/pbs.5076255.sched01/tmpjgl1obm9/123zpz496x9.sdf

>  <i_m_source_file_index>  (358) 
25

>  <i_lp_mmshare_version>  (358) 
48012

>  <i_f3d_flags>  (358) 
1

>  <s_epik_input>  (358) 
W09IXVtDQEBIXTFbQ0hdPUMyW0NAXTEoT1tDSDNdKVtDSDJdW0NAQEhdKFtDSDNdKVtDQF0oW0NAXTIzNCkoW09IXSlDKD1PKVtDQEhdNVtDQEBIXShDMyhbQ0gzXSlbQ0gzXSlPW0NIMl1bQ0BAXShbQ0gzXSkoW0NIMl00KS9bQ0hdPVtDSF1cQzU9Tw==

>  <s_epik_cmdline>  (358) 
J2VwaWtfcHl0aG9uJywgJy1waHQnLCAnMi4wJywgJy1waCcsICc3LjAnLCAnLXRuJywgJzgnLCAnLW1hJywgJzIwMCcsICctaW1hZScsICc8aW5maWxlLm1hZT4nLCAnLW9tYWUnLCAnPG91dGZpbGUubWFlPic=

>  <r_epik_Ionization_Penalty>  (358) 
0.00636139

>  <r_epik_Ionization_Penalty_Charging>  (358) 
0.00540308

>  <r_epik_Ionization_Penalty_Neutral>  (358) 
0.000958314

>  <r_epik_State_Penalty>  (358) 
0.023161

>  <r_epik_Charging_Adjusted_Penalty>  (358) 
0.028564

>  <i_epik_Tot_Q>  (358) 
-1

>  <i_epik_Tot_abs_Q>  (358) 
1

>  <s_lp_Force_Field>  (358) 
OPLS3e

>  <r_lp_Energy>  (358) 
100.266

>  <b_lp_Chiralities_Consistent>  (358) 
1

>  <s_lp_Variant>  (358) 
107:0-2

>  <s_i_glide_gridfile>  (358) 
pfpi4k_grid

>  <i_i_glide_lignum>  (358) 
25

>  <i_i_glide_rotatable_bonds>  (358) 
3

>  <r_i_docking_score>  (358) 
1.76998

>  <r_i_glide_ligand_efficiency>  (358) 
0.061034

>  <r_i_glide_ligand_efficiency_sa>  (358) 
0.187516

>  <r_i_glide_ligand_efficiency_ln>  (358) 
0.405282

>  <r_i_glide_gscore>  (358) 
1.76998

>  <r_i_glide_lipo>  (358) 
-0.486205

>  <r_i_glide_hbond>  (358) 
-0.0438074

>  <r_i_glide_metal>  (358) 
-0

>  <r_i_glide_rewards>  (358) 
-0.671777

>  <r_i_glide_evdw>  (358) 
-17.2924

>  <r_i_glide_ecoul>  (358) 
0.606727

>  <r_i_glide_erotb>  (358) 
0

>  <r_i_glide_esite>  (358) 
-0.0197443

>  <r_i_glide_emodel>  (358) 
-1.0338

>  <r_i_glide_energy>  (358) 
-16.6857

>  <r_i_glide_einternal>  (358) 
0.403345

>  <r_i_glide_intrahb_reward>  (358) 
-0

>  <i_i_glide_confnum>  (358) 
2

>  <i_i_glide_posenum>  (358) 
22

>  <r_i_glide_eff_state_penalty>  (358) 
0

>  <ligand_id>  (358) 
107

>  <original_smiles>  (358) 
COC12CC(C)C3(O)C(=O)C4C(=O)C=CC5(C)COC4C(C)(C)C3(C5)C1=CC2O

>  <smiles>  (358) 
[H]OC1([H])C([H])=C2C1(OC([H])([H])[H])C([H])([H])C([H])(C([H])([H])[H])C1(O[H])C([O-])=C3C(=O)C([H])=C([H])C4(C([H])([H])[H])C([H])([H])OC3([H])C(C([H])([H])[H])(C([H])([H])[H])C21C4([H])[H]

$$$$
107:2:0
     RDKit          3D

 59 63  0  0  1  0  0  0  0  0999 V2000
    6.1773   -0.8576    2.5333 C   0  0  0  0  0  0  0  0  0  0  0  0
    5.3679   -1.1670    1.4074 O   0  0  0  0  0  0  0  0  0  0  0  0
    5.7170   -2.2759    0.5561 C   0  0  2  0  0  0  0  0  0  0  0  0
    4.6139   -2.5480   -0.4780 C   0  0  0  0  0  0  0  0  0  0  0  0
    3.4161   -3.3921    0.0654 C   0  0  1  0  0  0  0  0  0  0  0  0
    2.3969   -3.5232   -1.0835 C   0  0  0  0  0  0  0  0  0  0  0  0
    3.8788   -4.7502    0.7701 C   0  0  2  0  0  0  0  0  0  0  0  0
    4.5234   -5.4210   -0.2973 O   0  0  0  0  0  0  0  0  0  0  0  0
    2.7572   -5.7109    1.2335 C   0  0  0  0  0  0  0  0  0  0  0  0
    1.7072   -5.8368    0.5790 O   0  0  0  0  0  0  0  0  0  0  0  0
    2.9302   -6.5980    2.4884 C   0  0  2  0  0  0  0  0  0  0  0  0
    1.6856   -6.4296    3.3795 C   0  0  0  0  0  0  0  0  0  0  0  0
    1.1348   -7.4296    3.8415 O   0  0  0  0  0  0  0  0  0  0  0  0
    1.1436   -5.0806    3.6132 C   0  0  0  0  0  0  0  0  0  0  0  0
    1.8770   -3.9758    3.8541 C   0  0  0  0  0  0  0  0  0  0  0  0
    3.3304   -3.8619    4.2512 C   0  0  1  0  0  0  0  0  0  0  0  0
    3.3699   -2.5949    5.1541 C   0  0  0  0  0  0  0  0  0  0  0  0
    3.8651   -4.9711    5.1795 C   0  0  0  0  0  0  0  0  0  0  0  0
    4.0622   -6.2797    4.6713 O   0  0  0  0  0  0  0  0  0  0  0  0
    4.2673   -6.5286    3.2835 C   0  0  2  0  0  0  0  0  0  0  0  0
    5.4566   -5.7992    2.5991 C   0  0  0  0  0  0  0  0  0  0  0  0
    6.6149   -5.5621    3.6023 C   0  0  0  0  0  0  0  0  0  0  0  0
    6.0793   -6.8224    1.6079 C   0  0  0  0  0  0  0  0  0  0  0  0
    4.9045   -4.4708    1.9382 C   0  0  2  0  0  0  0  0  0  0  0  0
    4.2833   -3.5475    3.0719 C   0  0  0  0  0  0  0  0  0  0  0  0
    5.9844   -3.5784    1.2731 C   0  0  0  0  0  0  0  0  0  0  0  0
    7.2674   -3.6877    0.8754 C   0  0  0  0  0  0  0  0  0  0  0  0
    7.2274   -2.3193    0.1644 C   0  0  1  0  0  0  0  0  0  0  0  0
    7.5726   -2.3772   -1.2082 O   0  0  0  0  0  0  0  0  0  0  0  0
    5.7013   -0.1246    3.1762 H   0  0  0  0  0  0  0  0  0  0  0  0
    7.1688   -0.5188    2.3062 H   0  0  0  0  0  0  0  0  0  0  0  0
    6.2807   -1.7449    3.1282 H   0  0  0  0  0  0  0  0  0  0  0  0
    4.2497   -1.6004   -0.8764 H   0  0  0  0  0  0  0  0  0  0  0  0
    5.0222   -3.0933   -1.3381 H   0  0  0  0  0  0  0  0  0  0  0  0
    2.8923   -2.7781    0.7964 H   0  0  0  0  0  0  0  0  0  0  0  0
    2.6968   -4.2508   -1.8274 H   0  0  0  0  0  0  0  0  0  0  0  0
    2.2617   -2.5713   -1.5928 H   0  0  0  0  0  0  0  0  0  0  0  0
    1.4179   -3.8135   -0.7213 H   0  0  0  0  0  0  0  0  0  0  0  0
    5.1523   -4.8304   -0.6673 H   0  0  0  0  0  0  0  0  0  0  0  0
    2.8560   -7.6151    2.1064 H   0  0  0  0  0  0  0  0  0  0  0  0
    0.0927   -4.9470    3.4459 H   0  0  0  0  0  0  0  0  0  0  0  0
    1.3316   -3.0450    3.8816 H   0  0  0  0  0  0  0  0  0  0  0  0
    4.3638   -2.3937    5.5475 H   0  0  0  0  0  0  0  0  0  0  0  0
    2.7160   -2.7067    6.0172 H   0  0  0  0  0  0  0  0  0  0  0  0
    3.0628   -1.6944    4.6259 H   0  0  0  0  0  0  0  0  0  0  0  0
    4.8088   -4.6532    5.6189 H   0  0  0  0  0  0  0  0  0  0  0  0
    3.2027   -5.0635    6.0407 H   0  0  0  0  0  0  0  0  0  0  0  0
    4.5674   -7.5736    3.3343 H   0  0  0  0  0  0  0  0  0  0  0  0
    7.5666   -5.4211    3.0896 H   0  0  0  0  0  0  0  0  0  0  0  0
    6.7419   -6.4152    4.2656 H   0  0  0  0  0  0  0  0  0  0  0  0
    6.4763   -4.7168    4.2601 H   0  0  0  0  0  0  0  0  0  0  0  0
    6.7648   -6.3605    0.8952 H   0  0  0  0  0  0  0  0  0  0  0  0
    5.3138   -7.3464    1.0344 H   0  0  0  0  0  0  0  0  0  0  0  0
    6.6335   -7.6075    2.1333 H   0  0  0  0  0  0  0  0  0  0  0  0
    3.9082   -2.6192    2.6380 H   0  0  0  0  0  0  0  0  0  0  0  0
    5.1614   -3.3114    3.6748 H   0  0  0  0  0  0  0  0  0  0  0  0
    8.0332   -4.4432    0.9841 H   0  0  0  0  0  0  0  0  0  0  0  0
    7.8188   -1.5207    0.6040 H   0  0  0  0  0  0  0  0  0  0  0  0
    7.3014   -3.2184   -1.5358 H   0  0  0  0  0  0  0  0  0  0  0  0
  1  2  1  0
  1 30  1  0
  1 31  1  0
  1 32  1  0
  3  2  1  1
  3 26  1  0
  3 28  1  0
  3  4  1  0
  4  5  1  0
  4 33  1  0
  4 34  1  0
  5  6  1  0
  5  7  1  0
  5 35  1  1
  6 36  1  0
  6 37  1  0
  6 38  1  0
  7 24  1  0
  7  8  1  6
  7  9  1  0
  8 39  1  0
  9 10  2  0
  9 11  1  0
 11 20  1  0
 11 12  1  0
 11 40  1  6
 12 13  2  0
 12 14  1  0
 14 15  2  3
 14 41  1  0
 15 16  1  0
 15 42  1  0
 16 25  1  0
 16 17  1  1
 16 18  1  0
 17 43  1  0
 17 44  1  0
 17 45  1  0
 18 19  1  0
 18 46  1  0
 18 47  1  0
 19 20  1  0
 20 21  1  0
 20 48  1  1
 21 22  1  0
 21 23  1  0
 21 24  1  0
 22 49  1  0
 22 50  1  0
 22 51  1  0
 23 52  1  0
 23 53  1  0
 23 54  1  0
 24 25  1  1
 24 26  1  0
 25 55  1  0
 25 56  1  0
 26 27  2  0
 27 28  1  0
 27 57  1  0
 28 29  1  0
 28 58  1  1
 29 59  1  0
M  END
>  <i_m_ct_stereo_status>  (359) 
1

>  <s_m_source_file>  (359) 
/var/tmp/pbs.5076255.sched01/tmpjgl1obm9/123zpz496x9.sdf

>  <i_m_source_file_index>  (359) 
26

>  <i_lp_mmshare_version>  (359) 
48012

>  <i_f3d_flags>  (359) 
0

>  <s_epik_input>  (359) 
W09IXVtDQEBIXTFbQ0hdPUMyW0NAXTEoT1tDSDNdKVtDSDJdW0NAQEhdKFtDSDNdKVtDQF0oW0NAXTIzNCkoW09IXSlDKD1PKVtDQEhdNVtDQEBIXShDMyhbQ0gzXSlbQ0gzXSlPW0NIMl1bQ0BAXShbQ0gzXSkoW0NIMl00KS9bQ0hdPVtDSF1cQzU9Tw==

>  <s_epik_cmdline>  (359) 
J2VwaWtfcHl0aG9uJywgJy1waHQnLCAnMi4wJywgJy1waCcsICc3LjAnLCAnLXRuJywgJzgnLCAnLW1hJywgJzIwMCcsICctaW1hZScsICc8aW5maWxlLm1hZT4nLCAnLW9tYWUnLCAnPG91dGZpbGUubWFlPic=

>  <r_epik_Ionization_Penalty>  (359) 
0.397973

>  <r_epik_Ionization_Penalty_Charging>  (359) 
0

>  <r_epik_Ionization_Penalty_Neutral>  (359) 
0.397973

>  <r_epik_State_Penalty>  (359) 
2.04108

>  <r_epik_Charging_Adjusted_Penalty>  (359) 
2.04108

>  <i_epik_Tot_Q>  (359) 
0

>  <i_epik_Tot_abs_Q>  (359) 
0

>  <s_lp_Force_Field>  (359) 
OPLS3e

>  <r_lp_Energy>  (359) 
85.3971

>  <b_lp_Chiralities_Consistent>  (359) 
1

>  <s_lp_Variant>  (359) 
107:0-3

>  <s_i_glide_gridfile>  (359) 
pfpi4k_grid

>  <i_i_glide_lignum>  (359) 
26

>  <i_i_glide_rotatable_bonds>  (359) 
3

>  <r_i_docking_score>  (359) 
-2.84101

>  <r_i_glide_ligand_efficiency>  (359) 
-0.0979657

>  <r_i_glide_ligand_efficiency_sa>  (359) 
-0.300982

>  <r_i_glide_ligand_efficiency_ln>  (359) 
-0.650518

>  <r_i_glide_gscore>  (359) 
-2.84101

>  <r_i_glide_lipo>  (359) 
-0.515461

>  <r_i_glide_hbond>  (359) 
-0.261971

>  <r_i_glide_metal>  (359) 
-0

>  <r_i_glide_rewards>  (359) 
-0.664904

>  <r_i_glide_evdw>  (359) 
-15.4777

>  <r_i_glide_ecoul>  (359) 
-4.01366

>  <r_i_glide_erotb>  (359) 
0

>  <r_i_glide_esite>  (359) 
-0.0227345

>  <r_i_glide_emodel>  (359) 
-21.8515

>  <r_i_glide_energy>  (359) 
-19.4914

>  <r_i_glide_einternal>  (359) 
0.570079

>  <r_i_glide_intrahb_reward>  (359) 
-0

>  <i_i_glide_confnum>  (359) 
2

>  <i_i_glide_posenum>  (359) 
2

>  <r_i_glide_eff_state_penalty>  (359) 
0

>  <ligand_id>  (359) 
107

>  <original_smiles>  (359) 
COC12CC(C)C3(O)C(=O)C4C(=O)C=CC5(C)COC4C(C)(C)C3(C5)C1=CC2O

>  <smiles>  (359) 
[H]OC1([H])C([H])=C2C1(OC([H])([H])[H])C([H])([H])C([H])(C([H])([H])[H])C1(O[H])C(=O)C3([H])C(=O)C([H])=C([H])C4(C([H])([H])[H])C([H])([H])OC3([H])C(C([H])([H])[H])(C([H])([H])[H])C21C4([H])[H]

$$$$
107:2:1
     RDKit          3D

 59 63  0  0  1  0  0  0  0  0999 V2000
    8.6775   -2.2424    0.0682 C   0  0  0  0  0  0  0  0  0  0  0  0
    7.6678   -3.1750    0.4400 O   0  0  0  0  0  0  0  0  0  0  0  0
    6.3272   -2.7695    0.1614 C   0  0  2  0  0  0  0  0  0  0  0  0
    5.7940   -1.6774    1.0937 C   0  0  0  0  0  0  0  0  0  0  0  0
    5.3237   -2.2002    2.4833 C   0  0  1  0  0  0  0  0  0  0  0  0
    4.8740   -0.9732    3.3164 C   0  0  0  0  0  0  0  0  0  0  0  0
    4.2996   -3.4134    2.3663 C   0  0  2  0  0  0  0  0  0  0  0  0
    3.2253   -2.7982    1.6789 O   0  0  0  0  0  0  0  0  0  0  0  0
    3.6581   -3.9050    3.6880 C   0  0  0  0  0  0  0  0  0  0  0  0
    3.3357   -3.1072    4.5638 O   0  0  0  0  0  0  0  0  0  0  0  0
    3.2933   -5.3900    3.8941 C   0  0  2  0  0  0  0  0  0  0  0  0
    3.8714   -5.8538    5.2438 C   0  0  0  0  0  0  0  0  0  0  0  0
    3.1567   -6.4888    6.0142 O   0  0  0  0  0  0  0  0  0  0  0  0
    5.2528   -5.4761    5.5779 C   0  0  0  0  0  0  0  0  0  0  0  0
    6.2820   -5.5052    4.7157 C   0  0  0  0  0  0  0  0  0  0  0  0
    6.4303   -6.1640    3.3322 C   0  0  1  0  0  0  0  0  0  0  0  0
    7.9260   -6.5874    3.2944 C   0  0  0  0  0  0  0  0  0  0  0  0
    5.6889   -7.5133    3.1894 C   0  0  0  0  0  0  0  0  0  0  0  0
    4.2730   -7.5341    3.1386 O   0  0  0  0  0  0  0  0  0  0  0  0
    3.5269   -6.3919    2.7270 C   0  0  2  0  0  0  0  0  0  0  0  0
    3.8533   -5.7934    1.3265 C   0  0  0  0  0  0  0  0  0  0  0  0
    4.3569   -6.8901    0.3519 C   0  0  0  0  0  0  0  0  0  0  0  0
    2.4851   -5.3692    0.7183 C   0  0  0  0  0  0  0  0  0  0  0  0
    4.9087   -4.6196    1.5247 C   0  0  2  0  0  0  0  0  0  0  0  0
    6.2609   -5.2003    2.1174 C   0  0  0  0  0  0  0  0  0  0  0  0
    5.3713   -3.9417    0.2210 C   0  0  0  0  0  0  0  0  0  0  0  0
    5.0322   -3.9154   -1.0668 C   0  0  0  0  0  0  0  0  0  0  0  0
    6.0485   -2.8167   -1.3669 C   0  0  1  0  0  0  0  0  0  0  0  0
    5.4730   -1.6674   -1.9469 O   0  0  0  0  0  0  0  0  0  0  0  0
    9.6516   -2.6956    0.2432 H   0  0  0  0  0  0  0  0  0  0  0  0
    8.6121   -1.3383    0.6612 H   0  0  0  0  0  0  0  0  0  0  0  0
    8.6228   -1.9800   -0.9887 H   0  0  0  0  0  0  0  0  0  0  0  0
    6.5303   -0.8796    1.2321 H   0  0  0  0  0  0  0  0  0  0  0  0
    4.9411   -1.1752    0.6162 H   0  0  0  0  0  0  0  0  0  0  0  0
    6.2072   -2.5548    3.0023 H   0  0  0  0  0  0  0  0  0  0  0  0
    3.9016   -0.5922    2.9993 H   0  0  0  0  0  0  0  0  0  0  0  0
    5.5912   -0.1625    3.1960 H   0  0  0  0  0  0  0  0  0  0  0  0
    4.8383   -1.1887    4.3801 H   0  0  0  0  0  0  0  0  0  0  0  0
    3.5416   -2.4684    0.8518 H   0  0  0  0  0  0  0  0  0  0  0  0
    2.2135   -5.3658    4.0611 H   0  0  0  0  0  0  0  0  0  0  0  0
    5.4100   -5.0283    6.5525 H   0  0  0  0  0  0  0  0  0  0  0  0
    7.2100   -5.1021    5.1059 H   0  0  0  0  0  0  0  0  0  0  0  0
    8.1846   -7.1148    2.3744 H   0  0  0  0  0  0  0  0  0  0  0  0
    8.1719   -7.2595    4.1194 H   0  0  0  0  0  0  0  0  0  0  0  0
    8.5978   -5.7326    3.3678 H   0  0  0  0  0  0  0  0  0  0  0  0
    6.0501   -8.0450    2.3150 H   0  0  0  0  0  0  0  0  0  0  0  0
    5.9636   -8.1631    4.0227 H   0  0  0  0  0  0  0  0  0  0  0  0
    2.5479   -6.8625    2.6182 H   0  0  0  0  0  0  0  0  0  0  0  0
    4.2368   -6.5948   -0.6853 H   0  0  0  0  0  0  0  0  0  0  0  0
    3.8007   -7.8211    0.4929 H   0  0  0  0  0  0  0  0  0  0  0  0
    5.4005   -7.1418    0.4804 H   0  0  0  0  0  0  0  0  0  0  0  0
    2.5934   -4.7233   -0.1511 H   0  0  0  0  0  0  0  0  0  0  0  0
    1.8640   -4.8474    1.4466 H   0  0  0  0  0  0  0  0  0  0  0  0
    1.9042   -6.2366    0.4087 H   0  0  0  0  0  0  0  0  0  0  0  0
    6.9209   -4.3746    2.3324 H   0  0  0  0  0  0  0  0  0  0  0  0
    6.7576   -5.6895    1.2794 H   0  0  0  0  0  0  0  0  0  0  0  0
    4.3191   -4.4556   -1.6786 H   0  0  0  0  0  0  0  0  0  0  0  0
    6.9236   -3.1235   -1.9429 H   0  0  0  0  0  0  0  0  0  0  0  0
    4.5849   -1.6002   -1.6063 H   0  0  0  0  0  0  0  0  0  0  0  0
  1  2  1  0
  1 30  1  0
  1 31  1  0
  1 32  1  0
  3  2  1  6
  3 26  1  0
  3 28  1  0
  3  4  1  0
  4  5  1  0
  4 33  1  0
  4 34  1  0
  5  6  1  0
  5  7  1  0
  5 35  1  1
  6 36  1  0
  6 37  1  0
  6 38  1  0
  7 24  1  0
  7  8  1  6
  7  9  1  0
  8 39  1  0
  9 10  2  0
  9 11  1  0
 11 20  1  0
 11 12  1  0
 11 40  1  1
 12 13  2  0
 12 14  1  0
 14 15  2  3
 14 41  1  0
 15 16  1  0
 15 42  1  0
 16 25  1  0
 16 17  1  1
 16 18  1  0
 17 43  1  0
 17 44  1  0
 17 45  1  0
 18 19  1  0
 18 46  1  0
 18 47  1  0
 19 20  1  0
 20 21  1  0
 20 48  1  6
 21 22  1  0
 21 23  1  0
 21 24  1  0
 22 49  1  0
 22 50  1  0
 22 51  1  0
 23 52  1  0
 23 53  1  0
 23 54  1  0
 24 25  1  1
 24 26  1  0
 25 55  1  0
 25 56  1  0
 26 27  2  0
 27 28  1  0
 27 57  1  0
 28 29  1  0
 28 58  1  6
 29 59  1  0
M  END
>  <i_m_ct_stereo_status>  (360) 
1

>  <s_m_source_file>  (360) 
/var/tmp/pbs.5076255.sched01/tmpjgl1obm9/123zpz496x9.sdf

>  <i_m_source_file_index>  (360) 
26

>  <i_lp_mmshare_version>  (360) 
48012

>  <i_f3d_flags>  (360) 
0

>  <s_epik_input>  (360) 
W09IXVtDQEBIXTFbQ0hdPUMyW0NAXTEoT1tDSDNdKVtDSDJdW0NAQEhdKFtDSDNdKVtDQF0oW0NAXTIzNCkoW09IXSlDKD1PKVtDQEhdNVtDQEBIXShDMyhbQ0gzXSlbQ0gzXSlPW0NIMl1bQ0BAXShbQ0gzXSkoW0NIMl00KS9bQ0hdPVtDSF1cQzU9Tw==

>  <s_epik_cmdline>  (360) 
J2VwaWtfcHl0aG9uJywgJy1waHQnLCAnMi4wJywgJy1waCcsICc3LjAnLCAnLXRuJywgJzgnLCAnLW1hJywgJzIwMCcsICctaW1hZScsICc8aW5maWxlLm1hZT4nLCAnLW9tYWUnLCAnPG91dGZpbGUubWFlPic=

>  <r_epik_Ionization_Penalty>  (360) 
0.397973

>  <r_epik_Ionization_Penalty_Charging>  (360) 
0

>  <r_epik_Ionization_Penalty_Neutral>  (360) 
0.397973

>  <r_epik_State_Penalty>  (360) 
2.04108

>  <r_epik_Charging_Adjusted_Penalty>  (360) 
2.04108

>  <i_epik_Tot_Q>  (360) 
0

>  <i_epik_Tot_abs_Q>  (360) 
0

>  <s_lp_Force_Field>  (360) 
OPLS3e

>  <r_lp_Energy>  (360) 
85.3971

>  <b_lp_Chiralities_Consistent>  (360) 
1

>  <s_lp_Variant>  (360) 
107:0-3

>  <s_i_glide_gridfile>  (360) 
pfpi4k_grid

>  <i_i_glide_lignum>  (360) 
26

>  <i_i_glide_rotatable_bonds>  (360) 
3

>  <r_i_docking_score>  (360) 
-2.70465

>  <r_i_glide_ligand_efficiency>  (360) 
-0.0932638

>  <r_i_glide_ligand_efficiency_sa>  (360) 
-0.286536

>  <r_i_glide_ligand_efficiency_ln>  (360) 
-0.619297

>  <r_i_glide_gscore>  (360) 
-2.70465

>  <r_i_glide_lipo>  (360) 
-0.691731

>  <r_i_glide_hbond>  (360) 
0

>  <r_i_glide_metal>  (360) 
-0

>  <r_i_glide_rewards>  (360) 
-0.664904

>  <r_i_glide_evdw>  (360) 
-21.3758

>  <r_i_glide_ecoul>  (360) 
-1.86151

>  <r_i_glide_erotb>  (360) 
0

>  <r_i_glide_esite>  (360) 
0

>  <r_i_glide_emodel>  (360) 
-27.2392

>  <r_i_glide_energy>  (360) 
-23.2373

>  <r_i_glide_einternal>  (360) 
0.0364739

>  <r_i_glide_intrahb_reward>  (360) 
-0

>  <i_i_glide_confnum>  (360) 
2

>  <i_i_glide_posenum>  (360) 
31

>  <r_i_glide_eff_state_penalty>  (360) 
0

>  <ligand_id>  (360) 
107

>  <original_smiles>  (360) 
COC12CC(C)C3(O)C(=O)C4C(=O)C=CC5(C)COC4C(C)(C)C3(C5)C1=CC2O

>  <smiles>  (360) 
[H]OC1([H])C([H])=C2C1(OC([H])([H])[H])C([H])([H])C([H])(C([H])([H])[H])C1(O[H])C(=O)C3([H])C(=O)C([H])=C([H])C4(C([H])([H])[H])C([H])([H])OC3([H])C(C([H])([H])[H])(C([H])([H])[H])C21C4([H])[H]

$$$$
107:2:2
     RDKit          3D

 59 63  0  0  1  0  0  0  0  0999 V2000
    6.1298   -4.0637    5.5418 C   0  0  0  0  0  0  0  0  0  0  0  0
    4.9161   -4.6081    5.0128 O   0  0  0  0  0  0  0  0  0  0  0  0
    3.7921   -3.7574    4.7929 C   0  0  2  0  0  0  0  0  0  0  0  0
    2.6179   -4.5681    4.1803 C   0  0  0  0  0  0  0  0  0  0  0  0
    2.7008   -4.7784    2.6329 C   0  0  1  0  0  0  0  0  0  0  0  0
    1.4685   -5.6249    2.2394 C   0  0  0  0  0  0  0  0  0  0  0  0
    2.9263   -3.4168    1.8414 C   0  0  2  0  0  0  0  0  0  0  0  0
    1.8019   -2.6760    2.2490 O   0  0  0  0  0  0  0  0  0  0  0  0
    2.8741   -3.4865    0.2859 C   0  0  0  0  0  0  0  0  0  0  0  0
    2.1697   -4.3358   -0.2715 O   0  0  0  0  0  0  0  0  0  0  0  0
    3.6842   -2.5179   -0.6081 C   0  0  2  0  0  0  0  0  0  0  0  0
    4.4253   -3.3936   -1.6193 C   0  0  0  0  0  0  0  0  0  0  0  0
    4.4811   -3.0425   -2.8221 O   0  0  0  0  0  0  0  0  0  0  0  0
    5.0276   -4.6404   -1.1481 C   0  0  0  0  0  0  0  0  0  0  0  0
    5.7454   -4.8026   -0.0138 C   0  0  0  0  0  0  0  0  0  0  0  0
    6.3588   -3.7820    0.9209 C   0  0  1  0  0  0  0  0  0  0  0  0
    7.6495   -4.5068    1.3834 C   0  0  0  0  0  0  0  0  0  0  0  0
    6.8853   -2.5217    0.2055 C   0  0  0  0  0  0  0  0  0  0  0  0
    5.9809   -1.5863   -0.3580 O   0  0  0  0  0  0  0  0  0  0  0  0
    4.6270   -1.4943    0.0863 C   0  0  2  0  0  0  0  0  0  0  0  0
    4.3914   -1.2638    1.6100 C   0  0  0  0  0  0  0  0  0  0  0  0
    5.5411   -0.4345    2.2060 C   0  0  0  0  0  0  0  0  0  0  0  0
    3.1886   -0.2789    1.6871 C   0  0  0  0  0  0  0  0  0  0  0  0
    4.2205   -2.6664    2.3435 C   0  0  2  0  0  0  0  0  0  0  0  0
    5.5208   -3.5296    2.2036 C   0  0  0  0  0  0  0  0  0  0  0  0
    4.0597   -2.5853    3.8597 C   0  0  0  0  0  0  0  0  0  0  0  0
    3.7591   -1.6230    4.7743 C   0  0  0  0  0  0  0  0  0  0  0  0
    3.5606   -2.6653    5.8754 C   0  0  1  0  0  0  0  0  0  0  0  0
    2.2860   -2.6130    6.4401 O   0  0  0  0  0  0  0  0  0  0  0  0
    6.9756   -4.7193    5.3093 H   0  0  0  0  0  0  0  0  0  0  0  0
    6.0790   -3.9286    6.6186 H   0  0  0  0  0  0  0  0  0  0  0  0
    6.2968   -3.0887    5.1092 H   0  0  0  0  0  0  0  0  0  0  0  0
    2.5338   -5.5229    4.6961 H   0  0  0  0  0  0  0  0  0  0  0  0
    1.6830   -4.0506    4.3965 H   0  0  0  0  0  0  0  0  0  0  0  0
    3.5183   -5.4616    2.4330 H   0  0  0  0  0  0  0  0  0  0  0  0
    0.5491   -5.0524    2.3034 H   0  0  0  0  0  0  0  0  0  0  0  0
    1.3364   -6.4563    2.9275 H   0  0  0  0  0  0  0  0  0  0  0  0
    1.5510   -6.0714    1.2493 H   0  0  0  0  0  0  0  0  0  0  0  0
    1.8461   -1.8354    1.8007 H   0  0  0  0  0  0  0  0  0  0  0  0
    2.9482   -1.9510   -1.1841 H   0  0  0  0  0  0  0  0  0  0  0  0
    4.8236   -5.5468   -1.6873 H   0  0  0  0  0  0  0  0  0  0  0  0
    6.0223   -5.8261    0.1937 H   0  0  0  0  0  0  0  0  0  0  0  0
    8.2731   -3.8621    2.0037 H   0  0  0  0  0  0  0  0  0  0  0  0
    8.2703   -4.7906    0.5290 H   0  0  0  0  0  0  0  0  0  0  0  0
    7.4317   -5.4260    1.9362 H   0  0  0  0  0  0  0  0  0  0  0  0
    7.5351   -1.9773    0.8796 H   0  0  0  0  0  0  0  0  0  0  0  0
    7.5440   -2.8397   -0.6058 H   0  0  0  0  0  0  0  0  0  0  0  0
    4.3322   -0.5646   -0.3991 H   0  0  0  0  0  0  0  0  0  0  0  0
    5.2472    0.0793    3.1220 H   0  0  0  0  0  0  0  0  0  0  0  0
    5.8039    0.3141    1.4630 H   0  0  0  0  0  0  0  0  0  0  0  0
    6.4344   -1.0026    2.4395 H   0  0  0  0  0  0  0  0  0  0  0  0
    2.7818   -0.1923    2.6908 H   0  0  0  0  0  0  0  0  0  0  0  0
    2.3828   -0.5512    1.0071 H   0  0  0  0  0  0  0  0  0  0  0  0
    3.4786    0.7298    1.3792 H   0  0  0  0  0  0  0  0  0  0  0  0
    5.3297   -4.5232    2.6095 H   0  0  0  0  0  0  0  0  0  0  0  0
    6.2220   -3.0647    2.8887 H   0  0  0  0  0  0  0  0  0  0  0  0
    3.6590   -0.5338    4.7439 H   0  0  0  0  0  0  0  0  0  0  0  0
    4.2938   -2.6349    6.6979 H   0  0  0  0  0  0  0  0  0  0  0  0
    2.2148   -3.3536    7.0312 H   0  0  0  0  0  0  0  0  0  0  0  0
  1  2  1  0
  1 30  1  0
  1 31  1  0
  1 32  1  0
  3  2  1  1
  3 26  1  0
  3 28  1  0
  3  4  1  0
  4  5  1  0
  4 33  1  0
  4 34  1  0
  5  6  1  0
  5  7  1  0
  5 35  1  1
  6 36  1  0
  6 37  1  0
  6 38  1  0
  7 24  1  0
  7  8  1  1
  7  9  1  0
  8 39  1  0
  9 10  2  0
  9 11  1  0
 11 20  1  0
 11 12  1  0
 11 40  1  6
 12 13  2  0
 12 14  1  0
 14 15  2  3
 14 41  1  0
 15 16  1  0
 15 42  1  0
 16 25  1  0
 16 17  1  1
 16 18  1  0
 17 43  1  0
 17 44  1  0
 17 45  1  0
 18 19  1  0
 18 46  1  0
 18 47  1  0
 19 20  1  0
 20 21  1  0
 20 48  1  6
 21 22  1  0
 21 23  1  0
 21 24  1  0
 22 49  1  0
 22 50  1  0
 22 51  1  0
 23 52  1  0
 23 53  1  0
 23 54  1  0
 24 25  1  1
 24 26  1  0
 25 55  1  0
 25 56  1  0
 26 27  2  0
 27 28  1  0
 27 57  1  0
 28 29  1  0
 28 58  1  1
 29 59  1  0
M  END
>  <i_m_ct_stereo_status>  (361) 
1

>  <s_m_source_file>  (361) 
/var/tmp/pbs.5076255.sched01/tmpjgl1obm9/123zpz496x9.sdf

>  <i_m_source_file_index>  (361) 
26

>  <i_lp_mmshare_version>  (361) 
48012

>  <i_f3d_flags>  (361) 
0

>  <s_epik_input>  (361) 
W09IXVtDQEBIXTFbQ0hdPUMyW0NAXTEoT1tDSDNdKVtDSDJdW0NAQEhdKFtDSDNdKVtDQF0oW0NAXTIzNCkoW09IXSlDKD1PKVtDQEhdNVtDQEBIXShDMyhbQ0gzXSlbQ0gzXSlPW0NIMl1bQ0BAXShbQ0gzXSkoW0NIMl00KS9bQ0hdPVtDSF1cQzU9Tw==

>  <s_epik_cmdline>  (361) 
J2VwaWtfcHl0aG9uJywgJy1waHQnLCAnMi4wJywgJy1waCcsICc3LjAnLCAnLXRuJywgJzgnLCAnLW1hJywgJzIwMCcsICctaW1hZScsICc8aW5maWxlLm1hZT4nLCAnLW9tYWUnLCAnPG91dGZpbGUubWFlPic=

>  <r_epik_Ionization_Penalty>  (361) 
0.397973

>  <r_epik_Ionization_Penalty_Charging>  (361) 
0

>  <r_epik_Ionization_Penalty_Neutral>  (361) 
0.397973

>  <r_epik_State_Penalty>  (361) 
2.04108

>  <r_epik_Charging_Adjusted_Penalty>  (361) 
2.04108

>  <i_epik_Tot_Q>  (361) 
0

>  <i_epik_Tot_abs_Q>  (361) 
0

>  <s_lp_Force_Field>  (361) 
OPLS3e

>  <r_lp_Energy>  (361) 
85.3971

>  <b_lp_Chiralities_Consistent>  (361) 
1

>  <s_lp_Variant>  (361) 
107:0-3

>  <s_i_glide_gridfile>  (361) 
pfpi4k_grid

>  <i_i_glide_lignum>  (361) 
26

>  <i_i_glide_rotatable_bonds>  (361) 
3

>  <r_i_docking_score>  (361) 
-2.17938

>  <r_i_glide_ligand_efficiency>  (361) 
-0.0751512

>  <r_i_glide_ligand_efficiency_sa>  (361) 
-0.230888

>  <r_i_glide_ligand_efficiency_ln>  (361) 
-0.499024

>  <r_i_glide_gscore>  (361) 
-2.17938

>  <r_i_glide_lipo>  (361) 
-0.496321

>  <r_i_glide_hbond>  (361) 
-0.00405559

>  <r_i_glide_metal>  (361) 
-0

>  <r_i_glide_rewards>  (361) 
-0.664904

>  <r_i_glide_evdw>  (361) 
-15.9703

>  <r_i_glide_ecoul>  (361) 
-1.25469

>  <r_i_glide_erotb>  (361) 
0

>  <r_i_glide_esite>  (361) 
-0.0273854

>  <r_i_glide_emodel>  (361) 
-18.0028

>  <r_i_glide_energy>  (361) 
-17.225

>  <r_i_glide_einternal>  (361) 
4.16941

>  <r_i_glide_intrahb_reward>  (361) 
-0

>  <i_i_glide_confnum>  (361) 
1

>  <i_i_glide_posenum>  (361) 
3

>  <r_i_glide_eff_state_penalty>  (361) 
0

>  <ligand_id>  (361) 
107

>  <original_smiles>  (361) 
COC12CC(C)C3(O)C(=O)C4C(=O)C=CC5(C)COC4C(C)(C)C3(C5)C1=CC2O

>  <smiles>  (361) 
[H]OC1([H])C([H])=C2C1(OC([H])([H])[H])C([H])([H])C([H])(C([H])([H])[H])C1(O[H])C(=O)C3([H])C(=O)C([H])=C([H])C4(C([H])([H])[H])C([H])([H])OC3([H])C(C([H])([H])[H])(C([H])([H])[H])C21C4([H])[H]

$$$$
107:3:0
     RDKit          3D

 59 63  0  0  1  0  0  0  0  0999 V2000
    4.8470   -0.4035    2.3644 C   0  0  0  0  0  0  0  0  0  0  0  0
    4.0854   -0.7976    1.2174 O   0  0  0  0  0  0  0  0  0  0  0  0
    4.5878   -1.8069    0.3368 C   0  0  2  0  0  0  0  0  0  0  0  0
    3.5781   -2.2415   -0.7401 C   0  0  0  0  0  0  0  0  0  0  0  0
    2.5407   -3.3073   -0.2616 C   0  0  1  0  0  0  0  0  0  0  0  0
    1.5950   -3.6203   -1.4628 C   0  0  0  0  0  0  0  0  0  0  0  0
    3.2268   -4.5536    0.4564 C   0  0  2  0  0  0  0  0  0  0  0  0
    4.0732   -5.0386   -0.5681 O   0  0  0  0  0  0  0  0  0  0  0  0
    2.2917   -5.7233    0.8427 C   0  0  0  0  0  0  0  0  0  0  0  0
    1.3144   -5.9934    0.1294 O   0  0  0  0  0  0  0  0  0  0  0  0
    2.5503   -6.5970    2.0941 C   0  0  2  0  0  0  0  0  0  0  0  0
    1.2131   -6.7665    2.8757 C   0  0  0  0  0  0  0  0  0  0  0  0
    0.5682   -7.7993    2.7511 O   0  0  0  0  0  0  0  0  0  0  0  0
    0.7842   -5.6679    3.7712 C   0  0  0  0  0  0  0  0  0  0  0  0
    1.1478   -4.4426    3.3933 C   0  0  0  0  0  0  0  0  0  0  0  0
    2.3897   -3.7704    3.9378 C   0  0  1  0  0  0  0  0  0  0  0  0
    1.9352   -2.5337    4.7331 C   0  0  0  0  0  0  0  0  0  0  0  0
    3.1944   -4.6835    4.8730 C   0  0  0  0  0  0  0  0  0  0  0  0
    3.5084   -5.9850    4.3809 O   0  0  0  0  0  0  0  0  0  0  0  0
    3.7962   -6.2518    2.9987 C   0  0  2  0  0  0  0  0  0  0  0  0
    4.8671   -5.3322    2.3403 C   0  0  0  0  0  0  0  0  0  0  0  0
    5.9565   -4.8946    3.3500 C   0  0  0  0  0  0  0  0  0  0  0  0
    5.6688   -6.2378    1.3602 C   0  0  0  0  0  0  0  0  0  0  0  0
    4.1231   -4.0972    1.6838 C   0  0  2  0  0  0  0  0  0  0  0  0
    3.3463   -3.2610    2.8034 C   0  0  0  0  0  0  0  0  0  0  0  0
    5.0635   -3.0348    1.0775 C   0  0  0  0  0  0  0  0  0  0  0  0
    6.3447   -2.9229    0.7188 C   0  0  0  0  0  0  0  0  0  0  0  0
    6.0831   -1.6185   -0.0212 C   0  0  1  0  0  0  0  0  0  0  0  0
    6.4220   -1.7242   -1.3773 O   0  0  0  0  0  0  0  0  0  0  0  0
    4.2001    0.2286    2.9833 H   0  0  0  0  0  0  0  0  0  0  0  0
    5.7038    0.2327    2.1045 H   0  0  0  0  0  0  0  0  0  0  0  0
    5.2054   -1.2031    2.9536 H   0  0  0  0  0  0  0  0  0  0  0  0
    3.0742   -1.3670   -1.1544 H   0  0  0  0  0  0  0  0  0  0  0  0
    4.0980   -2.6847   -1.5939 H   0  0  0  0  0  0  0  0  0  0  0  0
    1.8994   -2.7882    0.4484 H   0  0  0  0  0  0  0  0  0  0  0  0
    2.0378   -4.2397   -2.2172 H   0  0  0  0  0  0  0  0  0  0  0  0
    1.3297   -2.6983   -1.9856 H   0  0  0  0  0  0  0  0  0  0  0  0
    0.6546   -4.0834   -1.1601 H   0  0  0  0  0  0  0  0  0  0  0  0
    3.5329   -5.3472   -1.2952 H   0  0  0  0  0  0  0  0  0  0  0  0
    2.7531   -7.5856    1.6885 H   0  0  0  0  0  0  0  0  0  0  0  0
    0.9542   -5.9388    4.8036 H   0  0  0  0  0  0  0  0  0  0  0  0
    1.0420   -4.1594    2.3726 H   0  0  0  0  0  0  0  0  0  0  0  0
    2.7908   -1.9991    5.1635 H   0  0  0  0  0  0  0  0  0  0  0  0
    1.2830   -2.8138    5.5559 H   0  0  0  0  0  0  0  0  0  0  0  0
    1.3950   -1.8142    4.1101 H   0  0  0  0  0  0  0  0  0  0  0  0
    4.1054   -4.1812    5.2081 H   0  0  0  0  0  0  0  0  0  0  0  0
    2.6377   -4.8241    5.7959 H   0  0  0  0  0  0  0  0  0  0  0  0
    4.2867   -7.2199    3.1090 H   0  0  0  0  0  0  0  0  0  0  0  0
    6.8976   -4.7421    2.8254 H   0  0  0  0  0  0  0  0  0  0  0  0
    6.1290   -5.6556    4.1088 H   0  0  0  0  0  0  0  0  0  0  0  0
    5.7552   -3.9670    3.8640 H   0  0  0  0  0  0  0  0  0  0  0  0
    6.3003   -5.6699    0.6730 H   0  0  0  0  0  0  0  0  0  0  0  0
    5.0202   -6.8736    0.7525 H   0  0  0  0  0  0  0  0  0  0  0  0
    6.3272   -6.9293    1.8969 H   0  0  0  0  0  0  0  0  0  0  0  0
    2.7891   -2.4446    2.3182 H   0  0  0  0  0  0  0  0  0  0  0  0
    4.1063   -2.7952    3.3790 H   0  0  0  0  0  0  0  0  0  0  0  0
    7.2584   -3.5185    0.8553 H   0  0  0  0  0  0  0  0  0  0  0  0
    6.5288   -0.7105    0.3868 H   0  0  0  0  0  0  0  0  0  0  0  0
    6.0057   -2.5075   -1.7164 H   0  0  0  0  0  0  0  0  0  0  0  0
  1  2  1  0
  1 30  1  0
  1 31  1  0
  1 32  1  0
  3  2  1  1
  3 26  1  0
  3 28  1  0
  3  4  1  0
  4  5  1  0
  4 33  1  0
  4 34  1  0
  5  6  1  0
  5  7  1  0
  5 35  1  1
  6 36  1  0
  6 37  1  0
  6 38  1  0
  7 24  1  0
  7  8  1  6
  7  9  1  0
  8 39  1  0
  9 10  2  0
  9 11  1  0
 11 20  1  0
 11 12  1  0
 11 40  1  6
 12 13  2  0
 12 14  1  0
 14 15  2  3
 14 41  1  0
 15 16  1  0
 15 42  1  0
 16 25  1  0
 16 17  1  1
 16 18  1  0
 17 43  1  0
 17 44  1  0
 17 45  1  0
 18 19  1  0
 18 46  1  0
 18 47  1  0
 19 20  1  0
 20 21  1  0
 20 48  1  1
 21 22  1  0
 21 23  1  0
 21 24  1  0
 22 49  1  0
 22 50  1  0
 22 51  1  0
 23 52  1  0
 23 53  1  0
 23 54  1  0
 24 25  1  1
 24 26  1  0
 25 55  1  0
 25 56  1  0
 26 27  2  0
 27 28  1  0
 27 57  1  0
 28 29  1  0
 28 58  1  1
 29 59  1  0
M  END
>  <i_m_ct_stereo_status>  (362) 
1

>  <s_m_source_file>  (362) 
/var/tmp/pbs.5076255.sched01/tmpjgl1obm9/123zpz496x9.sdf

>  <i_m_source_file_index>  (362) 
27

>  <i_lp_mmshare_version>  (362) 
48012

>  <i_f3d_flags>  (362) 
0

>  <s_epik_input>  (362) 
W09IXVtDQEBIXTFbQ0hdPUMyW0NAXTEoT1tDSDNdKVtDSDJdW0NAQEhdKFtDSDNdKVtDQF0oW0NAXTIzNCkoW09IXSlDKD1PKVtDQEhdNVtDQEBIXShDMyhbQ0gzXSlbQ0gzXSlPW0NIMl1bQ0BAXShbQ0gzXSkoW0NIMl00KS9bQ0hdPVtDSF1cQzU9Tw==

>  <s_epik_cmdline>  (362) 
J2VwaWtfcHl0aG9uJywgJy1waHQnLCAnMi4wJywgJy1waCcsICc3LjAnLCAnLXRuJywgJzgnLCAnLW1hJywgJzIwMCcsICctaW1hZScsICc8aW5maWxlLm1hZT4nLCAnLW9tYWUnLCAnPG91dGZpbGUubWFlPic=

>  <r_epik_Ionization_Penalty>  (362) 
0.397973

>  <r_epik_Ionization_Penalty_Charging>  (362) 
0

>  <r_epik_Ionization_Penalty_Neutral>  (362) 
0.397973

>  <r_epik_State_Penalty>  (362) 
2.04108

>  <r_epik_Charging_Adjusted_Penalty>  (362) 
2.04108

>  <i_epik_Tot_Q>  (362) 
0

>  <i_epik_Tot_abs_Q>  (362) 
0

>  <s_lp_Force_Field>  (362) 
OPLS3e

>  <r_lp_Energy>  (362) 
112.249

>  <b_lp_Chiralities_Consistent>  (362) 
1

>  <s_lp_Variant>  (362) 
107:0-4

>  <s_i_glide_gridfile>  (362) 
pfpi4k_grid

>  <i_i_glide_lignum>  (362) 
27

>  <i_i_glide_rotatable_bonds>  (362) 
3

>  <r_i_docking_score>  (362) 
-3.76625

>  <r_i_glide_ligand_efficiency>  (362) 
-0.129871

>  <r_i_glide_ligand_efficiency_sa>  (362) 
-0.399004

>  <r_i_glide_ligand_efficiency_ln>  (362) 
-0.862377

>  <r_i_glide_gscore>  (362) 
-3.76625

>  <r_i_glide_lipo>  (362) 
-0.346908

>  <r_i_glide_hbond>  (362) 
-0.446651

>  <r_i_glide_metal>  (362) 
-0

>  <r_i_glide_rewards>  (362) 
-0.664904

>  <r_i_glide_evdw>  (362) 
-12.2409

>  <r_i_glide_ecoul>  (362) 
-10.8547

>  <r_i_glide_erotb>  (362) 
0

>  <r_i_glide_esite>  (362) 
-0.067543

>  <r_i_glide_emodel>  (362) 
-27.5191

>  <r_i_glide_energy>  (362) 
-23.0956

>  <r_i_glide_einternal>  (362) 
2.41389

>  <r_i_glide_intrahb_reward>  (362) 
-0

>  <i_i_glide_confnum>  (362) 
2

>  <i_i_glide_posenum>  (362) 
25

>  <r_i_glide_eff_state_penalty>  (362) 
0

>  <ligand_id>  (362) 
107

>  <original_smiles>  (362) 
COC12CC(C)C3(O)C(=O)C4C(=O)C=CC5(C)COC4C(C)(C)C3(C5)C1=CC2O

>  <smiles>  (362) 
[H]OC1([H])C([H])=C2C1(OC([H])([H])[H])C([H])([H])C([H])(C([H])([H])[H])C1(O[H])C(=O)C3([H])C(=O)C([H])=C([H])C4(C([H])([H])[H])C([H])([H])OC3([H])C(C([H])([H])[H])(C([H])([H])[H])C21C4([H])[H]

$$$$
107:3:1
     RDKit          3D

 59 63  0  0  1  0  0  0  0  0999 V2000
    6.1914   -0.7620    2.4142 C   0  0  0  0  0  0  0  0  0  0  0  0
    5.4403   -0.9689    1.2218 O   0  0  0  0  0  0  0  0  0  0  0  0
    5.7385   -2.0943    0.3845 C   0  0  2  0  0  0  0  0  0  0  0  0
    4.6773   -2.2950   -0.7196 C   0  0  0  0  0  0  0  0  0  0  0  0
    3.3837   -3.0472   -0.2510 C   0  0  1  0  0  0  0  0  0  0  0  0
    2.4202   -3.1287   -1.4603 C   0  0  0  0  0  0  0  0  0  0  0  0
    3.7345   -4.4123    0.5035 C   0  0  2  0  0  0  0  0  0  0  0  0
    4.4234   -5.0916   -0.5347 O   0  0  0  0  0  0  0  0  0  0  0  0
    2.5355   -5.3488    0.8535 C   0  0  0  0  0  0  0  0  0  0  0  0
    1.5895   -5.4776    0.0876 O   0  0  0  0  0  0  0  0  0  0  0  0
    2.5358   -6.2042    2.1539 C   0  0  2  0  0  0  0  0  0  0  0  0
    1.1776   -6.0094    2.8848 C   0  0  0  0  0  0  0  0  0  0  0  0
    0.2828   -6.8445    2.7567 O   0  0  0  0  0  0  0  0  0  0  0  0
    1.0052   -4.8270    3.7418 C   0  0  0  0  0  0  0  0  0  0  0  0
    1.6550   -3.7211    3.3433 C   0  0  0  0  0  0  0  0  0  0  0  0
    2.9977   -3.3780    3.9297 C   0  0  1  0  0  0  0  0  0  0  0  0
    2.8502   -2.0507    4.7118 C   0  0  0  0  0  0  0  0  0  0  0  0
    3.5365   -4.4377    4.9172 C   0  0  0  0  0  0  0  0  0  0  0  0
    3.5387   -5.7880    4.4543 O   0  0  0  0  0  0  0  0  0  0  0  0
    3.8016   -6.1439    3.0864 C   0  0  2  0  0  0  0  0  0  0  0  0
    5.0903   -5.5301    2.4557 C   0  0  0  0  0  0  0  0  0  0  0  0
    6.2168   -5.3519    3.5087 C   0  0  0  0  0  0  0  0  0  0  0  0
    5.6635   -6.6280    1.5129 C   0  0  0  0  0  0  0  0  0  0  0  0
    4.6807   -4.1717    1.7437 C   0  0  2  0  0  0  0  0  0  0  0  0
    4.0622   -3.1569    2.8148 C   0  0  0  0  0  0  0  0  0  0  0  0
    5.8750   -3.3981    1.1279 C   0  0  0  0  0  0  0  0  0  0  0  0
    7.1707   -3.5881    0.8311 C   0  0  0  0  0  0  0  0  0  0  0  0
    7.2620   -2.2459    0.0875 C   0  0  1  0  0  0  0  0  0  0  0  0
    7.6816   -2.3460   -1.2578 O   0  0  0  0  0  0  0  0  0  0  0  0
    5.7368    0.0303    3.0068 H   0  0  0  0  0  0  0  0  0  0  0  0
    7.2346   -0.5627    2.2546 H   0  0  0  0  0  0  0  0  0  0  0  0
    6.2523   -1.6275    3.0393 H   0  0  0  0  0  0  0  0  0  0  0  0
    4.4177   -1.3308   -1.1552 H   0  0  0  0  0  0  0  0  0  0  0  0
    5.1080   -2.8793   -1.5420 H   0  0  0  0  0  0  0  0  0  0  0  0
    2.8649   -2.3903    0.4409 H   0  0  0  0  0  0  0  0  0  0  0  0
    2.7301   -3.8542   -2.2135 H   0  0  0  0  0  0  0  0  0  0  0  0
    2.3768   -2.1691   -1.9743 H   0  0  0  0  0  0  0  0  0  0  0  0
    1.3992   -3.3538   -1.1560 H   0  0  0  0  0  0  0  0  0  0  0  0
    3.8053   -5.2949   -1.2334 H   0  0  0  0  0  0  0  0  0  0  0  0
    2.4933   -7.2220    1.7667 H   0  0  0  0  0  0  0  0  0  0  0  0
    1.0813   -5.0968    4.7845 H   0  0  0  0  0  0  0  0  0  0  0  0
    1.6378   -3.4430    2.3026 H   0  0  0  0  0  0  0  0  0  0  0  0
    3.7902   -1.7393    5.1699 H   0  0  0  0  0  0  0  0  0  0  0  0
    2.1268   -2.1482    5.5189 H   0  0  0  0  0  0  0  0  0  0  0  0
    2.5197   -1.2311    4.0749 H   0  0  0  0  0  0  0  0  0  0  0  0
    4.5254   -4.1704    5.2844 H   0  0  0  0  0  0  0  0  0  0  0  0
    2.9356   -4.4238    5.8267 H   0  0  0  0  0  0  0  0  0  0  0  0
    4.0282   -7.2000    3.2331 H   0  0  0  0  0  0  0  0  0  0  0  0
    7.2070   -5.4323    3.0604 H   0  0  0  0  0  0  0  0  0  0  0  0
    6.1634   -6.1088    4.2886 H   0  0  0  0  0  0  0  0  0  0  0  0
    6.2082   -4.3963    4.0086 H   0  0  0  0  0  0  0  0  0  0  0  0
    6.4288   -6.2408    0.8408 H   0  0  0  0  0  0  0  0  0  0  0  0
    4.8936   -7.0932    0.8980 H   0  0  0  0  0  0  0  0  0  0  0  0
    6.1168   -7.4460    2.0816 H   0  0  0  0  0  0  0  0  0  0  0  0
    3.7716   -2.2329    2.3233 H   0  0  0  0  0  0  0  0  0  0  0  0
    4.8914   -2.9197    3.4696 H   0  0  0  0  0  0  0  0  0  0  0  0
    7.8960   -4.3741    1.0248 H   0  0  0  0  0  0  0  0  0  0  0  0
    7.8704   -1.4722    0.5478 H   0  0  0  0  0  0  0  0  0  0  0  0
    7.4913   -3.2202   -1.5611 H   0  0  0  0  0  0  0  0  0  0  0  0
  1  2  1  0
  1 30  1  0
  1 31  1  0
  1 32  1  0
  3  2  1  1
  3 26  1  0
  3 28  1  0
  3  4  1  0
  4  5  1  0
  4 33  1  0
  4 34  1  0
  5  6  1  0
  5  7  1  0
  5 35  1  1
  6 36  1  0
  6 37  1  0
  6 38  1  0
  7 24  1  0
  7  8  1  6
  7  9  1  0
  8 39  1  0
  9 10  2  0
  9 11  1  0
 11 20  1  0
 11 12  1  0
 11 40  1  6
 12 13  2  0
 12 14  1  0
 14 15  2  3
 14 41  1  0
 15 16  1  0
 15 42  1  0
 16 25  1  0
 16 17  1  1
 16 18  1  0
 17 43  1  0
 17 44  1  0
 17 45  1  0
 18 19  1  0
 18 46  1  0
 18 47  1  0
 19 20  1  0
 20 21  1  0
 20 48  1  1
 21 22  1  0
 21 23  1  0
 21 24  1  0
 22 49  1  0
 22 50  1  0
 22 51  1  0
 23 52  1  0
 23 53  1  0
 23 54  1  0
 24 25  1  1
 24 26  1  0
 25 55  1  0
 25 56  1  0
 26 27  2  0
 27 28  1  0
 27 57  1  0
 28 29  1  0
 28 58  1  1
 29 59  1  0
M  END
>  <i_m_ct_stereo_status>  (363) 
1

>  <s_m_source_file>  (363) 
/var/tmp/pbs.5076255.sched01/tmpjgl1obm9/123zpz496x9.sdf

>  <i_m_source_file_index>  (363) 
27

>  <i_lp_mmshare_version>  (363) 
48012

>  <i_f3d_flags>  (363) 
0

>  <s_epik_input>  (363) 
W09IXVtDQEBIXTFbQ0hdPUMyW0NAXTEoT1tDSDNdKVtDSDJdW0NAQEhdKFtDSDNdKVtDQF0oW0NAXTIzNCkoW09IXSlDKD1PKVtDQEhdNVtDQEBIXShDMyhbQ0gzXSlbQ0gzXSlPW0NIMl1bQ0BAXShbQ0gzXSkoW0NIMl00KS9bQ0hdPVtDSF1cQzU9Tw==

>  <s_epik_cmdline>  (363) 
J2VwaWtfcHl0aG9uJywgJy1waHQnLCAnMi4wJywgJy1waCcsICc3LjAnLCAnLXRuJywgJzgnLCAnLW1hJywgJzIwMCcsICctaW1hZScsICc8aW5maWxlLm1hZT4nLCAnLW9tYWUnLCAnPG91dGZpbGUubWFlPic=

>  <r_epik_Ionization_Penalty>  (363) 
0.397973

>  <r_epik_Ionization_Penalty_Charging>  (363) 
0

>  <r_epik_Ionization_Penalty_Neutral>  (363) 
0.397973

>  <r_epik_State_Penalty>  (363) 
2.04108

>  <r_epik_Charging_Adjusted_Penalty>  (363) 
2.04108

>  <i_epik_Tot_Q>  (363) 
0

>  <i_epik_Tot_abs_Q>  (363) 
0

>  <s_lp_Force_Field>  (363) 
OPLS3e

>  <r_lp_Energy>  (363) 
112.249

>  <b_lp_Chiralities_Consistent>  (363) 
1

>  <s_lp_Variant>  (363) 
107:0-4

>  <s_i_glide_gridfile>  (363) 
pfpi4k_grid

>  <i_i_glide_lignum>  (363) 
27

>  <i_i_glide_rotatable_bonds>  (363) 
3

>  <r_i_docking_score>  (363) 
-3.72805

>  <r_i_glide_ligand_efficiency>  (363) 
-0.128553

>  <r_i_glide_ligand_efficiency_sa>  (363) 
-0.394957

>  <r_i_glide_ligand_efficiency_ln>  (363) 
-0.853629

>  <r_i_glide_gscore>  (363) 
-3.72805

>  <r_i_glide_lipo>  (363) 
-0.432142

>  <r_i_glide_hbond>  (363) 
-0.270976

>  <r_i_glide_metal>  (363) 
-0

>  <r_i_glide_rewards>  (363) 
-0.664904

>  <r_i_glide_evdw>  (363) 
-16.9008

>  <r_i_glide_ecoul>  (363) 
-9.60161

>  <r_i_glide_erotb>  (363) 
0

>  <r_i_glide_esite>  (363) 
-0.0747464

>  <r_i_glide_emodel>  (363) 
-30.0623

>  <r_i_glide_energy>  (363) 
-26.5025

>  <r_i_glide_einternal>  (363) 
2.36647

>  <r_i_glide_intrahb_reward>  (363) 
-0

>  <i_i_glide_confnum>  (363) 
1

>  <i_i_glide_posenum>  (363) 
1

>  <r_i_glide_eff_state_penalty>  (363) 
0

>  <ligand_id>  (363) 
107

>  <original_smiles>  (363) 
COC12CC(C)C3(O)C(=O)C4C(=O)C=CC5(C)COC4C(C)(C)C3(C5)C1=CC2O

>  <smiles>  (363) 
[H]OC1([H])C([H])=C2C1(OC([H])([H])[H])C([H])([H])C([H])(C([H])([H])[H])C1(O[H])C(=O)C3([H])C(=O)C([H])=C([H])C4(C([H])([H])[H])C([H])([H])OC3([H])C(C([H])([H])[H])(C([H])([H])[H])C21C4([H])[H]

$$$$
107:3:2
     RDKit          3D

 59 63  0  0  1  0  0  0  0  0999 V2000
    5.9303   -0.8348    2.5912 C   0  0  0  0  0  0  0  0  0  0  0  0
    5.1662   -1.0860    1.4074 O   0  0  0  0  0  0  0  0  0  0  0  0
    5.5176   -2.1941    0.5585 C   0  0  2  0  0  0  0  0  0  0  0  0
    4.4624   -2.4809   -0.5349 C   0  0  0  0  0  0  0  0  0  0  0  0
    3.2246   -3.3112   -0.0431 C   0  0  1  0  0  0  0  0  0  0  0  0
    2.2673   -3.4611   -1.2419 C   0  0  0  0  0  0  0  0  0  0  0  0
    3.6520   -4.6485    0.7270 C   0  0  2  0  0  0  0  0  0  0  0  0
    4.3766   -5.3306   -0.2889 O   0  0  0  0  0  0  0  0  0  0  0  0
    2.5049   -5.6407    1.1090 C   0  0  0  0  0  0  0  0  0  0  0  0
    1.5432   -5.8327    0.3685 O   0  0  0  0  0  0  0  0  0  0  0  0
    2.5767   -6.4713    2.4152 C   0  0  2  0  0  0  0  0  0  0  0  0
    1.2111   -6.3546    3.1534 C   0  0  0  0  0  0  0  0  0  0  0  0
    0.3773   -7.2499    3.0351 O   0  0  0  0  0  0  0  0  0  0  0  0
    0.9570   -5.1716    3.9895 C   0  0  0  0  0  0  0  0  0  0  0  0
    1.5436   -4.0328    3.5755 C   0  0  0  0  0  0  0  0  0  0  0  0
    2.8865   -3.5967    4.1425 C   0  0  1  0  0  0  0  0  0  0  0  0
    2.6591   -2.2773    4.9059 C   0  0  0  0  0  0  0  0  0  0  0  0
    3.4855   -4.6111    5.1402 C   0  0  0  0  0  0  0  0  0  0  0  0
    3.5669   -5.9665    4.6955 O   0  0  0  0  0  0  0  0  0  0  0  0
    3.8455   -6.3220    3.3324 C   0  0  2  0  0  0  0  0  0  0  0  0
    5.0929   -5.6412    2.6845 C   0  0  0  0  0  0  0  0  0  0  0  0
    6.2160   -5.3843    3.7241 C   0  0  0  0  0  0  0  0  0  0  0  0
    5.7313   -6.7185    1.7618 C   0  0  0  0  0  0  0  0  0  0  0  0
    4.5944   -4.3152    1.9599 C   0  0  2  0  0  0  0  0  0  0  0  0
    3.9660   -3.3101    3.0388 C   0  0  0  0  0  0  0  0  0  0  0  0
    5.7311   -3.4913    1.3045 C   0  0  0  0  0  0  0  0  0  0  0  0
    7.0279   -3.6033    0.9984 C   0  0  0  0  0  0  0  0  0  0  0  0
    7.0451   -2.2678    0.2474 C   0  0  1  0  0  0  0  0  0  0  0  0
    7.4652   -2.3602   -1.0981 O   0  0  0  0  0  0  0  0  0  0  0  0
    5.4160   -0.0485    3.1433 H   0  0  0  0  0  0  0  0  0  0  0  0
    6.9218   -0.4392    2.3773 H   0  0  0  0  0  0  0  0  0  0  0  0
    6.0320   -1.6887    3.2177 H   0  0  0  0  0  0  0  0  0  0  0  0
    4.1367   -1.5357   -0.9704 H   0  0  0  0  0  0  0  0  0  0  0  0
    4.9196   -3.0442   -1.3569 H   0  0  0  0  0  0  0  0  0  0  0  0
    2.6728   -2.6747    0.6413 H   0  0  0  0  0  0  0  0  0  0  0  0
    2.6032   -4.2145   -1.9398 H   0  0  0  0  0  0  0  0  0  0  0  0
    2.2014   -2.5269   -1.7981 H   0  0  0  0  0  0  0  0  0  0  0  0
    1.2589   -3.7335   -0.9514 H   0  0  0  0  0  0  0  0  0  0  0  0
    5.0239   -4.7356   -0.6445 H   0  0  0  0  0  0  0  0  0  0  0  0
    2.5976   -7.4948    2.0423 H   0  0  0  0  0  0  0  0  0  0  0  0
    1.0735   -5.4137    5.0377 H   0  0  0  0  0  0  0  0  0  0  0  0
    1.5088   -3.7750    2.5289 H   0  0  0  0  0  0  0  0  0  0  0  0
    3.5809   -1.9069    5.3495 H   0  0  0  0  0  0  0  0  0  0  0  0
    1.9500   -2.4034    5.7201 H   0  0  0  0  0  0  0  0  0  0  0  0
    2.2774   -1.4886    4.2607 H   0  0  0  0  0  0  0  0  0  0  0  0
    4.4582   -4.2772    5.4919 H   0  0  0  0  0  0  0  0  0  0  0  0
    2.8943   -4.6193    6.0571 H   0  0  0  0  0  0  0  0  0  0  0  0
    4.1387   -7.3607    3.4843 H   0  0  0  0  0  0  0  0  0  0  0  0
    7.2048   -5.4228    3.2676 H   0  0  0  0  0  0  0  0  0  0  0  0
    6.2104   -6.1310    4.5157 H   0  0  0  0  0  0  0  0  0  0  0  0
    6.1568   -4.4251    4.2151 H   0  0  0  0  0  0  0  0  0  0  0  0
    6.4683   -6.2963    1.0793 H   0  0  0  0  0  0  0  0  0  0  0  0
    4.9876   -7.2385    1.1617 H   0  0  0  0  0  0  0  0  0  0  0  0
    6.2349   -7.4991    2.3423 H   0  0  0  0  0  0  0  0  0  0  0  0
    3.5765   -2.4398    2.5217 H   0  0  0  0  0  0  0  0  0  0  0  0
    4.7925   -2.9888    3.6295 H   0  0  0  0  0  0  0  0  0  0  0  0
    7.7880   -4.3577    1.1962 H   0  0  0  0  0  0  0  0  0  0  0  0
    7.6121   -1.4504    0.7011 H   0  0  0  0  0  0  0  0  0  0  0  0
    7.2262   -3.2281   -1.4040 H   0  0  0  0  0  0  0  0  0  0  0  0
  1  2  1  0
  1 30  1  0
  1 31  1  0
  1 32  1  0
  3  2  1  1
  3 26  1  0
  3 28  1  0
  3  4  1  0
  4  5  1  0
  4 33  1  0
  4 34  1  0
  5  6  1  0
  5  7  1  0
  5 35  1  1
  6 36  1  0
  6 37  1  0
  6 38  1  0
  7 24  1  0
  7  8  1  6
  7  9  1  0
  8 39  1  0
  9 10  2  0
  9 11  1  0
 11 20  1  0
 11 12  1  0
 11 40  1  6
 12 13  2  0
 12 14  1  0
 14 15  2  3
 14 41  1  0
 15 16  1  0
 15 42  1  0
 16 25  1  0
 16 17  1  1
 16 18  1  0
 17 43  1  0
 17 44  1  0
 17 45  1  0
 18 19  1  0
 18 46  1  0
 18 47  1  0
 19 20  1  0
 20 21  1  0
 20 48  1  1
 21 22  1  0
 21 23  1  0
 21 24  1  0
 22 49  1  0
 22 50  1  0
 22 51  1  0
 23 52  1  0
 23 53  1  0
 23 54  1  0
 24 25  1  1
 24 26  1  0
 25 55  1  0
 25 56  1  0
 26 27  2  0
 27 28  1  0
 27 57  1  0
 28 29  1  0
 28 58  1  1
 29 59  1  0
M  END
>  <i_m_ct_stereo_status>  (364) 
1

>  <s_m_source_file>  (364) 
/var/tmp/pbs.5076255.sched01/tmpjgl1obm9/123zpz496x9.sdf

>  <i_m_source_file_index>  (364) 
27

>  <i_lp_mmshare_version>  (364) 
48012

>  <i_f3d_flags>  (364) 
0

>  <s_epik_input>  (364) 
W09IXVtDQEBIXTFbQ0hdPUMyW0NAXTEoT1tDSDNdKVtDSDJdW0NAQEhdKFtDSDNdKVtDQF0oW0NAXTIzNCkoW09IXSlDKD1PKVtDQEhdNVtDQEBIXShDMyhbQ0gzXSlbQ0gzXSlPW0NIMl1bQ0BAXShbQ0gzXSkoW0NIMl00KS9bQ0hdPVtDSF1cQzU9Tw==

>  <s_epik_cmdline>  (364) 
J2VwaWtfcHl0aG9uJywgJy1waHQnLCAnMi4wJywgJy1waCcsICc3LjAnLCAnLXRuJywgJzgnLCAnLW1hJywgJzIwMCcsICctaW1hZScsICc8aW5maWxlLm1hZT4nLCAnLW9tYWUnLCAnPG91dGZpbGUubWFlPic=

>  <r_epik_Ionization_Penalty>  (364) 
0.397973

>  <r_epik_Ionization_Penalty_Charging>  (364) 
0

>  <r_epik_Ionization_Penalty_Neutral>  (364) 
0.397973

>  <r_epik_State_Penalty>  (364) 
2.04108

>  <r_epik_Charging_Adjusted_Penalty>  (364) 
2.04108

>  <i_epik_Tot_Q>  (364) 
0

>  <i_epik_Tot_abs_Q>  (364) 
0

>  <s_lp_Force_Field>  (364) 
OPLS3e

>  <r_lp_Energy>  (364) 
112.249

>  <b_lp_Chiralities_Consistent>  (364) 
1

>  <s_lp_Variant>  (364) 
107:0-4

>  <s_i_glide_gridfile>  (364) 
pfpi4k_grid

>  <i_i_glide_lignum>  (364) 
27

>  <i_i_glide_rotatable_bonds>  (364) 
3

>  <r_i_docking_score>  (364) 
-3.08267

>  <r_i_glide_ligand_efficiency>  (364) 
-0.106299

>  <r_i_glide_ligand_efficiency_sa>  (364) 
-0.326584

>  <r_i_glide_ligand_efficiency_ln>  (364) 
-0.705852

>  <r_i_glide_gscore>  (364) 
-3.08267

>  <r_i_glide_lipo>  (364) 
-0.445349

>  <r_i_glide_hbond>  (364) 
-0.305726

>  <r_i_glide_metal>  (364) 
-0

>  <r_i_glide_rewards>  (364) 
-0.664904

>  <r_i_glide_evdw>  (364) 
-18.6158

>  <r_i_glide_ecoul>  (364) 
-4.55616

>  <r_i_glide_erotb>  (364) 
0

>  <r_i_glide_esite>  (364) 
-0.0524755

>  <r_i_glide_emodel>  (364) 
-26.9589

>  <r_i_glide_energy>  (364) 
-23.1719

>  <r_i_glide_einternal>  (364) 
0.598659

>  <r_i_glide_intrahb_reward>  (364) 
-0

>  <i_i_glide_confnum>  (364) 
1

>  <i_i_glide_posenum>  (364) 
23

>  <r_i_glide_eff_state_penalty>  (364) 
0

>  <ligand_id>  (364) 
107

>  <original_smiles>  (364) 
COC12CC(C)C3(O)C(=O)C4C(=O)C=CC5(C)COC4C(C)(C)C3(C5)C1=CC2O

>  <smiles>  (364) 
[H]OC1([H])C([H])=C2C1(OC([H])([H])[H])C([H])([H])C([H])(C([H])([H])[H])C1(O[H])C(=O)C3([H])C(=O)C([H])=C([H])C4(C([H])([H])[H])C([H])([H])OC3([H])C(C([H])([H])[H])(C([H])([H])[H])C21C4([H])[H]

$$$$
108:0:0
     RDKit          3D

 28 30  0  0  1  0  0  0  0  0999 V2000
    2.8984   -9.4390    2.1393 C   0  0  0  0  0  0  0  0  0  0  0  0
    2.6006   -7.9843    2.5260 C   0  0  0  0  0  0  0  0  0  0  0  0
    2.2487   -7.8670    4.0145 C   0  0  0  0  0  0  0  0  0  0  0  0
    3.8140   -7.1372    2.2337 C   0  0  0  0  0  0  0  0  0  0  0  0
    3.6180   -6.1571    1.3516 C   0  0  0  0  0  0  0  0  0  0  0  0
    4.5627   -5.2185    0.8864 N   0  0  0  0  0  0  0  0  0  0  0  0
    4.0367   -3.9797    0.3431 N   0  0  0  0  0  0  0  0  0  0  0  0
    4.7294   -3.0204   -0.0956 N   0  0  0  0  0  0  0  0  0  0  0  0
    6.1348   -3.1575   -0.0628 C   0  0  0  0  0  0  0  0  0  0  0  0
    7.0648   -2.2163   -0.5111 N   0  0  0  0  0  0  0  0  0  0  0  0
    8.3161   -2.6704   -0.3283 C   0  0  0  0  0  0  0  0  0  0  0  0
    8.4239   -4.2853    0.3850 S   0  0  0  0  0  0  0  0  0  0  0  0
    6.6826   -4.2979    0.4250 C   0  0  0  0  0  0  0  0  0  0  0  0
    5.9121   -5.4313    0.9093 C   0  0  0  0  0  0  0  0  0  0  0  0
    6.4924   -6.4562    1.2616 O   0  0  0  0  0  0  0  0  0  0  0  0
    2.2090   -6.2265    0.9234 C   0  0  0  0  0  0  0  0  0  0  0  0
    1.6176   -5.5218    0.1107 O   0  0  0  0  0  0  0  0  0  0  0  0
    1.4988   -7.3662    1.6344 C   0  0  0  0  0  0  0  0  0  0  0  0
    2.0306  -10.0772    2.3125 H   0  0  0  0  0  0  0  0  0  0  0  0
    3.7279   -9.8336    2.7301 H   0  0  0  0  0  0  0  0  0  0  0  0
    3.1816   -9.5304    1.0871 H   0  0  0  0  0  0  0  0  0  0  0  0
    1.3563   -8.4483    4.2518 H   0  0  0  0  0  0  0  0  0  0  0  0
    2.0692   -6.8272    4.3020 H   0  0  0  0  0  0  0  0  0  0  0  0
    3.0677   -8.2370    4.6341 H   0  0  0  0  0  0  0  0  0  0  0  0
    4.7384   -7.3426    2.7514 H   0  0  0  0  0  0  0  0  0  0  0  0
    9.1730   -2.0754   -0.6210 H   0  0  0  0  0  0  0  0  0  0  0  0
    1.1250   -8.0646    0.8842 H   0  0  0  0  0  0  0  0  0  0  0  0
    0.6605   -6.9624    2.2041 H   0  0  0  0  0  0  0  0  0  0  0  0
  1  2  1  0
  1 19  1  0
  1 20  1  0
  1 21  1  0
  2 18  1  0
  2  3  1  0
  2  4  1  0
  3 22  1  0
  3 23  1  0
  3 24  1  0
  4  5  2  0
  4 25  1  0
  5  6  1  0
  5 16  1  0
  6 14  1  0
  6  7  1  0
  7  8  2  0
  8  9  1  0
  9 13  2  0
  9 10  1  0
 10 11  2  0
 11 12  1  0
 11 26  1  0
 12 13  1  0
 13 14  1  0
 14 15  2  0
 16 17  2  0
 16 18  1  0
 18 27  1  0
 18 28  1  0
M  END
>  <i_m_ct_stereo_status>  (365) 
1

>  <s_m_source_file>  (365) 
/var/tmp/pbs.5076255.sched01/tmpjgl1obm9/123zpz496x9.sdf

>  <i_m_source_file_index>  (365) 
28

>  <i_lp_mmshare_version>  (365) 
48012

>  <i_f3d_flags>  (365) 
0

>  <s_epik_input>  (365) 
W0NIM11DMShbQ0gzXSlbQ0hdPUMoQyg9TylbQ0gyXTEpbihubjIpYyg9TyljKGMyMylzW2NIXW4z

>  <s_epik_cmdline>  (365) 
J2VwaWtfcHl0aG9uJywgJy1waHQnLCAnMi4wJywgJy1waCcsICc3LjAnLCAnLXRuJywgJzgnLCAnLW1hJywgJzIwMCcsICctaW1hZScsICc8aW5maWxlLm1hZT4nLCAnLW9tYWUnLCAnPG91dGZpbGUubWFlPic=

>  <r_lp_tautomer_probability>  (365) 
1

>  <r_epik_Ionization_Penalty>  (365) 
6.17784e-12

>  <r_epik_Ionization_Penalty_Charging>  (365) 
2.06546e-13

>  <r_epik_Ionization_Penalty_Neutral>  (365) 
5.9713e-12

>  <r_epik_State_Penalty>  (365) 
-0

>  <r_epik_Charging_Adjusted_Penalty>  (365) 
2.06546e-13

>  <i_epik_Tot_Q>  (365) 
0

>  <i_epik_Tot_abs_Q>  (365) 
0

>  <s_lp_Force_Field>  (365) 
OPLS3e

>  <r_lp_Energy>  (365) 
27.3117

>  <b_lp_Chiralities_Consistent>  (365) 
1

>  <s_lp_Variant>  (365) 
108:0-1

>  <s_i_glide_gridfile>  (365) 
pfpi4k_grid

>  <i_i_glide_lignum>  (365) 
28

>  <i_i_glide_rotatable_bonds>  (365) 
1

>  <r_i_docking_score>  (365) 
-3.81834

>  <r_i_glide_ligand_efficiency>  (365) 
-0.21213

>  <r_i_glide_ligand_efficiency_sa>  (365) 
-0.555938

>  <r_i_glide_ligand_efficiency_ln>  (365) 
-0.981485

>  <r_i_glide_gscore>  (365) 
-3.81834

>  <r_i_glide_lipo>  (365) 
-0.358919

>  <r_i_glide_hbond>  (365) 
-0.245369

>  <r_i_glide_metal>  (365) 
-0

>  <r_i_glide_rewards>  (365) 
-1.77602

>  <r_i_glide_evdw>  (365) 
-22.7464

>  <r_i_glide_ecoul>  (365) 
-3.53739

>  <r_i_glide_erotb>  (365) 
0.257829

>  <r_i_glide_esite>  (365) 
-0.0279311

>  <r_i_glide_emodel>  (365) 
-33.1526

>  <r_i_glide_energy>  (365) 
-26.2838

>  <r_i_glide_einternal>  (365) 
0.361417

>  <r_i_glide_intrahb_reward>  (365) 
-0

>  <i_i_glide_confnum>  (365) 
5

>  <i_i_glide_posenum>  (365) 
1

>  <r_i_glide_eff_state_penalty>  (365) 
0

>  <ligand_id>  (365) 
108

>  <original_smiles>  (365) 
CC1(C)C=C(n2nnc3ncsc3c2=O)C(=O)C1

>  <smiles>  (365) 
[H]C1=C(n2nnc3nc([H])sc3c2=O)C(=O)C([H])([H])C1(C([H])([H])[H])C([H])([H])[H]

$$$$
108:0:1
     RDKit          3D

 28 30  0  0  1  0  0  0  0  0999 V2000
    5.5042   -2.9993   -2.4737 C   0  0  0  0  0  0  0  0  0  0  0  0
    4.9816   -2.7474   -1.0544 C   0  0  0  0  0  0  0  0  0  0  0  0
    4.3431   -1.3558   -0.9518 C   0  0  0  0  0  0  0  0  0  0  0  0
    3.9791   -3.8195   -0.6839 C   0  0  0  0  0  0  0  0  0  0  0  0
    4.3665   -4.5993    0.3268 C   0  0  0  0  0  0  0  0  0  0  0  0
    3.6257   -5.6338    0.9058 N   0  0  0  0  0  0  0  0  0  0  0  0
    2.2157   -5.3923    1.1461 N   0  0  0  0  0  0  0  0  0  0  0  0
    1.4282   -6.2244    1.6738 N   0  0  0  0  0  0  0  0  0  0  0  0
    1.9282   -7.5146    1.9735 C   0  0  0  0  0  0  0  0  0  0  0  0
    1.1983   -8.5800    2.5060 N   0  0  0  0  0  0  0  0  0  0  0  0
    1.9717   -9.6752    2.6181 C   0  0  0  0  0  0  0  0  0  0  0  0
    3.6450   -9.4506    2.0875 S   0  0  0  0  0  0  0  0  0  0  0  0
    3.2260   -7.8033    1.7084 C   0  0  0  0  0  0  0  0  0  0  0  0
    4.1647   -6.8564    1.1370 C   0  0  0  0  0  0  0  0  0  0  0  0
    5.3227   -7.1984    0.8771 O   0  0  0  0  0  0  0  0  0  0  0  0
    5.6317   -4.0874    0.8467 C   0  0  0  0  0  0  0  0  0  0  0  0
    6.2347   -4.4623    1.8480 O   0  0  0  0  0  0  0  0  0  0  0  0
    6.1104   -2.9285   -0.0050 C   0  0  0  0  0  0  0  0  0  0  0  0
    6.2707   -2.2654   -2.7228 H   0  0  0  0  0  0  0  0  0  0  0  0
    4.7060   -2.9225   -3.2135 H   0  0  0  0  0  0  0  0  0  0  0  0
    5.9515   -3.9880   -2.5732 H   0  0  0  0  0  0  0  0  0  0  0  0
    5.0742   -0.5742   -1.1729 H   0  0  0  0  0  0  0  0  0  0  0  0
    3.9439   -1.1719    0.0482 H   0  0  0  0  0  0  0  0  0  0  0  0
    3.5168   -1.2516   -1.6576 H   0  0  0  0  0  0  0  0  0  0  0  0
    3.0496   -3.9419   -1.2302 H   0  0  0  0  0  0  0  0  0  0  0  0
    1.5723  -10.6027    3.0128 H   0  0  0  0  0  0  0  0  0  0  0  0
    7.0672   -3.2101   -0.4458 H   0  0  0  0  0  0  0  0  0  0  0  0
    6.2459   -2.0535    0.6356 H   0  0  0  0  0  0  0  0  0  0  0  0
  1  2  1  0
  1 19  1  0
  1 20  1  0
  1 21  1  0
  2 18  1  0
  2  3  1  0
  2  4  1  0
  3 22  1  0
  3 23  1  0
  3 24  1  0
  4  5  2  0
  4 25  1  0
  5  6  1  0
  5 16  1  0
  6 14  1  0
  6  7  1  0
  7  8  2  0
  8  9  1  0
  9 13  2  0
  9 10  1  0
 10 11  2  0
 11 12  1  0
 11 26  1  0
 12 13  1  0
 13 14  1  0
 14 15  2  0
 16 17  2  0
 16 18  1  0
 18 27  1  0
 18 28  1  0
M  END
>  <i_m_ct_stereo_status>  (366) 
1

>  <s_m_source_file>  (366) 
/var/tmp/pbs.5076255.sched01/tmpjgl1obm9/123zpz496x9.sdf

>  <i_m_source_file_index>  (366) 
28

>  <i_lp_mmshare_version>  (366) 
48012

>  <i_f3d_flags>  (366) 
0

>  <s_epik_input>  (366) 
W0NIM11DMShbQ0gzXSlbQ0hdPUMoQyg9TylbQ0gyXTEpbihubjIpYyg9TyljKGMyMylzW2NIXW4z

>  <s_epik_cmdline>  (366) 
J2VwaWtfcHl0aG9uJywgJy1waHQnLCAnMi4wJywgJy1waCcsICc3LjAnLCAnLXRuJywgJzgnLCAnLW1hJywgJzIwMCcsICctaW1hZScsICc8aW5maWxlLm1hZT4nLCAnLW9tYWUnLCAnPG91dGZpbGUubWFlPic=

>  <r_lp_tautomer_probability>  (366) 
1

>  <r_epik_Ionization_Penalty>  (366) 
6.17784e-12

>  <r_epik_Ionization_Penalty_Charging>  (366) 
2.06546e-13

>  <r_epik_Ionization_Penalty_Neutral>  (366) 
5.9713e-12

>  <r_epik_State_Penalty>  (366) 
-0

>  <r_epik_Charging_Adjusted_Penalty>  (366) 
2.06546e-13

>  <i_epik_Tot_Q>  (366) 
0

>  <i_epik_Tot_abs_Q>  (366) 
0

>  <s_lp_Force_Field>  (366) 
OPLS3e

>  <r_lp_Energy>  (366) 
27.3117

>  <b_lp_Chiralities_Consistent>  (366) 
1

>  <s_lp_Variant>  (366) 
108:0-1

>  <s_i_glide_gridfile>  (366) 
pfpi4k_grid

>  <i_i_glide_lignum>  (366) 
28

>  <i_i_glide_rotatable_bonds>  (366) 
1

>  <r_i_docking_score>  (366) 
-3.48066

>  <r_i_glide_ligand_efficiency>  (366) 
-0.19337

>  <r_i_glide_ligand_efficiency_sa>  (366) 
-0.506773

>  <r_i_glide_ligand_efficiency_ln>  (366) 
-0.894686

>  <r_i_glide_gscore>  (366) 
-3.48066

>  <r_i_glide_lipo>  (366) 
-0.422397

>  <r_i_glide_hbond>  (366) 
0

>  <r_i_glide_metal>  (366) 
-0

>  <r_i_glide_rewards>  (366) 
-1.7279

>  <r_i_glide_evdw>  (366) 
-25.1506

>  <r_i_glide_ecoul>  (366) 
-1.38393

>  <r_i_glide_erotb>  (366) 
0.257829

>  <r_i_glide_esite>  (366) 
-0.123077

>  <r_i_glide_emodel>  (366) 
-32.4903

>  <r_i_glide_energy>  (366) 
-26.5345

>  <r_i_glide_einternal>  (366) 
0.570332

>  <r_i_glide_intrahb_reward>  (366) 
-0

>  <i_i_glide_confnum>  (366) 
6

>  <i_i_glide_posenum>  (366) 
17

>  <r_i_glide_eff_state_penalty>  (366) 
0

>  <ligand_id>  (366) 
108

>  <original_smiles>  (366) 
CC1(C)C=C(n2nnc3ncsc3c2=O)C(=O)C1

>  <smiles>  (366) 
[H]C1=C(n2nnc3nc([H])sc3c2=O)C(=O)C([H])([H])C1(C([H])([H])[H])C([H])([H])[H]

$$$$
108:0:2
     RDKit          3D

 28 30  0  0  1  0  0  0  0  0999 V2000
    5.8109   -2.2706   -1.0858 C   0  0  0  0  0  0  0  0  0  0  0  0
    4.4036   -2.8780   -1.0539 C   0  0  0  0  0  0  0  0  0  0  0  0
    3.6991   -2.6816   -2.4078 C   0  0  0  0  0  0  0  0  0  0  0  0
    4.4747   -4.3522   -0.7126 C   0  0  0  0  0  0  0  0  0  0  0  0
    3.7639   -4.7001    0.3646 C   0  0  0  0  0  0  0  0  0  0  0  0
    3.6808   -5.9743    0.9295 N   0  0  0  0  0  0  0  0  0  0  0  0
    4.9103   -6.7388    1.0394 N   0  0  0  0  0  0  0  0  0  0  0  0
    4.9987   -7.8751    1.5799 N   0  0  0  0  0  0  0  0  0  0  0  0
    3.8066   -8.4871    2.0441 C   0  0  0  0  0  0  0  0  0  0  0  0
    3.7036   -9.7437    2.6410 N   0  0  0  0  0  0  0  0  0  0  0  0
    2.4168  -10.0332    2.9169 C   0  0  0  0  0  0  0  0  0  0  0  0
    1.2664   -8.7546    2.4897 S   0  0  0  0  0  0  0  0  0  0  0  0
    2.6261   -7.8357    1.8993 C   0  0  0  0  0  0  0  0  0  0  0  0
    2.4893   -6.5250    1.2896 C   0  0  0  0  0  0  0  0  0  0  0  0
    1.3761   -6.0171    1.1058 O   0  0  0  0  0  0  0  0  0  0  0  0
    3.2258   -3.4885    0.9683 C   0  0  0  0  0  0  0  0  0  0  0  0
    2.6285   -3.3902    2.0376 O   0  0  0  0  0  0  0  0  0  0  0  0
    3.5590   -2.2875    0.1044 C   0  0  0  0  0  0  0  0  0  0  0  0
    5.7598   -1.1972   -1.2791 H   0  0  0  0  0  0  0  0  0  0  0  0
    6.4170   -2.7313   -1.8682 H   0  0  0  0  0  0  0  0  0  0  0  0
    6.3261   -2.4191   -0.1342 H   0  0  0  0  0  0  0  0  0  0  0  0
    3.5846   -1.6209   -2.6357 H   0  0  0  0  0  0  0  0  0  0  0  0
    2.7011   -3.1245   -2.4093 H   0  0  0  0  0  0  0  0  0  0  0  0
    4.2614   -3.1436   -3.2203 H   0  0  0  0  0  0  0  0  0  0  0  0
    5.0148   -5.0553   -1.3323 H   0  0  0  0  0  0  0  0  0  0  0  0
    2.1399  -10.9803    3.3691 H   0  0  0  0  0  0  0  0  0  0  0  0
    4.1015   -1.5550    0.7052 H   0  0  0  0  0  0  0  0  0  0  0  0
    2.6254   -1.8446   -0.2385 H   0  0  0  0  0  0  0  0  0  0  0  0
  1  2  1  0
  1 19  1  0
  1 20  1  0
  1 21  1  0
  2 18  1  0
  2  3  1  0
  2  4  1  0
  3 22  1  0
  3 23  1  0
  3 24  1  0
  4  5  2  0
  4 25  1  0
  5  6  1  0
  5 16  1  0
  6 14  1  0
  6  7  1  0
  7  8  2  0
  8  9  1  0
  9 13  2  0
  9 10  1  0
 10 11  2  0
 11 12  1  0
 11 26  1  0
 12 13  1  0
 13 14  1  0
 14 15  2  0
 16 17  2  0
 16 18  1  0
 18 27  1  0
 18 28  1  0
M  END
>  <i_m_ct_stereo_status>  (367) 
1

>  <s_m_source_file>  (367) 
/var/tmp/pbs.5076255.sched01/tmpjgl1obm9/123zpz496x9.sdf

>  <i_m_source_file_index>  (367) 
28

>  <i_lp_mmshare_version>  (367) 
48012

>  <i_f3d_flags>  (367) 
0

>  <s_epik_input>  (367) 
W0NIM11DMShbQ0gzXSlbQ0hdPUMoQyg9TylbQ0gyXTEpbihubjIpYyg9TyljKGMyMylzW2NIXW4z

>  <s_epik_cmdline>  (367) 
J2VwaWtfcHl0aG9uJywgJy1waHQnLCAnMi4wJywgJy1waCcsICc3LjAnLCAnLXRuJywgJzgnLCAnLW1hJywgJzIwMCcsICctaW1hZScsICc8aW5maWxlLm1hZT4nLCAnLW9tYWUnLCAnPG91dGZpbGUubWFlPic=

>  <r_lp_tautomer_probability>  (367) 
1

>  <r_epik_Ionization_Penalty>  (367) 
6.17784e-12

>  <r_epik_Ionization_Penalty_Charging>  (367) 
2.06546e-13

>  <r_epik_Ionization_Penalty_Neutral>  (367) 
5.9713e-12

>  <r_epik_State_Penalty>  (367) 
-0

>  <r_epik_Charging_Adjusted_Penalty>  (367) 
2.06546e-13

>  <i_epik_Tot_Q>  (367) 
0

>  <i_epik_Tot_abs_Q>  (367) 
0

>  <s_lp_Force_Field>  (367) 
OPLS3e

>  <r_lp_Energy>  (367) 
27.3117

>  <b_lp_Chiralities_Consistent>  (367) 
1

>  <s_lp_Variant>  (367) 
108:0-1

>  <s_i_glide_gridfile>  (367) 
pfpi4k_grid

>  <i_i_glide_lignum>  (367) 
28

>  <i_i_glide_rotatable_bonds>  (367) 
1

>  <r_i_docking_score>  (367) 
-3.15495

>  <r_i_glide_ligand_efficiency>  (367) 
-0.175275

>  <r_i_glide_ligand_efficiency_sa>  (367) 
-0.459351

>  <r_i_glide_ligand_efficiency_ln>  (367) 
-0.810964

>  <r_i_glide_gscore>  (367) 
-3.15495

>  <r_i_glide_lipo>  (367) 
-0.00155574

>  <r_i_glide_hbond>  (367) 
-0.16

>  <r_i_glide_metal>  (367) 
-0

>  <r_i_glide_rewards>  (367) 
-1.67241

>  <r_i_glide_evdw>  (367) 
-24.2971

>  <r_i_glide_ecoul>  (367) 
-2.30694

>  <r_i_glide_erotb>  (367) 
0.257829

>  <r_i_glide_esite>  (367) 
-0.0179212

>  <r_i_glide_emodel>  (367) 
-31.8693

>  <r_i_glide_energy>  (367) 
-26.604

>  <r_i_glide_einternal>  (367) 
0.720425

>  <r_i_glide_intrahb_reward>  (367) 
-0

>  <i_i_glide_confnum>  (367) 
2

>  <i_i_glide_posenum>  (367) 
31

>  <r_i_glide_eff_state_penalty>  (367) 
0

>  <ligand_id>  (367) 
108

>  <original_smiles>  (367) 
CC1(C)C=C(n2nnc3ncsc3c2=O)C(=O)C1

>  <smiles>  (367) 
[H]C1=C(n2nnc3nc([H])sc3c2=O)C(=O)C([H])([H])C1(C([H])([H])[H])C([H])([H])[H]

$$$$
109:0:0
     RDKit          3D

 63 68  0  0  1  0  0  0  0  0999 V2000
    1.3430    0.5703    4.5279 C   0  0  0  0  0  0  0  0  0  0  0  0
    1.5730   -0.9112    4.2529 C   0  0  0  0  0  0  0  0  0  0  0  0
    0.6056   -1.6500    4.0878 O   0  0  0  0  0  0  0  0  0  0  0  0
    3.0219   -1.4369    4.2908 C   0  0  2  0  0  0  0  0  0  0  0  0
    4.0903   -0.3965    3.7328 C   0  0  0  0  0  0  0  0  0  0  0  0
    5.4394   -0.8732    3.0928 C   0  0  0  0  0  0  0  0  0  0  0  0
    5.5450   -1.7699    1.7890 C   0  0  2  0  0  0  0  0  0  0  0  0
    4.5444   -1.7275    0.6661 C   0  0  0  0  0  0  0  0  0  0  0  0
    4.9903   -2.5098   -0.3431 C   0  0  0  0  0  0  0  0  0  0  0  0
    4.4656   -2.5696   -1.6755 N   0  0  0  0  0  0  0  0  0  0  0  0
    4.7866   -3.4693   -2.6609 C   0  0  0  0  0  0  0  0  0  0  0  0
    4.0827   -3.1087   -3.7685 C   0  0  0  0  0  0  0  0  0  0  0  0
    3.4199   -1.9464   -3.4688 N   0  0  0  0  0  0  0  0  0  0  0  0
    3.6810   -1.6022   -2.2073 C   0  0  0  0  0  0  0  0  0  0  0  0
    5.9698   -3.5759    0.2000 C   0  0  2  0  0  0  0  0  0  0  0  0
    7.3562   -3.4354   -0.4715 C   0  0  0  0  0  0  0  0  0  0  0  0
    5.4011   -5.0329    0.0418 C   0  0  0  0  0  0  0  0  0  0  0  0
    3.9822   -5.1506    0.6522 C   0  0  0  0  0  0  0  0  0  0  0  0
    3.9076   -4.6896    2.1368 C   0  0  1  0  0  0  0  0  0  0  0  0
    5.3400   -4.3353    2.6533 C   0  0  2  0  0  0  0  0  0  0  0  0
    5.3905   -4.1708    4.2075 C   0  0  0  0  0  0  0  0  0  0  0  0
    4.0182   -3.8257    4.8278 C   0  0  0  0  0  0  0  0  0  0  0  0
    3.2168   -2.9336    3.8651 C   0  0  0  0  0  0  0  0  0  0  0  0
    2.7365   -3.6841    2.5817 C   0  0  2  0  0  0  0  0  0  0  0  0
    1.5193   -4.5742    2.9832 C   0  0  0  0  0  0  0  0  0  0  0  0
    2.2553   -2.6914    1.4584 C   0  0  0  0  0  0  0  0  0  0  0  0
    3.0748   -1.4730    0.9392 C   0  0  0  0  0  0  0  0  0  0  0  0
    6.0488   -3.2472    1.7483 C   0  0  2  0  0  0  0  0  0  0  0  0
    1.8218    0.8461    5.4670 H   0  0  0  0  0  0  0  0  0  0  0  0
    0.2736    0.7593    4.6125 H   0  0  0  0  0  0  0  0  0  0  0  0
    1.7356    1.1945    3.7225 H   0  0  0  0  0  0  0  0  0  0  0  0
    3.2163   -1.4470    5.3614 H   0  0  0  0  0  0  0  0  0  0  0  0
    3.6565    0.3621    3.0892 H   0  0  0  0  0  0  0  0  0  0  0  0
    4.3931    0.1961    4.5978 H   0  0  0  0  0  0  0  0  0  0  0  0
    6.0183    0.0301    2.8940 H   0  0  0  0  0  0  0  0  0  0  0  0
    5.9883   -1.3571    3.8842 H   0  0  0  0  0  0  0  0  0  0  0  0
    6.3853   -1.2557    1.3108 H   0  0  0  0  0  0  0  0  0  0  0  0
    5.4837   -4.2833   -2.5629 H   0  0  0  0  0  0  0  0  0  0  0  0
    4.0506   -3.5974   -4.7166 H   0  0  0  0  0  0  0  0  0  0  0  0
    3.3386   -0.6824   -1.7646 H   0  0  0  0  0  0  0  0  0  0  0  0
    8.0638   -4.1513   -0.0580 H   0  0  0  0  0  0  0  0  0  0  0  0
    7.7820   -2.4432   -0.3322 H   0  0  0  0  0  0  0  0  0  0  0  0
    7.3279   -3.6106   -1.5456 H   0  0  0  0  0  0  0  0  0  0  0  0
    5.3606   -5.4114   -0.9714 H   0  0  0  0  0  0  0  0  0  0  0  0
    6.0860   -5.7337    0.5374 H   0  0  0  0  0  0  0  0  0  0  0  0
    3.2971   -4.6201    0.0005 H   0  0  0  0  0  0  0  0  0  0  0  0
    3.6629   -6.1878    0.5783 H   0  0  0  0  0  0  0  0  0  0  0  0
    3.7082   -5.6193    2.6702 H   0  0  0  0  0  0  0  0  0  0  0  0
    5.9498   -5.2332    2.5363 H   0  0  0  0  0  0  0  0  0  0  0  0
    5.7452   -5.0967    4.6646 H   0  0  0  0  0  0  0  0  0  0  0  0
    6.1159   -3.4155    4.5011 H   0  0  0  0  0  0  0  0  0  0  0  0
    3.4818   -4.7575    4.9975 H   0  0  0  0  0  0  0  0  0  0  0  0
    4.1478   -3.3706    5.8103 H   0  0  0  0  0  0  0  0  0  0  0  0
    3.9836   -2.5948    3.2748 H   0  0  0  0  0  0  0  0  0  0  0  0
    0.6726   -3.9929    3.3449 H   0  0  0  0  0  0  0  0  0  0  0  0
    1.7585   -5.2806    3.7819 H   0  0  0  0  0  0  0  0  0  0  0  0
    1.1663   -5.1711    2.1423 H   0  0  0  0  0  0  0  0  0  0  0  0
    1.9133   -3.2674    0.5982 H   0  0  0  0  0  0  0  0  0  0  0  0
    1.3229   -2.2441    1.7980 H   0  0  0  0  0  0  0  0  0  0  0  0
    2.8877   -0.5761    1.5163 H   0  0  0  0  0  0  0  0  0  0  0  0
    2.6284   -1.2075    0.0050 H   0  0  0  0  0  0  0  0  0  0  0  0
    7.0840   -3.2571    2.0386 H   0  0  0  0  0  0  0  0  0  0  0  0
    2.8373   -1.4154   -4.1086 H   0  0  0  0  0  0  0  0  0  0  0  0
  1  2  1  0
  1 29  1  0
  1 30  1  0
  1 31  1  0
  2  3  2  0
  2  4  1  0
  4 23  1  0
  4  5  1  0
  4 32  1  1
  5  6  1  0
  5 33  1  0
  5 34  1  0
  6  7  1  0
  6 35  1  0
  6 36  1  0
  7 28  1  0
  7  8  1  0
  7 37  1  6
  8 27  1  0
  8  9  2  0
  9 10  1  0
  9 15  1  0
 10 14  1  0
 10 11  1  0
 11 12  2  0
 11 38  1  0
 12 13  1  0
 12 39  1  0
 13 14  2  0
 13 63  1  0
 14 40  1  0
 15 28  1  0
 15 16  1  6
 15 17  1  0
 16 41  1  0
 16 42  1  0
 16 43  1  0
 17 18  1  0
 17 44  1  0
 17 45  1  0
 18 19  1  0
 18 46  1  0
 18 47  1  0
 19 24  1  0
 19 20  1  0
 19 48  1  1
 20 21  1  0
 20 28  1  0
 20 49  1  1
 21 22  1  0
 21 50  1  0
 21 51  1  0
 22 23  1  0
 22 52  1  0
 22 53  1  0
 23 24  1  0
 23 54  1  0
 24 25  1  1
 24 26  1  0
 25 55  1  0
 25 56  1  0
 25 57  1  0
 26 27  1  0
 26 58  1  0
 26 59  1  0
 27 60  1  0
 27 61  1  0
 28 62  1  1
M  CHG  1  13   1
M  END
>  <i_m_ct_stereo_status>  (368) 
1

>  <s_m_source_file>  (368) 
/var/tmp/pbs.5076255.sched01/tmpjgl1obm9/123zpz496x9.sdf

>  <i_m_source_file_index>  (368) 
29

>  <i_lp_mmshare_version>  (368) 
48012

>  <i_f3d_flags>  (368) 
0

>  <s_epik_input>  (368) 
W0NIM11DKD1PKVtDQEhdKFtDSDJdW0NIMl0xKVtDSF0yW0NIMl1bQ0gyXVtDQEhdM1tDQEhdKFtDSDJdW0NIMl00KVtDQF0yKFtDSDNdKVtDSDJdW0NIMl1DKFtDQEBIXTFbQ0BASF0zW0NAQF00NVtDSDNdKT1DNW42W2NIXVtjSF1uW2NIXTY=

>  <s_epik_cmdline>  (368) 
J2VwaWtfcHl0aG9uJywgJy1waHQnLCAnMi4wJywgJy1waCcsICc3LjAnLCAnLXRuJywgJzgnLCAnLW1hJywgJzIwMCcsICctaW1hZScsICc8aW5maWxlLm1hZT4nLCAnLW9tYWUnLCAnPG91dGZpbGUubWFlPic=

>  <r_lp_tautomer_probability>  (368) 
1

>  <r_epik_Ionization_Penalty>  (368) 
0.0165893

>  <r_epik_Ionization_Penalty_Charging>  (368) 
0

>  <r_epik_Ionization_Penalty_Neutral>  (368) 
0.0165893

>  <r_epik_State_Penalty>  (368) 
0.0131025

>  <r_epik_Charging_Adjusted_Penalty>  (368) 
0.0131025

>  <i_epik_Tot_Q>  (368) 
1

>  <i_epik_Tot_abs_Q>  (368) 
1

>  <s_lp_Force_Field>  (368) 
OPLS3e

>  <r_lp_Energy>  (368) 
154.902

>  <b_lp_Chiralities_Consistent>  (368) 
1

>  <s_lp_Variant>  (368) 
109:0-1

>  <s_i_glide_gridfile>  (368) 
pfpi4k_grid

>  <i_i_glide_lignum>  (368) 
29

>  <i_i_glide_rotatable_bonds>  (368) 
2

>  <r_i_docking_score>  (368) 
-2.84605

>  <r_i_glide_ligand_efficiency>  (368) 
-0.101645

>  <r_i_glide_ligand_efficiency_sa>  (368) 
-0.308653

>  <r_i_glide_ligand_efficiency_ln>  (368) 
-0.656951

>  <r_i_glide_gscore>  (368) 
-2.84605

>  <r_i_glide_lipo>  (368) 
-0.856111

>  <r_i_glide_hbond>  (368) 
0

>  <r_i_glide_metal>  (368) 
-0

>  <r_i_glide_rewards>  (368) 
-0.821194

>  <r_i_glide_evdw>  (368) 
-22.6172

>  <r_i_glide_ecoul>  (368) 
-0.668862

>  <r_i_glide_erotb>  (368) 
0.1346

>  <r_i_glide_esite>  (368) 
-0.0721545

>  <r_i_glide_emodel>  (368) 
-26.6612

>  <r_i_glide_energy>  (368) 
-23.286

>  <r_i_glide_einternal>  (368) 
0.877424

>  <r_i_glide_intrahb_reward>  (368) 
-0

>  <i_i_glide_confnum>  (368) 
1

>  <i_i_glide_posenum>  (368) 
22

>  <r_i_glide_eff_state_penalty>  (368) 
0

>  <ligand_id>  (368) 
109

>  <original_smiles>  (368) 
CC(=O)C1CCC2C3=C(n4ccnc4)C4(C)CCC5C(CCC1C5(C)CC3)C24

>  <smiles>  (368) 
[H]c1c([H])[n+]([H])c([H])n1C1=C2C([H])([H])C([H])([H])C3(C([H])([H])[H])C4([H])C([H])([H])C([H])([H])C5([H])C([H])(C2([H])C([H])([H])C([H])([H])C4([H])C(=O)C([H])([H])[H])C1(C([H])([H])[H])C([H])([H])C([H])([H])C53[H]

$$$$
109:2:0
     RDKit          3D

 62 67  0  0  1  0  0  0  0  0999 V2000
    1.0178   -8.5830    3.3113 C   0  0  0  0  0  0  0  0  0  0  0  0
    0.8540   -7.0866    3.0743 C   0  0  0  0  0  0  0  0  0  0  0  0
   -0.1234   -6.6518    2.4575 O   0  0  0  0  0  0  0  0  0  0  0  0
    1.9215   -6.1610    3.6820 C   0  0  2  0  0  0  0  0  0  0  0  0
    1.5120   -4.6225    3.7296 C   0  0  0  0  0  0  0  0  0  0  0  0
    2.5993   -3.4829    3.6843 C   0  0  0  0  0  0  0  0  0  0  0  0
    3.5784   -3.2520    2.4483 C   0  0  2  0  0  0  0  0  0  0  0  0
    3.2542   -3.6211    1.0016 C   0  0  0  0  0  0  0  0  0  0  0  0
    4.2544   -3.1458    0.2276 C   0  0  0  0  0  0  0  0  0  0  0  0
    4.2610   -3.0597   -1.2003 N   0  0  0  0  0  0  0  0  0  0  0  0
    3.0867   -3.0504   -1.9756 C   0  0  0  0  0  0  0  0  0  0  0  0
    3.4829   -2.8780   -3.2853 C   0  0  0  0  0  0  0  0  0  0  0  0
    4.8508   -2.6625   -3.3443 N   0  0  0  0  0  0  0  0  0  0  0  0
    5.2377   -2.7666   -2.0732 C   0  0  0  0  0  0  0  0  0  0  0  0
    5.5528   -3.0268    1.0388 C   0  0  2  0  0  0  0  0  0  0  0  0
    6.0944   -1.5801    1.0155 C   0  0  0  0  0  0  0  0  0  0  0  0
    6.6283   -4.0379    0.5201 C   0  0  0  0  0  0  0  0  0  0  0  0
    6.0595   -5.4812    0.4685 C   0  0  0  0  0  0  0  0  0  0  0  0
    5.4395   -5.9615    1.8096 C   0  0  1  0  0  0  0  0  0  0  0  0
    5.6850   -4.8813    2.9118 C   0  0  2  0  0  0  0  0  0  0  0  0
    5.3914   -5.4063    4.3484 C   0  0  0  0  0  0  0  0  0  0  0  0
    4.4295   -6.6160    4.3640 C   0  0  0  0  0  0  0  0  0  0  0  0
    3.3886   -6.4858    3.2366 C   0  0  0  0  0  0  0  0  0  0  0  0
    3.9949   -6.6701    1.8048 C   0  0  2  0  0  0  0  0  0  0  0  0
    4.2369   -8.1871    1.5483 C   0  0  0  0  0  0  0  0  0  0  0  0
    3.0167   -6.1894    0.6762 C   0  0  0  0  0  0  0  0  0  0  0  0
    2.3488   -4.7888    0.6252 C   0  0  0  0  0  0  0  0  0  0  0  0
    5.1231   -3.4538    2.5128 C   0  0  2  0  0  0  0  0  0  0  0  0
    2.0265   -8.9050    3.0655 H   0  0  0  0  0  0  0  0  0  0  0  0
    0.3153   -9.1487    2.6973 H   0  0  0  0  0  0  0  0  0  0  0  0
    0.8463   -8.8231    4.3608 H   0  0  0  0  0  0  0  0  0  0  0  0
    1.8991   -6.4515    4.7303 H   0  0  0  0  0  0  0  0  0  0  0  0
    0.7180   -4.3692    3.0324 H   0  0  0  0  0  0  0  0  0  0  0  0
    1.0051   -4.4899    4.6849 H   0  0  0  0  0  0  0  0  0  0  0  0
    2.0459   -2.5499    3.8088 H   0  0  0  0  0  0  0  0  0  0  0  0
    3.1903   -3.5370    4.5992 H   0  0  0  0  0  0  0  0  0  0  0  0
    3.5169   -2.1624    2.4107 H   0  0  0  0  0  0  0  0  0  0  0  0
    2.0832   -3.1099   -1.5812 H   0  0  0  0  0  0  0  0  0  0  0  0
    2.8713   -2.8084   -4.1777 H   0  0  0  0  0  0  0  0  0  0  0  0
    6.2596   -2.5286   -1.7923 H   0  0  0  0  0  0  0  0  0  0  0  0
    6.9936   -1.4817    1.6218 H   0  0  0  0  0  0  0  0  0  0  0  0
    5.3658   -0.8653    1.3962 H   0  0  0  0  0  0  0  0  0  0  0  0
    6.3600   -1.2530    0.0121 H   0  0  0  0  0  0  0  0  0  0  0  0
    7.0230   -3.7922   -0.4623 H   0  0  0  0  0  0  0  0  0  0  0  0
    7.5098   -4.0049    1.1717 H   0  0  0  0  0  0  0  0  0  0  0  0
    5.3594   -5.5422   -0.3569 H   0  0  0  0  0  0  0  0  0  0  0  0
    6.8630   -6.1589    0.1865 H   0  0  0  0  0  0  0  0  0  0  0  0
    6.1290   -6.7459    2.1230 H   0  0  0  0  0  0  0  0  0  0  0  0
    6.7630   -4.7626    2.9493 H   0  0  0  0  0  0  0  0  0  0  0  0
    6.3268   -5.7140    4.8216 H   0  0  0  0  0  0  0  0  0  0  0  0
    5.0110   -4.6048    4.9747 H   0  0  0  0  0  0  0  0  0  0  0  0
    5.0137   -7.5230    4.2082 H   0  0  0  0  0  0  0  0  0  0  0  0
    3.9677   -6.7233    5.3448 H   0  0  0  0  0  0  0  0  0  0  0  0
    3.4700   -5.4793    3.0479 H   0  0  0  0  0  0  0  0  0  0  0  0
    3.3108   -8.7629    1.5169 H   0  0  0  0  0  0  0  0  0  0  0  0
    4.8657   -8.6366    2.3209 H   0  0  0  0  0  0  0  0  0  0  0  0
    4.7411   -8.3579    0.5929 H   0  0  0  0  0  0  0  0  0  0  0  0
    3.4792   -6.3673   -0.2883 H   0  0  0  0  0  0  0  0  0  0  0  0
    2.1877   -6.8835    0.6673 H   0  0  0  0  0  0  0  0  0  0  0  0
    1.4437   -4.8027    1.2149 H   0  0  0  0  0  0  0  0  0  0  0  0
    1.9757   -4.7051   -0.3937 H   0  0  0  0  0  0  0  0  0  0  0  0
    5.5309   -2.7463    3.2349 H   0  0  0  0  0  0  0  0  0  0  0  0
  1  2  1  0
  1 29  1  0
  1 30  1  0
  1 31  1  0
  2  3  2  0
  2  4  1  0
  4 23  1  0
  4  5  1  0
  4 32  1  1
  5  6  1  0
  5 33  1  0
  5 34  1  0
  6  7  1  0
  6 35  1  0
  6 36  1  0
  7 28  1  0
  7  8  1  0
  7 37  1  6
  8 27  1  0
  8  9  2  0
  9 10  1  0
  9 15  1  0
 10 14  1  0
 10 11  1  0
 11 12  2  0
 11 38  1  0
 12 13  1  0
 12 39  1  0
 13 14  2  0
 14 40  1  0
 15 28  1  0
 15 16  1  1
 15 17  1  0
 16 41  1  0
 16 42  1  0
 16 43  1  0
 17 18  1  0
 17 44  1  0
 17 45  1  0
 18 19  1  0
 18 46  1  0
 18 47  1  0
 19 24  1  0
 19 20  1  0
 19 48  1  1
 20 21  1  0
 20 28  1  0
 20 49  1  1
 21 22  1  0
 21 50  1  0
 21 51  1  0
 22 23  1  0
 22 52  1  0
 22 53  1  0
 23 24  1  0
 23 54  1  0
 24 25  1  6
 24 26  1  0
 25 55  1  0
 25 56  1  0
 25 57  1  0
 26 27  1  0
 26 58  1  0
 26 59  1  0
 27 60  1  0
 27 61  1  0
 28 62  1  1
M  END
>  <i_m_ct_stereo_status>  (369) 
1

>  <s_m_source_file>  (369) 
/var/tmp/pbs.5076255.sched01/tmpjgl1obm9/123zpz496x9.sdf

>  <i_m_source_file_index>  (369) 
31

>  <i_lp_mmshare_version>  (369) 
48012

>  <i_f3d_flags>  (369) 
0

>  <s_epik_input>  (369) 
W0NIM11DKD1PKVtDQEhdKFtDSDJdW0NIMl0xKVtDSF0yW0NIMl1bQ0gyXVtDQEhdM1tDQEhdKFtDSDJdW0NIMl00KVtDQF0yKFtDSDNdKVtDSDJdW0NIMl1DKFtDQEBIXTFbQ0BASF0zW0NAQF00NVtDSDNdKT1DNW42W2NIXVtjSF1uW2NIXTY=

>  <s_epik_cmdline>  (369) 
J2VwaWtfcHl0aG9uJywgJy1waHQnLCAnMi4wJywgJy1waCcsICc3LjAnLCAnLXRuJywgJzgnLCAnLW1hJywgJzIwMCcsICctaW1hZScsICc8aW5maWxlLm1hZT4nLCAnLW9tYWUnLCAnPG91dGZpbGUubWFlPic=

>  <r_lp_tautomer_probability>  (369) 
1

>  <r_epik_Ionization_Penalty>  (369) 
2.12675

>  <r_epik_Ionization_Penalty_Charging>  (369) 
2.12675

>  <r_epik_Ionization_Penalty_Neutral>  (369) 
2.9654e-11

>  <r_epik_State_Penalty>  (369) 
2.26481

>  <r_epik_Charging_Adjusted_Penalty>  (369) 
4.39156

>  <i_epik_Tot_Q>  (369) 
0

>  <i_epik_Tot_abs_Q>  (369) 
0

>  <s_lp_Force_Field>  (369) 
OPLS3e

>  <r_lp_Energy>  (369) 
150.625

>  <b_lp_Chiralities_Consistent>  (369) 
1

>  <s_lp_Variant>  (369) 
109:0-3

>  <s_i_glide_gridfile>  (369) 
pfpi4k_grid

>  <i_i_glide_lignum>  (369) 
31

>  <i_i_glide_rotatable_bonds>  (369) 
2

>  <r_i_docking_score>  (369) 
-3.70223

>  <r_i_glide_ligand_efficiency>  (369) 
-0.132223

>  <r_i_glide_ligand_efficiency_sa>  (369) 
-0.401506

>  <r_i_glide_ligand_efficiency_ln>  (369) 
-0.854584

>  <r_i_glide_gscore>  (369) 
-3.70223

>  <r_i_glide_lipo>  (369) 
-0.738886

>  <r_i_glide_hbond>  (369) 
-0.16

>  <r_i_glide_metal>  (369) 
-0

>  <r_i_glide_rewards>  (369) 
-0.935803

>  <r_i_glide_evdw>  (369) 
-28.6035

>  <r_i_glide_ecoul>  (369) 
-3.54904

>  <r_i_glide_erotb>  (369) 
0.135243

>  <r_i_glide_esite>  (369) 
-0.0402553

>  <r_i_glide_emodel>  (369) 
-39.0195

>  <r_i_glide_energy>  (369) 
-32.1525

>  <r_i_glide_einternal>  (369) 
0.141281

>  <r_i_glide_intrahb_reward>  (369) 
-0

>  <i_i_glide_confnum>  (369) 
1

>  <i_i_glide_posenum>  (369) 
16

>  <r_i_glide_eff_state_penalty>  (369) 
0

>  <ligand_id>  (369) 
109

>  <original_smiles>  (369) 
CC(=O)C1CCC2C3=C(n4ccnc4)C4(C)CCC5C(CCC1C5(C)CC3)C24

>  <smiles>  (369) 
[H]c1nc([H])n(C2=C3C([H])([H])C([H])([H])C4(C([H])([H])[H])C5([H])C([H])([H])C([H])([H])C6([H])C([H])(C3([H])C([H])([H])C([H])([H])C5([H])C(=O)C([H])([H])[H])C2(C([H])([H])[H])C([H])([H])C([H])([H])C64[H])c1[H]

$$$$
109:2:1
     RDKit          3D

 62 67  0  0  1  0  0  0  0  0999 V2000
    2.0605   -8.5722    3.3852 C   0  0  0  0  0  0  0  0  0  0  0  0
    1.5134   -7.2056    2.9850 C   0  0  0  0  0  0  0  0  0  0  0  0
    0.4718   -7.1030    2.3329 O   0  0  0  0  0  0  0  0  0  0  0  0
    2.2860   -5.9746    3.4790 C   0  0  2  0  0  0  0  0  0  0  0  0
    1.4722   -4.6136    3.3776 C   0  0  0  0  0  0  0  0  0  0  0  0
    2.2034   -3.2301    3.1857 C   0  0  0  0  0  0  0  0  0  0  0  0
    3.0850   -2.8701    1.9080 C   0  0  2  0  0  0  0  0  0  0  0  0
    2.8791   -3.4566    0.5172 C   0  0  0  0  0  0  0  0  0  0  0  0
    3.7233   -2.8147   -0.3229 C   0  0  0  0  0  0  0  0  0  0  0  0
    3.7092   -2.8720   -1.7523 N   0  0  0  0  0  0  0  0  0  0  0  0
    2.5526   -3.1780   -2.4858 C   0  0  0  0  0  0  0  0  0  0  0  0
    2.8912   -3.0772   -3.8130 C   0  0  0  0  0  0  0  0  0  0  0  0
    4.1914   -2.6009   -3.9331 N   0  0  0  0  0  0  0  0  0  0  0  0
    4.5990   -2.4737   -2.6747 C   0  0  0  0  0  0  0  0  0  0  0  0
    4.9382   -2.2651    0.4378 C   0  0  2  0  0  0  0  0  0  0  0  0
    5.0611   -0.7398    0.2527 C   0  0  0  0  0  0  0  0  0  0  0  0
    6.2513   -2.9912   -0.0057 C   0  0  0  0  0  0  0  0  0  0  0  0
    6.0920   -4.5344    0.0973 C   0  0  0  0  0  0  0  0  0  0  0  0
    5.6192   -5.0179    1.5014 C   0  0  1  0  0  0  0  0  0  0  0  0
    5.5485   -3.8031    2.4827 C   0  0  2  0  0  0  0  0  0  0  0  0
    5.3861   -4.2420    3.9735 C   0  0  0  0  0  0  0  0  0  0  0  0
    4.8093   -5.6598    4.1352 C   0  0  0  0  0  0  0  0  0  0  0  0
    3.7831   -5.9329    3.0294 C   0  0  0  0  0  0  0  0  0  0  0  0
    4.4247   -6.0910    1.6122 C   0  0  2  0  0  0  0  0  0  0  0  0
    5.0660   -7.5043    1.5134 C   0  0  0  0  0  0  0  0  0  0  0  0
    3.3549   -6.0215    0.4734 C   0  0  0  0  0  0  0  0  0  0  0  0
    2.3292   -4.8624    0.2845 C   0  0  0  0  0  0  0  0  0  0  0  0
    4.6258   -2.6342    1.9561 C   0  0  2  0  0  0  0  0  0  0  0  0
    3.1225   -8.6435    3.1676 H   0  0  0  0  0  0  0  0  0  0  0  0
    1.5466   -9.3723    2.8515 H   0  0  0  0  0  0  0  0  0  0  0  0
    1.9459   -8.7295    4.4569 H   0  0  0  0  0  0  0  0  0  0  0  0
    2.3371   -6.1543    4.5504 H   0  0  0  0  0  0  0  0  0  0  0  0
    0.6468   -4.6685    2.6763 H   0  0  0  0  0  0  0  0  0  0  0  0
    0.9424   -4.5253    4.3245 H   0  0  0  0  0  0  0  0  0  0  0  0
    1.4117   -2.4789    3.2279 H   0  0  0  0  0  0  0  0  0  0  0  0
    2.7798   -3.0236    4.0873 H   0  0  0  0  0  0  0  0  0  0  0  0
    2.7263   -1.8527    1.7614 H   0  0  0  0  0  0  0  0  0  0  0  0
    1.5960   -3.4290   -2.0516 H   0  0  0  0  0  0  0  0  0  0  0  0
    2.2696   -3.2598   -4.6871 H   0  0  0  0  0  0  0  0  0  0  0  0
    5.5467   -2.0022   -2.4595 H   0  0  0  0  0  0  0  0  0  0  0  0
    5.8997   -0.3351    0.8182 H   0  0  0  0  0  0  0  0  0  0  0  0
    4.1634   -0.2129    0.5728 H   0  0  0  0  0  0  0  0  0  0  0  0
    5.2246   -0.4716   -0.7904 H   0  0  0  0  0  0  0  0  0  0  0  0
    6.5902   -2.7469   -0.9995 H   0  0  0  0  0  0  0  0  0  0  0  0
    7.0810   -2.6591    0.6314 H   0  0  0  0  0  0  0  0  0  0  0  0
    5.4405   -4.8687   -0.7031 H   0  0  0  0  0  0  0  0  0  0  0  0
    7.0535   -4.9918   -0.1193 H   0  0  0  0  0  0  0  0  0  0  0  0
    6.4936   -5.5485    1.8758 H   0  0  0  0  0  0  0  0  0  0  0  0
    6.5438   -3.3735    2.4886 H   0  0  0  0  0  0  0  0  0  0  0  0
    6.3481   -4.2575    4.4813 H   0  0  0  0  0  0  0  0  0  0  0  0
    4.8028   -3.5103    4.5212 H   0  0  0  0  0  0  0  0  0  0  0  0
    5.6260   -6.3780    4.0549 H   0  0  0  0  0  0  0  0  0  0  0  0
    4.3948   -5.7903    5.1319 H   0  0  0  0  0  0  0  0  0  0  0  0
    3.5860   -4.9701    2.7304 H   0  0  0  0  0  0  0  0  0  0  0  0
    4.3327   -8.3095    1.5699 H   0  0  0  0  0  0  0  0  0  0  0  0
    5.7981   -7.6834    2.3025 H   0  0  0  0  0  0  0  0  0  0  0  0
    5.5861   -7.6369    0.5639 H   0  0  0  0  0  0  0  0  0  0  0  0
    3.8635   -6.1773   -0.4702 H   0  0  0  0  0  0  0  0  0  0  0  0
    2.7535   -6.9170    0.5494 H   0  0  0  0  0  0  0  0  0  0  0  0
    1.4350   -5.0700    0.8583 H   0  0  0  0  0  0  0  0  0  0  0  0
    1.9678   -4.9712   -0.7329 H   0  0  0  0  0  0  0  0  0  0  0  0
    4.8213   -1.7720    2.5927 H   0  0  0  0  0  0  0  0  0  0  0  0
  1  2  1  0
  1 29  1  0
  1 30  1  0
  1 31  1  0
  2  3  2  0
  2  4  1  0
  4 23  1  0
  4  5  1  0
  4 32  1  1
  5  6  1  0
  5 33  1  0
  5 34  1  0
  6  7  1  0
  6 35  1  0
  6 36  1  0
  7 28  1  0
  7  8  1  0
  7 37  1  6
  8 27  1  0
  8  9  2  0
  9 10  1  0
  9 15  1  0
 10 14  1  0
 10 11  1  0
 11 12  2  0
 11 38  1  0
 12 13  1  0
 12 39  1  0
 13 14  2  0
 14 40  1  0
 15 28  1  0
 15 16  1  1
 15 17  1  0
 16 41  1  0
 16 42  1  0
 16 43  1  0
 17 18  1  0
 17 44  1  0
 17 45  1  0
 18 19  1  0
 18 46  1  0
 18 47  1  0
 19 24  1  0
 19 20  1  0
 19 48  1  1
 20 21  1  0
 20 28  1  0
 20 49  1  1
 21 22  1  0
 21 50  1  0
 21 51  1  0
 22 23  1  0
 22 52  1  0
 22 53  1  0
 23 24  1  0
 23 54  1  0
 24 25  1  1
 24 26  1  0
 25 55  1  0
 25 56  1  0
 25 57  1  0
 26 27  1  0
 26 58  1  0
 26 59  1  0
 27 60  1  0
 27 61  1  0
 28 62  1  1
M  END
>  <i_m_ct_stereo_status>  (370) 
1

>  <s_m_source_file>  (370) 
/var/tmp/pbs.5076255.sched01/tmpjgl1obm9/123zpz496x9.sdf

>  <i_m_source_file_index>  (370) 
31

>  <i_lp_mmshare_version>  (370) 
48012

>  <i_f3d_flags>  (370) 
0

>  <s_epik_input>  (370) 
W0NIM11DKD1PKVtDQEhdKFtDSDJdW0NIMl0xKVtDSF0yW0NIMl1bQ0gyXVtDQEhdM1tDQEhdKFtDSDJdW0NIMl00KVtDQF0yKFtDSDNdKVtDSDJdW0NIMl1DKFtDQEBIXTFbQ0BASF0zW0NAQF00NVtDSDNdKT1DNW42W2NIXVtjSF1uW2NIXTY=

>  <s_epik_cmdline>  (370) 
J2VwaWtfcHl0aG9uJywgJy1waHQnLCAnMi4wJywgJy1waCcsICc3LjAnLCAnLXRuJywgJzgnLCAnLW1hJywgJzIwMCcsICctaW1hZScsICc8aW5maWxlLm1hZT4nLCAnLW9tYWUnLCAnPG91dGZpbGUubWFlPic=

>  <r_lp_tautomer_probability>  (370) 
1

>  <r_epik_Ionization_Penalty>  (370) 
2.12675

>  <r_epik_Ionization_Penalty_Charging>  (370) 
2.12675

>  <r_epik_Ionization_Penalty_Neutral>  (370) 
2.9654e-11

>  <r_epik_State_Penalty>  (370) 
2.26481

>  <r_epik_Charging_Adjusted_Penalty>  (370) 
4.39156

>  <i_epik_Tot_Q>  (370) 
0

>  <i_epik_Tot_abs_Q>  (370) 
0

>  <s_lp_Force_Field>  (370) 
OPLS3e

>  <r_lp_Energy>  (370) 
150.625

>  <b_lp_Chiralities_Consistent>  (370) 
1

>  <s_lp_Variant>  (370) 
109:0-3

>  <s_i_glide_gridfile>  (370) 
pfpi4k_grid

>  <i_i_glide_lignum>  (370) 
31

>  <i_i_glide_rotatable_bonds>  (370) 
2

>  <r_i_docking_score>  (370) 
-3.64424

>  <r_i_glide_ligand_efficiency>  (370) 
-0.130152

>  <r_i_glide_ligand_efficiency_sa>  (370) 
-0.395217

>  <r_i_glide_ligand_efficiency_ln>  (370) 
-0.841198

>  <r_i_glide_gscore>  (370) 
-3.64424

>  <r_i_glide_lipo>  (370) 
-0.71124

>  <r_i_glide_hbond>  (370) 
-0.171659

>  <r_i_glide_metal>  (370) 
-0

>  <r_i_glide_rewards>  (370) 
-1.00842

>  <r_i_glide_evdw>  (370) 
-27.7438

>  <r_i_glide_ecoul>  (370) 
-3.10133

>  <r_i_glide_erotb>  (370) 
0.135243

>  <r_i_glide_esite>  (370) 
-0.0357749

>  <r_i_glide_emodel>  (370) 
-37.4293

>  <r_i_glide_energy>  (370) 
-30.8451

>  <r_i_glide_einternal>  (370) 
0.481712

>  <r_i_glide_intrahb_reward>  (370) 
-0

>  <i_i_glide_confnum>  (370) 
1

>  <i_i_glide_posenum>  (370) 
23

>  <r_i_glide_eff_state_penalty>  (370) 
0

>  <ligand_id>  (370) 
109

>  <original_smiles>  (370) 
CC(=O)C1CCC2C3=C(n4ccnc4)C4(C)CCC5C(CCC1C5(C)CC3)C24

>  <smiles>  (370) 
[H]c1nc([H])n(C2=C3C([H])([H])C([H])([H])C4(C([H])([H])[H])C5([H])C([H])([H])C([H])([H])C6([H])C([H])(C3([H])C([H])([H])C([H])([H])C5([H])C(=O)C([H])([H])[H])C2(C([H])([H])[H])C([H])([H])C([H])([H])C64[H])c1[H]

$$$$
109:2:2
     RDKit          3D

 62 67  0  0  1  0  0  0  0  0999 V2000
    3.4102   -8.8399    2.5660 C   0  0  0  0  0  0  0  0  0  0  0  0
    2.4906   -7.6546    2.2823 C   0  0  0  0  0  0  0  0  0  0  0  0
    1.5467   -7.7572    1.4985 O   0  0  0  0  0  0  0  0  0  0  0  0
    2.7631   -6.3546    3.0542 C   0  0  2  0  0  0  0  0  0  0  0  0
    1.5623   -5.3102    3.0089 C   0  0  0  0  0  0  0  0  0  0  0  0
    1.8204   -3.7613    3.1326 C   0  0  0  0  0  0  0  0  0  0  0  0
    2.6701   -2.9323    2.0777 C   0  0  2  0  0  0  0  0  0  0  0  0
    2.8336   -3.3026    0.5969 C   0  0  0  0  0  0  0  0  0  0  0  0
    3.4870   -2.2968   -0.0172 C   0  0  0  0  0  0  0  0  0  0  0  0
    3.6771   -2.0698   -1.4283 N   0  0  0  0  0  0  0  0  0  0  0  0
    2.9164   -2.7409   -2.4124 C   0  0  0  0  0  0  0  0  0  0  0  0
    3.3053   -2.2142   -3.6257 C   0  0  0  0  0  0  0  0  0  0  0  0
    4.2197   -1.1682   -3.4213 N   0  0  0  0  0  0  0  0  0  0  0  0
    4.3692   -1.1409   -2.1034 C   0  0  0  0  0  0  0  0  0  0  0  0
    4.3546   -1.5423    1.0065 C   0  0  2  0  0  0  0  0  0  0  0  0
    4.0044   -0.0380    1.0858 C   0  0  0  0  0  0  0  0  0  0  0  0
    5.8744   -1.7465    0.6817 C   0  0  0  0  0  0  0  0  0  0  0  0
    6.2362   -3.2528    0.5530 C   0  0  0  0  0  0  0  0  0  0  0  0
    5.7941   -4.0944    1.7863 C   0  0  1  0  0  0  0  0  0  0  0  0
    5.2276   -3.1498    2.9026 C   0  0  2  0  0  0  0  0  0  0  0  0
    5.0670   -3.8718    4.2756 C   0  0  0  0  0  0  0  0  0  0  0  0
    4.9577   -5.4092    4.1474 C   0  0  0  0  0  0  0  0  0  0  0  0
    4.2063   -5.7797    2.8596 C   0  0  0  0  0  0  0  0  0  0  0  0
    5.0081   -5.4770    1.5524 C   0  0  2  0  0  0  0  0  0  0  0  0
    6.0940   -6.5842    1.3647 C   0  0  0  0  0  0  0  0  0  0  0  0
    4.1064   -5.5380    0.2702 C   0  0  0  0  0  0  0  0  0  0  0  0
    2.7684   -4.7458    0.0967 C   0  0  0  0  0  0  0  0  0  0  0  0
    4.0325   -2.2486    2.3987 C   0  0  2  0  0  0  0  0  0  0  0  0
    4.4523   -8.5402    2.5103 H   0  0  0  0  0  0  0  0  0  0  0  0
    3.2421   -9.6444    1.8476 H   0  0  0  0  0  0  0  0  0  0  0  0
    3.2368   -9.2212    3.5725 H   0  0  0  0  0  0  0  0  0  0  0  0
    2.7475   -6.7010    4.0857 H   0  0  0  0  0  0  0  0  0  0  0  0
    0.8769   -5.4867    2.1852 H   0  0  0  0  0  0  0  0  0  0  0  0
    0.9267   -5.5651    3.8566 H   0  0  0  0  0  0  0  0  0  0  0  0
    0.8288   -3.3013    3.1427 H   0  0  0  0  0  0  0  0  0  0  0  0
    2.1915   -3.5573    4.1337 H   0  0  0  0  0  0  0  0  0  0  0  0
    2.0167   -2.0528    2.0009 H   0  0  0  0  0  0  0  0  0  0  0  0
    2.1376   -3.4651   -2.2420 H   0  0  0  0  0  0  0  0  0  0  0  0
    2.9573   -2.4557   -4.6228 H   0  0  0  0  0  0  0  0  0  0  0  0
    4.9171   -0.3416   -1.6652 H   0  0  0  0  0  0  0  0  0  0  0  0
    4.5857    0.4655    1.8611 H   0  0  0  0  0  0  0  0  0  0  0  0
    2.9488    0.1179    1.3165 H   0  0  0  0  0  0  0  0  0  0  0  0
    4.2201    0.4968    0.1635 H   0  0  0  0  0  0  0  0  0  0  0  0
    6.1822   -1.2471   -0.2329 H   0  0  0  0  0  0  0  0  0  0  0  0
    6.4955   -1.2665    1.4501 H   0  0  0  0  0  0  0  0  0  0  0  0
    5.8280   -3.6258   -0.3826 H   0  0  0  0  0  0  0  0  0  0  0  0
    7.3158   -3.3389    0.4204 H   0  0  0  0  0  0  0  0  0  0  0  0
    6.7480   -4.3897    2.2201 H   0  0  0  0  0  0  0  0  0  0  0  0
    6.0127   -2.4276    3.1356 H   0  0  0  0  0  0  0  0  0  0  0  0
    5.9252   -3.6499    4.9117 H   0  0  0  0  0  0  0  0  0  0  0  0
    4.2063   -3.4785    4.8124 H   0  0  0  0  0  0  0  0  0  0  0  0
    5.9602   -5.8315    4.1110 H   0  0  0  0  0  0  0  0  0  0  0  0
    4.4816   -5.8245    5.0365 H   0  0  0  0  0  0  0  0  0  0  0  0
    3.7397   -4.8867    2.6724 H   0  0  0  0  0  0  0  0  0  0  0  0
    5.6589   -7.5694    1.1819 H   0  0  0  0  0  0  0  0  0  0  0  0
    6.7438   -6.6780    2.2461 H   0  0  0  0  0  0  0  0  0  0  0  0
    6.7466   -6.3611    0.5127 H   0  0  0  0  0  0  0  0  0  0  0  0
    4.7218   -5.3518   -0.5990 H   0  0  0  0  0  0  0  0  0  0  0  0
    3.8444   -6.5732    0.1249 H   0  0  0  0  0  0  0  0  0  0  0  0
    1.9385   -5.3056    0.5168 H   0  0  0  0  0  0  0  0  0  0  0  0
    2.5602   -4.7706   -0.9470 H   0  0  0  0  0  0  0  0  0  0  0  0
    3.8648   -1.4966    3.1681 H   0  0  0  0  0  0  0  0  0  0  0  0
  1  2  1  0
  1 29  1  0
  1 30  1  0
  1 31  1  0
  2  3  2  0
  2  4  1  0
  4 23  1  0
  4  5  1  0
  4 32  1  1
  5  6  1  0
  5 33  1  0
  5 34  1  0
  6  7  1  0
  6 35  1  0
  6 36  1  0
  7 28  1  0
  7  8  1  0
  7 37  1  6
  8 27  1  0
  8  9  2  0
  9 10  1  0
  9 15  1  0
 10 14  1  0
 10 11  1  0
 11 12  2  0
 11 38  1  0
 12 13  1  0
 12 39  1  0
 13 14  2  0
 14 40  1  0
 15 28  1  0
 15 16  1  1
 15 17  1  0
 16 41  1  0
 16 42  1  0
 16 43  1  0
 17 18  1  0
 17 44  1  0
 17 45  1  0
 18 19  1  0
 18 46  1  0
 18 47  1  0
 19 24  1  0
 19 20  1  0
 19 48  1  1
 20 21  1  0
 20 28  1  0
 20 49  1  1
 21 22  1  0
 21 50  1  0
 21 51  1  0
 22 23  1  0
 22 52  1  0
 22 53  1  0
 23 24  1  0
 23 54  1  0
 24 25  1  6
 24 26  1  0
 25 55  1  0
 25 56  1  0
 25 57  1  0
 26 27  1  0
 26 58  1  0
 26 59  1  0
 27 60  1  0
 27 61  1  0
 28 62  1  1
M  END
>  <i_m_ct_stereo_status>  (371) 
1

>  <s_m_source_file>  (371) 
/var/tmp/pbs.5076255.sched01/tmpjgl1obm9/123zpz496x9.sdf

>  <i_m_source_file_index>  (371) 
31

>  <i_lp_mmshare_version>  (371) 
48012

>  <i_f3d_flags>  (371) 
0

>  <s_epik_input>  (371) 
W0NIM11DKD1PKVtDQEhdKFtDSDJdW0NIMl0xKVtDSF0yW0NIMl1bQ0gyXVtDQEhdM1tDQEhdKFtDSDJdW0NIMl00KVtDQF0yKFtDSDNdKVtDSDJdW0NIMl1DKFtDQEBIXTFbQ0BASF0zW0NAQF00NVtDSDNdKT1DNW42W2NIXVtjSF1uW2NIXTY=

>  <s_epik_cmdline>  (371) 
J2VwaWtfcHl0aG9uJywgJy1waHQnLCAnMi4wJywgJy1waCcsICc3LjAnLCAnLXRuJywgJzgnLCAnLW1hJywgJzIwMCcsICctaW1hZScsICc8aW5maWxlLm1hZT4nLCAnLW9tYWUnLCAnPG91dGZpbGUubWFlPic=

>  <r_lp_tautomer_probability>  (371) 
1

>  <r_epik_Ionization_Penalty>  (371) 
2.12675

>  <r_epik_Ionization_Penalty_Charging>  (371) 
2.12675

>  <r_epik_Ionization_Penalty_Neutral>  (371) 
2.9654e-11

>  <r_epik_State_Penalty>  (371) 
2.26481

>  <r_epik_Charging_Adjusted_Penalty>  (371) 
4.39156

>  <i_epik_Tot_Q>  (371) 
0

>  <i_epik_Tot_abs_Q>  (371) 
0

>  <s_lp_Force_Field>  (371) 
OPLS3e

>  <r_lp_Energy>  (371) 
150.625

>  <b_lp_Chiralities_Consistent>  (371) 
1

>  <s_lp_Variant>  (371) 
109:0-3

>  <s_i_glide_gridfile>  (371) 
pfpi4k_grid

>  <i_i_glide_lignum>  (371) 
31

>  <i_i_glide_rotatable_bonds>  (371) 
2

>  <r_i_docking_score>  (371) 
-3.36974

>  <r_i_glide_ligand_efficiency>  (371) 
-0.120348

>  <r_i_glide_ligand_efficiency_sa>  (371) 
-0.365447

>  <r_i_glide_ligand_efficiency_ln>  (371) 
-0.777835

>  <r_i_glide_gscore>  (371) 
-3.36974

>  <r_i_glide_lipo>  (371) 
-0.769228

>  <r_i_glide_hbond>  (371) 
0

>  <r_i_glide_metal>  (371) 
-0

>  <r_i_glide_rewards>  (371) 
-0.828066

>  <r_i_glide_evdw>  (371) 
-31.6467

>  <r_i_glide_ecoul>  (371) 
-1.50028

>  <r_i_glide_erotb>  (371) 
0.135243

>  <r_i_glide_esite>  (371) 
-0.100313

>  <r_i_glide_emodel>  (371) 
-39.1288

>  <r_i_glide_energy>  (371) 
-33.147

>  <r_i_glide_einternal>  (371) 
0.0514454

>  <r_i_glide_intrahb_reward>  (371) 
-0

>  <i_i_glide_confnum>  (371) 
1

>  <i_i_glide_posenum>  (371) 
30

>  <r_i_glide_eff_state_penalty>  (371) 
0

>  <ligand_id>  (371) 
109

>  <original_smiles>  (371) 
CC(=O)C1CCC2C3=C(n4ccnc4)C4(C)CCC5C(CCC1C5(C)CC3)C24

>  <smiles>  (371) 
[H]c1nc([H])n(C2=C3C([H])([H])C([H])([H])C4(C([H])([H])[H])C5([H])C([H])([H])C([H])([H])C6([H])C([H])(C3([H])C([H])([H])C([H])([H])C5([H])C(=O)C([H])([H])[H])C2(C([H])([H])[H])C([H])([H])C([H])([H])C64[H])c1[H]

$$$$
109:3:0
     RDKit          3D

 62 67  0  0  1  0  0  0  0  0999 V2000
    1.6810   -8.2699    2.5579 C   0  0  0  0  0  0  0  0  0  0  0  0
    1.3804   -6.7796    2.7218 C   0  0  0  0  0  0  0  0  0  0  0  0
    0.3044   -6.3226    2.3283 O   0  0  0  0  0  0  0  0  0  0  0  0
    2.4165   -5.9102    3.4784 C   0  0  2  0  0  0  0  0  0  0  0  0
    1.9172   -4.5418    4.0008 C   0  0  0  0  0  0  0  0  0  0  0  0
    1.8090   -3.2864    3.1158 C   0  0  0  0  0  0  0  0  0  0  0  0
    2.8779   -2.7968    2.0966 C   0  0  2  0  0  0  0  0  0  0  0  0
    2.8678   -3.2488    0.6547 C   0  0  0  0  0  0  0  0  0  0  0  0
    3.6874   -2.4493   -0.0565 C   0  0  0  0  0  0  0  0  0  0  0  0
    3.8555   -2.4035   -1.4865 N   0  0  0  0  0  0  0  0  0  0  0  0
    2.9484   -3.0130   -2.3697 C   0  0  0  0  0  0  0  0  0  0  0  0
    3.3719   -2.6773   -3.6423 C   0  0  0  0  0  0  0  0  0  0  0  0
    4.4539   -1.8056   -3.5669 N   0  0  0  0  0  0  0  0  0  0  0  0
    4.6734   -1.6900   -2.2624 C   0  0  0  0  0  0  0  0  0  0  0  0
    4.7095   -1.8025    0.8922 C   0  0  2  0  0  0  0  0  0  0  0  0
    4.6465   -0.2591    0.8492 C   0  0  0  0  0  0  0  0  0  0  0  0
    6.1428   -2.3232    0.5582 C   0  0  0  0  0  0  0  0  0  0  0  0
    6.1775   -3.8740    0.5384 C   0  0  0  0  0  0  0  0  0  0  0  0
    5.6100   -4.5094    1.8396 C   0  0  1  0  0  0  0  0  0  0  0  0
    5.2615   -3.4304    2.8788 C   0  0  2  0  0  0  0  0  0  0  0  0
    5.0454   -4.0013    4.2909 C   0  0  0  0  0  0  0  0  0  0  0  0
    4.8087   -5.5276    4.3054 C   0  0  0  0  0  0  0  0  0  0  0  0
    3.9392   -6.0611    3.1388 C   0  0  2  0  0  0  0  0  0  0  0  0
    4.5823   -5.7137    1.7286 C   0  0  2  0  0  0  0  0  0  0  0  0
    5.4921   -6.9376    1.3906 C   0  0  0  0  0  0  0  0  0  0  0  0
    3.5841   -5.6813    0.5147 C   0  0  0  0  0  0  0  0  0  0  0  0
    2.4388   -4.6569    0.3410 C   0  0  0  0  0  0  0  0  0  0  0  0
    4.3055   -2.3237    2.3501 C   0  0  2  0  0  0  0  0  0  0  0  0
    2.6108   -8.4553    2.0156 H   0  0  0  0  0  0  0  0  0  0  0  0
    0.8692   -8.7668    2.0227 H   0  0  0  0  0  0  0  0  0  0  0  0
    1.7611   -8.7246    3.5453 H   0  0  0  0  0  0  0  0  0  0  0  0
    2.3707   -6.4772    4.4079 H   0  0  0  0  0  0  0  0  0  0  0  0
    0.9067   -4.7115    4.3732 H   0  0  0  0  0  0  0  0  0  0  0  0
    2.4403   -4.2946    4.9145 H   0  0  0  0  0  0  0  0  0  0  0  0
    0.8885   -3.3789    2.5547 H   0  0  0  0  0  0  0  0  0  0  0  0
    1.5967   -2.4545    3.7913 H   0  0  0  0  0  0  0  0  0  0  0  0
    2.4071   -1.8219    1.9497 H   0  0  0  0  0  0  0  0  0  0  0  0
    2.0596   -3.5782   -2.1398 H   0  0  0  0  0  0  0  0  0  0  0  0
    2.9388   -2.9557   -4.5991 H   0  0  0  0  0  0  0  0  0  0  0  0
    5.3949   -0.9752   -1.9149 H   0  0  0  0  0  0  0  0  0  0  0  0
    5.3617    0.1696    1.5491 H   0  0  0  0  0  0  0  0  0  0  0  0
    3.6526    0.1173    1.0894 H   0  0  0  0  0  0  0  0  0  0  0  0
    4.8944    0.1419   -0.1298 H   0  0  0  0  0  0  0  0  0  0  0  0
    6.5181   -1.9658   -0.3948 H   0  0  0  0  0  0  0  0  0  0  0  0
    6.8672   -1.9298    1.2789 H   0  0  0  0  0  0  0  0  0  0  0  0
    5.6781   -4.2333   -0.3580 H   0  0  0  0  0  0  0  0  0  0  0  0
    7.2093   -4.1924    0.3986 H   0  0  0  0  0  0  0  0  0  0  0  0
    6.5116   -4.9342    2.2856 H   0  0  0  0  0  0  0  0  0  0  0  0
    6.1782   -2.8741    3.0281 H   0  0  0  0  0  0  0  0  0  0  0  0
    5.9444   -3.8129    4.8884 H   0  0  0  0  0  0  0  0  0  0  0  0
    4.2752   -3.4362    4.8032 H   0  0  0  0  0  0  0  0  0  0  0  0
    5.7839   -6.0130    4.2455 H   0  0  0  0  0  0  0  0  0  0  0  0
    4.3970   -5.8300    5.2703 H   0  0  0  0  0  0  0  0  0  0  0  0
    4.0593   -7.1403    3.2407 H   0  0  0  0  0  0  0  0  0  0  0  0
    4.9208   -7.8597    1.2478 H   0  0  0  0  0  0  0  0  0  0  0  0
    6.2195   -7.1457    2.1816 H   0  0  0  0  0  0  0  0  0  0  0  0
    6.0626   -6.7641    0.4802 H   0  0  0  0  0  0  0  0  0  0  0  0
    4.1633   -5.6686   -0.4048 H   0  0  0  0  0  0  0  0  0  0  0  0
    3.1088   -6.6513    0.4811 H   0  0  0  0  0  0  0  0  0  0  0  0
    1.6234   -4.8650    1.0108 H   0  0  0  0  0  0  0  0  0  0  0  0
    2.0248   -4.8205   -0.6466 H   0  0  0  0  0  0  0  0  0  0  0  0
    4.3034   -1.4977    3.0685 H   0  0  0  0  0  0  0  0  0  0  0  0
  1  2  1  0
  1 29  1  0
  1 30  1  0
  1 31  1  0
  2  3  2  0
  2  4  1  0
  4 23  1  0
  4  5  1  0
  4 32  1  1
  5  6  1  0
  5 33  1  0
  5 34  1  0
  6  7  1  0
  6 35  1  0
  6 36  1  0
  7 28  1  0
  7  8  1  0
  7 37  1  6
  8 27  1  0
  8  9  2  0
  9 10  1  0
  9 15  1  0
 10 14  1  0
 10 11  1  0
 11 12  2  0
 11 38  1  0
 12 13  1  0
 12 39  1  0
 13 14  2  0
 14 40  1  0
 15 28  1  0
 15 16  1  1
 15 17  1  0
 16 41  1  0
 16 42  1  0
 16 43  1  0
 17 18  1  0
 17 44  1  0
 17 45  1  0
 18 19  1  0
 18 46  1  0
 18 47  1  0
 19 24  1  0
 19 20  1  0
 19 48  1  1
 20 21  1  0
 20 28  1  0
 20 49  1  1
 21 22  1  0
 21 50  1  0
 21 51  1  0
 22 23  1  0
 22 52  1  0
 22 53  1  0
 23 24  1  0
 23 54  1  1
 24 25  1  6
 24 26  1  0
 25 55  1  0
 25 56  1  0
 25 57  1  0
 26 27  1  0
 26 58  1  0
 26 59  1  0
 27 60  1  0
 27 61  1  0
 28 62  1  1
M  END
>  <i_m_ct_stereo_status>  (372) 
1

>  <s_m_source_file>  (372) 
/var/tmp/pbs.5076255.sched01/tmpjgl1obm9/123zpz496x9.sdf

>  <i_m_source_file_index>  (372) 
32

>  <i_lp_mmshare_version>  (372) 
48012

>  <i_f3d_flags>  (372) 
0

>  <s_epik_input>  (372) 
W0NIM11DKD1PKVtDQEhdKFtDSDJdW0NIMl0xKVtDSF0yW0NIMl1bQ0gyXVtDQEhdM1tDQEhdKFtDSDJdW0NIMl00KVtDQF0yKFtDSDNdKVtDSDJdW0NIMl1DKFtDQEBIXTFbQ0BASF0zW0NAQF00NVtDSDNdKT1DNW42W2NIXVtjSF1uW2NIXTY=

>  <s_epik_cmdline>  (372) 
J2VwaWtfcHl0aG9uJywgJy1waHQnLCAnMi4wJywgJy1waCcsICc3LjAnLCAnLXRuJywgJzgnLCAnLW1hJywgJzIwMCcsICctaW1hZScsICc8aW5maWxlLm1hZT4nLCAnLW9tYWUnLCAnPG91dGZpbGUubWFlPic=

>  <r_lp_tautomer_probability>  (372) 
1

>  <r_epik_Ionization_Penalty>  (372) 
2.12675

>  <r_epik_Ionization_Penalty_Charging>  (372) 
2.12675

>  <r_epik_Ionization_Penalty_Neutral>  (372) 
2.9654e-11

>  <r_epik_State_Penalty>  (372) 
2.26481

>  <r_epik_Charging_Adjusted_Penalty>  (372) 
4.39156

>  <i_epik_Tot_Q>  (372) 
0

>  <i_epik_Tot_abs_Q>  (372) 
0

>  <s_lp_Force_Field>  (372) 
OPLS3e

>  <r_lp_Energy>  (372) 
123.128

>  <b_lp_Chiralities_Consistent>  (372) 
1

>  <s_lp_Variant>  (372) 
109:0-4

>  <s_i_glide_gridfile>  (372) 
pfpi4k_grid

>  <i_i_glide_lignum>  (372) 
32

>  <i_i_glide_rotatable_bonds>  (372) 
2

>  <r_i_docking_score>  (372) 
-3.82032

>  <r_i_glide_ligand_efficiency>  (372) 
-0.13644

>  <r_i_glide_ligand_efficiency_sa>  (372) 
-0.414312

>  <r_i_glide_ligand_efficiency_ln>  (372) 
-0.881842

>  <r_i_glide_gscore>  (372) 
-3.82032

>  <r_i_glide_lipo>  (372) 
-0.798541

>  <r_i_glide_hbond>  (372) 
-0.147715

>  <r_i_glide_metal>  (372) 
-0

>  <r_i_glide_rewards>  (372) 
-0.828066

>  <r_i_glide_evdw>  (372) 
-29.6026

>  <r_i_glide_ecoul>  (372) 
-4.1201

>  <r_i_glide_erotb>  (372) 
0.135243

>  <r_i_glide_esite>  (372) 
-0.083099

>  <r_i_glide_emodel>  (372) 
-41.2605

>  <r_i_glide_energy>  (372) 
-33.7227

>  <r_i_glide_einternal>  (372) 
0.0119994

>  <r_i_glide_intrahb_reward>  (372) 
-0

>  <i_i_glide_confnum>  (372) 
2

>  <i_i_glide_posenum>  (372) 
1

>  <r_i_glide_eff_state_penalty>  (372) 
0

>  <ligand_id>  (372) 
109

>  <original_smiles>  (372) 
CC(=O)C1CCC2C3=C(n4ccnc4)C4(C)CCC5C(CCC1C5(C)CC3)C24

>  <smiles>  (372) 
[H]c1nc([H])n(C2=C3C([H])([H])C([H])([H])C4(C([H])([H])[H])C5([H])C([H])([H])C([H])([H])C6([H])C([H])(C3([H])C([H])([H])C([H])([H])C5([H])C(=O)C([H])([H])[H])C2(C([H])([H])[H])C([H])([H])C([H])([H])C64[H])c1[H]

$$$$
109:3:1
     RDKit          3D

 62 67  0  0  1  0  0  0  0  0999 V2000
    2.4469    1.0439    3.9417 C   0  0  0  0  0  0  0  0  0  0  0  0
    2.1379   -0.4464    4.1054 C   0  0  0  0  0  0  0  0  0  0  0  0
    0.9685   -0.8304    4.0858 O   0  0  0  0  0  0  0  0  0  0  0  0
    3.2971   -1.4340    4.3836 C   0  0  2  0  0  0  0  0  0  0  0  0
    4.7455   -0.8961    4.2797 C   0  0  0  0  0  0  0  0  0  0  0  0
    5.4767   -0.7116    2.9377 C   0  0  0  0  0  0  0  0  0  0  0  0
    5.5396   -1.7666    1.8012 C   0  0  2  0  0  0  0  0  0  0  0  0
    4.5362   -1.7397    0.7089 C   0  0  0  0  0  0  0  0  0  0  0  0
    4.8975   -2.5493   -0.2844 C   0  0  0  0  0  0  0  0  0  0  0  0
    4.2503   -2.5038   -1.5599 N   0  0  0  0  0  0  0  0  0  0  0  0
    4.3993   -3.4512   -2.5734 C   0  0  0  0  0  0  0  0  0  0  0  0
    3.6489   -3.0001   -3.6418 C   0  0  0  0  0  0  0  0  0  0  0  0
    3.1692   -1.7209   -3.3713 N   0  0  0  0  0  0  0  0  0  0  0  0
    3.5507   -1.4972   -2.1292 C   0  0  0  0  0  0  0  0  0  0  0  0
    5.9303   -3.5850    0.2196 C   0  0  2  0  0  0  0  0  0  0  0  0
    7.2895   -3.4509   -0.5067 C   0  0  0  0  0  0  0  0  0  0  0  0
    5.3682   -5.0286    0.1232 C   0  0  0  0  0  0  0  0  0  0  0  0
    3.9586   -5.0972    0.7597 C   0  0  0  0  0  0  0  0  0  0  0  0
    3.9252   -4.5676    2.2267 C   0  0  1  0  0  0  0  0  0  0  0  0
    5.3319   -4.1990    2.7144 C   0  0  2  0  0  0  0  0  0  0  0  0
    5.4104   -4.0236    4.2441 C   0  0  0  0  0  0  0  0  0  0  0  0
    4.0339   -3.8305    4.9139 C   0  0  0  0  0  0  0  0  0  0  0  0
    3.0438   -2.9568    4.1128 C   0  0  2  0  0  0  0  0  0  0  0  0
    2.7699   -3.5740    2.6771 C   0  0  2  0  0  0  0  0  0  0  0  0
    1.5517   -4.5233    2.8844 C   0  0  0  0  0  0  0  0  0  0  0  0
    2.2760   -2.5428    1.6009 C   0  0  0  0  0  0  0  0  0  0  0  0
    3.1244   -1.3516    1.0715 C   0  0  0  0  0  0  0  0  0  0  0  0
    6.0737   -3.2017    1.7714 C   0  0  2  0  0  0  0  0  0  0  0  0
    2.9004    1.4402    4.8500 H   0  0  0  0  0  0  0  0  0  0  0  0
    1.5311    1.6048    3.7495 H   0  0  0  0  0  0  0  0  0  0  0  0
    3.1276    1.2240    3.1097 H   0  0  0  0  0  0  0  0  0  0  0  0
    3.1898   -1.4197    5.4677 H   0  0  0  0  0  0  0  0  0  0  0  0
    4.7562    0.0909    4.7391 H   0  0  0  0  0  0  0  0  0  0  0  0
    5.3763   -1.4292    4.9771 H   0  0  0  0  0  0  0  0  0  0  0  0
    5.1104    0.2088    2.4903 H   0  0  0  0  0  0  0  0  0  0  0  0
    6.5064   -0.4649    3.1975 H   0  0  0  0  0  0  0  0  0  0  0  0
    6.3464   -1.2787    1.2553 H   0  0  0  0  0  0  0  0  0  0  0  0
    4.9896   -4.3551   -2.5374 H   0  0  0  0  0  0  0  0  0  0  0  0
    3.4635   -3.4359   -4.6126 H   0  0  0  0  0  0  0  0  0  0  0  0
    3.4150   -0.5466   -1.6656 H   0  0  0  0  0  0  0  0  0  0  0  0
    8.0320   -4.1435   -0.1056 H   0  0  0  0  0  0  0  0  0  0  0  0
    7.7128   -2.4521   -0.4120 H   0  0  0  0  0  0  0  0  0  0  0  0
    7.2005   -3.6562   -1.5724 H   0  0  0  0  0  0  0  0  0  0  0  0
    5.3193   -5.4048   -0.8889 H   0  0  0  0  0  0  0  0  0  0  0  0
    6.0540   -5.7385    0.5985 H   0  0  0  0  0  0  0  0  0  0  0  0
    3.2449   -4.5926    0.1131 H   0  0  0  0  0  0  0  0  0  0  0  0
    3.6285   -6.1325    0.7403 H   0  0  0  0  0  0  0  0  0  0  0  0
    3.7529   -5.4880    2.7876 H   0  0  0  0  0  0  0  0  0  0  0  0
    5.9185   -5.1086    2.6108 H   0  0  0  0  0  0  0  0  0  0  0  0
    5.8532   -4.9209    4.6853 H   0  0  0  0  0  0  0  0  0  0  0  0
    6.0951   -3.2306    4.5041 H   0  0  0  0  0  0  0  0  0  0  0  0
    3.5866   -4.8147    5.0414 H   0  0  0  0  0  0  0  0  0  0  0  0
    4.1602   -3.4383    5.9236 H   0  0  0  0  0  0  0  0  0  0  0  0
    2.1052   -3.0906    4.6546 H   0  0  0  0  0  0  0  0  0  0  0  0
    0.6524   -3.9744    3.1701 H   0  0  0  0  0  0  0  0  0  0  0  0
    1.7211   -5.2632    3.6673 H   0  0  0  0  0  0  0  0  0  0  0  0
    1.3221   -5.0812    1.9751 H   0  0  0  0  0  0  0  0  0  0  0  0
    1.9334   -3.0873    0.7262 H   0  0  0  0  0  0  0  0  0  0  0  0
    1.3473   -2.1031    1.9512 H   0  0  0  0  0  0  0  0  0  0  0  0
    3.1387   -0.4969    1.7356 H   0  0  0  0  0  0  0  0  0  0  0  0
    2.6148   -0.9632    0.2047 H   0  0  0  0  0  0  0  0  0  0  0  0
    7.1212   -3.2163    2.0410 H   0  0  0  0  0  0  0  0  0  0  0  0
  1  2  1  0
  1 29  1  0
  1 30  1  0
  1 31  1  0
  2  3  2  0
  2  4  1  0
  4 23  1  0
  4  5  1  0
  4 32  1  1
  5  6  1  0
  5 33  1  0
  5 34  1  0
  6  7  1  0
  6 35  1  0
  6 36  1  0
  7 28  1  0
  7  8  1  0
  7 37  1  6
  8 27  1  0
  8  9  2  0
  9 10  1  0
  9 15  1  0
 10 14  1  0
 10 11  1  0
 11 12  2  0
 11 38  1  0
 12 13  1  0
 12 39  1  0
 13 14  2  0
 14 40  1  0
 15 28  1  0
 15 16  1  6
 15 17  1  0
 16 41  1  0
 16 42  1  0
 16 43  1  0
 17 18  1  0
 17 44  1  0
 17 45  1  0
 18 19  1  0
 18 46  1  0
 18 47  1  0
 19 24  1  0
 19 20  1  0
 19 48  1  1
 20 21  1  0
 20 28  1  0
 20 49  1  1
 21 22  1  0
 21 50  1  0
 21 51  1  0
 22 23  1  0
 22 52  1  0
 22 53  1  0
 23 24  1  0
 23 54  1  1
 24 25  1  1
 24 26  1  0
 25 55  1  0
 25 56  1  0
 25 57  1  0
 26 27  1  0
 26 58  1  0
 26 59  1  0
 27 60  1  0
 27 61  1  0
 28 62  1  1
M  END
>  <i_m_ct_stereo_status>  (373) 
1

>  <s_m_source_file>  (373) 
/var/tmp/pbs.5076255.sched01/tmpjgl1obm9/123zpz496x9.sdf

>  <i_m_source_file_index>  (373) 
32

>  <i_lp_mmshare_version>  (373) 
48012

>  <i_f3d_flags>  (373) 
0

>  <s_epik_input>  (373) 
W0NIM11DKD1PKVtDQEhdKFtDSDJdW0NIMl0xKVtDSF0yW0NIMl1bQ0gyXVtDQEhdM1tDQEhdKFtDSDJdW0NIMl00KVtDQF0yKFtDSDNdKVtDSDJdW0NIMl1DKFtDQEBIXTFbQ0BASF0zW0NAQF00NVtDSDNdKT1DNW42W2NIXVtjSF1uW2NIXTY=

>  <s_epik_cmdline>  (373) 
J2VwaWtfcHl0aG9uJywgJy1waHQnLCAnMi4wJywgJy1waCcsICc3LjAnLCAnLXRuJywgJzgnLCAnLW1hJywgJzIwMCcsICctaW1hZScsICc8aW5maWxlLm1hZT4nLCAnLW9tYWUnLCAnPG91dGZpbGUubWFlPic=

>  <r_lp_tautomer_probability>  (373) 
1

>  <r_epik_Ionization_Penalty>  (373) 
2.12675

>  <r_epik_Ionization_Penalty_Charging>  (373) 
2.12675

>  <r_epik_Ionization_Penalty_Neutral>  (373) 
2.9654e-11

>  <r_epik_State_Penalty>  (373) 
2.26481

>  <r_epik_Charging_Adjusted_Penalty>  (373) 
4.39156

>  <i_epik_Tot_Q>  (373) 
0

>  <i_epik_Tot_abs_Q>  (373) 
0

>  <s_lp_Force_Field>  (373) 
OPLS3e

>  <r_lp_Energy>  (373) 
123.128

>  <b_lp_Chiralities_Consistent>  (373) 
1

>  <s_lp_Variant>  (373) 
109:0-4

>  <s_i_glide_gridfile>  (373) 
pfpi4k_grid

>  <i_i_glide_lignum>  (373) 
32

>  <i_i_glide_rotatable_bonds>  (373) 
2

>  <r_i_docking_score>  (373) 
-2.89435

>  <r_i_glide_ligand_efficiency>  (373) 
-0.10337

>  <r_i_glide_ligand_efficiency_sa>  (373) 
-0.313891

>  <r_i_glide_ligand_efficiency_ln>  (373) 
-0.668101

>  <r_i_glide_gscore>  (373) 
-2.89435

>  <r_i_glide_lipo>  (373) 
-0.892866

>  <r_i_glide_hbond>  (373) 
0

>  <r_i_glide_metal>  (373) 
-0

>  <r_i_glide_rewards>  (373) 
-0.828066

>  <r_i_glide_evdw>  (373) 
-25.8504

>  <r_i_glide_ecoul>  (373) 
0.507563

>  <r_i_glide_erotb>  (373) 
0.135243

>  <r_i_glide_esite>  (373) 
-0.0922765

>  <r_i_glide_emodel>  (373) 
-30.2229

>  <r_i_glide_energy>  (373) 
-25.3428

>  <r_i_glide_einternal>  (373) 
1.72903

>  <r_i_glide_intrahb_reward>  (373) 
-0

>  <i_i_glide_confnum>  (373) 
2

>  <i_i_glide_posenum>  (373) 
2

>  <r_i_glide_eff_state_penalty>  (373) 
0

>  <ligand_id>  (373) 
109

>  <original_smiles>  (373) 
CC(=O)C1CCC2C3=C(n4ccnc4)C4(C)CCC5C(CCC1C5(C)CC3)C24

>  <smiles>  (373) 
[H]c1nc([H])n(C2=C3C([H])([H])C([H])([H])C4(C([H])([H])[H])C5([H])C([H])([H])C([H])([H])C6([H])C([H])(C3([H])C([H])([H])C([H])([H])C5([H])C(=O)C([H])([H])[H])C2(C([H])([H])[H])C([H])([H])C([H])([H])C64[H])c1[H]

$$$$
109:3:2
     RDKit          3D

 62 67  0  0  1  0  0  0  0  0999 V2000
    3.4236   -1.0365   -2.8075 C   0  0  0  0  0  0  0  0  0  0  0  0
    4.4866   -2.0889   -2.4802 C   0  0  0  0  0  0  0  0  0  0  0  0
    4.6656   -3.0424   -3.2364 O   0  0  0  0  0  0  0  0  0  0  0  0
    5.3849   -1.8776   -1.2419 C   0  0  2  0  0  0  0  0  0  0  0  0
    6.4957   -2.9312   -0.9896 C   0  0  0  0  0  0  0  0  0  0  0  0
    6.2110   -4.2924   -0.3196 C   0  0  0  0  0  0  0  0  0  0  0  0
    5.3681   -4.5600    0.9507 C   0  0  2  0  0  0  0  0  0  0  0  0
    3.9038   -4.8656    0.8575 C   0  0  0  0  0  0  0  0  0  0  0  0
    3.4654   -5.2852    2.0516 C   0  0  0  0  0  0  0  0  0  0  0  0
    2.1634   -5.8073    2.3392 N   0  0  0  0  0  0  0  0  0  0  0  0
    1.3396   -6.3530    1.3329 C   0  0  0  0  0  0  0  0  0  0  0  0
    0.2174   -6.8403    1.9843 C   0  0  0  0  0  0  0  0  0  0  0  0
    0.3453   -6.6568    3.3548 N   0  0  0  0  0  0  0  0  0  0  0  0
    1.5436   -6.0867    3.4833 C   0  0  0  0  0  0  0  0  0  0  0  0
    4.4153   -4.8182    3.1610 C   0  0  2  0  0  0  0  0  0  0  0  0
    4.9885   -6.0241    3.9281 C   0  0  0  0  0  0  0  0  0  0  0  0
    3.7177   -3.8141    4.1287 C   0  0  0  0  0  0  0  0  0  0  0  0
    3.0469   -2.6676    3.3369 C   0  0  0  0  0  0  0  0  0  0  0  0
    4.0364   -1.9477    2.3788 C   0  0  1  0  0  0  0  0  0  0  0  0
    5.4544   -2.4859    2.5275 C   0  0  2  0  0  0  0  0  0  0  0  0
    6.4837   -1.5827    1.8312 C   0  0  0  0  0  0  0  0  0  0  0  0
    5.9106   -0.5705    0.8546 C   0  0  0  0  0  0  0  0  0  0  0  0
    4.7878   -1.1202   -0.0136 C   0  0  2  0  0  0  0  0  0  0  0  0
    3.5941   -1.6481    0.8844 C   0  0  2  0  0  0  0  0  0  0  0  0
    2.6746   -0.3950    1.0835 C   0  0  0  0  0  0  0  0  0  0  0  0
    2.7008   -2.7446    0.2014 C   0  0  0  0  0  0  0  0  0  0  0  0
    3.1157   -4.1738   -0.2185 C   0  0  0  0  0  0  0  0  0  0  0  0
    5.5634   -4.0339    2.3720 C   0  0  2  0  0  0  0  0  0  0  0  0
    2.6740   -0.9225   -2.0233 H   0  0  0  0  0  0  0  0  0  0  0  0
    2.8979   -1.3053   -3.7244 H   0  0  0  0  0  0  0  0  0  0  0  0
    3.8930   -0.0649   -2.9444 H   0  0  0  0  0  0  0  0  0  0  0  0
    5.9969   -1.0914   -1.6810 H   0  0  0  0  0  0  0  0  0  0  0  0
    6.9231   -3.1834   -1.9593 H   0  0  0  0  0  0  0  0  0  0  0  0
    7.3598   -2.4672   -0.5299 H   0  0  0  0  0  0  0  0  0  0  0  0
    5.7830   -4.9316   -1.0976 H   0  0  0  0  0  0  0  0  0  0  0  0
    7.1930   -4.7238   -0.1240 H   0  0  0  0  0  0  0  0  0  0  0  0
    5.7262   -5.5820    1.0854 H   0  0  0  0  0  0  0  0  0  0  0  0
    1.5952   -6.4348    0.2898 H   0  0  0  0  0  0  0  0  0  0  0  0
   -0.6441   -7.3683    1.5727 H   0  0  0  0  0  0  0  0  0  0  0  0
    1.9828   -5.9646    4.4584 H   0  0  0  0  0  0  0  0  0  0  0  0
    5.6996   -5.7125    4.6925 H   0  0  0  0  0  0  0  0  0  0  0  0
    5.5009   -6.7246    3.2692 H   0  0  0  0  0  0  0  0  0  0  0  0
    4.2045   -6.5860    4.4359 H   0  0  0  0  0  0  0  0  0  0  0  0
    2.9754   -4.2680    4.7825 H   0  0  0  0  0  0  0  0  0  0  0  0
    4.4589   -3.4024    4.8240 H   0  0  0  0  0  0  0  0  0  0  0  0
    2.1767   -3.0552    2.8199 H   0  0  0  0  0  0  0  0  0  0  0  0
    2.6330   -1.9416    4.0347 H   0  0  0  0  0  0  0  0  0  0  0  0
    4.1383   -0.9721    2.8572 H   0  0  0  0  0  0  0  0  0  0  0  0
    5.7212   -2.3231    3.5666 H   0  0  0  0  0  0  0  0  0  0  0  0
    6.9664   -0.9698    2.5946 H   0  0  0  0  0  0  0  0  0  0  0  0
    7.2912   -2.1839    1.4314 H   0  0  0  0  0  0  0  0  0  0  0  0
    5.5205    0.2594    1.4420 H   0  0  0  0  0  0  0  0  0  0  0  0
    6.7197   -0.1572    0.2543 H   0  0  0  0  0  0  0  0  0  0  0  0
    4.4216   -0.2148   -0.4921 H   0  0  0  0  0  0  0  0  0  0  0  0
    2.2604   -0.0377    0.1435 H   0  0  0  0  0  0  0  0  0  0  0  0
    3.2015    0.4717    1.4939 H   0  0  0  0  0  0  0  0  0  0  0  0
    1.8154   -0.6001    1.7259 H   0  0  0  0  0  0  0  0  0  0  0  0
    1.8254   -2.8402    0.8186 H   0  0  0  0  0  0  0  0  0  0  0  0
    2.3157   -2.3453   -0.7232 H   0  0  0  0  0  0  0  0  0  0  0  0
    3.6833   -4.1881   -1.1444 H   0  0  0  0  0  0  0  0  0  0  0  0
    2.2043   -4.6959   -0.4862 H   0  0  0  0  0  0  0  0  0  0  0  0
    6.5444   -4.3555    2.7140 H   0  0  0  0  0  0  0  0  0  0  0  0
  1  2  1  0
  1 29  1  0
  1 30  1  0
  1 31  1  0
  2  3  2  0
  2  4  1  0
  4 23  1  0
  4  5  1  0
  4 32  1  6
  5  6  1  0
  5 33  1  0
  5 34  1  0
  6  7  1  0
  6 35  1  0
  6 36  1  0
  7 28  1  0
  7  8  1  0
  7 37  1  1
  8 27  1  0
  8  9  2  0
  9 10  1  0
  9 15  1  0
 10 14  1  0
 10 11  1  0
 11 12  2  0
 11 38  1  0
 12 13  1  0
 12 39  1  0
 13 14  2  0
 14 40  1  0
 15 28  1  0
 15 16  1  1
 15 17  1  0
 16 41  1  0
 16 42  1  0
 16 43  1  0
 17 18  1  0
 17 44  1  0
 17 45  1  0
 18 19  1  0
 18 46  1  0
 18 47  1  0
 19 24  1  0
 19 20  1  0
 19 48  1  1
 20 21  1  0
 20 28  1  0
 20 49  1  1
 21 22  1  0
 21 50  1  0
 21 51  1  0
 22 23  1  0
 22 52  1  0
 22 53  1  0
 23 24  1  0
 23 54  1  6
 24 25  1  1
 24 26  1  0
 25 55  1  0
 25 56  1  0
 25 57  1  0
 26 27  1  0
 26 58  1  0
 26 59  1  0
 27 60  1  0
 27 61  1  0
 28 62  1  1
M  END
>  <i_m_ct_stereo_status>  (374) 
1

>  <s_m_source_file>  (374) 
/var/tmp/pbs.5076255.sched01/tmpjgl1obm9/123zpz496x9.sdf

>  <i_m_source_file_index>  (374) 
32

>  <i_lp_mmshare_version>  (374) 
48012

>  <i_f3d_flags>  (374) 
0

>  <s_epik_input>  (374) 
W0NIM11DKD1PKVtDQEhdKFtDSDJdW0NIMl0xKVtDSF0yW0NIMl1bQ0gyXVtDQEhdM1tDQEhdKFtDSDJdW0NIMl00KVtDQF0yKFtDSDNdKVtDSDJdW0NIMl1DKFtDQEBIXTFbQ0BASF0zW0NAQF00NVtDSDNdKT1DNW42W2NIXVtjSF1uW2NIXTY=

>  <s_epik_cmdline>  (374) 
J2VwaWtfcHl0aG9uJywgJy1waHQnLCAnMi4wJywgJy1waCcsICc3LjAnLCAnLXRuJywgJzgnLCAnLW1hJywgJzIwMCcsICctaW1hZScsICc8aW5maWxlLm1hZT4nLCAnLW9tYWUnLCAnPG91dGZpbGUubWFlPic=

>  <r_lp_tautomer_probability>  (374) 
1

>  <r_epik_Ionization_Penalty>  (374) 
2.12675

>  <r_epik_Ionization_Penalty_Charging>  (374) 
2.12675

>  <r_epik_Ionization_Penalty_Neutral>  (374) 
2.9654e-11

>  <r_epik_State_Penalty>  (374) 
2.26481

>  <r_epik_Charging_Adjusted_Penalty>  (374) 
4.39156

>  <i_epik_Tot_Q>  (374) 
0

>  <i_epik_Tot_abs_Q>  (374) 
0

>  <s_lp_Force_Field>  (374) 
OPLS3e

>  <r_lp_Energy>  (374) 
123.128

>  <b_lp_Chiralities_Consistent>  (374) 
1

>  <s_lp_Variant>  (374) 
109:0-4

>  <s_i_glide_gridfile>  (374) 
pfpi4k_grid

>  <i_i_glide_lignum>  (374) 
32

>  <i_i_glide_rotatable_bonds>  (374) 
2

>  <r_i_docking_score>  (374) 
-2.34011

>  <r_i_glide_ligand_efficiency>  (374) 
-0.0835754

>  <r_i_glide_ligand_efficiency_sa>  (374) 
-0.253784

>  <r_i_glide_ligand_efficiency_ln>  (374) 
-0.540166

>  <r_i_glide_gscore>  (374) 
-2.34011

>  <r_i_glide_lipo>  (374) 
-0.390994

>  <r_i_glide_hbond>  (374) 
0

>  <r_i_glide_metal>  (374) 
-0

>  <r_i_glide_rewards>  (374) 
-0.887069

>  <r_i_glide_evdw>  (374) 
-20.5583

>  <r_i_glide_ecoul>  (374) 
-0.951495

>  <r_i_glide_erotb>  (374) 
0.135243

>  <r_i_glide_esite>  (374) 
-0.0266527

>  <r_i_glide_emodel>  (374) 
-25.3518

>  <r_i_glide_energy>  (374) 
-21.5098

>  <r_i_glide_einternal>  (374) 
0.723578

>  <r_i_glide_intrahb_reward>  (374) 
-0

>  <i_i_glide_confnum>  (374) 
1

>  <i_i_glide_posenum>  (374) 
22

>  <r_i_glide_eff_state_penalty>  (374) 
0

>  <ligand_id>  (374) 
109

>  <original_smiles>  (374) 
CC(=O)C1CCC2C3=C(n4ccnc4)C4(C)CCC5C(CCC1C5(C)CC3)C24

>  <smiles>  (374) 
[H]c1nc([H])n(C2=C3C([H])([H])C([H])([H])C4(C([H])([H])[H])C5([H])C([H])([H])C([H])([H])C6([H])C([H])(C3([H])C([H])([H])C([H])([H])C5([H])C(=O)C([H])([H])[H])C2(C([H])([H])[H])C([H])([H])C([H])([H])C64[H])c1[H]

$$$$
110:1:0
     RDKit          3D

 41 44  0  0  1  0  0  0  0  0999 V2000
    4.0370   -7.7045    1.8582 C   0  0  0  0  0  0  0  0  0  0  0  0
    4.3671   -6.3580    1.2165 C   0  0  0  0  0  0  0  0  0  0  0  0
    5.3196   -6.2973    0.4411 O   0  0  0  0  0  0  0  0  0  0  0  0
    3.6118   -5.2833    1.5084 N   0  0  0  0  0  0  0  0  0  0  0  0
    3.9966   -4.0569    1.0966 N   0  0  0  0  0  0  0  0  0  0  0  0
    3.4441   -3.1436    1.8008 C   0  0  0  0  0  0  0  0  0  0  0  0
    3.8857   -1.7599    1.8886 C   0  0  0  0  0  0  0  0  0  0  0  0
    4.7708   -1.2229    1.0071 C   0  0  0  0  0  0  0  0  0  0  0  0
    5.3808   -1.8382   -0.1927 C   0  0  0  0  0  0  0  0  0  0  0  0
    6.7928   -2.0256   -0.3281 C   0  0  0  0  0  0  0  0  0  0  0  0
    7.1149   -2.6506   -1.5047 C   0  0  0  0  0  0  0  0  0  0  0  0
    5.6937   -3.0551   -2.4319 S   0  0  0  0  0  0  0  0  0  0  0  0
    4.6598   -2.3335   -1.2387 C   0  0  0  0  0  0  0  0  0  0  0  0
    3.2981   -0.9601    3.0635 C   0  0  0  0  0  0  0  0  0  0  0  0
    2.2122   -1.5886    3.7562 O   0  0  0  0  0  0  0  0  0  0  0  0
    2.3770   -2.9771    4.0308 C   0  0  0  0  0  0  0  0  0  0  0  0
    2.3768   -3.6903    2.6718 C   0  0  2  0  0  0  0  0  0  0  0  0
    2.7032   -5.1823    2.6566 C   0  0  1  0  0  0  0  0  0  0  0  0
    1.4639   -6.0680    2.5696 C   0  0  0  0  0  0  0  0  0  0  0  0
    0.9880   -6.6928    3.7350 C   0  0  0  0  0  0  0  0  0  0  0  0
   -0.1316   -7.5387    3.6539 C   0  0  0  0  0  0  0  0  0  0  0  0
   -0.7395   -7.7289    2.4009 C   0  0  0  0  0  0  0  0  0  0  0  0
   -0.1857   -7.0733    1.2837 C   0  0  0  0  0  0  0  0  0  0  0  0
    0.8720   -6.2384    1.3609 N   0  0  0  0  0  0  0  0  0  0  0  0
    3.2553   -8.2098    1.2904 H   0  0  0  0  0  0  0  0  0  0  0  0
    3.6982   -7.5963    2.8850 H   0  0  0  0  0  0  0  0  0  0  0  0
    4.9236   -8.3357    1.8850 H   0  0  0  0  0  0  0  0  0  0  0  0
    5.0568   -0.1969    1.1599 H   0  0  0  0  0  0  0  0  0  0  0  0
    7.4934   -1.7147    0.4309 H   0  0  0  0  0  0  0  0  0  0  0  0
    8.0941   -2.9255   -1.8802 H   0  0  0  0  0  0  0  0  0  0  0  0
    3.5869   -2.3549   -1.3626 H   0  0  0  0  0  0  0  0  0  0  0  0
    4.1098   -0.7464    3.7721 H   0  0  0  0  0  0  0  0  0  0  0  0
    2.9362    0.0018    2.6949 H   0  0  0  0  0  0  0  0  0  0  0  0
    3.2852   -3.1900    4.6126 H   0  0  0  0  0  0  0  0  0  0  0  0
    1.5216   -3.3219    4.6147 H   0  0  0  0  0  0  0  0  0  0  0  0
    1.4192   -3.5050    2.1787 H   0  0  0  0  0  0  0  0  0  0  0  0
    3.2811   -5.4443    3.5539 H   0  0  0  0  0  0  0  0  0  0  0  0
    1.4981   -6.5409    4.6703 H   0  0  0  0  0  0  0  0  0  0  0  0
   -0.5016   -8.0417    4.5388 H   0  0  0  0  0  0  0  0  0  0  0  0
   -1.5919   -8.3787    2.2950 H   0  0  0  0  0  0  0  0  0  0  0  0
   -0.6021   -7.2137    0.3000 H   0  0  0  0  0  0  0  0  0  0  0  0
  1  2  1  0
  1 25  1  0
  1 26  1  0
  1 27  1  0
  2  3  2  0
  2  4  1  0
  4 18  1  0
  4  5  1  0
  5  6  2  0
  6 17  1  0
  6  7  1  0
  7  8  2  3
  7 14  1  0
  8  9  1  0
  8 28  1  0
  9 13  2  0
  9 10  1  0
 10 11  2  0
 10 29  1  0
 11 12  1  0
 11 30  1  0
 12 13  1  0
 13 31  1  0
 14 15  1  0
 14 32  1  0
 14 33  1  0
 15 16  1  0
 16 17  1  0
 16 34  1  0
 16 35  1  0
 17 18  1  0
 17 36  1  6
 18 19  1  0
 18 37  1  1
 19 24  1  0
 19 20  2  0
 20 21  1  0
 20 38  1  0
 21 22  2  0
 21 39  1  0
 22 23  1  0
 22 40  1  0
 23 24  2  0
 23 41  1  0
M  END
>  <i_m_ct_stereo_status>  (375) 
1

>  <s_m_source_file>  (375) 
/var/tmp/pbs.5076255.sched01/tmpjgl1obm9/123zpz496x9.sdf

>  <i_m_source_file_index>  (375) 
34

>  <i_lp_mmshare_version>  (375) 
48012

>  <i_f3d_flags>  (375) 
0

>  <s_epik_input>  (375) 
bjFbY0hdW2NIXVtjSF1bY0hdYzFbQ0BASF0oTihOPTIpQyg9TylbQ0gzXSlbQ0BIXShDMjMpW0NIMl1PW0NIMl1DXDM9W0NIXS9jNFtjSF1bY0hdc1tjSF00

>  <s_epik_cmdline>  (375) 
J2VwaWtfcHl0aG9uJywgJy1waHQnLCAnMi4wJywgJy1waCcsICc3LjAnLCAnLXRuJywgJzgnLCAnLW1hJywgJzIwMCcsICctaW1hZScsICc8aW5maWxlLm1hZT4nLCAnLW9tYWUnLCAnPG91dGZpbGUubWFlPic=

>  <r_epik_Ionization_Penalty>  (375) 
0.00401578

>  <r_epik_Ionization_Penalty_Charging>  (375) 
0

>  <r_epik_Ionization_Penalty_Neutral>  (375) 
0.00401578

>  <r_epik_State_Penalty>  (375) 
0.00287604

>  <r_epik_Charging_Adjusted_Penalty>  (375) 
0.00287604

>  <i_epik_Tot_Q>  (375) 
0

>  <i_epik_Tot_abs_Q>  (375) 
0

>  <s_epik_Chemistry_Notes>  (375) 
This compound has an imine and may undergo hydrolysis.

>  <s_lp_Force_Field>  (375) 
OPLS3e

>  <r_lp_Energy>  (375) 
24.4154

>  <b_lp_Chiralities_Consistent>  (375) 
1

>  <s_lp_Variant>  (375) 
110:0-2

>  <s_i_glide_gridfile>  (375) 
pfpi4k_grid

>  <i_i_glide_lignum>  (375) 
34

>  <i_i_glide_rotatable_bonds>  (375) 
3

>  <r_i_docking_score>  (375) 
-3.645

>  <r_i_glide_ligand_efficiency>  (375) 
-0.151875

>  <r_i_glide_ligand_efficiency_sa>  (375) 
-0.438083

>  <r_i_glide_ligand_efficiency_ln>  (375) 
-0.872416

>  <r_i_glide_gscore>  (375) 
-3.645

>  <r_i_glide_lipo>  (375) 
-0.2542

>  <r_i_glide_hbond>  (375) 
-0.16

>  <r_i_glide_metal>  (375) 
-0

>  <r_i_glide_rewards>  (375) 
-1.22513

>  <r_i_glide_evdw>  (375) 
-28.2042

>  <r_i_glide_ecoul>  (375) 
-5.06075

>  <r_i_glide_erotb>  (375) 
0.164273

>  <r_i_glide_esite>  (375) 
-0.000617713

>  <r_i_glide_emodel>  (375) 
-37.5187

>  <r_i_glide_energy>  (375) 
-33.265

>  <r_i_glide_einternal>  (375) 
6.57649

>  <r_i_glide_intrahb_reward>  (375) 
-0

>  <i_i_glide_confnum>  (375) 
4

>  <i_i_glide_posenum>  (375) 
12

>  <r_i_glide_eff_state_penalty>  (375) 
0

>  <ligand_id>  (375) 
110

>  <original_smiles>  (375) 
CC(=O)N1N=C2C(=Cc3ccsc3)COCC2C1c1ccccn1

>  <smiles>  (375) 
[H]C(=C1C2=NN(C(=O)C([H])([H])[H])C([H])(c3nc([H])c([H])c([H])c3[H])C2([H])C([H])([H])OC1([H])[H])c1c([H])sc([H])c1[H]

$$$$
110:1:1
     RDKit          3D

 41 44  0  0  1  0  0  0  0  0999 V2000
    4.9903   -5.9451    0.2545 C   0  0  0  0  0  0  0  0  0  0  0  0
    4.0548   -6.0205    1.4587 C   0  0  0  0  0  0  0  0  0  0  0  0
    4.0811   -7.0213    2.1721 O   0  0  0  0  0  0  0  0  0  0  0  0
    3.2815   -4.9595    1.7418 N   0  0  0  0  0  0  0  0  0  0  0  0
    3.5002   -3.7517    1.1769 N   0  0  0  0  0  0  0  0  0  0  0  0
    2.9550   -2.8187    1.8759 C   0  0  0  0  0  0  0  0  0  0  0  0
    3.2880   -1.4067    1.8126 C   0  0  0  0  0  0  0  0  0  0  0  0
    4.0394   -0.8794    0.8095 C   0  0  0  0  0  0  0  0  0  0  0  0
    4.5893   -1.5662   -0.3767 C   0  0  0  0  0  0  0  0  0  0  0  0
    5.9721   -1.8991   -0.5174 C   0  0  0  0  0  0  0  0  0  0  0  0
    6.2285   -2.5451   -1.6996 C   0  0  0  0  0  0  0  0  0  0  0  0
    4.7737   -2.7457   -2.6478 S   0  0  0  0  0  0  0  0  0  0  0  0
    3.8164   -1.9486   -1.4379 C   0  0  0  0  0  0  0  0  0  0  0  0
    2.7432   -0.5609    2.9688 C   0  0  0  0  0  0  0  0  0  0  0  0
    1.7759   -1.2164    3.7968 O   0  0  0  0  0  0  0  0  0  0  0  0
    2.0833   -2.5500    4.1749 C   0  0  0  0  0  0  0  0  0  0  0  0
    2.0309   -3.3801    2.8931 C   0  0  2  0  0  0  0  0  0  0  0  0
    2.4706   -4.8422    2.9612 C   0  0  1  0  0  0  0  0  0  0  0  0
    1.3096   -5.8396    3.0531 C   0  0  0  0  0  0  0  0  0  0  0  0
    0.8929   -6.2674    4.3295 C   0  0  0  0  0  0  0  0  0  0  0  0
   -0.1563   -7.1962    4.4259 C   0  0  0  0  0  0  0  0  0  0  0  0
   -0.7643   -7.6532    3.2444 C   0  0  0  0  0  0  0  0  0  0  0  0
   -0.2793   -7.1757    2.0107 C   0  0  0  0  0  0  0  0  0  0  0  0
    0.7074   -6.2535    1.9108 N   0  0  0  0  0  0  0  0  0  0  0  0
    5.8139   -5.2672    0.4647 H   0  0  0  0  0  0  0  0  0  0  0  0
    4.4807   -5.6145   -0.6511 H   0  0  0  0  0  0  0  0  0  0  0  0
    5.4013   -6.9317    0.0816 H   0  0  0  0  0  0  0  0  0  0  0  0
    4.2433    0.1827    0.8425 H   0  0  0  0  0  0  0  0  0  0  0  0
    6.6976   -1.6814    0.2530 H   0  0  0  0  0  0  0  0  0  0  0  0
    7.1680   -2.9234   -2.0775 H   0  0  0  0  0  0  0  0  0  0  0  0
    2.7449   -1.8311   -1.5566 H   0  0  0  0  0  0  0  0  0  0  0  0
    3.5759   -0.2217    3.5879 H   0  0  0  0  0  0  0  0  0  0  0  0
    2.2589    0.3271    2.5700 H   0  0  0  0  0  0  0  0  0  0  0  0
    3.0397   -2.6266    4.6926 H   0  0  0  0  0  0  0  0  0  0  0  0
    1.3054   -2.8867    4.8575 H   0  0  0  0  0  0  0  0  0  0  0  0
    1.0183   -3.3107    2.4911 H   0  0  0  0  0  0  0  0  0  0  0  0
    3.1467   -4.9929    3.8060 H   0  0  0  0  0  0  0  0  0  0  0  0
    1.3987   -5.9050    5.2115 H   0  0  0  0  0  0  0  0  0  0  0  0
   -0.4814   -7.5502    5.3968 H   0  0  0  0  0  0  0  0  0  0  0  0
   -1.5666   -8.3769    3.2837 H   0  0  0  0  0  0  0  0  0  0  0  0
   -0.7184   -7.5048    1.0811 H   0  0  0  0  0  0  0  0  0  0  0  0
  1  2  1  0
  1 25  1  0
  1 26  1  0
  1 27  1  0
  2  3  2  0
  2  4  1  0
  4 18  1  0
  4  5  1  0
  5  6  2  0
  6 17  1  0
  6  7  1  0
  7  8  2  3
  7 14  1  0
  8  9  1  0
  8 28  1  0
  9 13  2  0
  9 10  1  0
 10 11  2  0
 10 29  1  0
 11 12  1  0
 11 30  1  0
 12 13  1  0
 13 31  1  0
 14 15  1  0
 14 32  1  0
 14 33  1  0
 15 16  1  0
 16 17  1  0
 16 34  1  0
 16 35  1  0
 17 18  1  0
 17 36  1  6
 18 19  1  0
 18 37  1  1
 19 24  1  0
 19 20  2  0
 20 21  1  0
 20 38  1  0
 21 22  2  0
 21 39  1  0
 22 23  1  0
 22 40  1  0
 23 24  2  0
 23 41  1  0
M  END
>  <i_m_ct_stereo_status>  (376) 
1

>  <s_m_source_file>  (376) 
/var/tmp/pbs.5076255.sched01/tmpjgl1obm9/123zpz496x9.sdf

>  <i_m_source_file_index>  (376) 
34

>  <i_lp_mmshare_version>  (376) 
48012

>  <i_f3d_flags>  (376) 
0

>  <s_epik_input>  (376) 
bjFbY0hdW2NIXVtjSF1bY0hdYzFbQ0BASF0oTihOPTIpQyg9TylbQ0gzXSlbQ0BIXShDMjMpW0NIMl1PW0NIMl1DXDM9W0NIXS9jNFtjSF1bY0hdc1tjSF00

>  <s_epik_cmdline>  (376) 
J2VwaWtfcHl0aG9uJywgJy1waHQnLCAnMi4wJywgJy1waCcsICc3LjAnLCAnLXRuJywgJzgnLCAnLW1hJywgJzIwMCcsICctaW1hZScsICc8aW5maWxlLm1hZT4nLCAnLW9tYWUnLCAnPG91dGZpbGUubWFlPic=

>  <r_epik_Ionization_Penalty>  (376) 
0.00401578

>  <r_epik_Ionization_Penalty_Charging>  (376) 
0

>  <r_epik_Ionization_Penalty_Neutral>  (376) 
0.00401578

>  <r_epik_State_Penalty>  (376) 
0.00287604

>  <r_epik_Charging_Adjusted_Penalty>  (376) 
0.00287604

>  <i_epik_Tot_Q>  (376) 
0

>  <i_epik_Tot_abs_Q>  (376) 
0

>  <s_epik_Chemistry_Notes>  (376) 
This compound has an imine and may undergo hydrolysis.

>  <s_lp_Force_Field>  (376) 
OPLS3e

>  <r_lp_Energy>  (376) 
24.4154

>  <b_lp_Chiralities_Consistent>  (376) 
1

>  <s_lp_Variant>  (376) 
110:0-2

>  <s_i_glide_gridfile>  (376) 
pfpi4k_grid

>  <i_i_glide_lignum>  (376) 
34

>  <i_i_glide_rotatable_bonds>  (376) 
3

>  <r_i_docking_score>  (376) 
-3.47776

>  <r_i_glide_ligand_efficiency>  (376) 
-0.144906

>  <r_i_glide_ligand_efficiency_sa>  (376) 
-0.417983

>  <r_i_glide_ligand_efficiency_ln>  (376) 
-0.832386

>  <r_i_glide_gscore>  (376) 
-3.47776

>  <r_i_glide_lipo>  (376) 
-0.256323

>  <r_i_glide_hbond>  (376) 
-0.10553

>  <r_i_glide_metal>  (376) 
-0

>  <r_i_glide_rewards>  (376) 
-1.16433

>  <r_i_glide_evdw>  (376) 
-28.6361

>  <r_i_glide_ecoul>  (376) 
-4.51436

>  <r_i_glide_erotb>  (376) 
0.164273

>  <r_i_glide_esite>  (376) 
-0.00688674

>  <r_i_glide_emodel>  (376) 
-38.015

>  <r_i_glide_energy>  (376) 
-33.1504

>  <r_i_glide_einternal>  (376) 
5.01156

>  <r_i_glide_intrahb_reward>  (376) 
-0

>  <i_i_glide_confnum>  (376) 
3

>  <i_i_glide_posenum>  (376) 
9

>  <r_i_glide_eff_state_penalty>  (376) 
0

>  <ligand_id>  (376) 
110

>  <original_smiles>  (376) 
CC(=O)N1N=C2C(=Cc3ccsc3)COCC2C1c1ccccn1

>  <smiles>  (376) 
[H]C(=C1C2=NN(C(=O)C([H])([H])[H])C([H])(c3nc([H])c([H])c([H])c3[H])C2([H])C([H])([H])OC1([H])[H])c1c([H])sc([H])c1[H]

$$$$
110:1:2
     RDKit          3D

 41 44  0  0  1  0  0  0  0  0999 V2000
    2.6091    1.3483    2.5521 C   0  0  0  0  0  0  0  0  0  0  0  0
    3.1792   -0.0530    2.7775 C   0  0  0  0  0  0  0  0  0  0  0  0
    4.3425   -0.2822    2.5243 O   0  0  0  0  0  0  0  0  0  0  0  0
    2.3091   -1.0082    3.1808 N   0  0  0  0  0  0  0  0  0  0  0  0
    1.2249   -0.6763    3.8874 N   0  0  0  0  0  0  0  0  0  0  0  0
    0.6215   -1.6802    4.3602 C   0  0  0  0  0  0  0  0  0  0  0  0
   -0.4283   -1.6053    5.3386 C   0  0  0  0  0  0  0  0  0  0  0  0
   -1.2381   -0.5207    5.4425 C   0  0  0  0  0  0  0  0  0  0  0  0
   -1.3396    0.7791    4.6926 C   0  0  0  0  0  0  0  0  0  0  0  0
   -0.9630    1.0140    3.3385 C   0  0  0  0  0  0  0  0  0  0  0  0
   -0.9853    2.3436    3.0168 C   0  0  0  0  0  0  0  0  0  0  0  0
   -1.6760    3.3104    4.2922 S   0  0  0  0  0  0  0  0  0  0  0  0
   -1.8088    1.9069    5.3245 C   0  0  0  0  0  0  0  0  0  0  0  0
   -0.6242   -2.9064    6.1554 C   0  0  0  0  0  0  0  0  0  0  0  0
    0.0605   -4.0922    5.6594 O   0  0  0  0  0  0  0  0  0  0  0  0
    1.4114   -3.8623    5.2122 C   0  0  0  0  0  0  0  0  0  0  0  0
    1.2969   -2.9502    3.9782 C   0  0  2  0  0  0  0  0  0  0  0  0
    2.6305   -2.4162    3.3999 C   0  0  1  0  0  0  0  0  0  0  0  0
    3.0793   -3.1929    2.1618 C   0  0  0  0  0  0  0  0  0  0  0  0
    2.7849   -2.7923    0.8354 C   0  0  0  0  0  0  0  0  0  0  0  0
    3.2556   -3.5749   -0.2486 C   0  0  0  0  0  0  0  0  0  0  0  0
    3.9988   -4.7381    0.0524 C   0  0  0  0  0  0  0  0  0  0  0  0
    4.2325   -5.0710    1.3972 C   0  0  0  0  0  0  0  0  0  0  0  0
    3.7751   -4.3240    2.4234 N   0  0  0  0  0  0  0  0  0  0  0  0
    2.3856    1.8059    3.5073 H   0  0  0  0  0  0  0  0  0  0  0  0
    1.7157    1.4297    1.9141 H   0  0  0  0  0  0  0  0  0  0  0  0
    3.3759    1.9617    2.0865 H   0  0  0  0  0  0  0  0  0  0  0  0
   -1.9614   -0.6111    6.2237 H   0  0  0  0  0  0  0  0  0  0  0  0
   -0.6297    0.2641    2.6211 H   0  0  0  0  0  0  0  0  0  0  0  0
   -0.6083    2.8081    2.1040 H   0  0  0  0  0  0  0  0  0  0  0  0
   -2.2197    2.0210    6.3164 H   0  0  0  0  0  0  0  0  0  0  0  0
   -0.3025   -2.7033    7.1794 H   0  0  0  0  0  0  0  0  0  0  0  0
   -1.6807   -3.1692    6.1958 H   0  0  0  0  0  0  0  0  0  0  0  0
    2.0363   -3.4031    5.9989 H   0  0  0  0  0  0  0  0  0  0  0  0
    1.8430   -4.8407    4.9570 H   0  0  0  0  0  0  0  0  0  0  0  0
    0.7143   -3.4851    3.2134 H   0  0  0  0  0  0  0  0  0  0  0  0
    3.4461   -2.4351    4.1387 H   0  0  0  0  0  0  0  0  0  0  0  0
    2.2255   -1.9031    0.6110 H   0  0  0  0  0  0  0  0  0  0  0  0
    3.0561   -3.2894   -1.2684 H   0  0  0  0  0  0  0  0  0  0  0  0
    4.3733   -5.3735   -0.7265 H   0  0  0  0  0  0  0  0  0  0  0  0
    4.7921   -5.9548    1.6883 H   0  0  0  0  0  0  0  0  0  0  0  0
  1  2  1  0
  1 25  1  0
  1 26  1  0
  1 27  1  0
  2  3  2  0
  2  4  1  0
  4 18  1  0
  4  5  1  0
  5  6  2  0
  6 17  1  0
  6  7  1  0
  7  8  2  3
  7 14  1  0
  8  9  1  0
  8 28  1  0
  9 13  2  0
  9 10  1  0
 10 11  2  0
 10 29  1  0
 11 12  1  0
 11 30  1  0
 12 13  1  0
 13 31  1  0
 14 15  1  0
 14 32  1  0
 14 33  1  0
 15 16  1  0
 16 17  1  0
 16 34  1  0
 16 35  1  0
 17 18  1  0
 17 36  1  6
 18 19  1  0
 18 37  1  1
 19 24  1  0
 19 20  2  0
 20 21  1  0
 20 38  1  0
 21 22  2  0
 21 39  1  0
 22 23  1  0
 22 40  1  0
 23 24  2  0
 23 41  1  0
M  END
>  <i_m_ct_stereo_status>  (377) 
1

>  <s_m_source_file>  (377) 
/var/tmp/pbs.5076255.sched01/tmpjgl1obm9/123zpz496x9.sdf

>  <i_m_source_file_index>  (377) 
34

>  <i_lp_mmshare_version>  (377) 
48012

>  <i_f3d_flags>  (377) 
0

>  <s_epik_input>  (377) 
bjFbY0hdW2NIXVtjSF1bY0hdYzFbQ0BASF0oTihOPTIpQyg9TylbQ0gzXSlbQ0BIXShDMjMpW0NIMl1PW0NIMl1DXDM9W0NIXS9jNFtjSF1bY0hdc1tjSF00

>  <s_epik_cmdline>  (377) 
J2VwaWtfcHl0aG9uJywgJy1waHQnLCAnMi4wJywgJy1waCcsICc3LjAnLCAnLXRuJywgJzgnLCAnLW1hJywgJzIwMCcsICctaW1hZScsICc8aW5maWxlLm1hZT4nLCAnLW9tYWUnLCAnPG91dGZpbGUubWFlPic=

>  <r_epik_Ionization_Penalty>  (377) 
0.00401578

>  <r_epik_Ionization_Penalty_Charging>  (377) 
0

>  <r_epik_Ionization_Penalty_Neutral>  (377) 
0.00401578

>  <r_epik_State_Penalty>  (377) 
0.00287604

>  <r_epik_Charging_Adjusted_Penalty>  (377) 
0.00287604

>  <i_epik_Tot_Q>  (377) 
0

>  <i_epik_Tot_abs_Q>  (377) 
0

>  <s_epik_Chemistry_Notes>  (377) 
This compound has an imine and may undergo hydrolysis.

>  <s_lp_Force_Field>  (377) 
OPLS3e

>  <r_lp_Energy>  (377) 
24.4154

>  <b_lp_Chiralities_Consistent>  (377) 
1

>  <s_lp_Variant>  (377) 
110:0-2

>  <s_i_glide_gridfile>  (377) 
pfpi4k_grid

>  <i_i_glide_lignum>  (377) 
34

>  <i_i_glide_rotatable_bonds>  (377) 
3

>  <r_i_docking_score>  (377) 
-2.59721

>  <r_i_glide_ligand_efficiency>  (377) 
-0.108217

>  <r_i_glide_ligand_efficiency_sa>  (377) 
-0.312152

>  <r_i_glide_ligand_efficiency_ln>  (377) 
-0.621631

>  <r_i_glide_gscore>  (377) 
-2.59721

>  <r_i_glide_lipo>  (377) 
-0.0678875

>  <r_i_glide_hbond>  (377) 
0

>  <r_i_glide_metal>  (377) 
-0

>  <r_i_glide_rewards>  (377) 
-1.10892

>  <r_i_glide_evdw>  (377) 
-25.1981

>  <r_i_glide_ecoul>  (377) 
-2.13591

>  <r_i_glide_erotb>  (377) 
0.164273

>  <r_i_glide_esite>  (377) 
-0.00437827

>  <r_i_glide_emodel>  (377) 
-31.3611

>  <r_i_glide_energy>  (377) 
-27.334

>  <r_i_glide_einternal>  (377) 
0.626444

>  <r_i_glide_intrahb_reward>  (377) 
-0

>  <i_i_glide_confnum>  (377) 
2

>  <i_i_glide_posenum>  (377) 
5

>  <r_i_glide_eff_state_penalty>  (377) 
0

>  <ligand_id>  (377) 
110

>  <original_smiles>  (377) 
CC(=O)N1N=C2C(=Cc3ccsc3)COCC2C1c1ccccn1

>  <smiles>  (377) 
[H]C(=C1C2=NN(C(=O)C([H])([H])[H])C([H])(c3nc([H])c([H])c([H])c3[H])C2([H])C([H])([H])OC1([H])[H])c1c([H])sc([H])c1[H]

$$$$
111:0:0
     RDKit          3D

 36 38  0  0  1  0  0  0  0  0999 V2000
    4.2438   -3.2235   -3.7428 C   0  0  0  0  0  0  0  0  0  0  0  0
    3.1408   -2.2531   -3.2689 C   0  0  0  0  0  0  0  0  0  0  0  0
    3.2384   -0.8979   -3.9927 C   0  0  0  0  0  0  0  0  0  0  0  0
    3.0946   -2.1243   -1.7808 N   0  0  2  0  0  0  0  0  0  0  0  0
    4.3505   -1.5204   -1.2300 C   0  0  0  0  0  0  0  0  0  0  0  0
    4.2770   -1.3368    0.2806 C   0  0  0  0  0  0  0  0  0  0  0  0
    3.9698   -2.6773    0.9798 C   0  0  2  0  0  0  0  0  0  0  0  0
    2.6585   -3.2669    0.4161 C   0  0  0  0  0  0  0  0  0  0  0  0
    2.7351   -3.4189   -1.1148 C   0  0  0  0  0  0  0  0  0  0  0  0
    3.8975   -2.4858    2.5331 C   0  0  0  0  0  0  0  0  0  0  0  0
    5.0089   -3.3679    3.1849 C   0  0  0  0  0  0  0  0  0  0  0  0
    5.5961   -3.9693    2.0354 N   0  0  0  0  0  0  0  0  0  0  0  0
    6.6097   -4.8520    1.9022 N   0  0  0  0  0  0  0  0  0  0  0  0
    6.7035   -5.0249    0.5964 N   0  0  0  0  0  0  0  0  0  0  0  0
    5.7534   -4.2669   -0.0994 N   0  0  0  0  0  0  0  0  0  0  0  0
    5.1079   -3.6512    0.8705 C   0  0  0  0  0  0  0  0  0  0  0  0
    4.2705   -3.2846   -4.8307 H   0  0  0  0  0  0  0  0  0  0  0  0
    4.0408   -4.2313   -3.4141 H   0  0  0  0  0  0  0  0  0  0  0  0
    5.2439   -2.9475   -3.3711 H   0  0  0  0  0  0  0  0  0  0  0  0
    2.1858   -2.6820   -3.5774 H   0  0  0  0  0  0  0  0  0  0  0  0
    3.3097   -1.0466   -5.0714 H   0  0  0  0  0  0  0  0  0  0  0  0
    4.1016   -0.3051   -3.6770 H   0  0  0  0  0  0  0  0  0  0  0  0
    2.3499   -0.2919   -3.8328 H   0  0  0  0  0  0  0  0  0  0  0  0
    5.2151   -2.1547   -1.4489 H   0  0  0  0  0  0  0  0  0  0  0  0
    4.5668   -0.5331   -1.6455 H   0  0  0  0  0  0  0  0  0  0  0  0
    5.2282   -0.9400    0.6464 H   0  0  0  0  0  0  0  0  0  0  0  0
    3.5149   -0.5984    0.5497 H   0  0  0  0  0  0  0  0  0  0  0  0
    2.4487   -4.2355    0.8803 H   0  0  0  0  0  0  0  0  0  0  0  0
    1.8328   -2.6063    0.6872 H   0  0  0  0  0  0  0  0  0  0  0  0
    1.7791   -3.7981   -1.4852 H   0  0  0  0  0  0  0  0  0  0  0  0
    3.4634   -4.2008   -1.3298 H   0  0  0  0  0  0  0  0  0  0  0  0
    4.0494   -1.4382    2.8043 H   0  0  0  0  0  0  0  0  0  0  0  0
    2.9146   -2.7637    2.9213 H   0  0  0  0  0  0  0  0  0  0  0  0
    5.7659   -2.7829    3.7048 H   0  0  0  0  0  0  0  0  0  0  0  0
    4.6089   -4.1474    3.8298 H   0  0  0  0  0  0  0  0  0  0  0  0
    2.3160   -1.5056   -1.5457 H   0  0  0  0  0  0  0  0  0  0  0  0
  1  2  1  0
  1 17  1  0
  1 18  1  0
  1 19  1  0
  2  3  1  0
  2  4  1  0
  2 20  1  0
  3 21  1  0
  3 22  1  0
  3 23  1  0
  4  9  1  0
  4  5  1  0
  4 36  1  6
  5  6  1  0
  5 24  1  0
  5 25  1  0
  7  6  1  6
  6 26  1  0
  6 27  1  0
  7 16  1  0
  7  8  1  0
  7 10  1  0
  8  9  1  0
  8 28  1  0
  8 29  1  0
  9 30  1  0
  9 31  1  0
 10 11  1  0
 10 32  1  0
 10 33  1  0
 11 12  1  0
 11 34  1  0
 11 35  1  0
 12 16  1  0
 12 13  1  0
 13 14  2  0
 14 15  1  0
 15 16  2  0
M  CHG  1   4   1
M  END
>  <i_m_ct_stereo_status>  (378) 
1

>  <s_m_source_file>  (378) 
/var/tmp/pbs.5076255.sched01/tmpjgl1obm9/123zpz496x9.sdf

>  <i_m_source_file_index>  (378) 
35

>  <i_lp_mmshare_version>  (378) 
48012

>  <i_f3d_flags>  (378) 
0

>  <s_epik_input>  (378) 
W0NIM11bQ0hdKFtDSDNdKU4oW0NIMl1bQ0gyXTEpW0NIMl1bQ0gyXUMxMmMzbihbQ0gyXVtDSDJdMilubm4z

>  <s_epik_cmdline>  (378) 
J2VwaWtfcHl0aG9uJywgJy1waHQnLCAnMi4wJywgJy1waCcsICc3LjAnLCAnLXRuJywgJzgnLCAnLW1hJywgJzIwMCcsICctaW1hZScsICc8aW5maWxlLm1hZT4nLCAnLW9tYWUnLCAnPG91dGZpbGUubWFlPic=

>  <r_lp_tautomer_probability>  (378) 
1

>  <r_epik_Ionization_Penalty>  (378) 
0.00991671

>  <r_epik_Ionization_Penalty_Charging>  (378) 
0.00991671

>  <r_epik_Ionization_Penalty_Neutral>  (378) 
1.16063e-09

>  <r_epik_State_Penalty>  (378) 
0.00755655

>  <r_epik_Charging_Adjusted_Penalty>  (378) 
0.0174733

>  <i_epik_Tot_Q>  (378) 
1

>  <i_epik_Tot_abs_Q>  (378) 
1

>  <s_lp_Force_Field>  (378) 
OPLS3e

>  <r_lp_Energy>  (378) 
33.7966

>  <b_lp_Chiralities_Consistent>  (378) 
1

>  <s_lp_Variant>  (378) 
111:0-1

>  <s_i_glide_gridfile>  (378) 
pfpi4k_grid

>  <i_i_glide_lignum>  (378) 
35

>  <i_i_glide_rotatable_bonds>  (378) 
1

>  <r_i_docking_score>  (378) 
-4.62197

>  <r_i_glide_ligand_efficiency>  (378) 
-0.288873

>  <r_i_glide_ligand_efficiency_sa>  (378) 
-0.727915

>  <r_i_glide_ligand_efficiency_ln>  (378) 
-1.22515

>  <r_i_glide_gscore>  (378) 
-4.62197

>  <r_i_glide_lipo>  (378) 
-0.542413

>  <r_i_glide_hbond>  (378) 
-0.2

>  <r_i_glide_metal>  (378) 
-0

>  <r_i_glide_rewards>  (378) 
-1.99392

>  <r_i_glide_evdw>  (378) 
-20.5002

>  <r_i_glide_ecoul>  (378) 
-5.22412

>  <r_i_glide_erotb>  (378) 
0

>  <r_i_glide_esite>  (378) 
-0.0770049

>  <r_i_glide_emodel>  (378) 
-31.3042

>  <r_i_glide_energy>  (378) 
-25.7243

>  <r_i_glide_einternal>  (378) 
5.81527

>  <r_i_glide_intrahb_reward>  (378) 
-0

>  <i_i_glide_confnum>  (378) 
1

>  <i_i_glide_posenum>  (378) 
1

>  <r_i_glide_eff_state_penalty>  (378) 
0

>  <ligand_id>  (378) 
111

>  <original_smiles>  (378) 
CC(C)N1CCC2(CC1)CCn1nnnc12

>  <smiles>  (378) 
[H]C([H])([H])C([H])(C([H])([H])[H])[N+]1([H])C([H])([H])C([H])([H])C2(c3nnnn3C([H])([H])C2([H])[H])C([H])([H])C1([H])[H]

$$$$
111:0:1
     RDKit          3D

 36 38  0  0  1  0  0  0  0  0999 V2000
    2.1571   -2.6518   -3.3678 C   0  0  0  0  0  0  0  0  0  0  0  0
    3.0631   -1.4876   -2.8919 C   0  0  0  0  0  0  0  0  0  0  0  0
    3.8127   -0.8479   -4.0609 C   0  0  0  0  0  0  0  0  0  0  0  0
    3.9997   -1.8737   -1.8078 N   0  0  2  0  0  0  0  0  0  0  0  0
    4.5386   -3.2554   -1.9992 C   0  0  0  0  0  0  0  0  0  0  0  0
    5.5564   -3.6325   -0.9273 C   0  0  0  0  0  0  0  0  0  0  0  0
    4.9404   -3.5022    0.4809 C   0  0  2  0  0  0  0  0  0  0  0  0
    4.4275   -2.0592    0.6647 C   0  0  0  0  0  0  0  0  0  0  0  0
    3.4233   -1.6860   -0.4420 C   0  0  0  0  0  0  0  0  0  0  0  0
    5.9926   -3.8955    1.5764 C   0  0  0  0  0  0  0  0  0  0  0  0
    5.4225   -5.1119    2.3733 C   0  0  0  0  0  0  0  0  0  0  0  0
    4.1758   -5.3158    1.7320 N   0  0  0  0  0  0  0  0  0  0  0  0
    3.1790   -6.2046    1.9378 N   0  0  0  0  0  0  0  0  0  0  0  0
    2.2720   -5.8883    1.0463 N   0  0  0  0  0  0  0  0  0  0  0  0
    2.6664   -4.7976    0.2621 N   0  0  0  0  0  0  0  0  0  0  0  0
    3.8685   -4.5074    0.7500 C   0  0  0  0  0  0  0  0  0  0  0  0
    1.4654   -2.3001   -4.1362 H   0  0  0  0  0  0  0  0  0  0  0  0
    1.5265   -2.9859   -2.5449 H   0  0  0  0  0  0  0  0  0  0  0  0
    2.7132   -3.5173   -3.7395 H   0  0  0  0  0  0  0  0  0  0  0  0
    2.4256   -0.6908   -2.5104 H   0  0  0  0  0  0  0  0  0  0  0  0
    3.1289   -0.6477   -4.8832 H   0  0  0  0  0  0  0  0  0  0  0  0
    4.6132   -1.4851   -4.4316 H   0  0  0  0  0  0  0  0  0  0  0  0
    4.2379    0.1121   -3.7715 H   0  0  0  0  0  0  0  0  0  0  0  0
    3.7282   -3.9902   -1.9638 H   0  0  0  0  0  0  0  0  0  0  0  0
    5.0013   -3.3785   -2.9793 H   0  0  0  0  0  0  0  0  0  0  0  0
    5.8321   -4.6744   -1.0801 H   0  0  0  0  0  0  0  0  0  0  0  0
    6.4785   -3.0429   -1.0064 H   0  0  0  0  0  0  0  0  0  0  0  0
    3.9663   -1.9492    1.6495 H   0  0  0  0  0  0  0  0  0  0  0  0
    5.2754   -1.3739    0.6525 H   0  0  0  0  0  0  0  0  0  0  0  0
    3.1167   -0.6526   -0.2899 H   0  0  0  0  0  0  0  0  0  0  0  0
    2.5227   -2.2926   -0.3396 H   0  0  0  0  0  0  0  0  0  0  0  0
    6.9508   -4.1683    1.1308 H   0  0  0  0  0  0  0  0  0  0  0  0
    6.1953   -3.0617    2.2503 H   0  0  0  0  0  0  0  0  0  0  0  0
    6.0321   -6.0128    2.2765 H   0  0  0  0  0  0  0  0  0  0  0  0
    5.2526   -4.8823    3.4265 H   0  0  0  0  0  0  0  0  0  0  0  0
    4.7787   -1.2230   -1.8455 H   0  0  0  0  0  0  0  0  0  0  0  0
  1  2  1  0
  1 17  1  0
  1 18  1  0
  1 19  1  0
  2  3  1  0
  2  4  1  0
  2 20  1  0
  3 21  1  0
  3 22  1  0
  3 23  1  0
  4  9  1  0
  4  5  1  0
  4 36  1  1
  5  6  1  0
  5 24  1  0
  5 25  1  0
  7  6  1  6
  6 26  1  0
  6 27  1  0
  7 16  1  0
  7  8  1  0
  7 10  1  0
  8  9  1  0
  8 28  1  0
  8 29  1  0
  9 30  1  0
  9 31  1  0
 10 11  1  0
 10 32  1  0
 10 33  1  0
 11 12  1  0
 11 34  1  0
 11 35  1  0
 12 16  1  0
 12 13  1  0
 13 14  2  0
 14 15  1  0
 15 16  2  0
M  CHG  1   4   1
M  END
>  <i_m_ct_stereo_status>  (379) 
1

>  <s_m_source_file>  (379) 
/var/tmp/pbs.5076255.sched01/tmpjgl1obm9/123zpz496x9.sdf

>  <i_m_source_file_index>  (379) 
35

>  <i_lp_mmshare_version>  (379) 
48012

>  <i_f3d_flags>  (379) 
0

>  <s_epik_input>  (379) 
W0NIM11bQ0hdKFtDSDNdKU4oW0NIMl1bQ0gyXTEpW0NIMl1bQ0gyXUMxMmMzbihbQ0gyXVtDSDJdMilubm4z

>  <s_epik_cmdline>  (379) 
J2VwaWtfcHl0aG9uJywgJy1waHQnLCAnMi4wJywgJy1waCcsICc3LjAnLCAnLXRuJywgJzgnLCAnLW1hJywgJzIwMCcsICctaW1hZScsICc8aW5maWxlLm1hZT4nLCAnLW9tYWUnLCAnPG91dGZpbGUubWFlPic=

>  <r_lp_tautomer_probability>  (379) 
1

>  <r_epik_Ionization_Penalty>  (379) 
0.00991671

>  <r_epik_Ionization_Penalty_Charging>  (379) 
0.00991671

>  <r_epik_Ionization_Penalty_Neutral>  (379) 
1.16063e-09

>  <r_epik_State_Penalty>  (379) 
0.00755655

>  <r_epik_Charging_Adjusted_Penalty>  (379) 
0.0174733

>  <i_epik_Tot_Q>  (379) 
1

>  <i_epik_Tot_abs_Q>  (379) 
1

>  <s_lp_Force_Field>  (379) 
OPLS3e

>  <r_lp_Energy>  (379) 
33.7966

>  <b_lp_Chiralities_Consistent>  (379) 
1

>  <s_lp_Variant>  (379) 
111:0-1

>  <s_i_glide_gridfile>  (379) 
pfpi4k_grid

>  <i_i_glide_lignum>  (379) 
35

>  <i_i_glide_rotatable_bonds>  (379) 
1

>  <r_i_docking_score>  (379) 
-4.07153

>  <r_i_glide_ligand_efficiency>  (379) 
-0.25447

>  <r_i_glide_ligand_efficiency_sa>  (379) 
-0.641225

>  <r_i_glide_ligand_efficiency_ln>  (379) 
-1.07924

>  <r_i_glide_gscore>  (379) 
-4.07153

>  <r_i_glide_lipo>  (379) 
-0.5446

>  <r_i_glide_hbond>  (379) 
0

>  <r_i_glide_metal>  (379) 
-0

>  <r_i_glide_rewards>  (379) 
-1.93357

>  <r_i_glide_evdw>  (379) 
-21.0262

>  <r_i_glide_ecoul>  (379) 
-2.87239

>  <r_i_glide_erotb>  (379) 
0

>  <r_i_glide_esite>  (379) 
-0.111191

>  <r_i_glide_emodel>  (379) 
-27.8555

>  <r_i_glide_energy>  (379) 
-23.8986

>  <r_i_glide_einternal>  (379) 
6.92143

>  <r_i_glide_intrahb_reward>  (379) 
-0

>  <i_i_glide_confnum>  (379) 
1

>  <i_i_glide_posenum>  (379) 
10

>  <r_i_glide_eff_state_penalty>  (379) 
0

>  <ligand_id>  (379) 
111

>  <original_smiles>  (379) 
CC(C)N1CCC2(CC1)CCn1nnnc12

>  <smiles>  (379) 
[H]C([H])([H])C([H])(C([H])([H])[H])[N+]1([H])C([H])([H])C([H])([H])C2(c3nnnn3C([H])([H])C2([H])[H])C([H])([H])C1([H])[H]

$$$$
111:0:2
     RDKit          3D

 36 38  0  0  1  0  0  0  0  0999 V2000
    9.0482   -2.6985   -0.2917 C   0  0  0  0  0  0  0  0  0  0  0  0
    7.8032   -2.7656    0.5331 C   0  0  0  0  0  0  0  0  0  0  0  0
    7.7502   -4.1077    1.2801 C   0  0  0  0  0  0  0  0  0  0  0  0
    6.5997   -2.4718   -0.2573 N   0  0  2  0  0  0  0  0  0  0  0  0
    5.4653   -2.0383    0.5964 C   0  0  0  0  0  0  0  0  0  0  0  0
    4.2401   -1.7075   -0.2677 C   0  0  0  0  0  0  0  0  0  0  0  0
    3.9014   -2.9077   -1.1707 C   0  0  2  0  0  0  0  0  0  0  0  0
    5.0875   -3.2670   -2.0717 C   0  0  0  0  0  0  0  0  0  0  0  0
    6.2802   -3.5825   -1.1890 C   0  0  0  0  0  0  0  0  0  0  0  0
    2.6975   -2.5998   -2.0939 C   0  0  0  0  0  0  0  0  0  0  0  0
    1.6040   -3.6340   -1.7363 C   0  0  0  0  0  0  0  0  0  0  0  0
    2.1681   -4.3347   -0.6469 N   0  0  0  0  0  0  0  0  0  0  0  0
    1.7875   -5.4019    0.0486 N   0  0  0  0  0  0  0  0  0  0  0  0
    2.8079   -5.7351    0.8274 N   0  0  0  0  0  0  0  0  0  0  0  0
    3.8648   -4.8848    0.5741 N   0  0  0  0  0  0  0  0  0  0  0  0
    3.4210   -4.0533   -0.3293 C   0  0  0  0  0  0  0  0  0  0  0  0
    9.9126   -2.9477    0.3300 H   0  0  0  0  0  0  0  0  0  0  0  0
    9.1887   -1.6765   -0.6262 H   0  0  0  0  0  0  0  0  0  0  0  0
    9.0507   -3.3723   -1.1481 H   0  0  0  0  0  0  0  0  0  0  0  0
    7.8664   -1.9565    1.2477 H   0  0  0  0  0  0  0  0  0  0  0  0
    8.6729   -4.2323    1.8605 H   0  0  0  0  0  0  0  0  0  0  0  0
    7.6256   -4.9874    0.6467 H   0  0  0  0  0  0  0  0  0  0  0  0
    6.9462   -4.0867    2.0252 H   0  0  0  0  0  0  0  0  0  0  0  0
    5.2086   -2.8157    1.3178 H   0  0  0  0  0  0  0  0  0  0  0  0
    5.7182   -1.1587    1.1845 H   0  0  0  0  0  0  0  0  0  0  0  0
    3.3827   -1.4644    0.3642 H   0  0  0  0  0  0  0  0  0  0  0  0
    4.4292   -0.8231   -0.8857 H   0  0  0  0  0  0  0  0  0  0  0  0
    4.8639   -4.1445   -2.6795 H   0  0  0  0  0  0  0  0  0  0  0  0
    5.3181   -2.4584   -2.7759 H   0  0  0  0  0  0  0  0  0  0  0  0
    7.1122   -3.8241   -1.8540 H   0  0  0  0  0  0  0  0  0  0  0  0
    6.0494   -4.5039   -0.6393 H   0  0  0  0  0  0  0  0  0  0  0  0
    2.3710   -1.5616   -1.9791 H   0  0  0  0  0  0  0  0  0  0  0  0
    2.9270   -2.7145   -3.1556 H   0  0  0  0  0  0  0  0  0  0  0  0
    0.6654   -3.1639   -1.4483 H   0  0  0  0  0  0  0  0  0  0  0  0
    1.4697   -4.3138   -2.5687 H   0  0  0  0  0  0  0  0  0  0  0  0
    6.8022   -1.6590   -0.8213 H   0  0  0  0  0  0  0  0  0  0  0  0
  1  2  1  0
  1 17  1  0
  1 18  1  0
  1 19  1  0
  2  3  1  0
  2  4  1  0
  2 20  1  0
  3 21  1  0
  3 22  1  0
  3 23  1  0
  4  9  1  0
  4  5  1  0
  4 36  1  6
  5  6  1  0
  5 24  1  0
  5 25  1  0
  7  6  1  1
  6 26  1  0
  6 27  1  0
  7 16  1  0
  7  8  1  0
  7 10  1  0
  8  9  1  0
  8 28  1  0
  8 29  1  0
  9 30  1  0
  9 31  1  0
 10 11  1  0
 10 32  1  0
 10 33  1  0
 11 12  1  0
 11 34  1  0
 11 35  1  0
 12 16  1  0
 12 13  1  0
 13 14  2  0
 14 15  1  0
 15 16  2  0
M  CHG  1   4   1
M  END
>  <i_m_ct_stereo_status>  (380) 
1

>  <s_m_source_file>  (380) 
/var/tmp/pbs.5076255.sched01/tmpjgl1obm9/123zpz496x9.sdf

>  <i_m_source_file_index>  (380) 
35

>  <i_lp_mmshare_version>  (380) 
48012

>  <i_f3d_flags>  (380) 
0

>  <s_epik_input>  (380) 
W0NIM11bQ0hdKFtDSDNdKU4oW0NIMl1bQ0gyXTEpW0NIMl1bQ0gyXUMxMmMzbihbQ0gyXVtDSDJdMilubm4z

>  <s_epik_cmdline>  (380) 
J2VwaWtfcHl0aG9uJywgJy1waHQnLCAnMi4wJywgJy1waCcsICc3LjAnLCAnLXRuJywgJzgnLCAnLW1hJywgJzIwMCcsICctaW1hZScsICc8aW5maWxlLm1hZT4nLCAnLW9tYWUnLCAnPG91dGZpbGUubWFlPic=

>  <r_lp_tautomer_probability>  (380) 
1

>  <r_epik_Ionization_Penalty>  (380) 
0.00991671

>  <r_epik_Ionization_Penalty_Charging>  (380) 
0.00991671

>  <r_epik_Ionization_Penalty_Neutral>  (380) 
1.16063e-09

>  <r_epik_State_Penalty>  (380) 
0.00755655

>  <r_epik_Charging_Adjusted_Penalty>  (380) 
0.0174733

>  <i_epik_Tot_Q>  (380) 
1

>  <i_epik_Tot_abs_Q>  (380) 
1

>  <s_lp_Force_Field>  (380) 
OPLS3e

>  <r_lp_Energy>  (380) 
33.7966

>  <b_lp_Chiralities_Consistent>  (380) 
1

>  <s_lp_Variant>  (380) 
111:0-1

>  <s_i_glide_gridfile>  (380) 
pfpi4k_grid

>  <i_i_glide_lignum>  (380) 
35

>  <i_i_glide_rotatable_bonds>  (380) 
1

>  <r_i_docking_score>  (380) 
-3.47017

>  <r_i_glide_ligand_efficiency>  (380) 
-0.216886

>  <r_i_glide_ligand_efficiency_sa>  (380) 
-0.546518

>  <r_i_glide_ligand_efficiency_ln>  (380) 
-0.919839

>  <r_i_glide_gscore>  (380) 
-3.47017

>  <r_i_glide_lipo>  (380) 
-0.58547

>  <r_i_glide_hbond>  (380) 
0

>  <r_i_glide_metal>  (380) 
-0

>  <r_i_glide_rewards>  (380) 
-1.89334

>  <r_i_glide_evdw>  (380) 
-6.54094

>  <r_i_glide_ecoul>  (380) 
-2.95645

>  <r_i_glide_erotb>  (380) 
0

>  <r_i_glide_esite>  (380) 
-0.220846

>  <r_i_glide_emodel>  (380) 
-12.0894

>  <r_i_glide_energy>  (380) 
-9.49739

>  <r_i_glide_einternal>  (380) 
5.05064

>  <r_i_glide_intrahb_reward>  (380) 
-0

>  <i_i_glide_confnum>  (380) 
2

>  <i_i_glide_posenum>  (380) 
2

>  <r_i_glide_eff_state_penalty>  (380) 
0

>  <ligand_id>  (380) 
111

>  <original_smiles>  (380) 
CC(C)N1CCC2(CC1)CCn1nnnc12

>  <smiles>  (380) 
[H]C([H])([H])C([H])(C([H])([H])[H])[N+]1([H])C([H])([H])C([H])([H])C2(c3nnnn3C([H])([H])C2([H])[H])C([H])([H])C1([H])[H]

$$$$
111:1:0
     RDKit          3D

 35 37  0  0  1  0  0  0  0  0999 V2000
    2.2463   -2.2667   -3.9196 C   0  0  0  0  0  0  0  0  0  0  0  0
    3.0067   -1.3615   -2.9299 C   0  0  0  0  0  0  0  0  0  0  0  0
    3.8294   -0.2815   -3.6641 C   0  0  0  0  0  0  0  0  0  0  0  0
    3.7525   -2.1828   -1.9757 N   0  0  0  0  0  0  0  0  0  0  0  0
    4.4301   -1.3849   -0.9442 C   0  0  0  0  0  0  0  0  0  0  0  0
    5.1174   -2.2687    0.1154 C   0  0  0  0  0  0  0  0  0  0  0  0
    6.0724   -3.2802   -0.5464 C   0  0  0  0  0  0  0  0  0  0  0  0
    5.2922   -4.0120   -1.6430 C   0  0  0  0  0  0  0  0  0  0  0  0
    4.6834   -3.0731   -2.6511 C   0  0  0  0  0  0  0  0  0  0  0  0
    7.3734   -2.5878   -1.0838 C   0  0  0  0  0  0  0  0  0  0  0  0
    8.4648   -2.7274    0.0217 C   0  0  0  0  0  0  0  0  0  0  0  0
    7.9153   -3.8572    0.6963 N   0  0  0  0  0  0  0  0  0  0  0  0
    8.4347   -4.6973    1.6031 N   0  0  0  0  0  0  0  0  0  0  0  0
    7.4528   -5.5009    1.9053 N   0  0  0  0  0  0  0  0  0  0  0  0
    6.2920   -5.1966    1.1935 N   0  0  0  0  0  0  0  0  0  0  0  0
    6.6826   -4.1759    0.4514 C   0  0  0  0  0  0  0  0  0  0  0  0
    1.5734   -1.6896   -4.5601 H   0  0  0  0  0  0  0  0  0  0  0  0
    1.6560   -3.0227   -3.4225 H   0  0  0  0  0  0  0  0  0  0  0  0
    2.9048   -2.7628   -4.6422 H   0  0  0  0  0  0  0  0  0  0  0  0
    2.2614   -0.8374   -2.3344 H   0  0  0  0  0  0  0  0  0  0  0  0
    3.1804    0.3498   -4.2741 H   0  0  0  0  0  0  0  0  0  0  0  0
    4.5712   -0.7360   -4.3195 H   0  0  0  0  0  0  0  0  0  0  0  0
    4.3454    0.3920   -2.9765 H   0  0  0  0  0  0  0  0  0  0  0  0
    5.2036   -0.7548   -1.3882 H   0  0  0  0  0  0  0  0  0  0  0  0
    3.7007   -0.7330   -0.4573 H   0  0  0  0  0  0  0  0  0  0  0  0
    5.6616   -1.6286    0.8174 H   0  0  0  0  0  0  0  0  0  0  0  0
    4.3595   -2.8083    0.6902 H   0  0  0  0  0  0  0  0  0  0  0  0
    5.8835   -4.6413   -2.2769 H   0  0  0  0  0  0  0  0  0  0  0  0
    4.5361   -4.6652   -1.1989 H   0  0  0  0  0  0  0  0  0  0  0  0
    4.1873   -3.7473   -3.3482 H   0  0  0  0  0  0  0  0  0  0  0  0
    5.4487   -2.5207   -3.2028 H   0  0  0  0  0  0  0  0  0  0  0  0
    7.7660   -3.1136   -1.9639 H   0  0  0  0  0  0  0  0  0  0  0  0
    7.1564   -1.5685   -1.3717 H   0  0  0  0  0  0  0  0  0  0  0  0
    9.4757   -2.9340   -0.3253 H   0  0  0  0  0  0  0  0  0  0  0  0
    8.4687   -1.8659    0.6968 H   0  0  0  0  0  0  0  0  0  0  0  0
  1  2  1  0
  1 17  1  0
  1 18  1  0
  1 19  1  0
  2  3  1  0
  2  4  1  0
  2 20  1  0
  3 21  1  0
  3 22  1  0
  3 23  1  0
  4  9  1  0
  4  5  1  0
  5  6  1  0
  5 24  1  0
  5 25  1  0
  6  7  1  0
  6 26  1  0
  6 27  1  0
  7 16  1  0
  7  8  1  0
  7 10  1  0
  8  9  1  0
  8 28  1  0
  8 29  1  0
  9 30  1  0
  9 31  1  0
 10 11  1  0
 10 32  1  0
 10 33  1  0
 11 12  1  0
 11 34  1  0
 11 35  1  0
 12 16  1  0
 12 13  1  0
 13 14  2  0
 14 15  1  0
 15 16  2  0
M  END
>  <i_m_ct_stereo_status>  (381) 
1

>  <s_m_source_file>  (381) 
/var/tmp/pbs.5076255.sched01/tmpjgl1obm9/123zpz496x9.sdf

>  <i_m_source_file_index>  (381) 
36

>  <i_lp_mmshare_version>  (381) 
48012

>  <i_f3d_flags>  (381) 
0

>  <s_epik_input>  (381) 
W0NIM11bQ0hdKFtDSDNdKU4oW0NIMl1bQ0gyXTEpW0NIMl1bQ0gyXUMxMmMzbihbQ0gyXVtDSDJdMilubm4z

>  <s_epik_cmdline>  (381) 
J2VwaWtfcHl0aG9uJywgJy1waHQnLCAnMi4wJywgJy1waCcsICc3LjAnLCAnLXRuJywgJzgnLCAnLW1hJywgJzIwMCcsICctaW1hZScsICc8aW5maWxlLm1hZT4nLCAnLW9tYWUnLCAnPG91dGZpbGUubWFlPic=

>  <r_lp_tautomer_probability>  (381) 
1

>  <r_epik_Ionization_Penalty>  (381) 
2.42828

>  <r_epik_Ionization_Penalty_Charging>  (381) 
0

>  <r_epik_Ionization_Penalty_Neutral>  (381) 
2.42828

>  <r_epik_State_Penalty>  (381) 
2.58815

>  <r_epik_Charging_Adjusted_Penalty>  (381) 
2.58815

>  <i_epik_Tot_Q>  (381) 
0

>  <i_epik_Tot_abs_Q>  (381) 
0

>  <s_lp_Force_Field>  (381) 
OPLS3e

>  <r_lp_Energy>  (381) 
19.2006

>  <b_lp_Chiralities_Consistent>  (381) 
1

>  <s_lp_Variant>  (381) 
111:0-2

>  <s_i_glide_gridfile>  (381) 
pfpi4k_grid

>  <i_i_glide_lignum>  (381) 
36

>  <i_i_glide_rotatable_bonds>  (381) 
1

>  <r_i_docking_score>  (381) 
-3.59088

>  <r_i_glide_ligand_efficiency>  (381) 
-0.22443

>  <r_i_glide_ligand_efficiency_sa>  (381) 
-0.565528

>  <r_i_glide_ligand_efficiency_ln>  (381) 
-0.951835

>  <r_i_glide_gscore>  (381) 
-3.59088

>  <r_i_glide_lipo>  (381) 
-0.620785

>  <r_i_glide_hbond>  (381) 
0

>  <r_i_glide_metal>  (381) 
-0

>  <r_i_glide_rewards>  (381) 
-2.28347

>  <r_i_glide_evdw>  (381) 
-18.3623

>  <r_i_glide_ecoul>  (381) 
1.54324

>  <r_i_glide_erotb>  (381) 
0

>  <r_i_glide_esite>  (381) 
0

>  <r_i_glide_emodel>  (381) 
-18.8988

>  <r_i_glide_energy>  (381) 
-16.8191

>  <r_i_glide_einternal>  (381) 
1.78743

>  <r_i_glide_intrahb_reward>  (381) 
-0

>  <i_i_glide_confnum>  (381) 
3

>  <i_i_glide_posenum>  (381) 
38

>  <r_i_glide_eff_state_penalty>  (381) 
0

>  <ligand_id>  (381) 
111

>  <original_smiles>  (381) 
CC(C)N1CCC2(CC1)CCn1nnnc12

>  <smiles>  (381) 
[H]C([H])([H])C([H])(N1C([H])([H])C([H])([H])C2(c3nnnn3C([H])([H])C2([H])[H])C([H])([H])C1([H])[H])C([H])([H])[H]

$$$$
111:1:1
     RDKit          3D

 35 37  0  0  1  0  0  0  0  0999 V2000
    5.3294   -3.3970   -2.8777 C   0  0  0  0  0  0  0  0  0  0  0  0
    4.3691   -2.7864   -1.8309 C   0  0  0  0  0  0  0  0  0  0  0  0
    4.3561   -1.2495   -1.9251 C   0  0  0  0  0  0  0  0  0  0  0  0
    4.6302   -3.2490   -0.4554 N   0  0  0  0  0  0  0  0  0  0  0  0
    6.0337   -3.0819   -0.0553 C   0  0  0  0  0  0  0  0  0  0  0  0
    6.2564   -3.5153    1.3956 C   0  0  0  0  0  0  0  0  0  0  0  0
    5.8135   -4.9717    1.6309 C   0  0  0  0  0  0  0  0  0  0  0  0
    4.3623   -5.1392    1.1446 C   0  0  0  0  0  0  0  0  0  0  0  0
    4.2010   -4.6480   -0.2988 C   0  0  0  0  0  0  0  0  0  0  0  0
    6.8192   -5.9930    0.9810 C   0  0  0  0  0  0  0  0  0  0  0  0
    7.8036   -6.4397    2.1053 C   0  0  0  0  0  0  0  0  0  0  0  0
    7.0132   -6.1077    3.2384 N   0  0  0  0  0  0  0  0  0  0  0  0
    7.1542   -6.3665    4.5539 N   0  0  0  0  0  0  0  0  0  0  0  0
    6.1499   -5.7503    5.1287 N   0  0  0  0  0  0  0  0  0  0  0  0
    5.3582   -5.0567    4.1989 N   0  0  0  0  0  0  0  0  0  0  0  0
    5.9662   -5.3504    3.0564 C   0  0  0  0  0  0  0  0  0  0  0  0
    5.0020   -3.1874   -3.8946 H   0  0  0  0  0  0  0  0  0  0  0  0
    5.4002   -4.4782   -2.7877 H   0  0  0  0  0  0  0  0  0  0  0  0
    6.3360   -2.9897   -2.7805 H   0  0  0  0  0  0  0  0  0  0  0  0
    3.3534   -3.0979   -2.0775 H   0  0  0  0  0  0  0  0  0  0  0  0
    4.0310   -0.9298   -2.9165 H   0  0  0  0  0  0  0  0  0  0  0  0
    5.3390   -0.8114   -1.7570 H   0  0  0  0  0  0  0  0  0  0  0  0
    3.6654   -0.8105   -1.2056 H   0  0  0  0  0  0  0  0  0  0  0  0
    6.6890   -3.6784   -0.6922 H   0  0  0  0  0  0  0  0  0  0  0  0
    6.3370   -2.0391   -0.1574 H   0  0  0  0  0  0  0  0  0  0  0  0
    7.3155   -3.4179    1.6342 H   0  0  0  0  0  0  0  0  0  0  0  0
    5.7234   -2.8421    2.0717 H   0  0  0  0  0  0  0  0  0  0  0  0
    4.0527   -6.1835    1.2082 H   0  0  0  0  0  0  0  0  0  0  0  0
    3.6837   -4.5819    1.7969 H   0  0  0  0  0  0  0  0  0  0  0  0
    3.1490   -4.7300   -0.5828 H   0  0  0  0  0  0  0  0  0  0  0  0
    4.7764   -5.3097   -0.9504 H   0  0  0  0  0  0  0  0  0  0  0  0
    6.2636   -6.8913    0.6984 H   0  0  0  0  0  0  0  0  0  0  0  0
    7.3253   -5.6367    0.0856 H   0  0  0  0  0  0  0  0  0  0  0  0
    8.0541   -7.4966    2.1006 H   0  0  0  0  0  0  0  0  0  0  0  0
    8.7096   -5.8333    2.1143 H   0  0  0  0  0  0  0  0  0  0  0  0
  1  2  1  0
  1 17  1  0
  1 18  1  0
  1 19  1  0
  2  3  1  0
  2  4  1  0
  2 20  1  0
  3 21  1  0
  3 22  1  0
  3 23  1  0
  4  9  1  0
  4  5  1  0
  5  6  1  0
  5 24  1  0
  5 25  1  0
  6  7  1  0
  6 26  1  0
  6 27  1  0
  7 16  1  0
  7  8  1  0
  7 10  1  0
  8  9  1  0
  8 28  1  0
  8 29  1  0
  9 30  1  0
  9 31  1  0
 10 11  1  0
 10 32  1  0
 10 33  1  0
 11 12  1  0
 11 34  1  0
 11 35  1  0
 12 16  1  0
 12 13  1  0
 13 14  2  0
 14 15  1  0
 15 16  2  0
M  END
>  <i_m_ct_stereo_status>  (382) 
1

>  <s_m_source_file>  (382) 
/var/tmp/pbs.5076255.sched01/tmpjgl1obm9/123zpz496x9.sdf

>  <i_m_source_file_index>  (382) 
36

>  <i_lp_mmshare_version>  (382) 
48012

>  <i_f3d_flags>  (382) 
0

>  <s_epik_input>  (382) 
W0NIM11bQ0hdKFtDSDNdKU4oW0NIMl1bQ0gyXTEpW0NIMl1bQ0gyXUMxMmMzbihbQ0gyXVtDSDJdMilubm4z

>  <s_epik_cmdline>  (382) 
J2VwaWtfcHl0aG9uJywgJy1waHQnLCAnMi4wJywgJy1waCcsICc3LjAnLCAnLXRuJywgJzgnLCAnLW1hJywgJzIwMCcsICctaW1hZScsICc8aW5maWxlLm1hZT4nLCAnLW9tYWUnLCAnPG91dGZpbGUubWFlPic=

>  <r_lp_tautomer_probability>  (382) 
1

>  <r_epik_Ionization_Penalty>  (382) 
2.42828

>  <r_epik_Ionization_Penalty_Charging>  (382) 
0

>  <r_epik_Ionization_Penalty_Neutral>  (382) 
2.42828

>  <r_epik_State_Penalty>  (382) 
2.58815

>  <r_epik_Charging_Adjusted_Penalty>  (382) 
2.58815

>  <i_epik_Tot_Q>  (382) 
0

>  <i_epik_Tot_abs_Q>  (382) 
0

>  <s_lp_Force_Field>  (382) 
OPLS3e

>  <r_lp_Energy>  (382) 
19.2006

>  <b_lp_Chiralities_Consistent>  (382) 
1

>  <s_lp_Variant>  (382) 
111:0-2

>  <s_i_glide_gridfile>  (382) 
pfpi4k_grid

>  <i_i_glide_lignum>  (382) 
36

>  <i_i_glide_rotatable_bonds>  (382) 
1

>  <r_i_docking_score>  (382) 
-3.4105

>  <r_i_glide_ligand_efficiency>  (382) 
-0.213156

>  <r_i_glide_ligand_efficiency_sa>  (382) 
-0.53712

>  <r_i_glide_ligand_efficiency_ln>  (382) 
-0.90402

>  <r_i_glide_gscore>  (382) 
-3.4105

>  <r_i_glide_lipo>  (382) 
-0.524721

>  <r_i_glide_hbond>  (382) 
0

>  <r_i_glide_metal>  (382) 
-0

>  <r_i_glide_rewards>  (382) 
-1.92702

>  <r_i_glide_evdw>  (382) 
-18.5223

>  <r_i_glide_ecoul>  (382) 
-0.217625

>  <r_i_glide_erotb>  (382) 
0

>  <r_i_glide_esite>  (382) 
0

>  <r_i_glide_emodel>  (382) 
-21.5934

>  <r_i_glide_energy>  (382) 
-18.7399

>  <r_i_glide_einternal>  (382) 
1.52853

>  <r_i_glide_intrahb_reward>  (382) 
-0

>  <i_i_glide_confnum>  (382) 
3

>  <i_i_glide_posenum>  (382) 
12

>  <r_i_glide_eff_state_penalty>  (382) 
0

>  <ligand_id>  (382) 
111

>  <original_smiles>  (382) 
CC(C)N1CCC2(CC1)CCn1nnnc12

>  <smiles>  (382) 
[H]C([H])([H])C([H])(N1C([H])([H])C([H])([H])C2(c3nnnn3C([H])([H])C2([H])[H])C([H])([H])C1([H])[H])C([H])([H])[H]

$$$$
111:1:2
     RDKit          3D

 35 37  0  0  1  0  0  0  0  0999 V2000
    2.6115   -1.4303   -4.3101 C   0  0  0  0  0  0  0  0  0  0  0  0
    3.1135   -0.9016   -2.9783 C   0  0  0  0  0  0  0  0  0  0  0  0
    4.1772    0.1445   -3.2772 C   0  0  0  0  0  0  0  0  0  0  0  0
    3.5828   -2.0058   -2.1333 N   0  0  0  0  0  0  0  0  0  0  0  0
    3.9662   -1.5181   -0.8057 C   0  0  0  0  0  0  0  0  0  0  0  0
    4.3438   -2.6598    0.1342 C   0  0  0  0  0  0  0  0  0  0  0  0
    5.4502   -3.5405   -0.4797 C   0  0  0  0  0  0  0  0  0  0  0  0
    5.0353   -3.9623   -1.8874 C   0  0  0  0  0  0  0  0  0  0  0  0
    4.6581   -2.7792   -2.7559 C   0  0  0  0  0  0  0  0  0  0  0  0
    6.8545   -2.8380   -0.4577 C   0  0  0  0  0  0  0  0  0  0  0  0
    7.5752   -3.3567    0.8061 C   0  0  0  0  0  0  0  0  0  0  0  0
    6.8385   -4.5585    1.0273 N   0  0  0  0  0  0  0  0  0  0  0  0
    7.0484   -5.5889    1.8527 N   0  0  0  0  0  0  0  0  0  0  0  0
    6.0125   -6.3796    1.6496 N   0  0  0  0  0  0  0  0  0  0  0  0
    5.1095   -5.8400    0.7212 N   0  0  0  0  0  0  0  0  0  0  0  0
    5.7193   -4.7104    0.3849 C   0  0  0  0  0  0  0  0  0  0  0  0
    2.0938   -0.6416   -4.8446 H   0  0  0  0  0  0  0  0  0  0  0  0
    1.8798   -2.2136   -4.1493 H   0  0  0  0  0  0  0  0  0  0  0  0
    3.3881   -1.8100   -4.9905 H   0  0  0  0  0  0  0  0  0  0  0  0
    2.2708   -0.4268   -2.4656 H   0  0  0  0  0  0  0  0  0  0  0  0
    3.7797    0.9872   -3.8529 H   0  0  0  0  0  0  0  0  0  0  0  0
    4.9539   -0.3415   -3.8559 H   0  0  0  0  0  0  0  0  0  0  0  0
    4.6079    0.5355   -2.3697 H   0  0  0  0  0  0  0  0  0  0  0  0
    4.8360   -0.8731   -0.8620 H   0  0  0  0  0  0  0  0  0  0  0  0
    3.1476   -0.9382   -0.3824 H   0  0  0  0  0  0  0  0  0  0  0  0
    4.6773   -2.2430    1.0883 H   0  0  0  0  0  0  0  0  0  0  0  0
    3.4545   -3.2572    0.3378 H   0  0  0  0  0  0  0  0  0  0  0  0
    5.8162   -4.5143   -2.4045 H   0  0  0  0  0  0  0  0  0  0  0  0
    4.1911   -4.6343   -1.7903 H   0  0  0  0  0  0  0  0  0  0  0  0
    4.3434   -3.2143   -3.7044 H   0  0  0  0  0  0  0  0  0  0  0  0
    5.5362   -2.1594   -2.9329 H   0  0  0  0  0  0  0  0  0  0  0  0
    7.4454   -3.1940   -1.3022 H   0  0  0  0  0  0  0  0  0  0  0  0
    6.8171   -1.7512   -0.5277 H   0  0  0  0  0  0  0  0  0  0  0  0
    8.6409   -3.5610    0.7065 H   0  0  0  0  0  0  0  0  0  0  0  0
    7.3635   -2.7001    1.6442 H   0  0  0  0  0  0  0  0  0  0  0  0
  1  2  1  0
  1 17  1  0
  1 18  1  0
  1 19  1  0
  2  3  1  0
  2  4  1  0
  2 20  1  0
  3 21  1  0
  3 22  1  0
  3 23  1  0
  4  9  1  0
  4  5  1  0
  5  6  1  0
  5 24  1  0
  5 25  1  0
  6  7  1  0
  6 26  1  0
  6 27  1  0
  7 16  1  0
  7  8  1  0
  7 10  1  0
  8  9  1  0
  8 28  1  0
  8 29  1  0
  9 30  1  0
  9 31  1  0
 10 11  1  0
 10 32  1  0
 10 33  1  0
 11 12  1  0
 11 34  1  0
 11 35  1  0
 12 16  1  0
 12 13  1  0
 13 14  2  0
 14 15  1  0
 15 16  2  0
M  END
>  <i_m_ct_stereo_status>  (383) 
1

>  <s_m_source_file>  (383) 
/var/tmp/pbs.5076255.sched01/tmpjgl1obm9/123zpz496x9.sdf

>  <i_m_source_file_index>  (383) 
36

>  <i_lp_mmshare_version>  (383) 
48012

>  <i_f3d_flags>  (383) 
0

>  <s_epik_input>  (383) 
W0NIM11bQ0hdKFtDSDNdKU4oW0NIMl1bQ0gyXTEpW0NIMl1bQ0gyXUMxMmMzbihbQ0gyXVtDSDJdMilubm4z

>  <s_epik_cmdline>  (383) 
J2VwaWtfcHl0aG9uJywgJy1waHQnLCAnMi4wJywgJy1waCcsICc3LjAnLCAnLXRuJywgJzgnLCAnLW1hJywgJzIwMCcsICctaW1hZScsICc8aW5maWxlLm1hZT4nLCAnLW9tYWUnLCAnPG91dGZpbGUubWFlPic=

>  <r_lp_tautomer_probability>  (383) 
1

>  <r_epik_Ionization_Penalty>  (383) 
2.42828

>  <r_epik_Ionization_Penalty_Charging>  (383) 
0

>  <r_epik_Ionization_Penalty_Neutral>  (383) 
2.42828

>  <r_epik_State_Penalty>  (383) 
2.58815

>  <r_epik_Charging_Adjusted_Penalty>  (383) 
2.58815

>  <i_epik_Tot_Q>  (383) 
0

>  <i_epik_Tot_abs_Q>  (383) 
0

>  <s_lp_Force_Field>  (383) 
OPLS3e

>  <r_lp_Energy>  (383) 
19.2006

>  <b_lp_Chiralities_Consistent>  (383) 
1

>  <s_lp_Variant>  (383) 
111:0-2

>  <s_i_glide_gridfile>  (383) 
pfpi4k_grid

>  <i_i_glide_lignum>  (383) 
36

>  <i_i_glide_rotatable_bonds>  (383) 
1

>  <r_i_docking_score>  (383) 
-2.95627

>  <r_i_glide_ligand_efficiency>  (383) 
-0.184767

>  <r_i_glide_ligand_efficiency_sa>  (383) 
-0.465584

>  <r_i_glide_ligand_efficiency_ln>  (383) 
-0.783619

>  <r_i_glide_gscore>  (383) 
-2.95627

>  <r_i_glide_lipo>  (383) 
-0.344996

>  <r_i_glide_hbond>  (383) 
0

>  <r_i_glide_metal>  (383) 
-0

>  <r_i_glide_rewards>  (383) 
-2.18594

>  <r_i_glide_evdw>  (383) 
-11.4356

>  <r_i_glide_ecoul>  (383) 
0.976307

>  <r_i_glide_erotb>  (383) 
0

>  <r_i_glide_esite>  (383) 
0

>  <r_i_glide_emodel>  (383) 
-12.3625

>  <r_i_glide_energy>  (383) 
-10.4593

>  <r_i_glide_einternal>  (383) 
0.914917

>  <r_i_glide_intrahb_reward>  (383) 
-0

>  <i_i_glide_confnum>  (383) 
3

>  <i_i_glide_posenum>  (383) 
24

>  <r_i_glide_eff_state_penalty>  (383) 
0

>  <ligand_id>  (383) 
111

>  <original_smiles>  (383) 
CC(C)N1CCC2(CC1)CCn1nnnc12

>  <smiles>  (383) 
[H]C([H])([H])C([H])(N1C([H])([H])C([H])([H])C2(c3nnnn3C([H])([H])C2([H])[H])C([H])([H])C1([H])[H])C([H])([H])[H]

$$$$
112:0:0
     RDKit          3D

 62 66  0  0  1  0  0  0  0  0999 V2000
    6.9297   -2.5381   -1.1548 C   0  0  0  0  0  0  0  0  0  0  0  0
    5.4955   -2.5003   -0.5838 C   0  0  0  0  0  0  0  0  0  0  0  0
    4.9762   -1.0551   -0.6678 C   0  0  0  0  0  0  0  0  0  0  0  0
    4.6374   -3.4978   -1.3903 C   0  0  0  0  0  0  0  0  0  0  0  0
    4.7352   -4.7609   -0.5751 C   0  0  0  0  0  0  0  0  0  0  0  0
    5.2086   -4.5501    0.6568 C   0  0  0  0  0  0  0  0  0  0  0  0
    5.5237   -3.0976    0.8543 C   0  0  2  0  0  0  0  0  0  0  0  0
    4.5584   -2.5769    1.9309 C   0  0  1  0  0  0  0  0  0  0  0  0
    2.8304   -2.6936    1.4694 Cl  0  0  0  0  0  0  0  0  0  0  0  0
    4.8027   -3.3750    3.2231 C   0  0  1  0  0  0  0  0  0  0  0  0
    4.0782   -2.7318    4.2471 O   0  0  0  0  0  0  0  0  0  0  0  0
    4.6579   -4.9335    3.1254 C   0  0  1  0  0  0  0  0  0  0  0  0
    4.9909   -5.5932    4.4577 C   0  0  0  0  0  0  0  0  0  0  0  0
    3.6179   -5.8151    3.8980 C   0  0  1  0  0  0  0  0  0  0  0  0
    2.5114   -5.3308    4.8479 C   0  0  0  0  0  0  0  0  0  0  0  0
    1.1191   -5.2960    4.2201 C   0  0  0  0  0  0  0  0  0  0  0  0
    0.7574   -6.6894    3.7033 C   0  0  1  0  0  0  0  0  0  0  0  0
   -0.5703   -6.6645    3.2008 O   0  0  0  0  0  0  0  0  0  0  0  0
    1.7854   -7.2077    2.6543 C   0  0  0  0  0  0  0  0  0  0  0  0
    1.3380   -8.6383    2.2701 C   0  0  0  0  0  0  0  0  0  0  0  0
    1.7201   -6.3083    1.3923 C   0  0  0  0  0  0  0  0  0  0  0  0
    3.2154   -7.2086    3.3517 C   0  0  1  0  0  0  0  0  0  0  0  0
    4.4227   -7.8345    2.5901 C   0  0  1  0  0  0  0  0  0  0  0  0
    4.1965   -9.1357    2.1060 O   0  0  0  0  0  0  0  0  0  0  0  0
    4.9252   -6.9519    1.4479 C   0  0  0  0  0  0  0  0  0  0  0  0
    5.3896   -5.5090    1.8453 C   0  0  1  0  0  0  0  0  0  0  0  0
    6.9178   -5.6114    2.0885 C   0  0  0  0  0  0  0  0  0  0  0  0
    6.9512   -2.2294   -2.2016 H   0  0  0  0  0  0  0  0  0  0  0  0
    7.3481   -3.5451   -1.1219 H   0  0  0  0  0  0  0  0  0  0  0  0
    7.6036   -1.8921   -0.5872 H   0  0  0  0  0  0  0  0  0  0  0  0
    3.9310   -0.9684   -0.3689 H   0  0  0  0  0  0  0  0  0  0  0  0
    5.0416   -0.6698   -1.6864 H   0  0  0  0  0  0  0  0  0  0  0  0
    5.5577   -0.3890   -0.0283 H   0  0  0  0  0  0  0  0  0  0  0  0
    3.5888   -3.1963   -1.4256 H   0  0  0  0  0  0  0  0  0  0  0  0
    4.9813   -3.6459   -2.4149 H   0  0  0  0  0  0  0  0  0  0  0  0
    4.4055   -5.7008   -0.9745 H   0  0  0  0  0  0  0  0  0  0  0  0
    6.5387   -3.0075    1.2438 H   0  0  0  0  0  0  0  0  0  0  0  0
    4.7584   -1.5206    2.1070 H   0  0  0  0  0  0  0  0  0  0  0  0
    5.8336   -3.1939    3.5045 H   0  0  0  0  0  0  0  0  0  0  0  0
    3.1585   -2.8014    4.0441 H   0  0  0  0  0  0  0  0  0  0  0  0
    5.7081   -6.4064    4.4989 H   0  0  0  0  0  0  0  0  0  0  0  0
    5.0662   -4.9426    5.3246 H   0  0  0  0  0  0  0  0  0  0  0  0
    2.4948   -6.0049    5.7052 H   0  0  0  0  0  0  0  0  0  0  0  0
    2.7342   -4.3624    5.2743 H   0  0  0  0  0  0  0  0  0  0  0  0
    0.3967   -4.9885    4.9773 H   0  0  0  0  0  0  0  0  0  0  0  0
    1.0664   -4.5473    3.4279 H   0  0  0  0  0  0  0  0  0  0  0  0
    0.7553   -7.3685    4.5577 H   0  0  0  0  0  0  0  0  0  0  0  0
   -0.8555   -7.5634    3.1201 H   0  0  0  0  0  0  0  0  0  0  0  0
    1.8630   -9.0119    1.3917 H   0  0  0  0  0  0  0  0  0  0  0  0
    0.2827   -8.6970    2.0058 H   0  0  0  0  0  0  0  0  0  0  0  0
    1.5056   -9.3395    3.0887 H   0  0  0  0  0  0  0  0  0  0  0  0
    2.0728   -6.8150    0.4992 H   0  0  0  0  0  0  0  0  0  0  0  0
    2.3082   -5.4010    1.5128 H   0  0  0  0  0  0  0  0  0  0  0  0
    0.7033   -6.0024    1.1589 H   0  0  0  0  0  0  0  0  0  0  0  0
    3.0989   -7.8401    4.2350 H   0  0  0  0  0  0  0  0  0  0  0  0
    5.2448   -7.9916    3.2844 H   0  0  0  0  0  0  0  0  0  0  0  0
    3.9895   -9.7067    2.8312 H   0  0  0  0  0  0  0  0  0  0  0  0
    5.7477   -7.4704    0.9540 H   0  0  0  0  0  0  0  0  0  0  0  0
    4.1530   -6.9460    0.6921 H   0  0  0  0  0  0  0  0  0  0  0  0
    7.1792   -6.4068    2.7844 H   0  0  0  0  0  0  0  0  0  0  0  0
    7.3375   -4.6876    2.4748 H   0  0  0  0  0  0  0  0  0  0  0  0
    7.4455   -5.8308    1.1575 H   0  0  0  0  0  0  0  0  0  0  0  0
  1  2  1  0
  1 28  1  0
  1 29  1  0
  1 30  1  0
  2  7  1  0
  2  3  1  0
  2  4  1  0
  3 31  1  0
  3 32  1  0
  3 33  1  0
  4  5  1  0
  4 34  1  0
  4 35  1  0
  5  6  2  0
  5 36  1  0
  6 26  1  0
  6  7  1  0
  7  8  1  0
  7 37  1  1
  8  9  1  0
  8 10  1  0
  8 38  1  1
 10 11  1  0
 10 12  1  0
 10 39  1  1
 11 40  1  0
 12 14  1  0
 12 26  1  0
 12 13  1  1
 14 13  1  1
 13 41  1  0
 13 42  1  0
 14 22  1  0
 14 15  1  0
 15 16  1  0
 15 43  1  0
 15 44  1  0
 16 17  1  0
 16 45  1  0
 16 46  1  0
 17 18  1  0
 17 19  1  0
 17 47  1  1
 18 48  1  0
 19 20  1  0
 19 21  1  0
 19 22  1  0
 20 49  1  0
 20 50  1  0
 20 51  1  0
 21 52  1  0
 21 53  1  0
 21 54  1  0
 22 23  1  0
 22 55  1  1
 23 24  1  0
 23 25  1  0
 23 56  1  1
 24 57  1  0
 25 26  1  0
 25 58  1  0
 25 59  1  0
 26 27  1  1
 27 60  1  0
 27 61  1  0
 27 62  1  0
M  END
>  <i_m_ct_stereo_status>  (384) 
1

>  <s_m_source_file>  (384) 
/var/tmp/pbs.5076255.sched01/tmpjgl1obm9/123zpz496x9.sdf

>  <i_m_source_file_index>  (384) 
37

>  <i_lp_mmshare_version>  (384) 
48012

>  <i_f3d_flags>  (384) 
0

>  <s_epik_input>  (384) 
W0NIXT0xW0NIMl1DKFtDSDNdKShbQ0gzXSlbQ0BASF0oW0NAQEhdKENsKVtDQEhdMltPSF0pQzFbQ0BdMyhbQ0gzXSlbQ0gyXVtDQEhdKFtPSF0pW0NAQEhdKFtDQF00KFtDQF0yMzUpW0NIMl01KUMoW0NIM10pKFtDSDNdKVtDQEhdKFtPSF0pW0NIMl1bQ0gyXTQ=

>  <s_epik_cmdline>  (384) 
J2VwaWtfcHl0aG9uJywgJy1waHQnLCAnMi4wJywgJy1waCcsICc3LjAnLCAnLXRuJywgJzgnLCAnLW1hJywgJzIwMCcsICctaW1hZScsICc8aW5maWxlLm1hZT4nLCAnLW9tYWUnLCAnPG91dGZpbGUubWFlPic=

>  <r_lp_tautomer_probability>  (384) 
1

>  <r_epik_Ionization_Penalty>  (384) 
3.05863e-06

>  <r_epik_Ionization_Penalty_Charging>  (384) 
0

>  <r_epik_Ionization_Penalty_Neutral>  (384) 
3.05863e-06

>  <r_epik_State_Penalty>  (384) 
-0

>  <r_epik_Charging_Adjusted_Penalty>  (384) 
0

>  <i_epik_Tot_Q>  (384) 
0

>  <i_epik_Tot_abs_Q>  (384) 
0

>  <s_lp_Force_Field>  (384) 
OPLS3e

>  <r_lp_Energy>  (384) 
59.5474

>  <b_lp_Chiralities_Consistent>  (384) 
1

>  <s_lp_Variant>  (384) 
112:0-1

>  <s_i_glide_gridfile>  (384) 
pfpi4k_grid

>  <i_i_glide_lignum>  (384) 
37

>  <i_i_glide_rotatable_bonds>  (384) 
3

>  <r_i_docking_score>  (384) 
-2.93084

>  <r_i_glide_ligand_efficiency>  (384) 
-0.10855

>  <r_i_glide_ligand_efficiency_sa>  (384) 
-0.325649

>  <r_i_glide_ligand_efficiency_ln>  (384) 
-0.682251

>  <r_i_glide_gscore>  (384) 
-2.93084

>  <r_i_glide_lipo>  (384) 
-0.341947

>  <r_i_glide_hbond>  (384) 
-0.157805

>  <r_i_glide_metal>  (384) 
-0

>  <r_i_glide_rewards>  (384) 
-0.71608

>  <r_i_glide_evdw>  (384) 
-25.5962

>  <r_i_glide_ecoul>  (384) 
-2.90131

>  <r_i_glide_erotb>  (384) 
0

>  <r_i_glide_esite>  (384) 
0

>  <r_i_glide_emodel>  (384) 
-33.4879

>  <r_i_glide_energy>  (384) 
-28.4975

>  <r_i_glide_einternal>  (384) 
0.70996

>  <r_i_glide_intrahb_reward>  (384) 
-0

>  <i_i_glide_confnum>  (384) 
2

>  <i_i_glide_posenum>  (384) 
11

>  <r_i_glide_eff_state_penalty>  (384) 
0

>  <ligand_id>  (384) 
112

>  <original_smiles>  (384) 
CC1(C)CC=C2C1C(Cl)C(O)C13CC14CCC(O)C(C)(C)C4C(O)CC23C

>  <smiles>  (384) 
[H]OC1([H])C([H])([H])C2(C([H])([H])[H])C3=C([H])C([H])([H])C(C([H])([H])[H])(C([H])([H])[H])C3([H])C([H])(Cl)C([H])(O[H])C23C([H])([H])C32C([H])([H])C([H])([H])C([H])(O[H])C(C([H])([H])[H])(C([H])([H])[H])C12[H]

$$$$
112:0:1
     RDKit          3D

 62 66  0  0  1  0  0  0  0  0999 V2000
    7.2715   -2.8653   -0.7486 C   0  0  0  0  0  0  0  0  0  0  0  0
    5.8011   -2.7896   -0.2745 C   0  0  0  0  0  0  0  0  0  0  0  0
    5.3399   -1.3228   -0.3847 C   0  0  0  0  0  0  0  0  0  0  0  0
    4.9647   -3.7594   -1.1406 C   0  0  0  0  0  0  0  0  0  0  0  0
    4.9562   -5.0309   -0.3307 C   0  0  0  0  0  0  0  0  0  0  0  0
    5.3552   -4.8361    0.9313 C   0  0  0  0  0  0  0  0  0  0  0  0
    5.7101   -3.3971    1.1596 C   0  0  2  0  0  0  0  0  0  0  0  0
    4.6922   -2.8431    2.1677 C   0  0  1  0  0  0  0  0  0  0  0  0
    3.0011   -2.8987    1.5791 Cl  0  0  0  0  0  0  0  0  0  0  0  0
    4.8158   -3.6531    3.4728 C   0  0  1  0  0  0  0  0  0  0  0  0
    4.0286   -2.9966    4.4421 O   0  0  0  0  0  0  0  0  0  0  0  0
    4.6235   -5.2024    3.3552 C   0  0  1  0  0  0  0  0  0  0  0  0
    4.8381   -5.8787    4.7059 C   0  0  0  0  0  0  0  0  0  0  0  0
    3.4981   -6.0490    4.0499 C   0  0  1  0  0  0  0  0  0  0  0  0
    2.3514   -5.5275    4.9272 C   0  0  0  0  0  0  0  0  0  0  0  0
    1.0088   -5.4410    4.2089 C   0  0  0  0  0  0  0  0  0  0  0  0
    0.6364   -6.8145    3.6584 C   0  0  1  0  0  0  0  0  0  0  0  0
   -0.6457   -6.7224    3.0641 O   0  0  0  0  0  0  0  0  0  0  0  0
    1.7083   -7.3692    2.6778 C   0  0  0  0  0  0  0  0  0  0  0  0
    1.2386   -8.7846    2.2595 C   0  0  0  0  0  0  0  0  0  0  0  0
    1.7594   -6.4648    1.4195 C   0  0  0  0  0  0  0  0  0  0  0  0
    3.0875   -7.4241    3.4670 C   0  0  1  0  0  0  0  0  0  0  0  0
    4.3144   -8.0929    2.7831 C   0  0  1  0  0  0  0  0  0  0  0  0
    4.0974   -9.4081    2.3236 O   0  0  0  0  0  0  0  0  0  0  0  0
    4.9318   -7.2261    1.6845 C   0  0  0  0  0  0  0  0  0  0  0  0
    5.4187   -5.8052    2.1259 C   0  0  1  0  0  0  0  0  0  0  0  0
    6.9220   -5.9645    2.4738 C   0  0  0  0  0  0  0  0  0  0  0  0
    7.3774   -2.5452   -1.7862 H   0  0  0  0  0  0  0  0  0  0  0  0
    7.6514   -3.8873   -0.6924 H   0  0  0  0  0  0  0  0  0  0  0  0
    7.9265   -2.2466   -0.1334 H   0  0  0  0  0  0  0  0  0  0  0  0
    4.2820   -1.2022   -0.1551 H   0  0  0  0  0  0  0  0  0  0  0  0
    5.4856   -0.9410   -1.3949 H   0  0  0  0  0  0  0  0  0  0  0  0
    5.9020   -0.6823    0.2965 H   0  0  0  0  0  0  0  0  0  0  0  0
    3.9341   -3.4184   -1.2474 H   0  0  0  0  0  0  0  0  0  0  0  0
    5.3738   -3.9150   -2.1395 H   0  0  0  0  0  0  0  0  0  0  0  0
    4.6123   -5.9540   -0.7659 H   0  0  0  0  0  0  0  0  0  0  0  0
    6.6973   -3.3413    1.6190 H   0  0  0  0  0  0  0  0  0  0  0  0
    4.9188   -1.7932    2.3555 H   0  0  0  0  0  0  0  0  0  0  0  0
    5.8243   -3.5069    3.8372 H   0  0  0  0  0  0  0  0  0  0  0  0
    4.3089   -2.0981    4.5042 H   0  0  0  0  0  0  0  0  0  0  0  0
    5.5160   -6.7173    4.7936 H   0  0  0  0  0  0  0  0  0  0  0  0
    4.8768   -5.2377    5.5817 H   0  0  0  0  0  0  0  0  0  0  0  0
    2.2516   -6.2022    5.7790 H   0  0  0  0  0  0  0  0  0  0  0  0
    2.5750   -4.5671    5.3701 H   0  0  0  0  0  0  0  0  0  0  0  0
    0.2459   -5.1101    4.9150 H   0  0  0  0  0  0  0  0  0  0  0  0
    1.0400   -4.6890    3.4201 H   0  0  0  0  0  0  0  0  0  0  0  0
    0.5403   -7.5008    4.5023 H   0  0  0  0  0  0  0  0  0  0  0  0
   -0.9543   -7.6080    2.9310 H   0  0  0  0  0  0  0  0  0  0  0  0
    1.8014   -9.1743    1.4124 H   0  0  0  0  0  0  0  0  0  0  0  0
    0.1990   -8.7991    1.9327 H   0  0  0  0  0  0  0  0  0  0  0  0
    1.3272   -9.4945    3.0836 H   0  0  0  0  0  0  0  0  0  0  0  0
    2.1520   -6.9862    0.5532 H   0  0  0  0  0  0  0  0  0  0  0  0
    2.3733   -5.5815    1.5815 H   0  0  0  0  0  0  0  0  0  0  0  0
    0.7736   -6.1208    1.1146 H   0  0  0  0  0  0  0  0  0  0  0  0
    2.8925   -8.0567    4.3357 H   0  0  0  0  0  0  0  0  0  0  0  0
    5.0797   -8.2729    3.5306 H   0  0  0  0  0  0  0  0  0  0  0  0
    3.4624   -9.3944    1.6259 H   0  0  0  0  0  0  0  0  0  0  0  0
    5.7698   -7.7704    1.2479 H   0  0  0  0  0  0  0  0  0  0  0  0
    4.2135   -7.1821    0.8795 H   0  0  0  0  0  0  0  0  0  0  0  0
    7.1036   -6.7671    3.1877 H   0  0  0  0  0  0  0  0  0  0  0  0
    7.3551   -5.0625    2.8951 H   0  0  0  0  0  0  0  0  0  0  0  0
    7.5070   -6.1982    1.5825 H   0  0  0  0  0  0  0  0  0  0  0  0
  1  2  1  0
  1 28  1  0
  1 29  1  0
  1 30  1  0
  2  7  1  0
  2  3  1  0
  2  4  1  0
  3 31  1  0
  3 32  1  0
  3 33  1  0
  4  5  1  0
  4 34  1  0
  4 35  1  0
  5  6  2  0
  5 36  1  0
  6 26  1  0
  6  7  1  0
  7  8  1  0
  7 37  1  1
  8  9  1  0
  8 10  1  0
  8 38  1  1
 10 11  1  0
 10 12  1  0
 10 39  1  1
 11 40  1  0
 12 14  1  0
 12 26  1  0
 12 13  1  1
 14 13  1  1
 13 41  1  0
 13 42  1  0
 14 22  1  0
 14 15  1  0
 15 16  1  0
 15 43  1  0
 15 44  1  0
 16 17  1  0
 16 45  1  0
 16 46  1  0
 17 18  1  0
 17 19  1  0
 17 47  1  1
 18 48  1  0
 19 20  1  0
 19 21  1  0
 19 22  1  0
 20 49  1  0
 20 50  1  0
 20 51  1  0
 21 52  1  0
 21 53  1  0
 21 54  1  0
 22 23  1  0
 22 55  1  1
 23 24  1  0
 23 25  1  0
 23 56  1  1
 24 57  1  0
 25 26  1  0
 25 58  1  0
 25 59  1  0
 26 27  1  1
 27 60  1  0
 27 61  1  0
 27 62  1  0
M  END
>  <i_m_ct_stereo_status>  (385) 
1

>  <s_m_source_file>  (385) 
/var/tmp/pbs.5076255.sched01/tmpjgl1obm9/123zpz496x9.sdf

>  <i_m_source_file_index>  (385) 
37

>  <i_lp_mmshare_version>  (385) 
48012

>  <i_f3d_flags>  (385) 
0

>  <s_epik_input>  (385) 
W0NIXT0xW0NIMl1DKFtDSDNdKShbQ0gzXSlbQ0BASF0oW0NAQEhdKENsKVtDQEhdMltPSF0pQzFbQ0BdMyhbQ0gzXSlbQ0gyXVtDQEhdKFtPSF0pW0NAQEhdKFtDQF00KFtDQF0yMzUpW0NIMl01KUMoW0NIM10pKFtDSDNdKVtDQEhdKFtPSF0pW0NIMl1bQ0gyXTQ=

>  <s_epik_cmdline>  (385) 
J2VwaWtfcHl0aG9uJywgJy1waHQnLCAnMi4wJywgJy1waCcsICc3LjAnLCAnLXRuJywgJzgnLCAnLW1hJywgJzIwMCcsICctaW1hZScsICc8aW5maWxlLm1hZT4nLCAnLW9tYWUnLCAnPG91dGZpbGUubWFlPic=

>  <r_lp_tautomer_probability>  (385) 
1

>  <r_epik_Ionization_Penalty>  (385) 
3.05863e-06

>  <r_epik_Ionization_Penalty_Charging>  (385) 
0

>  <r_epik_Ionization_Penalty_Neutral>  (385) 
3.05863e-06

>  <r_epik_State_Penalty>  (385) 
-0

>  <r_epik_Charging_Adjusted_Penalty>  (385) 
0

>  <i_epik_Tot_Q>  (385) 
0

>  <i_epik_Tot_abs_Q>  (385) 
0

>  <s_lp_Force_Field>  (385) 
OPLS3e

>  <r_lp_Energy>  (385) 
59.5474

>  <b_lp_Chiralities_Consistent>  (385) 
1

>  <s_lp_Variant>  (385) 
112:0-1

>  <s_i_glide_gridfile>  (385) 
pfpi4k_grid

>  <i_i_glide_lignum>  (385) 
37

>  <i_i_glide_rotatable_bonds>  (385) 
3

>  <r_i_docking_score>  (385) 
-2.84745

>  <r_i_glide_ligand_efficiency>  (385) 
-0.105461

>  <r_i_glide_ligand_efficiency_sa>  (385) 
-0.316383

>  <r_i_glide_ligand_efficiency_ln>  (385) 
-0.662839

>  <r_i_glide_gscore>  (385) 
-2.84745

>  <r_i_glide_lipo>  (385) 
-0.333265

>  <r_i_glide_hbond>  (385) 
-0.16

>  <r_i_glide_metal>  (385) 
-0

>  <r_i_glide_rewards>  (385) 
-0.71608

>  <r_i_glide_evdw>  (385) 
-25.5623

>  <r_i_glide_ecoul>  (385) 
-2.39992

>  <r_i_glide_erotb>  (385) 
0

>  <r_i_glide_esite>  (385) 
0

>  <r_i_glide_emodel>  (385) 
-32.8116

>  <r_i_glide_energy>  (385) 
-27.9622

>  <r_i_glide_einternal>  (385) 
0.688133

>  <r_i_glide_intrahb_reward>  (385) 
-0

>  <i_i_glide_confnum>  (385) 
1

>  <i_i_glide_posenum>  (385) 
40

>  <r_i_glide_eff_state_penalty>  (385) 
0

>  <ligand_id>  (385) 
112

>  <original_smiles>  (385) 
CC1(C)CC=C2C1C(Cl)C(O)C13CC14CCC(O)C(C)(C)C4C(O)CC23C

>  <smiles>  (385) 
[H]OC1([H])C([H])([H])C2(C([H])([H])[H])C3=C([H])C([H])([H])C(C([H])([H])[H])(C([H])([H])[H])C3([H])C([H])(Cl)C([H])(O[H])C23C([H])([H])C32C([H])([H])C([H])([H])C([H])(O[H])C(C([H])([H])[H])(C([H])([H])[H])C12[H]

$$$$
112:0:2
     RDKit          3D

 62 66  0  0  1  0  0  0  0  0999 V2000
    6.1265   -1.9239   -0.5234 C   0  0  0  0  0  0  0  0  0  0  0  0
    4.7964   -2.0534    0.2519 C   0  0  0  0  0  0  0  0  0  0  0  0
    4.2930   -0.6336    0.5705 C   0  0  0  0  0  0  0  0  0  0  0  0
    3.8119   -2.8687   -0.6156 C   0  0  0  0  0  0  0  0  0  0  0  0
    4.0088   -4.2811   -0.1272 C   0  0  0  0  0  0  0  0  0  0  0  0
    4.6715   -4.3318    1.0364 C   0  0  0  0  0  0  0  0  0  0  0  0
    5.0371   -2.9522    1.5008 C   0  0  2  0  0  0  0  0  0  0  0  0
    4.2587   -2.6971    2.8006 C   0  0  1  0  0  0  0  0  0  0  0  0
    2.4772   -2.7467    2.5932 Cl  0  0  0  0  0  0  0  0  0  0  0  0
    4.6991   -3.7487    3.8357 C   0  0  1  0  0  0  0  0  0  0  0  0
    4.1390   -3.3621    5.0701 O   0  0  0  0  0  0  0  0  0  0  0  0
    4.5054   -5.2480    3.4223 C   0  0  1  0  0  0  0  0  0  0  0  0
    5.0266   -6.1778    4.5135 C   0  0  0  0  0  0  0  0  0  0  0  0
    3.5793   -6.3005    4.1336 C   0  0  1  0  0  0  0  0  0  0  0  0
    2.6416   -6.0563    5.3235 C   0  0  0  0  0  0  0  0  0  0  0  0
    1.1710   -5.9137    4.9379 C   0  0  0  0  0  0  0  0  0  0  0  0
    0.7165   -7.1641    4.1909 C   0  0  1  0  0  0  0  0  0  0  0  0
   -0.6707   -7.0453    3.9258 O   0  0  0  0  0  0  0  0  0  0  0  0
    1.5621   -7.4246    2.9109 C   0  0  0  0  0  0  0  0  0  0  0  0
    1.0411   -8.7466    2.3005 C   0  0  0  0  0  0  0  0  0  0  0  0
    1.3178   -6.2800    1.8938 C   0  0  0  0  0  0  0  0  0  0  0  0
    3.0844   -7.5488    3.3631 C   0  0  1  0  0  0  0  0  0  0  0  0
    4.1498   -7.9711    2.3068 C   0  0  1  0  0  0  0  0  0  0  0  0
    3.8363   -9.1369    1.5808 O   0  0  0  0  0  0  0  0  0  0  0  0
    4.4854   -6.8492    1.3236 C   0  0  0  0  0  0  0  0  0  0  0  0
    5.0237   -5.5208    1.9527 C   0  0  1  0  0  0  0  0  0  0  0  0
    6.5708   -5.6386    1.9388 C   0  0  0  0  0  0  0  0  0  0  0  0
    5.9863   -1.3781   -1.4572 H   0  0  0  0  0  0  0  0  0  0  0  0
    6.5316   -2.9061   -0.7816 H   0  0  0  0  0  0  0  0  0  0  0  0
    6.8828   -1.4034    0.0665 H   0  0  0  0  0  0  0  0  0  0  0  0
    3.3055   -0.6350    1.0316 H   0  0  0  0  0  0  0  0  0  0  0  0
    4.2153   -0.0393   -0.3388 H   0  0  0  0  0  0  0  0  0  0  0  0
    4.9770   -0.1113    1.2405 H   0  0  0  0  0  0  0  0  0  0  0  0
    2.7770   -2.5820   -0.4267 H   0  0  0  0  0  0  0  0  0  0  0  0
    3.9964   -2.7790   -1.6864 H   0  0  0  0  0  0  0  0  0  0  0  0
    3.5947   -5.1094   -0.6757 H   0  0  0  0  0  0  0  0  0  0  0  0
    6.1009   -2.9242    1.7417 H   0  0  0  0  0  0  0  0  0  0  0  0
    4.4973   -1.6987    3.1681 H   0  0  0  0  0  0  0  0  0  0  0  0
    5.7701   -3.6144    3.9799 H   0  0  0  0  0  0  0  0  0  0  0  0
    3.1973   -3.4411    5.0050 H   0  0  0  0  0  0  0  0  0  0  0  0
    5.7282   -6.9649    4.2688 H   0  0  0  0  0  0  0  0  0  0  0  0
    5.2440   -5.7342    5.4782 H   0  0  0  0  0  0  0  0  0  0  0  0
    2.7435   -6.9058    6.0013 H   0  0  0  0  0  0  0  0  0  0  0  0
    2.9412   -5.2029    5.9139 H   0  0  0  0  0  0  0  0  0  0  0  0
    0.5752   -5.7944    5.8438 H   0  0  0  0  0  0  0  0  0  0  0  0
    1.0084   -5.0143    4.3440 H   0  0  0  0  0  0  0  0  0  0  0  0
    0.8289   -8.0151    4.8654 H   0  0  0  0  0  0  0  0  0  0  0  0
   -1.0062   -7.9177    3.7665 H   0  0  0  0  0  0  0  0  0  0  0  0
    1.4257   -8.9055    1.2931 H   0  0  0  0  0  0  0  0  0  0  0  0
   -0.0433   -8.7636    2.1885 H   0  0  0  0  0  0  0  0  0  0  0  0
    1.3215   -9.6061    2.9111 H   0  0  0  0  0  0  0  0  0  0  0  0
    1.5183   -6.5886    0.8695 H   0  0  0  0  0  0  0  0  0  0  0  0
    1.9321   -5.4094    2.1107 H   0  0  0  0  0  0  0  0  0  0  0  0
    0.2823   -5.9462    1.8975 H   0  0  0  0  0  0  0  0  0  0  0  0
    3.0934   -8.3614    4.0945 H   0  0  0  0  0  0  0  0  0  0  0  0
    5.0668   -8.2584    2.8156 H   0  0  0  0  0  0  0  0  0  0  0  0
    3.8179   -9.8767    2.1732 H   0  0  0  0  0  0  0  0  0  0  0  0
    5.2144   -7.2274    0.6076 H   0  0  0  0  0  0  0  0  0  0  0  0
    3.6058   -6.6911    0.7169 H   0  0  0  0  0  0  0  0  0  0  0  0
    6.9197   -6.5638    2.3948 H   0  0  0  0  0  0  0  0  0  0  0  0
    7.0597   -4.8191    2.4590 H   0  0  0  0  0  0  0  0  0  0  0  0
    6.9494   -5.6362    0.9153 H   0  0  0  0  0  0  0  0  0  0  0  0
  1  2  1  0
  1 28  1  0
  1 29  1  0
  1 30  1  0
  2  7  1  0
  2  3  1  0
  2  4  1  0
  3 31  1  0
  3 32  1  0
  3 33  1  0
  4  5  1  0
  4 34  1  0
  4 35  1  0
  5  6  2  0
  5 36  1  0
  6 26  1  0
  6  7  1  0
  7  8  1  0
  7 37  1  1
  8  9  1  0
  8 10  1  0
  8 38  1  1
 10 11  1  0
 10 12  1  0
 10 39  1  1
 11 40  1  0
 12 14  1  0
 12 26  1  0
 12 13  1  1
 14 13  1  1
 13 41  1  0
 13 42  1  0
 14 22  1  0
 14 15  1  0
 15 16  1  0
 15 43  1  0
 15 44  1  0
 16 17  1  0
 16 45  1  0
 16 46  1  0
 17 18  1  0
 17 19  1  0
 17 47  1  1
 18 48  1  0
 19 20  1  0
 19 21  1  0
 19 22  1  0
 20 49  1  0
 20 50  1  0
 20 51  1  0
 21 52  1  0
 21 53  1  0
 21 54  1  0
 22 23  1  0
 22 55  1  1
 23 24  1  0
 23 25  1  0
 23 56  1  1
 24 57  1  0
 25 26  1  0
 25 58  1  0
 25 59  1  0
 26 27  1  1
 27 60  1  0
 27 61  1  0
 27 62  1  0
M  END
>  <i_m_ct_stereo_status>  (386) 
1

>  <s_m_source_file>  (386) 
/var/tmp/pbs.5076255.sched01/tmpjgl1obm9/123zpz496x9.sdf

>  <i_m_source_file_index>  (386) 
37

>  <i_lp_mmshare_version>  (386) 
48012

>  <i_f3d_flags>  (386) 
0

>  <s_epik_input>  (386) 
W0NIXT0xW0NIMl1DKFtDSDNdKShbQ0gzXSlbQ0BASF0oW0NAQEhdKENsKVtDQEhdMltPSF0pQzFbQ0BdMyhbQ0gzXSlbQ0gyXVtDQEhdKFtPSF0pW0NAQEhdKFtDQF00KFtDQF0yMzUpW0NIMl01KUMoW0NIM10pKFtDSDNdKVtDQEhdKFtPSF0pW0NIMl1bQ0gyXTQ=

>  <s_epik_cmdline>  (386) 
J2VwaWtfcHl0aG9uJywgJy1waHQnLCAnMi4wJywgJy1waCcsICc3LjAnLCAnLXRuJywgJzgnLCAnLW1hJywgJzIwMCcsICctaW1hZScsICc8aW5maWxlLm1hZT4nLCAnLW9tYWUnLCAnPG91dGZpbGUubWFlPic=

>  <r_lp_tautomer_probability>  (386) 
1

>  <r_epik_Ionization_Penalty>  (386) 
3.05863e-06

>  <r_epik_Ionization_Penalty_Charging>  (386) 
0

>  <r_epik_Ionization_Penalty_Neutral>  (386) 
3.05863e-06

>  <r_epik_State_Penalty>  (386) 
-0

>  <r_epik_Charging_Adjusted_Penalty>  (386) 
0

>  <i_epik_Tot_Q>  (386) 
0

>  <i_epik_Tot_abs_Q>  (386) 
0

>  <s_lp_Force_Field>  (386) 
OPLS3e

>  <r_lp_Energy>  (386) 
59.5474

>  <b_lp_Chiralities_Consistent>  (386) 
1

>  <s_lp_Variant>  (386) 
112:0-1

>  <s_i_glide_gridfile>  (386) 
pfpi4k_grid

>  <i_i_glide_lignum>  (386) 
37

>  <i_i_glide_rotatable_bonds>  (386) 
3

>  <r_i_docking_score>  (386) 
-2.61617

>  <r_i_glide_ligand_efficiency>  (386) 
-0.0968954

>  <r_i_glide_ligand_efficiency_sa>  (386) 
-0.290686

>  <r_i_glide_ligand_efficiency_ln>  (386) 
-0.609002

>  <r_i_glide_gscore>  (386) 
-2.61617

>  <r_i_glide_lipo>  (386) 
-0.350729

>  <r_i_glide_hbond>  (386) 
0

>  <r_i_glide_metal>  (386) 
-0

>  <r_i_glide_rewards>  (386) 
-0.71608

>  <r_i_glide_evdw>  (386) 
-25.9359

>  <r_i_glide_ecoul>  (386) 
-1.68381

>  <r_i_glide_erotb>  (386) 
0

>  <r_i_glide_esite>  (386) 
0

>  <r_i_glide_emodel>  (386) 
-31.9457

>  <r_i_glide_energy>  (386) 
-27.6197

>  <r_i_glide_einternal>  (386) 
0.808521

>  <r_i_glide_intrahb_reward>  (386) 
-0

>  <i_i_glide_confnum>  (386) 
1

>  <i_i_glide_posenum>  (386) 
15

>  <r_i_glide_eff_state_penalty>  (386) 
0

>  <ligand_id>  (386) 
112

>  <original_smiles>  (386) 
CC1(C)CC=C2C1C(Cl)C(O)C13CC14CCC(O)C(C)(C)C4C(O)CC23C

>  <smiles>  (386) 
[H]OC1([H])C([H])([H])C2(C([H])([H])[H])C3=C([H])C([H])([H])C(C([H])([H])[H])(C([H])([H])[H])C3([H])C([H])(Cl)C([H])(O[H])C23C([H])([H])C32C([H])([H])C([H])([H])C([H])(O[H])C(C([H])([H])[H])(C([H])([H])[H])C12[H]

$$$$
113:0:0
     RDKit          3D

 49 53  0  0  1  0  0  0  0  0999 V2000
    3.0806   -0.9103    0.8881 C   0  0  0  0  0  0  0  0  0  0  0  0
    3.7739   -2.1220    0.2018 C   0  0  2  0  0  0  0  0  0  0  0  0
    3.1032   -2.3869   -1.1837 C   0  0  0  0  0  0  0  0  0  0  0  0
    3.4770   -1.4047   -2.3161 C   0  0  1  0  0  0  0  0  0  0  0  0
    4.9419   -1.4140   -2.7177 C   0  0  1  0  0  0  0  0  0  0  0  0
    5.8752   -2.5867   -2.3360 C   0  0  2  0  0  0  0  0  0  0  0  0
    5.2153   -3.3956   -3.4782 C   0  0  0  0  0  0  0  0  0  0  0  0
    4.5610   -2.0782   -3.9997 C   0  0  1  0  0  0  0  0  0  0  0  0
    3.0875   -1.7010   -3.7916 C   0  0  0  0  0  0  0  0  0  0  0  0
    2.0821   -2.8903   -3.9797 C   0  0  0  0  0  0  0  0  0  0  0  0
    2.7614   -0.4286   -4.6481 C   0  0  0  0  0  0  0  0  0  0  0  0
    5.9396   -3.0081   -0.8375 C   0  0  2  0  0  0  0  0  0  0  0  0
    5.4099   -4.4585   -0.5329 C   0  0  0  0  0  0  0  0  0  0  0  0
    4.3715   -4.5110    0.5789 C   0  0  0  0  0  0  0  0  0  0  0  0
    3.6568   -3.4465    0.9799 C   0  0  0  0  0  0  0  0  0  0  0  0
    3.2184   -3.3710    2.4357 C   0  0  0  0  0  0  0  0  0  0  0  0
    4.3976   -2.7769    3.2055 C   0  0  0  0  0  0  0  0  0  0  0  0
    4.2479   -2.3638    4.3581 O   0  0  0  0  0  0  0  0  0  0  0  0
    5.7933   -2.7196    2.5507 C   0  0  0  0  0  0  0  0  0  0  0  0
    6.0138   -1.6811    1.4318 C   0  0  0  0  0  0  0  0  0  0  0  0
    5.3022   -1.8847    0.0769 C   0  0  2  0  0  0  0  0  0  0  0  0
    3.1856   -0.0090    0.2960 H   0  0  0  0  0  0  0  0  0  0  0  0
    3.4888   -0.6552    1.8693 H   0  0  0  0  0  0  0  0  0  0  0  0
    2.0219   -1.0962    1.0327 H   0  0  0  0  0  0  0  0  0  0  0  0
    3.3336   -3.4025   -1.5102 H   0  0  0  0  0  0  0  0  0  0  0  0
    2.0382   -2.4681   -1.0480 H   0  0  0  0  0  0  0  0  0  0  0  0
    3.1928   -0.3725   -2.1061 H   0  0  0  0  0  0  0  0  0  0  0  0
    5.3927   -0.4326   -2.8113 H   0  0  0  0  0  0  0  0  0  0  0  0
    6.8794   -2.3440   -2.6708 H   0  0  0  0  0  0  0  0  0  0  0  0
    5.9391   -3.8065   -4.1863 H   0  0  0  0  0  0  0  0  0  0  0  0
    4.4821   -4.1634   -3.1830 H   0  0  0  0  0  0  0  0  0  0  0  0
    5.0299   -1.5080   -4.8058 H   0  0  0  0  0  0  0  0  0  0  0  0
    2.0908   -3.3051   -4.9873 H   0  0  0  0  0  0  0  0  0  0  0  0
    1.0621   -2.6202   -3.6937 H   0  0  0  0  0  0  0  0  0  0  0  0
    2.3519   -3.7652   -3.3801 H   0  0  0  0  0  0  0  0  0  0  0  0
    2.7417   -0.6615   -5.7376 H   0  0  0  0  0  0  0  0  0  0  0  0
    3.5778    0.3183   -4.4865 H   0  0  0  0  0  0  0  0  0  0  0  0
    1.8116   -0.0070   -4.3302 H   0  0  0  0  0  0  0  0  0  0  0  0
    7.0014   -3.0300   -0.5762 H   0  0  0  0  0  0  0  0  0  0  0  0
    5.0088   -4.9854   -1.3938 H   0  0  0  0  0  0  0  0  0  0  0  0
    6.2549   -5.0485   -0.1999 H   0  0  0  0  0  0  0  0  0  0  0  0
    4.4080   -5.4098    1.1882 H   0  0  0  0  0  0  0  0  0  0  0  0
    2.3134   -2.7710    2.5736 H   0  0  0  0  0  0  0  0  0  0  0  0
    3.0426   -4.3761    2.8141 H   0  0  0  0  0  0  0  0  0  0  0  0
    6.3978   -2.3449    3.3574 H   0  0  0  0  0  0  0  0  0  0  0  0
    6.1252   -3.7311    2.2653 H   0  0  0  0  0  0  0  0  0  0  0  0
    5.7522   -0.7031    1.8290 H   0  0  0  0  0  0  0  0  0  0  0  0
    7.0872   -1.6218    1.2507 H   0  0  0  0  0  0  0  0  0  0  0  0
    5.4584   -0.9076   -0.3951 H   0  0  0  0  0  0  0  0  0  0  0  0
  2  1  1  1
  1 22  1  0
  1 23  1  0
  1 24  1  0
  2 15  1  0
  2 21  1  0
  2  3  1  0
  3  4  1  0
  3 25  1  0
  3 26  1  0
  4  9  1  0
  4  5  1  0
  4 27  1  1
  5  8  1  0
  5  6  1  0
  5 28  1  6
  6  7  1  0
  6 12  1  0
  6 29  1  6
  7  8  1  0
  7 30  1  0
  7 31  1  0
  8  9  1  0
  8 32  1  6
  9 10  1  0
  9 11  1  0
 10 33  1  0
 10 34  1  0
 10 35  1  0
 11 36  1  0
 11 37  1  0
 11 38  1  0
 12 21  1  0
 12 13  1  0
 12 39  1  1
 13 14  1  0
 13 40  1  0
 13 41  1  0
 14 15  2  0
 14 42  1  0
 15 16  1  0
 16 17  1  0
 16 43  1  0
 16 44  1  0
 17 18  2  0
 17 19  1  0
 19 20  1  0
 19 45  1  0
 19 46  1  0
 20 21  1  0
 20 47  1  0
 20 48  1  0
 21 49  1  6
M  END
>  <i_m_ct_stereo_status>  (387) 
1

>  <s_m_source_file>  (387) 
/var/tmp/pbs.5076255.sched01/tmpjgl1obm9/123zpz496x9.sdf

>  <i_m_source_file_index>  (387) 
38

>  <i_lp_mmshare_version>  (387) 
48012

>  <i_f3d_flags>  (387) 
0

>  <s_epik_input>  (387) 
W0NIM11bQ0BAXTEyQzM9W0NIXVtDSDJdW0NASF0oW0NAQEhdMltDSDJdW0NIMl1DKD1PKVtDSDJdMylbQ0BASF00W0NAQEhdNVtDQEhdKFtDSDJdMSlDKFtDSDNdKShbQ0gzXSlbQ0BASF01W0NIMl00

>  <s_epik_cmdline>  (387) 
J2VwaWtfcHl0aG9uJywgJy1waHQnLCAnMi4wJywgJy1waCcsICc3LjAnLCAnLXRuJywgJzgnLCAnLW1hJywgJzIwMCcsICctaW1hZScsICc8aW5maWxlLm1hZT4nLCAnLW9tYWUnLCAnPG91dGZpbGUubWFlPic=

>  <r_lp_tautomer_probability>  (387) 
1

>  <r_epik_Ionization_Penalty>  (387) 
1.3511e-13

>  <r_epik_Ionization_Penalty_Charging>  (387) 
0

>  <r_epik_Ionization_Penalty_Neutral>  (387) 
1.3511e-13

>  <r_epik_State_Penalty>  (387) 
-0

>  <r_epik_Charging_Adjusted_Penalty>  (387) 
0

>  <i_epik_Tot_Q>  (387) 
0

>  <i_epik_Tot_abs_Q>  (387) 
0

>  <s_lp_Force_Field>  (387) 
OPLS3e

>  <r_lp_Energy>  (387) 
91.3618

>  <b_lp_Chiralities_Consistent>  (387) 
1

>  <s_lp_Variant>  (387) 
113:0-1

>  <s_i_glide_gridfile>  (387) 
pfpi4k_grid

>  <i_i_glide_lignum>  (387) 
38

>  <i_i_glide_rotatable_bonds>  (387) 
0

>  <r_i_docking_score>  (387) 
-2.90008

>  <r_i_glide_ligand_efficiency>  (387) 
-0.138099

>  <r_i_glide_ligand_efficiency_sa>  (387) 
-0.381004

>  <r_i_glide_ligand_efficiency_ln>  (387) 
-0.717038

>  <r_i_glide_gscore>  (387) 
-2.90008

>  <r_i_glide_lipo>  (387) 
-1.11379

>  <r_i_glide_hbond>  (387) 
0

>  <r_i_glide_metal>  (387) 
-0

>  <r_i_glide_rewards>  (387) 
-1.49223

>  <r_i_glide_evdw>  (387) 
-2.4594

>  <r_i_glide_ecoul>  (387) 
-1.14059

>  <r_i_glide_erotb>  (387) 
0

>  <r_i_glide_esite>  (387) 
0

>  <r_i_glide_emodel>  (387) 
-2.6054

>  <r_i_glide_energy>  (387) 
-3.59999

>  <r_i_glide_einternal>  (387) 
0

>  <r_i_glide_intrahb_reward>  (387) 
-0

>  <i_i_glide_confnum>  (387) 
2

>  <i_i_glide_posenum>  (387) 
1

>  <r_i_glide_eff_state_penalty>  (387) 
0

>  <ligand_id>  (387) 
113

>  <original_smiles>  (387) 
CC12CC3C4C(CC4C3(C)C)C3CC=C1CC(=O)CCC32

>  <smiles>  (387) 
[H]C1=C2C([H])([H])C(=O)C([H])([H])C([H])([H])C3([H])C([H])(C1([H])[H])C1([H])C([H])([H])C4([H])C1([H])C([H])(C([H])([H])C23C([H])([H])[H])C4(C([H])([H])[H])C([H])([H])[H]

$$$$
113:0:1
     RDKit          3D

 49 53  0  0  1  0  0  0  0  0999 V2000
    2.3390   -5.3439    1.3041 C   0  0  0  0  0  0  0  0  0  0  0  0
    3.6925   -4.6041    1.2224 C   0  0  2  0  0  0  0  0  0  0  0  0
    4.0071   -4.4499   -0.2930 C   0  0  0  0  0  0  0  0  0  0  0  0
    3.3067   -3.3050   -1.0640 C   0  0  1  0  0  0  0  0  0  0  0  0
    3.5799   -1.8831   -0.5686 C   0  0  1  0  0  0  0  0  0  0  0  0
    4.7457   -1.5651    0.3563 C   0  0  2  0  0  0  0  0  0  0  0  0
    5.6433   -1.5868   -0.8841 C   0  0  0  0  0  0  0  0  0  0  0  0
    4.4125   -1.6052   -1.7950 C   0  0  1  0  0  0  0  0  0  0  0  0
    3.7944   -2.8504   -2.4701 C   0  0  0  0  0  0  0  0  0  0  0  0
    4.7894   -3.7312   -3.2009 C   0  0  0  0  0  0  0  0  0  0  0  0
    2.6822   -2.5481   -3.4703 C   0  0  0  0  0  0  0  0  0  0  0  0
    4.9368   -2.4339    1.6226 C   0  0  2  0  0  0  0  0  0  0  0  0
    6.2303   -3.2852    1.5857 C   0  0  0  0  0  0  0  0  0  0  0  0
    6.0510   -4.7410    1.9651 C   0  0  0  0  0  0  0  0  0  0  0  0
    4.8610   -5.3427    1.8761 C   0  0  0  0  0  0  0  0  0  0  0  0
    4.5426   -6.4889    2.8132 C   0  0  0  0  0  0  0  0  0  0  0  0
    3.9834   -5.8713    4.1120 C   0  0  0  0  0  0  0  0  0  0  0  0
    3.3891   -6.5701    4.9259 O   0  0  0  0  0  0  0  0  0  0  0  0
    4.1962   -4.3649    4.3910 C   0  0  0  0  0  0  0  0  0  0  0  0
    3.3637   -3.3882    3.5053 C   0  0  0  0  0  0  0  0  0  0  0  0
    3.6559   -3.2503    1.9760 C   0  0  2  0  0  0  0  0  0  0  0  0
    1.5738   -4.7775    0.7816 H   0  0  0  0  0  0  0  0  0  0  0  0
    1.9822   -5.5031    2.3169 H   0  0  0  0  0  0  0  0  0  0  0  0
    2.3788   -6.3221    0.8187 H   0  0  0  0  0  0  0  0  0  0  0  0
    5.0704   -4.3353   -0.4431 H   0  0  0  0  0  0  0  0  0  0  0  0
    3.8293   -5.4230   -0.7311 H   0  0  0  0  0  0  0  0  0  0  0  0
    2.2252   -3.4021   -1.0874 H   0  0  0  0  0  0  0  0  0  0  0  0
    2.7406   -1.2095   -0.4879 H   0  0  0  0  0  0  0  0  0  0  0  0
    4.6423   -0.5136    0.6181 H   0  0  0  0  0  0  0  0  0  0  0  0
    6.2081   -0.6620   -0.9844 H   0  0  0  0  0  0  0  0  0  0  0  0
    6.2389   -2.4714   -1.0710 H   0  0  0  0  0  0  0  0  0  0  0  0
    4.1453   -0.6375   -2.2120 H   0  0  0  0  0  0  0  0  0  0  0  0
    5.1831   -3.2438   -4.0801 H   0  0  0  0  0  0  0  0  0  0  0  0
    4.3294   -4.6483   -3.5501 H   0  0  0  0  0  0  0  0  0  0  0  0
    5.6347   -3.9979   -2.5865 H   0  0  0  0  0  0  0  0  0  0  0  0
    3.0464   -2.0218   -4.3541 H   0  0  0  0  0  0  0  0  0  0  0  0
    1.9291   -1.9206   -3.0059 H   0  0  0  0  0  0  0  0  0  0  0  0
    2.1764   -3.4511   -3.7985 H   0  0  0  0  0  0  0  0  0  0  0  0
    5.0670   -1.7204    2.4410 H   0  0  0  0  0  0  0  0  0  0  0  0
    6.8618   -3.2182    0.7161 H   0  0  0  0  0  0  0  0  0  0  0  0
    6.7947   -2.8209    2.3555 H   0  0  0  0  0  0  0  0  0  0  0  0
    6.8584   -5.1849    2.5217 H   0  0  0  0  0  0  0  0  0  0  0  0
    3.8439   -7.1979    2.3735 H   0  0  0  0  0  0  0  0  0  0  0  0
    5.4552   -7.0305    3.0422 H   0  0  0  0  0  0  0  0  0  0  0  0
    3.9092   -4.2068    5.4294 H   0  0  0  0  0  0  0  0  0  0  0  0
    5.2614   -4.1227    4.3485 H   0  0  0  0  0  0  0  0  0  0  0  0
    2.3127   -3.6493    3.6345 H   0  0  0  0  0  0  0  0  0  0  0  0
    3.4466   -2.3966    3.9505 H   0  0  0  0  0  0  0  0  0  0  0  0
    2.7871   -2.6920    1.6296 H   0  0  0  0  0  0  0  0  0  0  0  0
  2  1  1  6
  1 22  1  0
  1 23  1  0
  1 24  1  0
  2 15  1  0
  2 21  1  0
  2  3  1  0
  3  4  1  0
  3 25  1  0
  3 26  1  0
  4  9  1  0
  4  5  1  0
  4 27  1  6
  5  8  1  0
  5  6  1  0
  5 28  1  1
  6  7  1  0
  6 12  1  0
  6 29  1  1
  7  8  1  0
  7 30  1  0
  7 31  1  0
  8  9  1  0
  8 32  1  6
  9 10  1  0
  9 11  1  0
 10 33  1  0
 10 34  1  0
 10 35  1  0
 11 36  1  0
 11 37  1  0
 11 38  1  0
 12 21  1  0
 12 13  1  0
 12 39  1  1
 13 14  1  0
 13 40  1  0
 13 41  1  0
 14 15  2  0
 14 42  1  0
 15 16  1  0
 16 17  1  0
 16 43  1  0
 16 44  1  0
 17 18  2  0
 17 19  1  0
 19 20  1  0
 19 45  1  0
 19 46  1  0
 20 21  1  0
 20 47  1  0
 20 48  1  0
 21 49  1  6
M  END
>  <i_m_ct_stereo_status>  (388) 
1

>  <s_m_source_file>  (388) 
/var/tmp/pbs.5076255.sched01/tmpjgl1obm9/123zpz496x9.sdf

>  <i_m_source_file_index>  (388) 
38

>  <i_lp_mmshare_version>  (388) 
48012

>  <i_f3d_flags>  (388) 
0

>  <s_epik_input>  (388) 
W0NIM11bQ0BAXTEyQzM9W0NIXVtDSDJdW0NASF0oW0NAQEhdMltDSDJdW0NIMl1DKD1PKVtDSDJdMylbQ0BASF00W0NAQEhdNVtDQEhdKFtDSDJdMSlDKFtDSDNdKShbQ0gzXSlbQ0BASF01W0NIMl00

>  <s_epik_cmdline>  (388) 
J2VwaWtfcHl0aG9uJywgJy1waHQnLCAnMi4wJywgJy1waCcsICc3LjAnLCAnLXRuJywgJzgnLCAnLW1hJywgJzIwMCcsICctaW1hZScsICc8aW5maWxlLm1hZT4nLCAnLW9tYWUnLCAnPG91dGZpbGUubWFlPic=

>  <r_lp_tautomer_probability>  (388) 
1

>  <r_epik_Ionization_Penalty>  (388) 
1.3511e-13

>  <r_epik_Ionization_Penalty_Charging>  (388) 
0

>  <r_epik_Ionization_Penalty_Neutral>  (388) 
1.3511e-13

>  <r_epik_State_Penalty>  (388) 
-0

>  <r_epik_Charging_Adjusted_Penalty>  (388) 
0

>  <i_epik_Tot_Q>  (388) 
0

>  <i_epik_Tot_abs_Q>  (388) 
0

>  <s_lp_Force_Field>  (388) 
OPLS3e

>  <r_lp_Energy>  (388) 
91.3618

>  <b_lp_Chiralities_Consistent>  (388) 
1

>  <s_lp_Variant>  (388) 
113:0-1

>  <s_i_glide_gridfile>  (388) 
pfpi4k_grid

>  <i_i_glide_lignum>  (388) 
38

>  <i_i_glide_rotatable_bonds>  (388) 
0

>  <r_i_docking_score>  (388) 
-2.59667

>  <r_i_glide_ligand_efficiency>  (388) 
-0.123651

>  <r_i_glide_ligand_efficiency_sa>  (388) 
-0.341144

>  <r_i_glide_ligand_efficiency_ln>  (388) 
-0.642022

>  <r_i_glide_gscore>  (388) 
-2.59667

>  <r_i_glide_lipo>  (388) 
-0.530735

>  <r_i_glide_hbond>  (388) 
0

>  <r_i_glide_metal>  (388) 
-0

>  <r_i_glide_rewards>  (388) 
-1.46976

>  <r_i_glide_evdw>  (388) 
-12.4045

>  <r_i_glide_ecoul>  (388) 
0.160279

>  <r_i_glide_erotb>  (388) 
0

>  <r_i_glide_esite>  (388) 
0

>  <r_i_glide_emodel>  (388) 
-13.0497

>  <r_i_glide_energy>  (388) 
-12.2442

>  <r_i_glide_einternal>  (388) 
0

>  <r_i_glide_intrahb_reward>  (388) 
-0

>  <i_i_glide_confnum>  (388) 
1

>  <i_i_glide_posenum>  (388) 
5

>  <r_i_glide_eff_state_penalty>  (388) 
0

>  <ligand_id>  (388) 
113

>  <original_smiles>  (388) 
CC12CC3C4C(CC4C3(C)C)C3CC=C1CC(=O)CCC32

>  <smiles>  (388) 
[H]C1=C2C([H])([H])C(=O)C([H])([H])C([H])([H])C3([H])C([H])(C1([H])[H])C1([H])C([H])([H])C4([H])C1([H])C([H])(C([H])([H])C23C([H])([H])[H])C4(C([H])([H])[H])C([H])([H])[H]

$$$$
114:0:0
     RDKit          3D

 89 99  0  0  1  0  0  0  0  0999 V2000
    3.6775   -0.5355   -3.4952 C   0  0  0  0  0  0  0  0  0  0  0  0
    4.0108   -1.1643   -2.1301 C   0  0  2  0  0  0  0  0  0  0  0  0
    5.4097   -0.9162   -1.7851 O   0  0  0  0  0  0  0  0  0  0  0  0
    5.4363   -1.5272   -0.5210 C   0  0  2  0  0  0  0  0  0  0  0  0
    6.6413   -2.2184    0.1619 C   0  0  0  0  0  0  0  0  0  0  0  0
    7.7738   -1.7481    0.2525 O   0  0  0  0  0  0  0  0  0  0  0  0
    6.1125   -3.4164    0.6030 O   0  0  0  0  0  0  0  0  0  0  0  0
    4.7113   -3.4528    0.2944 C   0  0  2  0  0  0  0  0  0  0  0  0
    3.6929   -4.4644   -0.2002 C   0  0  1  0  0  0  0  0  0  0  0  0
    2.8470   -4.9559    0.8250 O   0  0  0  0  0  0  0  0  0  0  0  0
    3.3620   -6.0151    1.6256 C   0  0  2  0  0  0  0  0  0  0  0  0
    2.1309   -7.1478    1.6528 C   0  0  1  0  0  0  0  0  0  0  0  0
    2.6325   -8.3875    2.3222 C   0  0  0  0  0  0  0  0  0  0  0  0
    2.5939   -8.0595    3.7838 C   0  0  0  0  0  0  0  0  0  0  0  0
    2.5470   -8.9773    4.5998 O   0  0  0  0  0  0  0  0  0  0  0  0
    2.6448   -6.5705    4.2378 C   0  0  2  0  0  0  0  0  0  0  0  0
    1.8269   -5.2281    3.8527 C   0  0  1  0  0  0  0  0  0  0  0  0
    0.5943   -5.0191    4.3803 O   0  0  0  0  0  0  0  0  0  0  0  0
    0.3007   -5.8391    5.4426 C   0  0  2  0  0  0  0  0  0  0  0  0
   -0.5704   -6.9105    4.6753 C   0  0  0  0  0  0  0  0  0  0  0  0
   -0.2406   -7.5674    3.2006 C   0  0  0  0  0  0  0  0  0  0  0  0
    0.5475   -6.9655    1.9283 C   0  0  0  0  0  0  0  0  0  0  0  0
   -0.1061   -6.2989    1.1226 O   0  0  0  0  0  0  0  0  0  0  0  0
   -0.2290   -4.5886    6.2676 C   0  0  1  0  0  0  0  0  0  0  0  0
   -1.4781   -4.7299    7.1246 C   0  0  0  0  0  0  0  0  0  0  0  0
    1.2274   -4.4749    6.8983 C   0  0  1  0  0  0  0  0  0  0  0  0
    1.1827   -5.9952    6.7991 C   0  0  2  0  0  0  0  0  0  0  0  0
    2.3188   -6.8581    7.1747 O   0  0  0  0  0  0  0  0  0  0  0  0
    3.7441   -6.7601    6.8373 C   0  0  0  0  0  0  0  0  0  0  0  0
    4.2559   -5.6296    5.8946 C   0  0  2  0  0  0  0  0  0  0  0  0
    5.7040   -5.1228    6.0437 C   0  0  0  0  0  0  0  0  0  0  0  0
    5.1597   -3.7035    6.0010 C   0  0  0  0  0  0  0  0  0  0  0  0
    3.8672   -4.2613    6.6128 C   0  0  2  0  0  0  0  0  0  0  0  0
    3.9791   -4.2004    8.1538 C   0  0  0  0  0  0  0  0  0  0  0  0
    2.4605   -3.6372    6.3630 C   0  0  1  0  0  0  0  0  0  0  0  0
    2.3642   -2.9930    4.9540 C   0  0  0  0  0  0  0  0  0  0  0  0
    2.5555   -3.9019    3.7393 C   0  0  1  0  0  0  0  0  0  0  0  0
    3.8628   -4.1138    3.2186 O   0  0  0  0  0  0  0  0  0  0  0  0
    4.1999   -5.4470    2.9867 C   0  0  2  0  0  0  0  0  0  0  0  0
    5.5941   -5.5329    2.6571 O   0  0  0  0  0  0  0  0  0  0  0  0
    4.0268   -6.1877    4.3953 C   0  0  2  0  0  0  0  0  0  0  0  0
    2.8429   -3.5116   -1.1372 C   0  0  0  0  0  0  0  0  0  0  0  0
    3.8636   -2.7168   -1.9965 C   0  0  1  0  0  0  0  0  0  0  0  0
    4.1068   -3.4315   -3.3511 C   0  0  0  0  0  0  0  0  0  0  0  0
    4.9955   -2.8461   -1.0451 C   0  0  1  0  0  0  0  0  0  0  0  0
    2.6770   -0.7970   -3.8130 H   0  0  0  0  0  0  0  0  0  0  0  0
    4.3818   -0.8495   -4.2690 H   0  0  0  0  0  0  0  0  0  0  0  0
    3.7323    0.5491   -3.4379 H   0  0  0  0  0  0  0  0  0  0  0  0
    3.3551   -0.6925   -1.3904 H   0  0  0  0  0  0  0  0  0  0  0  0
    4.7823   -1.0440    0.1954 H   0  0  0  0  0  0  0  0  0  0  0  0
    4.1772   -2.7768    0.9628 H   0  0  0  0  0  0  0  0  0  0  0  0
    4.1671   -5.2641   -0.7751 H   0  0  0  0  0  0  0  0  0  0  0  0
    4.1151   -6.5320    1.0319 H   0  0  0  0  0  0  0  0  0  0  0  0
    2.0717   -7.4058    0.5950 H   0  0  0  0  0  0  0  0  0  0  0  0
    1.9909   -9.2415    2.1148 H   0  0  0  0  0  0  0  0  0  0  0  0
    3.6467   -8.6403    2.0135 H   0  0  0  0  0  0  0  0  0  0  0  0
    2.2649   -6.9138    5.1353 H   0  0  0  0  0  0  0  0  0  0  0  0
    1.5207   -5.1117    2.8470 H   0  0  0  0  0  0  0  0  0  0  0  0
   -0.6520   -7.7746    5.3341 H   0  0  0  0  0  0  0  0  0  0  0  0
   -1.5908   -6.5343    4.6131 H   0  0  0  0  0  0  0  0  0  0  0  0
    0.1448   -8.5688    3.3691 H   0  0  0  0  0  0  0  0  0  0  0  0
   -1.2206   -7.7812    2.7870 H   0  0  0  0  0  0  0  0  0  0  0  0
   -0.3790   -3.6749    5.6637 H   0  0  0  0  0  0  0  0  0  0  0  0
   -1.4736   -5.5971    7.7773 H   0  0  0  0  0  0  0  0  0  0  0  0
   -2.3692   -4.8134    6.5066 H   0  0  0  0  0  0  0  0  0  0  0  0
   -1.6246   -3.8581    7.7601 H   0  0  0  0  0  0  0  0  0  0  0  0
    1.0777   -4.2265    7.9712 H   0  0  0  0  0  0  0  0  0  0  0  0
    0.4951   -6.4050    7.5401 H   0  0  0  0  0  0  0  0  0  0  0  0
    4.2632   -6.7171    7.8040 H   0  0  0  0  0  0  0  0  0  0  0  0
    4.0474   -7.7382    6.4716 H   0  0  0  0  0  0  0  0  0  0  0  0
    6.1853   -5.3991    6.9899 H   0  0  0  0  0  0  0  0  0  0  0  0
    6.3783   -5.3604    5.2175 H   0  0  0  0  0  0  0  0  0  0  0  0
    5.6953   -3.0079    6.6483 H   0  0  0  0  0  0  0  0  0  0  0  0
    5.0982   -3.2953    4.9995 H   0  0  0  0  0  0  0  0  0  0  0  0
    3.9310   -3.1763    8.5344 H   0  0  0  0  0  0  0  0  0  0  0  0
    4.9313   -4.5831    8.5360 H   0  0  0  0  0  0  0  0  0  0  0  0
    3.2103   -4.7685    8.6802 H   0  0  0  0  0  0  0  0  0  0  0  0
    2.4329   -2.7297    6.9546 H   0  0  0  0  0  0  0  0  0  0  0  0
    1.3890   -2.5186    4.8786 H   0  0  0  0  0  0  0  0  0  0  0  0
    3.0775   -2.1717    4.8760 H   0  0  0  0  0  0  0  0  0  0  0  0
    2.0958   -3.3052    2.9401 H   0  0  0  0  0  0  0  0  0  0  0  0
    6.0711   -5.2196    3.3898 H   0  0  0  0  0  0  0  0  0  0  0  0
    4.6832   -7.0588    4.3078 H   0  0  0  0  0  0  0  0  0  0  0  0
    2.1386   -4.0787   -1.7495 H   0  0  0  0  0  0  0  0  0  0  0  0
    2.2485   -2.8173   -0.5360 H   0  0  0  0  0  0  0  0  0  0  0  0
    4.2738   -4.4959   -3.2204 H   0  0  0  0  0  0  0  0  0  0  0  0
    4.9843   -3.0452   -3.8770 H   0  0  0  0  0  0  0  0  0  0  0  0
    3.2389   -3.3142   -4.0076 H   0  0  0  0  0  0  0  0  0  0  0  0
    5.7607   -3.4030   -1.6246 H   0  0  0  0  0  0  0  0  0  0  0  0
  1  2  1  0
  1 46  1  0
  1 47  1  0
  1 48  1  0
  2 43  1  0
  2  3  1  0
  2 49  1  1
  3  4  1  0
  4 45  1  0
  4  5  1  0
  4 50  1  1
  5  6  2  0
  5  7  1  0
  7  8  1  0
  8 45  1  0
  8  9  1  0
  8 51  1  1
  9 10  1  0
  9 42  1  0
  9 52  1  6
 10 11  1  0
 11 39  1  0
 11 12  1  0
 11 53  1  6
 12 22  1  0
 12 13  1  0
 12 54  1  6
 13 14  1  0
 13 55  1  0
 13 56  1  0
 14 15  2  0
 14 16  1  0
 16 41  1  0
 16 17  1  0
 16 57  1  1
 17 37  1  0
 17 18  1  0
 17 58  1  6
 18 19  1  0
 19 27  1  0
 19 20  1  6
 19 24  1  0
 20 21  1  0
 20 59  1  0
 20 60  1  0
 21 22  1  0
 21 61  1  0
 21 62  1  0
 22 23  2  0
 24 25  1  0
 24 26  1  0
 24 63  1  6
 25 64  1  0
 25 65  1  0
 25 66  1  0
 26 35  1  0
 26 27  1  0
 26 67  1  1
 27 28  1  0
 27 68  1  1
 28 29  1  0
 30 29  1  1
 29 69  1  0
 29 70  1  0
 30 33  1  0
 30 41  1  0
 30 31  1  0
 31 32  1  0
 31 71  1  0
 31 72  1  0
 32 33  1  0
 32 73  1  0
 32 74  1  0
 33 34  1  1
 33 35  1  0
 34 75  1  0
 34 76  1  0
 34 77  1  0
 35 36  1  0
 35 78  1  1
 36 37  1  0
 36 79  1  0
 36 80  1  0
 37 38  1  0
 37 81  1  6
 38 39  1  0
 39 40  1  6
 39 41  1  0
 40 82  1  0
 41 83  1  6
 42 43  1  0
 42 84  1  0
 42 85  1  0
 43 44  1  6
 43 45  1  0
 44 86  1  0
 44 87  1  0
 44 88  1  0
 45 89  1  6
M  END
>  <i_m_ct_stereo_status>  (389) 
1

>  <s_m_source_file>  (389) 
/var/tmp/pbs.5076255.sched01/tmpjgl1obm9/123zpz496x9.sdf

>  <i_m_source_file_index>  (389) 
39

>  <i_lp_mmshare_version>  (389) 
48012

>  <i_f3d_flags>  (389) 
0

>  <s_epik_input>  (389) 
W0NIM11bQ0BASF0xT1tDQEBIXShbQ0BASF0yW0NAXTEzW0NIM10pQyg9TylPW0NAQEhdMltDQEhdKFtDSDJdMylPW0NASF0oW0NAQEhdKFtDSDJdQzQ9TylDKD1PKVtDSDJdW0NIMl01KVtDQEBdNihbT0hdKU9bQ0BIXShbQ0gyXTcpW0NASF0oTzgpW0NAQEhdNFtDQEBIXTZbQ0BAXShbQ0gyXU85KShbQ0gyXVtDSDJdMSlbQ0BdMShbQ0gzXSlbQ0BASF03W0NASF0oW0NASF05W0NAXTE1OClbQ0BASF0xW0NIM10=

>  <s_epik_cmdline>  (389) 
J2VwaWtfcHl0aG9uJywgJy1waHQnLCAnMi4wJywgJy1waCcsICc3LjAnLCAnLXRuJywgJzgnLCAnLW1hJywgJzIwMCcsICctaW1hZScsICc8aW5maWxlLm1hZT4nLCAnLW9tYWUnLCAnPG91dGZpbGUubWFlPic=

>  <r_lp_tautomer_probability>  (389) 
1

>  <r_epik_Ionization_Penalty>  (389) 
2.66863e-05

>  <r_epik_Ionization_Penalty_Charging>  (389) 
0

>  <r_epik_Ionization_Penalty_Neutral>  (389) 
2.66863e-05

>  <r_epik_State_Penalty>  (389) 
-0

>  <r_epik_Charging_Adjusted_Penalty>  (389) 
0

>  <i_epik_Tot_Q>  (389) 
0

>  <i_epik_Tot_abs_Q>  (389) 
0

>  <s_epik_Chemistry_Notes>  (389) 
This compound has an ester and may undergo hydrolysis at high or low pH.

>  <s_lp_Force_Field>  (389) 
OPLS3e

>  <r_lp_Energy>  (389) 
374.079

>  <b_lp_Chiralities_Consistent>  (389) 
1

>  <s_lp_Variant>  (389) 
114:0-1

>  <s_i_glide_gridfile>  (389) 
pfpi4k_grid

>  <i_i_glide_lignum>  (389) 
39

>  <i_i_glide_rotatable_bonds>  (389) 
3

>  <r_i_docking_score>  (389) 
-3.203

>  <r_i_glide_ligand_efficiency>  (389) 
-0.0711778

>  <r_i_glide_ligand_efficiency_sa>  (389) 
-0.253172

>  <r_i_glide_ligand_efficiency_ln>  (389) 
-0.666367

>  <r_i_glide_gscore>  (389) 
-3.203

>  <r_i_glide_lipo>  (389) 
-0.471135

>  <r_i_glide_hbond>  (389) 
-0.310984

>  <r_i_glide_metal>  (389) 
-0

>  <r_i_glide_rewards>  (389) 
-0.0366872

>  <r_i_glide_evdw>  (389) 
-31.4603

>  <r_i_glide_ecoul>  (389) 
-5.59827

>  <r_i_glide_erotb>  (389) 
0.108229

>  <r_i_glide_esite>  (389) 
-0.079667

>  <r_i_glide_emodel>  (389) 
-44.1389

>  <r_i_glide_energy>  (389) 
-37.0586

>  <r_i_glide_einternal>  (389) 
1.58341

>  <r_i_glide_intrahb_reward>  (389) 
-0

>  <i_i_glide_confnum>  (389) 
2

>  <i_i_glide_posenum>  (389) 
10

>  <r_i_glide_eff_state_penalty>  (389) 
0

>  <ligand_id>  (389) 
114

>  <original_smiles>  (389) 
CC1OC2C(=O)OC3C(OC4C5CC(=O)C6C7OC8(CCC5=O)C(C)C5C8OCC89CCC8(C)C5CC7OC4(O)C69)CC1(C)C23

>  <smiles>  (389) 
[H]OC12OC3([H])C([H])([H])C4([H])C5([H])C6([H])OC([H])([H])C7(C([H])([H])C([H])([H])C47C([H])([H])[H])C1([H])C1([H])C(=O)C([H])([H])C([H])(C(=O)C([H])([H])C([H])([H])C6(OC31[H])C5([H])C([H])([H])[H])C2([H])OC1([H])C([H])([H])C2(C([H])([H])[H])C([H])(C([H])([H])[H])OC3([H])C(=O)OC1([H])C32[H]

$$$$
114:0:1
     RDKit          3D

 89 99  0  0  1  0  0  0  0  0999 V2000
    3.9778   -0.4536   -2.9841 C   0  0  0  0  0  0  0  0  0  0  0  0
    4.3352   -1.2390   -1.7120 C   0  0  2  0  0  0  0  0  0  0  0  0
    5.7679   -1.1314   -1.4432 O   0  0  0  0  0  0  0  0  0  0  0  0
    5.8299   -1.8723   -0.2548 C   0  0  2  0  0  0  0  0  0  0  0  0
    7.0134   -2.7071    0.2675 C   0  0  0  0  0  0  0  0  0  0  0  0
    8.1834   -2.3369    0.3305 O   0  0  0  0  0  0  0  0  0  0  0  0
    6.4214   -3.9105    0.6234 O   0  0  0  0  0  0  0  0  0  0  0  0
    5.0019   -3.8099    0.4124 C   0  0  2  0  0  0  0  0  0  0  0  0
    3.8765   -4.6893   -0.1046 C   0  0  1  0  0  0  0  0  0  0  0  0
    3.0588   -5.2244    0.9259 O   0  0  0  0  0  0  0  0  0  0  0  0
    3.5367   -6.3951    1.5868 C   0  0  2  0  0  0  0  0  0  0  0  0
    2.1939   -7.3865    1.7090 C   0  0  1  0  0  0  0  0  0  0  0  0
    2.6314   -8.7225    2.2210 C   0  0  0  0  0  0  0  0  0  0  0  0
    2.8189   -8.5091    3.6918 C   0  0  0  0  0  0  0  0  0  0  0  0
    2.7729   -9.4804    4.4473 O   0  0  0  0  0  0  0  0  0  0  0  0
    3.0982   -7.0747    4.2312 C   0  0  2  0  0  0  0  0  0  0  0  0
    2.3939   -5.6273    4.0427 C   0  0  1  0  0  0  0  0  0  0  0  0
    1.2792   -5.3275    4.7509 O   0  0  0  0  0  0  0  0  0  0  0  0
    1.0338   -6.1894    5.7927 C   0  0  2  0  0  0  0  0  0  0  0  0
   -0.0490   -7.0998    5.0857 C   0  0  0  0  0  0  0  0  0  0  0  0
    0.0126   -7.6742    3.5455 C   0  0  0  0  0  0  0  0  0  0  0  0
    0.6836   -7.0809    2.2084 C   0  0  0  0  0  0  0  0  0  0  0  0
   -0.0337   -6.3943    1.4807 O   0  0  0  0  0  0  0  0  0  0  0  0
    0.7677   -4.9602    6.7539 C   0  0  1  0  0  0  0  0  0  0  0  0
   -0.3727   -5.0363    7.7662 C   0  0  0  0  0  0  0  0  0  0  0  0
    2.2924   -5.0567    7.1977 C   0  0  1  0  0  0  0  0  0  0  0  0
    2.0591   -6.5512    6.9995 C   0  0  2  0  0  0  0  0  0  0  0  0
    3.1247   -7.5578    7.1576 O   0  0  0  0  0  0  0  0  0  0  0  0
    4.4969   -7.5864    6.6392 C   0  0  0  0  0  0  0  0  0  0  0  0
    5.0089   -6.4466    5.7097 C   0  0  2  0  0  0  0  0  0  0  0  0
    6.5150   -6.1114    5.6867 C   0  0  0  0  0  0  0  0  0  0  0  0
    6.1394   -4.6402    5.8142 C   0  0  0  0  0  0  0  0  0  0  0  0
    4.8782   -5.1045    6.5577 C   0  0  2  0  0  0  0  0  0  0  0  0
    5.1992   -5.1790    8.0730 C   0  0  0  0  0  0  0  0  0  0  0  0
    3.5356   -4.3144    6.5413 C   0  0  1  0  0  0  0  0  0  0  0  0
    3.3334   -3.5548    5.2088 C   0  0  0  0  0  0  0  0  0  0  0  0
    3.2535   -4.3809    3.9230 C   0  0  1  0  0  0  0  0  0  0  0  0
    4.4498   -4.6895    3.2222 O   0  0  0  0  0  0  0  0  0  0  0  0
    4.6079   -6.0262    2.8546 C   0  0  2  0  0  0  0  0  0  0  0  0
    5.9298   -6.2174    2.3525 O   0  0  0  0  0  0  0  0  0  0  0  0
    4.5261   -6.8521    4.2205 C   0  0  2  0  0  0  0  0  0  0  0  0
    3.0466   -3.5873   -0.8807 C   0  0  0  0  0  0  0  0  0  0  0  0
    4.0746   -2.7825   -1.7249 C   0  0  1  0  0  0  0  0  0  0  0  0
    4.1737   -3.3676   -3.1568 C   0  0  0  0  0  0  0  0  0  0  0  0
    5.2510   -3.0915   -0.8746 C   0  0  1  0  0  0  0  0  0  0  0  0
    2.9370   -0.5988   -3.2537 H   0  0  0  0  0  0  0  0  0  0  0  0
    4.6006   -0.7419   -3.8321 H   0  0  0  0  0  0  0  0  0  0  0  0
    4.1320    0.6109   -2.8289 H   0  0  0  0  0  0  0  0  0  0  0  0
    3.7687   -0.7969   -0.8874 H   0  0  0  0  0  0  0  0  0  0  0  0
    5.2606   -1.4193    0.5526 H   0  0  0  0  0  0  0  0  0  0  0  0
    4.5649   -3.1705    1.1813 H   0  0  0  0  0  0  0  0  0  0  0  0
    4.2442   -5.4572   -0.7868 H   0  0  0  0  0  0  0  0  0  0  0  0
    4.1390   -6.9387    0.8595 H   0  0  0  0  0  0  0  0  0  0  0  0
    1.9570   -7.5567    0.6606 H   0  0  0  0  0  0  0  0  0  0  0  0
    1.8717   -9.4819    2.0487 H   0  0  0  0  0  0  0  0  0  0  0  0
    3.5585   -9.0593    1.7582 H   0  0  0  0  0  0  0  0  0  0  0  0
    2.7997   -7.4444    5.1466 H   0  0  0  0  0  0  0  0  0  0  0  0
    1.9735   -5.4048    3.0968 H   0  0  0  0  0  0  0  0  0  0  0  0
   -0.1524   -7.9955    5.6997 H   0  0  0  0  0  0  0  0  0  0  0  0
   -1.0143   -6.6037    5.1829 H   0  0  0  0  0  0  0  0  0  0  0  0
    0.2913   -8.7243    3.5976 H   0  0  0  0  0  0  0  0  0  0  0  0
   -1.0332   -7.7444    3.2601 H   0  0  0  0  0  0  0  0  0  0  0  0
    0.6449   -3.9923    6.2430 H   0  0  0  0  0  0  0  0  0  0  0  0
   -0.3940   -5.9528    8.3502 H   0  0  0  0  0  0  0  0  0  0  0  0
   -1.3367   -4.9668    7.2658 H   0  0  0  0  0  0  0  0  0  0  0  0
   -0.3301   -4.2070    8.4716 H   0  0  0  0  0  0  0  0  0  0  0  0
    2.3144   -4.8786    8.2871 H   0  0  0  0  0  0  0  0  0  0  0  0
    1.4299   -6.9414    7.8014 H   0  0  0  0  0  0  0  0  0  0  0  0
    5.1372   -7.6756    7.5226 H   0  0  0  0  0  0  0  0  0  0  0  0
    4.6338   -8.5576    6.1690 H   0  0  0  0  0  0  0  0  0  0  0  0
    7.0807   -6.5110    6.5340 H   0  0  0  0  0  0  0  0  0  0  0  0
    7.0393   -6.3465    4.7580 H   0  0  0  0  0  0  0  0  0  0  0  0
    6.8337   -4.0603    6.4213 H   0  0  0  0  0  0  0  0  0  0  0  0
    5.9970   -4.1526    4.8582 H   0  0  0  0  0  0  0  0  0  0  0  0
    5.3193   -4.1889    8.5183 H   0  0  0  0  0  0  0  0  0  0  0  0
    6.1397   -5.6909    8.2912 H   0  0  0  0  0  0  0  0  0  0  0  0
    4.4420   -5.7009    8.6588 H   0  0  0  0  0  0  0  0  0  0  0  0
    3.6919   -3.4595    7.1929 H   0  0  0  0  0  0  0  0  0  0  0  0
    2.4199   -2.9715    5.2987 H   0  0  0  0  0  0  0  0  0  0  0  0
    4.1226   -2.8121    5.0844 H   0  0  0  0  0  0  0  0  0  0  0  0
    2.7742   -3.6758    3.2328 H   0  0  0  0  0  0  0  0  0  0  0  0
    6.0632   -7.1326    2.2200 H   0  0  0  0  0  0  0  0  0  0  0  0
    5.0593   -7.7808    3.9944 H   0  0  0  0  0  0  0  0  0  0  0  0
    2.2680   -4.0389   -1.5002 H   0  0  0  0  0  0  0  0  0  0  0  0
    2.5450   -2.9169   -0.1775 H   0  0  0  0  0  0  0  0  0  0  0  0
    4.2606   -4.4490   -3.1419 H   0  0  0  0  0  0  0  0  0  0  0  0
    5.0458   -2.9955   -3.6994 H   0  0  0  0  0  0  0  0  0  0  0  0
    3.2804   -3.1199   -3.7372 H   0  0  0  0  0  0  0  0  0  0  0  0
    5.9280   -3.6423   -1.5577 H   0  0  0  0  0  0  0  0  0  0  0  0
  1  2  1  0
  1 46  1  0
  1 47  1  0
  1 48  1  0
  2 43  1  0
  2  3  1  0
  2 49  1  1
  3  4  1  0
  4 45  1  0
  4  5  1  0
  4 50  1  1
  5  6  2  0
  5  7  1  0
  7  8  1  0
  8 45  1  0
  8  9  1  0
  8 51  1  1
  9 10  1  0
  9 42  1  0
  9 52  1  6
 10 11  1  0
 11 39  1  0
 11 12  1  0
 11 53  1  6
 12 22  1  0
 12 13  1  0
 12 54  1  6
 13 14  1  0
 13 55  1  0
 13 56  1  0
 14 15  2  0
 14 16  1  0
 16 41  1  0
 16 17  1  0
 16 57  1  1
 17 37  1  0
 17 18  1  0
 17 58  1  6
 18 19  1  0
 19 27  1  0
 19 20  1  6
 19 24  1  0
 20 21  1  0
 20 59  1  0
 20 60  1  0
 21 22  1  0
 21 61  1  0
 21 62  1  0
 22 23  2  0
 24 25  1  0
 24 26  1  0
 24 63  1  6
 25 64  1  0
 25 65  1  0
 25 66  1  0
 26 35  1  0
 26 27  1  0
 26 67  1  1
 27 28  1  0
 27 68  1  1
 28 29  1  0
 30 29  1  1
 29 69  1  0
 29 70  1  0
 30 33  1  0
 30 41  1  0
 30 31  1  0
 31 32  1  0
 31 71  1  0
 31 72  1  0
 32 33  1  0
 32 73  1  0
 32 74  1  0
 33 34  1  1
 33 35  1  0
 34 75  1  0
 34 76  1  0
 34 77  1  0
 35 36  1  0
 35 78  1  1
 36 37  1  0
 36 79  1  0
 36 80  1  0
 37 38  1  0
 37 81  1  6
 38 39  1  0
 39 40  1  6
 39 41  1  0
 40 82  1  0
 41 83  1  6
 42 43  1  0
 42 84  1  0
 42 85  1  0
 43 44  1  6
 43 45  1  0
 44 86  1  0
 44 87  1  0
 44 88  1  0
 45 89  1  6
M  END
>  <i_m_ct_stereo_status>  (390) 
1

>  <s_m_source_file>  (390) 
/var/tmp/pbs.5076255.sched01/tmpjgl1obm9/123zpz496x9.sdf

>  <i_m_source_file_index>  (390) 
39

>  <i_lp_mmshare_version>  (390) 
48012

>  <i_f3d_flags>  (390) 
0

>  <s_epik_input>  (390) 
W0NIM11bQ0BASF0xT1tDQEBIXShbQ0BASF0yW0NAXTEzW0NIM10pQyg9TylPW0NAQEhdMltDQEhdKFtDSDJdMylPW0NASF0oW0NAQEhdKFtDSDJdQzQ9TylDKD1PKVtDSDJdW0NIMl01KVtDQEBdNihbT0hdKU9bQ0BIXShbQ0gyXTcpW0NASF0oTzgpW0NAQEhdNFtDQEBIXTZbQ0BAXShbQ0gyXU85KShbQ0gyXVtDSDJdMSlbQ0BdMShbQ0gzXSlbQ0BASF03W0NASF0oW0NASF05W0NAXTE1OClbQ0BASF0xW0NIM10=

>  <s_epik_cmdline>  (390) 
J2VwaWtfcHl0aG9uJywgJy1waHQnLCAnMi4wJywgJy1waCcsICc3LjAnLCAnLXRuJywgJzgnLCAnLW1hJywgJzIwMCcsICctaW1hZScsICc8aW5maWxlLm1hZT4nLCAnLW9tYWUnLCAnPG91dGZpbGUubWFlPic=

>  <r_lp_tautomer_probability>  (390) 
1

>  <r_epik_Ionization_Penalty>  (390) 
2.66863e-05

>  <r_epik_Ionization_Penalty_Charging>  (390) 
0

>  <r_epik_Ionization_Penalty_Neutral>  (390) 
2.66863e-05

>  <r_epik_State_Penalty>  (390) 
-0

>  <r_epik_Charging_Adjusted_Penalty>  (390) 
0

>  <i_epik_Tot_Q>  (390) 
0

>  <i_epik_Tot_abs_Q>  (390) 
0

>  <s_epik_Chemistry_Notes>  (390) 
This compound has an ester and may undergo hydrolysis at high or low pH.

>  <s_lp_Force_Field>  (390) 
OPLS3e

>  <r_lp_Energy>  (390) 
374.079

>  <b_lp_Chiralities_Consistent>  (390) 
1

>  <s_lp_Variant>  (390) 
114:0-1

>  <s_i_glide_gridfile>  (390) 
pfpi4k_grid

>  <i_i_glide_lignum>  (390) 
39

>  <i_i_glide_rotatable_bonds>  (390) 
3

>  <r_i_docking_score>  (390) 
-3.16991

>  <r_i_glide_ligand_efficiency>  (390) 
-0.0704425

>  <r_i_glide_ligand_efficiency_sa>  (390) 
-0.250556

>  <r_i_glide_ligand_efficiency_ln>  (390) 
-0.659483

>  <r_i_glide_gscore>  (390) 
-3.16991

>  <r_i_glide_lipo>  (390) 
-0.426083

>  <r_i_glide_hbond>  (390) 
-0.359506

>  <r_i_glide_metal>  (390) 
-0

>  <r_i_glide_rewards>  (390) 
-0.145224

>  <r_i_glide_evdw>  (390) 
-29.575

>  <r_i_glide_ecoul>  (390) 
-5.38325

>  <r_i_glide_erotb>  (390) 
0.108229

>  <r_i_glide_esite>  (390) 
-0.0610885

>  <r_i_glide_emodel>  (390) 
-41.0752

>  <r_i_glide_energy>  (390) 
-34.9583

>  <r_i_glide_einternal>  (390) 
3.31019

>  <r_i_glide_intrahb_reward>  (390) 
-0

>  <i_i_glide_confnum>  (390) 
2

>  <i_i_glide_posenum>  (390) 
1

>  <r_i_glide_eff_state_penalty>  (390) 
0

>  <ligand_id>  (390) 
114

>  <original_smiles>  (390) 
CC1OC2C(=O)OC3C(OC4C5CC(=O)C6C7OC8(CCC5=O)C(C)C5C8OCC89CCC8(C)C5CC7OC4(O)C69)CC1(C)C23

>  <smiles>  (390) 
[H]OC12OC3([H])C([H])([H])C4([H])C5([H])C6([H])OC([H])([H])C7(C([H])([H])C([H])([H])C47C([H])([H])[H])C1([H])C1([H])C(=O)C([H])([H])C([H])(C(=O)C([H])([H])C([H])([H])C6(OC31[H])C5([H])C([H])([H])[H])C2([H])OC1([H])C([H])([H])C2(C([H])([H])[H])C([H])(C([H])([H])[H])OC3([H])C(=O)OC1([H])C32[H]

$$$$
114:0:2
     RDKit          3D

 89 99  0  0  1  0  0  0  0  0999 V2000
    4.0535   -0.5693   -2.7760 C   0  0  0  0  0  0  0  0  0  0  0  0
    4.4113   -1.4115   -1.5398 C   0  0  2  0  0  0  0  0  0  0  0  0
    5.8457   -1.3290   -1.2833 O   0  0  0  0  0  0  0  0  0  0  0  0
    5.9336   -2.1301   -0.1309 C   0  0  2  0  0  0  0  0  0  0  0  0
    7.1052   -2.9954    0.3346 C   0  0  0  0  0  0  0  0  0  0  0  0
    8.2879   -2.6554    0.4004 O   0  0  0  0  0  0  0  0  0  0  0  0
    6.5107   -4.2196    0.6513 O   0  0  0  0  0  0  0  0  0  0  0  0
    5.0876   -4.0865    0.4587 C   0  0  2  0  0  0  0  0  0  0  0  0
    3.9484   -4.9271   -0.0872 C   0  0  1  0  0  0  0  0  0  0  0  0
    3.1259   -5.4855    0.9293 O   0  0  0  0  0  0  0  0  0  0  0  0
    3.5102   -6.7631    1.4407 C   0  0  2  0  0  0  0  0  0  0  0  0
    2.0885   -7.6121    1.5744 C   0  0  1  0  0  0  0  0  0  0  0  0
    2.4109   -9.0277    1.9307 C   0  0  0  0  0  0  0  0  0  0  0  0
    2.7281   -8.9895    3.3936 C   0  0  0  0  0  0  0  0  0  0  0  0
    2.6324  -10.0203    4.0595 O   0  0  0  0  0  0  0  0  0  0  0  0
    3.2094   -7.6569    4.0415 C   0  0  2  0  0  0  0  0  0  0  0  0
    2.6587   -6.1336    4.0534 C   0  0  1  0  0  0  0  0  0  0  0  0
    1.6379   -5.7968    4.8689 O   0  0  0  0  0  0  0  0  0  0  0  0
    1.3707   -6.7264    5.8449 C   0  0  2  0  0  0  0  0  0  0  0  0
    0.1431   -7.4494    5.1389 C   0  0  0  0  0  0  0  0  0  0  0  0
    0.0324   -7.8552    3.5521 C   0  0  0  0  0  0  0  0  0  0  0  0
    0.6628   -7.1751    2.2332 C   0  0  0  0  0  0  0  0  0  0  0  0
    0.0335   -6.2696    1.6966 O   0  0  0  0  0  0  0  0  0  0  0  0
    1.3128   -5.5789    6.9246 C   0  0  1  0  0  0  0  0  0  0  0  0
    0.2439   -5.6424    8.0254 C   0  0  0  0  0  0  0  0  0  0  0  0
    2.8410   -5.8778    7.2493 C   0  0  1  0  0  0  0  0  0  0  0  0
    2.4367   -7.3127    6.9196 C   0  0  2  0  0  0  0  0  0  0  0  0
    3.3979   -8.4290    6.9005 O   0  0  0  0  0  0  0  0  0  0  0  0
    4.7161   -8.5472    6.2706 C   0  0  0  0  0  0  0  0  0  0  0  0
    5.2788   -7.3792    5.4055 C   0  0  2  0  0  0  0  0  0  0  0  0
    6.8099   -7.1971    5.2926 C   0  0  0  0  0  0  0  0  0  0  0  0
    6.6045   -5.7106    5.5855 C   0  0  0  0  0  0  0  0  0  0  0  0
    5.3524   -6.1196    6.3795 C   0  0  2  0  0  0  0  0  0  0  0  0
    5.7774   -6.3788    7.8583 C   0  0  0  0  0  0  0  0  0  0  0  0
    4.1104   -5.1974    6.5450 C   0  0  1  0  0  0  0  0  0  0  0  0
    3.8982   -4.2934    5.3203 C   0  0  0  0  0  0  0  0  0  0  0  0
    3.6406   -4.9727    3.9707 C   0  0  1  0  0  0  0  0  0  0  0  0
    4.7431   -5.3343    3.1458 O   0  0  0  0  0  0  0  0  0  0  0  0
    4.7209   -6.6382    2.6314 C   0  0  2  0  0  0  0  0  0  0  0  0
    5.9390   -6.9181    1.9810 O   0  0  0  0  0  0  0  0  0  0  0  0
    4.6490   -7.5805    3.9224 C   0  0  2  0  0  0  0  0  0  0  0  0
    3.1195   -3.7839   -0.7973 C   0  0  0  0  0  0  0  0  0  0  0  0
    4.1462   -2.9536   -1.6204 C   0  0  1  0  0  0  0  0  0  0  0  0
    4.2262   -3.4696   -3.0785 C   0  0  0  0  0  0  0  0  0  0  0  0
    5.3302   -3.3113   -0.7974 C   0  0  1  0  0  0  0  0  0  0  0  0
    3.0039   -0.6859   -3.0358 H   0  0  0  0  0  0  0  0  0  0  0  0
    4.6496   -0.8353   -3.6457 H   0  0  0  0  0  0  0  0  0  0  0  0
    4.2170    0.4904   -2.5893 H   0  0  0  0  0  0  0  0  0  0  0  0
    3.8606   -1.0017   -0.6908 H   0  0  0  0  0  0  0  0  0  0  0  0
    5.3732   -1.7074    0.7084 H   0  0  0  0  0  0  0  0  0  0  0  0
    4.6691   -3.4801    1.2654 H   0  0  0  0  0  0  0  0  0  0  0  0
    4.3026   -5.6666   -0.8038 H   0  0  0  0  0  0  0  0  0  0  0  0
    3.9991   -7.2972    0.6253 H   0  0  0  0  0  0  0  0  0  0  0  0
    1.7484   -7.6542    0.5266 H   0  0  0  0  0  0  0  0  0  0  0  0
    1.5684   -9.6963    1.7573 H   0  0  0  0  0  0  0  0  0  0  0  0
    3.2652   -9.4115    1.3721 H   0  0  0  0  0  0  0  0  0  0  0  0
    2.9413   -8.0869    4.9390 H   0  0  0  0  0  0  0  0  0  0  0  0
    2.2063   -5.7709    3.1691 H   0  0  0  0  0  0  0  0  0  0  0  0
   -0.0120   -8.3868    5.6788 H   0  0  0  0  0  0  0  0  0  0  0  0
   -0.7480   -6.8647    5.3655 H   0  0  0  0  0  0  0  0  0  0  0  0
    0.2013   -8.9250    3.4811 H   0  0  0  0  0  0  0  0  0  0  0  0
   -1.0368   -7.7980    3.3507 H   0  0  0  0  0  0  0  0  0  0  0  0
    1.2574   -4.5627    6.5235 H   0  0  0  0  0  0  0  0  0  0  0  0
    0.1664   -6.6062    8.5232 H   0  0  0  0  0  0  0  0  0  0  0  0
   -0.7404   -5.4278    7.6129 H   0  0  0  0  0  0  0  0  0  0  0  0
    0.4257   -4.8946    8.7939 H   0  0  0  0  0  0  0  0  0  0  0  0
    2.9612   -5.8139    8.3313 H   0  0  0  0  0  0  0  0  0  0  0  0
    1.8281   -7.7135    7.7338 H   0  0  0  0  0  0  0  0  0  0  0  0
    5.4011   -8.7870    7.0823 H   0  0  0  0  0  0  0  0  0  0  0  0
    4.7091   -9.4747    5.7004 H   0  0  0  0  0  0  0  0  0  0  0  0
    7.3813   -7.7308    6.0529 H   0  0  0  0  0  0  0  0  0  0  0  0
    7.2373   -7.3909    4.3110 H   0  0  0  0  0  0  0  0  0  0  0  0
    7.3978   -5.2711    6.1850 H   0  0  0  0  0  0  0  0  0  0  0  0
    6.4489   -5.1185    4.6937 H   0  0  0  0  0  0  0  0  0  0  0  0
    6.0332   -5.4544    8.3764 H   0  0  0  0  0  0  0  0  0  0  0  0
    6.6655   -7.0023    7.9473 H   0  0  0  0  0  0  0  0  0  0  0  0
    5.0084   -6.8754    8.4482 H   0  0  0  0  0  0  0  0  0  0  0  0
    4.4052   -4.4339    7.2669 H   0  0  0  0  0  0  0  0  0  0  0  0
    3.0579   -3.6341    5.5337 H   0  0  0  0  0  0  0  0  0  0  0  0
    4.7492   -3.6242    5.1973 H   0  0  0  0  0  0  0  0  0  0  0  0
    3.1900   -4.1576    3.3922 H   0  0  0  0  0  0  0  0  0  0  0  0
    6.5807   -7.1381    2.6380 H   0  0  0  0  0  0  0  0  0  0  0  0
    5.0573   -8.5344    3.5715 H   0  0  0  0  0  0  0  0  0  0  0  0
    2.3294   -4.2011   -1.4253 H   0  0  0  0  0  0  0  0  0  0  0  0
    2.6346   -3.1412   -0.0582 H   0  0  0  0  0  0  0  0  0  0  0  0
    4.3119   -4.5518   -3.1150 H   0  0  0  0  0  0  0  0  0  0  0  0
    5.0959   -3.0830   -3.6107 H   0  0  0  0  0  0  0  0  0  0  0  0
    3.3299   -3.1919   -3.6363 H   0  0  0  0  0  0  0  0  0  0  0  0
    5.9899   -3.8354   -1.5124 H   0  0  0  0  0  0  0  0  0  0  0  0
  1  2  1  0
  1 46  1  0
  1 47  1  0
  1 48  1  0
  2 43  1  0
  2  3  1  0
  2 49  1  1
  3  4  1  0
  4 45  1  0
  4  5  1  0
  4 50  1  1
  5  6  2  0
  5  7  1  0
  7  8  1  0
  8 45  1  0
  8  9  1  0
  8 51  1  1
  9 10  1  0
  9 42  1  0
  9 52  1  6
 10 11  1  0
 11 39  1  0
 11 12  1  0
 11 53  1  6
 12 22  1  0
 12 13  1  0
 12 54  1  6
 13 14  1  0
 13 55  1  0
 13 56  1  0
 14 15  2  0
 14 16  1  0
 16 41  1  0
 16 17  1  0
 16 57  1  1
 17 37  1  0
 17 18  1  0
 17 58  1  6
 18 19  1  0
 19 27  1  0
 19 20  1  6
 19 24  1  0
 20 21  1  0
 20 59  1  0
 20 60  1  0
 21 22  1  0
 21 61  1  0
 21 62  1  0
 22 23  2  0
 24 25  1  0
 24 26  1  0
 24 63  1  6
 25 64  1  0
 25 65  1  0
 25 66  1  0
 26 35  1  0
 26 27  1  0
 26 67  1  1
 27 28  1  0
 27 68  1  1
 28 29  1  0
 30 29  1  1
 29 69  1  0
 29 70  1  0
 30 33  1  0
 30 41  1  0
 30 31  1  0
 31 32  1  0
 31 71  1  0
 31 72  1  0
 32 33  1  0
 32 73  1  0
 32 74  1  0
 33 34  1  1
 33 35  1  0
 34 75  1  0
 34 76  1  0
 34 77  1  0
 35 36  1  0
 35 78  1  1
 36 37  1  0
 36 79  1  0
 36 80  1  0
 37 38  1  0
 37 81  1  6
 38 39  1  0
 39 40  1  6
 39 41  1  0
 40 82  1  0
 41 83  1  6
 42 43  1  0
 42 84  1  0
 42 85  1  0
 43 44  1  6
 43 45  1  0
 44 86  1  0
 44 87  1  0
 44 88  1  0
 45 89  1  6
M  END
>  <i_m_ct_stereo_status>  (391) 
1

>  <s_m_source_file>  (391) 
/var/tmp/pbs.5076255.sched01/tmpjgl1obm9/123zpz496x9.sdf

>  <i_m_source_file_index>  (391) 
39

>  <i_lp_mmshare_version>  (391) 
48012

>  <i_f3d_flags>  (391) 
0

>  <s_epik_input>  (391) 
W0NIM11bQ0BASF0xT1tDQEBIXShbQ0BASF0yW0NAXTEzW0NIM10pQyg9TylPW0NAQEhdMltDQEhdKFtDSDJdMylPW0NASF0oW0NAQEhdKFtDSDJdQzQ9TylDKD1PKVtDSDJdW0NIMl01KVtDQEBdNihbT0hdKU9bQ0BIXShbQ0gyXTcpW0NASF0oTzgpW0NAQEhdNFtDQEBIXTZbQ0BAXShbQ0gyXU85KShbQ0gyXVtDSDJdMSlbQ0BdMShbQ0gzXSlbQ0BASF03W0NASF0oW0NASF05W0NAXTE1OClbQ0BASF0xW0NIM10=

>  <s_epik_cmdline>  (391) 
J2VwaWtfcHl0aG9uJywgJy1waHQnLCAnMi4wJywgJy1waCcsICc3LjAnLCAnLXRuJywgJzgnLCAnLW1hJywgJzIwMCcsICctaW1hZScsICc8aW5maWxlLm1hZT4nLCAnLW9tYWUnLCAnPG91dGZpbGUubWFlPic=

>  <r_lp_tautomer_probability>  (391) 
1

>  <r_epik_Ionization_Penalty>  (391) 
2.66863e-05

>  <r_epik_Ionization_Penalty_Charging>  (391) 
0

>  <r_epik_Ionization_Penalty_Neutral>  (391) 
2.66863e-05

>  <r_epik_State_Penalty>  (391) 
-0

>  <r_epik_Charging_Adjusted_Penalty>  (391) 
0

>  <i_epik_Tot_Q>  (391) 
0

>  <i_epik_Tot_abs_Q>  (391) 
0

>  <s_epik_Chemistry_Notes>  (391) 
This compound has an ester and may undergo hydrolysis at high or low pH.

>  <s_lp_Force_Field>  (391) 
OPLS3e

>  <r_lp_Energy>  (391) 
374.079

>  <b_lp_Chiralities_Consistent>  (391) 
1

>  <s_lp_Variant>  (391) 
114:0-1

>  <s_i_glide_gridfile>  (391) 
pfpi4k_grid

>  <i_i_glide_lignum>  (391) 
39

>  <i_i_glide_rotatable_bonds>  (391) 
3

>  <r_i_docking_score>  (391) 
-3.16248

>  <r_i_glide_ligand_efficiency>  (391) 
-0.0702773

>  <r_i_glide_ligand_efficiency_sa>  (391) 
-0.249969

>  <r_i_glide_ligand_efficiency_ln>  (391) 
-0.657937

>  <r_i_glide_gscore>  (391) 
-3.16248

>  <r_i_glide_lipo>  (391) 
-0.349063

>  <r_i_glide_hbond>  (391) 
-0.371873

>  <r_i_glide_metal>  (391) 
-0

>  <r_i_glide_rewards>  (391) 
-0.177528

>  <r_i_glide_evdw>  (391) 
-28.7205

>  <r_i_glide_ecoul>  (391) 
-5.83215

>  <r_i_glide_erotb>  (391) 
0.108229

>  <r_i_glide_esite>  (391) 
-0.0613978

>  <r_i_glide_emodel>  (391) 
-40.8804

>  <r_i_glide_energy>  (391) 
-34.5526

>  <r_i_glide_einternal>  (391) 
2.69746

>  <r_i_glide_intrahb_reward>  (391) 
-0

>  <i_i_glide_confnum>  (391) 
1

>  <i_i_glide_posenum>  (391) 
9

>  <r_i_glide_eff_state_penalty>  (391) 
0

>  <ligand_id>  (391) 
114

>  <original_smiles>  (391) 
CC1OC2C(=O)OC3C(OC4C5CC(=O)C6C7OC8(CCC5=O)C(C)C5C8OCC89CCC8(C)C5CC7OC4(O)C69)CC1(C)C23

>  <smiles>  (391) 
[H]OC12OC3([H])C([H])([H])C4([H])C5([H])C6([H])OC([H])([H])C7(C([H])([H])C([H])([H])C47C([H])([H])[H])C1([H])C1([H])C(=O)C([H])([H])C([H])(C(=O)C([H])([H])C([H])([H])C6(OC31[H])C5([H])C([H])([H])[H])C2([H])OC1([H])C([H])([H])C2(C([H])([H])[H])C([H])(C([H])([H])[H])OC3([H])C(=O)OC1([H])C32[H]

$$$$
